data_PCOD9513211
_publ_section_title
;
Structure prediction by ZEFSAII (Michael W. Deem and Ramdas Pophale) SiO2 
 PCOD9513211
Probable space group: F M M M
;
_chemical_formula_sum "Si O2"
_cell_formula_units_Z 144
_cell_length_a 30.790303
_cell_length_b 15.699043
_cell_length_c 14.409794
_cell_angle_alpha 90.000000
_cell_angle_beta 90.000000
_cell_angle_gamma 90.000000
_cell_volume 6965.381594
_symmetry_space_group_name_H-M "F M M M"
_symmetry_group_IT_number 69
_symmetry_cell_setting 'orthorhombic'
loop_
_space_group_symop_operation_xyz
x,y,z
-x,-y,z
x,-y,-z
-x,y,-z
-x,-y,-z
x,y,-z
-x,y,z
x,-y,z
x,1/2+y,1/2+z
-x,1/2-y,1/2+z
x,1/2-y,1/2-z
-x,1/2+y,1/2-z
-x,1/2-y,1/2-z
x,1/2+y,1/2-z
-x,1/2+y,1/2+z
x,1/2-y,1/2+z
1/2+x,y,1/2+z
1/2-x,-y,1/2+z
1/2+x,-y,1/2-z
1/2-x,y,1/2-z
1/2-x,-y,1/2-z
1/2+x,y,1/2-z
1/2-x,y,1/2+z
1/2+x,-y,1/2+z
1/2+x,1/2+y,z
1/2-x,1/2-y,z
1/2+x,1/2-y,-z
1/2-x,1/2+y,-z
1/2-x,1/2-y,-z
1/2+x,1/2+y,-z
1/2-x,1/2+y,z
1/2+x,1/2-y,z
loop_
_atom_site_type_symbol
_atom_site_label
_atom_site_fract_x
_atom_site_fract_y
_atom_site_fract_z
Si Si1 0.551598 0.000000 0.895844
Si Si2 0.784543 0.630129 0.606251
Si Si3 0.137897 0.905818 0.237726
Si Si4 0.450750 0.852850 0.744355
Si Si5 0.809749 0.329318 0.106364
O O1 0.557661 0.088385 0.836652
O O2 0.500000 0.000000 0.908023
O O3 0.571598 0.000000 0.000000
O O4 0.786938 0.601596 0.500000
O O5 0.821783 0.591941 0.668480
O O6 0.795900 0.730845 0.607476
O O7 0.734295 0.620941 0.635943
O O8 0.092923 0.878222 0.189265
O O9 0.152192 0.844541 0.321246
O O10 0.132842 0.000000 0.277907
O O11 0.500000 0.875841 0.712793
O O12 0.450269 0.750000 0.750000
O O13 0.820350 0.352295 0.000000
#
# Coordination Sequence:
#
# PCOD9513211 Si02
#       5
#    16  32  32  32  32
#     4   9  18  36  62  92 122 151 195 257 314 366
#     4   9  19  37  58  78 108 151 198 243 289 348
#     4  12  23  34  54  84 117 155 193 242 297 358
#     4  10  21  39  61  86 118 159 200 246 308 373
#     4   9  19  36  57  82 111 146 191 246 298 350
#
# _framework density 20.673669
#
# number of rings (size 3 to 8) (size 9 to 14) (size 15 to 20)
#    0.000    2.111    1.111    4.000    0.000    5.333 
#    0.000    3.333    0.000    2.000    0.000    1.556 
#    0.000    0.000    0.000    0.000    0.000    0.000 
#
# Total GULP energy -200429.421647 kJ/mol
# GULP energy per Si atom -5567.483935 kJ/mol
# Density = 2.062662 g / cm^3
# Si number density = 20.673669 Si / 1000 Ang^3
#
#
#
# Elastic Constant Matrix: (Units=GPa)
#
#
# Indices 1 2 3 4 5 6 
#
# 1 124.5041 16.6362 29.5630 0.0000 0.0000 0.0000
# 2 16.6362 87.3731 22.7365 0.0000 0.0000 0.0000
# 3 29.5630 22.7365 43.0409 0.0000 0.0000 0.0000
# 4 0.0000 0.0000 0.0000 137.0407 0.0000 0.0000
# 5 0.0000 0.0000 0.0000 0.0000 9.2930 0.0000
# 6 0.0000 0.0000 0.0000 0.0000 0.0000 25.3232
#
#
#
# Elastic Compliance Matrix: (Units=1/GPa)
#
#
# Indices 1 2 3 4 5 6 
#
# 1 0.009598 -0.000130 -0.006524 0.000000 0.000000 0.000000
# 2 -0.000130 0.013271 -0.006921 0.000000 0.000000 0.000000
# 3 -0.006524 -0.006921 0.031371 0.000000 0.000000 0.000000
# 4 0.000000 0.000000 0.000000 0.007297 0.000000 0.000000
# 5 0.000000 0.000000 0.000000 0.000000 0.107608 0.000000
# 6 0.000000 0.000000 0.000000 0.000000 0.000000 0.039489
#
#
# Mechanical properties :
#
#
# Convention : Reuss Voigt Hill
#
# Bulk Modulus (GPa) = 36.91410 43.64328 40.27869
# Shear Modulus (GPa) = 20.42355 46.73019 33.57687
#
# Velocity S-wave (km/s) = 3.14650 4.75950 4.03443
# Velocity P-wave (km/s) = 5.57629 7.16660 6.42087
#
# Compressibility (1/GPa) = 0.02708992
#
# Stress axis : x y z
#
# Youngs Moduli (GPa) = 104.18476 75.35249 31.87660
#
# Poissons Ratio (x) = 0.00978 0.20797
# Poissons Ratio (y) = 0.01353 0.22063
# Poissons Ratio (z) = 0.67971 0.52153
#
# Static dielectric constant tensor:
#      x y z
#    x 1.795230 0.000000 0.000000 
#    y 0.000000 1.788600 0.000000 
#    z 0.000000 0.000000 1.771890 
# 
# From -- ./inp_files/19466.got.cif
#   From: 2010.05.17/outbox.cif.g08.bks.cpg/sg69_10_cif.got.tgz:19466.got - 2010.06.03 19:29:58.
