data_PCOD9513559
_publ_section_title
;
Structure prediction by ZEFSAII (Michael W. Deem and Ramdas Pophale) SiO2 
 PCOD9513559
Probable space group: F M M M
;
_chemical_formula_sum "Si O2"
_cell_formula_units_Z 116
_cell_length_a 14.425622
_cell_length_b 18.885483
_cell_length_c 24.484038
_cell_angle_alpha 90.000000
_cell_angle_beta 90.000000
_cell_angle_gamma 90.000000
_cell_volume 6670.304952
_symmetry_space_group_name_H-M "F M M M"
_symmetry_group_IT_number 69
_symmetry_cell_setting 'orthorhombic'
loop_
_space_group_symop_operation_xyz
x,y,z
-x,-y,z
x,-y,-z
-x,y,-z
-x,-y,-z
x,y,-z
-x,y,z
x,-y,z
x,1/2+y,1/2+z
-x,1/2-y,1/2+z
x,1/2-y,1/2-z
-x,1/2+y,1/2-z
-x,1/2-y,1/2-z
x,1/2+y,1/2-z
-x,1/2+y,1/2+z
x,1/2-y,1/2+z
1/2+x,y,1/2+z
1/2-x,-y,1/2+z
1/2+x,-y,1/2-z
1/2-x,y,1/2-z
1/2-x,-y,1/2-z
1/2+x,y,1/2-z
1/2-x,y,1/2+z
1/2+x,-y,1/2+z
1/2+x,1/2+y,z
1/2-x,1/2-y,z
1/2+x,1/2-y,-z
1/2-x,1/2+y,-z
1/2-x,1/2-y,-z
1/2+x,1/2+y,-z
1/2-x,1/2+y,z
1/2+x,1/2-y,z
loop_
_atom_site_type_symbol
_atom_site_label
_atom_site_fract_x
_atom_site_fract_y
_atom_site_fract_z
Si Si1 0.698298 0.920563 0.692122
Si Si2 0.500000 0.500000 0.500000
Si Si3 0.301194 0.823976 0.105769
Si Si4 0.689643 0.578876 0.500000
Si Si5 0.000000 0.858173 0.217757
Si Si6 0.000000 0.296084 0.838970
O O1 0.750000 0.919477 0.750000
O O2 0.747257 0.863304 0.654330
O O3 0.592045 0.900424 0.702168
O O4 0.706896 0.000000 0.669050
O O5 0.581321 0.560044 0.500000
O O6 0.250000 0.750000 0.094837
O O7 0.407092 0.811332 0.126066
O O8 0.292591 0.874847 0.053578
O O9 0.736062 0.500000 0.500000
O O10 0.000000 0.784256 0.184176
O O11 0.000000 0.842116 0.282880
#
# Coordination Sequence:
#
# PCOD9513559 Si02
#       6
#    32   4  32  16  16  16
#     4  11  23  39  59  91 125 168 209 252 310 372
#     4   8  20  44  68  84 128 150 198 264 316 370
#     4  12  23  41  65  91 123 163 211 260 311 376
#     4  10  23  43  62  93 121 159 199 262 321 366
#     4  11  21  40  58  89 133 168 202 256 299 376
#     4  11  23  35  64  92 124 161 208 257 309 359
#
# _framework density 17.390509000000002
#
# number of rings (size 3 to 8) (size 9 to 14) (size 15 to 20)
#    0.414    0.552    5.517    2.483    0.000    0.552 
#    0.000    0.000    0.000    0.828    0.000    3.862 
#    0.000    0.000    0.000    0.000    0.000    0.000 
#
# Total GULP energy -161573.422909 kJ/mol
# GULP energy per Si atom -5571.497342 kJ/mol
# Density = 1.735093 g / cm^3
# Si number density = 17.390509 Si / 1000 Ang^3
#
#
#
# Elastic Constant Matrix: (Units=GPa)
#
#
# Indices 1 2 3 4 5 6 
#
# 1 134.5641 46.1720 31.9872 0.0000 0.0000 0.0000
# 2 46.1720 137.6119 51.7129 0.0000 0.0000 0.0000
# 3 31.9872 51.7129 88.7983 0.0000 0.0000 0.0000
# 4 0.0000 0.0000 0.0000 141.2543 0.0000 0.0000
# 5 0.0000 0.0000 0.0000 0.0000 -24.6199 0.0000
# 6 0.0000 0.0000 0.0000 0.0000 0.0000 32.3660
#
#
#
# Elastic Compliance Matrix: (Units=1/GPa)
#
#
# Indices 1 2 3 4 5 6 
#
# 1 0.008622 -0.002209 -0.001819 0.000000 0.000000 0.000000
# 2 -0.002209 0.009869 -0.004951 0.000000 0.000000 0.000000
# 3 -0.001819 -0.004951 0.014800 0.000000 0.000000 0.000000
# 4 0.000000 0.000000 0.000000 0.007079 0.000000 0.000000
# 5 0.000000 0.000000 0.000000 0.000000 -0.040618 0.000000
# 6 0.000000 0.000000 0.000000 0.000000 0.000000 0.030897
#
#
# Mechanical properties :
#
#
# Convention : Reuss Voigt Hill
#
# Bulk Modulus (GPa) = 65.22616 68.96873 67.09745
# Shear Modulus (GPa) = 93.07626 45.20690 69.14158
#
# Velocity S-wave (km/s) = 7.32376 5.10408 6.31225
# Velocity P-wave (km/s) = 10.44533 8.63020 9.58085
#
# Compressibility (1/GPa) = 0.01533127
#
# Stress axis : x y z
#
# Youngs Moduli (GPa) = 115.98400 101.33037 67.56614
#
# Poissons Ratio (x) = 0.22386 0.12292
# Poissons Ratio (y) = 0.25623 0.33455
# Poissons Ratio (z) = 0.21100 0.50172
#
# Static dielectric constant tensor:
#      x y z
#    x 1.551600 0.000000 0.000000 
#    y 0.000000 1.593270 0.000000 
#    z 0.000000 0.000000 1.593290 
# 
# From -- ./inp_files/15190.got.cif
#   From: 2010.05.17/outbox.cif.g08.bks.cpg/sg69_8_cif.got.tgz:15190.got - 2010.06.03 19:29:58.
