data_PCOD9513114
_publ_section_title
;
Structure prediction by ZEFSAII (Michael W. Deem and Ramdas Pophale) SiO2 
 PCOD9513114
Probable space group: F M M M
;
_chemical_formula_sum "Si O2"
_cell_formula_units_Z 176
_cell_length_a 22.285255
_cell_length_b 25.356530
_cell_length_c 14.742680
_cell_angle_alpha 90.000000
_cell_angle_beta 90.000000
_cell_angle_gamma 90.000000
_cell_volume 8330.745509
_symmetry_space_group_name_H-M "F M M M"
_symmetry_group_IT_number 69
_symmetry_cell_setting 'orthorhombic'
loop_
_space_group_symop_operation_xyz
x,y,z
-x,-y,z
x,-y,-z
-x,y,-z
-x,-y,-z
x,y,-z
-x,y,z
x,-y,z
x,1/2+y,1/2+z
-x,1/2-y,1/2+z
x,1/2-y,1/2-z
-x,1/2+y,1/2-z
-x,1/2-y,1/2-z
x,1/2+y,1/2-z
-x,1/2+y,1/2+z
x,1/2-y,1/2+z
1/2+x,y,1/2+z
1/2-x,-y,1/2+z
1/2+x,-y,1/2-z
1/2-x,y,1/2-z
1/2-x,-y,1/2-z
1/2+x,y,1/2-z
1/2-x,y,1/2+z
1/2+x,-y,1/2+z
1/2+x,1/2+y,z
1/2-x,1/2-y,z
1/2+x,1/2-y,-z
1/2-x,1/2+y,-z
1/2-x,1/2-y,-z
1/2+x,1/2+y,-z
1/2-x,1/2+y,z
1/2+x,1/2-y,z
loop_
_atom_site_type_symbol
_atom_site_label
_atom_site_fract_x
_atom_site_fract_y
_atom_site_fract_z
Si Si1 0.432301 0.299026 0.101873
Si Si2 0.887612 0.102241 0.207905
Si Si3 0.281391 0.937938 0.605169
Si Si4 0.654013 0.388067 0.396409
Si Si5 0.070267 0.500000 0.601801
Si Si6 0.315594 0.732588 0.644606
O O1 0.500000 0.276989 0.116716
O O2 0.418795 0.345014 0.173041
O O3 0.376314 0.259222 0.106544
O O4 0.431982 0.322195 0.000000
O O5 0.818424 0.099614 0.172667
O O6 0.890780 0.097638 0.315655
O O7 0.913094 0.052077 0.156125
O O8 0.298063 0.926433 0.500000
O O9 0.211070 0.926487 0.611340
O O10 0.292344 0.000000 0.624835
O O11 0.631859 0.389264 0.500000
O O12 0.677365 0.329385 0.372743
O O13 0.096038 0.500000 0.500000
O O14 0.000000 0.500000 0.592731
O O15 0.315719 0.750000 0.750000
O O16 0.250000 0.750000 0.608248
#
# Coordination Sequence:
#
# PCOD9513114 Si02
#       6
#    32  32  32  32  16  32
#     4  11  24  42  68 100 132 170 220 279 342 407
#     4  12  22  39  64  93 130 173 214 268 333 398
#     4  10  21  37  62  96 131 168 214 273 338 399
#     4  11  25  41  60  93 133 175 218 267 326 395
#     4  11  24  42  66  95 125 159 210 274 334 391
#     4  11  23  43  68  98 132 176 227 277 338 400
#
# _framework density 21.126560000000001
#
# number of rings (size 3 to 8) (size 9 to 14) (size 15 to 20)
#    0.000    1.000    2.727    4.364    3.818    5.455 
#    0.000    0.000    0.000    3.818    0.000    0.000 
#    0.000    0.000    0.000    0.000    0.000    0.000 
#
# Total GULP energy -245846.982231 kJ/mol
# GULP energy per Si atom -5587.431414 kJ/mol
# Density = 2.107848 g / cm^3
# Si number density = 21.126560 Si / 1000 Ang^3
#
#
#
# Elastic Constant Matrix: (Units=GPa)
#
#
# Indices 1 2 3 4 5 6 
#
# 1 110.2674 31.3484 39.5297 0.0000 0.0000 0.0000
# 2 31.3484 65.7808 11.6854 0.0000 0.0000 0.0000
# 3 39.5297 11.6854 148.1742 0.0000 0.0000 0.0000
# 4 0.0000 0.0000 0.0000 23.0447 0.0000 0.0000
# 5 0.0000 0.0000 0.0000 0.0000 21.6191 0.0000
# 6 0.0000 0.0000 0.0000 0.0000 0.0000 -9.1687
#
#
#
# Elastic Compliance Matrix: (Units=1/GPa)
#
#
# Indices 1 2 3 4 5 6 
#
# 1 0.011437 -0.004978 -0.002659 0.000000 0.000000 0.000000
# 2 -0.004978 0.017585 -0.000059 0.000000 0.000000 0.000000
# 3 -0.002659 -0.000059 0.007463 0.000000 0.000000 0.000000
# 4 0.000000 0.000000 0.000000 0.043394 0.000000 0.000000
# 5 0.000000 0.000000 0.000000 0.000000 0.046255 0.000000
# 6 0.000000 0.000000 0.000000 0.000000 0.000000 -0.109067
#
#
# Mechanical properties :
#
#
# Convention : Reuss Voigt Hill
#
# Bulk Modulus (GPa) = 47.40753 54.37216 50.88985
# Shear Modulus (GPa) = 126.61484 23.20961 74.91222
#
# Velocity S-wave (km/s) = 7.74995 3.31811 5.96119
# Velocity P-wave (km/s) = 10.12772 6.36177 8.45703
#
# Compressibility (1/GPa) = 0.02109370
#
# Stress axis : x y z
#
# Youngs Moduli (GPa) = 87.43375 56.86707 133.99972
#
# Poissons Ratio (x) = 0.28310 0.35625
# Poissons Ratio (y) = 0.43527 0.00787
# Poissons Ratio (z) = 0.23245 0.00334
#
# Static dielectric constant tensor:
#      x y z
#    x 1.811950 0.000000 0.000000 
#    y 0.000000 1.722240 0.000000 
#    z 0.000000 0.000000 1.795810 
# 
# From -- ./inp_files/18095.got.cif
#   From: 2010.05.17/outbox.cif.g08.bks.cpg/sg69_10_cif.got.tgz:18095.got - 2010.06.03 19:29:58.
