data_PCOD9513647
_publ_section_title
;
Structure prediction by ZEFSAII (Michael W. Deem and Ramdas Pophale) SiO2 
 PCOD9513647
Probable space group: F M M M
;
_chemical_formula_sum "Si O2"
_cell_formula_units_Z 160
_cell_length_a 17.180213
_cell_length_b 20.892109
_cell_length_c 23.744248
_cell_angle_alpha 90.000000
_cell_angle_beta 90.000000
_cell_angle_gamma 90.000000
_cell_volume 8522.543892
_symmetry_space_group_name_H-M "F M M M"
_symmetry_group_IT_number 69
_symmetry_cell_setting 'orthorhombic'
loop_
_space_group_symop_operation_xyz
x,y,z
-x,-y,z
x,-y,-z
-x,y,-z
-x,-y,-z
x,y,-z
-x,y,z
x,-y,z
x,1/2+y,1/2+z
-x,1/2-y,1/2+z
x,1/2-y,1/2-z
-x,1/2+y,1/2-z
-x,1/2-y,1/2-z
x,1/2+y,1/2-z
-x,1/2+y,1/2+z
x,1/2-y,1/2+z
1/2+x,y,1/2+z
1/2-x,-y,1/2+z
1/2+x,-y,1/2-z
1/2-x,y,1/2-z
1/2-x,-y,1/2-z
1/2+x,y,1/2-z
1/2-x,y,1/2+z
1/2+x,-y,1/2+z
1/2+x,1/2+y,z
1/2-x,1/2-y,z
1/2+x,1/2-y,-z
1/2-x,1/2+y,-z
1/2-x,1/2-y,-z
1/2+x,1/2+y,-z
1/2-x,1/2+y,z
1/2+x,1/2-y,z
loop_
_atom_site_type_symbol
_atom_site_label
_atom_site_fract_x
_atom_site_fract_y
_atom_site_fract_z
Si Si1 0.589694 0.686870 0.000000
Si Si2 0.317804 0.132053 0.118291
Si Si3 0.866550 0.500000 0.567480
Si Si4 0.824444 0.000000 0.567465
Si Si5 0.091241 0.742578 0.814452
Si Si6 0.639968 0.633423 0.117301
Si Si7 0.319627 0.699574 0.500000
O O1 0.633499 0.662712 0.054851
O O2 0.500000 0.666742 0.000000
O O3 0.598876 0.762908 0.000000
O O4 0.349927 0.061512 0.104339
O O5 0.363086 0.184901 0.154797
O O6 0.228488 0.126888 0.138571
O O7 0.312971 0.159800 0.055727
O O8 0.890108 0.500000 0.500000
O O9 0.771199 0.500000 0.566043
O O10 0.891737 0.437599 0.603266
O O11 0.847283 0.000000 0.500000
O O12 0.117639 0.750000 0.750000
O O13 0.101020 0.811784 0.844624
O O14 0.000000 0.726346 0.815114
O O15 0.250000 0.750000 0.500000
#
# Coordination Sequence:
#
# PCOD9513647 Si02
#       7
#    16  32  16  16  32  32  16
#     4  12  22  31  50  85 124 153 184 230 289 349
#     4  11  20  35  61  87 119 150 193 240 287 344
#     4   9  18  32  55  87 127 152 180 219 283 355
#     4   9  18  32  56  90 122 157 182 225 290 350
#     4  11  25  43  60  80 111 152 199 251 301 344
#     4  11  20  36  58  87 117 153 189 233 281 348
#     4  12  18  29  53  89 117 150 192 234 286 344
#
# _framework density 18.773737000000001
#
# number of rings (size 3 to 8) (size 9 to 14) (size 15 to 20)
#    0.000    1.200    6.000    1.200    0.000    1.600 
#    0.000    4.000    0.000    6.600    0.000    0.000 
#    0.000    0.000    0.000    0.000    0.000    0.000 
#
# Total GULP energy -222783.466737 kJ/mol
# GULP energy per Si atom -5569.586668 kJ/mol
# Density = 1.873101 g / cm^3
# Si number density = 18.773737 Si / 1000 Ang^3
#
#
#
# Elastic Constant Matrix: (Units=GPa)
#
#
# Indices 1 2 3 4 5 6 
#
# 1 46.1840 25.0501 17.4685 0.0000 0.0000 0.0000
# 2 25.0501 153.3028 54.0204 0.0000 0.0000 0.0000
# 3 17.4685 54.0204 107.4909 0.0000 0.0000 0.0000
# 4 0.0000 0.0000 0.0000 -9.2709 0.0000 0.0000
# 5 0.0000 0.0000 0.0000 0.0000 16.4334 0.0000
# 6 0.0000 0.0000 0.0000 0.0000 0.0000 -0.2966
#
#
#
# Elastic Compliance Matrix: (Units=1/GPa)
#
#
# Indices 1 2 3 4 5 6 
#
# 1 0.024244 -0.003127 -0.002368 0.000000 0.000000 0.000000
# 2 -0.003127 0.008330 -0.003678 0.000000 0.000000 0.000000
# 3 -0.002368 -0.003678 0.011537 0.000000 0.000000 0.000000
# 4 0.000000 0.000000 0.000000 -0.107865 0.000000 0.000000
# 5 0.000000 0.000000 0.000000 0.000000 0.060852 0.000000
# 6 0.000000 0.000000 0.000000 0.000000 0.000000 -3.371220
#
#
# Mechanical properties :
#
#
# Convention : Reuss Voigt Hill
#
# Bulk Modulus (GPa) = 38.81428 55.56174 47.18801
# Shear Modulus (GPa) = -1.49379 15.40242 6.95432
#
# Velocity S-wave (km/s) = -0.89298 2.86741 1.92674
# Velocity P-wave (km/s) = 4.43356 6.37357 5.48994
#
# Compressibility (1/GPa) = 0.02576372
#
# Stress axis : x y z
#
# Youngs Moduli (GPa) = 41.24652 120.04645 86.68126
#
# Poissons Ratio (x) = 0.37539 0.20530
# Poissons Ratio (y) = 0.12898 0.31883
# Poissons Ratio (z) = 0.09769 0.44155
#
# Static dielectric constant tensor:
#      x y z
#    x 1.678310 0.000000 0.000000 
#    y 0.000000 1.783220 0.000000 
#    z 0.000000 0.000000 1.603330 
# 
# From -- ./inp_files/30871.got.cif
#   From: 2010.05.17/outbox.cif.g08.bks.cpg/sg69_16_cif.got.tgz:30871.got - 2010.06.03 19:29:58.
