data_PCOD9513293
_publ_section_title
;
Structure prediction by ZEFSAII (Michael W. Deem and Ramdas Pophale) SiO2 
 PCOD9513293
Probable space group: F M M M
;
_chemical_formula_sum "Si O2"
_cell_formula_units_Z 192
_cell_length_a 14.694690
_cell_length_b 22.113806
_cell_length_c 27.695888
_cell_angle_alpha 90.000000
_cell_angle_beta 90.000000
_cell_angle_gamma 90.000000
_cell_volume 8999.931795
_symmetry_space_group_name_H-M "F M M M"
_symmetry_group_IT_number 69
_symmetry_cell_setting 'orthorhombic'
loop_
_space_group_symop_operation_xyz
x,y,z
-x,-y,z
x,-y,-z
-x,y,-z
-x,-y,-z
x,y,-z
-x,y,z
x,-y,z
x,1/2+y,1/2+z
-x,1/2-y,1/2+z
x,1/2-y,1/2-z
-x,1/2+y,1/2-z
-x,1/2-y,1/2-z
x,1/2+y,1/2-z
-x,1/2+y,1/2+z
x,1/2-y,1/2+z
1/2+x,y,1/2+z
1/2-x,-y,1/2+z
1/2+x,-y,1/2-z
1/2-x,y,1/2-z
1/2-x,-y,1/2-z
1/2+x,y,1/2-z
1/2-x,y,1/2+z
1/2+x,-y,1/2+z
1/2+x,1/2+y,z
1/2-x,1/2-y,z
1/2+x,1/2-y,-z
1/2-x,1/2+y,-z
1/2-x,1/2-y,-z
1/2+x,1/2+y,-z
1/2-x,1/2+y,z
1/2+x,1/2-y,z
loop_
_atom_site_type_symbol
_atom_site_label
_atom_site_fract_x
_atom_site_fract_y
_atom_site_fract_z
Si Si1 0.892555 0.390331 0.289760
Si Si2 0.609736 0.603338 0.421499
Si Si3 0.891682 0.256650 0.052752
Si Si4 0.387874 0.000000 0.358818
Si Si5 0.351809 0.764254 0.339185
Si Si6 0.751634 0.000000 0.447650
Si Si7 0.897049 0.630690 0.184735
O O1 0.861613 0.441902 0.326316
O O2 0.882958 0.324741 0.313679
O O3 0.853278 0.387455 0.235382
O O4 0.000000 0.401799 0.284082
O O5 0.500000 0.589009 0.425150
O O6 0.620310 0.670970 0.442243
O O7 0.678593 0.556357 0.444355
O O8 0.640783 0.606339 0.365394
O O9 0.855062 0.228990 0.102581
O O10 0.000000 0.245580 0.053766
O O11 0.857102 0.236303 0.000000
O O12 0.325947 0.000000 0.406659
O O13 0.500000 0.000000 0.367176
O O14 0.250000 0.750000 0.324326
O O15 0.401849 0.703246 0.322525
O O16 0.706316 0.000000 0.500000
O O17 0.000000 0.607593 0.185202
#
# Coordination Sequence:
#
# PCOD9513293 Si02
#       7
#    32  32  32  16  32  16  32
#     4  10  21  41  64  85 118 165 211 252 298 352
#     4   9  19  36  59  93 129 155 190 242 307 386
#     4   9  18  35  57  81 114 156 198 247 311 373
#     4  10  26  47  64  85 117 164 221 267 297 339
#     4  11  22  33  55  91 128 154 195 249 306 367
#     4  12  25  40  63  88 116 161 211 256 307 357
#     4   9  19  37  62  89 120 157 193 239 309 378
#
# _framework density 21.333494000000002
#
# number of rings (size 3 to 8) (size 9 to 14) (size 15 to 20)
#    0.000    2.167    0.000    3.750    4.667    5.167 
#    0.000    4.167    0.000    1.000    0.000    0.000 
#    0.000    0.000    0.000    0.000    0.000    0.000 
#
# Total GULP energy -267788.723745 kJ/mol
# GULP energy per Si atom -5578.931745 kJ/mol
# Density = 2.128494 g / cm^3
# Si number density = 21.333494 Si / 1000 Ang^3
#
#
#
# Elastic Constant Matrix: (Units=GPa)
#
#
# Indices 1 2 3 4 5 6 
#
# 1 50.1031 -2.5125 16.4301 0.0000 0.0000 0.0000
# 2 -2.5125 33.8374 31.4094 0.0000 0.0000 0.0000
# 3 16.4301 31.4094 179.3505 0.0000 0.0000 0.0000
# 4 0.0000 0.0000 0.0000 -19.3072 0.0000 0.0000
# 5 0.0000 0.0000 0.0000 0.0000 20.3652 0.0000
# 6 0.0000 0.0000 0.0000 0.0000 0.0000 68.5557
#
#
#
# Elastic Compliance Matrix: (Units=1/GPa)
#
#
# Indices 1 2 3 4 5 6 
#
# 1 0.021020 0.003998 -0.002626 0.000000 0.000000 0.000000
# 2 0.003998 0.036050 -0.006680 0.000000 0.000000 0.000000
# 3 -0.002626 -0.006680 0.006986 0.000000 0.000000 0.000000
# 4 0.000000 0.000000 0.000000 -0.051794 0.000000 0.000000
# 5 0.000000 0.000000 0.000000 0.000000 0.049103 0.000000
# 6 0.000000 0.000000 0.000000 0.000000 0.000000 0.014587
#
#
# Mechanical properties :
#
#
# Convention : Reuss Voigt Hill
#
# Bulk Modulus (GPa) = 18.71181 39.32723 29.01952
# Shear Modulus (GPa) = 47.90119 28.45366 38.17742
#
# Velocity S-wave (km/s) = 4.74365 3.65602 4.23490
# Velocity P-wave (km/s) = 6.22841 6.02466 6.12738
#
# Compressibility (1/GPa) = 0.05344217
#
# Stress axis : x y z
#
# Youngs Moduli (GPa) = 47.57275 27.73895 143.14266
#
# Poissons Ratio (x) = -0.11091 0.37587
# Poissons Ratio (y) = -0.19021 0.95615
# Poissons Ratio (z) = 0.12492 0.18529
#
# Static dielectric constant tensor:
#      x y z
#    x 1.711320 0.000000 0.000000 
#    y 0.000000 -6.538930 0.000000 
#    z 0.000000 0.000000 1.819850 
# 
# From -- ./inp_files/41177.got.cif
#   From: 2010.05.17/outbox.cif.g08.bks.cpg/sg69_21_cif.got.tgz:41177.got - 2010.06.03 19:29:58.
