data_PCOD9513730
_publ_section_title
;
Structure prediction by ZEFSAII (Michael W. Deem and Ramdas Pophale) SiO2 
 PCOD9513730
Probable space group: F M M M
;
_chemical_formula_sum "Si O2"
_cell_formula_units_Z 136
_cell_length_a 22.743139
_cell_length_b 17.807485
_cell_length_c 16.003788
_cell_angle_alpha 90.000000
_cell_angle_beta 90.000000
_cell_angle_gamma 90.000000
_cell_volume 6481.503838
_symmetry_space_group_name_H-M "F M M M"
_symmetry_group_IT_number 69
_symmetry_cell_setting 'orthorhombic'
loop_
_space_group_symop_operation_xyz
x,y,z
-x,-y,z
x,-y,-z
-x,y,-z
-x,-y,-z
x,y,-z
-x,y,z
x,-y,z
x,1/2+y,1/2+z
-x,1/2-y,1/2+z
x,1/2-y,1/2-z
-x,1/2+y,1/2-z
-x,1/2-y,1/2-z
x,1/2+y,1/2-z
-x,1/2+y,1/2+z
x,1/2-y,1/2+z
1/2+x,y,1/2+z
1/2-x,-y,1/2+z
1/2+x,-y,1/2-z
1/2-x,y,1/2-z
1/2-x,-y,1/2-z
1/2+x,y,1/2-z
1/2-x,y,1/2+z
1/2+x,-y,1/2+z
1/2+x,1/2+y,z
1/2-x,1/2-y,z
1/2+x,1/2-y,-z
1/2-x,1/2+y,-z
1/2-x,1/2-y,-z
1/2+x,1/2+y,-z
1/2-x,1/2+y,z
1/2+x,1/2-y,z
loop_
_atom_site_type_symbol
_atom_site_label
_atom_site_fract_x
_atom_site_fract_y
_atom_site_fract_z
Si Si1 0.000000 0.857712 0.000000
Si Si2 0.281905 0.642846 0.160624
Si Si3 0.327540 0.703624 0.405919
Si Si4 0.408995 0.914642 0.365097
Si Si5 0.064616 0.329340 0.200783
O O1 0.052352 0.863411 0.926987
O O2 0.250000 0.628170 0.250000
O O3 0.310022 0.726486 0.153418
O O4 0.227067 0.646738 0.098197
O O5 0.338006 0.593812 0.134612
O O6 0.335094 0.731316 0.500000
O O7 0.385471 0.668050 0.368238
O O8 0.426240 0.892146 0.271113
O O9 0.425133 0.000000 0.386458
O O10 0.068746 0.250000 0.250000
O O11 0.000000 0.334191 0.163234
#
# Coordination Sequence:
#
# PCOD9513730 Si02
#       5
#     8  32  32  32  32
#     4  12  29  48  66  98 140 180 215 276 353 412
#     4  11  21  39  64  89 133 172 214 263 334 398
#     4  11  22  38  62  95 132 171 216 270 333 387
#     4  12  25  42  66  95 132 173 216 268 339 405
#     4  11  22  41  63  91 128 167 217 271 324 394
#
# _framework density 20.982785
#
# number of rings (size 3 to 8) (size 9 to 14) (size 15 to 20)
#    0.000    0.706    5.882    3.882    3.294    0.941 
#    0.000    0.000    0.000    2.118    0.000    1.647 
#    0.000    0.000    0.000    0.000    0.000    0.000 
#
# Total GULP energy -189285.891501 kJ/mol
# GULP energy per Si atom -5567.232103 kJ/mol
# Density = 2.093503 g / cm^3
# Si number density = 20.982785 Si / 1000 Ang^3
#
#
#
# Elastic Constant Matrix: (Units=GPa)
#
#
# Indices 1 2 3 4 5 6 
#
# 1 204.4852 6.6428 42.6731 0.0000 0.0000 0.0000
# 2 6.6428 15.8323 0.6410 0.0000 0.0000 0.0000
# 3 42.6731 0.6410 85.0916 0.0000 0.0000 0.0000
# 4 0.0000 0.0000 0.0000 -1.8276 0.0000 0.0000
# 5 0.0000 0.0000 0.0000 0.0000 3.6390 0.0000
# 6 0.0000 0.0000 0.0000 0.0000 0.0000 -2.5116
#
#
#
# Elastic Compliance Matrix: (Units=1/GPa)
#
#
# Indices 1 2 3 4 5 6 
#
# 1 0.005538 -0.002212 -0.002761 0.000000 0.000000 0.000000
# 2 -0.002212 0.064065 0.000627 0.000000 0.000000 0.000000
# 3 -0.002761 0.000627 0.013132 0.000000 0.000000 0.000000
# 4 0.000000 0.000000 0.000000 -0.547174 0.000000 0.000000
# 5 0.000000 0.000000 0.000000 0.000000 0.274801 0.000000
# 6 0.000000 0.000000 0.000000 0.000000 0.000000 -0.398146
#
#
# Mechanical properties :
#
#
# Convention : Reuss Voigt Hill
#
# Bulk Modulus (GPa) = 13.50572 45.03588 29.27080
# Shear Modulus (GPa) = -9.01858 16.89010 3.93576
#
# Velocity S-wave (km/s) = -2.07543 2.84024 1.37105
# Velocity P-wave (km/s) = 0.84103 5.68030 4.06037
#
# Compressibility (1/GPa) = 0.07404272
#
# Stress axis : x y z
#
# Youngs Moduli (GPa) = 180.56005 15.60923 76.15072
#
# Poissons Ratio (x) = 0.03453 0.21024
# Poissons Ratio (y) = 0.39939 -0.04772
# Poissons Ratio (z) = 0.49849 -0.00978
#
# Static dielectric constant tensor:
#      x y z
#    x 1.808270 0.000000 0.000000 
#    y 0.000000 1.794960 0.000000 
#    z 0.000000 0.000000 1.738450 
# 
# From -- ./inp_files/17517.got.cif
#   From: 2010.05.17/outbox.cif.g08.bks.cpg/sg69_9_cif.got.tgz:17517.got - 2010.06.03 19:29:58.
