data_PCOD9513247
_publ_section_title
;
Structure prediction by ZEFSAII (Michael W. Deem and Ramdas Pophale) SiO2 
 PCOD9513247
Probable space group: F M M M
;
_chemical_formula_sum "Si O2"
_cell_formula_units_Z 144
_cell_length_a 8.068832
_cell_length_b 29.338055
_cell_length_c 27.266626
_cell_angle_alpha 90.000000
_cell_angle_beta 90.000000
_cell_angle_gamma 90.000000
_cell_volume 6454.660329
_symmetry_space_group_name_H-M "F M M M"
_symmetry_group_IT_number 69
_symmetry_cell_setting 'orthorhombic'
loop_
_space_group_symop_operation_xyz
x,y,z
-x,-y,z
x,-y,-z
-x,y,-z
-x,-y,-z
x,y,-z
-x,y,z
x,-y,z
x,1/2+y,1/2+z
-x,1/2-y,1/2+z
x,1/2-y,1/2-z
-x,1/2+y,1/2-z
-x,1/2-y,1/2-z
x,1/2+y,1/2-z
-x,1/2+y,1/2+z
x,1/2-y,1/2+z
1/2+x,y,1/2+z
1/2-x,-y,1/2+z
1/2+x,-y,1/2-z
1/2-x,y,1/2-z
1/2-x,-y,1/2-z
1/2+x,y,1/2-z
1/2-x,y,1/2+z
1/2+x,-y,1/2+z
1/2+x,1/2+y,z
1/2-x,1/2-y,z
1/2+x,1/2-y,-z
1/2-x,1/2+y,-z
1/2-x,1/2-y,-z
1/2+x,1/2+y,-z
1/2-x,1/2+y,z
1/2+x,1/2-y,z
loop_
_atom_site_type_symbol
_atom_site_label
_atom_site_fract_x
_atom_site_fract_y
_atom_site_fract_z
Si Si1 0.680755 0.106235 0.558361
Si Si2 0.800925 0.849870 0.305716
Si Si3 0.500000 0.947915 0.940297
Si Si4 0.801569 0.800727 0.401839
Si Si5 0.200640 0.950882 0.307521
O O1 0.677491 0.098130 0.500000
O O2 0.500000 0.093691 0.577988
O O3 0.836076 0.077456 0.577621
O O4 0.718134 0.159304 0.567015
O O5 0.750000 0.840496 0.250000
O O6 0.750312 0.812686 0.345807
O O7 0.738017 0.900237 0.321847
O O8 0.000000 0.851671 0.306503
O O9 0.500000 0.000000 0.925248
O O10 0.500000 0.946476 0.000000
O O11 0.750000 0.750000 0.415370
O O12 0.000000 0.805281 0.406353
O O13 0.250000 0.952192 0.250000
O O14 0.000000 0.950537 0.311643
O O15 0.259327 0.000000 0.328524
#
# Coordination Sequence:
#
# PCOD9513247 Si02
#       5
#    32  32  16  32  32
#     4  10  21  39  64  94 128 165 205 252 306 367
#     4   9  19  34  53  77 110 148 194 247 304 367
#     4   9  18  36  64  96 132 171 204 244 301 364
#     4  11  23  39  58  82 116 157 208 262 320 373
#     4   8  13  24  44  69  96 129 170 217 276 341
#
# _framework density 22.309463000000001
#
# number of rings (size 3 to 8) (size 9 to 14) (size 15 to 20)
#    0.000    2.556    1.111    0.667    0.000    3.111 
#    0.000    5.556    0.000    0.000    0.000    3.111 
#    0.000    0.000    0.000    0.000    0.000    0.000 
#
# Total GULP energy -201020.776661 kJ/mol
# GULP energy per Si atom -5583.910463 kJ/mol
# Density = 2.225869 g / cm^3
# Si number density = 22.309463 Si / 1000 Ang^3
#
#
#
# Elastic Constant Matrix: (Units=GPa)
#
#
# Indices 1 2 3 4 5 6 
#
# 1 125.1493 57.5597 21.5131 0.0000 0.0000 0.0000
# 2 57.5597 117.8325 -20.5960 0.0000 0.0000 0.0000
# 3 21.5131 -20.5960 40.8297 0.0000 0.0000 0.0000
# 4 0.0000 0.0000 0.0000 9.8777 0.0000 0.0000
# 5 0.0000 0.0000 0.0000 0.0000 19.2093 0.0000
# 6 0.0000 0.0000 0.0000 0.0000 0.0000 23.5335
#
#
#
# Elastic Compliance Matrix: (Units=1/GPa)
#
#
# Indices 1 2 3 4 5 6 
#
# 1 0.014234 -0.009063 -0.012072 0.000000 0.000000 0.000000
# 2 -0.009063 0.015078 0.012381 0.000000 0.000000 0.000000
# 3 -0.012072 0.012381 0.037098 0.000000 0.000000 0.000000
# 4 0.000000 0.000000 0.000000 0.101238 0.000000 0.000000
# 5 0.000000 0.000000 0.000000 0.000000 0.052058 0.000000
# 6 0.000000 0.000000 0.000000 0.000000 0.000000 0.042493
#
#
# Mechanical properties :
#
#
# Convention : Reuss Voigt Hill
#
# Bulk Modulus (GPa) = 20.44866 44.52944 32.48905
# Shear Modulus (GPa) = 16.89150 25.54642 21.21896
#
# Velocity S-wave (km/s) = 2.75461 3.38759 3.08737
# Velocity P-wave (km/s) = 4.39352 5.94174 5.22529
#
# Compressibility (1/GPa) = 0.04890295
#
# Stress axis : x y z
#
# Youngs Moduli (GPa) = 70.25462 66.32201 26.95559
#
# Poissons Ratio (x) = 0.60108 0.32540
# Poissons Ratio (y) = 0.63672 -0.33374
# Poissons Ratio (z) = 0.84809 -0.82115
#
# Static dielectric constant tensor:
#      x y z
#    x 1.814170 0.000000 0.000000 
#    y 0.000000 1.814510 0.000000 
#    z 0.000000 0.000000 1.867980 
# 
# From -- ./inp_files/44516.got.cif
#   From: 2010.05.17/outbox.cif.g08.bks.cpg/sg69_23_cif.got.tgz:44516.got - 2010.06.03 19:29:58.
