data_PCOD9513208
_publ_section_title
;
Structure prediction by ZEFSAII (Michael W. Deem and Ramdas Pophale) SiO2 
 PCOD9513208
Probable space group: F M M M
;
_chemical_formula_sum "Si O2"
_cell_formula_units_Z 208
_cell_length_a 32.214780
_cell_length_b 16.939420
_cell_length_c 20.946705
_cell_angle_alpha 90.000000
_cell_angle_beta 90.000000
_cell_angle_gamma 90.000000
_cell_volume 11430.610396
_symmetry_space_group_name_H-M "F M M M"
_symmetry_group_IT_number 69
_symmetry_cell_setting 'orthorhombic'
loop_
_space_group_symop_operation_xyz
x,y,z
-x,-y,z
x,-y,-z
-x,y,-z
-x,-y,-z
x,y,-z
-x,y,z
x,-y,z
x,1/2+y,1/2+z
-x,1/2-y,1/2+z
x,1/2-y,1/2-z
-x,1/2+y,1/2-z
-x,1/2-y,1/2-z
x,1/2+y,1/2-z
-x,1/2+y,1/2+z
x,1/2-y,1/2+z
1/2+x,y,1/2+z
1/2-x,-y,1/2+z
1/2+x,-y,1/2-z
1/2-x,y,1/2-z
1/2-x,-y,1/2-z
1/2+x,y,1/2-z
1/2-x,y,1/2+z
1/2+x,-y,1/2+z
1/2+x,1/2+y,z
1/2-x,1/2-y,z
1/2+x,1/2-y,-z
1/2-x,1/2+y,-z
1/2-x,1/2-y,-z
1/2+x,1/2+y,-z
1/2-x,1/2+y,z
1/2+x,1/2-y,z
loop_
_atom_site_type_symbol
_atom_site_label
_atom_site_fract_x
_atom_site_fract_y
_atom_site_fract_z
Si Si1 0.835955 0.095252 0.338807
Si Si2 0.748743 0.655994 0.175466
Si Si3 0.086467 0.094328 0.425366
Si Si4 0.163120 0.094520 0.191506
Si Si5 0.000000 0.192239 0.810267
Si Si6 0.950445 0.907254 0.000000
Si Si7 0.573282 0.595374 0.860894
Si Si8 0.000000 0.185527 0.424801
O O1 0.789786 0.123055 0.358556
O O2 0.875170 0.121690 0.381101
O O3 0.840063 0.122696 0.265147
O O4 0.836250 0.000000 0.339785
O O5 0.750000 0.628394 0.250000
O O6 0.750000 0.750000 0.174511
O O7 0.703197 0.628088 0.155378
O O8 0.096932 0.106942 0.500000
O O9 0.042227 0.135711 0.413434
O O10 0.081354 0.000000 0.415724
O O11 0.119964 0.113486 0.158434
O O12 0.167660 0.000000 0.193631
O O13 0.000000 0.250000 0.750000
O O14 0.040419 0.136868 0.814634
O O15 0.000000 0.244229 0.874535
O O16 0.934361 0.875214 0.933109
O O17 0.000000 0.903158 0.000000
O O18 0.938771 0.000000 0.000000
O O19 0.566897 0.500000 0.858755
O O20 0.000000 0.209089 0.500000
#
# Coordination Sequence:
#
# PCOD9513208 Si02
#       8
#    32  32  32  32  16  16  32  16
#     4   9  17  30  53  77 101 133 174 219 267 321
#     4   9  17  30  49  75 104 138 170 209 265 330
#     4   9  18  35  57  78 101 139 188 229 264 315
#     4   9  18  32  52  79 105 133 173 224 271 320
#     4  12  27  38  52  85 120 147 179 231 283 335
#     4   9  16  32  62  84  97 134 190 236 265 319
#     4  10  21  39  61  81 108 145 190 232 275 328
#     4  10  23  39  55  77 112 150 185 226 275 332
#
# _framework density 18.196753000000001
#
# number of rings (size 3 to 8) (size 9 to 14) (size 15 to 20)
#    0.000    2.538    0.769    0.923    3.231    4.000 
#    2.769    0.769    1.692    0.462    0.000    0.000 
#    0.000    0.000    0.000    0.000    0.000    0.000 
#
# Total GULP energy -289875.243070 kJ/mol
# GULP energy per Si atom -5574.523905 kJ/mol
# Density = 1.815534 g / cm^3
# Si number density = 18.196753 Si / 1000 Ang^3
#
#
#
# Elastic Constant Matrix: (Units=GPa)
#
#
# Indices 1 2 3 4 5 6 
#
# 1 158.9018 44.9624 61.8140 0.0000 0.0000 0.0000
# 2 44.9624 21.5203 25.1500 0.0000 0.0000 0.0000
# 3 61.8140 25.1500 60.8892 0.0000 0.0000 0.0000
# 4 0.0000 0.0000 0.0000 18.0525 0.0000 0.0000
# 5 0.0000 0.0000 0.0000 0.0000 26.5303 0.0000
# 6 0.0000 0.0000 0.0000 0.0000 0.0000 4.0598
#
#
#
# Elastic Compliance Matrix: (Units=1/GPa)
#
#
# Indices 1 2 3 4 5 6 
#
# 1 0.016068 -0.028046 -0.004728 0.000000 0.000000 0.000000
# 2 -0.028046 0.138781 -0.028851 0.000000 0.000000 0.000000
# 3 -0.004728 -0.028851 0.033140 0.000000 0.000000 0.000000
# 4 0.000000 0.000000 0.000000 0.055394 0.000000 0.000000
# 5 0.000000 0.000000 0.000000 0.000000 0.037693 0.000000
# 6 0.000000 0.000000 0.000000 0.000000 0.000000 0.246318
#
#
# Mechanical properties :
#
#
# Convention : Reuss Voigt Hill
#
# Bulk Modulus (GPa) = 15.44658 56.12934 35.78796
# Shear Modulus (GPa) = 7.43801 17.02085 12.22943
#
# Velocity S-wave (km/s) = 2.02396 3.06171 2.59524
# Velocity P-wave (km/s) = 3.73751 6.58874 5.35633
#
# Compressibility (1/GPa) = 0.06473925
#
# Stress axis : x y z
#
# Youngs Moduli (GPa) = 62.23471 7.20562 30.17516
#
# Poissons Ratio (x) = 0.20209 0.14267
# Poissons Ratio (y) = 1.74542 0.87058
# Poissons Ratio (z) = 0.29425 0.20789
#
# Static dielectric constant tensor:
#      x y z
#    x 1.633420 0.000000 0.000000 
#    y 0.000000 1.632040 0.000000 
#    z 0.000000 0.000000 1.627200 
# 
# From -- ./inp_files/34039.got.cif
#   From: 2010.05.17/outbox.cif.g08.bks.cpg/sg69_18_cif.got.tgz:34039.got - 2010.06.03 19:29:58.
