data_PCOD9513124
_publ_section_title
;
Structure prediction by ZEFSAII (Michael W. Deem and Ramdas Pophale) SiO2 
 PCOD9513124
Probable space group: F M M M
;
_chemical_formula_sum "Si O2"
_cell_formula_units_Z 136
_cell_length_a 20.464769
_cell_length_b 25.102136
_cell_length_c 13.829187
_cell_angle_alpha 90.000000
_cell_angle_beta 90.000000
_cell_angle_gamma 90.000000
_cell_volume 7104.183559
_symmetry_space_group_name_H-M "F M M M"
_symmetry_group_IT_number 69
_symmetry_cell_setting 'orthorhombic'
loop_
_space_group_symop_operation_xyz
x,y,z
-x,-y,z
x,-y,-z
-x,y,-z
-x,-y,-z
x,y,-z
-x,y,z
x,-y,z
x,1/2+y,1/2+z
-x,1/2-y,1/2+z
x,1/2-y,1/2-z
-x,1/2+y,1/2-z
-x,1/2-y,1/2-z
x,1/2+y,1/2-z
-x,1/2+y,1/2+z
x,1/2-y,1/2+z
1/2+x,y,1/2+z
1/2-x,-y,1/2+z
1/2+x,-y,1/2-z
1/2-x,y,1/2-z
1/2-x,-y,1/2-z
1/2+x,y,1/2-z
1/2-x,y,1/2+z
1/2+x,-y,1/2+z
1/2+x,1/2+y,z
1/2-x,1/2-y,z
1/2+x,1/2-y,-z
1/2-x,1/2+y,-z
1/2-x,1/2-y,-z
1/2+x,1/2+y,-z
1/2-x,1/2+y,z
1/2+x,1/2-y,z
loop_
_atom_site_type_symbol
_atom_site_label
_atom_site_fract_x
_atom_site_fract_y
_atom_site_fract_z
Si Si1 0.250000 0.250000 0.250000
Si Si2 0.425008 0.310918 0.230331
Si Si3 0.714047 0.559010 0.383126
Si Si4 0.073146 0.600326 0.115964
Si Si5 0.192474 0.342252 0.384434
O O1 0.218222 0.291589 0.325319
O O2 0.500000 0.309031 0.198095
O O3 0.404186 0.250000 0.250000
O O4 0.421563 0.343002 0.330928
O O5 0.381552 0.343311 0.154091
O O6 0.712702 0.559640 0.500000
O O7 0.735389 0.500000 0.353731
O O8 0.638582 0.569132 0.353235
O O9 0.763807 0.606326 0.357208
O O10 0.000000 0.578465 0.139652
O O11 0.075489 0.605795 0.000000
O O12 0.195854 0.335399 0.500000
#
# Coordination Sequence:
#
# PCOD9513124 Si02
#       5
#     8  32  32  32  32
#     4  12  22  40  56  86 120 148 190 244 284 350
#     4  10  21  38  56  80 116 153 194 242 287 348
#     4   9  19  36  58  85 116 153 197 241 290 348
#     4   9  18  34  57  84 115 153 194 239 294 348
#     4  11  23  38  60  86 117 157 194 239 295 349
#
# _framework density 19.143650000000001
#
# number of rings (size 3 to 8) (size 9 to 14) (size 15 to 20)
#    0.000    2.118    1.176    1.765    0.000    1.882 
#    0.000   10.000    0.000    2.118    0.000    3.294 
#    0.000    0.000    0.000    0.000    0.000    0.000 
#
# Total GULP energy -189365.299583 kJ/mol
# GULP energy per Si atom -5569.567635 kJ/mol
# Density = 1.910008 g / cm^3
# Si number density = 19.143650 Si / 1000 Ang^3
#
#
#
# Elastic Constant Matrix: (Units=GPa)
#
#
# Indices 1 2 3 4 5 6 
#
# 1 132.2193 86.6237 44.1931 0.0000 0.0000 0.0000
# 2 86.6237 123.5971 21.2793 0.0000 0.0000 0.0000
# 3 44.1931 21.2793 76.6157 0.0000 0.0000 0.0000
# 4 0.0000 0.0000 0.0000 -120.5016 0.0000 0.0000
# 5 0.0000 0.0000 0.0000 0.0000 33.1155 0.0000
# 6 0.0000 0.0000 0.0000 0.0000 0.0000 19.0231
#
#
#
# Elastic Compliance Matrix: (Units=1/GPa)
#
#
# Indices 1 2 3 4 5 6 
#
# 1 0.016734 -0.010572 -0.006716 0.000000 0.000000 0.000000
# 2 -0.010572 0.015176 0.001883 0.000000 0.000000 0.000000
# 3 -0.006716 0.001883 0.016403 0.000000 0.000000 0.000000
# 4 0.000000 0.000000 0.000000 -0.008299 0.000000 0.000000
# 5 0.000000 0.000000 0.000000 0.000000 0.030197 0.000000
# 6 0.000000 0.000000 0.000000 0.000000 0.000000 0.052568
#
#
# Mechanical properties :
#
#
# Convention : Reuss Voigt Hill
#
# Bulk Modulus (GPa) = 57.13279 70.73604 63.93441
# Shear Modulus (GPa) = 31.36272 -1.65021 14.85626
#
# Velocity S-wave (km/s) = 4.05196 -0.92945 2.78877
# Velocity P-wave (km/s) = 7.19724 5.98987 6.62113
#
# Compressibility (1/GPa) = 0.01750308
#
# Stress axis : x y z
#
# Youngs Moduli (GPa) = 59.75732 65.89326 60.96360
#
# Poissons Ratio (x) = 0.69663 0.40945
# Poissons Ratio (y) = 0.63176 -0.11480
# Poissons Ratio (z) = 0.40135 -0.12408
#
# Static dielectric constant tensor:
#      x y z
#    x 1.756020 0.000000 0.000000 
#    y 0.000000 1.656130 0.000000 
#    z 0.000000 0.000000 1.651910 
# 
# From -- ./inp_files/16581.got.cif
#   From: 2010.05.17/outbox.cif.g08.bks.cpg/sg69_9_cif.got.tgz:16581.got - 2010.06.03 19:29:58.
