data_PCOD9513301
_publ_section_title
;
Structure prediction by ZEFSAII (Michael W. Deem and Ramdas Pophale) SiO2 
 PCOD9513301
Probable space group: F M M M
;
_chemical_formula_sum "Si O2"
_cell_formula_units_Z 168
_cell_length_a 24.382366
_cell_length_b 22.785071
_cell_length_c 14.845099
_cell_angle_alpha 90.000000
_cell_angle_beta 90.000000
_cell_angle_gamma 90.000000
_cell_volume 8247.253246
_symmetry_space_group_name_H-M "F M M M"
_symmetry_group_IT_number 69
_symmetry_cell_setting 'orthorhombic'
loop_
_space_group_symop_operation_xyz
x,y,z
-x,-y,z
x,-y,-z
-x,y,-z
-x,-y,-z
x,y,-z
-x,y,z
x,-y,z
x,1/2+y,1/2+z
-x,1/2-y,1/2+z
x,1/2-y,1/2-z
-x,1/2+y,1/2-z
-x,1/2-y,1/2-z
x,1/2+y,1/2-z
-x,1/2+y,1/2+z
x,1/2-y,1/2+z
1/2+x,y,1/2+z
1/2-x,-y,1/2+z
1/2+x,-y,1/2-z
1/2-x,y,1/2-z
1/2-x,-y,1/2-z
1/2+x,y,1/2-z
1/2-x,y,1/2+z
1/2+x,-y,1/2+z
1/2+x,1/2+y,z
1/2-x,1/2-y,z
1/2+x,1/2-y,-z
1/2-x,1/2+y,-z
1/2-x,1/2-y,-z
1/2+x,1/2+y,-z
1/2-x,1/2+y,z
1/2+x,1/2-y,z
loop_
_atom_site_type_symbol
_atom_site_label
_atom_site_fract_x
_atom_site_fract_y
_atom_site_fract_z
Si Si1 0.407064 0.662582 0.903420
Si Si2 0.500000 0.778921 0.500000
Si Si3 0.164031 0.878404 0.603112
Si Si4 0.113160 0.567097 0.725831
Si Si5 0.313070 0.750720 0.641788
Si Si6 0.777035 0.066429 0.105661
O O1 0.421234 0.616977 0.825373
O O2 0.348664 0.693676 0.888324
O O3 0.407340 0.629554 0.000000
O O4 0.451869 0.712585 0.922201
O O5 0.157076 0.897921 0.500000
O O6 0.126330 0.912520 0.673304
O O7 0.157646 0.808680 0.609811
O O8 0.227446 0.890866 0.629849
O O9 0.093282 0.500000 0.721727
O O10 0.170526 0.569716 0.669508
O O11 0.312550 0.750000 0.750000
O O12 0.250000 0.750000 0.609809
O O13 0.754583 0.000000 0.114747
O O14 0.790925 0.074636 0.000000
#
# Coordination Sequence:
#
# PCOD9513301 Si02
#       6
#    32   8  32  32  32  32
#     4  10  21  42  64  88 124 151 202 257 313 370
#     4   8  24  44  69  92 118 150 201 268 318 358
#     4  11  22  34  51  80 121 168 207 241 291 364
#     4  11  21  34  56  83 116 160 203 252 304 359
#     4  11  22  36  60  92 127 166 203 250 313 379
#     4   9  18  31  48  77 118 163 206 244 290 355
#
# _framework density 20.370418999999998
#
# number of rings (size 3 to 8) (size 9 to 14) (size 15 to 20)
#    0.571    1.143    1.905    3.429    2.667    6.857 
#    0.000    1.429    0.000    0.000    0.000    0.000 
#    0.000    1.524    0.000    0.095    0.000    0.190 
#
# Total GULP energy -233805.276114 kJ/mol
# GULP energy per Si atom -5566.792288 kJ/mol
# Density = 2.032406 g / cm^3
# Si number density = 20.370419 Si / 1000 Ang^3
#
#
#
# Elastic Constant Matrix: (Units=GPa)
#
#
# Indices 1 2 3 4 5 6 
#
# 1 42.2639 -3.3169 3.3250 0.0000 0.0000 0.0000
# 2 -3.3169 70.4038 -8.2385 0.0000 0.0000 0.0000
# 3 3.3250 -8.2385 90.7180 0.0000 0.0000 0.0000
# 4 0.0000 0.0000 0.0000 17.4658 0.0000 0.0000
# 5 0.0000 0.0000 0.0000 0.0000 75.2469 0.0000
# 6 0.0000 0.0000 0.0000 0.0000 0.0000 -5.1367
#
#
#
# Elastic Compliance Matrix: (Units=1/GPa)
#
#
# Indices 1 2 3 4 5 6 
#
# 1 0.023803 0.001030 -0.000779 0.000000 0.000000 0.000000
# 2 0.001030 0.014401 0.001270 0.000000 0.000000 0.000000
# 3 -0.000779 0.001270 0.011167 0.000000 0.000000 0.000000
# 4 0.000000 0.000000 0.000000 0.057255 0.000000 0.000000
# 5 0.000000 0.000000 0.000000 0.000000 0.013290 0.000000
# 6 0.000000 0.000000 0.000000 0.000000 0.000000 -0.194678
#
#
# Mechanical properties :
#
#
# Convention : Reuss Voigt Hill
#
# Bulk Modulus (GPa) = 19.07893 20.76945 19.92419
# Shear Modulus (GPa) = -82.87217 31.62294 -25.62462
#
# Velocity S-wave (km/s) = -6.38521 3.94432 -3.55058
# Velocity P-wave (km/s) = 6.70633 5.56431 2.64701
#
# Compressibility (1/GPa) = 0.05241384
#
# Stress axis : x y z
#
# Youngs Moduli (GPa) = 42.01159 69.43998 89.54907
#
# Poissons Ratio (x) = -0.07154 0.06975
# Poissons Ratio (y) = -0.04328 -0.11373
# Poissons Ratio (z) = 0.03272 -0.08819
#
# Static dielectric constant tensor:
#      x y z
#    x 1.716300 0.000000 0.000000 
#    y 0.000000 1.771230 0.000000 
#    z 0.000000 0.000000 1.746680 
# 
# From -- ./inp_files/19708.got.cif
#   From: 2010.05.17/outbox.cif.g08.bks.cpg/sg69_10_cif.got.tgz:19708.got - 2010.06.03 19:29:58.
