data_PCOD9513970
_publ_section_title
;
Structure prediction by ZEFSAII (Michael W. Deem and Ramdas Pophale) SiO2 
 PCOD9513970
Probable space group: F M M M
;
_chemical_formula_sum "Si O2"
_cell_formula_units_Z 44
_cell_length_a 18.000000
_cell_length_b 18.000000
_cell_length_c 27.000000
_cell_angle_alpha 90.000000
_cell_angle_beta 90.000000
_cell_angle_gamma 90.000000
_cell_volume 8748.000000
_symmetry_space_group_name_H-M "F M M M"
_symmetry_group_IT_number 69
_symmetry_cell_setting 'orthorhombic'
loop_
_space_group_symop_operation_xyz
x,y,z
-x,-y,z
x,-y,-z
-x,y,-z
-x,-y,-z
x,y,-z
-x,y,z
x,-y,z
x,1/2+y,1/2+z
-x,1/2-y,1/2+z
x,1/2-y,1/2-z
-x,1/2+y,1/2-z
-x,1/2-y,1/2-z
x,1/2+y,1/2-z
-x,1/2+y,1/2+z
x,1/2-y,1/2+z
1/2+x,y,1/2+z
1/2-x,-y,1/2+z
1/2+x,-y,1/2-z
1/2-x,y,1/2-z
1/2-x,-y,1/2-z
1/2+x,y,1/2-z
1/2-x,y,1/2+z
1/2+x,-y,1/2+z
1/2+x,1/2+y,z
1/2-x,1/2-y,z
1/2+x,1/2-y,-z
1/2-x,1/2+y,-z
1/2-x,1/2-y,-z
1/2+x,1/2+y,-z
1/2-x,1/2+y,z
1/2+x,1/2-y,z
loop_
_atom_site_type_symbol
_atom_site_label
_atom_site_fract_x
_atom_site_fract_y
_atom_site_fract_z
Si Si1 0.837660 0.667653 0.735237
Si Si2 0.203303 0.083777 0.857906
Si Si3 0.583894 0.686396 0.411644
Si Si4 0.623869 0.582430 0.674230
Si Si5 0.909041 0.415826 0.000000
Si Si6 0.184269 0.310707 0.443353
O O1 0.864233 0.750000 0.750000
O O2 0.750000 0.666941 0.750000
O O3 0.838104 0.640730 0.678941
O O4 0.878540 0.607409 0.769144
O O5 0.289133 0.081873 0.840631
O O6 0.202207 0.116393 0.912707
O O7 0.174259 0.000000 0.854094
O O8 0.500000 0.696209 0.427005
O O9 0.588650 0.645330 0.359676
O O10 0.617150 0.629574 0.452228
O O11 0.621116 0.765380 0.415033
O O12 0.593619 0.500000 0.665297
O O13 0.882061 0.500000 0.000000
O O14 0.000000 0.419753 0.000000
O O15 0.164689 0.325380 0.500000
O O16 0.250000 0.250000 0.442403
#
# Coordination Sequence:
#
# PCOD9513970 Si02
#       6
#    32  32  32  32  16  32
#     4   9  17  29  52  80 111 150 189 231 276 330
#     4  10  20  34  55  83 115 149 190 238 288 335
#     4  11  21  35  55  81 112 151 191 231 283 344
#     4  10  19  32  51  81 117 149 184 229 281 341
#     4   9  18  32  49  74 111 151 189 224 271 341
#     4  11  22  37  57  81 111 150 191 241 291 337
#
# _framework density 5.0297210000000003
#
# number of rings (size 3 to 8) (size 9 to 14) (size 15 to 20)
#    0.000    1.909    2.727    2.182    2.545    3.636 
#    0.000    0.000    0.000    5.455    0.000    1.273 
#    0.000    0.000    0.000    0.000    0.000    0.000 
#
# Total GULP energy -245271.813241 kJ/mol
# GULP energy per Si atom -5574.359392 kJ/mol
# Density = 0.501827 g / cm^3
# Si number density = 5.029721 Si / 1000 Ang^3
#
#
#
# Elastic Constant Matrix: (Units=GPa)
#
#
# Indices 1 2 3 4 5 6 
#
# 1 21.0025 20.8881 16.7935 0.0000 0.0000 0.0000
# 2 20.8881 99.9157 43.6210 0.0000 0.0000 0.0000
# 3 16.7935 43.6210 85.0511 0.0000 0.0000 0.0000
# 4 0.0000 0.0000 0.0000 15.9119 0.0000 0.0000
# 5 0.0000 0.0000 0.0000 0.0000 37.1996 0.0000
# 6 0.0000 0.0000 0.0000 0.0000 0.0000 26.1460
#
#
#
# Elastic Compliance Matrix: (Units=1/GPa)
#
#
# Indices 1 2 3 4 5 6 
#
# 1 0.063519 -0.010055 -0.007385 0.000000 0.000000 0.000000
# 2 -0.010055 0.014488 -0.005445 0.000000 0.000000 0.000000
# 3 -0.007385 -0.005445 0.016008 0.000000 0.000000 0.000000
# 4 0.000000 0.000000 0.000000 0.062846 0.000000 0.000000
# 5 0.000000 0.000000 0.000000 0.000000 0.026882 0.000000
# 6 0.000000 0.000000 0.000000 0.000000 0.000000 0.038247
#
#
# Mechanical properties :
#
#
# Convention : Reuss Voigt Hill
#
# Bulk Modulus (GPa) = 20.72757 40.95271 30.84014
# Shear Modulus (GPa) = 17.61548 24.16259 20.88904
#
# Velocity S-wave (km/s) = 2.96221 3.46929 3.22573
# Velocity P-wave (km/s) = 4.69303 6.03718 5.40703
#
# Compressibility (1/GPa) = 0.04824493
#
# Stress axis : x y z
#
# Youngs Moduli (GPa) = 15.74343 69.02417 62.46692
#
# Poissons Ratio (x) = 0.69403 0.46131
# Poissons Ratio (y) = 0.15830 0.34014
# Poissons Ratio (z) = 0.11626 0.37584
#
# Static dielectric constant tensor:
#      x y z
#    x 1.715550 0.000000 0.000000 
#    y 0.000000 1.714070 0.000000 
#    z 0.000000 0.000000 1.747710 
# 
# From -- ./inp_files/26755.got.cif
#   From: 2010.05.17/outbox.ucp.g08.bks.cvg/sg69_14_cif.got.tgz:26755.got - 2010.06.11 16:51:34.
