data_PCOD9513310
_publ_section_title
;
Structure prediction by ZEFSAII (Michael W. Deem and Ramdas Pophale) SiO2 
 PCOD9513310
Probable space group: F M M M
;
_chemical_formula_sum "Si O2"
_cell_formula_units_Z 100
_cell_length_a 11.512090
_cell_length_b 15.297115
_cell_length_c 28.053270
_cell_angle_alpha 90.000000
_cell_angle_beta 90.000000
_cell_angle_gamma 90.000000
_cell_volume 4940.230350
_symmetry_space_group_name_H-M "F M M M"
_symmetry_group_IT_number 69
_symmetry_cell_setting 'orthorhombic'
loop_
_space_group_symop_operation_xyz
x,y,z
-x,-y,z
x,-y,-z
-x,y,-z
-x,-y,-z
x,y,-z
-x,y,z
x,-y,z
x,1/2+y,1/2+z
-x,1/2-y,1/2+z
x,1/2-y,1/2-z
-x,1/2+y,1/2-z
-x,1/2-y,1/2-z
x,1/2+y,1/2-z
-x,1/2+y,1/2+z
x,1/2-y,1/2+z
1/2+x,y,1/2+z
1/2-x,-y,1/2+z
1/2+x,-y,1/2-z
1/2-x,y,1/2-z
1/2-x,-y,1/2-z
1/2+x,y,1/2-z
1/2-x,y,1/2+z
1/2+x,-y,1/2+z
1/2+x,1/2+y,z
1/2-x,1/2-y,z
1/2+x,1/2-y,-z
1/2-x,1/2+y,-z
1/2-x,1/2-y,-z
1/2+x,1/2+y,-z
1/2-x,1/2+y,z
1/2+x,1/2-y,z
loop_
_atom_site_type_symbol
_atom_site_label
_atom_site_fract_x
_atom_site_fract_y
_atom_site_fract_z
Si Si1 0.200537 0.153466 0.624724
Si Si2 0.500000 0.500000 0.000000
Si Si3 0.000000 0.395614 0.943703
Si Si4 0.126986 0.604965 0.228816
Si Si5 0.626236 0.000000 0.400181
O O1 0.250000 0.250000 0.629610
O O2 0.135544 0.125394 0.672853
O O3 0.112043 0.145709 0.580979
O O4 0.302745 0.084611 0.615204
O O5 0.599204 0.500000 0.043152
O O6 0.000000 0.500000 0.933973
O O7 0.000000 0.382381 0.000000
O O8 0.127319 0.500000 0.235622
O O9 0.250000 0.638430 0.250000
O O10 0.000000 0.636889 0.247055
O O11 0.500000 0.000000 0.376040
#
# Coordination Sequence:
#
# PCOD9513310 Si02
#       5
#    32   4  16  32  16
#     4  12  25  43  68 100 136 177 224 281 336 407
#     4   8  24  44  68  86 148 178 212 280 354 392
#     4  11  24  43  73  97 130 183 232 280 338 394
#     4  10  21  42  70  99 134 177 226 281 339 407
#     4  10  24  43  65  91 134 179 217 274 339 400
#
# _framework density 20.241970999999999
#
# number of rings (size 3 to 8) (size 9 to 14) (size 15 to 20)
#    0.480    0.800    4.800    0.000    4.480    2.560 
#    2.880    1.600    0.000    0.000    0.000    0.000 
#    0.000    0.000    0.000    0.000    0.000    0.000 
#
# Total GULP energy -139342.369441 kJ/mol
# GULP energy per Si atom -5573.694778 kJ/mol
# Density = 2.019590 g / cm^3
# Si number density = 20.241971 Si / 1000 Ang^3
#
#
#
# Elastic Constant Matrix: (Units=GPa)
#
#
# Indices 1 2 3 4 5 6 
#
# 1 193.7358 43.7787 30.9436 0.0000 0.0000 0.0000
# 2 43.7787 65.5433 -7.5613 0.0000 0.0000 0.0000
# 3 30.9436 -7.5613 53.2027 0.0000 0.0000 0.0000
# 4 0.0000 0.0000 0.0000 0.4119 0.0000 0.0000
# 5 0.0000 0.0000 0.0000 0.0000 51.1995 0.0000
# 6 0.0000 0.0000 0.0000 0.0000 0.0000 -6.4330
#
#
#
# Elastic Compliance Matrix: (Units=1/GPa)
#
#
# Indices 1 2 3 4 5 6 
#
# 1 0.007156 -0.005348 -0.004922 0.000000 0.000000 0.000000
# 2 -0.005348 0.019508 0.005883 0.000000 0.000000 0.000000
# 3 -0.004922 0.005883 0.022495 0.000000 0.000000 0.000000
# 4 0.000000 0.000000 0.000000 2.427872 0.000000 0.000000
# 5 0.000000 0.000000 0.000000 0.000000 0.019531 0.000000
# 6 0.000000 0.000000 0.000000 0.000000 0.000000 -0.155449
#
#
# Mechanical properties :
#
#
# Convention : Reuss Voigt Hill
#
# Bulk Modulus (GPa) = 24.76186 49.64487 37.20337
# Shear Modulus (GPa) = 2.11564 25.39040 13.75302
#
# Velocity S-wave (km/s) = 1.02345 3.54551 2.60942
# Velocity P-wave (km/s) = 3.69541 6.42961 5.24385
#
# Compressibility (1/GPa) = 0.04038469
#
# Stress axis : x y z
#
# Youngs Moduli (GPa) = 139.73675 51.26166 44.45424
#
# Poissons Ratio (x) = 0.27414 0.21882
# Poissons Ratio (y) = 0.74729 -0.26152
# Poissons Ratio (z) = 0.68783 -0.30157
#
# Static dielectric constant tensor:
#      x y z
#    x 1.770760 0.000000 0.000000 
#    y 0.000000 1.681030 0.000000 
#    z 0.000000 0.000000 1.695500 
# 
# From -- ./inp_files/44805.got.cif
#   From: 2010.05.17/outbox.cif.g08.bks.cpg/sg69_23_cif.got.tgz:44805.got - 2010.06.03 19:29:58.
