data_PCOD9513538
_publ_section_title
;
Structure prediction by ZEFSAII (Michael W. Deem and Ramdas Pophale) SiO2 
 PCOD9513538
Probable space group: F M M M
;
_chemical_formula_sum "Si O2"
_cell_formula_units_Z 96
_cell_length_a 10.493578
_cell_length_b 14.242681
_cell_length_c 28.729448
_cell_angle_alpha 90.000000
_cell_angle_beta 90.000000
_cell_angle_gamma 90.000000
_cell_volume 4293.808031
_symmetry_space_group_name_H-M "F M M M"
_symmetry_group_IT_number 69
_symmetry_cell_setting 'orthorhombic'
loop_
_space_group_symop_operation_xyz
x,y,z
-x,-y,z
x,-y,-z
-x,y,-z
-x,-y,-z
x,y,-z
-x,y,z
x,-y,z
x,1/2+y,1/2+z
-x,1/2-y,1/2+z
x,1/2-y,1/2-z
-x,1/2+y,1/2-z
-x,1/2-y,1/2-z
x,1/2+y,1/2-z
-x,1/2+y,1/2+z
x,1/2-y,1/2+z
1/2+x,y,1/2+z
1/2-x,-y,1/2+z
1/2+x,-y,1/2-z
1/2-x,y,1/2-z
1/2-x,-y,1/2-z
1/2+x,y,1/2-z
1/2-x,y,1/2+z
1/2+x,-y,1/2+z
1/2+x,1/2+y,z
1/2-x,1/2-y,z
1/2+x,1/2-y,-z
1/2-x,1/2+y,-z
1/2-x,1/2-y,-z
1/2+x,1/2+y,-z
1/2-x,1/2+y,z
1/2+x,1/2-y,z
loop_
_atom_site_type_symbol
_atom_site_label
_atom_site_fract_x
_atom_site_fract_y
_atom_site_fract_z
Si Si1 0.712902 0.389042 0.621697
Si Si2 0.363510 0.649743 0.276110
Si Si3 0.000000 0.108080 0.912687
Si Si4 0.000000 0.810758 0.552940
O O1 0.684143 0.500000 0.624565
O O2 0.669307 0.342311 0.669779
O O3 0.625750 0.346114 0.580666
O O4 0.865580 0.380903 0.614692
O O5 0.500000 0.604110 0.271465
O O6 0.372619 0.750000 0.250000
O O7 0.250000 0.599318 0.250000
O O8 0.000000 0.197363 0.946506
O O9 0.000000 0.000000 0.931112
O O10 0.000000 0.845321 0.500000
#
# Coordination Sequence:
#
# PCOD9513538 Si02
#       4
#    32  32  16  16
#     4  11  25  47  73 106 150 191 239 298 357 427
#     4  10  23  38  64 101 140 191 232 288 347 415
#     4  10  26  46  73 106 144 187 234 297 366 428
#     4  12  27  47  78 107 138 192 246 295 359 431
#
# _framework density 22.357776000000001
#
# number of rings (size 3 to 8) (size 9 to 14) (size 15 to 20)
#    0.000    1.333    1.667    1.500   11.667    5.000 
#    0.000    3.333    0.000    0.000    0.000    0.000 
#    0.000    0.000    0.000    0.000    0.000    0.000 
#
# Total GULP energy -134026.330571 kJ/mol
# GULP energy per Si atom -5584.430440 kJ/mol
# Density = 2.230689 g / cm^3
# Si number density = 22.357776 Si / 1000 Ang^3
#
#
#
# Elastic Constant Matrix: (Units=GPa)
#
#
# Indices 1 2 3 4 5 6 
#
# 1 236.5380 34.6478 82.9423 0.0000 0.0000 0.0000
# 2 34.6478 159.1690 52.1371 0.0000 0.0000 0.0000
# 3 82.9423 52.1371 189.7184 0.0000 0.0000 0.0000
# 4 0.0000 0.0000 0.0000 82.3783 0.0000 0.0000
# 5 0.0000 0.0000 0.0000 0.0000 18.8225 0.0000
# 6 0.0000 0.0000 0.0000 0.0000 0.0000 32.8336
#
#
#
# Elastic Compliance Matrix: (Units=1/GPa)
#
#
# Indices 1 2 3 4 5 6 
#
# 1 0.005017 -0.000411 -0.002081 0.000000 0.000000 0.000000
# 2 -0.000411 0.006938 -0.001727 0.000000 0.000000 0.000000
# 3 -0.002081 -0.001727 0.006655 0.000000 0.000000 0.000000
# 4 0.000000 0.000000 0.000000 0.012139 0.000000 0.000000
# 5 0.000000 0.000000 0.000000 0.000000 0.053128 0.000000
# 6 0.000000 0.000000 0.000000 0.000000 0.000000 0.030457
#
#
# Mechanical properties :
#
#
# Convention : Reuss Voigt Hill
#
# Bulk Modulus (GPa) = 98.29362 102.76443 100.52903
# Shear Modulus (GPa) = 39.63164 54.52011 47.07588
#
# Velocity S-wave (km/s) = 4.21481 4.94350 4.59363
# Velocity P-wave (km/s) = 8.23077 8.86836 8.55550
#
# Compressibility (1/GPa) = 0.01017360
#
# Stress axis : x y z
#
# Youngs Moduli (GPa) = 199.30658 144.13941 150.25765
#
# Poissons Ratio (x) = 0.05919 0.31264
# Poissons Ratio (y) = 0.08184 0.25950
# Poissons Ratio (z) = 0.41469 0.24894
#
# Static dielectric constant tensor:
#      x y z
#    x 2.091180 0.000000 0.000000 
#    y 0.000000 1.815770 0.000000 
#    z 0.000000 0.000000 1.761320 
# 
# From -- ./inp_files/34794.got.cif
#   From: 2010.05.17/outbox.cif.g08.bks.cpg/sg69_18_cif.got.tgz:34794.got - 2010.06.03 19:29:58.
