data_PCOD9513511
_publ_section_title
;
Structure prediction by ZEFSAII (Michael W. Deem and Ramdas Pophale) SiO2 
 PCOD9513511
Probable space group: F M M M
;
_chemical_formula_sum "Si O2"
_cell_formula_units_Z 160
_cell_length_a 16.632458
_cell_length_b 21.206255
_cell_length_c 20.640083
_cell_angle_alpha 90.000000
_cell_angle_beta 90.000000
_cell_angle_gamma 90.000000
_cell_volume 7280.007961
_symmetry_space_group_name_H-M "F M M M"
_symmetry_group_IT_number 69
_symmetry_cell_setting 'orthorhombic'
loop_
_space_group_symop_operation_xyz
x,y,z
-x,-y,z
x,-y,-z
-x,y,-z
-x,-y,-z
x,y,-z
-x,y,z
x,-y,z
x,1/2+y,1/2+z
-x,1/2-y,1/2+z
x,1/2-y,1/2-z
-x,1/2+y,1/2-z
-x,1/2-y,1/2-z
x,1/2+y,1/2-z
-x,1/2+y,1/2+z
x,1/2-y,1/2+z
1/2+x,y,1/2+z
1/2-x,-y,1/2+z
1/2+x,-y,1/2-z
1/2-x,y,1/2-z
1/2-x,-y,1/2-z
1/2+x,y,1/2-z
1/2-x,y,1/2+z
1/2+x,-y,1/2+z
1/2+x,1/2+y,z
1/2-x,1/2-y,z
1/2+x,1/2-y,-z
1/2-x,1/2+y,-z
1/2-x,1/2-y,-z
1/2+x,1/2+y,-z
1/2-x,1/2+y,z
1/2+x,1/2-y,z
loop_
_atom_site_type_symbol
_atom_site_label
_atom_site_fract_x
_atom_site_fract_y
_atom_site_fract_z
Si Si1 0.148127 0.573278 0.373974
Si Si2 0.403624 0.000000 0.076003
Si Si3 0.173685 0.625289 0.137257
Si Si4 0.405362 0.249993 0.889042
Si Si5 0.109605 0.357556 0.500000
Si Si6 0.908786 0.160688 0.769884
O O1 0.164314 0.500000 0.365616
O O2 0.232877 0.610314 0.369071
O O3 0.111276 0.589012 0.443019
O O4 0.093571 0.600698 0.317261
O O5 0.371354 0.936885 0.110828
O O6 0.500000 0.000000 0.078024
O O7 0.377894 0.000000 0.000000
O O8 0.147147 0.688001 0.098857
O O9 0.148021 0.643286 0.210234
O O10 0.500000 0.233464 0.889943
O O11 0.392904 0.302630 0.943273
O O12 0.387324 0.281561 0.818517
O O13 0.000000 0.170620 0.746392
#
# Coordination Sequence:
#
# PCOD9513511 Si02
#       6
#    32  16  32  32  16  32
#     4  11  25  43  66  98 137 176 226 276 333 402
#     4  11  26  42  59  96 133 180 235 270 323 406
#     4  12  24  41  70  95 136 178 218 283 344 396
#     4  10  22  42  69 100 133 169 219 276 335 403
#     4  10  24  43  66  92 127 174 216 269 330 396
#     4  10  23  43  67 100 134 175 225 277 337 403
#
# _framework density 21.977996999999998
#
# number of rings (size 3 to 8) (size 9 to 14) (size 15 to 20)
#    0.000    1.300    1.000    3.600    4.200    7.600 
#    0.000    4.000    0.000    6.000    0.000    0.000 
#    0.000    0.000    0.000    0.000    0.000    0.000 
#
# Total GULP energy -222701.816054 kJ/mol
# GULP energy per Si atom -5567.545401 kJ/mol
# Density = 2.192797 g / cm^3
# Si number density = 21.977997 Si / 1000 Ang^3
#
#
#
# Elastic Constant Matrix: (Units=GPa)
#
#
# Indices 1 2 3 4 5 6 
#
# 1 56.3611 43.6696 6.5101 0.0000 0.0000 0.0000
# 2 43.6696 131.6703 -2.3850 0.0000 0.0000 0.0000
# 3 6.5101 -2.3850 98.3643 0.0000 0.0000 0.0000
# 4 0.0000 0.0000 0.0000 22.8407 0.0000 0.0000
# 5 0.0000 0.0000 0.0000 0.0000-1713.0642 0.0000
# 6 0.0000 0.0000 0.0000 0.0000 0.0000 21.9862
#
#
#
# Elastic Compliance Matrix: (Units=1/GPa)
#
#
# Indices 1 2 3 4 5 6 
#
# 1 0.024192 -0.008056 -0.001796 0.000000 0.000000 0.000000
# 2 -0.008056 0.010281 0.000782 0.000000 0.000000 0.000000
# 3 -0.001796 0.000782 0.010304 0.000000 0.000000 0.000000
# 4 0.000000 0.000000 0.000000 0.043781 0.000000 0.000000
# 5 0.000000 0.000000 0.000000 0.000000 -0.000584 0.000000
# 6 0.000000 0.000000 0.000000 0.000000 0.000000 0.045483
#
#
# Mechanical properties :
#
#
# Convention : Reuss Voigt Hill
#
# Bulk Modulus (GPa) = 37.54184 42.44278 39.99231
# Shear Modulus (GPa) = 31.15706 -317.74072 -143.29183
#
# Velocity S-wave (km/s) = 3.76925 -12.03686 -8.08328
# Velocity P-wave (km/s) = 6.00513 13.18438 8.29959
#
# Compressibility (1/GPa) = 0.02663695
#
# Stress axis : x y z
#
# Youngs Moduli (GPa) = 41.33556 97.26888 97.04818
#
# Poissons Ratio (x) = 0.78361 0.17434
# Poissons Ratio (y) = 0.33300 -0.07594
# Poissons Ratio (z) = 0.07426 -0.07611
#
# Static dielectric constant tensor:
#      x y z
#    x 1.831810 0.000000 0.000000 
#    y 0.000000 1.784370 0.000000 
#    z 0.000000 0.000000 1.795090 
# 
# From -- ./inp_files/30836.got.cif
#   From: 2010.05.17/outbox.cif.g08.bks.cpg/sg69_16_cif.got.tgz:30836.got - 2010.06.03 19:29:58.
