data_PCOD9513419
_publ_section_title
;
Structure prediction by ZEFSAII (Michael W. Deem and Ramdas Pophale) SiO2 
 PCOD9513419
Probable space group: F M M M
;
_chemical_formula_sum "Si O2"
_cell_formula_units_Z 144
_cell_length_a 18.338926
_cell_length_b 14.175718
_cell_length_c 31.619589
_cell_angle_alpha 90.000000
_cell_angle_beta 90.000000
_cell_angle_gamma 90.000000
_cell_volume 8220.063714
_symmetry_space_group_name_H-M "F M M M"
_symmetry_group_IT_number 69
_symmetry_cell_setting 'orthorhombic'
loop_
_space_group_symop_operation_xyz
x,y,z
-x,-y,z
x,-y,-z
-x,y,-z
-x,-y,-z
x,y,-z
-x,y,z
x,-y,z
x,1/2+y,1/2+z
-x,1/2-y,1/2+z
x,1/2-y,1/2-z
-x,1/2+y,1/2-z
-x,1/2-y,1/2-z
x,1/2+y,1/2-z
-x,1/2+y,1/2+z
x,1/2-y,1/2+z
1/2+x,y,1/2+z
1/2-x,-y,1/2+z
1/2+x,-y,1/2-z
1/2-x,y,1/2-z
1/2-x,-y,1/2-z
1/2+x,y,1/2-z
1/2-x,y,1/2+z
1/2+x,-y,1/2+z
1/2+x,1/2+y,z
1/2-x,1/2-y,z
1/2+x,1/2-y,-z
1/2-x,1/2+y,-z
1/2-x,1/2-y,-z
1/2+x,1/2+y,-z
1/2-x,1/2+y,z
1/2+x,1/2-y,z
loop_
_atom_site_type_symbol
_atom_site_label
_atom_site_fract_x
_atom_site_fract_y
_atom_site_fract_z
Si Si1 0.500000 0.392349 0.449564
Si Si2 0.411604 0.395210 0.761854
Si Si3 0.911430 0.778564 0.320147
Si Si4 0.141970 0.291531 0.914153
Si Si5 0.286885 0.889585 0.550953
O O1 0.500000 0.500000 0.433141
O O2 0.500000 0.395863 0.500000
O O3 0.570921 0.337873 0.434192
O O4 0.500000 0.396907 0.762597
O O5 0.383710 0.500000 0.769245
O O6 0.391193 0.319997 0.797560
O O7 0.392961 0.356483 0.715326
O O8 0.870201 0.791192 0.363931
O O9 0.000000 0.780496 0.326906
O O10 0.211013 0.353456 0.928981
O O11 0.154861 0.185115 0.930968
O O12 0.282822 0.879581 0.500000
O O13 0.300209 0.000000 0.560426
#
# Coordination Sequence:
#
# PCOD9513419 Si02
#       5
#    16  32  32  32  32
#     4  11  22  34  53  84 115 139 168 220 289 335
#     4   8  15  28  47  69 105 147 173 204 257 322
#     4   9  17  30  47  79 111 134 172 217 267 321
#     4  11  20  35  57  82 111 140 177 232 275 317
#     4  10  22  40  58  75 102 149 196 223 261 327
#
# _framework density 17.518111999999999
#
# number of rings (size 3 to 8) (size 9 to 14) (size 15 to 20)
#    0.000    2.333    1.111    4.667    0.000    4.444 
#    0.000    0.556    0.000   12.667    0.000   12.444 
#    0.000    0.000    0.000    0.000    0.000    0.000 
#
# Total GULP energy -200751.569329 kJ/mol
# GULP energy per Si atom -5576.432481 kJ/mol
# Density = 1.747824 g / cm^3
# Si number density = 17.518112 Si / 1000 Ang^3
#
#
#
# Elastic Constant Matrix: (Units=GPa)
#
#
# Indices 1 2 3 4 5 6 
#
# 1 64.4721 43.1566 26.0339 0.0000 0.0000 0.0000
# 2 43.1566 109.4090 17.0803 0.0000 0.0000 0.0000
# 3 26.0339 17.0803 91.8476 0.0000 0.0000 0.0000
# 4 0.0000 0.0000 0.0000 -1.0039 0.0000 0.0000
# 5 0.0000 0.0000 0.0000 0.0000 31.3181 0.0000
# 6 0.0000 0.0000 0.0000 0.0000 0.0000 14.1553
#
#
#
# Elastic Compliance Matrix: (Units=1/GPa)
#
#
# Indices 1 2 3 4 5 6 
#
# 1 0.023109 -0.008335 -0.005000 0.000000 0.000000 0.000000
# 2 -0.008335 0.012419 0.000053 0.000000 0.000000 0.000000
# 3 -0.005000 0.000053 0.012295 0.000000 0.000000 0.000000
# 4 0.000000 0.000000 0.000000 -0.996160 0.000000 0.000000
# 5 0.000000 0.000000 0.000000 0.000000 0.031930 0.000000
# 6 0.000000 0.000000 0.000000 0.000000 0.000000 0.070645
#
#
# Mechanical properties :
#
#
# Convention : Reuss Voigt Hill
#
# Bulk Modulus (GPa) = 47.03830 48.69671 47.86750
# Shear Modulus (GPa) = -6.15679 20.85776 7.35049
#
# Velocity S-wave (km/s) = -1.87674 3.45431 2.05062
# Velocity P-wave (km/s) = 4.71310 6.61573 5.74375
#
# Compressibility (1/GPa) = 0.02125927
#
# Stress axis : x y z
#
# Youngs Moduli (GPa) = 43.27360 80.51920 81.33353
#
# Poissons Ratio (x) = 0.67110 0.40668
# Poissons Ratio (y) = 0.36067 -0.00430
# Poissons Ratio (z) = 0.21638 -0.00426
#
# Static dielectric constant tensor:
#      x y z
#    x 1.585140 0.000000 0.000000 
#    y 0.000000 1.610810 0.000000 
#    z 0.000000 0.000000 1.575440 
# 
# From -- ./inp_files/15530.got.cif
#   From: 2010.05.17/outbox.cif.g08.bks.cpg/sg69_8_cif.got.tgz:15530.got - 2010.06.03 19:29:58.
