data_PCOD9513093
_publ_section_title
;
Structure prediction by ZEFSAII (Michael W. Deem and Ramdas Pophale) SiO2 
 PCOD9513093
Probable space group: F M M M
;
_chemical_formula_sum "Si O2"
_cell_formula_units_Z 120
_cell_length_a 22.071347
_cell_length_b 20.581980
_cell_length_c 13.759606
_cell_angle_alpha 90.000000
_cell_angle_beta 90.000000
_cell_angle_gamma 90.000000
_cell_volume 6250.604047
_symmetry_space_group_name_H-M "F M M M"
_symmetry_group_IT_number 69
_symmetry_cell_setting 'orthorhombic'
loop_
_space_group_symop_operation_xyz
x,y,z
-x,-y,z
x,-y,-z
-x,y,-z
-x,-y,-z
x,y,-z
-x,y,z
x,-y,z
x,1/2+y,1/2+z
-x,1/2-y,1/2+z
x,1/2-y,1/2-z
-x,1/2+y,1/2-z
-x,1/2-y,1/2-z
x,1/2+y,1/2-z
-x,1/2+y,1/2+z
x,1/2-y,1/2+z
1/2+x,y,1/2+z
1/2-x,-y,1/2+z
1/2+x,-y,1/2-z
1/2-x,y,1/2-z
1/2-x,-y,1/2-z
1/2+x,y,1/2-z
1/2-x,y,1/2+z
1/2+x,-y,1/2+z
1/2+x,1/2+y,z
1/2-x,1/2-y,z
1/2+x,1/2-y,-z
1/2-x,1/2+y,-z
1/2-x,1/2-y,-z
1/2+x,1/2+y,-z
1/2-x,1/2+y,z
1/2+x,1/2-y,z
loop_
_atom_site_type_symbol
_atom_site_label
_atom_site_fract_x
_atom_site_fract_y
_atom_site_fract_z
Si Si1 0.288112 0.815315 0.114339
Si Si2 0.000000 0.577442 0.887864
Si Si3 0.500000 0.250000 0.250000
Si Si4 0.900229 0.853802 0.257893
Si Si5 0.687902 0.575165 0.115131
O O1 0.250000 0.750000 0.132826
O O2 0.346722 0.820492 0.180670
O O3 0.245031 0.877484 0.132348
O O4 0.304803 0.815122 0.000000
O O5 0.941333 0.604838 0.832671
O O6 0.000000 0.500000 0.885733
O O7 0.000000 0.599612 0.000000
O O8 0.446620 0.198702 0.284163
O O9 0.867799 0.898019 0.177788
O O10 0.701144 0.500000 0.138777
O O11 0.674442 0.579302 0.000000
#
# Coordination Sequence:
#
# PCOD9513093 Si02
#       5
#    32  16   8  32  32
#     4  10  21  37  60  89 119 152 191 241 303 368
#     4  10  22  38  56  81 111 144 186 233 278 333
#     4  10  24  38  56  84 112 150 202 248 282 342
#     4  11  21  38  59  82 114 154 194 237 294 350
#     4  10  22  39  60  89 121 153 196 249 305 369
#
# _framework density 19.198143999999999
#
# number of rings (size 3 to 8) (size 9 to 14) (size 15 to 20)
#    0.000    1.733    0.000    4.000    0.000    4.267 
#    0.000   12.000    0.000    7.200    0.000    0.000 
#    0.000    0.000    0.000    0.000    0.000    0.000 
#
# Total GULP energy -167098.688598 kJ/mol
# GULP energy per Si atom -5569.956287 kJ/mol
# Density = 1.915445 g / cm^3
# Si number density = 19.198144 Si / 1000 Ang^3
#
#
#
# Elastic Constant Matrix: (Units=GPa)
#
#
# Indices 1 2 3 4 5 6 
#
# 1 154.4648 66.7929 56.0106 0.0000 0.0000 0.0000
# 2 66.7929 120.6111 23.6376 0.0000 0.0000 0.0000
# 3 56.0106 23.6376 78.0723 0.0000 0.0000 0.0000
# 4 0.0000 0.0000 0.0000 21.1134 0.0000 0.0000
# 5 0.0000 0.0000 0.0000 0.0000 49.9465 0.0000
# 6 0.0000 0.0000 0.0000 0.0000 0.0000 33.8619
#
#
#
# Elastic Compliance Matrix: (Units=1/GPa)
#
#
# Indices 1 2 3 4 5 6 
#
# 1 0.010823 -0.004754 -0.006326 0.000000 0.000000 0.000000
# 2 -0.004754 0.010902 0.000110 0.000000 0.000000 0.000000
# 3 -0.006326 0.000110 0.017313 0.000000 0.000000 0.000000
# 4 0.000000 0.000000 0.000000 0.047363 0.000000 0.000000
# 5 0.000000 0.000000 0.000000 0.000000 0.020021 0.000000
# 6 0.000000 0.000000 0.000000 0.000000 0.000000 0.029532
#
#
# Mechanical properties :
#
#
# Convention : Reuss Voigt Hill
#
# Bulk Modulus (GPa) = 58.48101 71.78115 65.13108
# Shear Modulus (GPa) = 30.56320 34.76483 32.66402
#
# Velocity S-wave (km/s) = 3.99430 4.26002 4.12930
# Velocity P-wave (km/s) = 7.19726 7.85288 7.53221
#
# Compressibility (1/GPa) = 0.01709957
#
# Stress axis : x y z
#
# Youngs Moduli (GPa) = 92.39179 91.72298 57.75859
#
# Poissons Ratio (x) = 0.43607 0.36536
# Poissons Ratio (y) = 0.43925 -0.00635
# Poissons Ratio (z) = 0.58443 -0.01008
#
# Static dielectric constant tensor:
#      x y z
#    x 1.619760 0.000000 0.000000 
#    y 0.000000 1.679560 0.000000 
#    z 0.000000 0.000000 1.682500 
# 
# From -- ./inp_files/16240.got.cif
#   From: 2010.05.17/outbox.cif.g08.bks.cpg/sg69_9_cif.got.tgz:16240.got - 2010.06.03 19:29:58.
