data_PCOD9513180
_publ_section_title
;
Structure prediction by ZEFSAII (Michael W. Deem and Ramdas Pophale) SiO2 
 PCOD9513180
Probable space group: F M M M
;
_chemical_formula_sum "Si O2"
_cell_formula_units_Z 132
_cell_length_a 24.950582
_cell_length_b 18.377385
_cell_length_c 14.363975
_cell_angle_alpha 90.000000
_cell_angle_beta 90.000000
_cell_angle_gamma 90.000000
_cell_volume 6586.262485
_symmetry_space_group_name_H-M "F M M M"
_symmetry_group_IT_number 69
_symmetry_cell_setting 'orthorhombic'
loop_
_space_group_symop_operation_xyz
x,y,z
-x,-y,z
x,-y,-z
-x,y,-z
-x,-y,-z
x,y,-z
-x,y,z
x,-y,z
x,1/2+y,1/2+z
-x,1/2-y,1/2+z
x,1/2-y,1/2-z
-x,1/2+y,1/2-z
-x,1/2-y,1/2-z
x,1/2+y,1/2-z
-x,1/2+y,1/2+z
x,1/2-y,1/2+z
1/2+x,y,1/2+z
1/2-x,-y,1/2+z
1/2+x,-y,1/2-z
1/2-x,y,1/2-z
1/2-x,-y,1/2-z
1/2+x,y,1/2-z
1/2-x,y,1/2+z
1/2+x,-y,1/2+z
1/2+x,1/2+y,z
1/2-x,1/2-y,z
1/2+x,1/2-y,-z
1/2-x,1/2+y,-z
1/2-x,1/2-y,-z
1/2+x,1/2+y,-z
1/2-x,1/2+y,z
1/2+x,1/2-y,z
loop_
_atom_site_type_symbol
_atom_site_label
_atom_site_fract_x
_atom_site_fract_y
_atom_site_fract_z
Si Si1 0.882939 0.810233 0.111415
Si Si2 0.000000 0.583097 0.112692
Si Si3 0.312107 0.083497 0.732818
Si Si4 0.000000 0.151042 0.102982
Si Si5 0.500000 0.500000 0.000000
Si Si6 0.615865 0.859648 0.110236
O O1 0.840768 0.861798 0.161862
O O2 0.872070 0.725292 0.126849
O O3 0.943378 0.827435 0.145949
O O4 0.882121 0.824497 0.000000
O O5 0.945205 0.622835 0.138532
O O6 0.000000 0.500000 0.147274
O O7 0.000000 0.580619 0.000000
O O8 0.250000 0.100994 0.750000
O O9 0.344163 0.092712 0.829099
O O10 0.316079 0.000000 0.699990
O O11 0.000000 0.065352 0.079314
O O12 0.000000 0.189680 0.000000
O O13 0.620993 0.873986 0.000000
#
# Coordination Sequence:
#
# PCOD9513180 Si02
#       6
#    32  16  32  16   4  32
#     4  10  21  38  63  90 121 155 189 240 297 355
#     4   9  17  32  59  92 122 155 191 234 286 351
#     4  11  26  43  59  83 116 156 204 252 293 344
#     4   8  17  31  55  90 121 152 184 227 289 350
#     4   8  16  28  56  88 128 156 180 232 284 350
#     4  10  21  39  63  89 120 155 193 240 295 349
#
# _framework density 20.041716000000001
#
# number of rings (size 3 to 8) (size 9 to 14) (size 15 to 20)
#    0.364    1.818    0.000    2.182    1.697    8.727 
#    0.000    8.485    0.000    0.000    0.000    0.000 
#    0.000    0.000    0.000    0.000    0.000    0.000 
#
# Total GULP energy -184038.912161 kJ/mol
# GULP energy per Si atom -5576.936732 kJ/mol
# Density = 1.999610 g / cm^3
# Si number density = 20.041716 Si / 1000 Ang^3
#
#
#
# Elastic Constant Matrix: (Units=GPa)
#
#
# Indices 1 2 3 4 5 6 
#
# 1 153.5456 53.5413 35.8402 0.0000 0.0000 0.0000
# 2 53.5413 84.7873 30.7090 0.0000 0.0000 0.0000
# 3 35.8402 30.7090 63.1601 0.0000 0.0000 0.0000
# 4 0.0000 0.0000 0.0000 29.3974 0.0000 0.0000
# 5 0.0000 0.0000 0.0000 0.0000 27.8543 0.0000
# 6 0.0000 0.0000 0.0000 0.0000 0.0000 44.5723
#
#
#
# Elastic Compliance Matrix: (Units=1/GPa)
#
#
# Indices 1 2 3 4 5 6 
#
# 1 0.008731 -0.004514 -0.002760 0.000000 0.000000 0.000000
# 2 -0.004514 0.016649 -0.005533 0.000000 0.000000 0.000000
# 3 -0.002760 -0.005533 0.020089 0.000000 0.000000 0.000000
# 4 0.000000 0.000000 0.000000 0.034017 0.000000 0.000000
# 5 0.000000 0.000000 0.000000 0.000000 0.035901 0.000000
# 6 0.000000 0.000000 0.000000 0.000000 0.000000 0.022435
#
#
# Mechanical properties :
#
#
# Convention : Reuss Voigt Hill
#
# Bulk Modulus (GPa) = 50.36523 60.18599 55.27561
# Shear Modulus (GPa) = 29.40243 32.45830 30.93037
#
# Velocity S-wave (km/s) = 3.83438 4.02871 3.93275
# Velocity P-wave (km/s) = 6.69239 7.19279 6.94710
#
# Compressibility (1/GPa) = 0.01985497
#
# Stress axis : x y z
#
# Youngs Moduli (GPa) = 114.53656 60.06465 49.77812
#
# Poissons Ratio (x) = 0.27112 0.13737
# Poissons Ratio (y) = 0.51700 0.27544
# Poissons Ratio (z) = 0.31608 0.33236
#
# Static dielectric constant tensor:
#      x y z
#    x 1.672140 0.000000 0.000000 
#    y 0.000000 1.687020 0.000000 
#    z 0.000000 0.000000 1.759280 
# 
# From -- ./inp_files/16424.got.cif
#   From: 2010.05.17/outbox.cif.g08.bks.cpg/sg69_9_cif.got.tgz:16424.got - 2010.06.03 19:29:58.
