data_PCOD9513480
_publ_section_title
;
Structure prediction by ZEFSAII (Michael W. Deem and Ramdas Pophale) SiO2 
 PCOD9513480
Probable space group: F M M M
;
_chemical_formula_sum "Si O2"
_cell_formula_units_Z 112
_cell_length_a 19.155047
_cell_length_b 19.784835
_cell_length_c 14.431756
_cell_angle_alpha 90.000000
_cell_angle_beta 90.000000
_cell_angle_gamma 90.000000
_cell_volume 5469.338869
_symmetry_space_group_name_H-M "F M M M"
_symmetry_group_IT_number 69
_symmetry_cell_setting 'orthorhombic'
loop_
_space_group_symop_operation_xyz
x,y,z
-x,-y,z
x,-y,-z
-x,y,-z
-x,-y,-z
x,y,-z
-x,y,z
x,-y,z
x,1/2+y,1/2+z
-x,1/2-y,1/2+z
x,1/2-y,1/2-z
-x,1/2+y,1/2-z
-x,1/2-y,1/2-z
x,1/2+y,1/2-z
-x,1/2+y,1/2+z
x,1/2-y,1/2+z
1/2+x,y,1/2+z
1/2-x,-y,1/2+z
1/2+x,-y,1/2-z
1/2-x,y,1/2-z
1/2-x,-y,1/2-z
1/2+x,y,1/2-z
1/2-x,y,1/2+z
1/2+x,-y,1/2+z
1/2+x,1/2+y,z
1/2-x,1/2-y,z
1/2+x,1/2-y,-z
1/2-x,1/2+y,-z
1/2-x,1/2-y,-z
1/2+x,1/2+y,-z
1/2-x,1/2+y,z
1/2+x,1/2-y,z
loop_
_atom_site_type_symbol
_atom_site_label
_atom_site_fract_x
_atom_site_fract_y
_atom_site_fract_z
Si Si1 0.835931 0.575035 0.000000
Si Si2 0.672491 0.423646 0.793589
Si Si3 0.580535 0.242809 0.500000
Si Si4 0.810665 0.377904 0.500000
Si Si5 0.581392 0.857255 0.154539
O O1 0.773573 0.629494 0.000000
O O2 0.884096 0.586385 0.088473
O O3 0.805070 0.500000 0.000000
O O4 0.647951 0.500000 0.771943
O O5 0.750000 0.416757 0.750000
O O6 0.674765 0.415622 0.903791
O O7 0.624297 0.365864 0.748577
O O8 0.500000 0.216653 0.500000
O O9 0.640833 0.187751 0.500000
O O10 0.587755 0.290063 0.591560
O O11 0.500000 0.868557 0.170728
#
# Coordination Sequence:
#
# PCOD9513480 Si02
#       5
#    16  32  16  16  32
#     4  11  20  36  63  96 131 163 210 278 327 375
#     4  11  23  41  63  95 136 173 213 267 326 388
#     4   9  23  46  67  95 136 172 218 275 321 378
#     4  12  24  40  66  96 131 180 216 255 331 397
#     4  10  22  41  66  95 126 170 220 270 326 380
#
# _framework density 20.477796000000001
#
# number of rings (size 3 to 8) (size 9 to 14) (size 15 to 20)
#    0.000    1.429    2.857    3.429    0.000    7.429 
#    0.000    4.286    0.000    4.714    0.000    0.000 
#    0.000    0.000    0.000    0.000    0.000    0.000 
#
# Total GULP energy -156295.386675 kJ/mol
# GULP energy per Si atom -5581.978096 kJ/mol
# Density = 2.043119 g / cm^3
# Si number density = 20.477796 Si / 1000 Ang^3
#
#
#
# Elastic Constant Matrix: (Units=GPa)
#
#
# Indices 1 2 3 4 5 6 
#
# 1 116.2493 60.2612 26.6131 0.0000 0.0000 0.0000
# 2 60.2612 71.6110 22.4370 0.0000 0.0000 0.0000
# 3 26.6131 22.4370 123.0127 0.0000 0.0000 0.0000
# 4 0.0000 0.0000 0.0000 12.3587 0.0000 0.0000
# 5 0.0000 0.0000 0.0000 0.0000 33.2833 0.0000
# 6 0.0000 0.0000 0.0000 0.0000 0.0000 9.0588
#
#
#
# Elastic Compliance Matrix: (Units=1/GPa)
#
#
# Indices 1 2 3 4 5 6 
#
# 1 0.015379 -0.012620 -0.001025 0.000000 0.000000 0.000000
# 2 -0.012620 0.025167 -0.001860 0.000000 0.000000 0.000000
# 3 -0.001025 -0.001860 0.008690 0.000000 0.000000 0.000000
# 4 0.000000 0.000000 0.000000 0.080915 0.000000 0.000000
# 5 0.000000 0.000000 0.000000 0.000000 0.030045 0.000000
# 6 0.000000 0.000000 0.000000 0.000000 0.000000 0.110390
#
#
# Mechanical properties :
#
#
# Convention : Reuss Voigt Hill
#
# Bulk Modulus (GPa) = 54.86889 58.83282 56.85085
# Shear Modulus (GPa) = 16.25100 24.37760 20.31430
#
# Velocity S-wave (km/s) = 2.82013 3.45402 3.15305
# Velocity P-wave (km/s) = 6.12019 6.68576 6.40922
#
# Compressibility (1/GPa) = 0.01822526
#
# Stress axis : x y z
#
# Youngs Moduli (GPa) = 65.02349 39.73414 115.07052
#
# Poissons Ratio (x) = 0.50146 0.11798
# Poissons Ratio (y) = 0.82062 0.21404
# Poissons Ratio (z) = 0.06667 0.07391
#
# Static dielectric constant tensor:
#      x y z
#    x 1.703740 0.000000 0.000000 
#    y 0.000000 1.720230 0.000000 
#    z 0.000000 0.000000 1.785710 
# 
# From -- ./inp_files/14098.got.cif
#   From: 2010.05.17/outbox.cif.g08.bks.cpg/sg69_8_cif.got.tgz:14098.got - 2010.06.03 19:29:58.
