data_PCOD9513078
_publ_section_title
;
Structure prediction by ZEFSAII (Michael W. Deem and Ramdas Pophale) SiO2 
 PCOD9513078
Probable space group: F M M M
;
_chemical_formula_sum "Si O2"
_cell_formula_units_Z 168
_cell_length_a 25.306293
_cell_length_b 32.804657
_cell_length_c 11.526261
_cell_angle_alpha 90.000000
_cell_angle_beta 90.000000
_cell_angle_gamma 90.000000
_cell_volume 9568.689954
_symmetry_space_group_name_H-M "F M M M"
_symmetry_group_IT_number 69
_symmetry_cell_setting 'orthorhombic'
loop_
_space_group_symop_operation_xyz
x,y,z
-x,-y,z
x,-y,-z
-x,y,-z
-x,-y,-z
x,y,-z
-x,y,z
x,-y,z
x,1/2+y,1/2+z
-x,1/2-y,1/2+z
x,1/2-y,1/2-z
-x,1/2+y,1/2-z
-x,1/2-y,1/2-z
x,1/2+y,1/2-z
-x,1/2+y,1/2+z
x,1/2-y,1/2+z
1/2+x,y,1/2+z
1/2-x,-y,1/2+z
1/2+x,-y,1/2-z
1/2-x,y,1/2-z
1/2-x,-y,1/2-z
1/2+x,y,1/2-z
1/2-x,y,1/2+z
1/2+x,-y,1/2+z
1/2+x,1/2+y,z
1/2-x,1/2-y,z
1/2+x,1/2-y,-z
1/2-x,1/2+y,-z
1/2-x,1/2-y,-z
1/2+x,1/2+y,-z
1/2-x,1/2+y,z
1/2+x,1/2-y,z
loop_
_atom_site_type_symbol
_atom_site_label
_atom_site_fract_x
_atom_site_fract_y
_atom_site_fract_z
Si Si1 0.335618 0.084524 0.368194
Si Si2 0.938595 0.578913 0.000000
Si Si3 0.261535 0.645116 0.373280
Si Si4 0.133721 0.500000 0.000000
Si Si5 0.882821 0.364986 0.820747
Si Si6 0.436694 0.721503 0.363665
Si Si7 0.187163 0.500000 0.755548
O O1 0.350664 0.077465 0.500000
O O2 0.277735 0.106225 0.367317
O O3 0.374449 0.116863 0.307094
O O4 0.333473 0.041604 0.302786
O O5 0.921691 0.605810 0.109747
O O6 0.903374 0.539070 0.000000
O O7 0.000000 0.569638 0.000000
O O8 0.250953 0.664868 0.500000
O O9 0.250000 0.667641 0.250000
O O10 0.322950 0.633055 0.370326
O O11 0.169508 0.500000 0.887430
O O12 0.904666 0.319781 0.837760
O O13 0.424629 0.734533 0.500000
O O14 0.500000 0.713986 0.362496
O O15 0.425942 0.750000 0.250000
O O16 0.250000 0.500000 0.750000
#
# Coordination Sequence:
#
# PCOD9513078 Si02
#       7
#    32  16  32   8  32  32  16
#     4  10  22  35  54  83 117 153 190 238 297 355
#     4  12  23  38  58  82 114 152 203 248 285 338
#     4   9  17  30  50  78 112 141 183 225 279 341
#     4  12  27  38  56  88 122 154 201 248 296 334
#     4  11  19  35  60  84 109 150 193 235 289 348
#     4  10  21  37  59  88 116 145 185 242 303 356
#     4  12  23  35  54  85 118 156 193 247 294 351
#
# _framework density 17.557262000000001
#
# number of rings (size 3 to 8) (size 9 to 14) (size 15 to 20)
#    0.000    1.524    3.810    2.714    1.333    0.762 
#    0.000    0.000    0.000    6.857    0.000   20.000 
#    0.000    0.000    0.000    0.000    0.000    0.000 
#
# Total GULP energy -233919.706362 kJ/mol
# GULP energy per Si atom -5569.516818 kJ/mol
# Density = 1.751730 g / cm^3
# Si number density = 17.557262 Si / 1000 Ang^3
#
#
#
# Elastic Constant Matrix: (Units=GPa)
#
#
# Indices 1 2 3 4 5 6 
#
# 1 69.2003 30.8064 45.6643 0.0000 -0.0001 0.0000
# 2 30.8064 84.2845 55.3508 0.0000 0.0000 0.0000
# 3 45.6643 55.3508 196.9809 0.0000 -0.0002 0.0000
# 4 0.0000 0.0000 0.0000 11.6007 0.0000 0.0000
# 5 -0.0001 0.0000 -0.0002 0.0000 20.5392 0.0000
# 6 0.0000 0.0000 0.0000 0.0000 0.0000 18.9086
#
#
#
# Elastic Compliance Matrix: (Units=1/GPa)
#
#
# Indices 1 2 3 4 5 6 
#
# 1 0.018548 -0.004851 -0.002937 0.000000 0.000000 0.000000
# 2 -0.004851 0.015818 -0.003320 0.000000 0.000000 0.000000
# 3 -0.002937 -0.003320 0.006690 0.000000 0.000000 0.000000
# 4 0.000000 0.000000 0.000000 0.086202 0.000000 0.000000
# 5 0.000000 0.000000 0.000000 0.000000 0.048687 0.000000
# 6 0.000000 0.000000 0.000000 0.000000 0.000000 0.052886
#
#
# Mechanical properties :
#
#
# Convention : Reuss Voigt Hill
#
# Bulk Modulus (GPa) = 53.07607 68.23431 60.65519
# Shear Modulus (GPa) = 19.43045 24.78598 22.10822
#
# Velocity S-wave (km/s) = 3.33030 3.76137 3.55238
# Velocity P-wave (km/s) = 6.71445 7.60342 7.17272
#
# Compressibility (1/GPa) = 0.01884088
#
# Stress axis : x y z
#
# Youngs Moduli (GPa) = 53.91346 63.21881 149.46719
#
# Poissons Ratio (x) = 0.30666 0.43896
# Poissons Ratio (y) = 0.26153 0.49627
# Poissons Ratio (z) = 0.15833 0.20990
#
# Static dielectric constant tensor:
#      x y z
#    x 1.583150 0.000000 0.000000 
#    y 0.000000 1.583040 0.000000 
#    z 0.000000 0.000000 1.673340 
# 
# From -- ./inp_files/10675.got.cif
#   From: 2010.05.17/outbox.cif.g08.bks.cpg/sg69_6_cif.got.tgz:10675.got - 2010.06.03 19:29:58.
