data_PCOD9513471
_publ_section_title
;
Structure prediction by ZEFSAII (Michael W. Deem and Ramdas Pophale) SiO2 
 PCOD9513471
Probable space group: F M M M
;
_chemical_formula_sum "Si O2"
_cell_formula_units_Z 176
_cell_length_a 26.310923
_cell_length_b 17.088208
_cell_length_c 18.219612
_cell_angle_alpha 90.000000
_cell_angle_beta 90.000000
_cell_angle_gamma 90.000000
_cell_volume 8191.656436
_symmetry_space_group_name_H-M "F M M M"
_symmetry_group_IT_number 69
_symmetry_cell_setting 'orthorhombic'
loop_
_space_group_symop_operation_xyz
x,y,z
-x,-y,z
x,-y,-z
-x,y,-z
-x,-y,-z
x,y,-z
-x,y,z
x,-y,z
x,1/2+y,1/2+z
-x,1/2-y,1/2+z
x,1/2-y,1/2-z
-x,1/2+y,1/2-z
-x,1/2-y,1/2-z
x,1/2+y,1/2-z
-x,1/2+y,1/2+z
x,1/2-y,1/2+z
1/2+x,y,1/2+z
1/2-x,-y,1/2+z
1/2+x,-y,1/2-z
1/2-x,y,1/2-z
1/2-x,-y,1/2-z
1/2+x,y,1/2-z
1/2-x,y,1/2+z
1/2+x,-y,1/2+z
1/2+x,1/2+y,z
1/2-x,1/2-y,z
1/2+x,1/2-y,-z
1/2-x,1/2+y,-z
1/2-x,1/2-y,-z
1/2+x,1/2+y,-z
1/2-x,1/2+y,z
1/2+x,1/2-y,z
loop_
_atom_site_type_symbol
_atom_site_label
_atom_site_fract_x
_atom_site_fract_y
_atom_site_fract_z
Si Si1 0.404926 0.415432 0.762685
Si Si2 0.500000 0.913559 0.914450
Si Si3 0.587177 0.698395 0.639898
Si Si4 0.205288 0.911067 0.802379
Si Si5 0.809435 0.227691 0.086810
Si Si6 0.941151 0.868652 0.083304
O O1 0.424977 0.500000 0.736470
O O2 0.420223 0.334567 0.723037
O O3 0.344650 0.416511 0.752806
O O4 0.415597 0.412671 0.849304
O O5 0.552337 0.867944 0.897236
O O6 0.500000 0.000000 0.881706
O O7 0.500000 0.920843 0.000000
O O8 0.647179 0.714087 0.620704
O O9 0.563435 0.778597 0.609268
O O10 0.250000 0.880436 0.750000
O O11 0.190185 0.853310 0.868058
O O12 0.218304 0.000000 0.826817
O O13 0.750000 0.250000 0.093207
O O14 0.820694 0.220330 0.000000
O O15 0.000000 0.891128 0.082083
O O16 0.921392 0.878891 0.000000
#
# Coordination Sequence:
#
# PCOD9513471 Si02
#       6
#    32  16  32  32  32  32
#     4  11  25  41  63  96 130 174 224 275 343 418
#     4  11  24  42  67  98 138 190 235 285 358 434
#     4  12  23  41  67  95 135 174 225 291 346 415
#     4  10  22  41  64  93 133 177 222 281 351 420
#     4  11  24  41  67 100 132 175 232 292 355 425
#     4  11  24  42  66  96 132 176 225 283 352 420
#
# _framework density 21.485277
#
# number of rings (size 3 to 8) (size 9 to 14) (size 15 to 20)
#    0.000    1.000    2.727    3.818    1.273    3.636 
#    0.000    3.636    0.000    2.182    0.000    0.000 
#    0.000    0.000    0.000    0.000    0.000    0.000 
#
# Total GULP energy -244955.811285 kJ/mol
# GULP energy per Si atom -5567.177529 kJ/mol
# Density = 2.143638 g / cm^3
# Si number density = 21.485277 Si / 1000 Ang^3
#
#
#
# Elastic Constant Matrix: (Units=GPa)
#
#
# Indices 1 2 3 4 5 6 
#
# 1 119.2219 27.9705 33.3351 0.0000 0.0000 0.0000
# 2 27.9705 131.1643 54.5971 0.0000 0.0000 0.0000
# 3 33.3351 54.5971 145.4081 0.0000 0.0000 0.0000
# 4 0.0000 0.0000 0.0000 19.5936 0.0000 0.0000
# 5 0.0000 0.0000 0.0000 0.0000 26.2670 0.0000
# 6 0.0000 0.0000 0.0000 0.0000 0.0000 -515.2660
#
#
#
# Elastic Compliance Matrix: (Units=1/GPa)
#
#
# Indices 1 2 3 4 5 6 
#
# 1 0.009139 -0.001276 -0.001616 0.000000 0.000000 0.000000
# 2 -0.001276 0.009215 -0.003167 0.000000 0.000000 0.000000
# 3 -0.001616 -0.003167 0.008437 0.000000 0.000000 0.000000
# 4 0.000000 0.000000 0.000000 0.051037 0.000000 0.000000
# 5 0.000000 0.000000 0.000000 0.000000 0.038071 0.000000
# 6 0.000000 0.000000 0.000000 0.000000 0.000000 -0.001941
#
#
# Mechanical properties :
#
#
# Convention : Reuss Voigt Hill
#
# Bulk Modulus (GPa) = 68.15911 69.73329 68.94620
# Shear Modulus (GPa) = 38.17764 -75.22165 -18.52201
#
# Velocity S-wave (km/s) = 4.21993 -5.92341 -2.93930
# Velocity P-wave (km/s) = 7.45226 3.77566 4.54316
#
# Compressibility (1/GPa) = 0.01467155
#
# Stress axis : x y z
#
# Youngs Moduli (GPa) = 109.42164 108.52406 118.52729
#
# Poissons Ratio (x) = 0.13850 0.19153
# Poissons Ratio (y) = 0.13965 0.37541
# Poissons Ratio (z) = 0.17682 0.34372
#
# Static dielectric constant tensor:
#      x y z
#    x 1.890600 0.000000 0.000000 
#    y 0.000000 1.822130 0.000000 
#    z 0.000000 0.000000 1.827610 
# 
# From -- ./inp_files/26757.got.cif
#   From: 2010.05.17/outbox.cif.g08.bks.cpg/sg69_14_cif.got.tgz:26757.got - 2010.06.03 19:29:58.
