data_PCOD9513741
_publ_section_title
;
Structure prediction by ZEFSAII (Michael W. Deem and Ramdas Pophale) SiO2 
 PCOD9513741
Probable space group: F M M M
;
_chemical_formula_sum "Si O2"
_cell_formula_units_Z 144
_cell_length_a 22.055601
_cell_length_b 17.862997
_cell_length_c 17.959060
_cell_angle_alpha 90.000000
_cell_angle_beta 90.000000
_cell_angle_gamma 90.000000
_cell_volume 7075.494915
_symmetry_space_group_name_H-M "F M M M"
_symmetry_group_IT_number 69
_symmetry_cell_setting 'orthorhombic'
loop_
_space_group_symop_operation_xyz
x,y,z
-x,-y,z
x,-y,-z
-x,y,-z
-x,-y,-z
x,y,-z
-x,y,z
x,-y,z
x,1/2+y,1/2+z
-x,1/2-y,1/2+z
x,1/2-y,1/2-z
-x,1/2+y,1/2-z
-x,1/2-y,1/2-z
x,1/2+y,1/2-z
-x,1/2+y,1/2+z
x,1/2-y,1/2+z
1/2+x,y,1/2+z
1/2-x,-y,1/2+z
1/2+x,-y,1/2-z
1/2-x,y,1/2-z
1/2-x,-y,1/2-z
1/2+x,y,1/2-z
1/2-x,y,1/2+z
1/2+x,-y,1/2+z
1/2+x,1/2+y,z
1/2-x,1/2-y,z
1/2+x,1/2-y,-z
1/2-x,1/2+y,-z
1/2-x,1/2-y,-z
1/2+x,1/2+y,-z
1/2-x,1/2+y,z
1/2+x,1/2-y,z
loop_
_atom_site_type_symbol
_atom_site_label
_atom_site_fract_x
_atom_site_fract_y
_atom_site_fract_z
Si Si1 0.649516 0.089282 0.802907
Si Si2 0.933249 0.214950 0.333822
Si Si3 0.000000 0.910988 0.915511
Si Si4 0.130734 0.644755 0.636789
Si Si5 0.743806 0.160889 0.083506
O O1 0.588507 0.130068 0.831767
O O2 0.653119 0.120895 0.718831
O O3 0.703329 0.120075 0.854658
O O4 0.647529 0.000000 0.802589
O O5 0.935698 0.250000 0.250000
O O6 0.883307 0.266938 0.371427
O O7 0.000000 0.223590 0.366483
O O8 0.936192 0.888939 0.877433
O O9 0.000000 0.000000 0.918531
O O10 0.000000 0.880657 0.000000
O O11 0.187964 0.627219 0.585821
O O12 0.750000 0.250000 0.099498
O O13 0.718659 0.152182 0.000000
#
# Coordination Sequence:
#
# PCOD9513741 Si02
#       5
#    32  32  16  32  32
#     4  11  24  39  63  97 130 163 210 268 322 380
#     4   9  18  35  60  92 123 161 206 255 304 366
#     4  11  24  40  61  98 140 168 203 262 324 381
#     4  11  21  40  67  94 126 167 214 258 311 383
#     4  11  24  42  65  91 123 169 217 264 320 380
#
# _framework density 20.351932999999999
#
# number of rings (size 3 to 8) (size 9 to 14) (size 15 to 20)
#    0.000    1.444    3.333    2.000    1.556    4.444 
#    0.000    0.000    0.000    0.000    0.000    1.556 
#    0.000    0.000    0.000    0.000    0.000    0.000 
#
# Total GULP energy -200733.765441 kJ/mol
# GULP energy per Si atom -5575.937929 kJ/mol
# Density = 2.030561 g / cm^3
# Si number density = 20.351933 Si / 1000 Ang^3
#
#
#
# Elastic Constant Matrix: (Units=GPa)
#
#
# Indices 1 2 3 4 5 6 
#
# 1 132.6084 28.7534 51.4301 0.0000 0.0000 0.0000
# 2 28.7534 115.2158 32.3646 0.0000 0.0000 0.0000
# 3 51.4301 32.3646 94.5728 0.0000 0.0000 0.0000
# 4 0.0000 0.0000 0.0000 17.7731 0.0000 0.0000
# 5 0.0000 0.0000 0.0000 0.0000 13.8222 0.0000
# 6 0.0000 0.0000 0.0000 0.0000 0.0000 24.0794
#
#
#
# Elastic Compliance Matrix: (Units=1/GPa)
#
#
# Indices 1 2 3 4 5 6 
#
# 1 0.009667 -0.001035 -0.004903 0.000000 0.000000 0.000000
# 2 -0.001035 0.009713 -0.002761 0.000000 0.000000 0.000000
# 3 -0.004903 -0.002761 0.014185 0.000000 0.000000 0.000000
# 4 0.000000 0.000000 0.000000 0.056265 0.000000 0.000000
# 5 0.000000 0.000000 0.000000 0.000000 0.072347 0.000000
# 6 0.000000 0.000000 0.000000 0.000000 0.000000 0.041529
#
#
# Mechanical properties :
#
#
# Convention : Reuss Voigt Hill
#
# Bulk Modulus (GPa) = 61.85439 63.05481 62.45460
# Shear Modulus (GPa) = 22.07567 26.45820 24.26693
#
# Velocity S-wave (km/s) = 3.29705 3.60951 3.45681
# Velocity P-wave (km/s) = 6.70465 6.95851 6.83276
#
# Compressibility (1/GPa) = 0.01616700
#
# Stress axis : x y z
#
# Youngs Moduli (GPa) = 103.44542 102.95122 70.49730
#
# Poissons Ratio (x) = 0.10659 0.34563
# Poissons Ratio (y) = 0.10710 0.19465
# Poissons Ratio (z) = 0.50716 0.28426
#
# Static dielectric constant tensor:
#      x y z
#    x 1.757140 0.000000 0.000000 
#    y 0.000000 1.738240 0.000000 
#    z 0.000000 0.000000 1.746480 
# 
# From -- ./inp_files/31675.got.cif
#   From: 2010.05.17/outbox.cif.g08.bks.cpg/sg69_16_cif.got.tgz:31675.got - 2010.06.03 19:29:58.
