data_PCOD9513270
_publ_section_title
;
Structure prediction by ZEFSAII (Michael W. Deem and Ramdas Pophale) SiO2 
 PCOD9513270
Probable space group: F M M M
;
_chemical_formula_sum "Si O2"
_cell_formula_units_Z 168
_cell_length_a 14.962154
_cell_length_b 19.736987
_cell_length_c 27.674246
_cell_angle_alpha 90.000000
_cell_angle_beta 90.000000
_cell_angle_gamma 90.000000
_cell_volume 8172.421782
_symmetry_space_group_name_H-M "F M M M"
_symmetry_group_IT_number 69
_symmetry_cell_setting 'orthorhombic'
loop_
_space_group_symop_operation_xyz
x,y,z
-x,-y,z
x,-y,-z
-x,y,-z
-x,-y,-z
x,y,-z
-x,y,z
x,-y,z
x,1/2+y,1/2+z
-x,1/2-y,1/2+z
x,1/2-y,1/2-z
-x,1/2+y,1/2-z
-x,1/2-y,1/2-z
x,1/2+y,1/2-z
-x,1/2+y,1/2+z
x,1/2-y,1/2+z
1/2+x,y,1/2+z
1/2-x,-y,1/2+z
1/2+x,-y,1/2-z
1/2-x,y,1/2-z
1/2-x,-y,1/2-z
1/2+x,y,1/2-z
1/2-x,y,1/2+z
1/2+x,-y,1/2+z
1/2+x,1/2+y,z
1/2-x,1/2-y,z
1/2+x,1/2-y,-z
1/2-x,1/2+y,-z
1/2-x,1/2-y,-z
1/2+x,1/2+y,-z
1/2-x,1/2+y,z
1/2+x,1/2-y,z
loop_
_atom_site_type_symbol
_atom_site_label
_atom_site_fract_x
_atom_site_fract_y
_atom_site_fract_z
Si Si1 0.348519 0.604709 0.757311
Si Si2 0.602100 0.422335 0.603030
Si Si3 0.894224 0.199057 0.678690
Si Si4 0.788632 0.420697 0.444651
Si Si5 0.000000 0.000000 0.729394
Si Si6 0.606928 0.156270 0.638671
O O1 0.250000 0.577160 0.750000
O O2 0.351695 0.676177 0.728929
O O3 0.422879 0.558559 0.733288
O O4 0.372149 0.612844 0.813426
O O5 0.500000 0.413829 0.584752
O O6 0.605796 0.500000 0.622863
O O7 0.617996 0.364474 0.642570
O O8 0.682079 0.416184 0.565010
O O9 0.863411 0.267671 0.652865
O O10 0.000000 0.208431 0.687464
O O11 0.808655 0.402871 0.500000
O O12 0.812870 0.500000 0.436922
O O13 0.840610 0.374615 0.406457
O O14 0.500000 0.155815 0.629928
#
# Coordination Sequence:
#
# PCOD9513270 Si02
#       6
#    32  32  32  32   8  32
#     4  12  25  40  66  96 132 177 219 261 318 384
#     4   9  19  36  62  92 125 164 207 264 329 392
#     4  10  21  40  63  93 131 169 211 260 324 392
#     4  10  23  42  64  93 126 165 219 276 328 385
#     4  12  26  44  58  98 141 172 217 266 316 376
#     4  11  24  43  65  90 129 173 216 268 327 387
#
# _framework density 20.556943
#
# number of rings (size 3 to 8) (size 9 to 14) (size 15 to 20)
#    0.000    1.524    1.905    2.000    2.667    6.476 
#    0.000    4.762    0.000    3.429    0.000    0.000 
#    0.000    0.000    0.000    0.000    0.000    0.000 
#
# Total GULP energy -234240.008843 kJ/mol
# GULP energy per Si atom -5577.143068 kJ/mol
# Density = 2.051015 g / cm^3
# Si number density = 20.556943 Si / 1000 Ang^3
#
#
#
# Elastic Constant Matrix: (Units=GPa)
#
#
# Indices 1 2 3 4 5 6 
#
# 1 123.1022 45.1405 48.9817 0.0000 0.0000 0.0000
# 2 45.1405 102.3089 60.8303 0.0000 0.0000 0.0000
# 3 48.9817 60.8303 131.3944 0.0000 0.0000 0.0000
# 4 0.0000 0.0000 0.0000 39.0319 0.0000 0.0000
# 5 0.0000 0.0000 0.0000 0.0000 1.1369 0.0000
# 6 0.0000 0.0000 0.0000 0.0000 0.0000 27.3739
#
#
#
# Elastic Compliance Matrix: (Units=1/GPa)
#
#
# Indices 1 2 3 4 5 6 
#
# 1 0.010200 -0.003090 -0.002372 0.000000 0.000000 0.000000
# 2 -0.003090 0.014423 -0.005525 0.000000 0.000000 0.000000
# 3 -0.002372 -0.005525 0.011053 0.000000 0.000000 0.000000
# 4 0.000000 0.000000 0.000000 0.025620 0.000000 0.000000
# 5 0.000000 0.000000 0.000000 0.000000 0.879618 0.000000
# 6 0.000000 0.000000 0.000000 0.000000 0.000000 0.036531
#
#
# Mechanical properties :
#
#
# Convention : Reuss Voigt Hill
#
# Bulk Modulus (GPa) = 72.98561 74.07896 73.53228
# Shear Modulus (GPa) = 4.98014 26.96541 15.97277
#
# Velocity S-wave (km/s) = 1.55816 3.62573 2.79050
# Velocity P-wave (km/s) = 6.23044 7.32407 6.79928
#
# Compressibility (1/GPa) = 0.01370133
#
# Stress axis : x y z
#
# Youngs Moduli (GPa) = 98.03677 69.33376 90.47481
#
# Poissons Ratio (x) = 0.21426 0.21459
# Poissons Ratio (y) = 0.30297 0.49989
# Poissons Ratio (z) = 0.23252 0.38309
#
# Static dielectric constant tensor:
#      x y z
#    x 1.747850 0.000000 0.000000 
#    y 0.000000 1.776570 0.000000 
#    z 0.000000 0.000000 1.711190 
# 
# From -- ./inp_files/40998.got.cif
#   From: 2010.05.17/outbox.cif.g08.bks.cpg/sg69_21_cif.got.tgz:40998.got - 2010.06.03 19:29:58.
