data_PCOD9513539
_publ_section_title
;
Structure prediction by ZEFSAII (Michael W. Deem and Ramdas Pophale) SiO2 
 PCOD9513539
Probable space group: F M M M
;
_chemical_formula_sum "Si O2"
_cell_formula_units_Z 160
_cell_length_a 13.900268
_cell_length_b 21.836219
_cell_length_c 24.474253
_cell_angle_alpha 90.000000
_cell_angle_beta 90.000000
_cell_angle_gamma 90.000000
_cell_volume 7428.652788
_symmetry_space_group_name_H-M "F M M M"
_symmetry_group_IT_number 69
_symmetry_cell_setting 'orthorhombic'
loop_
_space_group_symop_operation_xyz
x,y,z
-x,-y,z
x,-y,-z
-x,y,-z
-x,-y,-z
x,y,-z
-x,y,z
x,-y,z
x,1/2+y,1/2+z
-x,1/2-y,1/2+z
x,1/2-y,1/2-z
-x,1/2+y,1/2-z
-x,1/2-y,1/2-z
x,1/2+y,1/2-z
-x,1/2+y,1/2+z
x,1/2-y,1/2+z
1/2+x,y,1/2+z
1/2-x,-y,1/2+z
1/2+x,-y,1/2-z
1/2-x,y,1/2-z
1/2-x,-y,1/2-z
1/2+x,y,1/2-z
1/2-x,y,1/2+z
1/2+x,-y,1/2+z
1/2+x,1/2+y,z
1/2-x,1/2-y,z
1/2+x,1/2-y,-z
1/2-x,1/2+y,-z
1/2-x,1/2-y,-z
1/2+x,1/2+y,-z
1/2-x,1/2+y,z
1/2+x,1/2-y,z
loop_
_atom_site_type_symbol
_atom_site_label
_atom_site_fract_x
_atom_site_fract_y
_atom_site_fract_z
Si Si1 0.687648 0.434671 0.328520
Si Si2 0.789997 0.311370 0.562041
Si Si3 0.893121 0.600511 0.940180
Si Si4 0.609100 0.680337 0.739622
Si Si5 0.394285 0.109096 0.353265
O O1 0.668151 0.500000 0.299102
O O2 0.625880 0.434775 0.384173
O O3 0.663882 0.371201 0.296684
O O4 0.799853 0.432123 0.345235
O O5 0.822577 0.297895 0.500000
O O6 0.750000 0.250000 0.589637
O O7 0.694676 0.352519 0.559174
O O8 0.869695 0.346800 0.596005
O O9 0.000000 0.628358 0.936886
O O10 0.888902 0.568941 0.000000
O O11 0.500000 0.685571 0.716787
O O12 0.644302 0.750000 0.750000
O O13 0.603418 0.650174 0.799083
O O14 0.500000 0.080232 0.359618
#
# Coordination Sequence:
#
# PCOD9513539 Si02
#       5
#    32  32  32  32  32
#     4  11  24  41  63  90 125 170 218 270 322 381
#     4   9  19  35  57  87 122 162 206 256 317 384
#     4   9  19  36  59  89 123 159 202 258 324 387
#     4  10  23  41  63  92 125 164 207 258 324 390
#     4  10  23  39  58  87 121 162 210 261 315 379
#
# _framework density 21.538226999999999
#
# number of rings (size 3 to 8) (size 9 to 14) (size 15 to 20)
#    0.000    2.200    0.000    1.200    5.600    6.000 
#    0.000    5.000    0.000    0.000    0.000    5.600 
#    0.000    0.000    0.000    0.000    0.000    0.000 
#
# Total GULP energy -222785.916436 kJ/mol
# GULP energy per Si atom -5569.647911 kJ/mol
# Density = 2.148920 g / cm^3
# Si number density = 21.538227 Si / 1000 Ang^3
#
#
#
# Elastic Constant Matrix: (Units=GPa)
#
#
# Indices 1 2 3 4 5 6 
#
# 1 137.9595 22.5838 29.3061 0.0000 0.0000 0.0000
# 2 22.5838 123.9670 32.1634 0.0000 0.0000 0.0000
# 3 29.3061 32.1634 96.3739 0.0000 0.0000 0.0000
# 4 0.0000 0.0000 0.0000 -31.3177 0.0000 0.0000
# 5 0.0000 0.0000 0.0000 0.0000 26.8361 0.0000
# 6 0.0000 0.0000 0.0000 0.0000 0.0000 -14.0758
#
#
#
# Elastic Compliance Matrix: (Units=1/GPa)
#
#
# Indices 1 2 3 4 5 6 
#
# 1 0.007837 -0.000886 -0.002087 0.000000 0.000000 0.000000
# 2 -0.000886 0.008932 -0.002711 0.000000 0.000000 0.000000
# 3 -0.002087 -0.002711 0.011916 0.000000 0.000000 0.000000
# 4 0.000000 0.000000 0.000000 -0.031931 0.000000 0.000000
# 5 0.000000 0.000000 0.000000 0.000000 0.037263 0.000000
# 6 0.000000 0.000000 0.000000 0.000000 0.000000 -0.071044
#
#
# Mechanical properties :
#
#
# Convention : Reuss Voigt Hill
#
# Bulk Modulus (GPa) = 57.75435 58.48967 58.12201
# Shear Modulus (GPa) = -251.43651 14.57167 -118.43242
#
# Velocity S-wave (km/s) = -10.81633 2.60388 -7.42337
# Velocity P-wave (km/s) = 11.36300 6.02125 6.81404
#
# Compressibility (1/GPa) = 0.01731471
#
# Stress axis : x y z
#
# Youngs Moduli (GPa) = 127.60021 111.96267 83.92174
#
# Poissons Ratio (x) = 0.09921 0.17518
# Poissons Ratio (y) = 0.11307 0.22754
# Poissons Ratio (z) = 0.26635 0.30357
#
# Static dielectric constant tensor:
#      x y z
#    x 1.807950 0.000000 0.000000 
#    y 0.000000 1.838170 0.000000 
#    z 0.000000 0.000000 1.809210 
# 
# From -- ./inp_files/35821.got.cif
#   From: 2010.05.17/outbox.cif.g08.bks.cpg/sg69_18_cif.got.tgz:35821.got - 2010.06.03 19:29:58.
