data_PCOD9513527
_publ_section_title
;
Structure prediction by ZEFSAII (Michael W. Deem and Ramdas Pophale) SiO2 
 PCOD9513527
Probable space group: F M M M
;
_chemical_formula_sum "Si O2"
_cell_formula_units_Z 72
_cell_length_a 23.427649
_cell_length_b 14.430315
_cell_length_c 10.953929
_cell_angle_alpha 90.000000
_cell_angle_beta 90.000000
_cell_angle_gamma 90.000000
_cell_volume 3703.176755
_symmetry_space_group_name_H-M "F M M M"
_symmetry_group_IT_number 69
_symmetry_cell_setting 'orthorhombic'
loop_
_space_group_symop_operation_xyz
x,y,z
-x,-y,z
x,-y,-z
-x,y,-z
-x,-y,-z
x,y,-z
-x,y,z
x,-y,z
x,1/2+y,1/2+z
-x,1/2-y,1/2+z
x,1/2-y,1/2-z
-x,1/2+y,1/2-z
-x,1/2-y,1/2-z
x,1/2+y,1/2-z
-x,1/2+y,1/2+z
x,1/2-y,1/2+z
1/2+x,y,1/2+z
1/2-x,-y,1/2+z
1/2+x,-y,1/2-z
1/2-x,y,1/2-z
1/2-x,-y,1/2-z
1/2+x,y,1/2-z
1/2-x,y,1/2+z
1/2+x,-y,1/2+z
1/2+x,1/2+y,z
1/2-x,1/2-y,z
1/2+x,1/2-y,-z
1/2-x,1/2+y,-z
1/2-x,1/2-y,-z
1/2+x,1/2+y,-z
1/2-x,1/2+y,z
1/2+x,1/2-y,z
loop_
_atom_site_type_symbol
_atom_site_label
_atom_site_fract_x
_atom_site_fract_y
_atom_site_fract_z
Si Si1 0.338073 0.302299 0.365205
Si Si2 0.882419 0.000000 0.000000
Si Si3 0.067002 0.795625 0.000000
Si Si4 0.681348 0.000000 0.241955
O O1 0.310507 0.292386 0.500000
O O2 0.311587 0.250000 0.250000
O O3 0.399565 0.253885 0.388479
O O4 0.339473 0.409038 0.328903
O O5 0.918453 0.095111 0.000000
O O6 0.843944 0.000000 0.878396
O O7 0.000000 0.780385 0.000000
O O8 0.750000 0.000000 0.250000
#
# Coordination Sequence:
#
# PCOD9513527 Si02
#       4
#    32   8  16  16
#     4  10  22  44  65  97 136 164 231 268 318 409
#     4  12  23  44  62 106 132 168 237 272 312 428
#     4  10  23  44  70  94 134 177 213 278 343 379
#     4  12  25  43  67  95 137 180 215 277 336 380
#
# _framework density 19.442767
#
# number of rings (size 3 to 8) (size 9 to 14) (size 15 to 20)
#    1.333    0.000    4.444    1.000    3.111    1.778 
#    0.000    6.667    0.000    0.000    0.000    0.000 
#    0.000    0.000    0.000    0.000    0.000    0.000 
#
# Total GULP energy -100283.699047 kJ/mol
# GULP energy per Si atom -5571.316614 kJ/mol
# Density = 1.939851 g / cm^3
# Si number density = 19.442767 Si / 1000 Ang^3
#
#
#
# Elastic Constant Matrix: (Units=GPa)
#
#
# Indices 1 2 3 4 5 6 
#
# 1 140.7318 67.2276 36.8628 0.0000 0.0000 0.0000
# 2 67.2276 196.3975 59.8932 0.0000 0.0000 0.0000
# 3 36.8628 59.8932 196.7557 0.0000 0.0000 0.0000
# 4 0.0000 0.0000 0.0000 43.7427 0.0000 0.0000
# 5 0.0000 0.0000 0.0000 0.0000 -284.3156 0.0000
# 6 0.0000 0.0000 0.0000 0.0000 0.0000 31.0823
#
#
#
# Elastic Compliance Matrix: (Units=1/GPa)
#
#
# Indices 1 2 3 4 5 6 
#
# 1 0.008604 -0.002705 -0.000789 0.000000 0.000000 0.000000
# 2 -0.002705 0.006463 -0.001461 0.000000 0.000000 0.000000
# 3 -0.000789 -0.001461 0.005675 0.000000 0.000000 0.000000
# 4 0.000000 0.000000 0.000000 0.022861 0.000000 0.000000
# 5 0.000000 0.000000 0.000000 0.000000 -0.003517 0.000000
# 6 0.000000 0.000000 0.000000 0.000000 0.000000 0.032173
#
#
# Mechanical properties :
#
#
# Convention : Reuss Voigt Hill
#
# Bulk Modulus (GPa) = 92.30210 95.76138 94.03174
# Shear Modulus (GPa) = 58.28989 -17.23804 20.52593
#
# Velocity S-wave (km/s) = 5.48136 -2.98082 3.25269
# Velocity P-wave (km/s) = 9.36148 6.12477 7.91044
#
# Compressibility (1/GPa) = 0.01083399
#
# Stress axis : x y z
#
# Youngs Moduli (GPa) = 116.21982 154.72686 176.21681
#
# Poissons Ratio (x) = 0.41850 0.13898
# Poissons Ratio (y) = 0.31435 0.25738
# Poissons Ratio (z) = 0.09166 0.22600
#
# Static dielectric constant tensor:
#      x y z
#    x 1.631220 0.000000 0.000000 
#    y 0.000000 1.679800 0.000000 
#    z 0.000000 0.000000 1.746950 
# 
# From -- ./inp_files/8735.got.cif
#   From: 2010.05.17/outbox.cif.g08.bks.cpg/sg69_5_cif.got.tgz:8735.got - 2010.06.03 19:29:58.
