data_PCOD9513391
_publ_section_title
;
Structure prediction by ZEFSAII (Michael W. Deem and Ramdas Pophale) SiO2 
 PCOD9513391
Probable space group: F M M M
;
_chemical_formula_sum "Si O2"
_cell_formula_units_Z 208
_cell_length_a 29.899590
_cell_length_b 17.179657
_cell_length_c 21.074921
_cell_angle_alpha 90.000000
_cell_angle_beta 90.000000
_cell_angle_gamma 90.000000
_cell_volume 10825.442986
_symmetry_space_group_name_H-M "F M M M"
_symmetry_group_IT_number 69
_symmetry_cell_setting 'orthorhombic'
loop_
_space_group_symop_operation_xyz
x,y,z
-x,-y,z
x,-y,-z
-x,y,-z
-x,-y,-z
x,y,-z
-x,y,z
x,-y,z
x,1/2+y,1/2+z
-x,1/2-y,1/2+z
x,1/2-y,1/2-z
-x,1/2+y,1/2-z
-x,1/2-y,1/2-z
x,1/2+y,1/2-z
-x,1/2+y,1/2+z
x,1/2-y,1/2+z
1/2+x,y,1/2+z
1/2-x,-y,1/2+z
1/2+x,-y,1/2-z
1/2-x,y,1/2-z
1/2-x,-y,1/2-z
1/2+x,y,1/2-z
1/2-x,y,1/2+z
1/2+x,-y,1/2+z
1/2+x,1/2+y,z
1/2-x,1/2-y,z
1/2+x,1/2-y,-z
1/2-x,1/2+y,-z
1/2-x,1/2-y,-z
1/2+x,1/2+y,-z
1/2-x,1/2+y,z
1/2+x,1/2-y,z
loop_
_atom_site_type_symbol
_atom_site_label
_atom_site_fract_x
_atom_site_fract_y
_atom_site_fract_z
Si Si1 0.500000 0.913430 0.923388
Si Si2 0.948117 0.317717 0.696387
Si Si3 0.362625 0.090818 0.253987
Si Si4 0.794329 0.198220 0.174493
Si Si5 0.569014 0.216901 0.072042
Si Si6 0.251972 0.090717 0.925424
Si Si7 0.654968 0.842935 0.877147
O O1 0.541399 0.859193 0.906900
O O2 0.500000 0.000000 0.896345
O O3 0.500000 0.920076 0.000000
O O4 0.944696 0.250000 0.750000
O O5 0.907850 0.376778 0.713199
O O6 0.939410 0.280719 0.626538
O O7 0.000000 0.346519 0.698676
O O8 0.318904 0.140865 0.276132
O O9 0.365697 0.104606 0.178497
O O10 0.356139 0.000000 0.268163
O O11 0.750000 0.250000 0.188781
O O12 0.780310 0.144762 0.115510
O O13 0.829967 0.262976 0.156137
O O14 0.619249 0.185852 0.072599
O O15 0.556080 0.240006 0.000000
O O16 0.302238 0.115298 0.906826
O O17 0.245256 0.000000 0.910347
O O18 0.245175 0.102588 0.000000
#
# Coordination Sequence:
#
# PCOD9513391 Si02
#       7
#    16  32  32  32  32  32  32
#     4   9  20  36  55  88 129 161 197 252 313 377
#     4  11  22  42  66  92 127 168 217 271 321 385
#     4  12  24  41  63  93 131 169 216 273 336 390
#     4  10  22  39  63  86 120 163 215 261 312 383
#     4  11  21  37  63  91 122 164 212 258 314 385
#     4  10  22  39  58  88 128 166 209 263 321 380
#     4  11  22  39  60  88 122 162 213 257 316 379
#
# _framework density 19.213995000000001
#
# number of rings (size 3 to 8) (size 9 to 14) (size 15 to 20)
#    0.000    1.308    3.846    1.846    0.000    9.231 
#    0.000    5.385    0.000    0.462    0.000    1.077 
#    0.000    0.000    0.000    0.000    0.000    0.000 
#
# Total GULP energy -290119.372596 kJ/mol
# GULP energy per Si atom -5579.218704 kJ/mol
# Density = 1.917026 g / cm^3
# Si number density = 19.213995 Si / 1000 Ang^3
#
#
#
# Elastic Constant Matrix: (Units=GPa)
#
#
# Indices 1 2 3 4 5 6 
#
# 1 76.3022 37.8784 19.8237 0.0000 0.0000 0.0000
# 2 37.8784 105.5001 44.6711 0.0000 0.0000 0.0000
# 3 19.8237 44.6711 92.7069 0.0000 0.0000 0.0000
# 4 0.0000 0.0000 0.0000 22.9674 0.0000 0.0000
# 5 0.0000 0.0000 0.0000 0.0000 18.6399 0.0000
# 6 0.0000 0.0000 0.0000 0.0000 0.0000 24.0365
#
#
#
# Elastic Compliance Matrix: (Units=1/GPa)
#
#
# Indices 1 2 3 4 5 6 
#
# 1 0.015998 -0.005396 -0.000821 0.000000 0.000000 0.000000
# 2 -0.005396 0.013729 -0.005461 0.000000 0.000000 0.000000
# 3 -0.000821 -0.005461 0.013594 0.000000 0.000000 0.000000
# 4 0.000000 0.000000 0.000000 0.043540 0.000000 0.000000
# 5 0.000000 0.000000 0.000000 0.000000 0.053648 0.000000
# 6 0.000000 0.000000 0.000000 0.000000 0.000000 0.041603
#
#
# Mechanical properties :
#
#
# Convention : Reuss Voigt Hill
#
# Bulk Modulus (GPa) = 50.09092 53.25062 51.67077
# Shear Modulus (GPa) = 23.57124 24.60449 24.08786
#
# Velocity S-wave (km/s) = 3.50633 3.58236 3.54455
# Velocity P-wave (km/s) = 6.52067 6.69968 6.61078
#
# Compressibility (1/GPa) = 0.01996370
#
# Stress axis : x y z
#
# Youngs Moduli (GPa) = 62.50833 72.84090 73.56370
#
# Poissons Ratio (x) = 0.39308 0.06037
# Poissons Ratio (y) = 0.33732 0.40175
# Poissons Ratio (z) = 0.05130 0.39780
#
# Static dielectric constant tensor:
#      x y z
#    x 1.706160 0.000000 0.000000 
#    y 0.000000 1.641400 0.000000 
#    z 0.000000 0.000000 1.676460 
# 
# From -- ./inp_files/34009.got.cif
#   From: 2010.05.17/outbox.cif.g08.bks.cpg/sg69_18_cif.got.tgz:34009.got - 2010.06.03 19:29:58.
