data_PCOD9513013
_publ_section_title
;
Structure prediction by ZEFSAII (Michael W. Deem and Ramdas Pophale) SiO2 
 PCOD9513013
Probable space group: F M M M
;
_chemical_formula_sum "Si O2"
_cell_formula_units_Z 112
_cell_length_a 13.815109
_cell_length_b 17.664133
_cell_length_c 22.964308
_cell_angle_alpha 90.000000
_cell_angle_beta 90.000000
_cell_angle_gamma 90.000000
_cell_volume 5604.024237
_symmetry_space_group_name_H-M "F M M M"
_symmetry_group_IT_number 69
_symmetry_cell_setting 'orthorhombic'
loop_
_space_group_symop_operation_xyz
x,y,z
-x,-y,z
x,-y,-z
-x,y,-z
-x,-y,-z
x,y,-z
-x,y,z
x,-y,z
x,1/2+y,1/2+z
-x,1/2-y,1/2+z
x,1/2-y,1/2-z
-x,1/2+y,1/2-z
-x,1/2-y,1/2-z
x,1/2+y,1/2-z
-x,1/2+y,1/2+z
x,1/2-y,1/2+z
1/2+x,y,1/2+z
1/2-x,-y,1/2+z
1/2+x,-y,1/2-z
1/2-x,y,1/2-z
1/2-x,-y,1/2-z
1/2+x,y,1/2-z
1/2-x,y,1/2+z
1/2+x,-y,1/2+z
1/2+x,1/2+y,z
1/2-x,1/2-y,z
1/2+x,1/2-y,-z
1/2-x,1/2+y,-z
1/2-x,1/2-y,-z
1/2+x,1/2+y,-z
1/2-x,1/2+y,z
1/2+x,1/2-y,z
loop_
_atom_site_type_symbol
_atom_site_label
_atom_site_fract_x
_atom_site_fract_y
_atom_site_fract_z
Si Si1 0.635451 0.417053 0.259287
Si Si2 0.323343 0.852807 0.876096
Si Si3 0.891245 0.182655 0.847546
Si Si4 0.615577 0.413135 0.500000
O O1 0.600517 0.500000 0.240653
O O2 0.750000 0.416791 0.250000
O O3 0.624820 0.405511 0.328157
O O4 0.601995 0.348176 0.218726
O O5 0.205862 0.858677 0.871600
O O6 0.360571 0.769739 0.856535
O O7 0.351296 0.871630 0.941500
O O8 0.000000 0.170682 0.872679
O O9 0.651257 0.500000 0.500000
O O10 0.500000 0.414479 0.500000
#
# Coordination Sequence:
#
# PCOD9513013 Si02
#       4
#    32  32  32  16
#     4   9  18  34  56  83 117 153 187 231 288 342
#     4  10  21  39  60  83 118 156 191 240 289 334
#     4  10  21  36  58  87 116 151 194 236 288 351
#     4  11  24  41  63  89 114 148 195 238 279 335
#
# _framework density 19.985638000000002
#
# number of rings (size 3 to 8) (size 9 to 14) (size 15 to 20)
#    0.000    2.143    0.000    2.571    0.000   10.857 
#    0.000    2.143    0.000    0.857    0.000    0.000 
#    0.000    0.000    0.000    0.000    0.000    0.000 
#
# Total GULP energy -155912.274736 kJ/mol
# GULP energy per Si atom -5568.295526 kJ/mol
# Density = 1.994015 g / cm^3
# Si number density = 19.985638 Si / 1000 Ang^3
#
#
#
# Elastic Constant Matrix: (Units=GPa)
#
#
# Indices 1 2 3 4 5 6 
#
# 1 154.0459 21.8382 34.2152 0.0000 0.0000 0.0000
# 2 21.8382 101.7238 62.6259 0.0000 0.0000 0.0000
# 3 34.2152 62.6259 160.6835 0.0000 0.0000 0.0000
# 4 0.0000 0.0000 0.0000 -0.0674 0.0000 0.0000
# 5 0.0000 0.0000 0.0000 0.0000 7.0626 0.0000
# 6 0.0000 0.0000 0.0000 0.0000 0.0000 -13.4076
#
#
#
# Elastic Compliance Matrix: (Units=1/GPa)
#
#
# Indices 1 2 3 4 5 6 
#
# 1 0.006858 -0.000754 -0.001166 0.000000 0.000000 0.000000
# 2 -0.000754 0.013017 -0.004913 0.000000 0.000000 0.000000
# 3 -0.001166 -0.004913 0.008386 0.000000 0.000000 0.000000
# 4 0.000000 0.000000 0.000000-14.830909 0.000000 0.000000
# 5 0.000000 0.000000 0.000000 0.000000 0.141592 0.000000
# 6 0.000000 0.000000 0.000000 0.000000 0.000000 -0.074584
#
#
# Mechanical properties :
#
#
# Convention : Reuss Voigt Hill
#
# Bulk Modulus (GPa) = 68.51842 72.64574 70.58208
# Shear Modulus (GPa) = -0.33974 18.56909 9.11467
#
# Velocity S-wave (km/s) = -0.41275 3.05146 2.13788
# Velocity P-wave (km/s) = 5.84218 6.98878 6.44105
#
# Compressibility (1/GPa) = 0.01459462
#
# Stress axis : x y z
#
# Youngs Moduli (GPa) = 145.82511 76.82290 119.23956
#
# Poissons Ratio (x) = 0.05794 0.13907
# Poissons Ratio (y) = 0.10998 0.58579
# Poissons Ratio (z) = 0.17007 0.37741
#
# Static dielectric constant tensor:
#      x y z
#    x 1.755810 0.000000 0.000000 
#    y 0.000000 1.730940 0.000000 
#    z 0.000000 0.000000 1.670210 
# 
# From -- ./inp_files/25410.got.cif
#   From: 2010.05.17/outbox.cif.g08.bks.cpg/sg69_13_cif.got.tgz:25410.got - 2010.06.03 19:29:58.
