data_PCOD9513936
_publ_section_title
;
Structure prediction by ZEFSAII (Michael W. Deem and Ramdas Pophale) SiO2 
 PCOD9513936
Probable space group: F M M M
;
_chemical_formula_sum "Si O2"
_cell_formula_units_Z 208
_cell_length_a 24.960289
_cell_length_b 14.545139
_cell_length_c 29.526903
_cell_angle_alpha 90.000000
_cell_angle_beta 90.000000
_cell_angle_gamma 90.000000
_cell_volume 10719.767911
_symmetry_space_group_name_H-M "F M M M"
_symmetry_group_IT_number 69
_symmetry_cell_setting 'orthorhombic'
loop_
_space_group_symop_operation_xyz
x,y,z
-x,-y,z
x,-y,-z
-x,y,-z
-x,-y,-z
x,y,-z
-x,y,z
x,-y,z
x,1/2+y,1/2+z
-x,1/2-y,1/2+z
x,1/2-y,1/2-z
-x,1/2+y,1/2-z
-x,1/2-y,1/2-z
x,1/2+y,1/2-z
-x,1/2+y,1/2+z
x,1/2-y,1/2+z
1/2+x,y,1/2+z
1/2-x,-y,1/2+z
1/2+x,-y,1/2-z
1/2-x,y,1/2-z
1/2-x,-y,1/2-z
1/2+x,y,1/2-z
1/2-x,y,1/2+z
1/2+x,-y,1/2+z
1/2+x,1/2+y,z
1/2-x,1/2-y,z
1/2+x,1/2-y,-z
1/2-x,1/2+y,-z
1/2-x,1/2-y,-z
1/2+x,1/2+y,-z
1/2-x,1/2+y,z
1/2+x,1/2-y,z
loop_
_atom_site_type_symbol
_atom_site_label
_atom_site_fract_x
_atom_site_fract_y
_atom_site_fract_z
Si Si1 0.061712 0.612102 0.500000
Si Si2 0.639045 0.112417 0.051680
Si Si3 0.939028 0.146297 0.732683
Si Si4 0.939268 0.894695 0.828504
Si Si5 0.438129 0.888527 0.867732
Si Si6 0.371341 0.387270 0.088968
Si Si7 0.260811 0.388255 0.051958
O O1 0.060544 0.500000 0.500000
O O2 0.093898 0.639129 0.545033
O O3 0.000000 0.643681 0.500000
O O4 0.598015 0.142928 0.090292
O O5 0.700216 0.140634 0.062360
O O6 0.638178 0.000000 0.051449
O O7 0.626157 0.141105 0.000000
O O8 0.941150 0.250000 0.750000
O O9 0.915510 0.101690 0.777886
O O10 0.916625 0.138242 0.682309
O O11 0.000000 0.109499 0.728377
O O12 0.900749 0.852469 0.865933
O O13 0.000000 0.854222 0.827377
O O14 0.946013 0.000000 0.842778
O O15 0.500000 0.857222 0.872257
O O16 0.438567 0.000000 0.868465
O O17 0.369771 0.500000 0.089543
O O18 0.309997 0.357274 0.082760
O O19 0.260281 0.500000 0.052801
O O20 0.272770 0.361691 0.000000
#
# Coordination Sequence:
#
# PCOD9513936 Si02
#       7
#    16  32  32  32  32  32  32
#     4   9  14  18  26  46  78 110 136 163 200 244
#     4   8  14  23  37  60  88 113 135 164 205 253
#     4   9  17  29  44  61  80 108 143 173 202 247
#     4   9  16  25  38  59  85 108 133 170 212 246
#     4   9  16  26  42  65  90 111 132 166 213 256
#     4   9  14  20  32  52  79 110 139 167 199 237
#     4   8  12  20  33  51  79 112 142 168 197 237
#
# _framework density 19.403404999999999
#
# number of rings (size 3 to 8) (size 9 to 14) (size 15 to 20)
#    0.000    3.308    0.769    1.846    0.000    4.000 
#    0.000    1.538    0.000    0.923    2.000    7.538 
#    0.000    2.462    0.000    0.000    0.000    0.000 
#
# Total GULP energy -289682.458556 kJ/mol
# GULP energy per Si atom -5570.816511 kJ/mol
# Density = 1.935924 g / cm^3
# Si number density = 19.403405 Si / 1000 Ang^3
#
#
#
# Elastic Constant Matrix: (Units=GPa)
#
#
# Indices 1 2 3 4 5 6 
#
# 1 111.8391 6.0727 106.5797 0.0000 0.0000 0.0000
# 2 6.0727 48.4812 9.9443 0.0000 0.0000 0.0000
# 3 106.5797 9.9443 190.1748 0.0000 0.0000 0.0000
# 4 0.0000 0.0000 0.0000 6.9668 0.0000 0.0000
# 5 0.0000 0.0000 0.0000 0.0000 -3.1863 0.0000
# 6 0.0000 0.0000 0.0000 0.0000 0.0000 -4.7883
#
#
#
# Elastic Compliance Matrix: (Units=1/GPa)
#
#
# Indices 1 2 3 4 5 6 
#
# 1 0.019193 -0.000200 -0.010746 0.000000 0.000000 0.000000
# 2 -0.000200 0.020852 -0.000978 0.000000 0.000000 0.000000
# 3 -0.010746 -0.000978 0.011332 0.000000 0.000000 0.000000
# 4 0.000000 0.000000 0.000000 0.143538 0.000000 0.000000
# 5 0.000000 0.000000 0.000000 0.000000 -0.313843 0.000000
# 6 0.000000 0.000000 0.000000 0.000000 0.000000 -0.208841
#
#
# Mechanical properties :
#
#
# Convention : Reuss Voigt Hill
#
# Bulk Modulus (GPa) = 36.32571 66.18760 51.25665
# Shear Modulus (GPa) = -16.96373 14.99167 -0.98603
#
# Velocity S-wave (km/s) = -2.96001 2.78264 -0.71364
# Velocity P-wave (km/s) = 2.66078 6.67154 5.07884
#
# Compressibility (1/GPa) = 0.02752871
#
# Stress axis : x y z
#
# Youngs Moduli (GPa) = 52.10343 47.95642 88.24826
#
# Poissons Ratio (x) = 0.00959 0.94829
# Poissons Ratio (y) = 0.01042 0.08633
# Poissons Ratio (z) = 0.55989 0.04692
#
# Static dielectric constant tensor:
#      x y z
#    x 1.671680 0.000000 0.000000 
#    y 0.000000 1.825240 0.000000 
#    z 0.000000 0.000000 1.689900 
# 
# From -- ./inp_files/38472.got.cif
#   From: 2010.05.17/outbox.cif.g08.bks.cpg/sg69_20_cif.got.tgz:38472.got - 2010.06.03 19:29:58.
