data_PCOD9513459
_publ_section_title
;
Structure prediction by ZEFSAII (Michael W. Deem and Ramdas Pophale) SiO2 
 PCOD9513459
Probable space group: F M M M
;
_chemical_formula_sum "Si O2"
_cell_formula_units_Z 128
_cell_length_a 8.258931
_cell_length_b 27.814932
_cell_length_c 27.139267
_cell_angle_alpha 90.000000
_cell_angle_beta 90.000000
_cell_angle_gamma 90.000000
_cell_volume 6234.475951
_symmetry_space_group_name_H-M "F M M M"
_symmetry_group_IT_number 69
_symmetry_cell_setting 'orthorhombic'
loop_
_space_group_symop_operation_xyz
x,y,z
-x,-y,z
x,-y,-z
-x,y,-z
-x,-y,-z
x,y,-z
-x,y,z
x,-y,z
x,1/2+y,1/2+z
-x,1/2-y,1/2+z
x,1/2-y,1/2-z
-x,1/2+y,1/2-z
-x,1/2-y,1/2-z
x,1/2+y,1/2-z
-x,1/2+y,1/2+z
x,1/2-y,1/2+z
1/2+x,y,1/2+z
1/2-x,-y,1/2+z
1/2+x,-y,1/2-z
1/2-x,y,1/2-z
1/2-x,-y,1/2-z
1/2+x,y,1/2-z
1/2-x,y,1/2+z
1/2+x,-y,1/2+z
1/2+x,1/2+y,z
1/2-x,1/2-y,z
1/2+x,1/2-y,-z
1/2-x,1/2+y,-z
1/2-x,1/2-y,-z
1/2+x,1/2+y,-z
1/2-x,1/2+y,z
1/2+x,1/2-y,z
loop_
_atom_site_type_symbol
_atom_site_label
_atom_site_fract_x
_atom_site_fract_y
_atom_site_fract_z
Si Si1 0.310348 0.835986 0.804812
Si Si2 0.000000 0.651417 0.444703
Si Si3 0.250000 0.750000 0.366810
Si Si4 0.310337 0.397410 0.602708
Si Si5 0.500000 0.267541 0.556351
Si Si6 0.194211 0.500000 0.056488
O O1 0.500000 0.819701 0.804301
O O2 0.250000 0.844949 0.750000
O O3 0.204986 0.793161 0.829902
O O4 0.303628 0.882556 0.839919
O O5 0.165631 0.633031 0.421141
O O6 0.000000 0.709380 0.445814
O O7 0.000000 0.633127 0.500000
O O8 0.356042 0.721135 0.406786
O O9 0.500000 0.388229 0.586699
O O10 0.268806 0.451823 0.586934
O O11 0.500000 0.285420 0.500000
O O12 0.000000 0.500000 0.051721
O O13 0.259871 0.500000 0.000000
#
# Coordination Sequence:
#
# PCOD9513459 Si02
#       6
#    32  16  16  32  16  16
#     4  11  25  40  63  89 117 161 209 264 316 362
#     4  11  22  37  63  92 126 167 201 252 313 371
#     4  12  22  42  62  88 124 162 208 258 302 372
#     4  10  22  41  61  93 129 161 206 258 310 372
#     4  11  24  40  59  90 128 165 206 251 308 375
#     4   9  18  37  66  93 124 166 204 248 307 374
#
# _framework density 20.530995999999998
#
# number of rings (size 3 to 8) (size 9 to 14) (size 15 to 20)
#    0.000    1.375    3.750    1.500    3.500    3.000 
#    0.000    1.875    0.000    0.000    0.000    0.000 
#    0.000    0.000    0.000    0.000    0.000    0.000 
#
# Total GULP energy -178197.717292 kJ/mol
# GULP energy per Si atom -5568.678665 kJ/mol
# Density = 2.048427 g / cm^3
# Si number density = 20.530996 Si / 1000 Ang^3
#
#
#
# Elastic Constant Matrix: (Units=GPa)
#
#
# Indices 1 2 3 4 5 6 
#
# 1 90.5758 26.0086 49.7154 0.0000 0.0000 0.0000
# 2 26.0086 125.2691 61.5700 0.0000 0.0000 0.0000
# 3 49.7154 61.5700 190.2329 0.0000 0.0000 0.0000
# 4 0.0000 0.0000 0.0000 23.5141 0.0000 0.0000
# 5 0.0000 0.0000 0.0000 0.0000 29.2292 0.0000
# 6 0.0000 0.0000 0.0000 0.0000 0.0000 18.2954
#
#
#
# Elastic Compliance Matrix: (Units=1/GPa)
#
#
# Indices 1 2 3 4 5 6 
#
# 1 0.013046 -0.001228 -0.003012 0.000000 0.000000 0.000000
# 2 -0.001228 0.009609 -0.002789 0.000000 0.000000 0.000000
# 3 -0.003012 -0.002789 0.006946 0.000000 0.000000 0.000000
# 4 0.000000 0.000000 0.000000 0.042528 0.000000 0.000000
# 5 0.000000 0.000000 0.000000 0.000000 0.034212 0.000000
# 6 0.000000 0.000000 0.000000 0.000000 0.000000 0.054659
#
#
# Mechanical properties :
#
#
# Convention : Reuss Voigt Hill
#
# Bulk Modulus (GPa) = 64.33706 75.62950 69.98328
# Shear Modulus (GPa) = 27.74086 32.12666 29.93376
#
# Velocity S-wave (km/s) = 3.67981 3.96003 3.82249
# Velocity P-wave (km/s) = 7.03273 7.60433 7.32411
#
# Compressibility (1/GPa) = 0.01554314
#
# Stress axis : x y z
#
# Youngs Moduli (GPa) = 76.64945 104.07374 143.95743
#
# Poissons Ratio (x) = 0.12784 0.43360
# Poissons Ratio (y) = 0.09415 0.40148
# Poissons Ratio (z) = 0.23087 0.29025
#
# Static dielectric constant tensor:
#      x y z
#    x 2.069080 0.000000 0.000000 
#    y 0.000000 1.732240 0.000000 
#    z 0.000000 0.000000 1.713740 
# 
# From -- ./inp_files/39694.got.cif
#   From: 2010.05.17/outbox.cif.g08.bks.cpg/sg69_20_cif.got.tgz:39694.got - 2010.06.03 19:29:58.
