data_PCOD9513903
_publ_section_title
;
Structure prediction by ZEFSAII (Michael W. Deem and Ramdas Pophale) SiO2 
 PCOD9513903
Probable space group: F M M M
;
_chemical_formula_sum "Si O2"
_cell_formula_units_Z 136
_cell_length_a 24.698439
_cell_length_b 21.028945
_cell_length_c 13.222612
_cell_angle_alpha 90.000000
_cell_angle_beta 90.000000
_cell_angle_gamma 90.000000
_cell_volume 6867.588191
_symmetry_space_group_name_H-M "F M M M"
_symmetry_group_IT_number 69
_symmetry_cell_setting 'orthorhombic'
loop_
_space_group_symop_operation_xyz
x,y,z
-x,-y,z
x,-y,-z
-x,y,-z
-x,-y,-z
x,y,-z
-x,y,z
x,-y,z
x,1/2+y,1/2+z
-x,1/2-y,1/2+z
x,1/2-y,1/2-z
-x,1/2+y,1/2-z
-x,1/2-y,1/2-z
x,1/2+y,1/2-z
-x,1/2+y,1/2+z
x,1/2-y,1/2+z
1/2+x,y,1/2+z
1/2-x,-y,1/2+z
1/2+x,-y,1/2-z
1/2-x,y,1/2-z
1/2-x,-y,1/2-z
1/2+x,y,1/2-z
1/2-x,y,1/2+z
1/2+x,-y,1/2+z
1/2+x,1/2+y,z
1/2-x,1/2-y,z
1/2+x,1/2-y,-z
1/2-x,1/2+y,-z
1/2-x,1/2-y,-z
1/2+x,1/2+y,-z
1/2-x,1/2+y,z
1/2+x,1/2-y,z
loop_
_atom_site_type_symbol
_atom_site_label
_atom_site_fract_x
_atom_site_fract_y
_atom_site_fract_z
Si Si1 0.805921 0.821655 0.212021
Si Si2 0.406512 0.884469 0.183355
Si Si3 0.440493 0.500000 0.179032
Si Si4 0.216359 0.130541 0.000000
Si Si5 0.500000 0.712795 0.370887
Si Si6 0.352700 0.000000 0.500000
Si Si7 0.833185 0.572000 0.000000
O O1 0.806005 0.750000 0.250000
O O2 0.750000 0.854094 0.250000
O O3 0.860892 0.852666 0.247770
O O4 0.801142 0.828008 0.094082
O O5 0.435529 0.938265 0.249517
O O6 0.447426 0.831713 0.140005
O O7 0.371745 0.916390 0.094943
O O8 0.500000 0.500000 0.130230
O O9 0.392036 0.500000 0.097817
O O10 0.280638 0.116949 0.000000
O O11 0.184516 0.063171 0.000000
O O12 0.500000 0.735046 0.500000
O O13 0.500000 0.750000 0.250000
O O14 0.812759 0.500000 0.000000
#
# Coordination Sequence:
#
# PCOD9513903 Si02
#       7
#    32  32  16  16  16   8  16
#     4  11  25  43  67  99 141 190 240 296 364 450
#     4  12  24  45  71 104 144 185 240 303 371 453
#     4  12  25  44  72 104 142 187 244 309 386 451
#     4  12  24  43  71 104 143 192 238 302 382 452
#     4  12  28  53  77 106 148 199 256 318 379 446
#     4  12  25  44  72 102 146 191 238 314 384 466
#     4  12  24  38  72 112 141 182 237 299 374 463
#
# _framework density 19.803167999999999
#
# number of rings (size 3 to 8) (size 9 to 14) (size 15 to 20)
#    0.000    0.235    8.824    0.882    0.000    2.824 
#    8.471    5.294    0.000    0.000    0.000    0.000 
#    0.000    0.000    0.000    0.000    0.000    0.000 
#
# Total GULP energy -189398.436650 kJ/mol
# GULP energy per Si atom -5570.542254 kJ/mol
# Density = 1.975809 g / cm^3
# Si number density = 19.803168 Si / 1000 Ang^3
#
#
#
# Elastic Constant Matrix: (Units=GPa)
#
#
# Indices 1 2 3 4 5 6 
#
# 1 123.4307 23.0240 31.1601 0.0000 0.0000 0.0000
# 2 23.0240 78.3391 35.1133 0.0000 0.0000 0.0000
# 3 31.1601 35.1133 145.7711 0.0000 0.0000 0.0000
# 4 0.0000 0.0000 0.0000 55.1804 0.0000 0.0000
# 5 0.0000 0.0000 0.0000 0.0000 37.6772 0.0000
# 6 0.0000 0.0000 0.0000 0.0000 0.0000 170.4224
#
#
#
# Elastic Compliance Matrix: (Units=1/GPa)
#
#
# Indices 1 2 3 4 5 6 
#
# 1 0.008824 -0.001960 -0.001414 0.000000 0.000000 0.000000
# 2 -0.001960 0.014745 -0.003133 0.000000 0.000000 0.000000
# 3 -0.001414 -0.003133 0.007917 0.000000 0.000000 0.000000
# 4 0.000000 0.000000 0.000000 0.018122 0.000000 0.000000
# 5 0.000000 0.000000 0.000000 0.000000 0.026541 0.000000
# 6 0.000000 0.000000 0.000000 0.000000 0.000000 0.005868
#
#
# Mechanical properties :
#
#
# Convention : Reuss Voigt Hill
#
# Bulk Modulus (GPa) = 54.13317 58.45955 56.29636
# Shear Modulus (GPa) = 49.41245 69.87223 59.64234
#
# Velocity S-wave (km/s) = 5.00060 5.94642 5.49390
# Velocity P-wave (km/s) = 7.79335 8.75962 8.29057
#
# Compressibility (1/GPa) = 0.01847296
#
# Stress axis : x y z
#
# Youngs Moduli (GPa) = 113.32385 67.81873 126.30978
#
# Poissons Ratio (x) = 0.13290 0.17863
# Poissons Ratio (y) = 0.22207 0.39572
# Poissons Ratio (z) = 0.16027 0.21247
#
# Static dielectric constant tensor:
#      x y z
#    x 1.680930 0.000000 0.000000 
#    y 0.000000 1.685040 0.000000 
#    z 0.000000 0.000000 1.743350 
# 
# From -- ./inp_files/10242.got.cif
#   From: 2010.05.17/outbox.cif.g08.bks.cpg/sg69_6_cif.got.tgz:10242.got - 2010.06.03 19:29:58.
