data_PCOD9513063
_publ_section_title
;
Structure prediction by ZEFSAII (Michael W. Deem and Ramdas Pophale) SiO2 
 PCOD9513063
Probable space group: F M M M
;
_chemical_formula_sum "Si O2"
_cell_formula_units_Z 128
_cell_length_a 26.043345
_cell_length_b 27.180194
_cell_length_c 10.671411
_cell_angle_alpha 90.000000
_cell_angle_beta 90.000000
_cell_angle_gamma 90.000000
_cell_volume 7553.898814
_symmetry_space_group_name_H-M "F M M M"
_symmetry_group_IT_number 69
_symmetry_cell_setting 'orthorhombic'
loop_
_space_group_symop_operation_xyz
x,y,z
-x,-y,z
x,-y,-z
-x,y,-z
-x,-y,-z
x,y,-z
-x,y,z
x,-y,z
x,1/2+y,1/2+z
-x,1/2-y,1/2+z
x,1/2-y,1/2-z
-x,1/2+y,1/2-z
-x,1/2-y,1/2-z
x,1/2+y,1/2-z
-x,1/2+y,1/2+z
x,1/2-y,1/2+z
1/2+x,y,1/2+z
1/2-x,-y,1/2+z
1/2+x,-y,1/2-z
1/2-x,y,1/2-z
1/2-x,-y,1/2-z
1/2+x,y,1/2-z
1/2-x,y,1/2+z
1/2+x,-y,1/2+z
1/2+x,1/2+y,z
1/2-x,1/2-y,z
1/2+x,1/2-y,-z
1/2-x,1/2+y,-z
1/2-x,1/2-y,-z
1/2+x,1/2+y,-z
1/2-x,1/2+y,z
1/2+x,1/2-y,z
loop_
_atom_site_type_symbol
_atom_site_label
_atom_site_fract_x
_atom_site_fract_y
_atom_site_fract_z
Si Si1 0.500000 0.057779 0.859714
Si Si2 0.102121 0.895982 0.256236
Si Si3 0.436476 0.439714 0.000000
Si Si4 0.938963 0.705822 0.850467
Si Si5 0.207719 0.559228 0.854979
O O1 0.447272 0.077162 0.810331
O O2 0.500000 0.000000 0.843469
O O3 0.500000 0.073771 0.000000
O O4 0.093793 0.839461 0.295763
O O5 0.154398 0.916166 0.314532
O O6 0.092925 0.913013 0.113968
O O7 0.430482 0.500000 0.000000
O O8 0.500000 0.431325 0.000000
O O9 0.931821 0.750000 0.750000
O O10 0.000000 0.693160 0.845683
O O11 0.927743 0.715674 0.000000
O O12 0.201690 0.500000 0.850637
O O13 0.250000 0.572581 0.750000
O O14 0.220996 0.571984 0.000000
#
# Coordination Sequence:
#
# PCOD9513063 Si02
#       5
#    16  32  16  32  32
#     4  11  20  31  52  81 113 147 186 231 286 355
#     4  12  22  36  58  81 117 156 196 239 296 351
#     4  11  22  34  52  86 126 157 190 235 295 364
#     4  10  21  37  58  83 117 152 195 245 298 356
#     4  10  22  39  59  84 115 153 198 243 292 354
#
# _framework density 16.944893
#
# number of rings (size 3 to 8) (size 9 to 14) (size 15 to 20)
#    0.000    1.250    2.500    4.500    3.500    2.000 
#    0.000    0.000    0.000    0.750    0.000    3.500 
#    0.000    0.000    0.000    0.000    0.000    0.000 
#
# Total GULP energy -178165.517988 kJ/mol
# GULP energy per Si atom -5567.672437 kJ/mol
# Density = 1.690633 g / cm^3
# Si number density = 16.944893 Si / 1000 Ang^3
#
#
#
# Elastic Constant Matrix: (Units=GPa)
#
#
# Indices 1 2 3 4 5 6 
#
# 1 110.6562 46.0025 66.7260 0.0001 -0.0004 -0.0001
# 2 46.0025 80.3977 53.4527 0.0001 -0.0001 -0.0001
# 3 66.7260 53.4527 195.3227 0.0010 -0.0019 -0.0008
# 4 0.0001 0.0001 0.0010 17.4984 -0.0013 -0.0005
# 5 -0.0004 -0.0001 -0.0019 -0.0013 -17.1481 0.0010
# 6 -0.0001 -0.0001 -0.0008 -0.0005 0.0010 12.8275
#
#
#
# Elastic Compliance Matrix: (Units=1/GPa)
#
#
# Indices 1 2 3 4 5 6 
#
# 1 0.013130 -0.005538 -0.002970 0.000000 0.000000 0.000000
# 2 -0.005538 0.017541 -0.002908 0.000000 0.000000 0.000000
# 3 -0.002970 -0.002908 0.006930 0.000000 -0.000001 0.000000
# 4 0.000000 0.000000 0.000000 0.057148 -0.000004 0.000002
# 5 0.000000 0.000000 -0.000001 -0.000004 -0.058315 0.000005
# 6 0.000000 0.000000 0.000000 0.000002 0.000005 0.077957
#
#
# Mechanical properties :
#
#
# Convention : Reuss Voigt Hill
#
# Bulk Modulus (GPa) = 67.71351 79.85990 73.78670
# Shear Modulus (GPa) = 35.17489 17.31527 26.24508
#
# Velocity S-wave (km/s) = 4.56108 3.20012 3.93981
# Velocity P-wave (km/s) = 8.23321 7.80294 8.02096
#
# Compressibility (1/GPa) = 0.01476810
#
# Stress axis : x y z
#
# Youngs Moduli (GPa) = 76.15962 57.01015 144.29634
#
# Poissons Ratio (x) = 0.31575 0.42855
# Poissons Ratio (y) = 0.42181 0.41965
# Poissons Ratio (z) = 0.22619 0.16580
#
# Static dielectric constant tensor:
#      x y z
#    x 1.519940 0.000000 0.000000 
#    y 0.000000 1.607890 0.000000 
#    z 0.000000 0.000000 1.436780 
# 
# From -- ./inp_files/10107.got.cif
#   From: 2010.05.17/outbox.cif.g08.bks.cpg/sg69_6_cif.got.tgz:10107.got - 2010.06.03 19:29:58.
