data_PCOD9513785
_publ_section_title
;
Structure prediction by ZEFSAII (Michael W. Deem and Ramdas Pophale) SiO2 
 PCOD9513785
Probable space group: F M M M
;
_chemical_formula_sum "Si O2"
_cell_formula_units_Z 160
_cell_length_a 20.027399
_cell_length_b 22.923681
_cell_length_c 16.466281
_cell_angle_alpha 90.000000
_cell_angle_beta 90.000000
_cell_angle_gamma 90.000000
_cell_volume 7559.697698
_symmetry_space_group_name_H-M "F M M M"
_symmetry_group_IT_number 69
_symmetry_cell_setting 'orthorhombic'
loop_
_space_group_symop_operation_xyz
x,y,z
-x,-y,z
x,-y,-z
-x,y,-z
-x,-y,-z
x,y,-z
-x,y,z
x,-y,z
x,1/2+y,1/2+z
-x,1/2-y,1/2+z
x,1/2-y,1/2-z
-x,1/2+y,1/2-z
-x,1/2-y,1/2-z
x,1/2+y,1/2-z
-x,1/2+y,1/2+z
x,1/2-y,1/2+z
1/2+x,y,1/2+z
1/2-x,-y,1/2+z
1/2+x,-y,1/2-z
1/2-x,y,1/2-z
1/2-x,-y,1/2-z
1/2+x,y,1/2-z
1/2-x,y,1/2+z
1/2+x,-y,1/2+z
1/2+x,1/2+y,z
1/2-x,1/2-y,z
1/2+x,1/2-y,-z
1/2-x,1/2+y,-z
1/2-x,1/2-y,-z
1/2+x,1/2+y,-z
1/2-x,1/2+y,z
1/2+x,1/2-y,z
loop_
_atom_site_type_symbol
_atom_site_label
_atom_site_fract_x
_atom_site_fract_y
_atom_site_fract_z
Si Si1 0.077568 0.000000 0.819730
Si Si2 0.120822 0.118869 0.906009
Si Si3 0.745629 0.312981 0.095339
Si Si4 0.500000 0.164440 0.829745
Si Si5 0.869753 0.892283 0.593796
Si Si6 0.812762 0.000000 0.313206
Si Si7 0.500000 0.699676 0.860374
O O1 0.096063 0.059389 0.866009
O O2 0.121226 0.000000 0.740416
O O3 0.000000 0.000000 0.802178
O O4 0.189533 0.144167 0.869059
O O5 0.065273 0.169232 0.897994
O O6 0.131779 0.104521 0.000000
O O7 0.750000 0.250000 0.135094
O O8 0.819194 0.338374 0.095104
O O9 0.725016 0.305739 0.000000
O O10 0.435209 0.127088 0.856447
O O11 0.500000 0.230033 0.868794
O O12 0.500000 0.179218 0.734060
O O13 0.887948 0.905672 0.500000
O O14 0.823613 0.943605 0.630568
O O15 0.750000 0.000000 0.250000
#
# Coordination Sequence:
#
# PCOD9513785 Si02
#       7
#    16  32  32  16  32  16  16
#     4  12  25  41  63  93 135 174 213 269 336 405
#     4  11  22  38  65  95 129 171 219 276 337 402
#     4   9  19  37  62  94 128 162 207 269 332 387
#     4  11  25  42  63  94 135 181 223 275 336 393
#     4  11  24  43  69  98 131 173 228 280 327 394
#     4  12  27  46  70  95 129 175 219 273 339 405
#     4  11  23  40  61  94 137 179 227 275 332 401
#
# _framework density 21.164867000000001
#
# number of rings (size 3 to 8) (size 9 to 14) (size 15 to 20)
#    0.000    1.200    1.000    4.800    1.400    3.600 
#    0.000    5.000    0.000    4.800    0.000    0.000 
#    0.000    0.000    0.000    0.000    0.000    0.000 
#
# Total GULP energy -223403.174700 kJ/mol
# GULP energy per Si atom -5585.079367 kJ/mol
# Density = 2.111669 g / cm^3
# Si number density = 21.164867 Si / 1000 Ang^3
#
#
#
# Elastic Constant Matrix: (Units=GPa)
#
#
# Indices 1 2 3 4 5 6 
#
# 1 122.6870 23.3668 6.9489 0.0000 0.0000 0.0000
# 2 23.3668 99.1964 13.1176 0.0000 0.0000 0.0000
# 3 6.9489 13.1176 49.2776 0.0000 0.0000 0.0000
# 4 0.0000 0.0000 0.0000 20.5581 0.0000 0.0000
# 5 0.0000 0.0000 0.0000 0.0000 18.7563 0.0000
# 6 0.0000 0.0000 0.0000 0.0000 0.0000 25.1193
#
#
#
# Elastic Compliance Matrix: (Units=1/GPa)
#
#
# Indices 1 2 3 4 5 6 
#
# 1 0.008557 -0.001924 -0.000695 0.000000 0.000000 0.000000
# 2 -0.001924 0.010881 -0.002625 0.000000 0.000000 0.000000
# 3 -0.000695 -0.002625 0.021090 0.000000 0.000000 0.000000
# 4 0.000000 0.000000 0.000000 0.048643 0.000000 0.000000
# 5 0.000000 0.000000 0.000000 0.000000 0.053315 0.000000
# 6 0.000000 0.000000 0.000000 0.000000 0.000000 0.039810
#
#
# Mechanical properties :
#
#
# Convention : Reuss Voigt Hill
#
# Bulk Modulus (GPa) = 33.28815 39.78086 36.53450
# Shear Modulus (GPa) = 24.65524 28.06859 26.36192
#
# Velocity S-wave (km/s) = 3.41679 3.64564 3.53306
# Velocity P-wave (km/s) = 5.59715 6.04627 5.82604
#
# Compressibility (1/GPa) = 0.03004072
#
# Stress axis : x y z
#
# Youngs Moduli (GPa) = 116.86947 91.90048 47.41587
#
# Poissons Ratio (x) = 0.17679 0.03293
# Poissons Ratio (y) = 0.22483 0.12448
# Poissons Ratio (z) = 0.08117 0.24127
#
# Static dielectric constant tensor:
#      x y z
#    x 1.520280 0.000000 0.000000 
#    y 0.000000 1.832450 0.000000 
#    z 0.000000 0.000000 2.509880 
# 
# From -- ./inp_files/24723.got.cif
#   From: 2010.05.17/outbox.cif.g08.bks.cpg/sg69_13_cif.got.tgz:24723.got - 2010.06.03 19:29:58.
