data_PCOD9513108
_publ_section_title
;
Structure prediction by ZEFSAII (Michael W. Deem and Ramdas Pophale) SiO2 
 PCOD9513108
Probable space group: F M M M
;
_chemical_formula_sum "Si O2"
_cell_formula_units_Z 160
_cell_length_a 33.383369
_cell_length_b 30.024699
_cell_length_c 8.488442
_cell_angle_alpha 90.000000
_cell_angle_beta 90.000000
_cell_angle_gamma 90.000000
_cell_volume 8508.182770
_symmetry_space_group_name_H-M "F M M M"
_symmetry_group_IT_number 69
_symmetry_cell_setting 'orthorhombic'
loop_
_space_group_symop_operation_xyz
x,y,z
-x,-y,z
x,-y,-z
-x,y,-z
-x,-y,-z
x,y,-z
-x,y,z
x,-y,z
x,1/2+y,1/2+z
-x,1/2-y,1/2+z
x,1/2-y,1/2-z
-x,1/2+y,1/2-z
-x,1/2-y,1/2-z
x,1/2+y,1/2-z
-x,1/2+y,1/2+z
x,1/2-y,1/2+z
1/2+x,y,1/2+z
1/2-x,-y,1/2+z
1/2+x,-y,1/2-z
1/2-x,y,1/2-z
1/2-x,-y,1/2-z
1/2+x,y,1/2-z
1/2-x,y,1/2+z
1/2+x,-y,1/2+z
1/2+x,1/2+y,z
1/2-x,1/2-y,z
1/2+x,1/2-y,-z
1/2-x,1/2+y,-z
1/2-x,1/2-y,-z
1/2+x,1/2+y,-z
1/2-x,1/2+y,z
1/2+x,1/2-y,z
loop_
_atom_site_type_symbol
_atom_site_label
_atom_site_fract_x
_atom_site_fract_y
_atom_site_fract_z
Si Si1 0.585280 0.703548 0.815084
Si Si2 0.500000 0.920405 0.180886
Si Si3 0.795195 0.200482 0.690082
Si Si4 0.360837 0.129427 0.816178
Si Si5 0.500000 0.813356 0.184499
Si Si6 0.913096 0.949510 0.188233
O O1 0.601535 0.750000 0.750000
O O2 0.603293 0.664001 0.712668
O O3 0.538503 0.702466 0.778871
O O4 0.593588 0.697863 0.000000
O O5 0.500000 0.866923 0.185141
O O6 0.542039 0.936049 0.256097
O O7 0.500000 0.935479 0.000000
O O8 0.796295 0.201643 0.500000
O O9 0.807270 0.250000 0.750000
O O10 0.750000 0.193571 0.750000
O O11 0.823174 0.159112 0.744476
O O12 0.378063 0.084208 0.741985
O O13 0.354072 0.121195 0.000000
O O14 0.500000 0.799034 0.000000
O O15 0.905230 0.000000 0.242692
O O16 0.913861 0.948516 0.000000
#
# Coordination Sequence:
#
# PCOD9513108 Si02
#       6
#    32  16  32  32  16  32
#     4  12  24  37  55  78 109 150 191 234 282 336
#     4  11  22  37  60  83 111 150 195 245 296 347
#     4  10  21  37  61  91 123 155 190 228 275 335
#     4  11  23  39  59  86 116 149 190 236 285 341
#     4  11  22  37  54  76 108 146 190 237 282 338
#     4  11  24  40  60  86 115 150 194 244 296 348
#
# _framework density 18.805425
#
# number of rings (size 3 to 8) (size 9 to 14) (size 15 to 20)
#    0.000    1.000    2.000    6.000    0.000    8.400 
#    0.000    0.000    0.000    0.600    0.000    0.000 
#    0.000    0.000    0.000    0.000    0.000    0.000 
#
# Total GULP energy -223351.452425 kJ/mol
# GULP energy per Si atom -5583.786311 kJ/mol
# Density = 1.876262 g / cm^3
# Si number density = 18.805425 Si / 1000 Ang^3
#
#
#
# Elastic Constant Matrix: (Units=GPa)
#
#
# Indices 1 2 3 4 5 6 
#
# 1 124.9304 55.8007 12.8038 0.0015 0.0009 0.0118
# 2 55.8007 145.5209 26.3342 0.0052 -0.0281 -0.0003
# 3 12.8038 26.3342 50.8463 -0.0088 -0.0060 0.0127
# 4 0.0015 0.0052 -0.0088 29.1571 -0.0245 -0.0050
# 5 0.0009 -0.0281 -0.0060 -0.0245 7.0108 -0.0143
# 6 0.0118 -0.0003 0.0127 -0.0050 -0.0143 26.3766
#
#
#
# Elastic Compliance Matrix: (Units=1/GPa)
#
#
# Indices 1 2 3 4 5 6 
#
# 1 0.009674 -0.003607 -0.000568 0.000000 -0.000016 -0.000004
# 2 -0.003607 0.008927 -0.003715 -0.000002 0.000033 0.000004
# 3 -0.000568 -0.003715 0.021734 0.000007 0.000004 -0.000010
# 4 0.000000 -0.000002 0.000007 0.034297 0.000120 0.000007
# 5 -0.000016 0.000033 0.000004 0.000120 0.142638 0.000077
# 6 -0.000004 0.000004 -0.000010 0.000007 0.000077 0.037912
#
#
# Mechanical properties :
#
#
# Convention : Reuss Voigt Hill
#
# Bulk Modulus (GPa) = 40.72453 56.79722 48.76087
# Shear Modulus (GPa) = 17.91169 27.59951 22.75560
#
# Velocity S-wave (km/s) = 3.08957 3.83513 3.48236
# Velocity P-wave (km/s) = 5.86771 7.06251 6.49265
#
# Compressibility (1/GPa) = 0.02455523
#
# Stress axis : x y z
#
# Youngs Moduli (GPa) = 103.37447 112.01741 46.01000
#
# Poissons Ratio (x) = 0.40400 0.02613
# Poissons Ratio (y) = 0.37283 0.17094
# Poissons Ratio (z) = 0.05872 0.41619
#
# Static dielectric constant tensor:
#      x y z
#    x 1.709350 0.000000 0.000000 
#    y 0.000000 1.710360 -0.000010 
#    z 0.000000 -0.000010 1.647200 
# 
# From -- ./inp_files/5786.got.cif
#   From: 2010.05.17/outbox.cif.g08.bks.cpg/sg69_3_cif.got.tgz:5786.got - 2010.06.03 19:29:58.
