data_PCOD9513173
_publ_section_title
;
Structure prediction by ZEFSAII (Michael W. Deem and Ramdas Pophale) SiO2 
 PCOD9513173
Probable space group: F M M M
;
_chemical_formula_sum "Si O2"
_cell_formula_units_Z 104
_cell_length_a 19.255141
_cell_length_b 29.908649
_cell_length_c 9.428114
_cell_angle_alpha 90.000000
_cell_angle_beta 90.000000
_cell_angle_gamma 90.000000
_cell_volume 5429.606103
_symmetry_space_group_name_H-M "F M M M"
_symmetry_group_IT_number 69
_symmetry_cell_setting 'orthorhombic'
loop_
_space_group_symop_operation_xyz
x,y,z
-x,-y,z
x,-y,-z
-x,y,-z
-x,-y,-z
x,y,-z
-x,y,z
x,-y,z
x,1/2+y,1/2+z
-x,1/2-y,1/2+z
x,1/2-y,1/2-z
-x,1/2+y,1/2-z
-x,1/2-y,1/2-z
x,1/2+y,1/2-z
-x,1/2+y,1/2+z
x,1/2-y,1/2+z
1/2+x,y,1/2+z
1/2-x,-y,1/2+z
1/2+x,-y,1/2-z
1/2-x,y,1/2-z
1/2-x,-y,1/2-z
1/2+x,y,1/2-z
1/2-x,y,1/2+z
1/2+x,-y,1/2+z
1/2+x,1/2+y,z
1/2-x,1/2-y,z
1/2+x,1/2-y,-z
1/2-x,1/2+y,-z
1/2-x,1/2-y,-z
1/2+x,1/2+y,-z
1/2-x,1/2+y,z
1/2+x,1/2-y,z
loop_
_atom_site_type_symbol
_atom_site_label
_atom_site_fract_x
_atom_site_fract_y
_atom_site_fract_z
Si Si1 0.250000 0.750000 0.750000
Si Si2 0.000000 0.202820 0.670455
Si Si3 0.577558 0.000000 0.327385
Si Si4 0.818198 0.075918 0.166879
Si Si5 0.864495 0.822517 0.837933
O O1 0.195238 0.784402 0.823745
O O2 0.000000 0.250000 0.750000
O O3 0.928102 0.181949 0.728329
O O4 0.000000 0.205852 0.500000
O O5 0.618679 0.955449 0.285901
O O6 0.500000 0.000000 0.271751
O O7 0.574431 0.000000 0.500000
O O8 0.750000 0.062730 0.250000
O O9 0.832579 0.128472 0.185070
O O10 0.807754 0.068150 0.000000
O O11 0.891633 0.820061 0.000000
#
# Coordination Sequence:
#
# PCOD9513173 Si02
#       5
#     8  16  16  32  32
#     4  12  22  38  64  88 130 158 206 248 310 352
#     4  12  26  42  62  87 122 165 209 254 311 367
#     4   9  19  36  61  89 120 157 204 254 307 362
#     4  10  21  38  62  91 120 159 203 252 305 367
#     4  11  24  40  62  91 124 162 208 254 305 364
#
# _framework density 19.154245
#
# number of rings (size 3 to 8) (size 9 to 14) (size 15 to 20)
#    0.000    1.385    3.077    2.308    2.154    2.462 
#    0.000    0.000    0.000    0.923    0.000    0.000 
#    0.000    0.000    0.000    0.000    0.000    0.000 
#
# Total GULP energy -145014.268316 kJ/mol
# GULP energy per Si atom -5577.471858 kJ/mol
# Density = 1.911065 g / cm^3
# Si number density = 19.154245 Si / 1000 Ang^3
#
#
#
# Elastic Constant Matrix: (Units=GPa)
#
#
# Indices 1 2 3 4 5 6 
#
# 1 164.3899 61.4177 69.9710 0.0000 0.0000 0.0000
# 2 61.4177 120.0520 32.5397 0.0000 0.0000 0.0000
# 3 69.9710 32.5397 84.0231 0.0000 0.0001 0.0000
# 4 0.0000 0.0000 0.0000 6.8419 0.0000 0.0000
# 5 0.0000 0.0000 0.0001 0.0000 34.1490 0.0000
# 6 0.0000 0.0000 0.0000 0.0000 0.0000 15.2060
#
#
#
# Elastic Compliance Matrix: (Units=1/GPa)
#
#
# Indices 1 2 3 4 5 6 
#
# 1 0.010509 -0.003357 -0.007451 0.000000 0.000000 0.000000
# 2 -0.003357 0.010379 -0.001224 0.000000 0.000000 0.000000
# 3 -0.007451 -0.001224 0.018581 0.000000 0.000000 0.000000
# 4 0.000000 0.000000 0.000000 0.146159 0.000000 0.000000
# 5 0.000000 0.000000 0.000000 0.000000 0.029283 0.000000
# 6 0.000000 0.000000 0.000000 0.000000 0.000000 0.065763
#
#
# Mechanical properties :
#
#
# Convention : Reuss Voigt Hill
#
# Bulk Modulus (GPa) = 64.91793 77.36908 71.14350
# Shear Modulus (GPa) = 16.13565 24.87516 20.50541
#
# Velocity S-wave (km/s) = 2.90557 3.60762 3.27546
# Velocity P-wave (km/s) = 6.72475 7.60484 7.17830
#
# Compressibility (1/GPa) = 0.01540407
#
# Stress axis : x y z
#
# Youngs Moduli (GPa) = 95.15892 96.35110 53.81902
#
# Poissons Ratio (x) = 0.32340 0.40103
# Poissons Ratio (y) = 0.31940 0.06588
# Poissons Ratio (z) = 0.70906 0.11795
#
# Static dielectric constant tensor:
#      x y z
#    x 1.537670 0.000000 0.000000 
#    y 0.000000 1.668940 0.000000 
#    z 0.000000 0.000000 1.654930 
# 
# From -- ./inp_files/2988.got.cif
#   From: 2010.05.17/outbox.cif.g08.bks.cpg/sg69_2_cif.got.tgz:2988.got - 2010.06.03 19:29:58.
