data_PCOD9513426
_publ_section_title
;
Structure prediction by ZEFSAII (Michael W. Deem and Ramdas Pophale) SiO2 
 PCOD9513426
Probable space group: F M M M
;
_chemical_formula_sum "Si O2"
_cell_formula_units_Z 104
_cell_length_a 7.932226
_cell_length_b 19.879723
_cell_length_c 29.588811
_cell_angle_alpha 90.000000
_cell_angle_beta 90.000000
_cell_angle_gamma 90.000000
_cell_volume 4665.873089
_symmetry_space_group_name_H-M "F M M M"
_symmetry_group_IT_number 69
_symmetry_cell_setting 'orthorhombic'
loop_
_space_group_symop_operation_xyz
x,y,z
-x,-y,z
x,-y,-z
-x,y,-z
-x,-y,-z
x,y,-z
-x,y,z
x,-y,z
x,1/2+y,1/2+z
-x,1/2-y,1/2+z
x,1/2-y,1/2-z
-x,1/2+y,1/2-z
-x,1/2-y,1/2-z
x,1/2+y,1/2-z
-x,1/2+y,1/2+z
x,1/2-y,1/2+z
1/2+x,y,1/2+z
1/2-x,-y,1/2+z
1/2+x,-y,1/2-z
1/2-x,y,1/2-z
1/2-x,-y,1/2-z
1/2+x,y,1/2-z
1/2-x,y,1/2+z
1/2+x,-y,1/2+z
1/2+x,1/2+y,z
1/2-x,1/2-y,z
1/2+x,1/2-y,-z
1/2-x,1/2+y,-z
1/2-x,1/2-y,-z
1/2+x,1/2+y,-z
1/2-x,1/2+y,z
1/2+x,1/2-y,z
loop_
_atom_site_type_symbol
_atom_site_label
_atom_site_fract_x
_atom_site_fract_y
_atom_site_fract_z
Si Si1 0.201783 0.500000 0.197764
Si Si2 0.800912 0.148599 0.323109
Si Si3 0.797992 0.076710 0.500000
Si Si4 0.697829 0.321504 0.922653
Si Si5 0.750000 0.750000 0.750000
O O1 0.250000 0.500000 0.250000
O O2 0.259417 0.571291 0.178115
O O3 0.000000 0.500000 0.192466
O O4 0.788292 0.172318 0.374429
O O5 0.696419 0.194533 0.288129
O O6 0.000000 0.153054 0.308822
O O7 0.741241 0.118014 0.543907
O O8 0.000000 0.075124 0.500000
O O9 0.735164 0.000000 0.500000
O O10 0.500000 0.321312 0.914006
O O11 0.750000 0.250000 0.943526
#
# Coordination Sequence:
#
# PCOD9513426 Si02
#       5
#    16  32  16  32   8
#     4  10  22  40  60  87 128 175 222 274 333 401
#     4  11  24  41  64  97 135 178 227 278 337 400
#     4  11  26  49  76 103 137 179 224 279 342 405
#     4  12  26  45  71 102 137 177 225 280 338 406
#     4  12  22  38  72  96 138 174 230 288 334 404
#
# _framework density 22.289504000000001
#
# number of rings (size 3 to 8) (size 9 to 14) (size 15 to 20)
#    0.000    0.769    3.077    4.154    2.154    3.692 
#    0.000    0.000    0.000    0.000    0.000    0.000 
#    0.000    0.000    0.000    0.000    0.000    0.000 
#
# Total GULP energy -145148.070662 kJ/mol
# GULP energy per Si atom -5582.618102 kJ/mol
# Density = 2.223877 g / cm^3
# Si number density = 22.289504 Si / 1000 Ang^3
#
#
#
# Elastic Constant Matrix: (Units=GPa)
#
#
# Indices 1 2 3 4 5 6 
#
# 1 74.6356 14.0976 2.1796 0.0000 0.0000 0.0000
# 2 14.0976 220.0238 62.6221 0.0000 0.0000 0.0000
# 3 2.1796 62.6221 137.1619 0.0000 0.0000 0.0000
# 4 0.0000 0.0000 0.0000 7.0967 0.0000 0.0000
# 5 0.0000 0.0000 0.0000 0.0000 14.5619 0.0000
# 6 0.0000 0.0000 0.0000 0.0000 0.0000 13.8218
#
#
#
# Elastic Compliance Matrix: (Units=1/GPa)
#
#
# Indices 1 2 3 4 5 6 
#
# 1 0.013568 -0.000929 0.000208 0.000000 0.000000 0.000000
# 2 -0.000929 0.005287 -0.002399 0.000000 0.000000 0.000000
# 3 0.000208 -0.002399 0.008383 0.000000 0.000000 0.000000
# 4 0.000000 0.000000 0.000000 0.140910 0.000000 0.000000
# 5 0.000000 0.000000 0.000000 0.000000 0.068672 0.000000
# 6 0.000000 0.000000 0.000000 0.000000 0.000000 0.072349
#
#
# Mechanical properties :
#
#
# Convention : Reuss Voigt Hill
#
# Bulk Modulus (GPa) = 47.62162 65.51332 56.56747
# Shear Modulus (GPa) = 15.50831 30.62422 23.06626
#
# Velocity S-wave (km/s) = 2.64060 3.71068 3.22040
# Velocity P-wave (km/s) = 5.54152 6.91481 6.26590
#
# Compressibility (1/GPa) = 0.02099887
#
# Stress axis : x y z
#
# Youngs Moduli (GPa) = 73.70415 189.13201 119.29309
#
# Poissons Ratio (x) = 0.17563 -0.02486
# Poissons Ratio (y) = 0.06844 0.28621
# Poissons Ratio (z) = -0.01536 0.45377
#
# Static dielectric constant tensor:
#      x y z
#    x 1.896880 0.000000 0.000000 
#    y 0.000000 1.864200 0.000000 
#    z 0.000000 0.000000 1.747010 
# 
# From -- ./inp_files/39402.got.cif
#   From: 2010.05.17/outbox.cif.g08.bks.cpg/sg69_20_cif.got.tgz:39402.got - 2010.06.03 19:29:58.
