data_PCOD9513040
_publ_section_title
;
Structure prediction by ZEFSAII (Michael W. Deem and Ramdas Pophale) SiO2 
 PCOD9513040
Probable space group: F M M M
;
_chemical_formula_sum "Si O2"
_cell_formula_units_Z 144
_cell_length_a 29.505515
_cell_length_b 28.604668
_cell_length_c 9.615011
_cell_angle_alpha 90.000000
_cell_angle_beta 90.000000
_cell_angle_gamma 90.000000
_cell_volume 8115.025639
_symmetry_space_group_name_H-M "F M M M"
_symmetry_group_IT_number 69
_symmetry_cell_setting 'orthorhombic'
loop_
_space_group_symop_operation_xyz
x,y,z
-x,-y,z
x,-y,-z
-x,y,-z
-x,-y,-z
x,y,-z
-x,y,z
x,-y,z
x,1/2+y,1/2+z
-x,1/2-y,1/2+z
x,1/2-y,1/2-z
-x,1/2+y,1/2-z
-x,1/2-y,1/2-z
x,1/2+y,1/2-z
-x,1/2+y,1/2+z
x,1/2-y,1/2+z
1/2+x,y,1/2+z
1/2-x,-y,1/2+z
1/2+x,-y,1/2-z
1/2-x,y,1/2-z
1/2-x,-y,1/2-z
1/2+x,y,1/2-z
1/2-x,y,1/2+z
1/2+x,-y,1/2+z
1/2+x,1/2+y,z
1/2-x,1/2-y,z
1/2+x,1/2-y,-z
1/2-x,1/2+y,-z
1/2-x,1/2-y,-z
1/2+x,1/2+y,-z
1/2-x,1/2+y,z
1/2+x,1/2-y,z
loop_
_atom_site_type_symbol
_atom_site_label
_atom_site_fract_x
_atom_site_fract_y
_atom_site_fract_z
Si Si1 0.389108 0.347795 0.268983
Si Si2 0.446158 0.794565 0.000000
Si Si3 0.912582 0.053509 0.336637
Si Si4 0.706418 0.799889 0.171187
Si Si5 0.000000 0.555898 0.655800
Si Si6 0.055519 0.682216 0.500000
O O1 0.422528 0.320606 0.373128
O O2 0.381331 0.402357 0.305521
O O3 0.340126 0.324866 0.288091
O O4 0.416631 0.339779 0.127522
O O5 0.500000 0.801582 0.000000
O O6 0.437721 0.738775 0.000000
O O7 0.923963 0.053656 0.500000
O O8 0.956251 0.066415 0.245748
O O9 0.898119 0.000000 0.302363
O O10 0.703034 0.750000 0.250000
O O11 0.750000 0.822313 0.250000
O O12 0.710950 0.796749 0.000000
O O13 0.000000 0.500000 0.642941
O O14 0.000000 0.575332 0.500000
O O15 0.000000 0.676090 0.500000
#
# Coordination Sequence:
#
# PCOD9513040 Si02
#       6
#    32  16  32  32  16  16
#     4  12  24  38  62  88 117 161 204 245 298 360
#     4  11  22  40  58  82 122 161 200 242 284 358
#     4  10  21  37  56  80 112 153 200 248 295 350
#     4  11  23  40  64  92 121 153 197 251 307 358
#     4   9  19  33  51  77 110 147 194 252 298 338
#     4  11  26  40  56  86 124 165 204 244 298 358
#
# _framework density 17.744859999999999
#
# number of rings (size 3 to 8) (size 9 to 14) (size 15 to 20)
#    0.000    1.222    2.222    4.333    7.778    3.111 
#    0.000    0.000    0.000    0.667    0.000    0.000 
#    0.000    0.000    0.000    0.000    0.000    0.000 
#
# Total GULP energy -200516.320542 kJ/mol
# GULP energy per Si atom -5569.897793 kJ/mol
# Density = 1.770447 g / cm^3
# Si number density = 17.744860 Si / 1000 Ang^3
#
#
#
# Elastic Constant Matrix: (Units=GPa)
#
#
# Indices 1 2 3 4 5 6 
#
# 1 128.2743 53.5100 56.6807 0.0040 -0.0053 0.0000
# 2 53.5100 128.3066 41.7618 0.0049 -0.0100 -0.0018
# 3 56.6807 41.7618 160.1385 0.0081 -0.0168 -0.0011
# 4 0.0040 0.0049 0.0081 7.3345 -0.0160 -0.0007
# 5 -0.0053 -0.0100 -0.0168 -0.0160 -25.1925 0.0057
# 6 0.0000 -0.0018 -0.0011 -0.0007 0.0057 9.5360
#
#
#
# Elastic Compliance Matrix: (Units=1/GPa)
#
#
# Indices 1 2 3 4 5 6 
#
# 1 0.010478 -0.003456 -0.002807 0.000000 0.000001 -0.000001
# 2 -0.003456 0.009657 -0.001295 -0.000003 -0.000002 0.000002
# 3 -0.002807 -0.001295 0.007576 -0.000006 -0.000004 0.000001
# 4 0.000000 -0.000003 -0.000006 0.136341 -0.000087 0.000010
# 5 0.000001 -0.000002 -0.000004 -0.000087 -0.039694 0.000024
# 6 -0.000001 0.000002 0.000001 0.000010 0.000024 0.104866
#
#
# Mechanical properties :
#
#
# Convention : Reuss Voigt Hill
#
# Bulk Modulus (GPa) = 79.40489 80.06939 79.73714
# Shear Modulus (GPa) = 20.11759 15.98673 18.05216
#
# Velocity S-wave (km/s) = 3.37072 3.00479 3.19300
# Velocity P-wave (km/s) = 7.74560 7.56696 7.65680
#
# Compressibility (1/GPa) = 0.01259368
#
# Stress axis : x y z
#
# Youngs Moduli (GPa) = 95.43802 103.55504 131.99592
#
# Poissons Ratio (x) = 0.35789 0.37056
# Poissons Ratio (y) = 0.32984 0.17094
# Poissons Ratio (z) = 0.26793 0.13411
#
# Static dielectric constant tensor:
#      x y z
#    x 1.644530 -0.000020 -0.000040 
#    y -0.000020 1.645070 0.000000 
#    z -0.000040 0.000000 1.544970 
# 
# From -- ./inp_files/5675.got.cif
#   From: 2010.05.17/outbox.cif.g08.bks.cpg/sg69_3_cif.got.tgz:5675.got - 2010.06.03 19:29:58.
