data_PCOD9513190
_publ_section_title
;
Structure prediction by ZEFSAII (Michael W. Deem and Ramdas Pophale) SiO2 
 PCOD9513190
Probable space group: F M M M
;
_chemical_formula_sum "Si O2"
_cell_formula_units_Z 168
_cell_length_a 14.209726
_cell_length_b 26.909905
_cell_length_c 21.255412
_cell_angle_alpha 90.000000
_cell_angle_beta 90.000000
_cell_angle_gamma 90.000000
_cell_volume 8127.694959
_symmetry_space_group_name_H-M "F M M M"
_symmetry_group_IT_number 69
_symmetry_cell_setting 'orthorhombic'
loop_
_space_group_symop_operation_xyz
x,y,z
-x,-y,z
x,-y,-z
-x,y,-z
-x,-y,-z
x,y,-z
-x,y,z
x,-y,z
x,1/2+y,1/2+z
-x,1/2-y,1/2+z
x,1/2-y,1/2-z
-x,1/2+y,1/2-z
-x,1/2-y,1/2-z
x,1/2+y,1/2-z
-x,1/2+y,1/2+z
x,1/2-y,1/2+z
1/2+x,y,1/2+z
1/2-x,-y,1/2+z
1/2+x,-y,1/2-z
1/2-x,y,1/2-z
1/2-x,-y,1/2-z
1/2+x,y,1/2-z
1/2-x,y,1/2+z
1/2+x,-y,1/2+z
1/2+x,1/2+y,z
1/2-x,1/2-y,z
1/2+x,1/2-y,-z
1/2-x,1/2+y,-z
1/2-x,1/2-y,-z
1/2+x,1/2+y,-z
1/2-x,1/2+y,z
1/2+x,1/2-y,z
loop_
_atom_site_type_symbol
_atom_site_label
_atom_site_fract_x
_atom_site_fract_y
_atom_site_fract_z
Si Si1 0.293408 0.089527 0.597052
Si Si2 0.673577 0.500000 0.000000
Si Si3 0.613222 0.305373 0.069660
Si Si4 0.885579 0.731919 0.819025
Si Si5 0.108785 0.057930 0.222763
Si Si6 0.390590 0.119594 0.851480
O O1 0.324298 0.043749 0.554497
O O2 0.340417 0.140818 0.575781
O O3 0.326191 0.079401 0.668432
O O4 0.180846 0.096336 0.598592
O O5 0.500000 0.311126 0.074465
O O6 0.643786 0.269679 0.126272
O O7 0.633877 0.284546 0.000000
O O8 0.855670 0.750000 0.750000
O O9 0.858602 0.675627 0.835302
O O10 0.000000 0.731816 0.818231
O O11 0.115195 0.088109 0.287264
O O12 0.000000 0.061780 0.200851
O O13 0.129772 0.000000 0.233878
O O14 0.500000 0.120255 0.871557
#
# Coordination Sequence:
#
# PCOD9513190 Si02
#       6
#    32   8  32  32  32  32
#     4  12  23  43  62  90 127 168 208 262 310 380
#     4  12  28  44  60  86 128 166 220 258 316 370
#     4  10  21  39  64  93 127 163 203 257 324 388
#     4   9  18  37  64  95 130 163 204 260 317 380
#     4  10  21  38  64  95 123 157 202 258 325 383
#     4  10  23  41  64  94 126 167 214 260 310 368
#
# _framework density 20.670067
#
# number of rings (size 3 to 8) (size 9 to 14) (size 15 to 20)
#    0.000    1.714    1.905    2.286    1.333    4.571 
#    1.714    4.762    0.000    0.000    0.000    0.000 
#    0.000    0.000    0.000    0.000    0.000    0.000 
#
# Total GULP energy -234312.261679 kJ/mol
# GULP energy per Si atom -5578.863373 kJ/mol
# Density = 2.062302 g / cm^3
# Si number density = 20.670067 Si / 1000 Ang^3
#
#
#
# Elastic Constant Matrix: (Units=GPa)
#
#
# Indices 1 2 3 4 5 6 
#
# 1 73.9694 10.1949 15.9971 0.0000 0.0000 0.0000
# 2 10.1949 87.8446 41.2764 0.0000 0.0000 0.0000
# 3 15.9971 41.2764 81.6356 0.0000 0.0000 0.0000
# 4 0.0000 0.0000 0.0000 109.0828 0.0000 0.0000
# 5 0.0000 0.0000 0.0000 0.0000 -5.6815 0.0000
# 6 0.0000 0.0000 0.0000 0.0000 0.0000 -8.3844
#
#
#
# Elastic Compliance Matrix: (Units=1/GPa)
#
#
# Indices 1 2 3 4 5 6 
#
# 1 0.014131 -0.000444 -0.002544 0.000000 0.000000 0.000000
# 2 -0.000444 0.014945 -0.007469 0.000000 0.000000 0.000000
# 3 -0.002544 -0.007469 0.016525 0.000000 0.000000 0.000000
# 4 0.000000 0.000000 0.000000 0.009167 0.000000 0.000000
# 5 0.000000 0.000000 0.000000 0.000000 -0.176008 0.000000
# 6 0.000000 0.000000 0.000000 0.000000 0.000000 -0.119270
#
#
# Mechanical properties :
#
#
# Convention : Reuss Voigt Hill
#
# Bulk Modulus (GPa) = 40.51172 42.04294 41.27733
# Shear Modulus (GPa) = -23.65565 30.73545 3.53990
#
# Velocity S-wave (km/s) = -3.38663 3.86029 1.31007
# Velocity P-wave (km/s) = 2.08553 6.34455 4.72243
#
# Compressibility (1/GPa) = 0.02468422
#
# Stress axis : x y z
#
# Youngs Moduli (GPa) = 70.76834 66.91187 60.51513
#
# Poissons Ratio (x) = 0.02974 0.15397
# Poissons Ratio (y) = 0.03145 0.45201
# Poissons Ratio (z) = 0.18006 0.49979
#
# Static dielectric constant tensor:
#      x y z
#    x 1.787910 0.000000 0.000000 
#    y 0.000000 1.688790 0.000000 
#    z 0.000000 0.000000 1.713330 
# 
# From -- ./inp_files/17937.got.cif
#   From: 2010.05.17/outbox.cif.g08.bks.cpg/sg69_9_cif.got.tgz:17937.got - 2010.06.03 19:29:58.
