data_PCOD9513390
_publ_section_title
;
Structure prediction by ZEFSAII (Michael W. Deem and Ramdas Pophale) SiO2 
 PCOD9513390
Probable space group: F M M M
;
_chemical_formula_sum "Si O2"
_cell_formula_units_Z 160
_cell_length_a 20.554586
_cell_length_b 17.665684
_cell_length_c 24.724894
_cell_angle_alpha 90.000000
_cell_angle_beta 90.000000
_cell_angle_gamma 90.000000
_cell_volume 8977.876560
_symmetry_space_group_name_H-M "F M M M"
_symmetry_group_IT_number 69
_symmetry_cell_setting 'orthorhombic'
loop_
_space_group_symop_operation_xyz
x,y,z
-x,-y,z
x,-y,-z
-x,y,-z
-x,-y,-z
x,y,-z
-x,y,z
x,-y,z
x,1/2+y,1/2+z
-x,1/2-y,1/2+z
x,1/2-y,1/2-z
-x,1/2+y,1/2-z
-x,1/2-y,1/2-z
x,1/2+y,1/2-z
-x,1/2+y,1/2+z
x,1/2-y,1/2+z
1/2+x,y,1/2+z
1/2-x,-y,1/2+z
1/2+x,-y,1/2-z
1/2-x,y,1/2-z
1/2-x,-y,1/2-z
1/2+x,y,1/2-z
1/2-x,y,1/2+z
1/2+x,-y,1/2+z
1/2+x,1/2+y,z
1/2-x,1/2-y,z
1/2+x,1/2-y,-z
1/2-x,1/2+y,-z
1/2-x,1/2-y,-z
1/2+x,1/2+y,-z
1/2-x,1/2+y,z
1/2+x,1/2-y,z
loop_
_atom_site_type_symbol
_atom_site_label
_atom_site_fract_x
_atom_site_fract_y
_atom_site_fract_z
Si Si1 0.817151 0.834777 0.775359
Si Si2 0.120841 0.410996 0.000000
Si Si3 0.076593 0.411705 0.792238
Si Si4 0.575856 0.185312 0.899355
Si Si5 0.222862 0.910441 0.000000
Si Si6 0.311662 0.694729 0.901850
O O1 0.825315 0.750000 0.750000
O O2 0.750000 0.864819 0.750000
O O3 0.877736 0.884162 0.756018
O O4 0.809940 0.831906 0.839703
O O5 0.089974 0.372459 0.052328
O O6 0.198815 0.398605 0.000000
O O7 0.108559 0.500000 0.000000
O O8 0.088086 0.500000 0.805265
O O9 0.091591 0.358358 0.843569
O O10 0.000000 0.403043 0.779715
O O11 0.500000 0.206387 0.898427
O O12 0.623034 0.256154 0.907623
O O13 0.194424 0.870254 0.946599
O O14 0.210763 0.000000 0.000000
O O15 0.250000 0.750000 0.910343
#
# Coordination Sequence:
#
# PCOD9513390 Si02
#       6
#    32  16  32  32  16  32
#     4  11  21  37  60  91 121 154 204 251 297 356
#     4  11  22  36  56  84 119 158 193 237 302 368
#     4  10  22  39  58  87 127 163 195 242 306 369
#     4  11  22  36  59  90 119 156 200 247 300 359
#     4  11  26  42  63  91 121 163 209 252 309 362
#     4  12  21  41  66  86 121 160 203 258 301 352
#
# _framework density 17.821586
#
# number of rings (size 3 to 8) (size 9 to 14) (size 15 to 20)
#    0.000    1.000    6.000    1.800    0.000    4.000 
#    0.000    0.000    0.000    1.200    0.000    0.000 
#    0.000    0.000    0.000    0.000    0.000    0.000 
#
# Total GULP energy -223519.740487 kJ/mol
# GULP energy per Si atom -5587.993512 kJ/mol
# Density = 1.778102 g / cm^3
# Si number density = 17.821586 Si / 1000 Ang^3
#
#
#
# Elastic Constant Matrix: (Units=GPa)
#
#
# Indices 1 2 3 4 5 6 
#
# 1 76.1775 54.9678 35.7312 0.0000 0.0000 0.0000
# 2 54.9678 78.2414 54.6036 0.0000 0.0000 0.0000
# 3 35.7312 54.6036 132.5694 0.0000 0.0000 0.0000
# 4 0.0000 0.0000 0.0000 -1.9875 0.0000 0.0000
# 5 0.0000 0.0000 0.0000 0.0000 39.1014 0.0000
# 6 0.0000 0.0000 0.0000 0.0000 0.0000 28.7543
#
#
#
# Elastic Compliance Matrix: (Units=1/GPa)
#
#
# Indices 1 2 3 4 5 6 
#
# 1 0.026676 -0.019259 0.000743 0.000000 0.000000 0.000000
# 2 -0.019259 0.031842 -0.007924 0.000000 0.000000 0.000000
# 3 0.000743 -0.007924 0.010607 0.000000 0.000000 0.000000
# 4 0.000000 0.000000 0.000000 -0.503154 0.000000 0.000000
# 5 0.000000 0.000000 0.000000 0.000000 0.025575 0.000000
# 6 0.000000 0.000000 0.000000 0.000000 0.000000 0.034777
#
#
# Mechanical properties :
#
#
# Convention : Reuss Voigt Hill
#
# Bulk Modulus (GPa) = 61.56535 64.17703 62.87119
# Shear Modulus (GPa) = -15.85380 22.61937 3.38279
#
# Velocity S-wave (km/s) = -2.98582 3.56647 1.37922
# Velocity P-wave (km/s) = 4.76797 7.28345 6.15557
#
# Compressibility (1/GPa) = 0.01624290
#
# Stress axis : x y z
#
# Youngs Moduli (GPa) = 37.48713 31.40555 94.27824
#
# Poissons Ratio (x) = 0.60485 -0.07002
# Poissons Ratio (y) = 0.72197 0.74708
# Poissons Ratio (z) = -0.02784 0.24886
#
# Static dielectric constant tensor:
#      x y z
#    x 1.601170 0.000000 0.000000 
#    y 0.000000 1.592480 0.000000 
#    z 0.000000 0.000000 1.598540 
# 
# From -- ./inp_files/30822.got.cif
#   From: 2010.05.17/outbox.cif.g08.bks.cpg/sg69_16_cif.got.tgz:30822.got - 2010.06.03 19:29:58.
