data_PCOD9513614
_publ_section_title
;
Structure prediction by ZEFSAII (Michael W. Deem and Ramdas Pophale) SiO2 
 PCOD9513614
Probable space group: F M M M
;
_chemical_formula_sum "Si O2"
_cell_formula_units_Z 160
_cell_length_a 19.678359
_cell_length_b 33.099616
_cell_length_c 16.420020
_cell_angle_alpha 90.000000
_cell_angle_beta 90.000000
_cell_angle_gamma 90.000000
_cell_volume 10695.116423
_symmetry_space_group_name_H-M "F M M M"
_symmetry_group_IT_number 69
_symmetry_cell_setting 'orthorhombic'
loop_
_space_group_symop_operation_xyz
x,y,z
-x,-y,z
x,-y,-z
-x,y,-z
-x,-y,-z
x,y,-z
-x,y,z
x,-y,z
x,1/2+y,1/2+z
-x,1/2-y,1/2+z
x,1/2-y,1/2-z
-x,1/2+y,1/2-z
-x,1/2-y,1/2-z
x,1/2+y,1/2-z
-x,1/2+y,1/2+z
x,1/2-y,1/2+z
1/2+x,y,1/2+z
1/2-x,-y,1/2+z
1/2+x,-y,1/2-z
1/2-x,y,1/2-z
1/2-x,-y,1/2-z
1/2+x,y,1/2-z
1/2-x,y,1/2+z
1/2+x,-y,1/2+z
1/2+x,1/2+y,z
1/2-x,1/2-y,z
1/2+x,1/2-y,-z
1/2-x,1/2+y,-z
1/2-x,1/2-y,-z
1/2+x,1/2+y,-z
1/2-x,1/2+y,z
1/2+x,1/2-y,z
loop_
_atom_site_type_symbol
_atom_site_label
_atom_site_fract_x
_atom_site_fract_y
_atom_site_fract_z
Si Si1 0.648568 0.236108 0.591144
Si Si2 0.000000 0.316463 0.183458
Si Si3 0.579854 0.543992 0.401517
Si Si4 0.773751 0.309216 0.157411
Si Si5 0.500000 0.279294 0.142664
Si Si6 0.118902 0.132719 0.402477
O O1 0.652469 0.253268 0.500000
O O2 0.708342 0.204213 0.605922
O O3 0.670740 0.272650 0.650928
O O4 0.574310 0.216943 0.602307
O O5 0.000000 0.309670 0.280567
O O6 0.000000 0.269392 0.157685
O O7 0.063579 0.340806 0.146544
O O8 0.583360 0.543190 0.500000
O O9 0.500000 0.546892 0.380412
O O10 0.605338 0.500000 0.372391
O O11 0.614106 0.585873 0.376915
O O12 0.750000 0.314040 0.250000
O O13 0.809282 0.348055 0.119997
O O14 0.105508 0.135798 0.500000
#
# Coordination Sequence:
#
# PCOD9513614 Si02
#       6
#    32  16  32  32  16  32
#     4  11  21  34  49  65  86 119 164 207 239 276
#     4  11  21  29  44  68  95 124 157 187 231 276
#     4   8  14  25  44  73 103 124 145 184 236 282
#     4  11  22  33  46  63  91 123 159 198 241 279
#     4  11  23  33  47  65  92 123 155 201 243 277
#     4  11  19  31  50  71  96 127 162 197 227 282
#
# _framework density 14.960099
#
# number of rings (size 3 to 8) (size 9 to 14) (size 15 to 20)
#    0.000    1.600    3.000    6.000    2.800    0.800 
#    0.000    0.000    0.000    0.600    0.000    0.000 
#    0.000    0.000    0.000    0.000    0.000   26.300 
#
# Total GULP energy -222725.563822 kJ/mol
# GULP energy per Si atom -5568.139096 kJ/mol
# Density = 1.492605 g / cm^3
# Si number density = 14.960099 Si / 1000 Ang^3
#
#
#
# Elastic Constant Matrix: (Units=GPa)
#
#
# Indices 1 2 3 4 5 6 
#
# 1 90.2011 44.5313 13.4516 0.0000 0.0000 0.0000
# 2 44.5313 123.1503 27.3218 0.0000 0.0000 0.0000
# 3 13.4516 27.3218 54.5563 0.0000 0.0000 0.0000
# 4 0.0000 0.0000 0.0000 10.1828 0.0000 0.0000
# 5 0.0000 0.0000 0.0000 0.0000 23.5861 0.0000
# 6 0.0000 0.0000 0.0000 0.0000 0.0000 22.4734
#
#
#
# Elastic Compliance Matrix: (Units=1/GPa)
#
#
# Indices 1 2 3 4 5 6 
#
# 1 0.013544 -0.004676 -0.000998 0.000000 0.000000 0.000000
# 2 -0.004676 0.010750 -0.004230 0.000000 0.000000 0.000000
# 3 -0.000998 -0.004230 0.020694 0.000000 0.000000 0.000000
# 4 0.000000 0.000000 0.000000 0.098204 0.000000 0.000000
# 5 0.000000 0.000000 0.000000 0.000000 0.042398 0.000000
# 6 0.000000 0.000000 0.000000 0.000000 0.000000 0.044497
#
#
# Mechanical properties :
#
#
# Convention : Reuss Voigt Hill
#
# Bulk Modulus (GPa) = 39.71520 48.72412 44.21966
# Shear Modulus (GPa) = 19.35823 23.42200 21.39011
#
# Velocity S-wave (km/s) = 3.60111 3.96110 3.78539
# Velocity P-wave (km/s) = 6.62538 7.31850 6.98055
#
# Compressibility (1/GPa) = 0.02517928
#
# Stress axis : x y z
#
# Youngs Moduli (GPa) = 73.83539 93.02680 48.32258
#
# Poissons Ratio (x) = 0.43500 0.04821
# Poissons Ratio (y) = 0.34526 0.20443
# Poissons Ratio (z) = 0.07366 0.39354
#
# Static dielectric constant tensor:
#      x y z
#    x 1.529370 0.000000 0.000000 
#    y 0.000000 1.507170 0.000000 
#    z 0.000000 0.000000 1.507400 
# 
# From -- ./inp_files/25120.got.cif
#   From: 2010.05.17/outbox.cif.g08.bks.cpg/sg69_13_cif.got.tgz:25120.got - 2010.06.03 19:29:58.
