data_PCOD9513830
_publ_section_title
;
Structure prediction by ZEFSAII (Michael W. Deem and Ramdas Pophale) SiO2 
 PCOD9513830
Probable space group: F M M M
;
_chemical_formula_sum "Si O2"
_cell_formula_units_Z 160
_cell_length_a 28.320913
_cell_length_b 18.338879
_cell_length_c 17.076499
_cell_angle_alpha 90.000000
_cell_angle_beta 90.000000
_cell_angle_gamma 90.000000
_cell_volume 8869.086120
_symmetry_space_group_name_H-M "F M M M"
_symmetry_group_IT_number 69
_symmetry_cell_setting 'orthorhombic'
loop_
_space_group_symop_operation_xyz
x,y,z
-x,-y,z
x,-y,-z
-x,y,-z
-x,-y,-z
x,y,-z
-x,y,z
x,-y,z
x,1/2+y,1/2+z
-x,1/2-y,1/2+z
x,1/2-y,1/2-z
-x,1/2+y,1/2-z
-x,1/2-y,1/2-z
x,1/2+y,1/2-z
-x,1/2+y,1/2+z
x,1/2-y,1/2+z
1/2+x,y,1/2+z
1/2-x,-y,1/2+z
1/2+x,-y,1/2-z
1/2-x,y,1/2-z
1/2-x,-y,1/2-z
1/2+x,y,1/2-z
1/2-x,y,1/2+z
1/2+x,-y,1/2+z
1/2+x,1/2+y,z
1/2-x,1/2-y,z
1/2+x,1/2-y,-z
1/2-x,1/2+y,-z
1/2-x,1/2-y,-z
1/2+x,1/2+y,-z
1/2-x,1/2+y,z
1/2+x,1/2-y,z
loop_
_atom_site_type_symbol
_atom_site_label
_atom_site_fract_x
_atom_site_fract_y
_atom_site_fract_z
Si Si1 0.923180 0.910991 0.415440
Si Si2 0.180892 0.585148 0.125392
Si Si3 0.051075 0.588688 0.741832
Si Si4 0.227980 0.824737 0.909875
Si Si5 0.345001 0.086638 0.692740
O O1 0.942766 0.888222 0.500000
O O2 0.868442 0.887648 0.409916
O O3 0.945741 0.888128 0.333188
O O4 0.924542 0.000000 0.414215
O O5 0.183218 0.500000 0.107541
O O6 0.227442 0.621761 0.093864
O O7 0.175888 0.592646 0.219312
O O8 0.051892 0.500000 0.742065
O O9 0.099764 0.609045 0.699010
O O10 0.000000 0.611991 0.709619
O O11 0.250000 0.750000 0.876259
O O12 0.185549 0.861855 0.862777
O O13 0.213822 0.811526 0.000000
O O14 0.342061 0.000000 0.671102
#
# Coordination Sequence:
#
# PCOD9513830 Si02
#       5
#    32  32  32  32  32
#     4   8  13  21  36  62  94 125 156 188 227 280
#     4   9  17  30  48  69  94 125 158 190 231 288
#     4   8  14  25  42  66  96 127 159 199 241 276
#     4  11  23  34  45  67  96 124 158 199 243 291
#     4   9  18  32  50  72  97 127 163 197 233 285
#
# _framework density 18.040191
#
# number of rings (size 3 to 8) (size 9 to 14) (size 15 to 20)
#    0.000    3.000    0.000    4.200    0.000    6.000 
#    0.000    2.000    0.000    0.600    0.000   14.000 
#    0.000    6.400    0.000    0.000    0.000    0.200 
#
# Total GULP energy -222722.118843 kJ/mol
# GULP energy per Si atom -5568.052971 kJ/mol
# Density = 1.799913 g / cm^3
# Si number density = 18.040191 Si / 1000 Ang^3
#
#
#
# Elastic Constant Matrix: (Units=GPa)
#
#
# Indices 1 2 3 4 5 6 
#
# 1 136.9694 34.7287 44.8554 0.0000 0.0000 0.0000
# 2 34.7287 32.4309 30.4674 0.0000 0.0000 0.0000
# 3 44.8554 30.4674 50.2031 0.0000 0.0000 0.0000
# 4 0.0000 0.0000 0.0000 28.9590 0.0000 0.0000
# 5 0.0000 0.0000 0.0000 0.0000 -3.3506 0.0000
# 6 0.0000 0.0000 0.0000 0.0000 0.0000 0.4684
#
#
#
# Elastic Compliance Matrix: (Units=1/GPa)
#
#
# Indices 1 2 3 4 5 6 
#
# 1 0.010770 -0.005799 -0.006103 0.000000 0.000000 0.000000
# 2 -0.005799 0.074855 -0.040247 0.000000 0.000000 0.000000
# 3 -0.006103 -0.040247 0.049797 0.000000 0.000000 0.000000
# 4 0.000000 0.000000 0.000000 0.034532 0.000000 0.000000
# 5 0.000000 0.000000 0.000000 0.000000 -0.298457 0.000000
# 6 0.000000 0.000000 0.000000 0.000000 0.000000 2.134812
#
#
# Mechanical properties :
#
#
# Convention : Reuss Voigt Hill
#
# Bulk Modulus (GPa) = 32.12982 48.85629 40.49305
# Shear Modulus (GPa) = 2.35740 12.51883 7.43811
#
# Velocity S-wave (km/s) = 1.14437 2.63713 2.03274
# Velocity P-wave (km/s) = 4.42661 6.03435 5.29189
#
# Compressibility (1/GPa) = 0.03112374
#
# Stress axis : x y z
#
# Youngs Moduli (GPa) = 92.84994 13.35917 20.08149
#
# Poissons Ratio (x) = 0.07748 0.12256
# Poissons Ratio (y) = 0.53848 0.80821
# Poissons Ratio (z) = 0.56669 0.53766
#
# Static dielectric constant tensor:
#      x y z
#    x 1.646850 0.000000 0.000000 
#    y 0.000000 1.618230 0.000000 
#    z 0.000000 0.000000 1.635820 
# 
# From -- ./inp_files/23158.got.cif
#   From: 2010.05.17/outbox.cif.g08.bks.cpg/sg69_12_cif.got.tgz:23158.got - 2010.06.03 19:29:58.
