data_PCOD9513824
_publ_section_title
;
Structure prediction by ZEFSAII (Michael W. Deem and Ramdas Pophale) SiO2 
 PCOD9513824
Probable space group: F M M M
;
_chemical_formula_sum "Si O2"
_cell_formula_units_Z 128
_cell_length_a 13.660445
_cell_length_b 20.836837
_cell_length_c 24.501089
_cell_angle_alpha 90.000000
_cell_angle_beta 90.000000
_cell_angle_gamma 90.000000
_cell_volume 6974.001386
_symmetry_space_group_name_H-M "F M M M"
_symmetry_group_IT_number 69
_symmetry_cell_setting 'orthorhombic'
loop_
_space_group_symop_operation_xyz
x,y,z
-x,-y,z
x,-y,-z
-x,y,-z
-x,-y,-z
x,y,-z
-x,y,z
x,-y,z
x,1/2+y,1/2+z
-x,1/2-y,1/2+z
x,1/2-y,1/2-z
-x,1/2+y,1/2-z
-x,1/2-y,1/2-z
x,1/2+y,1/2-z
-x,1/2+y,1/2+z
x,1/2-y,1/2+z
1/2+x,y,1/2+z
1/2-x,-y,1/2+z
1/2+x,-y,1/2-z
1/2-x,y,1/2-z
1/2-x,-y,1/2-z
1/2+x,y,1/2-z
1/2-x,y,1/2+z
1/2+x,-y,1/2+z
1/2+x,1/2+y,z
1/2-x,1/2-y,z
1/2+x,1/2-y,-z
1/2-x,1/2+y,-z
1/2-x,1/2-y,-z
1/2+x,1/2+y,-z
1/2-x,1/2+y,z
1/2+x,1/2-y,z
loop_
_atom_site_type_symbol
_atom_site_label
_atom_site_fract_x
_atom_site_fract_y
_atom_site_fract_z
Si Si1 0.500000 0.319673 0.226059
Si Si2 0.500000 0.620095 0.655831
Si Si3 0.832706 0.305121 0.362097
Si Si4 0.500000 0.758506 0.932431
Si Si5 0.611293 0.423020 0.500000
Si Si6 0.201394 0.925680 0.386703
O O1 0.500000 0.250000 0.250000
O O2 0.500000 0.361841 0.280502
O O3 0.595178 0.320346 0.188011
O O4 0.500000 0.679282 0.610468
O O5 0.599097 0.581207 0.645140
O O6 0.750000 0.250000 0.352080
O O7 0.778353 0.372409 0.370239
O O8 0.902966 0.280130 0.411594
O O9 0.500000 0.765219 0.000000
O O10 0.604950 0.500000 0.500000
O O11 0.500000 0.399907 0.500000
O O12 0.670019 0.404976 0.447253
O O13 0.234012 0.000000 0.385448
#
# Coordination Sequence:
#
# PCOD9513824 Si02
#       6
#    16  16  32  16  16  32
#     4  11  22  43  62  88 122 163 212 249 299 364
#     4  12  22  39  63  95 125 159 199 263 306 359
#     4  11  23  42  65  91 121 165 207 253 300 365
#     4  11  25  41  61  96 130 154 199 264 315 351
#     4   9  18  34  59  85 125 167 196 240 299 370
#     4  11  23  39  61  95 128 161 204 250 309 367
#
# _framework density 18.353881000000001
#
# number of rings (size 3 to 8) (size 9 to 14) (size 15 to 20)
#    0.000    1.125    6.250    0.375    3.500    4.000 
#    0.000    6.250    0.000    0.750    0.000    0.000 
#    0.000    0.000    0.000    0.000    0.000    0.000 
#
# Total GULP energy -178256.125472 kJ/mol
# GULP energy per Si atom -5570.503921 kJ/mol
# Density = 1.831211 g / cm^3
# Si number density = 18.353881 Si / 1000 Ang^3
#
#
#
# Elastic Constant Matrix: (Units=GPa)
#
#
# Indices 1 2 3 4 5 6 
#
# 1 134.8326 72.9134 68.5841 0.0000 0.0000 0.0000
# 2 72.9134 118.4409 48.0099 0.0000 0.0000 0.0000
# 3 68.5841 48.0099 158.7393 0.0000 0.0000 0.0000
# 4 0.0000 0.0000 0.0000 17.6190 0.0000 0.0000
# 5 0.0000 0.0000 0.0000 0.0000 49.8429 0.0000
# 6 0.0000 0.0000 0.0000 0.0000 0.0000 74.4775
#
#
#
# Elastic Compliance Matrix: (Units=1/GPa)
#
#
# Indices 1 2 3 4 5 6 
#
# 1 0.012657 -0.006354 -0.003547 0.000000 0.000000 0.000000
# 2 -0.006354 0.012813 -0.001130 0.000000 0.000000 0.000000
# 3 -0.003547 -0.001130 0.008174 0.000000 0.000000 0.000000
# 4 0.000000 0.000000 0.000000 0.056757 0.000000 0.000000
# 5 0.000000 0.000000 0.000000 0.000000 0.020063 0.000000
# 6 0.000000 0.000000 0.000000 0.000000 0.000000 0.013427
#
#
# Mechanical properties :
#
#
# Convention : Reuss Voigt Hill
#
# Bulk Modulus (GPa) = 86.34051 87.89197 87.11624
# Shear Modulus (GPa) = 33.37531 43.22157 38.29844
#
# Velocity S-wave (km/s) = 4.26894 4.85800 4.57296
# Velocity P-wave (km/s) = 8.45237 8.91393 8.68622
#
# Compressibility (1/GPa) = 0.01158205
#
# Stress axis : x y z
#
# Youngs Moduli (GPa) = 79.00979 78.04845 122.34357
#
# Poissons Ratio (x) = 0.49591 0.43391
# Poissons Ratio (y) = 0.50202 0.13823
# Poissons Ratio (z) = 0.28022 0.08818
#
# Static dielectric constant tensor:
#      x y z
#    x 1.556140 0.000000 0.000000 
#    y 0.000000 1.621220 0.000000 
#    z 0.000000 0.000000 1.648480 
# 
# From -- ./inp_files/35019.got.cif
#   From: 2010.05.17/outbox.cif.g08.bks.cpg/sg69_18_cif.got.tgz:35019.got - 2010.06.03 19:29:58.
