data_PCOD9513372
_publ_section_title
;
Structure prediction by ZEFSAII (Michael W. Deem and Ramdas Pophale) SiO2 
 PCOD9513372
Probable space group: F M M M
;
_chemical_formula_sum "Si O2"
_cell_formula_units_Z 120
_cell_length_a 14.479010
_cell_length_b 26.364921
_cell_length_c 17.638234
_cell_angle_alpha 90.000000
_cell_angle_beta 90.000000
_cell_angle_gamma 90.000000
_cell_volume 6733.183374
_symmetry_space_group_name_H-M "F M M M"
_symmetry_group_IT_number 69
_symmetry_cell_setting 'orthorhombic'
loop_
_space_group_symop_operation_xyz
x,y,z
-x,-y,z
x,-y,-z
-x,y,-z
-x,-y,-z
x,y,-z
-x,y,z
x,-y,z
x,1/2+y,1/2+z
-x,1/2-y,1/2+z
x,1/2-y,1/2-z
-x,1/2+y,1/2-z
-x,1/2-y,1/2-z
x,1/2+y,1/2-z
-x,1/2+y,1/2+z
x,1/2-y,1/2+z
1/2+x,y,1/2+z
1/2-x,-y,1/2+z
1/2+x,-y,1/2-z
1/2-x,y,1/2-z
1/2-x,-y,1/2-z
1/2+x,y,1/2-z
1/2-x,y,1/2+z
1/2+x,-y,1/2+z
1/2+x,1/2+y,z
1/2-x,1/2-y,z
1/2+x,1/2-y,-z
1/2-x,1/2+y,-z
1/2-x,1/2-y,-z
1/2+x,1/2+y,-z
1/2-x,1/2+y,z
1/2+x,1/2-y,z
loop_
_atom_site_type_symbol
_atom_site_label
_atom_site_fract_x
_atom_site_fract_y
_atom_site_fract_z
Si Si1 0.000000 0.408469 0.213746
Si Si2 0.196412 0.000000 0.910281
Si Si3 0.707686 0.096223 0.165407
Si Si4 0.000000 0.000000 0.167056
Si Si5 0.500000 0.205569 0.810148
Si Si6 0.683967 0.298171 0.590218
O O1 0.097278 0.414368 0.169894
O O2 0.000000 0.348580 0.233433
O O3 0.000000 0.449850 0.280082
O O4 0.244550 0.950434 0.875926
O O5 0.091071 0.000000 0.883161
O O6 0.203723 0.000000 0.000000
O O7 0.750000 0.100015 0.250000
O O8 0.724507 0.148969 0.121779
O O9 0.500000 0.250000 0.750000
O O10 0.589451 0.208627 0.863522
O O11 0.667846 0.302052 0.500000
O O12 0.750000 0.250000 0.603975
#
# Coordination Sequence:
#
# PCOD9513372 Si02
#       6
#    16  16  32   8  16  32
#     4  10  22  38  62  92 112 152 202 254 296 338
#     4  12  25  40  61  91 125 160 195 244 309 362
#     4  11  22  40  64  89 120 157 205 252 292 365
#     4  12  21  40  60  86 127 150 200 240 301 354
#     4  10  23  37  61  91 120 158 202 250 297 355
#     4  10  23  40  61  89 124 159 198 250 307 357
#
# _framework density 17.822178999999998
#
# number of rings (size 3 to 8) (size 9 to 14) (size 15 to 20)
#    0.000    1.333    2.667    2.600    7.467    0.000 
#    0.000    2.667    0.000    4.800    0.000    0.000 
#    0.000    0.000    0.000    0.000    0.000    0.000 
#
# Total GULP energy -167540.552587 kJ/mol
# GULP energy per Si atom -5584.685086 kJ/mol
# Density = 1.778161 g / cm^3
# Si number density = 17.822179 Si / 1000 Ang^3
#
#
#
# Elastic Constant Matrix: (Units=GPa)
#
#
# Indices 1 2 3 4 5 6 
#
# 1 117.6105 84.5381 47.3265 0.0000 0.0000 0.0000
# 2 84.5381 190.9477 110.5462 0.0000 0.0000 0.0000
# 3 47.3265 110.5462 130.3586 0.0000 0.0000 0.0000
# 4 0.0000 0.0000 0.0000 34.3930 0.0000 0.0000
# 5 0.0000 0.0000 0.0000 0.0000 -4.7942 0.0000
# 6 0.0000 0.0000 0.0000 0.0000 0.0000 30.7926
#
#
#
# Elastic Compliance Matrix: (Units=1/GPa)
#
#
# Indices 1 2 3 4 5 6 
#
# 1 0.012478 -0.005700 0.000304 0.000000 0.000000 0.000000
# 2 -0.005700 0.012892 -0.008863 0.000000 0.000000 0.000000
# 3 0.000304 -0.008863 0.015077 0.000000 0.000000 0.000000
# 4 0.000000 0.000000 0.000000 0.029076 0.000000 0.000000
# 5 0.000000 0.000000 0.000000 0.000000 -0.208587 0.000000
# 6 0.000000 0.000000 0.000000 0.000000 0.000000 0.032475
#
#
# Mechanical properties :
#
#
# Convention : Reuss Voigt Hill
#
# Bulk Modulus (GPa) = 83.83935 102.63763 93.23849
# Shear Modulus (GPa) = -67.48051 25.17867 -21.15092
#
# Velocity S-wave (km/s) = -6.15999 3.76276 -3.44870
# Velocity P-wave (km/s) = 1.85732 8.75173 6.04744
#
# Compressibility (1/GPa) = 0.01192757
#
# Stress axis : x y z
#
# Youngs Moduli (GPa) = 80.14372 77.56936 66.32706
#
# Poissons Ratio (x) = 0.44215 -0.02015
# Poissons Ratio (y) = 0.45682 0.58785
# Poissons Ratio (z) = -0.02434 0.68749
#
# Static dielectric constant tensor:
#      x y z
#    x 1.599990 0.000000 0.000000 
#    y 0.000000 1.592480 0.000000 
#    z 0.000000 0.000000 1.568520 
# 
# From -- ./inp_files/14462.got.cif
#   From: 2010.05.17/outbox.cif.g08.bks.cpg/sg69_8_cif.got.tgz:14462.got - 2010.06.03 19:29:58.
