data_PCOD9513478
_publ_section_title
;
Structure prediction by ZEFSAII (Michael W. Deem and Ramdas Pophale) SiO2 
 PCOD9513478
Probable space group: F M M M
;
_chemical_formula_sum "Si O2"
_cell_formula_units_Z 104
_cell_length_a 22.606150
_cell_length_b 9.247212
_cell_length_c 23.192407
_cell_angle_alpha 90.000000
_cell_angle_beta 90.000000
_cell_angle_gamma 90.000000
_cell_volume 4848.230318
_symmetry_space_group_name_H-M "F M M M"
_symmetry_group_IT_number 69
_symmetry_cell_setting 'orthorhombic'
loop_
_space_group_symop_operation_xyz
x,y,z
-x,-y,z
x,-y,-z
-x,y,-z
-x,-y,-z
x,y,-z
-x,y,z
x,-y,z
x,1/2+y,1/2+z
-x,1/2-y,1/2+z
x,1/2-y,1/2-z
-x,1/2+y,1/2-z
-x,1/2-y,1/2-z
x,1/2+y,1/2-z
-x,1/2+y,1/2+z
x,1/2-y,1/2+z
1/2+x,y,1/2+z
1/2-x,-y,1/2+z
1/2+x,-y,1/2-z
1/2-x,y,1/2-z
1/2-x,-y,1/2-z
1/2+x,y,1/2-z
1/2-x,y,1/2+z
1/2+x,-y,1/2+z
1/2+x,1/2+y,z
1/2-x,1/2-y,z
1/2+x,1/2-y,-z
1/2-x,1/2+y,-z
1/2-x,1/2-y,-z
1/2+x,1/2+y,-z
1/2-x,1/2+y,z
1/2+x,1/2-y,z
loop_
_atom_site_type_symbol
_atom_site_label
_atom_site_fract_x
_atom_site_fract_y
_atom_site_fract_z
Si Si1 0.500000 0.500000 0.779835
Si Si2 0.119767 0.831348 0.069263
Si Si3 0.500000 0.335314 0.569954
Si Si4 0.593224 0.750000 0.250000
Si Si5 0.192211 0.331965 0.840993
O O1 0.551682 0.373661 0.776051
O O2 0.172087 0.747494 0.100485
O O3 0.058430 0.752535 0.086055
O O4 0.117940 0.000000 0.085744
O O5 0.124662 0.823486 0.000000
O O6 0.500000 0.500000 0.592844
O O7 0.500000 0.343843 0.500000
O O8 0.637051 0.685610 0.298174
O O9 0.204934 0.500000 0.850331
O O10 0.250000 0.250000 0.818568
#
# Coordination Sequence:
#
# PCOD9513478 Si02
#       5
#     8  32  16  16  32
#     4  10  24  46  74 106 140 170 216 278 350 404
#     4  10  22  41  65  97 135 180 232 282 338 400
#     4   9  17  33  59  90 128 172 219 275 336 394
#     4  11  25  48  74 106 137 173 220 280 342 413
#     4  12  27  45  70 100 137 185 231 277 337 403
#
# _framework density 21.451125000000001
#
# number of rings (size 3 to 8) (size 9 to 14) (size 15 to 20)
#    0.000    1.385    1.538    2.769    4.308    8.000 
#    2.769    0.000    0.000    0.000    0.000    0.000 
#    0.000    0.000    0.000    0.000    0.000    0.000 
#
# Total GULP energy -144978.190150 kJ/mol
# GULP energy per Si atom -5576.084237 kJ/mol
# Density = 2.140230 g / cm^3
# Si number density = 21.451125 Si / 1000 Ang^3
#
#
#
# Elastic Constant Matrix: (Units=GPa)
#
#
# Indices 1 2 3 4 5 6 
#
# 1 141.1117 66.1310 30.5050 0.0000 0.0000 0.0000
# 2 66.1310 218.5616 39.8098 0.0000 0.0000 0.0000
# 3 30.5050 39.8098 53.2471 0.0000 0.0000 0.0000
# 4 0.0000 0.0000 0.0000 9.1844 0.0000 0.0000
# 5 0.0000 0.0000 0.0000 0.0000 1.1401 0.0000
# 6 0.0000 0.0000 0.0000 0.0000 0.0000 34.6199
#
#
#
# Elastic Compliance Matrix: (Units=1/GPa)
#
#
# Indices 1 2 3 4 5 6 
#
# 1 0.008796 -0.002018 -0.003530 0.000000 0.000000 0.000000
# 2 -0.002018 0.005760 -0.003150 0.000000 0.000000 0.000000
# 3 -0.003530 -0.003150 0.023158 0.000000 0.000000 0.000000
# 4 0.000000 0.000000 0.000000 0.108880 0.000000 0.000000
# 5 0.000000 0.000000 0.000000 0.000000 0.877136 0.000000
# 6 0.000000 0.000000 0.000000 0.000000 0.000000 0.028885
#
#
# Mechanical properties :
#
#
# Convention : Reuss Voigt Hill
#
# Bulk Modulus (GPa) = 49.22093 76.20133 62.71113
# Shear Modulus (GPa) = 4.64346 27.42054 16.03200
#
# Velocity S-wave (km/s) = 1.47288 3.57918 2.73678
# Velocity P-wave (km/s) = 5.08802 7.25817 6.26773
#
# Compressibility (1/GPa) = 0.02031656
#
# Stress axis : x y z
#
# Youngs Moduli (GPa) = 113.69382 173.61655 43.18219
#
# Poissons Ratio (x) = 0.35042 0.15243
# Poissons Ratio (y) = 0.22947 0.13602
# Poissons Ratio (z) = 0.40133 0.54689
#
# Static dielectric constant tensor:
#      x y z
#    x 1.773680 0.000000 0.000000 
#    y 0.000000 1.725260 0.000000 
#    z 0.000000 0.000000 1.820460 
# 
# From -- ./inp_files/28475.got.cif
#   From: 2010.05.17/outbox.cif.g08.bks.cpg/sg69_15_cif.got.tgz:28475.got - 2010.06.03 19:29:58.
