data_PCOD9513929
_publ_section_title
;
Structure prediction by ZEFSAII (Michael W. Deem and Ramdas Pophale) SiO2 
 PCOD9513929
Probable space group: F M M M
;
_chemical_formula_sum "Si O2"
_cell_formula_units_Z 104
_cell_length_a 29.103996
_cell_length_b 7.713845
_cell_length_c 21.340977
_cell_angle_alpha 90.000000
_cell_angle_beta 90.000000
_cell_angle_gamma 90.000000
_cell_volume 4791.128597
_symmetry_space_group_name_H-M "F M M M"
_symmetry_group_IT_number 69
_symmetry_cell_setting 'orthorhombic'
loop_
_space_group_symop_operation_xyz
x,y,z
-x,-y,z
x,-y,-z
-x,y,-z
-x,-y,-z
x,y,-z
-x,y,z
x,-y,z
x,1/2+y,1/2+z
-x,1/2-y,1/2+z
x,1/2-y,1/2-z
-x,1/2+y,1/2-z
-x,1/2-y,1/2-z
x,1/2+y,1/2-z
-x,1/2+y,1/2+z
x,1/2-y,1/2+z
1/2+x,y,1/2+z
1/2-x,-y,1/2+z
1/2+x,-y,1/2-z
1/2-x,y,1/2-z
1/2-x,-y,1/2-z
1/2+x,y,1/2-z
1/2-x,y,1/2+z
1/2+x,-y,1/2+z
1/2+x,1/2+y,z
1/2-x,1/2-y,z
1/2+x,1/2-y,-z
1/2-x,1/2+y,-z
1/2-x,1/2-y,-z
1/2+x,1/2+y,-z
1/2-x,1/2+y,z
1/2+x,1/2-y,z
loop_
_atom_site_type_symbol
_atom_site_label
_atom_site_fract_x
_atom_site_fract_y
_atom_site_fract_z
Si Si1 0.197806 0.196771 0.399587
Si Si2 0.175402 0.000000 0.000000
Si Si3 0.380102 0.698180 0.181877
Si Si4 0.946074 0.790638 0.430851
O O1 0.250000 0.250000 0.385626
O O2 0.178827 0.344953 0.445968
O O3 0.164613 0.197776 0.339790
O O4 0.197792 0.000000 0.425919
O O5 0.366418 0.500000 0.185322
O O6 0.398136 0.750000 0.250000
O O7 0.417532 0.721879 0.127149
O O8 0.929848 0.729036 0.500000
O O9 0.000000 0.747163 0.425721
O O10 0.942348 0.000000 0.430539
#
# Coordination Sequence:
#
# PCOD9513929 Si02
#       4
#    32   8  32  32
#     4  12  25  43  67 101 138 178 222 279 331 398
#     4  12  24  44  66 104 137 176 221 282 334 400
#     4  12  26  45  65  95 131 177 230 274 334 404
#     4   9  20  41  68  99 132 169 215 272 338 400
#
# _framework density 21.706783999999999
#
# number of rings (size 3 to 8) (size 9 to 14) (size 15 to 20)
#    0.000    0.923    3.077    4.615    2.154    2.462 
#    0.000    4.615    0.000    0.000    0.000    0.000 
#    0.000    0.000    0.000    0.000    0.000    0.000 
#
# Total GULP energy -144857.062191 kJ/mol
# GULP energy per Si atom -5571.425469 kJ/mol
# Density = 2.165738 g / cm^3
# Si number density = 21.706784 Si / 1000 Ang^3
#
#
#
# Elastic Constant Matrix: (Units=GPa)
#
#
# Indices 1 2 3 4 5 6 
#
# 1 61.6357 18.0270 62.0176 0.0000 -0.0001 0.0000
# 2 18.0270 162.6504 33.2231 0.0001 -0.0002 -0.0001
# 3 62.0176 33.2231 171.0400 0.0000 -0.0001 0.0000
# 4 0.0000 0.0001 0.0000 34.5655 -0.0001 0.0000
# 5 -0.0001 -0.0002 -0.0001 -0.0001 51.8623 0.0001
# 6 0.0000 -0.0001 0.0000 0.0000 0.0001 23.5952
#
#
#
# Elastic Compliance Matrix: (Units=1/GPa)
#
#
# Indices 1 2 3 4 5 6 
#
# 1 0.025694 -0.000984 -0.009125 0.000000 0.000000 0.000000
# 2 -0.000984 0.006440 -0.000894 0.000000 0.000000 0.000000
# 3 -0.009125 -0.000894 0.009329 0.000000 0.000000 0.000000
# 4 0.000000 0.000000 0.000000 0.028931 0.000000 0.000000
# 5 0.000000 0.000000 0.000000 0.000000 0.019282 0.000000
# 6 0.000000 0.000000 0.000000 0.000000 0.000000 0.042382
#
#
# Mechanical properties :
#
#
# Convention : Reuss Voigt Hill
#
# Bulk Modulus (GPa) = 51.39727 69.09571 60.24649
# Shear Modulus (GPa) = 31.14318 40.80849 35.97584
#
# Velocity S-wave (km/s) = 3.79188 4.34059 4.07548
# Velocity P-wave (km/s) = 6.54985 7.55125 7.06831
#
# Compressibility (1/GPa) = 0.01945628
#
# Stress axis : x y z
#
# Youngs Moduli (GPa) = 38.91964 155.28347 107.19229
#
# Poissons Ratio (x) = 0.15277 0.97816
# Poissons Ratio (y) = 0.03829 0.09585
# Poissons Ratio (z) = 0.35515 0.13885
#
# Static dielectric constant tensor:
#      x y z
#    x 1.788270 0.000000 0.000000 
#    y 0.000000 1.801550 0.000000 
#    z 0.000000 0.000000 1.819670 
# 
# From -- ./inp_files/3915.got.cif
#   From: 2010.05.17/outbox.cif.g08.bks.cpg/sg69_2_cif.got.tgz:3915.got - 2010.06.03 19:29:58.
