data_PCOD9513833
_publ_section_title
;
Structure prediction by ZEFSAII (Michael W. Deem and Ramdas Pophale) SiO2 
 PCOD9513833
Probable space group: F M M M
;
_chemical_formula_sum "Si O2"
_cell_formula_units_Z 176
_cell_length_a 28.694940
_cell_length_b 23.460922
_cell_length_c 13.788126
_cell_angle_alpha 90.000000
_cell_angle_beta 90.000000
_cell_angle_gamma 90.000000
_cell_volume 9282.300845
_symmetry_space_group_name_H-M "F M M M"
_symmetry_group_IT_number 69
_symmetry_cell_setting 'orthorhombic'
loop_
_space_group_symop_operation_xyz
x,y,z
-x,-y,z
x,-y,-z
-x,y,-z
-x,-y,-z
x,y,-z
-x,y,z
x,-y,z
x,1/2+y,1/2+z
-x,1/2-y,1/2+z
x,1/2-y,1/2-z
-x,1/2+y,1/2-z
-x,1/2-y,1/2-z
x,1/2+y,1/2-z
-x,1/2+y,1/2+z
x,1/2-y,1/2+z
1/2+x,y,1/2+z
1/2-x,-y,1/2+z
1/2+x,-y,1/2-z
1/2-x,y,1/2-z
1/2-x,-y,1/2-z
1/2+x,y,1/2-z
1/2-x,y,1/2+z
1/2+x,-y,1/2+z
1/2+x,1/2+y,z
1/2-x,1/2-y,z
1/2+x,1/2-y,-z
1/2-x,1/2+y,-z
1/2-x,1/2-y,-z
1/2+x,1/2+y,-z
1/2-x,1/2+y,z
1/2+x,1/2-y,z
loop_
_atom_site_type_symbol
_atom_site_label
_atom_site_fract_x
_atom_site_fract_y
_atom_site_fract_z
Si Si1 0.303388 0.248445 0.616570
Si Si2 0.500000 0.567596 0.887828
Si Si3 0.908544 0.066469 0.755270
Si Si4 0.389971 0.170891 0.882714
Si Si5 0.448276 0.221501 0.617407
Si Si6 0.138447 0.640458 0.385560
O O1 0.304194 0.253518 0.500000
O O2 0.250000 0.250000 0.647600
O O3 0.341489 0.296531 0.647212
O O4 0.321148 0.184762 0.637951
O O5 0.500000 0.500000 0.902513
O O6 0.454602 0.578017 0.821439
O O7 0.500000 0.592585 0.000000
O O8 0.901249 0.110856 0.667447
O O9 0.865686 0.082737 0.826243
O O10 0.909357 0.000000 0.727322
O O11 0.430491 0.215846 0.854724
O O12 0.389321 0.165402 0.000000
O O13 0.449687 0.221872 0.500000
O O14 0.500000 0.207639 0.652642
O O15 0.407410 0.177716 0.640931
O O16 0.137897 0.629517 0.500000
#
# Coordination Sequence:
#
# PCOD9513833 Si02
#       6
#    32  16  32  32  32  32
#     4   8  15  32  59  87 111 137 176 226 280 340
#     4   9  20  38  55  72  99 141 190 234 270 305
#     4  11  23  36  51  75 106 144 192 228 259 319
#     4   9  19  35  54  78 109 142 179 224 274 325
#     4   8  15  28  48  74 102 131 164 209 269 330
#     4   9  18  32  52  79 107 134 171 220 276 332
#
# _framework density 18.960816000000001
#
# number of rings (size 3 to 8) (size 9 to 14) (size 15 to 20)
#    0.000    3.000    0.000    2.727    2.545    4.364 
#    0.000    2.727    0.000    3.818    0.000    5.091 
#    0.000    0.000    0.000    0.000    0.000    0.000 
#
# Total GULP energy -245175.514978 kJ/mol
# GULP energy per Si atom -5572.170795 kJ/mol
# Density = 1.891766 g / cm^3
# Si number density = 18.960816 Si / 1000 Ang^3
#
#
#
# Elastic Constant Matrix: (Units=GPa)
#
#
# Indices 1 2 3 4 5 6 
#
# 1 106.9814 21.9597 -6.9641 0.0000 0.0000 0.0000
# 2 21.9597 98.1462 3.8192 0.0000 0.0000 0.0000
# 3 -6.9641 3.8192 72.4621 0.0000 0.0000 0.0000
# 4 0.0000 0.0000 0.0000 34.6320 0.0000 0.0000
# 5 0.0000 0.0000 0.0000 0.0000 -6.0194 0.0000
# 6 0.0000 0.0000 0.0000 0.0000 0.0000 14.7719
#
#
#
# Elastic Compliance Matrix: (Units=1/GPa)
#
#
# Indices 1 2 3 4 5 6 
#
# 1 0.009879 -0.002252 0.001068 0.000000 0.000000 0.000000
# 2 -0.002252 0.010723 -0.000782 0.000000 0.000000 0.000000
# 3 0.001068 -0.000782 0.013944 0.000000 0.000000 0.000000
# 4 0.000000 0.000000 0.000000 0.028875 0.000000 0.000000
# 5 0.000000 0.000000 0.000000 0.000000 -0.166131 0.000000
# 6 0.000000 0.000000 0.000000 0.000000 0.000000 0.067696
#
#
# Mechanical properties :
#
#
# Convention : Reuss Voigt Hill
#
# Bulk Modulus (GPa) = 32.66302 35.02437 33.84370
# Shear Modulus (GPa) = -239.49753 25.92858 -106.78447
#
# Velocity S-wave (km/s) = -11.25105 3.70196 -7.51271
# Velocity P-wave (km/s) = 12.30924 6.06504 7.57406
#
# Compressibility (1/GPa) = 0.03061566
#
# Stress axis : x y z
#
# Youngs Moduli (GPa) = 101.22269 93.25608 71.71460
#
# Poissons Ratio (x) = 0.21001 -0.07660
# Poissons Ratio (y) = 0.22795 0.05605
# Poissons Ratio (z) = -0.10812 0.07289
#
# Static dielectric constant tensor:
#      x y z
#    x 1.667890 0.000000 0.000000 
#    y 0.000000 1.664820 0.000000 
#    z 0.000000 0.000000 1.736680 
# 
# From -- ./inp_files/19762.got.cif
#   From: 2010.05.17/outbox.cif.g08.bks.cpg/sg69_10_cif.got.tgz:19762.got - 2010.06.03 19:29:58.
