data_PCOD9513307
_publ_section_title
;
Structure prediction by ZEFSAII (Michael W. Deem and Ramdas Pophale) SiO2 
 PCOD9513307
Probable space group: F M M M
;
_chemical_formula_sum "Si O2"
_cell_formula_units_Z 136
_cell_length_a 16.195592
_cell_length_b 20.850147
_cell_length_c 19.142601
_cell_angle_alpha 90.000000
_cell_angle_beta 90.000000
_cell_angle_gamma 90.000000
_cell_volume 6464.082578
_symmetry_space_group_name_H-M "F M M M"
_symmetry_group_IT_number 69
_symmetry_cell_setting 'orthorhombic'
loop_
_space_group_symop_operation_xyz
x,y,z
-x,-y,z
x,-y,-z
-x,y,-z
-x,-y,-z
x,y,-z
-x,y,z
x,-y,z
x,1/2+y,1/2+z
-x,1/2-y,1/2+z
x,1/2-y,1/2-z
-x,1/2+y,1/2-z
-x,1/2-y,1/2-z
x,1/2+y,1/2-z
-x,1/2+y,1/2+z
x,1/2-y,1/2+z
1/2+x,y,1/2+z
1/2-x,-y,1/2+z
1/2+x,-y,1/2-z
1/2-x,y,1/2-z
1/2-x,-y,1/2-z
1/2+x,y,1/2-z
1/2-x,y,1/2+z
1/2+x,-y,1/2+z
1/2+x,1/2+y,z
1/2-x,1/2-y,z
1/2+x,1/2-y,-z
1/2-x,1/2+y,-z
1/2-x,1/2-y,-z
1/2+x,1/2+y,-z
1/2-x,1/2+y,z
1/2+x,1/2-y,z
loop_
_atom_site_type_symbol
_atom_site_label
_atom_site_fract_x
_atom_site_fract_y
_atom_site_fract_z
Si Si1 0.363942 0.612837 0.858193
Si Si2 0.000000 0.000000 0.880808
Si Si3 0.184117 0.377336 0.918465
Si Si4 0.907160 0.752100 0.081619
Si Si5 0.406240 0.075419 0.786787
O O1 0.427931 0.557105 0.879650
O O2 0.278032 0.607449 0.899048
O O3 0.397207 0.683606 0.874810
O O4 0.353049 0.606607 0.774649
O O5 0.160152 0.302796 0.905215
O O6 0.127823 0.415040 0.863802
O O7 0.167624 0.390342 0.000000
O O8 0.000000 0.725246 0.091808
O O9 0.899638 0.770401 0.000000
O O10 0.500000 0.100015 0.780565
O O11 0.409085 0.000000 0.770849
#
# Coordination Sequence:
#
# PCOD9513307 Si02
#       5
#    32   8  32  32  32
#     4  12  22  44  70 100 136 176 227 282 343 402
#     4  12  24  44  71 102 143 182 224 284 348 412
#     4  11  26  43  66 100 138 179 224 278 339 408
#     4  10  21  42  68  97 138 183 225 276 338 406
#     4  11  23  44  69  95 133 178 229 286 341 401
#
# _framework density 21.039335000000001
#
# number of rings (size 3 to 8) (size 9 to 14) (size 15 to 20)
#    0.000    0.941    3.529    2.824    1.647    5.647 
#    0.000   10.000    0.000    0.000    0.000    0.000 
#    0.000    0.000    0.000    0.000    0.000    0.000 
#
# Total GULP energy -189494.228918 kJ/mol
# GULP energy per Si atom -5573.359674 kJ/mol
# Density = 2.099145 g / cm^3
# Si number density = 21.039335 Si / 1000 Ang^3
#
#
#
# Elastic Constant Matrix: (Units=GPa)
#
#
# Indices 1 2 3 4 5 6 
#
# 1 88.4912 47.2740 34.5120 0.0000 0.0000 0.0000
# 2 47.2740 84.1888 54.0379 0.0000 0.0000 0.0000
# 3 34.5120 54.0379 96.0624 0.0000 0.0000 0.0000
# 4 0.0000 0.0000 0.0000 50.7048 0.0000 0.0000
# 5 0.0000 0.0000 0.0000 0.0000 23.6110 0.0000
# 6 0.0000 0.0000 0.0000 0.0000 0.0000 119.5228
#
#
#
# Elastic Compliance Matrix: (Units=1/GPa)
#
#
# Indices 1 2 3 4 5 6 
#
# 1 0.016217 -0.008399 -0.001101 0.000000 0.000000 0.000000
# 2 -0.008399 0.022941 -0.009887 0.000000 0.000000 0.000000
# 3 -0.001101 -0.009887 0.016367 0.000000 0.000000 0.000000
# 4 0.000000 0.000000 0.000000 0.019722 0.000000 0.000000
# 5 0.000000 0.000000 0.000000 0.000000 0.042353 0.000000
# 6 0.000000 0.000000 0.000000 0.000000 0.000000 0.008367
#
#
# Mechanical properties :
#
#
# Convention : Reuss Voigt Hill
#
# Bulk Modulus (GPa) = 59.70362 60.04336 59.87349
# Shear Modulus (GPa) = 29.35536 47.62895 38.49215
#
# Velocity S-wave (km/s) = 3.73937 4.76311 4.28194
# Velocity P-wave (km/s) = 6.86168 7.67139 7.27780
#
# Compressibility (1/GPa) = 0.01674940
#
# Stress axis : x y z
#
# Youngs Moduli (GPa) = 61.66267 43.59038 61.09684
#
# Poissons Ratio (x) = 0.36613 0.06729
# Poissons Ratio (y) = 0.51793 0.60408
# Poissons Ratio (z) = 0.06791 0.43099
#
# Static dielectric constant tensor:
#      x y z
#    x 1.772890 0.000000 0.000000 
#    y 0.000000 1.747550 0.000000 
#    z 0.000000 0.000000 1.766890 
# 
# From -- ./inp_files/22589.got.cif
#   From: 2010.05.17/outbox.cif.g08.bks.cpg/sg69_12_cif.got.tgz:22589.got - 2010.06.03 19:29:58.
