data_PCOD9513216
_publ_section_title
;
Structure prediction by ZEFSAII (Michael W. Deem and Ramdas Pophale) SiO2 
 PCOD9513216
Probable space group: F M M M
;
_chemical_formula_sum "Si O2"
_cell_formula_units_Z 144
_cell_length_a 8.525225
_cell_length_b 32.356309
_cell_length_c 27.226501
_cell_angle_alpha 90.000000
_cell_angle_beta 90.000000
_cell_angle_gamma 90.000000
_cell_volume 7510.289115
_symmetry_space_group_name_H-M "F M M M"
_symmetry_group_IT_number 69
_symmetry_cell_setting 'orthorhombic'
loop_
_space_group_symop_operation_xyz
x,y,z
-x,-y,z
x,-y,-z
-x,y,-z
-x,-y,-z
x,y,-z
-x,y,z
x,-y,z
x,1/2+y,1/2+z
-x,1/2-y,1/2+z
x,1/2-y,1/2-z
-x,1/2+y,1/2-z
-x,1/2-y,1/2-z
x,1/2+y,1/2-z
-x,1/2+y,1/2+z
x,1/2-y,1/2+z
1/2+x,y,1/2+z
1/2-x,-y,1/2+z
1/2+x,-y,1/2-z
1/2-x,y,1/2-z
1/2-x,-y,1/2-z
1/2+x,y,1/2-z
1/2-x,y,1/2+z
1/2+x,-y,1/2+z
1/2+x,1/2+y,z
1/2-x,1/2-y,z
1/2+x,1/2-y,-z
1/2-x,1/2+y,-z
1/2-x,1/2-y,-z
1/2+x,1/2+y,-z
1/2-x,1/2+y,z
1/2+x,1/2-y,z
loop_
_atom_site_type_symbol
_atom_site_label
_atom_site_fract_x
_atom_site_fract_y
_atom_site_fract_z
Si Si1 0.313189 0.121016 0.555734
Si Si2 0.813417 0.670192 0.696334
Si Si3 0.687582 0.000000 0.694587
Si Si4 0.314427 0.914161 0.154101
Si Si5 0.313398 0.205265 0.095977
O O1 0.275032 0.109200 0.500000
O O2 0.500000 0.116776 0.563282
O O3 0.224191 0.095291 0.597328
O O4 0.265799 0.168555 0.565182
O O5 0.750000 0.681237 0.750000
O O6 0.769575 0.622443 0.684609
O O7 0.733443 0.696027 0.652613
O O8 0.000000 0.675442 0.693859
O O9 0.750000 0.000000 0.750000
O O10 0.751173 0.958660 0.669123
O O11 0.500000 0.000000 0.694097
O O12 0.500000 0.911242 0.162844
O O13 0.500000 0.203056 0.090833
O O14 0.250000 0.250000 0.081729
#
# Coordination Sequence:
#
# PCOD9513216 Si02
#       5
#    32  32  16  32  32
#     4  10  21  39  62  86 113 148 188 231 282 336
#     4  11  21  36  56  80 111 149 190 230 279 336
#     4  12  24  40  61  88 121 154 190 231 277 327
#     4  11  22  38  59  86 117 149 188 232 280 332
#     4  11  22  37  56  81 112 146 187 235 285 335
#
# _framework density 19.173694999999999
#
# number of rings (size 3 to 8) (size 9 to 14) (size 15 to 20)
#    0.000    1.111    0.000   11.000    0.000    2.667 
#    0.000    2.778    0.000    3.333    0.000    0.000 
#    0.000    0.000    0.000    0.000    0.000    0.000 
#
# Total GULP energy -201410.648414 kJ/mol
# GULP energy per Si atom -5594.740234 kJ/mol
# Density = 1.913006 g / cm^3
# Si number density = 19.173695 Si / 1000 Ang^3
#
#
#
# Elastic Constant Matrix: (Units=GPa)
#
#
# Indices 1 2 3 4 5 6 
#
# 1 69.6467 -10.3524 -5.1763 0.0000 0.0000 0.0000
# 2 -10.3524 82.8834 -0.1336 0.0000 0.0000 0.0000
# 3 -5.1763 -0.1336 62.9117 0.0000 0.0000 0.0000
# 4 0.0000 0.0000 0.0000 -0.8845 0.0000 0.0000
# 5 0.0000 0.0000 0.0000 0.0000 31.0357 0.0000
# 6 0.0000 0.0000 0.0000 0.0000 0.0000 32.5522
#
#
#
# Elastic Compliance Matrix: (Units=1/GPa)
#
#
# Indices 1 2 3 4 5 6 
#
# 1 0.014722 0.001841 0.001215 0.000000 0.000000 0.000000
# 2 0.001841 0.012295 0.000178 0.000000 0.000000 0.000000
# 3 0.001215 0.000178 0.015996 0.000000 0.000000 0.000000
# 4 0.000000 0.000000 0.000000 -1.130563 0.000000 0.000000
# 5 0.000000 0.000000 0.000000 0.000000 0.032221 0.000000
# 6 0.000000 0.000000 0.000000 0.000000 0.000000 0.030720
#
#
# Mechanical properties :
#
#
# Convention : Reuss Voigt Hill
#
# Bulk Modulus (GPa) = 20.21006 20.45747 20.33377
# Shear Modulus (GPa) = -4.92813 27.94762 11.50974
#
# Velocity S-wave (km/s) = -1.60494 3.82200 2.45274
# Velocity P-wave (km/s) = 2.67001 5.49269 4.31848
#
# Compressibility (1/GPa) = 0.04948031
#
# Stress axis : x y z
#
# Youngs Moduli (GPa) = 67.92506 81.33156 62.51692
#
# Poissons Ratio (x) = -0.14971 -0.07597
# Poissons Ratio (y) = -0.12504 -0.01110
# Poissons Ratio (z) = -0.08254 -0.01444
#
# Static dielectric constant tensor:
#      x y z
#    x 1.638900 0.000000 0.000000 
#    y 0.000000 1.645340 0.000000 
#    z 0.000000 0.000000 1.662730 
# 
# From -- ./inp_files/44535.got.cif
#   From: 2010.05.17/outbox.cif.g08.bks.cpg/sg69_23_cif.got.tgz:44535.got - 2010.06.03 19:29:58.
