data_PCOD9513184
_publ_section_title
;
Structure prediction by ZEFSAII (Michael W. Deem and Ramdas Pophale) SiO2 
 PCOD9513184
Probable space group: F M M M
;
_chemical_formula_sum "Si O2"
_cell_formula_units_Z 104
_cell_length_a 13.490316
_cell_length_b 23.464689
_cell_length_c 13.572479
_cell_angle_alpha 90.000000
_cell_angle_beta 90.000000
_cell_angle_gamma 90.000000
_cell_volume 4296.314880
_symmetry_space_group_name_H-M "F M M M"
_symmetry_group_IT_number 69
_symmetry_cell_setting 'orthorhombic'
loop_
_space_group_symop_operation_xyz
x,y,z
-x,-y,z
x,-y,-z
-x,y,-z
-x,-y,-z
x,y,-z
-x,y,z
x,-y,z
x,1/2+y,1/2+z
-x,1/2-y,1/2+z
x,1/2-y,1/2-z
-x,1/2+y,1/2-z
-x,1/2-y,1/2-z
x,1/2+y,1/2-z
-x,1/2+y,1/2+z
x,1/2-y,1/2+z
1/2+x,y,1/2+z
1/2-x,-y,1/2+z
1/2+x,-y,1/2-z
1/2-x,y,1/2-z
1/2-x,-y,1/2-z
1/2+x,y,1/2-z
1/2-x,y,1/2+z
1/2+x,-y,1/2+z
1/2+x,1/2+y,z
1/2-x,1/2-y,z
1/2+x,1/2-y,-z
1/2-x,1/2+y,-z
1/2-x,1/2-y,-z
1/2+x,1/2+y,-z
1/2-x,1/2+y,z
1/2+x,1/2-y,z
loop_
_atom_site_type_symbol
_atom_site_label
_atom_site_fract_x
_atom_site_fract_y
_atom_site_fract_z
Si Si1 0.383189 0.919205 0.824302
Si Si2 0.690355 0.500000 0.500000
Si Si3 0.617858 0.090709 0.606602
Si Si4 0.222498 0.312701 0.111315
O O1 0.500000 0.927912 0.842010
O O2 0.360434 0.937572 0.712075
O O3 0.353668 0.852507 0.830023
O O4 0.326180 0.950937 0.911681
O O5 0.638579 0.060845 0.500000
O O6 0.500000 0.100271 0.608210
O O7 0.678302 0.149162 0.606282
O O8 0.250000 0.250000 0.146072
O O9 0.182907 0.306607 0.000000
#
# Coordination Sequence:
#
# PCOD9513184 Si02
#       4
#    32   8  32  32
#     4  11  22  39  66  93 126 167 211 264 314 371
#     4  12  25  44  66  94 125 162 215 270 320 366
#     4   9  20  39  61  87 125 168 207 251 309 377
#     4  10  21  38  63  95 132 167 205 261 320 379
#
# _framework density 24.206792
#
# number of rings (size 3 to 8) (size 9 to 14) (size 15 to 20)
#    0.000    1.846    1.538    2.308    0.000    3.692 
#    0.000   10.000    0.000    3.692    0.000    0.000 
#    0.000    0.000    0.000    0.000    0.000    0.000 
#
# Total GULP energy -144816.276691 kJ/mol
# GULP energy per Si atom -5569.856796 kJ/mol
# Density = 2.415170 g / cm^3
# Si number density = 24.206792 Si / 1000 Ang^3
#
#
#
# Elastic Constant Matrix: (Units=GPa)
#
#
# Indices 1 2 3 4 5 6 
#
# 1 88.6629 3.0114 28.7783 0.0000 0.0000 0.0000
# 2 3.0114 188.1135 34.5722 0.0000 0.0000 0.0000
# 3 28.7783 34.5722 240.1576 0.0000 0.0000 0.0000
# 4 0.0000 0.0000 0.0000 -44.6422 0.0000 0.0000
# 5 0.0000 0.0000 0.0000 0.0000 42.0149 0.0000
# 6 0.0000 0.0000 0.0000 0.0000 0.0000 22.5714
#
#
#
# Elastic Compliance Matrix: (Units=1/GPa)
#
#
# Indices 1 2 3 4 5 6 
#
# 1 0.011736 0.000073 -0.001417 0.000000 0.000000 0.000000
# 2 0.000073 0.005461 -0.000795 0.000000 0.000000 0.000000
# 3 -0.001417 -0.000795 0.004448 0.000000 0.000000 0.000000
# 4 0.000000 0.000000 0.000000 -0.022400 0.000000 0.000000
# 5 0.000000 0.000000 0.000000 0.000000 0.023801 0.000000
# 6 0.000000 0.000000 0.000000 0.000000 0.000000 0.044304
#
#
# Mechanical properties :
#
#
# Convention : Reuss Voigt Hill
#
# Bulk Modulus (GPa) = 57.58093 72.18422 64.88258
# Shear Modulus (GPa) = 64.58540 34.02695 49.30618
#
# Velocity S-wave (km/s) = 5.17094 3.75330 4.51807
# Velocity P-wave (km/s) = 7.71299 6.97622 7.35384
#
# Compressibility (1/GPa) = 0.01736686
#
# Stress axis : x y z
#
# Youngs Moduli (GPa) = 85.20742 183.12165 224.81381
#
# Poissons Ratio (x) = -0.01328 0.31851
# Poissons Ratio (y) = -0.00618 0.17868
# Poissons Ratio (z) = 0.12072 0.14555
#
# Static dielectric constant tensor:
#      x y z
#    x 1.974000 0.000000 0.000000 
#    y 0.000000 1.893960 0.000000 
#    z 0.000000 0.000000 1.992590 
# 
# From -- ./inp_files/14077.got.cif
#   From: 2010.05.17/outbox.cif.g08.bks.cpg/sg69_8_cif.got.tgz:14077.got - 2010.06.03 19:29:58.
