data_PCOD9513380
_publ_section_title
;
Structure prediction by ZEFSAII (Michael W. Deem and Ramdas Pophale) SiO2 
 PCOD9513380
Probable space group: F M M M
;
_chemical_formula_sum "Si O2"
_cell_formula_units_Z 160
_cell_length_a 28.124870
_cell_length_b 13.764812
_cell_length_c 18.853629
_cell_angle_alpha 90.000000
_cell_angle_beta 90.000000
_cell_angle_gamma 90.000000
_cell_volume 7298.872289
_symmetry_space_group_name_H-M "F M M M"
_symmetry_group_IT_number 69
_symmetry_cell_setting 'orthorhombic'
loop_
_space_group_symop_operation_xyz
x,y,z
-x,-y,z
x,-y,-z
-x,y,-z
-x,-y,-z
x,y,-z
-x,y,z
x,-y,z
x,1/2+y,1/2+z
-x,1/2-y,1/2+z
x,1/2-y,1/2-z
-x,1/2+y,1/2-z
-x,1/2-y,1/2-z
x,1/2+y,1/2-z
-x,1/2+y,1/2+z
x,1/2-y,1/2+z
1/2+x,y,1/2+z
1/2-x,-y,1/2+z
1/2+x,-y,1/2-z
1/2-x,y,1/2-z
1/2-x,-y,1/2-z
1/2+x,y,1/2-z
1/2-x,y,1/2+z
1/2+x,-y,1/2+z
1/2+x,1/2+y,z
1/2-x,1/2-y,z
1/2+x,1/2-y,-z
1/2-x,1/2+y,-z
1/2-x,1/2-y,-z
1/2+x,1/2+y,-z
1/2-x,1/2+y,z
1/2+x,1/2-y,z
loop_
_atom_site_type_symbol
_atom_site_label
_atom_site_fract_x
_atom_site_fract_y
_atom_site_fract_z
Si Si1 0.106413 0.881223 0.344314
Si Si2 0.885009 0.384424 0.000000
Si Si3 0.553727 0.118963 0.298634
Si Si4 0.806046 0.765398 0.000000
Si Si5 0.355445 0.110965 0.621015
Si Si6 0.801275 0.889838 0.729568
O O1 0.092302 0.855916 0.424498
O O2 0.071999 0.852371 0.280011
O O3 0.160102 0.845494 0.324499
O O4 0.108696 0.000000 0.340996
O O5 0.881661 0.500000 0.000000
O O6 0.833030 0.337088 0.000000
O O7 0.500000 0.150551 0.311331
O O8 0.592102 0.148806 0.357911
O O9 0.554596 0.000000 0.299404
O O10 0.750000 0.750000 0.000000
O O11 0.825459 0.825769 0.933011
O O12 0.329441 0.106139 0.696743
O O13 0.359326 0.000000 0.594207
O O14 0.750000 0.848979 0.750000
O O15 0.791715 0.000000 0.703301
#
# Coordination Sequence:
#
# PCOD9513380 Si02
#       6
#    32  16  32  16  32  32
#     4   8  15  29  51  79 107 145 190 234 281 335
#     4  10  22  39  57  75 112 160 197 239 293 344
#     4   8  14  30  61  95 120 148 190 238 294 358
#     4  12  27  39  53  81 118 155 203 246 291 357
#     4   9  19  37  59  85 121 156 187 239 299 353
#     4   8  14  26  50  77 103 142 191 230 274 336
#
# _framework density 21.921194
#
# number of rings (size 3 to 8) (size 9 to 14) (size 15 to 20)
#    0.000    3.200    0.000    2.700    2.800    0.800 
#    0.000    5.000    0.000    9.000    0.000    0.000 
#    0.000    0.000    0.000    0.000    0.000    0.000 
#
# Total GULP energy -223233.266255 kJ/mol
# GULP energy per Si atom -5580.831656 kJ/mol
# Density = 2.187130 g / cm^3
# Si number density = 21.921194 Si / 1000 Ang^3
#
#
#
# Elastic Constant Matrix: (Units=GPa)
#
#
# Indices 1 2 3 4 5 6 
#
# 1 162.1445 24.6349 51.5202 0.0000 0.0000 0.0000
# 2 24.6349 82.3367 36.3915 0.0000 0.0000 0.0000
# 3 51.5202 36.3915 134.0264 0.0000 0.0000 0.0000
# 4 0.0000 0.0000 0.0000 15.6015 0.0000 0.0000
# 5 0.0000 0.0000 0.0000 0.0000 10.4969 0.0000
# 6 0.0000 0.0000 0.0000 0.0000 0.0000 18.9175
#
#
#
# Elastic Compliance Matrix: (Units=1/GPa)
#
#
# Indices 1 2 3 4 5 6 
#
# 1 0.007103 -0.001044 -0.002447 0.000000 0.000000 0.000000
# 2 -0.001044 0.013955 -0.003388 0.000000 0.000000 0.000000
# 3 -0.002447 -0.003388 0.009322 0.000000 0.000000 0.000000
# 4 0.000000 0.000000 0.000000 0.064096 0.000000 0.000000
# 5 0.000000 0.000000 0.000000 0.000000 0.095266 0.000000
# 6 0.000000 0.000000 0.000000 0.000000 0.000000 0.052861
#
#
# Mechanical properties :
#
#
# Convention : Reuss Voigt Hill
#
# Bulk Modulus (GPa) = 60.15908 67.06674 63.61291
# Shear Modulus (GPa) = 19.09105 26.73390 22.91247
#
# Velocity S-wave (km/s) = 2.95429 3.49599 3.23649
# Velocity P-wave (km/s) = 6.25620 6.85250 6.56113
#
# Compressibility (1/GPa) = 0.01662260
#
# Stress axis : x y z
#
# Youngs Moduli (GPa) = 140.77574 71.65929 107.27507
#
# Poissons Ratio (x) = 0.07479 0.26252
# Poissons Ratio (y) = 0.14693 0.36344
# Poissons Ratio (z) = 0.34451 0.24277
#
# Static dielectric constant tensor:
#      x y z
#    x 1.785300 0.000000 0.000000 
#    y 0.000000 1.906810 0.000000 
#    z 0.000000 0.000000 1.797260 
# 
# From -- ./inp_files/27494.got.cif
#   From: 2010.05.17/outbox.cif.g08.bks.cpg/sg69_14_cif.got.tgz:27494.got - 2010.06.03 19:29:58.
