data_PCOD9513954
_publ_section_title
;
Structure prediction by ZEFSAII (Michael W. Deem and Ramdas Pophale) SiO2 
 PCOD9513954
Probable space group: F M M M
;
_chemical_formula_sum "Si O2"
_cell_formula_units_Z 160
_cell_length_a 30.203392
_cell_length_b 14.470201
_cell_length_c 20.465280
_cell_angle_alpha 90.000000
_cell_angle_beta 90.000000
_cell_angle_gamma 90.000000
_cell_volume 8944.333292
_symmetry_space_group_name_H-M "F M M M"
_symmetry_group_IT_number 69
_symmetry_cell_setting 'orthorhombic'
loop_
_space_group_symop_operation_xyz
x,y,z
-x,-y,z
x,-y,-z
-x,y,-z
-x,-y,-z
x,y,-z
-x,y,z
x,-y,z
x,1/2+y,1/2+z
-x,1/2-y,1/2+z
x,1/2-y,1/2-z
-x,1/2+y,1/2-z
-x,1/2-y,1/2-z
x,1/2+y,1/2-z
-x,1/2+y,1/2+z
x,1/2-y,1/2+z
1/2+x,y,1/2+z
1/2-x,-y,1/2+z
1/2+x,-y,1/2-z
1/2-x,y,1/2-z
1/2-x,-y,1/2-z
1/2+x,y,1/2-z
1/2-x,y,1/2+z
1/2+x,-y,1/2+z
1/2+x,1/2+y,z
1/2-x,1/2-y,z
1/2+x,1/2-y,-z
1/2-x,1/2+y,-z
1/2-x,1/2-y,-z
1/2+x,1/2+y,-z
1/2-x,1/2+y,z
1/2+x,1/2-y,z
loop_
_atom_site_type_symbol
_atom_site_label
_atom_site_fract_x
_atom_site_fract_y
_atom_site_fract_z
Si Si1 0.388518 0.108506 0.649914
Si Si2 0.228812 0.887010 0.319357
Si Si3 0.199810 0.387209 0.425898
Si Si4 0.049415 0.265302 0.171540
Si Si5 0.870147 0.890891 0.304340
O O1 0.347747 0.137498 0.604405
O O2 0.431618 0.171116 0.641090
O O3 0.373426 0.120714 0.725604
O O4 0.397384 0.000000 0.640212
O O5 0.250000 0.859926 0.250000
O O6 0.260978 0.858131 0.377600
O O7 0.178141 0.855331 0.325273
O O8 0.227358 0.000000 0.318821
O O9 0.205066 0.354842 0.500000
O O10 0.200656 0.500000 0.426262
O O11 0.046803 0.250000 0.250000
O O12 0.088368 0.339822 0.163472
O O13 0.000000 0.289942 0.149136
O O14 0.872797 0.000000 0.317481
#
# Coordination Sequence:
#
# PCOD9513954 Si02
#       5
#    32  32  32  32  32
#     4   9  16  28  46  66  93 128 160 192 236 288
#     4   9  14  24  44  68  94 126 160 193 229 279
#     4   9  16  26  44  71 100 129 159 193 236 286
#     4   9  18  30  44  66  94 119 154 205 248 287
#     4   9  16  27  46  69  94 126 161 194 235 288
#
# _framework density 17.888421000000001
#
# number of rings (size 3 to 8) (size 9 to 14) (size 15 to 20)
#    0.000    3.000    2.000    0.000    0.000    0.800 
#    0.000    5.000    0.000    3.000    0.000    2.800 
#    0.000    0.000    0.000    9.600    0.000    2.200 
#
# Total GULP energy -223006.284488 kJ/mol
# GULP energy per Si atom -5575.157112 kJ/mol
# Density = 1.784771 g / cm^3
# Si number density = 17.888421 Si / 1000 Ang^3
#
#
#
# Elastic Constant Matrix: (Units=GPa)
#
#
# Indices 1 2 3 4 5 6 
#
# 1 187.8058 46.6057 58.0348 0.0000 0.0000 0.0000
# 2 46.6057 44.3787 27.0516 0.0000 0.0000 0.0000
# 3 58.0348 27.0516 71.2201 0.0000 0.0000 0.0000
# 4 0.0000 0.0000 0.0000 2.5424 0.0000 0.0000
# 5 0.0000 0.0000 0.0000 0.0000 11.7426 0.0000
# 6 0.0000 0.0000 0.0000 0.0000 0.0000 -258.3519
#
#
#
# Elastic Compliance Matrix: (Units=1/GPa)
#
#
# Indices 1 2 3 4 5 6 
#
# 1 0.008142 -0.005864 -0.004407 0.000000 0.000000 0.000000
# 2 -0.005864 0.033546 -0.007963 0.000000 0.000000 0.000000
# 3 -0.004407 -0.007963 0.020657 0.000000 0.000000 0.000000
# 4 0.000000 0.000000 0.000000 0.393329 0.000000 0.000000
# 5 0.000000 0.000000 0.000000 0.000000 0.085160 0.000000
# 6 0.000000 0.000000 0.000000 0.000000 0.000000 -0.003871
#
#
# Mechanical properties :
#
#
# Convention : Reuss Voigt Hill
#
# Bulk Modulus (GPa) = 38.64658 62.97655 50.81157
# Shear Modulus (GPa) = 8.59023 -37.36589 -14.38783
#
# Velocity S-wave (km/s) = 2.19375 -4.57533 -2.83911
# Velocity P-wave (km/s) = 5.29791 2.71479 4.20939
#
# Compressibility (1/GPa) = 0.02587551
#
# Stress axis : x y z
#
# Youngs Moduli (GPa) = 122.82482 29.81008 48.40987
#
# Poissons Ratio (x) = 0.17480 0.21335
# Poissons Ratio (y) = 0.72023 0.38551
# Poissons Ratio (z) = 0.54130 0.23739
#
# Static dielectric constant tensor:
#      x y z
#    x 1.609470 0.000000 0.000000 
#    y 0.000000 1.662050 0.000000 
#    z 0.000000 0.000000 1.590260 
# 
# From -- ./inp_files/33935.got.cif
#   From: 2010.05.17/outbox.cif.g08.bks.cpg/sg69_17_cif.got.tgz:33935.got - 2010.06.03 19:29:58.
