data_PCOD9513359
_publ_section_title
;
Structure prediction by ZEFSAII (Michael W. Deem and Ramdas Pophale) SiO2 
 PCOD9513359
Probable space group: F M M M
;
_chemical_formula_sum "Si O2"
_cell_formula_units_Z 176
_cell_length_a 17.604506
_cell_length_b 17.579539
_cell_length_c 31.327502
_cell_angle_alpha 90.000000
_cell_angle_beta 90.000000
_cell_angle_gamma 90.000000
_cell_volume 9695.207118
_symmetry_space_group_name_H-M "F M M M"
_symmetry_group_IT_number 69
_symmetry_cell_setting 'orthorhombic'
loop_
_space_group_symop_operation_xyz
x,y,z
-x,-y,z
x,-y,-z
-x,y,-z
-x,-y,-z
x,y,-z
-x,y,z
x,-y,z
x,1/2+y,1/2+z
-x,1/2-y,1/2+z
x,1/2-y,1/2-z
-x,1/2+y,1/2-z
-x,1/2-y,1/2-z
x,1/2+y,1/2-z
-x,1/2+y,1/2+z
x,1/2-y,1/2+z
1/2+x,y,1/2+z
1/2-x,-y,1/2+z
1/2+x,-y,1/2-z
1/2-x,y,1/2-z
1/2-x,-y,1/2-z
1/2+x,y,1/2-z
1/2-x,y,1/2+z
1/2+x,-y,1/2+z
1/2+x,1/2+y,z
1/2-x,1/2-y,z
1/2+x,1/2-y,-z
1/2-x,1/2+y,-z
1/2-x,1/2-y,-z
1/2+x,1/2+y,-z
1/2-x,1/2+y,z
1/2+x,1/2-y,z
loop_
_atom_site_type_symbol
_atom_site_label
_atom_site_fract_x
_atom_site_fract_y
_atom_site_fract_z
Si Si1 0.587113 0.416789 0.159517
Si Si2 0.825639 0.642327 0.418549
Si Si3 0.589903 0.707945 0.388964
Si Si4 0.160162 0.908208 0.449061
Si Si5 0.416789 0.090485 0.500000
Si Si6 0.910667 0.744342 0.702954
O O1 0.500000 0.412911 0.142176
O O2 0.595295 0.500000 0.179849
O O3 0.647335 0.406593 0.121933
O O4 0.595594 0.343863 0.189363
O O5 0.854911 0.727207 0.408227
O O6 0.739598 0.626273 0.431817
O O7 0.873408 0.615707 0.458599
O O8 0.500000 0.730645 0.389847
O O9 0.600246 0.633359 0.417954
O O10 0.613707 0.706369 0.338599
O O11 0.150786 0.891133 0.500000
O O12 0.160090 0.000000 0.444909
O O13 0.500000 0.124852 0.500000
O O14 0.421001 0.000000 0.500000
O O15 0.874984 0.750000 0.750000
O O16 0.000000 0.763589 0.707295
#
# Coordination Sequence:
#
# PCOD9513359 Si02
#       6
#    32  32  32  32  16  32
#     4   9  16  27  47  77 109 139 171 212 272 339
#     4  11  20  34  54  76 107 141 179 224 271 329
#     4  10  22  38  58  84 109 141 186 233 280 331
#     4  11  24  40  56  76 109 154 198 235 273 322
#     4  11  20  28  45  76 110 140 171 217 272 320
#     4   8  15  31  54  79 107 136 172 226 285 336
#
# _framework density 18.153300000000002
#
# number of rings (size 3 to 8) (size 9 to 14) (size 15 to 20)
#    0.000    2.091    0.909    4.909    1.273    2.909 
#    0.000    1.818    0.000   12.000    0.000    6.364 
#    0.000    0.000    0.000    0.000    0.000    0.000 
#
# Total GULP energy -244992.767756 kJ/mol
# GULP energy per Si atom -5568.017449 kJ/mol
# Density = 1.811198 g / cm^3
# Si number density = 18.153300 Si / 1000 Ang^3
#
#
#
# Elastic Constant Matrix: (Units=GPa)
#
#
# Indices 1 2 3 4 5 6 
#
# 1 36.5924 20.1925 24.4704 0.0000 0.0000 0.0000
# 2 20.1925 71.8585 45.3934 0.0000 0.0000 0.0000
# 3 24.4704 45.3934 127.0234 0.0000 0.0000 0.0000
# 4 0.0000 0.0000 0.0000 1.2237 0.0000 0.0000
# 5 0.0000 0.0000 0.0000 0.0000 32.3315 0.0000
# 6 0.0000 0.0000 0.0000 0.0000 0.0000 25.1760
#
#
#
# Elastic Compliance Matrix: (Units=1/GPa)
#
#
# Indices 1 2 3 4 5 6 
#
# 1 0.033872 -0.006969 -0.004035 0.000000 0.000000 0.000000
# 2 -0.006969 0.019408 -0.005593 0.000000 0.000000 0.000000
# 3 -0.004035 -0.005593 0.010649 0.000000 0.000000 0.000000
# 4 0.000000 0.000000 0.000000 0.817215 0.000000 0.000000
# 5 0.000000 0.000000 0.000000 0.000000 0.030930 0.000000
# 6 0.000000 0.000000 0.000000 0.000000 0.000000 0.039720
#
#
# Mechanical properties :
#
#
# Convention : Reuss Voigt Hill
#
# Bulk Modulus (GPa) = 32.53700 46.17631 39.35666
# Shear Modulus (GPa) = 5.02395 21.44077 13.23236
#
# Velocity S-wave (km/s) = 1.66539 3.44043 2.70279
# Velocity P-wave (km/s) = 4.65407 6.42450 5.60957
#
# Compressibility (1/GPa) = 0.03073424
#
# Stress axis : x y z
#
# Youngs Moduli (GPa) = 29.52282 51.52569 93.90955
#
# Poissons Ratio (x) = 0.35911 0.37889
# Poissons Ratio (y) = 0.20576 0.52524
# Poissons Ratio (z) = 0.11911 0.28818
#
# Static dielectric constant tensor:
#      x y z
#    x 1.690180 0.000000 0.000000 
#    y 0.000000 1.646020 0.000000 
#    z 0.000000 0.000000 1.628870 
# 
# From -- ./inp_files/23528.got.cif
#   From: 2010.05.17/outbox.cif.g08.bks.cpg/sg69_12_cif.got.tgz:23528.got - 2010.06.03 19:29:58.
