data_PCOD9513776
_publ_section_title
;
Structure prediction by ZEFSAII (Michael W. Deem and Ramdas Pophale) SiO2 
 PCOD9513776
Probable space group: F M M M
;
_chemical_formula_sum "Si O2"
_cell_formula_units_Z 120
_cell_length_a 18.508254
_cell_length_b 16.274966
_cell_length_c 23.747432
_cell_angle_alpha 90.000000
_cell_angle_beta 90.000000
_cell_angle_gamma 90.000000
_cell_volume 7153.230072
_symmetry_space_group_name_H-M "F M M M"
_symmetry_group_IT_number 69
_symmetry_cell_setting 'orthorhombic'
loop_
_space_group_symop_operation_xyz
x,y,z
-x,-y,z
x,-y,-z
-x,y,-z
-x,-y,-z
x,y,-z
-x,y,z
x,-y,z
x,1/2+y,1/2+z
-x,1/2-y,1/2+z
x,1/2-y,1/2-z
-x,1/2+y,1/2-z
-x,1/2-y,1/2-z
x,1/2+y,1/2-z
-x,1/2+y,1/2+z
x,1/2-y,1/2+z
1/2+x,y,1/2+z
1/2-x,-y,1/2+z
1/2+x,-y,1/2-z
1/2-x,y,1/2-z
1/2-x,-y,1/2-z
1/2+x,y,1/2-z
1/2-x,y,1/2+z
1/2+x,-y,1/2+z
1/2+x,1/2+y,z
1/2-x,1/2-y,z
1/2+x,1/2-y,-z
1/2-x,1/2+y,-z
1/2-x,1/2-y,-z
1/2+x,1/2+y,-z
1/2-x,1/2+y,z
1/2+x,1/2-y,z
loop_
_atom_site_type_symbol
_atom_site_label
_atom_site_fract_x
_atom_site_fract_y
_atom_site_fract_z
Si Si1 0.915691 0.000000 0.432259
Si Si2 0.750000 0.250000 0.000000
Si Si3 0.916255 0.211676 0.812612
Si Si4 0.716214 0.097194 0.311524
Si Si5 0.665533 0.833819 0.104427
O O1 0.876045 0.081909 0.410564
O O2 0.912488 0.000000 0.500000
O O3 0.000000 0.000000 0.415114
O O4 0.696650 0.210876 0.950499
O O5 0.910055 0.250000 0.750000
O O6 0.863827 0.133539 0.814339
O O7 0.886337 0.275593 0.858702
O O8 0.000000 0.192496 0.822947
O O9 0.750000 0.113125 0.250000
O O10 0.766428 0.142058 0.356655
O O11 0.716999 0.000000 0.321536
#
# Coordination Sequence:
#
# PCOD9513776 Si02
#       5
#    16   8  32  32  32
#     4  11  24  40  59  88 125 157 192 248 308 352
#     4  12  24  34  66  88 114 162 214 236 290 340
#     4  11  23  39  61  88 121 158 195 246 305 356
#     4  11  22  38  63  89 116 155 197 244 296 360
#     4  12  22  40  61  90 118 156 204 247 287 361
#
# _framework density 16.775638000000001
#
# number of rings (size 3 to 8) (size 9 to 14) (size 15 to 20)
#    0.000    0.667    8.000    0.800    0.000    0.533 
#    0.000    0.000    0.000    0.000    0.000    1.867 
#    0.000    0.000    0.000    0.000    0.000    0.000 
#
# Total GULP energy -167057.762904 kJ/mol
# GULP energy per Si atom -5568.592097 kJ/mol
# Density = 1.673746 g / cm^3
# Si number density = 16.775638 Si / 1000 Ang^3
#
#
#
# Elastic Constant Matrix: (Units=GPa)
#
#
# Indices 1 2 3 4 5 6 
#
# 1 152.6131 51.7335 56.7045 0.0000 0.0000 0.0000
# 2 51.7335 62.0519 43.2432 0.0000 0.0000 0.0000
# 3 56.7045 43.2432 123.6503 0.0000 0.0000 0.0000
# 4 0.0000 0.0000 0.0000 15.5591 0.0000 0.0000
# 5 0.0000 0.0000 0.0000 0.0000 9.3182 0.0000
# 6 0.0000 0.0000 0.0000 0.0000 0.0000 19.6236
#
#
#
# Elastic Compliance Matrix: (Units=1/GPa)
#
#
# Indices 1 2 3 4 5 6 
#
# 1 0.009531 -0.006479 -0.002105 0.000000 0.000000 0.000000
# 2 -0.006479 0.025714 -0.006021 0.000000 0.000000 0.000000
# 3 -0.002105 -0.006021 0.011158 0.000000 0.000000 0.000000
# 4 0.000000 0.000000 0.000000 0.064271 0.000000 0.000000
# 5 0.000000 0.000000 0.000000 0.000000 0.107317 0.000000
# 6 0.000000 0.000000 0.000000 0.000000 0.000000 0.050959
#
#
# Mechanical properties :
#
#
# Convention : Reuss Voigt Hill
#
# Bulk Modulus (GPa) = 58.16628 71.29754 64.73191
# Shear Modulus (GPa) = 16.45323 21.34244 18.89784
#
# Velocity S-wave (km/s) = 3.13514 3.57070 3.35999
# Velocity P-wave (km/s) = 6.91764 7.71964 7.32962
#
# Compressibility (1/GPa) = 0.01719209
#
# Stress axis : x y z
#
# Youngs Moduli (GPa) = 104.92135 38.89001 89.61892
#
# Poissons Ratio (x) = 0.25198 0.18863
# Poissons Ratio (y) = 0.67981 0.53962
# Poissons Ratio (z) = 0.22084 0.23417
#
# Static dielectric constant tensor:
#      x y z
#    x 1.549820 0.000000 0.000000 
#    y 0.000000 1.557080 0.000000 
#    z 0.000000 0.000000 1.547050 
# 
# From -- ./inp_files/22531.got.cif
#   From: 2010.05.17/outbox.cif.g08.bks.cpg/sg69_12_cif.got.tgz:22531.got - 2010.06.03 19:29:58.
