data_PCOD9513339
_publ_section_title
;
Structure prediction by ZEFSAII (Michael W. Deem and Ramdas Pophale) SiO2 
 PCOD9513339
Probable space group: F M M M
;
_chemical_formula_sum "Si O2"
_cell_formula_units_Z 176
_cell_length_a 22.651331
_cell_length_b 27.699770
_cell_length_c 14.367176
_cell_angle_alpha 90.000000
_cell_angle_beta 90.000000
_cell_angle_gamma 90.000000
_cell_volume 9014.492907
_symmetry_space_group_name_H-M "F M M M"
_symmetry_group_IT_number 69
_symmetry_cell_setting 'orthorhombic'
loop_
_space_group_symop_operation_xyz
x,y,z
-x,-y,z
x,-y,-z
-x,y,-z
-x,-y,-z
x,y,-z
-x,y,z
x,-y,z
x,1/2+y,1/2+z
-x,1/2-y,1/2+z
x,1/2-y,1/2-z
-x,1/2+y,1/2-z
-x,1/2-y,1/2-z
x,1/2+y,1/2-z
-x,1/2+y,1/2+z
x,1/2-y,1/2+z
1/2+x,y,1/2+z
1/2-x,-y,1/2+z
1/2+x,-y,1/2-z
1/2-x,y,1/2-z
1/2-x,-y,1/2-z
1/2+x,y,1/2-z
1/2-x,y,1/2+z
1/2+x,-y,1/2+z
1/2+x,1/2+y,z
1/2-x,1/2-y,z
1/2+x,1/2-y,-z
1/2-x,1/2+y,-z
1/2-x,1/2-y,-z
1/2+x,1/2+y,-z
1/2-x,1/2+y,z
1/2+x,1/2-y,z
loop_
_atom_site_type_symbol
_atom_site_label
_atom_site_fract_x
_atom_site_fract_y
_atom_site_fract_z
Si Si1 0.066901 0.709554 0.829863
Si Si2 0.340593 0.942961 0.390647
Si Si3 0.194831 0.776415 0.351102
Si Si4 0.718524 0.114124 0.888929
Si Si5 0.000000 0.556962 0.103712
Si Si6 0.103660 0.898698 0.279671
O O1 0.062635 0.750000 0.750000
O O2 0.126896 0.722867 0.887332
O O3 0.085091 0.657635 0.786141
O O4 0.000000 0.705745 0.871335
O O5 0.354954 0.938475 0.500000
O O6 0.279169 0.914407 0.375011
O O7 0.388285 0.918008 0.324210
O O8 0.334440 0.000000 0.369522
O O9 0.189929 0.750000 0.250000
O O10 0.250000 0.750000 0.399074
O O11 0.217320 0.831407 0.350229
O O12 0.664933 0.091050 0.832783
O O13 0.706757 0.115803 0.000000
O O14 0.944414 0.573472 0.161843
O O15 0.000000 0.500000 0.095738
O O16 0.000000 0.578742 0.000000
#
# Coordination Sequence:
#
# PCOD9513339 Si02
#       6
#    32  32  32  32  16  32
#     4   9  18  33  56  87 116 158 203 242 302 368
#     4  10  23  41  61  89 123 160 207 262 316 377
#     4   9  19  31  56  84 116 161 203 254 303 372
#     4  10  22  37  59  91 126 161 206 257 314 377
#     4  11  24  40  60  91 125 157 205 256 301 363
#     4  11  21  38  65  88 121 165 204 251 314 372
#
# _framework density 19.524115999999999
#
# number of rings (size 3 to 8) (size 9 to 14) (size 15 to 20)
#    0.000    2.091    0.909    1.636   12.727    2.545 
#    0.000    2.273    0.000    2.727    0.000    0.000 
#    0.000    0.000    0.000    0.000    0.000    0.000 
#
# Total GULP energy -245113.243918 kJ/mol
# GULP energy per Si atom -5570.755544 kJ/mol
# Density = 1.947968 g / cm^3
# Si number density = 19.524116 Si / 1000 Ang^3
#
#
#
# Elastic Constant Matrix: (Units=GPa)
#
#
# Indices 1 2 3 4 5 6 
#
# 1 148.4415 41.7831 53.6713 0.0000 0.0000 0.0000
# 2 41.7831 85.4867 42.2462 0.0000 0.0000 0.0000
# 3 53.6713 42.2462 100.6190 0.0000 0.0000 0.0000
# 4 0.0000 0.0000 0.0000 49.3276 0.0000 0.0000
# 5 0.0000 0.0000 0.0000 0.0000 20.6606 0.0000
# 6 0.0000 0.0000 0.0000 0.0000 0.0000 50.7408
#
#
#
# Elastic Compliance Matrix: (Units=1/GPa)
#
#
# Indices 1 2 3 4 5 6 
#
# 1 0.008746 -0.002485 -0.003622 0.000000 0.000000 0.000000
# 2 -0.002485 0.015466 -0.005168 0.000000 0.000000 0.000000
# 3 -0.003622 -0.005168 0.014040 0.000000 0.000000 0.000000
# 4 0.000000 0.000000 0.000000 0.020273 0.000000 0.000000
# 5 0.000000 0.000000 0.000000 0.000000 0.048401 0.000000
# 6 0.000000 0.000000 0.000000 0.000000 0.000000 0.019708
#
#
# Mechanical properties :
#
#
# Convention : Reuss Voigt Hill
#
# Bulk Modulus (GPa) = 63.68376 67.77203 65.72789
# Shear Modulus (GPa) = 32.37964 37.26889 34.82426
#
# Velocity S-wave (km/s) = 4.07682 4.37380 4.22791
# Velocity P-wave (km/s) = 7.40604 7.76493 7.58760
#
# Compressibility (1/GPa) = 0.01570259
#
# Stress axis : x y z
#
# Youngs Moduli (GPa) = 114.34392 64.65669 71.22330
#
# Poissons Ratio (x) = 0.16065 0.25795
# Poissons Ratio (y) = 0.28411 0.36811
# Poissons Ratio (z) = 0.41412 0.33417
#
# Static dielectric constant tensor:
#      x y z
#    x 1.778120 0.000000 0.000000 
#    y 0.000000 1.728250 0.000000 
#    z 0.000000 0.000000 1.682990 
# 
# From -- ./inp_files/18097.got.cif
#   From: 2010.05.17/outbox.cif.g08.bks.cpg/sg69_10_cif.got.tgz:18097.got - 2010.06.03 19:29:58.
