data_PCOD9513626
_publ_section_title
;
Structure prediction by ZEFSAII (Michael W. Deem and Ramdas Pophale) SiO2 
 PCOD9513626
Probable space group: F M M M
;
_chemical_formula_sum "Si O2"
_cell_formula_units_Z 120
_cell_length_a 20.793066
_cell_length_b 16.907405
_cell_length_c 17.897840
_cell_angle_alpha 90.000000
_cell_angle_beta 90.000000
_cell_angle_gamma 90.000000
_cell_volume 6292.107143
_symmetry_space_group_name_H-M "F M M M"
_symmetry_group_IT_number 69
_symmetry_cell_setting 'orthorhombic'
loop_
_space_group_symop_operation_xyz
x,y,z
-x,-y,z
x,-y,-z
-x,y,-z
-x,-y,-z
x,y,-z
-x,y,z
x,-y,z
x,1/2+y,1/2+z
-x,1/2-y,1/2+z
x,1/2-y,1/2-z
-x,1/2+y,1/2-z
-x,1/2-y,1/2-z
x,1/2+y,1/2-z
-x,1/2+y,1/2+z
x,1/2-y,1/2+z
1/2+x,y,1/2+z
1/2-x,-y,1/2+z
1/2+x,-y,1/2-z
1/2-x,y,1/2-z
1/2-x,-y,1/2-z
1/2+x,y,1/2-z
1/2-x,y,1/2+z
1/2+x,-y,1/2+z
1/2+x,1/2+y,z
1/2-x,1/2-y,z
1/2+x,1/2-y,-z
1/2-x,1/2+y,-z
1/2-x,1/2-y,-z
1/2+x,1/2+y,-z
1/2-x,1/2+y,z
1/2+x,1/2-y,z
loop_
_atom_site_type_symbol
_atom_site_label
_atom_site_fract_x
_atom_site_fract_y
_atom_site_fract_z
Si Si1 0.750000 0.750000 0.250000
Si Si2 0.735765 0.000000 0.088369
Si Si3 0.327850 0.262968 0.000000
Si Si4 0.569705 0.129128 0.000000
Si Si5 0.926805 0.500000 0.299230
Si Si6 0.669477 0.134888 0.356758
Si Si7 0.092150 0.000000 0.624910
O O1 0.703702 0.807150 0.297914
O O2 0.776432 0.075810 0.111544
O O3 0.668923 0.000000 0.130365
O O4 0.723264 0.000000 0.000000
O O5 0.250000 0.250000 0.000000
O O6 0.349194 0.311190 0.073066
O O7 0.366974 0.181926 0.000000
O O8 0.572584 0.074284 0.073698
O O9 0.500000 0.170989 0.000000
O O10 0.886555 0.422127 0.325029
O O11 0.930992 0.500000 0.209320
O O12 0.000000 0.500000 0.329040
#
# Coordination Sequence:
#
# PCOD9513626 Si02
#       7
#     8  16  16  16  16  32  16
#     4  12  24  40  62 104 132 152 208 270 348 384
#     4  11  19  39  67  96 120 162 215 270 315 376
#     4  12  23  42  66  94 130 167 213 274 330 380
#     4  11  24  38  60  93 128 170 217 261 324 394
#     4  11  26  46  64  91 132 181 223 259 309 389
#     4  11  25  40  67  94 130 169 212 266 327 383
#     4  11  21  40  66  91 127 171 215 264 317 386
#
# _framework density 19.071511999999998
#
# number of rings (size 3 to 8) (size 9 to 14) (size 15 to 20)
#    0.000    0.800    4.000    4.800    3.733    3.200 
#    0.000    1.333    0.000    0.000    0.000    0.000 
#    0.000    0.000    0.000    0.000    0.000    0.000 
#
# Total GULP energy -167618.323399 kJ/mol
# GULP energy per Si atom -5587.277447 kJ/mol
# Density = 1.902810 g / cm^3
# Si number density = 19.071512 Si / 1000 Ang^3
#
#
#
# Elastic Constant Matrix: (Units=GPa)
#
#
# Indices 1 2 3 4 5 6 
#
# 1 137.9759 51.7490 33.0937 0.0000 0.0000 0.0000
# 2 51.7490 123.1203 57.8074 0.0000 0.0000 0.0000
# 3 33.0937 57.8074 124.4365 0.0000 0.0000 0.0000
# 4 0.0000 0.0000 0.0000 20.2020 0.0000 0.0000
# 5 0.0000 0.0000 0.0000 0.0000 29.5191 0.0000
# 6 0.0000 0.0000 0.0000 0.0000 0.0000 23.4606
#
#
#
# Elastic Compliance Matrix: (Units=1/GPa)
#
#
# Indices 1 2 3 4 5 6 
#
# 1 0.008663 -0.003274 -0.000783 0.000000 0.000000 0.000000
# 2 -0.003274 0.011625 -0.004530 0.000000 0.000000 0.000000
# 3 -0.000783 -0.004530 0.010349 0.000000 0.000000 0.000000
# 4 0.000000 0.000000 0.000000 0.049500 0.000000 0.000000
# 5 0.000000 0.000000 0.000000 0.000000 0.033876 0.000000
# 6 0.000000 0.000000 0.000000 0.000000 0.000000 0.042625
#
#
# Mechanical properties :
#
#
# Convention : Reuss Voigt Hill
#
# Bulk Modulus (GPa) = 74.27287 74.53698 74.40492
# Shear Modulus (GPa) = 28.04278 30.82853 29.43565
#
# Velocity S-wave (km/s) = 3.83874 4.02490 3.93292
# Velocity P-wave (km/s) = 7.66008 7.79535 7.72801
#
# Compressibility (1/GPa) = 0.01346387
#
# Stress axis : x y z
#
# Youngs Moduli (GPa) = 115.42983 86.02251 96.62898
#
# Poissons Ratio (x) = 0.28160 0.07569
# Poissons Ratio (y) = 0.37786 0.43771
# Poissons Ratio (z) = 0.09041 0.38966
#
# Static dielectric constant tensor:
#      x y z
#    x 1.670050 0.000000 0.000000 
#    y 0.000000 1.660670 0.000000 
#    z 0.000000 0.000000 1.629160 
# 
# From -- ./inp_files/22558.got.cif
#   From: 2010.05.17/outbox.cif.g08.bks.cpg/sg69_12_cif.got.tgz:22558.got - 2010.06.03 19:29:58.
