data_PCOD9513772
_publ_section_title
;
Structure prediction by ZEFSAII (Michael W. Deem and Ramdas Pophale) SiO2 
 PCOD9513772
Probable space group: F M M M
;
_chemical_formula_sum "Si O2"
_cell_formula_units_Z 160
_cell_length_a 16.395962
_cell_length_b 22.639631
_cell_length_c 20.562391
_cell_angle_alpha 90.000000
_cell_angle_beta 90.000000
_cell_angle_gamma 90.000000
_cell_volume 7632.729304
_symmetry_space_group_name_H-M "F M M M"
_symmetry_group_IT_number 69
_symmetry_cell_setting 'orthorhombic'
loop_
_space_group_symop_operation_xyz
x,y,z
-x,-y,z
x,-y,-z
-x,y,-z
-x,-y,-z
x,y,-z
-x,y,z
x,-y,z
x,1/2+y,1/2+z
-x,1/2-y,1/2+z
x,1/2-y,1/2-z
-x,1/2+y,1/2-z
-x,1/2-y,1/2-z
x,1/2+y,1/2-z
-x,1/2+y,1/2+z
x,1/2-y,1/2+z
1/2+x,y,1/2+z
1/2-x,-y,1/2+z
1/2+x,-y,1/2-z
1/2-x,y,1/2-z
1/2-x,-y,1/2-z
1/2+x,y,1/2-z
1/2-x,y,1/2+z
1/2+x,-y,1/2+z
1/2+x,1/2+y,z
1/2-x,1/2-y,z
1/2+x,1/2-y,-z
1/2-x,1/2+y,-z
1/2-x,1/2-y,-z
1/2+x,1/2+y,-z
1/2-x,1/2+y,z
1/2+x,1/2-y,z
loop_
_atom_site_type_symbol
_atom_site_label
_atom_site_fract_x
_atom_site_fract_y
_atom_site_fract_z
Si Si1 0.658631 0.233024 0.826030
Si Si2 0.282816 0.680702 0.000000
Si Si3 0.097412 0.895520 0.361617
Si Si4 0.598934 0.563391 0.220614
Si Si5 0.163888 0.932265 0.500000
Si Si6 0.591928 0.659402 0.115570
O O1 0.655734 0.250000 0.750000
O O2 0.750000 0.250000 0.847400
O O3 0.640462 0.167310 0.849344
O O4 0.591008 0.274913 0.856576
O O5 0.250000 0.750000 0.000000
O O6 0.216290 0.628513 0.000000
O O7 0.341903 0.665391 0.940053
O O8 0.122510 0.930255 0.295957
O O9 0.117171 0.925360 0.430740
O O10 0.000000 0.886982 0.358766
O O11 0.500000 0.564331 0.219971
O O12 0.627109 0.500000 0.195093
O O13 0.623033 0.616287 0.173050
O O14 0.199040 0.000000 0.500000
O O15 0.500000 0.641427 0.095577
#
# Coordination Sequence:
#
# PCOD9513772 Si02
#       6
#    32  16  32  32  16  32
#     4  11  22  37  61  95 137 172 211 270 343 410
#     4  12  27  48  67  92 134 181 223 281 345 413
#     4  11  22  40  67  97 132 178 229 281 338 404
#     4   9  19  36  60  92 126 159 206 271 333 389
#     4  12  27  45  67  99 142 187 228 277 345 423
#     4  11  22  40  67  95 124 164 220 277 330 394
#
# _framework density 20.962357000000001
#
# number of rings (size 3 to 8) (size 9 to 14) (size 15 to 20)
#    0.000    1.200    2.000    4.800    0.000    3.200 
#    0.000    3.000    0.000    6.600    0.000    0.000 
#    0.000    0.000    0.000    0.000    0.000    0.000 
#
# Total GULP energy -222972.849208 kJ/mol
# GULP energy per Si atom -5574.321230 kJ/mol
# Density = 2.091465 g / cm^3
# Si number density = 20.962357 Si / 1000 Ang^3
#
#
#
# Elastic Constant Matrix: (Units=GPa)
#
#
# Indices 1 2 3 4 5 6 
#
# 1 71.2800 26.2675 34.4448 0.0000 0.0000 0.0000
# 2 26.2675 149.5754 40.2464 0.0000 0.0000 0.0000
# 3 34.4448 40.2464 138.4430 0.0000 0.0000 0.0000
# 4 0.0000 0.0000 0.0000 6.5480 0.0000 0.0000
# 5 0.0000 0.0000 0.0000 0.0000 50.1454 0.0000
# 6 0.0000 0.0000 0.0000 0.0000 0.0000 37.7392
#
#
#
# Elastic Compliance Matrix: (Units=1/GPa)
#
#
# Indices 1 2 3 4 5 6 
#
# 1 0.016449 -0.001939 -0.003529 0.000000 0.000000 0.000000
# 2 -0.001939 0.007482 -0.001692 0.000000 0.000000 0.000000
# 3 -0.003529 -0.001692 0.008593 0.000000 0.000000 0.000000
# 4 0.000000 0.000000 0.000000 0.152719 0.000000 0.000000
# 5 0.000000 0.000000 0.000000 0.000000 0.019942 0.000000
# 6 0.000000 0.000000 0.000000 0.000000 0.000000 0.026498
#
#
# Mechanical properties :
#
#
# Convention : Reuss Voigt Hill
#
# Bulk Modulus (GPa) = 54.93650 62.35731 58.64691
# Shear Modulus (GPa) = 19.83573 36.10916 27.97244
#
# Velocity S-wave (km/s) = 3.07946 4.15489 3.65692
# Velocity P-wave (km/s) = 6.23765 7.26838 6.77265
#
# Compressibility (1/GPa) = 0.01820283
#
# Stress axis : x y z
#
# Youngs Moduli (GPa) = 60.79385 133.66243 116.37145
#
# Poissons Ratio (x) = 0.25920 0.41065
# Poissons Ratio (y) = 0.11789 0.19695
# Poissons Ratio (z) = 0.21453 0.22622
#
# Static dielectric constant tensor:
#      x y z
#    x 1.760440 0.000000 0.000000 
#    y 0.000000 1.900250 0.000000 
#    z 0.000000 0.000000 1.837950 
# 
# From -- ./inp_files/30827.got.cif
#   From: 2010.05.17/outbox.cif.g08.bks.cpg/sg69_16_cif.got.tgz:30827.got - 2010.06.03 19:29:58.
