data_PCOD9513479
_publ_section_title
;
Structure prediction by ZEFSAII (Michael W. Deem and Ramdas Pophale) SiO2 
 PCOD9513479
Probable space group: F M M M
;
_chemical_formula_sum "Si O2"
_cell_formula_units_Z 160
_cell_length_a 16.155785
_cell_length_b 17.431580
_cell_length_c 28.916187
_cell_angle_alpha 90.000000
_cell_angle_beta 90.000000
_cell_angle_gamma 90.000000
_cell_volume 8143.401413
_symmetry_space_group_name_H-M "F M M M"
_symmetry_group_IT_number 69
_symmetry_cell_setting 'orthorhombic'
loop_
_space_group_symop_operation_xyz
x,y,z
-x,-y,z
x,-y,-z
-x,y,-z
-x,-y,-z
x,y,-z
-x,y,z
x,-y,z
x,1/2+y,1/2+z
-x,1/2-y,1/2+z
x,1/2-y,1/2-z
-x,1/2+y,1/2-z
-x,1/2-y,1/2-z
x,1/2+y,1/2-z
-x,1/2+y,1/2+z
x,1/2-y,1/2+z
1/2+x,y,1/2+z
1/2-x,-y,1/2+z
1/2+x,-y,1/2-z
1/2-x,y,1/2-z
1/2-x,-y,1/2-z
1/2+x,y,1/2-z
1/2-x,y,1/2+z
1/2+x,-y,1/2+z
1/2+x,1/2+y,z
1/2-x,1/2-y,z
1/2+x,1/2-y,-z
1/2-x,1/2+y,-z
1/2-x,1/2-y,-z
1/2+x,1/2+y,-z
1/2-x,1/2+y,z
1/2+x,1/2-y,z
loop_
_atom_site_type_symbol
_atom_site_label
_atom_site_fract_x
_atom_site_fract_y
_atom_site_fract_z
Si Si1 0.097159 0.336103 0.707413
Si Si2 0.351983 0.662691 0.690010
Si Si3 0.300790 0.911699 0.638502
Si Si4 0.170905 0.306014 0.445906
Si Si5 0.000000 0.284151 0.054952
Si Si6 0.500000 0.909784 0.132656
O O1 0.143558 0.354475 0.755338
O O2 0.126885 0.253200 0.688416
O O3 0.117410 0.398717 0.669060
O O4 0.000000 0.330350 0.717691
O O5 0.267400 0.638634 0.665745
O O6 0.421611 0.615821 0.662895
O O7 0.315446 0.876614 0.588198
O O8 0.275778 0.000000 0.637043
O O9 0.167837 0.327677 0.500000
O O10 0.250000 0.250000 0.439736
O O11 0.084241 0.263145 0.434749
O O12 0.000000 0.359999 0.085924
O O13 0.000000 0.300650 0.000000
O O14 0.500000 0.000000 0.123835
#
# Coordination Sequence:
#
# PCOD9513479 Si02
#       6
#    32  32  32  32  16  16
#     4  11  22  42  66  89 121 171 224 261 299 365
#     4  11  22  42  62  90 122 167 220 261 306 365
#     4  12  26  39  60  95 132 166 203 259 326 379
#     4  10  22  43  69  93 121 165 216 267 317 379
#     4  10  22  41  66  92 121 163 218 268 315 379
#     4  12  22  34  61  91 128 166 200 261 329 379
#
# _framework density 19.647808999999999
#
# number of rings (size 3 to 8) (size 9 to 14) (size 15 to 20)
#    0.000    1.000    2.000    6.000    1.400    5.000 
#    0.000    0.000    0.000    7.800    0.000    0.000 
#    0.000    0.000    0.000    0.000    0.000    0.000 
#
# Total GULP energy -223674.303506 kJ/mol
# GULP energy per Si atom -5591.857588 kJ/mol
# Density = 1.960309 g / cm^3
# Si number density = 19.647809 Si / 1000 Ang^3
#
#
#
# Elastic Constant Matrix: (Units=GPa)
#
#
# Indices 1 2 3 4 5 6 
#
# 1 114.5929 38.5539 39.4935 0.0000 0.0000 0.0000
# 2 38.5539 74.5766 64.1741 0.0000 0.0000 0.0000
# 3 39.4935 64.1741 103.4915 0.0000 0.0000 0.0000
# 4 0.0000 0.0000 0.0000 -2.1463 0.0000 0.0000
# 5 0.0000 0.0000 0.0000 0.0000 -56.7867 0.0000
# 6 0.0000 0.0000 0.0000 0.0000 0.0000 11.5653
#
#
#
# Elastic Compliance Matrix: (Units=1/GPa)
#
#
# Indices 1 2 3 4 5 6 
#
# 1 0.010657 -0.004309 -0.001395 0.000000 0.000000 0.000000
# 2 -0.004309 0.030492 -0.017264 0.000000 0.000000 0.000000
# 3 -0.001395 -0.017264 0.020900 0.000000 0.000000 0.000000
# 4 0.000000 0.000000 0.000000 -0.465916 0.000000 0.000000
# 5 0.000000 0.000000 0.000000 0.000000 -0.017610 0.000000
# 6 0.000000 0.000000 0.000000 0.000000 0.000000 0.086466
#
#
# Mechanical properties :
#
#
# Convention : Reuss Voigt Hill
#
# Bulk Modulus (GPa) = 62.05709 64.12266 63.08988
# Shear Modulus (GPa) = -17.62398 0.55575 -8.53411
#
# Velocity S-wave (km/s) = -2.99824 0.53242 -2.08638
# Velocity P-wave (km/s) = 4.43480 5.75194 5.13577
#
# Compressibility (1/GPa) = 0.01611419
#
# Stress axis : x y z
#
# Youngs Moduli (GPa) = 93.83483 32.79530 47.84725
#
# Poissons Ratio (x) = 0.14132 0.06674
# Poissons Ratio (y) = 0.40435 0.82601
# Poissons Ratio (z) = 0.13088 0.56616
#
# Static dielectric constant tensor:
#      x y z
#    x 1.878500 0.000000 0.000000 
#    y 0.000000 1.653860 0.000000 
#    z 0.000000 0.000000 1.678830 
# 
# From -- ./inp_files/46270.got.cif
#   From: 2010.05.17/outbox.cif.g08.bks.cpg/sg69_24_cif.got.tgz:46270.got - 2010.06.03 19:29:58.
