data_PCOD9513610
_publ_section_title
;
Structure prediction by ZEFSAII (Michael W. Deem and Ramdas Pophale) SiO2 
 PCOD9513610
Probable space group: F M M M
;
_chemical_formula_sum "Si O2"
_cell_formula_units_Z 176
_cell_length_a 27.319201
_cell_length_b 14.168087
_cell_length_c 28.251296
_cell_angle_alpha 90.000000
_cell_angle_beta 90.000000
_cell_angle_gamma 90.000000
_cell_volume 10934.969698
_symmetry_space_group_name_H-M "F M M M"
_symmetry_group_IT_number 69
_symmetry_cell_setting 'orthorhombic'
loop_
_space_group_symop_operation_xyz
x,y,z
-x,-y,z
x,-y,-z
-x,y,-z
-x,-y,-z
x,y,-z
-x,y,z
x,-y,z
x,1/2+y,1/2+z
-x,1/2-y,1/2+z
x,1/2-y,1/2-z
-x,1/2+y,1/2-z
-x,1/2-y,1/2-z
x,1/2+y,1/2-z
-x,1/2+y,1/2+z
x,1/2-y,1/2+z
1/2+x,y,1/2+z
1/2-x,-y,1/2+z
1/2+x,-y,1/2-z
1/2-x,y,1/2-z
1/2-x,-y,1/2-z
1/2+x,y,1/2-z
1/2-x,y,1/2+z
1/2+x,-y,1/2+z
1/2+x,1/2+y,z
1/2-x,1/2-y,z
1/2+x,1/2-y,-z
1/2-x,1/2+y,-z
1/2-x,1/2-y,-z
1/2+x,1/2+y,-z
1/2-x,1/2+y,z
1/2+x,1/2-y,z
loop_
_atom_site_type_symbol
_atom_site_label
_atom_site_fract_x
_atom_site_fract_y
_atom_site_fract_z
Si Si1 0.350195 0.295053 0.363258
Si Si2 0.557267 0.385784 0.395354
Si Si3 0.804755 0.607902 0.384286
Si Si4 0.714668 0.113885 0.946104
Si Si5 0.440753 0.106484 0.000000
Si Si6 0.274450 0.609413 0.299628
O O1 0.404480 0.336054 0.361231
O O2 0.345931 0.184356 0.373802
O O3 0.322331 0.344661 0.407579
O O4 0.318052 0.324737 0.317846
O O5 0.500000 0.365843 0.386869
O O6 0.562727 0.500000 0.394392
O O7 0.570928 0.351982 0.448915
O O8 0.821233 0.500000 0.390021
O O9 0.769944 0.635903 0.428517
O O10 0.767235 0.612063 0.339990
O O11 0.710439 0.000000 0.943881
O O12 0.705697 0.143916 0.000000
O O13 0.500000 0.098635 0.000000
O O14 0.419999 0.000000 0.000000
O O15 0.291498 0.500000 0.296644
O O16 0.250000 0.635121 0.250000
#
# Coordination Sequence:
#
# PCOD9513610 Si02
#       6
#    32  32  32  32  16  32
#     4  11  19  27  45  68  90 120 158 185 219 276
#     4   9  17  29  44  65  93 119 146 186 233 277
#     4   9  19  32  42  59  89 121 155 193 224 258
#     4   9  17  28  42  63  92 120 146 182 226 273
#     4   7  12  24  40  58  84 115 141 173 220 266
#     4   9  17  30  48  71  97 119 142 180 229 279
#
# _framework density 16.095151999999999
#
# number of rings (size 3 to 8) (size 9 to 14) (size 15 to 20)
#    0.000    2.818    0.000    6.000    1.273    2.909 
#    0.000    0.000    0.000    0.545    0.000    2.545 
#    0.000    6.545    0.000    0.000    0.000    0.000 
#
# Total GULP energy -245179.011621 kJ/mol
# GULP energy per Si atom -5572.250264 kJ/mol
# Density = 1.605852 g / cm^3
# Si number density = 16.095152 Si / 1000 Ang^3
#
#
#
# Elastic Constant Matrix: (Units=GPa)
#
#
# Indices 1 2 3 4 5 6 
#
# 1 72.1183 39.5504 15.8512 0.0000 0.0000 0.0000
# 2 39.5504 64.3532 6.2263 0.0000 0.0000 0.0000
# 3 15.8512 6.2263 67.5027 0.0000 0.0000 0.0000
# 4 0.0000 0.0000 0.0000 8.8310 0.0000 0.0000
# 5 0.0000 0.0000 0.0000 0.0000 16.6541 0.0000
# 6 0.0000 0.0000 0.0000 0.0000 0.0000 19.2831
#
#
#
# Elastic Compliance Matrix: (Units=1/GPa)
#
#
# Indices 1 2 3 4 5 6 
#
# 1 0.021906 -0.013082 -0.003937 0.000000 0.000000 0.000000
# 2 -0.013082 0.023492 0.000905 0.000000 0.000000 0.000000
# 3 -0.003937 0.000905 0.015655 0.000000 0.000000 0.000000
# 4 0.000000 0.000000 0.000000 0.113237 0.000000 0.000000
# 5 0.000000 0.000000 0.000000 0.000000 0.060045 0.000000
# 6 0.000000 0.000000 0.000000 0.000000 0.000000 0.051859
#
#
# Mechanical properties :
#
#
# Convention : Reuss Voigt Hill
#
# Bulk Modulus (GPa) = 34.69287 36.35889 35.52588
# Shear Modulus (GPa) = 15.24247 18.44340 16.84294
#
# Velocity S-wave (km/s) = 3.08071 3.38878 3.23841
# Velocity P-wave (km/s) = 5.85287 6.16042 6.00861
#
# Compressibility (1/GPa) = 0.02882437
#
# Stress axis : x y z
#
# Youngs Moduli (GPa) = 45.65000 42.56838 63.87612
#
# Poissons Ratio (x) = 0.55688 0.25150
# Poissons Ratio (y) = 0.59719 -0.05782
# Poissons Ratio (z) = 0.17974 -0.03853
#
# Static dielectric constant tensor:
#      x y z
#    x 1.538610 0.000000 0.000000 
#    y 0.000000 1.571040 0.000000 
#    z 0.000000 0.000000 1.566880 
# 
# From -- ./inp_files/18287.got.cif
#   From: 2010.05.17/outbox.cif.g08.bks.cpg/sg69_10_cif.got.tgz:18287.got - 2010.06.03 19:29:58.
