data_PCOD9513376
_publ_section_title
;
Structure prediction by ZEFSAII (Michael W. Deem and Ramdas Pophale) SiO2 
 PCOD9513376
Probable space group: F M M M
;
_chemical_formula_sum "Si O2"
_cell_formula_units_Z 112
_cell_length_a 8.570237
_cell_length_b 21.740497
_cell_length_c 27.005593
_cell_angle_alpha 90.000000
_cell_angle_beta 90.000000
_cell_angle_gamma 90.000000
_cell_volume 5031.714813
_symmetry_space_group_name_H-M "F M M M"
_symmetry_group_IT_number 69
_symmetry_cell_setting 'orthorhombic'
loop_
_space_group_symop_operation_xyz
x,y,z
-x,-y,z
x,-y,-z
-x,y,-z
-x,-y,-z
x,y,-z
-x,y,z
x,-y,z
x,1/2+y,1/2+z
-x,1/2-y,1/2+z
x,1/2-y,1/2-z
-x,1/2+y,1/2-z
-x,1/2-y,1/2-z
x,1/2+y,1/2-z
-x,1/2+y,1/2+z
x,1/2-y,1/2+z
1/2+x,y,1/2+z
1/2-x,-y,1/2+z
1/2+x,-y,1/2-z
1/2-x,y,1/2-z
1/2-x,-y,1/2-z
1/2+x,y,1/2-z
1/2-x,y,1/2+z
1/2+x,-y,1/2+z
1/2+x,1/2+y,z
1/2-x,1/2-y,z
1/2+x,1/2-y,-z
1/2-x,1/2+y,-z
1/2-x,1/2-y,-z
1/2+x,1/2+y,-z
1/2-x,1/2+y,z
1/2+x,1/2-y,z
loop_
_atom_site_type_symbol
_atom_site_label
_atom_site_fract_x
_atom_site_fract_y
_atom_site_fract_z
Si Si1 0.179265 0.865962 0.108063
Si Si2 0.250000 0.250000 0.169673
Si Si3 0.683918 0.681473 0.000000
Si Si4 0.500000 0.070570 0.853698
Si Si5 0.500000 0.429939 0.766501
Si Si6 0.250000 0.340072 0.750000
O O1 0.168935 0.798694 0.134108
O O2 0.219906 0.854413 0.050426
O O3 0.336042 0.899201 0.128856
O O4 0.000000 0.892992 0.111817
O O5 0.169250 0.295886 0.209744
O O6 0.750000 0.750000 0.000000
O O7 0.500000 0.689446 0.000000
O O8 0.500000 0.069357 0.793458
O O9 0.500000 0.000000 0.870543
O O10 0.500000 0.500000 0.784095
O O11 0.356784 0.386970 0.780266
#
# Coordination Sequence:
#
# PCOD9513376 Si02
#       6
#    32  16  16  16  16  16
#     4  11  25  43  68 105 141 179 223 284 342 407
#     4  11  24  37  66  98 134 175 218 267 358 406
#     4  10  22  38  66 103 141 182 222 268 344 413
#     4  11  26  48  73  99 133 184 237 282 334 407
#     4  11  24  44  63  91 129 177 236 279 329 402
#     4  11  25  38  62  94 131 171 216 280 334 407
#
# _framework density 22.258813
#
# number of rings (size 3 to 8) (size 9 to 14) (size 15 to 20)
#    0.000    1.143    4.286    0.429    8.000    1.714 
#    0.000    1.429    0.000    2.571    0.000    0.000 
#    0.000    0.000    0.000    0.000    0.000    0.000 
#
# Total GULP energy -155932.163701 kJ/mol
# GULP energy per Si atom -5569.005846 kJ/mol
# Density = 2.220815 g / cm^3
# Si number density = 22.258813 Si / 1000 Ang^3
#
#
#
# Elastic Constant Matrix: (Units=GPa)
#
#
# Indices 1 2 3 4 5 6 
#
# 1 160.9636 79.0735 45.2584 0.0000 0.0000 0.0000
# 2 79.0735 144.0496 38.2167 0.0000 0.0000 0.0000
# 3 45.2584 38.2167 128.1074 0.0000 0.0000 0.0000
# 4 0.0000 0.0000 0.0000 14.5944 0.0000 0.0000
# 5 0.0000 0.0000 0.0000 0.0000 -23.7770 0.0000
# 6 0.0000 0.0000 0.0000 0.0000 0.0000 12.3751
#
#
#
# Elastic Compliance Matrix: (Units=1/GPa)
#
#
# Indices 1 2 3 4 5 6 
#
# 1 0.008884 -0.004392 -0.001829 0.000000 0.000000 0.000000
# 2 -0.004392 0.009710 -0.001345 0.000000 0.000000 0.000000
# 3 -0.001829 -0.001345 0.008853 0.000000 0.000000 0.000000
# 4 0.000000 0.000000 0.000000 0.068520 0.000000 0.000000
# 5 0.000000 0.000000 0.000000 0.000000 -0.042058 0.000000
# 6 0.000000 0.000000 0.000000 0.000000 0.000000 0.080807
#
#
# Mechanical properties :
#
#
# Convention : Reuss Voigt Hill
#
# Bulk Modulus (GPa) = 81.19201 84.24640 82.71920
# Shear Modulus (GPa) = 32.47762 18.67664 25.57713
#
# Velocity S-wave (km/s) = 3.82395 2.89981 3.39348
# Velocity P-wave (km/s) = 7.48681 7.01018 7.25241
#
# Compressibility (1/GPa) = 0.01231648
#
# Stress axis : x y z
#
# Youngs Moduli (GPa) = 112.56029 102.99051 112.95375
#
# Poissons Ratio (x) = 0.45230 0.20654
# Poissons Ratio (y) = 0.49433 0.15193
# Poissons Ratio (z) = 0.20582 0.13853
#
# Static dielectric constant tensor:
#      x y z
#    x 1.955180 0.000000 0.000000 
#    y 0.000000 1.760620 0.000000 
#    z 0.000000 0.000000 1.930230 
# 
# From -- ./inp_files/39508.got.cif
#   From: 2010.05.17/outbox.cif.g08.bks.cpg/sg69_20_cif.got.tgz:39508.got - 2010.06.03 19:29:58.
