data_PCOD9513244
_publ_section_title
;
Structure prediction by ZEFSAII (Michael W. Deem and Ramdas Pophale) SiO2 
 PCOD9513244
Probable space group: F M M M
;
_chemical_formula_sum "Si O2"
_cell_formula_units_Z 160
_cell_length_a 34.070671
_cell_length_b 9.036790
_cell_length_c 27.905580
_cell_angle_alpha 90.000000
_cell_angle_beta 90.000000
_cell_angle_gamma 90.000000
_cell_volume 8591.835045
_symmetry_space_group_name_H-M "F M M M"
_symmetry_group_IT_number 69
_symmetry_cell_setting 'orthorhombic'
loop_
_space_group_symop_operation_xyz
x,y,z
-x,-y,z
x,-y,-z
-x,y,-z
-x,-y,-z
x,y,-z
-x,y,z
x,-y,z
x,1/2+y,1/2+z
-x,1/2-y,1/2+z
x,1/2-y,1/2-z
-x,1/2+y,1/2-z
-x,1/2-y,1/2-z
x,1/2+y,1/2-z
-x,1/2+y,1/2+z
x,1/2-y,1/2+z
1/2+x,y,1/2+z
1/2-x,-y,1/2+z
1/2+x,-y,1/2-z
1/2-x,y,1/2-z
1/2-x,-y,1/2-z
1/2+x,y,1/2-z
1/2-x,y,1/2+z
1/2+x,-y,1/2+z
1/2+x,1/2+y,z
1/2-x,1/2-y,z
1/2+x,1/2-y,-z
1/2-x,1/2+y,-z
1/2-x,1/2-y,-z
1/2+x,1/2+y,-z
1/2-x,1/2+y,z
1/2+x,1/2-y,z
loop_
_atom_site_type_symbol
_atom_site_label
_atom_site_fract_x
_atom_site_fract_y
_atom_site_fract_z
Si Si1 0.206991 0.177768 0.944657
Si Si2 0.075035 0.168758 0.943500
Si Si3 0.638993 0.323736 0.386851
Si Si4 0.500000 0.835597 0.095545
Si Si5 0.090913 0.167906 0.198892
Si Si6 0.500000 0.222164 0.306449
O O1 0.250000 0.250000 0.941501
O O2 0.179573 0.249502 0.903907
O O3 0.208455 0.000000 0.938916
O O4 0.192868 0.205624 0.000000
O O5 0.110254 0.275699 0.929778
O O6 0.036967 0.240952 0.920599
O O7 0.082172 0.000000 0.925905
O O8 0.069694 0.161698 0.000000
O O9 0.642434 0.500000 0.381847
O O10 0.616805 0.254499 0.340526
O O11 0.500000 0.846514 0.153015
O O12 0.500000 0.000000 0.074545
O O13 0.093523 0.250000 0.250000
O O14 0.044171 0.158606 0.186059
O O15 0.105355 0.000000 0.202840
O O16 0.500000 0.250000 0.250000
#
# Coordination Sequence:
#
# PCOD9513244 Si02
#       6
#    32  32  32  16  32  16
#     4  10  21  39  64  94 127 161 198 242 296 357
#     4  11  24  40  57  79 112 155 200 245 298 357
#     4  12  24  38  60  89 121 157 200 247 298 355
#     4  12  24  38  58  82 112 150 199 248 298 359
#     4  11  23  40  62  88 120 158 203 254 309 363
#     4  10  23  38  60  85 118 154 199 252 311 359
#
# _framework density 18.622332
#
# number of rings (size 3 to 8) (size 9 to 14) (size 15 to 20)
#    0.000    1.000    2.000    5.100    0.000   10.400 
#    0.000    0.000    0.000    0.600    0.000    4.200 
#    0.000    0.000    0.000    0.000    0.000    0.000 
#
# Total GULP energy -223046.071432 kJ/mol
# GULP energy per Si atom -5576.151786 kJ/mol
# Density = 1.857995 g / cm^3
# Si number density = 18.622332 Si / 1000 Ang^3
#
#
#
# Elastic Constant Matrix: (Units=GPa)
#
#
# Indices 1 2 3 4 5 6 
#
# 1 104.4660 50.5404 50.1742 0.0000 0.0000 -0.0001
# 2 50.5404 165.2277 64.6397 0.0000 0.0000 -0.0004
# 3 50.1742 64.6397 114.6682 0.0000 0.0000 -0.0001
# 4 0.0000 0.0000 0.0000 24.5109 0.0000 -0.0001
# 5 0.0000 0.0000 0.0000 0.0000 37.1275 0.0000
# 6 -0.0001 -0.0004 -0.0001 -0.0001 0.0000 -87.7393
#
#
#
# Elastic Compliance Matrix: (Units=1/GPa)
#
#
# Indices 1 2 3 4 5 6 
#
# 1 0.012712 -0.002197 -0.004324 0.000000 0.000000 0.000000
# 2 -0.002197 0.008144 -0.003630 0.000000 0.000000 0.000000
# 3 -0.004324 -0.003630 0.012659 0.000000 0.000000 0.000000
# 4 0.000000 0.000000 0.000000 0.040798 0.000000 0.000000
# 5 0.000000 0.000000 0.000000 0.000000 0.026934 0.000000
# 6 0.000000 0.000000 0.000000 0.000000 0.000000 -0.011397
#
#
# Mechanical properties :
#
#
# Convention : Reuss Voigt Hill
#
# Bulk Modulus (GPa) = 75.67600 79.45229 77.56415
# Shear Modulus (GPa) = 43.64685 9.38034 26.51359
#
# Velocity S-wave (km/s) = 4.84652 2.24679 3.77736
# Velocity P-wave (km/s) = 8.48786 7.03480 7.79526
#
# Compressibility (1/GPa) = 0.01321423
#
# Stress axis : x y z
#
# Youngs Moduli (GPa) = 78.66554 122.78614 78.99567
#
# Poissons Ratio (x) = 0.26974 0.34157
# Poissons Ratio (y) = 0.17281 0.28674
# Poissons Ratio (z) = 0.34014 0.44568
#
# Static dielectric constant tensor:
#      x y z
#    x 1.504250 0.000000 0.000000 
#    y 0.000000 1.646510 0.000000 
#    z 0.000000 0.000000 1.670430 
# 
# From -- ./inp_files/44608.got.cif
#   From: 2010.05.17/outbox.cif.g08.bks.cpg/sg69_23_cif.got.tgz:44608.got - 2010.06.03 19:29:58.
