data_PCOD9513304
_publ_section_title
;
Structure prediction by ZEFSAII (Michael W. Deem and Ramdas Pophale) SiO2 
 PCOD9513304
Probable space group: F M M M
;
_chemical_formula_sum "Si O2"
_cell_formula_units_Z 96
_cell_length_a 12.944817
_cell_length_b 26.604737
_cell_length_c 14.983921
_cell_angle_alpha 90.000000
_cell_angle_beta 90.000000
_cell_angle_gamma 90.000000
_cell_volume 5160.364275
_symmetry_space_group_name_H-M "F M M M"
_symmetry_group_IT_number 69
_symmetry_cell_setting 'orthorhombic'
loop_
_space_group_symop_operation_xyz
x,y,z
-x,-y,z
x,-y,-z
-x,y,-z
-x,-y,-z
x,y,-z
-x,y,z
x,-y,z
x,1/2+y,1/2+z
-x,1/2-y,1/2+z
x,1/2-y,1/2-z
-x,1/2+y,1/2-z
-x,1/2-y,1/2-z
x,1/2+y,1/2-z
-x,1/2+y,1/2+z
x,1/2-y,1/2+z
1/2+x,y,1/2+z
1/2-x,-y,1/2+z
1/2+x,-y,1/2-z
1/2-x,y,1/2-z
1/2-x,-y,1/2-z
1/2+x,y,1/2-z
1/2-x,y,1/2+z
1/2+x,-y,1/2+z
1/2+x,1/2+y,z
1/2-x,1/2-y,z
1/2+x,1/2-y,-z
1/2-x,1/2+y,-z
1/2-x,1/2-y,-z
1/2+x,1/2+y,-z
1/2-x,1/2+y,z
1/2+x,1/2-y,z
loop_
_atom_site_type_symbol
_atom_site_label
_atom_site_fract_x
_atom_site_fract_y
_atom_site_fract_z
Si Si1 0.612664 0.635106 0.596707
Si Si2 0.500000 0.890096 0.606278
Si Si3 0.216432 0.557054 0.353490
Si Si4 0.000000 0.809257 0.740355
O O1 0.619672 0.661217 0.500000
O O2 0.500000 0.608023 0.598943
O O3 0.703945 0.596038 0.603888
O O4 0.598114 0.672527 0.679931
O O5 0.500000 0.880182 0.500000
O O6 0.601635 0.921885 0.632058
O O7 0.500000 0.840125 0.667599
O O8 0.223789 0.500000 0.387563
O O9 0.250000 0.556247 0.250000
O O10 0.000000 0.750000 0.750000
#
# Coordination Sequence:
#
# PCOD9513304 Si02
#       4
#    32  16  32  16
#     4   9  19  38  63  90 122 157 207 259 303 362
#     4  12  25  41  62  95 132 166 209 254 311 381
#     4  11  22  39  64  91 129 172 207 247 309 376
#     4  10  21  42  65  87 121 160 201 264 323 368
#
# _framework density 18.603338000000001
#
# number of rings (size 3 to 8) (size 9 to 14) (size 15 to 20)
#    1.000    0.667    3.333    1.500    0.000    5.333 
#    0.000    5.000    0.000    4.000    0.000    0.000 
#    0.000    0.000    0.000    0.000    0.000    0.000 
#
# Total GULP energy -133630.585551 kJ/mol
# GULP energy per Si atom -5567.941065 kJ/mol
# Density = 1.856100 g / cm^3
# Si number density = 18.603338 Si / 1000 Ang^3
#
#
#
# Elastic Constant Matrix: (Units=GPa)
#
#
# Indices 1 2 3 4 5 6 
#
# 1 135.9917 61.8395 32.5314 0.0000 0.0000 0.0000
# 2 61.8395 145.4593 63.7873 0.0000 0.0000 0.0000
# 3 32.5314 63.7873 151.7506 0.0000 0.0000 0.0000
# 4 0.0000 0.0000 0.0000 0.8410 0.0000 0.0000
# 5 0.0000 0.0000 0.0000 0.0000 25.2161 0.0000
# 6 0.0000 0.0000 0.0000 0.0000 0.0000 -5.9309
#
#
#
# Elastic Compliance Matrix: (Units=1/GPa)
#
#
# Indices 1 2 3 4 5 6 
#
# 1 0.009135 -0.003709 -0.000400 0.000000 0.000000 0.000000
# 2 -0.003709 0.009934 -0.003381 0.000000 0.000000 0.000000
# 3 -0.000400 -0.003381 0.008096 0.000000 0.000000 0.000000
# 4 0.000000 0.000000 0.000000 1.189076 0.000000 0.000000
# 5 0.000000 0.000000 0.000000 0.000000 0.039657 0.000000
# 6 0.000000 0.000000 0.000000 0.000000 0.000000 -0.168607
#
#
# Mechanical properties :
#
#
# Convention : Reuss Voigt Hill
#
# Bulk Modulus (GPa) = 82.04598 83.27978 82.66288
# Shear Modulus (GPa) = 4.51944 22.36146 13.44045
#
# Velocity S-wave (km/s) = 1.56033 3.47077 2.69081
# Velocity P-wave (km/s) = 6.88802 7.80544 7.36103
#
# Compressibility (1/GPa) = 0.01218829
#
# Stress axis : x y z
#
# Youngs Moduli (GPa) = 109.46494 100.66568 123.51129
#
# Poissons Ratio (x) = 0.37332 0.04935
# Poissons Ratio (y) = 0.40595 0.41754
# Poissons Ratio (z) = 0.04373 0.34031
#
# Static dielectric constant tensor:
#      x y z
#    x 1.637230 0.000000 0.000000 
#    y 0.000000 1.591650 0.000000 
#    z 0.000000 0.000000 1.542940 
# 
# From -- ./inp_files/13857.got.cif
#   From: 2010.05.17/outbox.cif.g08.bks.cpg/sg69_7_cif.got.tgz:13857.got - 2010.06.03 19:29:58.
