data_PCOD9513747
_publ_section_title
;
Structure prediction by ZEFSAII (Michael W. Deem and Ramdas Pophale) SiO2 
 PCOD9513747
Probable space group: F M M M
;
_chemical_formula_sum "Si O2"
_cell_formula_units_Z 144
_cell_length_a 18.024206
_cell_length_b 21.479570
_cell_length_c 20.701571
_cell_angle_alpha 90.000000
_cell_angle_beta 90.000000
_cell_angle_gamma 90.000000
_cell_volume 8014.658642
_symmetry_space_group_name_H-M "F M M M"
_symmetry_group_IT_number 69
_symmetry_cell_setting 'orthorhombic'
loop_
_space_group_symop_operation_xyz
x,y,z
-x,-y,z
x,-y,-z
-x,y,-z
-x,-y,-z
x,y,-z
-x,y,z
x,-y,z
x,1/2+y,1/2+z
-x,1/2-y,1/2+z
x,1/2-y,1/2-z
-x,1/2+y,1/2-z
-x,1/2-y,1/2-z
x,1/2+y,1/2-z
-x,1/2+y,1/2+z
x,1/2-y,1/2+z
1/2+x,y,1/2+z
1/2-x,-y,1/2+z
1/2+x,-y,1/2-z
1/2-x,y,1/2-z
1/2-x,-y,1/2-z
1/2+x,y,1/2-z
1/2-x,y,1/2+z
1/2+x,-y,1/2+z
1/2+x,1/2+y,z
1/2-x,1/2-y,z
1/2+x,1/2-y,-z
1/2-x,1/2+y,-z
1/2-x,1/2-y,-z
1/2+x,1/2+y,-z
1/2-x,1/2+y,z
1/2+x,1/2-y,z
loop_
_atom_site_type_symbol
_atom_site_label
_atom_site_fract_x
_atom_site_fract_y
_atom_site_fract_z
Si Si1 0.588175 0.574420 0.881141
Si Si2 0.085715 0.270444 0.000000
Si Si3 0.910098 0.428344 0.763398
Si Si4 0.087187 0.620414 0.101530
Si Si5 0.334889 0.642547 0.000000
Si Si6 0.308418 0.432927 0.500000
O O1 0.500000 0.587062 0.886000
O O2 0.597765 0.500000 0.889010
O O3 0.614707 0.590343 0.808428
O O4 0.629732 0.611168 0.936599
O O5 0.094274 0.314528 0.063069
O O6 0.143180 0.214510 0.000000
O O7 0.000000 0.247071 0.000000
O O8 0.886426 0.500000 0.776178
O O9 0.891174 0.384219 0.823426
O O10 0.000000 0.429797 0.759634
O O11 0.000000 0.602938 0.096487
O O12 0.138534 0.573862 0.061572
O O13 0.249213 0.623490 0.000000
O O14 0.269720 0.500000 0.500000
#
# Coordination Sequence:
#
# PCOD9513747 Si02
#       6
#    32  16  32  32  16  16
#     4   9  17  30  50  73  96 130 173 213 257 298
#     4   9  19  34  53  75  98 136 180 205 241 296
#     4   8  14  27  50  77 100 123 157 208 267 311
#     4   9  18  34  54  76 102 127 162 214 257 301
#     4  12  22  33  46  67 107 142 172 211 237 279
#     4  11  22  32  49  78 103 133 172 202 253 315
#
# _framework density 17.967078000000001
#
# number of rings (size 3 to 8) (size 9 to 14) (size 15 to 20)
#    0.000    2.667    0.000    5.000    0.000    4.444 
#    0.000    2.222    0.000    9.333    0.000    6.222 
#    0.000    0.000    0.000    0.000    0.000    0.000 
#
# Total GULP energy -200601.819994 kJ/mol
# GULP energy per Si atom -5572.272778 kJ/mol
# Density = 1.792618 g / cm^3
# Si number density = 17.967078 Si / 1000 Ang^3
#
#
#
# Elastic Constant Matrix: (Units=GPa)
#
#
# Indices 1 2 3 4 5 6 
#
# 1 42.3397 34.0158 31.0710 0.0000 0.0000 0.0000
# 2 34.0158 60.4474 45.9811 0.0000 0.0000 0.0000
# 3 31.0710 45.9811 162.4897 0.0000 0.0000 0.0000
# 4 0.0000 0.0000 0.0000 -22.6622 0.0000 0.0000
# 5 0.0000 0.0000 0.0000 0.0000 10.2699 0.0000
# 6 0.0000 0.0000 0.0000 0.0000 0.0000 24.3017
#
#
#
# Elastic Compliance Matrix: (Units=1/GPa)
#
#
# Indices 1 2 3 4 5 6 
#
# 1 0.043505 -0.023133 -0.001773 0.000000 0.000000 0.000000
# 2 -0.023133 0.033382 -0.005023 0.000000 0.000000 0.000000
# 3 -0.001773 -0.005023 0.007915 0.000000 0.000000 0.000000
# 4 0.000000 0.000000 0.000000 -0.044126 0.000000 0.000000
# 5 0.000000 0.000000 0.000000 0.000000 0.097372 0.000000
# 6 0.000000 0.000000 0.000000 0.000000 0.000000 0.041149
#
#
# Mechanical properties :
#
#
# Convention : Reuss Voigt Hill
#
# Bulk Modulus (GPa) = 40.09023 54.15693 47.12358
# Shear Modulus (GPa) = 20.21277 12.66247 16.43762
#
# Velocity S-wave (km/s) = 3.35773 2.65761 3.02797
# Velocity P-wave (km/s) = 6.11507 6.29483 6.20560
#
# Compressibility (1/GPa) = 0.02494373
#
# Stress axis : x y z
#
# Youngs Moduli (GPa) = 22.98608 29.95635 126.34906
#
# Poissons Ratio (x) = 0.69298 0.22398
# Poissons Ratio (y) = 0.53174 0.63464
# Poissons Ratio (z) = 0.04075 0.15047
#
# Static dielectric constant tensor:
#      x y z
#    x 1.619050 0.000000 0.000000 
#    y 0.000000 1.605480 0.000000 
#    z 0.000000 0.000000 1.630930 
# 
# From -- ./inp_files/24534.got.cif
#   From: 2010.05.17/outbox.cif.g08.bks.cpg/sg69_13_cif.got.tgz:24534.got - 2010.06.03 19:29:58.
