data_PCOD9513520
_publ_section_title
;
Structure prediction by ZEFSAII (Michael W. Deem and Ramdas Pophale) SiO2 
 PCOD9513520
Probable space group: F M M M
;
_chemical_formula_sum "Si O2"
_cell_formula_units_Z 176
_cell_length_a 26.031344
_cell_length_b 26.206078
_cell_length_c 12.051019
_cell_angle_alpha 90.000000
_cell_angle_beta 90.000000
_cell_angle_gamma 90.000000
_cell_volume 8220.957288
_symmetry_space_group_name_H-M "F M M M"
_symmetry_group_IT_number 69
_symmetry_cell_setting 'orthorhombic'
loop_
_space_group_symop_operation_xyz
x,y,z
-x,-y,z
x,-y,-z
-x,y,-z
-x,-y,-z
x,y,-z
-x,y,z
x,-y,z
x,1/2+y,1/2+z
-x,1/2-y,1/2+z
x,1/2-y,1/2-z
-x,1/2+y,1/2-z
-x,1/2-y,1/2-z
x,1/2+y,1/2-z
-x,1/2+y,1/2+z
x,1/2-y,1/2+z
1/2+x,y,1/2+z
1/2-x,-y,1/2+z
1/2+x,-y,1/2-z
1/2-x,y,1/2-z
1/2-x,-y,1/2-z
1/2+x,y,1/2-z
1/2-x,y,1/2+z
1/2+x,-y,1/2+z
1/2+x,1/2+y,z
1/2-x,1/2-y,z
1/2+x,1/2-y,-z
1/2-x,1/2+y,-z
1/2-x,1/2-y,-z
1/2+x,1/2+y,-z
1/2-x,1/2+y,z
1/2+x,1/2-y,z
loop_
_atom_site_type_symbol
_atom_site_label
_atom_site_fract_x
_atom_site_fract_y
_atom_site_fract_z
Si Si1 0.560991 0.237659 0.000000
Si Si2 0.901305 0.597990 0.238132
Si Si3 0.870575 0.205182 0.824549
Si Si4 0.736569 0.163711 0.622109
Si Si5 0.000000 0.061197 0.126907
Si Si6 0.806371 0.942519 0.125926
Si Si7 0.438001 0.884344 0.000000
O O1 0.586602 0.266978 0.897247
O O2 0.572448 0.177014 0.000000
O O3 0.500000 0.243285 0.000000
O O4 0.894052 0.658451 0.256842
O O5 0.850597 0.570849 0.285929
O O6 0.913888 0.590990 0.109599
O O7 0.949599 0.580191 0.310191
O O8 0.848427 0.250000 0.750000
O O9 0.822434 0.181145 0.887166
O O10 0.761269 0.178545 0.500000
O O11 0.750000 0.180103 0.750000
O O12 0.735955 0.102037 0.627489
O O13 0.000000 0.000000 0.126640
O O14 0.000000 0.079653 0.000000
O O15 0.787213 0.000000 0.141719
O O16 0.829049 0.940100 0.000000
O O17 0.500000 0.890275 0.000000
#
# Coordination Sequence:
#
# PCOD9513520 Si02
#       7
#    16  32  32  32  16  32  16
#     4  11  24  38  64  92 131 176 224 268 324 377
#     4  11  22  36  60  84 122 164 208 255 319 382
#     4  11  23  41  62  94 129 170 215 269 319 380
#     4  10  22  43  68  96 129 168 215 266 332 397
#     4  11  24  39  58  85 115 153 210 267 310 370
#     4   9  19  39  65  90 119 157 208 270 325 377
#     4  11  22  40  54  85 126 171 211 258 315 378
#
# _framework density 21.408698999999999
#
# number of rings (size 3 to 8) (size 9 to 14) (size 15 to 20)
#    0.000    1.545    3.636    1.091    3.818    2.545 
#    8.182    3.182    0.000    0.000    0.000    0.000 
#    0.000    0.000    0.000    0.000    0.000    0.000 
#
# Total GULP energy -245434.421794 kJ/mol
# GULP energy per Si atom -5578.055041 kJ/mol
# Density = 2.135997 g / cm^3
# Si number density = 21.408699 Si / 1000 Ang^3
#
#
#
# Elastic Constant Matrix: (Units=GPa)
#
#
# Indices 1 2 3 4 5 6 
#
# 1 36.4093 -2.6864 33.4023 0.0000 0.0000 0.0000
# 2 -2.6864 71.3751 12.3657 0.0000 0.0000 0.0000
# 3 33.4023 12.3657 196.3197 0.0000 0.0000 0.0001
# 4 0.0000 0.0000 0.0000 15.4450 0.0000 0.0000
# 5 0.0000 0.0000 0.0000 0.0000 38.0450 0.0000
# 6 0.0000 0.0000 0.0001 0.0000 0.0000 2.8814
#
#
#
# Elastic Compliance Matrix: (Units=1/GPa)
#
#
# Indices 1 2 3 4 5 6 
#
# 1 0.032894 0.002232 -0.005737 0.000000 0.000000 0.000000
# 2 0.002232 0.014317 -0.001282 0.000000 0.000000 0.000000
# 3 -0.005737 -0.001282 0.006151 0.000000 0.000000 0.000000
# 4 0.000000 0.000000 0.000000 0.064746 0.000000 0.000000
# 5 0.000000 0.000000 0.000000 0.000000 0.026285 0.000000
# 6 0.000000 0.000000 0.000000 0.000000 0.000000 0.347051
#
#
# Mechanical properties :
#
#
# Convention : Reuss Voigt Hill
#
# Bulk Modulus (GPa) = 22.83767 43.36302 33.10035
# Shear Modulus (GPa) = 9.69722 28.67577 19.18650
#
# Velocity S-wave (km/s) = 2.13059 3.66381 2.99691
# Velocity P-wave (km/s) = 4.09184 6.18036 5.24118
#
# Compressibility (1/GPa) = 0.04378730
#
# Stress axis : x y z
#
# Youngs Moduli (GPa) = 30.40106 69.84937 162.58599
#
# Poissons Ratio (x) = -0.15590 0.93279
# Poissons Ratio (y) = -0.06786 0.20836
# Poissons Ratio (z) = 0.17442 0.08951
#
# Static dielectric constant tensor:
#      x y z
#    x 1.735210 0.000000 0.000000 
#    y 0.000000 1.760510 0.000000 
#    z 0.000000 0.000000 1.863120 
# 
# From -- ./inp_files/11580.got.cif
#   From: 2010.05.17/outbox.cif.g08.bks.cpg/sg69_6_cif.got.tgz:11580.got - 2010.06.03 19:29:58.
