data_PCOD9513098
_publ_section_title
;
Structure prediction by ZEFSAII (Michael W. Deem and Ramdas Pophale) SiO2 
 PCOD9513098
Probable space group: F M M M
;
_chemical_formula_sum "Si O2"
_cell_formula_units_Z 160
_cell_length_a 25.219026
_cell_length_b 19.232855
_cell_length_c 16.541148
_cell_angle_alpha 90.000000
_cell_angle_beta 90.000000
_cell_angle_gamma 90.000000
_cell_volume 8023.017034
_symmetry_space_group_name_H-M "F M M M"
_symmetry_group_IT_number 69
_symmetry_cell_setting 'orthorhombic'
loop_
_space_group_symop_operation_xyz
x,y,z
-x,-y,z
x,-y,-z
-x,y,-z
-x,-y,-z
x,y,-z
-x,y,z
x,-y,z
x,1/2+y,1/2+z
-x,1/2-y,1/2+z
x,1/2-y,1/2-z
-x,1/2+y,1/2-z
-x,1/2-y,1/2-z
x,1/2+y,1/2-z
-x,1/2+y,1/2+z
x,1/2-y,1/2+z
1/2+x,y,1/2+z
1/2-x,-y,1/2+z
1/2+x,-y,1/2-z
1/2-x,y,1/2-z
1/2-x,-y,1/2-z
1/2+x,y,1/2-z
1/2-x,y,1/2+z
1/2+x,-y,1/2+z
1/2+x,1/2+y,z
1/2-x,1/2-y,z
1/2+x,1/2-y,-z
1/2-x,1/2+y,-z
1/2-x,1/2-y,-z
1/2+x,1/2+y,-z
1/2-x,1/2+y,z
1/2+x,1/2-y,z
loop_
_atom_site_type_symbol
_atom_site_label
_atom_site_fract_x
_atom_site_fract_y
_atom_site_fract_z
Si Si1 0.106259 0.158632 0.339062
Si Si2 0.763648 0.918559 0.500000
Si Si3 0.393036 0.920144 0.000000
Si Si4 0.936314 0.709094 0.411159
Si Si5 0.935921 0.078934 0.816433
Si Si6 0.732932 0.830593 0.841168
O O1 0.088284 0.118616 0.419863
O O2 0.083801 0.236161 0.346017
O O3 0.086596 0.114823 0.263478
O O4 0.169434 0.164703 0.340242
O O5 0.828445 0.918648 0.500000
O O6 0.747823 0.877569 0.582669
O O7 0.747222 0.000000 0.500000
O O8 0.409812 0.000000 0.000000
O O9 0.915517 0.727764 0.500000
O O10 0.920928 0.630872 0.388509
O O11 0.000000 0.712525 0.412287
O O12 0.000000 0.078350 0.811400
O O13 0.917519 0.000000 0.825787
O O14 0.750000 0.852175 0.750000
O O15 0.750000 0.750000 0.852856
#
# Coordination Sequence:
#
# PCOD9513098 Si02
#       6
#    32  16  16  32  32  32
#     4  11  20  37  62  85 118 156 197 246 299 357
#     4   9  19  39  61  82 116 152 195 251 303 360
#     4   9  18  33  56  87 114 152 192 233 304 362
#     4  10  21  37  60  90 119 154 200 243 292 357
#     4  10  22  38  58  87 121 158 196 240 296 357
#     4  10  23  38  60  90 117 158 205 253 306 355
#
# _framework density 19.942623000000001
#
# number of rings (size 3 to 8) (size 9 to 14) (size 15 to 20)
#    0.000    2.000    1.000    2.100    5.600    3.200 
#    0.000    2.000    0.000    2.400    0.000    0.000 
#    0.000    0.000    0.000    0.000    0.000    0.000 
#
# Total GULP energy -223270.078293 kJ/mol
# GULP energy per Si atom -5581.751957 kJ/mol
# Density = 1.989723 g / cm^3
# Si number density = 19.942623 Si / 1000 Ang^3
#
#
#
# Elastic Constant Matrix: (Units=GPa)
#
#
# Indices 1 2 3 4 5 6 
#
# 1 3.8426 19.1974 12.3566 0.0000 0.0000 0.0000
# 2 19.1974 158.6508 60.5808 0.0000 0.0000 0.0000
# 3 12.3566 60.5808 122.7754 0.0000 0.0000 0.0000
# 4 0.0000 0.0000 0.0000 20.9164 0.0000 0.0000
# 5 0.0000 0.0000 0.0000 0.0000 24.0837 0.0000
# 6 0.0000 0.0000 0.0000 0.0000 0.0000 23.4576
#
#
#
# Elastic Compliance Matrix: (Units=1/GPa)
#
#
# Indices 1 2 3 4 5 6 
#
# 1 0.789788 -0.080356 -0.039837 0.000000 0.000000 0.000000
# 2 -0.080356 0.015942 0.000221 0.000000 0.000000 0.000000
# 3 -0.039837 0.000221 0.012045 0.000000 0.000000 0.000000
# 4 0.000000 0.000000 0.000000 0.047809 0.000000 0.000000
# 5 0.000000 0.000000 0.000000 0.000000 0.041522 0.000000
# 6 0.000000 0.000000 0.000000 0.000000 0.000000 0.042630
#
#
# Mechanical properties :
#
#
# Convention : Reuss Voigt Hill
#
# Bulk Modulus (GPa) = 1.73061 52.17094 26.95078
# Shear Modulus (GPa) = 3.61718 26.56714 15.09216
#
# Velocity S-wave (km/s) = 1.34823 3.65386 2.75395
# Velocity P-wave (km/s) = 1.81475 6.63463 4.86372
#
# Compressibility (1/GPa) = 0.57783124
#
# Stress axis : x y z
#
# Youngs Moduli (GPa) = 1.26616 62.72688 83.01994
#
# Poissons Ratio (x) = 5.04046 3.30730
# Poissons Ratio (y) = 0.10174 -0.01835
# Poissons Ratio (z) = 0.05044 -0.01386
#
# Static dielectric constant tensor:
#      x y z
#    x 1.707300 0.000000 0.000000 
#    y 0.000000 1.695870 0.000000 
#    z 0.000000 0.000000 1.740080 
# 
# From -- ./inp_files/26685.got.cif
#   From: 2010.05.17/outbox.cif.g08.bks.cpg/sg69_14_cif.got.tgz:26685.got - 2010.06.03 19:29:58.
