data_PCOD9513134
_publ_section_title
;
Structure prediction by ZEFSAII (Michael W. Deem and Ramdas Pophale) SiO2 
 PCOD9513134
Probable space group: F M M M
;
_chemical_formula_sum "Si O2"
_cell_formula_units_Z 176
_cell_length_a 10.935146
_cell_length_b 28.730371
_cell_length_c 28.220462
_cell_angle_alpha 90.000000
_cell_angle_beta 90.000000
_cell_angle_gamma 90.000000
_cell_volume 8866.045166
_symmetry_space_group_name_H-M "F M M M"
_symmetry_group_IT_number 69
_symmetry_cell_setting 'orthorhombic'
loop_
_space_group_symop_operation_xyz
x,y,z
-x,-y,z
x,-y,-z
-x,y,-z
-x,-y,-z
x,y,-z
-x,y,z
x,-y,z
x,1/2+y,1/2+z
-x,1/2-y,1/2+z
x,1/2-y,1/2-z
-x,1/2+y,1/2-z
-x,1/2-y,1/2-z
x,1/2+y,1/2-z
-x,1/2+y,1/2+z
x,1/2-y,1/2+z
1/2+x,y,1/2+z
1/2-x,-y,1/2+z
1/2+x,-y,1/2-z
1/2-x,y,1/2-z
1/2-x,-y,1/2-z
1/2+x,y,1/2-z
1/2-x,y,1/2+z
1/2+x,-y,1/2+z
1/2+x,1/2+y,z
1/2-x,1/2-y,z
1/2+x,1/2-y,-z
1/2-x,1/2+y,-z
1/2-x,1/2-y,-z
1/2+x,1/2+y,-z
1/2-x,1/2+y,z
1/2+x,1/2-y,z
loop_
_atom_site_type_symbol
_atom_site_label
_atom_site_fract_x
_atom_site_fract_y
_atom_site_fract_z
Si Si1 0.858632 0.117081 0.286004
Si Si2 0.645015 0.947889 0.446049
Si Si3 0.697989 0.114173 0.894096
Si Si4 0.868433 0.272693 0.802033
Si Si5 0.000000 0.947858 0.443949
Si Si6 0.855642 0.210709 0.444394
O O1 0.750000 0.102937 0.250000
O O2 0.830790 0.102578 0.339812
O O3 0.853759 0.173096 0.291598
O O4 0.000000 0.104939 0.272685
O O5 0.688405 0.938562 0.500000
O O6 0.500000 0.951532 0.448516
O O7 0.672942 0.905846 0.410465
O O8 0.691326 0.000000 0.432281
O O9 0.613121 0.081484 0.925773
O O10 0.671679 0.167249 0.909337
O O11 0.874967 0.250000 0.750000
O O12 0.750000 0.250000 0.825994
O O13 0.000000 0.264513 0.825895
O O14 0.000000 0.949895 0.500000
O O15 0.000000 0.000000 0.424704
O O16 0.845729 0.195371 0.500000
O O17 0.750000 0.250000 0.438227
O O18 0.000000 0.224817 0.438317
#
# Coordination Sequence:
#
# PCOD9513134 Si02
#       6
#    32  32  32  32  16  32
#     4  11  23  39  57  82 120 164 211 268 330 379
#     4   9  19  37  63  97 134 166 199 253 329 406
#     4  12  22  38  62  95 126 165 211 271 329 390
#     4   9  16  30  52  76 102 145 197 265 326 367
#     4  11  22  38  68 104 129 154 198 266 343 396
#     4  10  21  38  58  83 126 177 219 261 314 389
#
# _framework density 19.851016000000001
#
# number of rings (size 3 to 8) (size 9 to 14) (size 15 to 20)
#    0.000    1.727    3.636    2.727    0.000    3.636 
#    0.000    1.818    0.000    2.182    0.000    0.000 
#    0.000    0.000    0.000    0.000    0.000    0.000 
#
# Total GULP energy -245209.925653 kJ/mol
# GULP energy per Si atom -5572.952856 kJ/mol
# Density = 1.980583 g / cm^3
# Si number density = 19.851016 Si / 1000 Ang^3
#
#
#
# Elastic Constant Matrix: (Units=GPa)
#
#
# Indices 1 2 3 4 5 6 
#
# 1 153.0851 34.0074 43.4587 0.0000 0.0000 0.0000
# 2 34.0074 62.0651 16.8542 0.0000 0.0000 0.0000
# 3 43.4587 16.8542 102.0832 0.0000 0.0000 0.0000
# 4 0.0000 0.0000 0.0000 4.9991 0.0000 0.0000
# 5 0.0000 0.0000 0.0000 0.0000 28.7444 0.0000
# 6 0.0000 0.0000 0.0000 0.0000 0.0000 43.0588
#
#
#
# Elastic Compliance Matrix: (Units=1/GPa)
#
#
# Indices 1 2 3 4 5 6 
#
# 1 0.008167 -0.003697 -0.002867 0.000000 0.000000 0.000000
# 2 -0.003697 0.018542 -0.001488 0.000000 0.000000 0.000000
# 3 -0.002867 -0.001488 0.011262 0.000000 0.000000 0.000000
# 4 0.000000 0.000000 0.000000 0.200036 0.000000 0.000000
# 5 0.000000 0.000000 0.000000 0.000000 0.034789 0.000000
# 6 0.000000 0.000000 0.000000 0.000000 0.000000 0.023224
#
#
# Mechanical properties :
#
#
# Convention : Reuss Voigt Hill
#
# Bulk Modulus (GPa) = 45.72659 56.20825 50.96742
# Shear Modulus (GPa) = 15.65377 30.22134 22.93755
#
# Velocity S-wave (km/s) = 2.81118 3.90604 3.40293
# Velocity P-wave (km/s) = 5.79844 6.97993 6.41643
#
# Compressibility (1/GPa) = 0.02186912
#
# Stress axis : x y z
#
# Youngs Moduli (GPa) = 122.43918 53.93285 88.79490
#
# Poissons Ratio (x) = 0.19937 0.25454
# Poissons Ratio (y) = 0.45262 0.13208
# Poissons Ratio (z) = 0.35099 0.08023
#
# Static dielectric constant tensor:
#      x y z
#    x 1.108850 0.000000 0.000000 
#    y 0.000000 1.691110 0.000000 
#    z 0.000000 0.000000 1.758290 
# 
# From -- ./inp_files/45225.got.cif
#   From: 2010.05.17/outbox.cif.g08.bks.cpg/sg69_23_cif.got.tgz:45225.got - 2010.06.03 19:29:58.
