data_PCOD9513357
_publ_section_title
;
Structure prediction by ZEFSAII (Michael W. Deem and Ramdas Pophale) SiO2 
 PCOD9513357
Probable space group: F M M M
;
_chemical_formula_sum "Si O2"
_cell_formula_units_Z 144
_cell_length_a 9.884435
_cell_length_b 28.086804
_cell_length_c 27.208609
_cell_angle_alpha 90.000000
_cell_angle_beta 90.000000
_cell_angle_gamma 90.000000
_cell_volume 7553.713577
_symmetry_space_group_name_H-M "F M M M"
_symmetry_group_IT_number 69
_symmetry_cell_setting 'orthorhombic'
loop_
_space_group_symop_operation_xyz
x,y,z
-x,-y,z
x,-y,-z
-x,y,-z
-x,-y,-z
x,y,-z
-x,y,z
x,-y,z
x,1/2+y,1/2+z
-x,1/2-y,1/2+z
x,1/2-y,1/2-z
-x,1/2+y,1/2-z
-x,1/2-y,1/2-z
x,1/2+y,1/2-z
-x,1/2+y,1/2+z
x,1/2-y,1/2+z
1/2+x,y,1/2+z
1/2-x,-y,1/2+z
1/2+x,-y,1/2-z
1/2-x,y,1/2-z
1/2-x,-y,1/2-z
1/2+x,y,1/2-z
1/2-x,y,1/2+z
1/2+x,-y,1/2+z
1/2+x,1/2+y,z
1/2-x,1/2-y,z
1/2+x,1/2-y,-z
1/2-x,1/2+y,-z
1/2-x,1/2-y,-z
1/2+x,1/2+y,-z
1/2-x,1/2+y,z
1/2+x,1/2-y,z
loop_
_atom_site_type_symbol
_atom_site_label
_atom_site_fract_x
_atom_site_fract_y
_atom_site_fract_z
Si Si1 0.753897 0.854269 0.352735
Si Si2 0.000000 0.795011 0.320147
Si Si3 0.841849 0.409002 0.441934
Si Si4 0.343981 0.552884 0.297452
Si Si5 0.500000 0.683727 0.205910
Si Si6 0.344642 0.000000 0.059423
O O1 0.867815 0.814060 0.347917
O O2 0.698698 0.865278 0.406965
O O3 0.816270 0.903631 0.333240
O O4 0.631796 0.840726 0.316588
O O5 0.000000 0.738666 0.311635
O O6 0.000000 0.817179 0.264969
O O7 0.827005 0.398722 0.500000
O O8 0.743837 0.453231 0.429419
O O9 0.000000 0.421333 0.433123
O O10 0.500000 0.554573 0.281907
O O11 0.318563 0.500000 0.319133
O O12 0.250000 0.557663 0.250000
O O13 0.500000 0.000000 0.078892
O O14 0.356038 0.000000 0.000000
#
# Coordination Sequence:
#
# PCOD9513357 Si02
#       6
#    32  16  32  32  16  16
#     4  12  23  39  64  94 121 166 209 255 312 378
#     4  11  24  42  68  94 127 156 204 268 323 369
#     4  10  22  41  62  88 127 171 214 259 307 370
#     4  10  22  38  57  86 127 168 205 244 298 374
#     4  11  24  44  66  94 123 162 206 260 319 383
#     4   9  19  35  61  93 124 161 212 268 312 354
#
# _framework density 19.063472000000001
#
# number of rings (size 3 to 8) (size 9 to 14) (size 15 to 20)
#    0.000    1.444    2.222    3.000    4.667    3.111 
#    0.000    0.000    0.000    4.000    0.000    0.000 
#    0.000    0.000    0.000    0.000    0.000    0.000 
#
# Total GULP energy -201176.984060 kJ/mol
# GULP energy per Si atom -5588.249557 kJ/mol
# Density = 1.902008 g / cm^3
# Si number density = 19.063472 Si / 1000 Ang^3
#
#
#
# Elastic Constant Matrix: (Units=GPa)
#
#
# Indices 1 2 3 4 5 6 
#
# 1 142.1224 32.1544 45.0959 0.0000 0.0000 0.0000
# 2 32.1544 68.3848 32.6004 0.0000 0.0000 0.0000
# 3 45.0959 32.6004 80.1017 0.0000 0.0000 0.0000
# 4 0.0000 0.0000 0.0000 29.6458 0.0000 0.0000
# 5 0.0000 0.0000 0.0000 0.0000 26.3309 0.0000
# 6 0.0000 0.0000 0.0000 0.0000 0.0000 -73.0875
#
#
#
# Elastic Compliance Matrix: (Units=1/GPa)
#
#
# Indices 1 2 3 4 5 6 
#
# 1 0.008828 -0.002210 -0.004070 0.000000 0.000000 0.000000
# 2 -0.002210 0.018697 -0.006365 0.000000 0.000000 0.000000
# 3 -0.004070 -0.006365 0.017366 0.000000 0.000000 0.000000
# 4 0.000000 0.000000 0.000000 0.033732 0.000000 0.000000
# 5 0.000000 0.000000 0.000000 0.000000 0.037978 0.000000
# 6 0.000000 0.000000 0.000000 0.000000 0.000000 -0.013682
#
#
# Mechanical properties :
#
#
# Convention : Reuss Voigt Hill
#
# Bulk Modulus (GPa) = 51.02204 56.70113 53.86159
# Shear Modulus (GPa) = 37.10778 8.62837 22.86807
#
# Velocity S-wave (km/s) = 4.41675 2.12978 3.46725
# Velocity P-wave (km/s) = 7.26860 5.98798 6.65915
#
# Compressibility (1/GPa) = 0.01959937
#
# Stress axis : x y z
#
# Youngs Moduli (GPa) = 113.27847 53.48522 57.58350
#
# Poissons Ratio (x) = 0.11822 0.23438
# Poissons Ratio (y) = 0.25039 0.36651
# Poissons Ratio (z) = 0.46108 0.34043
#
# Static dielectric constant tensor:
#      x y z
#    x 1.656680 0.000000 0.000000 
#    y 0.000000 1.653960 0.000000 
#    z 0.000000 0.000000 1.667380 
# 
# From -- ./inp_files/44555.got.cif
#   From: 2010.05.17/outbox.cif.g08.bks.cpg/sg69_23_cif.got.tgz:44555.got - 2010.06.03 19:29:58.
