data_PCOD9513622
_publ_section_title
;
Structure prediction by ZEFSAII (Michael W. Deem and Ramdas Pophale) SiO2 
 PCOD9513622
Probable space group: F M M M
;
_chemical_formula_sum "Si O2"
_cell_formula_units_Z 176
_cell_length_a 21.944284
_cell_length_b 26.940970
_cell_length_c 15.036757
_cell_angle_alpha 90.000000
_cell_angle_beta 90.000000
_cell_angle_gamma 90.000000
_cell_volume 8889.735203
_symmetry_space_group_name_H-M "F M M M"
_symmetry_group_IT_number 69
_symmetry_cell_setting 'orthorhombic'
loop_
_space_group_symop_operation_xyz
x,y,z
-x,-y,z
x,-y,-z
-x,y,-z
-x,-y,-z
x,y,-z
-x,y,z
x,-y,z
x,1/2+y,1/2+z
-x,1/2-y,1/2+z
x,1/2-y,1/2-z
-x,1/2+y,1/2-z
-x,1/2-y,1/2-z
x,1/2+y,1/2-z
-x,1/2+y,1/2+z
x,1/2-y,1/2+z
1/2+x,y,1/2+z
1/2-x,-y,1/2+z
1/2+x,-y,1/2-z
1/2-x,y,1/2-z
1/2-x,-y,1/2-z
1/2+x,y,1/2-z
1/2-x,y,1/2+z
1/2+x,-y,1/2+z
1/2+x,1/2+y,z
1/2-x,1/2-y,z
1/2+x,1/2-y,-z
1/2-x,1/2+y,-z
1/2-x,1/2-y,-z
1/2+x,1/2+y,-z
1/2-x,1/2+y,z
1/2+x,1/2-y,z
loop_
_atom_site_type_symbol
_atom_site_label
_atom_site_fract_x
_atom_site_fract_y
_atom_site_fract_z
Si Si1 0.263323 0.867544 0.145014
Si Si2 0.370477 0.831629 0.403958
Si Si3 0.072617 0.593080 0.724211
Si Si4 0.140079 0.940826 0.599757
Si Si5 0.074194 0.000000 0.102111
Si Si6 0.317213 0.734876 0.354231
O O1 0.250000 0.871139 0.250000
O O2 0.199136 0.851659 0.102999
O O3 0.292669 0.917411 0.108791
O O4 0.314194 0.823961 0.133119
O O5 0.396509 0.846050 0.500000
O O6 0.405747 0.856390 0.322571
O O7 0.365390 0.771948 0.397089
O O8 0.101722 0.582662 0.819878
O O9 0.092768 0.548771 0.657226
O O10 0.000000 0.591831 0.731242
O O11 0.117004 0.929825 0.500000
O O12 0.140737 0.000000 0.610884
O O13 0.000000 0.000000 0.100019
O O14 0.095558 0.000000 0.000000
O O15 0.318413 0.750000 0.250000
O O16 0.250000 0.750000 0.387643
#
# Coordination Sequence:
#
# PCOD9513622 Si02
#       6
#    32  32  32  32  16  32
#     4  11  19  37  63  89 123 163 201 247 301 366
#     4  11  22  35  58  93 126 161 202 248 305 366
#     4  11  22  40  62  86 119 160 207 258 308 357
#     4  11  24  41  62  90 123 160 205 258 314 371
#     4   9  18  34  57  82 111 151 201 249 294 353
#     4   9  15  31  55  84 117 156 196 239 285 349
#
# _framework density 19.798114999999999
#
# number of rings (size 3 to 8) (size 9 to 14) (size 15 to 20)
#    0.000    1.545    6.364    1.091    0.000    5.818 
#    1.636    0.909    0.000    4.909    0.000    5.091 
#    0.000    0.000    0.000    0.000    0.000    0.000 
#
# Total GULP energy -245460.158053 kJ/mol
# GULP energy per Si atom -5578.639956 kJ/mol
# Density = 1.975305 g / cm^3
# Si number density = 19.798115 Si / 1000 Ang^3
#
#
#
# Elastic Constant Matrix: (Units=GPa)
#
#
# Indices 1 2 3 4 5 6 
#
# 1 36.7827 15.9591 18.6638 0.0000 0.0000 0.0000
# 2 15.9591 68.6816 38.9072 0.0000 0.0000 0.0000
# 3 18.6638 38.9072 140.6229 0.0000 0.0000 0.0000
# 4 0.0000 0.0000 0.0000 21.2188 0.0000 0.0000
# 5 0.0000 0.0000 0.0000 0.0000 8.7070 0.0000
# 6 0.0000 0.0000 0.0000 0.0000 0.0000 20.3517
#
#
#
# Elastic Compliance Matrix: (Units=1/GPa)
#
#
# Indices 1 2 3 4 5 6 
#
# 1 0.030966 -0.005772 -0.002513 0.000000 0.000000 0.000000
# 2 -0.005772 0.018342 -0.004309 0.000000 0.000000 0.000000
# 3 -0.002513 -0.004309 0.008637 0.000000 0.000000 0.000000
# 4 0.000000 0.000000 0.000000 0.047128 0.000000 0.000000
# 5 0.000000 0.000000 0.000000 0.000000 0.114851 0.000000
# 6 0.000000 0.000000 0.000000 0.000000 0.000000 0.049136
#
#
# Mechanical properties :
#
#
# Convention : Reuss Voigt Hill
#
# Bulk Modulus (GPa) = 30.52709 43.68304 37.10507
# Shear Modulus (GPa) = 16.38454 21.55929 18.97192
#
# Velocity S-wave (km/s) = 2.87989 3.30351 3.09895
# Velocity P-wave (km/s) = 5.14889 6.05501 5.62024
#
# Compressibility (1/GPa) = 0.03275779
#
# Stress axis : x y z
#
# Youngs Moduli (GPa) = 32.29346 54.51984 115.78264
#
# Poissons Ratio (x) = 0.31468 0.29096
# Poissons Ratio (y) = 0.18639 0.49888
# Poissons Ratio (z) = 0.08115 0.23491
#
# Static dielectric constant tensor:
#      x y z
#    x 1.667530 0.000000 0.000000 
#    y 0.000000 1.738140 0.000000 
#    z 0.000000 0.000000 1.736380 
# 
# From -- ./inp_files/17912.got.cif
#   From: 2010.05.17/outbox.cif.g08.bks.cpg/sg69_9_cif.got.tgz:17912.got - 2010.06.03 19:29:58.
