data_PCOD9513299
_publ_section_title
;
Structure prediction by ZEFSAII (Michael W. Deem and Ramdas Pophale) SiO2 
 PCOD9513299
Probable space group: F M M M
;
_chemical_formula_sum "Si O2"
_cell_formula_units_Z 92
_cell_length_a 15.953706
_cell_length_b 14.220992
_cell_length_c 21.500469
_cell_angle_alpha 90.000000
_cell_angle_beta 90.000000
_cell_angle_gamma 90.000000
_cell_volume 4877.973202
_symmetry_space_group_name_H-M "F M M M"
_symmetry_group_IT_number 69
_symmetry_cell_setting 'orthorhombic'
loop_
_space_group_symop_operation_xyz
x,y,z
-x,-y,z
x,-y,-z
-x,y,-z
-x,-y,-z
x,y,-z
-x,y,z
x,-y,z
x,1/2+y,1/2+z
-x,1/2-y,1/2+z
x,1/2-y,1/2-z
-x,1/2+y,1/2-z
-x,1/2-y,1/2-z
x,1/2+y,1/2-z
-x,1/2+y,1/2+z
x,1/2-y,1/2+z
1/2+x,y,1/2+z
1/2-x,-y,1/2+z
1/2+x,-y,1/2-z
1/2-x,y,1/2-z
1/2-x,-y,1/2-z
1/2+x,y,1/2-z
1/2-x,y,1/2+z
1/2+x,-y,1/2+z
1/2+x,1/2+y,z
1/2-x,1/2-y,z
1/2+x,1/2-y,-z
1/2-x,1/2+y,-z
1/2-x,1/2-y,-z
1/2+x,1/2+y,-z
1/2-x,1/2+y,z
1/2+x,1/2-y,z
loop_
_atom_site_type_symbol
_atom_site_label
_atom_site_fract_x
_atom_site_fract_y
_atom_site_fract_z
Si Si1 0.165132 0.500000 0.289105
Si Si2 0.000000 0.714732 0.176986
Si Si3 0.500000 0.000000 0.500000
Si Si4 0.500000 0.500000 0.295100
Si Si5 0.172343 0.605147 0.500000
Si Si6 0.329052 0.809351 0.366547
O O1 0.250000 0.500000 0.250000
O O2 0.162943 0.592486 0.330857
O O3 0.083496 0.500000 0.246364
O O4 0.000000 0.750000 0.250000
O O5 0.000000 0.601462 0.171835
O O6 0.915874 0.754858 0.145263
O O7 0.426084 0.920146 0.500000
O O8 0.213973 0.500000 0.500000
O O9 0.189081 0.662753 0.437752
O O10 0.250000 0.750000 0.342212
#
# Coordination Sequence:
#
# PCOD9513299 Si02
#       6
#    16  16   4   8  16  32
#     4  12  23  38  65  93 128 174 216 266 322 400
#     4  12  25  42  66  96 131 169 215 270 341 396
#     4   8  16  34  72  88 120 152 226 264 328 358
#     4  12  24  43  60  92 138 162 215 266 324 400
#     4  10  21  41  66  97 125 170 222 273 324 381
#     4  12  25  41  66  96 133 173 220 274 333 393
#
# _framework density 18.860292000000001
#
# number of rings (size 3 to 8) (size 9 to 14) (size 15 to 20)
#    0.522    0.000    5.217    3.652    0.000    1.391 
#    0.000    0.000    0.000    1.043    0.000    0.000 
#    0.000    0.000    0.000    0.000    0.000    0.000 
#
# Total GULP energy -128195.864641 kJ/mol
# GULP energy per Si atom -5573.733245 kJ/mol
# Density = 1.881736 g / cm^3
# Si number density = 18.860292 Si / 1000 Ang^3
#
#
#
# Elastic Constant Matrix: (Units=GPa)
#
#
# Indices 1 2 3 4 5 6 
#
# 1 141.6322 72.6813 24.4070 0.0000 0.0000 0.0000
# 2 72.6813 199.5639 53.3769 0.0000 0.0000 0.0000
# 3 24.4070 53.3769 78.5629 0.0000 0.0000 0.0000
# 4 0.0000 0.0000 0.0000 24.7534 0.0000 0.0000
# 5 0.0000 0.0000 0.0000 0.0000 -6.7899 0.0000
# 6 0.0000 0.0000 0.0000 0.0000 0.0000 39.3407
#
#
#
# Elastic Compliance Matrix: (Units=1/GPa)
#
#
# Indices 1 2 3 4 5 6 
#
# 1 0.008712 -0.002993 -0.000673 0.000000 0.000000 0.000000
# 2 -0.002993 0.007152 -0.003929 0.000000 0.000000 0.000000
# 3 -0.000673 -0.003929 0.015607 0.000000 0.000000 0.000000
# 4 0.000000 0.000000 0.000000 0.040399 0.000000 0.000000
# 5 0.000000 0.000000 0.000000 0.000000 -0.147277 0.000000
# 6 0.000000 0.000000 0.000000 0.000000 0.000000 0.025419
#
#
# Mechanical properties :
#
#
# Convention : Reuss Voigt Hill
#
# Bulk Modulus (GPa) = 61.42199 80.07662 70.74930
# Shear Modulus (GPa) = -170.24513 29.41375 -70.41569
#
# Velocity S-wave (km/s) = -9.51117 3.95341 -6.11690
# Velocity P-wave (km/s) = 9.37971 7.96174 3.50641
#
# Compressibility (1/GPa) = 0.01628081
#
# Stress axis : x y z
#
# Youngs Moduli (GPa) = 114.77785 139.82186 64.07203
#
# Poissons Ratio (x) = 0.41849 0.04313
# Poissons Ratio (y) = 0.34353 0.25176
# Poissons Ratio (z) = 0.07727 0.54940
#
# Static dielectric constant tensor:
#      x y z
#    x 1.601560 0.000000 0.000000 
#    y 0.000000 1.677340 0.000000 
#    z 0.000000 0.000000 1.697170 
# 
# From -- ./inp_files/13898.got.cif
#   From: 2010.05.17/outbox.cif.g08.bks.cpg/sg69_7_cif.got.tgz:13898.got - 2010.06.03 19:29:58.
