data_PCOD9513170
_publ_section_title
;
Structure prediction by ZEFSAII (Michael W. Deem and Ramdas Pophale) SiO2 
 PCOD9513170
Probable space group: F M M M
;
_chemical_formula_sum "Si O2"
_cell_formula_units_Z 88
_cell_length_a 5.241862
_cell_length_b 33.000649
_cell_length_c 25.026167
_cell_angle_alpha 90.000000
_cell_angle_beta 90.000000
_cell_angle_gamma 90.000000
_cell_volume 4329.147694
_symmetry_space_group_name_H-M "F M M M"
_symmetry_group_IT_number 69
_symmetry_cell_setting 'orthorhombic'
loop_
_space_group_symop_operation_xyz
x,y,z
-x,-y,z
x,-y,-z
-x,y,-z
-x,-y,-z
x,y,-z
-x,y,z
x,-y,z
x,1/2+y,1/2+z
-x,1/2-y,1/2+z
x,1/2-y,1/2-z
-x,1/2+y,1/2-z
-x,1/2-y,1/2-z
x,1/2+y,1/2-z
-x,1/2+y,1/2+z
x,1/2-y,1/2+z
1/2+x,y,1/2+z
1/2-x,-y,1/2+z
1/2+x,-y,1/2-z
1/2-x,y,1/2-z
1/2-x,-y,1/2-z
1/2+x,y,1/2-z
1/2-x,y,1/2+z
1/2+x,-y,1/2+z
1/2+x,1/2+y,z
1/2-x,1/2-y,z
1/2+x,1/2-y,-z
1/2-x,1/2+y,-z
1/2-x,1/2-y,-z
1/2+x,1/2+y,-z
1/2-x,1/2+y,z
1/2+x,1/2-y,z
loop_
_atom_site_type_symbol
_atom_site_label
_atom_site_fract_x
_atom_site_fract_y
_atom_site_fract_z
Si Si1 0.500000 0.927308 0.627591
Si Si2 0.500000 0.778173 0.556620
Si Si3 0.000000 0.865692 0.781988
Si Si4 0.500000 0.451156 0.436687
Si Si5 0.000000 0.278048 0.323419
Si Si6 0.500000 0.000000 0.712954
O O1 0.500000 0.885535 0.659819
O O2 0.749533 0.933563 0.591593
O O3 0.500000 0.961409 0.673874
O O4 0.500000 0.802037 0.500000
O O5 0.250000 0.750000 0.555591
O O6 0.500000 0.796002 0.615847
O O7 0.250000 0.879003 0.750000
O O8 0.000000 0.817015 0.786097
O O9 0.500000 0.500000 0.429440
O O10 0.500000 0.443032 0.500000
O O11 0.250000 0.250000 0.316868
O O12 0.750000 0.000000 0.750000
#
# Coordination Sequence:
#
# PCOD9513170 Si02
#       6
#    16  16  16  16  16   8
#     4  12  23  42  63  94 131 168 210 259 315 379
#     4   8  14  27  49  77 106 136 176 232 295 355
#     4  12  26  43  62  88 127 170 211 272 327 366
#     4  11  22  41  68  98 129 167 210 255 315 381
#     4  10  21  38  62  88 116 158 212 261 316 383
#     4  12  22  36  59  88 121 166 216 252 292 364
#
# _framework density 20.327328000000001
#
# number of rings (size 3 to 8) (size 9 to 14) (size 15 to 20)
#    0.000    1.273    1.818    4.909    0.000    3.636 
#    0.000    1.818    0.000    8.727    0.000    0.000 
#    0.000    0.000    0.000    0.000    0.000    0.000 
#
# Total GULP energy -122924.578872 kJ/mol
# GULP energy per Si atom -5587.480858 kJ/mol
# Density = 2.028106 g / cm^3
# Si number density = 20.327328 Si / 1000 Ang^3
#
#
#
# Elastic Constant Matrix: (Units=GPa)
#
#
# Indices 1 2 3 4 5 6 
#
# 1 228.4072 45.5128 87.7694 0.0000 0.0000 0.0000
# 2 45.5128 84.8430 38.5963 0.0000 0.0000 0.0000
# 3 87.7694 38.5963 138.7033 0.0000 0.0000 0.0000
# 4 0.0000 0.0000 0.0000 34.6144 0.0000 0.0000
# 5 0.0000 0.0000 0.0000 0.0000 28.8000 0.0000
# 6 0.0000 0.0000 0.0000 0.0000 0.0000 -113.9564
#
#
#
# Elastic Compliance Matrix: (Units=1/GPa)
#
#
# Indices 1 2 3 4 5 6 
#
# 1 0.005993 -0.001706 -0.003318 0.000000 0.000000 0.000000
# 2 -0.001706 0.013980 -0.002811 0.000000 0.000000 0.000000
# 3 -0.003318 -0.002811 0.010091 0.000000 0.000000 0.000000
# 4 0.000000 0.000000 0.000000 0.028890 0.000000 0.000000
# 5 0.000000 0.000000 0.000000 0.000000 0.034722 0.000000
# 6 0.000000 0.000000 0.000000 0.000000 0.000000 -0.008775
#
#
# Mechanical properties :
#
#
# Convention : Reuss Voigt Hill
#
# Bulk Modulus (GPa) = 69.46392 88.41227 78.93810
# Shear Modulus (GPa) = 47.45293 8.56326 28.00809
#
# Velocity S-wave (km/s) = 4.83685 2.05471 3.71597
# Velocity P-wave (km/s) = 8.08952 7.01554 7.57160
#
# Compressibility (1/GPa) = 0.01439596
#
# Stress axis : x y z
#
# Youngs Moduli (GPa) = 166.86597 71.53009 99.09687
#
# Poissons Ratio (x) = 0.12200 0.32876
# Poissons Ratio (y) = 0.28460 0.27856
# Poissons Ratio (z) = 0.55359 0.20107
#
# Static dielectric constant tensor:
#      x y z
#    x 1.645060 0.000000 0.000000 
#    y 0.000000 1.695830 0.000000 
#    z 0.000000 0.000000 1.753400 
# 
# From -- ./inp_files/34210.got.cif
#   From: 2010.05.17/outbox.cif.g08.bks.cpg/sg69_18_cif.got.tgz:34210.got - 2010.06.03 19:29:58.
