data_PCOD9513193
_publ_section_title
;
Structure prediction by ZEFSAII (Michael W. Deem and Ramdas Pophale) SiO2 
 PCOD9513193
Probable space group: F M M M
;
_chemical_formula_sum "Si O2"
_cell_formula_units_Z 96
_cell_length_a 14.317584
_cell_length_b 21.129366
_cell_length_c 15.480562
_cell_angle_alpha 90.000000
_cell_angle_beta 90.000000
_cell_angle_gamma 90.000000
_cell_volume 4683.202412
_symmetry_space_group_name_H-M "F M M M"
_symmetry_group_IT_number 69
_symmetry_cell_setting 'orthorhombic'
loop_
_space_group_symop_operation_xyz
x,y,z
-x,-y,z
x,-y,-z
-x,y,-z
-x,-y,-z
x,y,-z
-x,y,z
x,-y,z
x,1/2+y,1/2+z
-x,1/2-y,1/2+z
x,1/2-y,1/2-z
-x,1/2+y,1/2-z
-x,1/2-y,1/2-z
x,1/2+y,1/2-z
-x,1/2+y,1/2+z
x,1/2-y,1/2+z
1/2+x,y,1/2+z
1/2-x,-y,1/2+z
1/2+x,-y,1/2-z
1/2-x,y,1/2-z
1/2-x,-y,1/2-z
1/2+x,y,1/2-z
1/2-x,y,1/2+z
1/2+x,-y,1/2+z
1/2+x,1/2+y,z
1/2-x,1/2-y,z
1/2+x,1/2-y,-z
1/2-x,1/2+y,-z
1/2-x,1/2-y,-z
1/2+x,1/2+y,-z
1/2-x,1/2+y,z
1/2+x,1/2-y,z
loop_
_atom_site_type_symbol
_atom_site_label
_atom_site_fract_x
_atom_site_fract_y
_atom_site_fract_z
Si Si1 0.609096 0.192818 0.840389
Si Si2 0.606022 0.400334 0.500000
Si Si3 0.113017 0.835011 0.851574
Si Si4 0.814572 0.428567 0.500000
O O1 0.500000 0.205020 0.823309
O O2 0.614043 0.143701 0.916419
O O3 0.641702 0.162737 0.749769
O O4 0.643139 0.262137 0.870313
O O5 0.500000 0.427939 0.500000
O O6 0.702961 0.436624 0.500000
O O7 0.000000 0.841349 0.860217
O O8 0.156165 0.886361 0.916409
O O9 0.856028 0.500000 0.500000
#
# Coordination Sequence:
#
# PCOD9513193 Si02
#       4
#    32  16  32  16
#     4   8  16  34  62  90 114 144 183 236 300 349
#     4  10  21  39  58  77 106 148 204 260 298 332
#     4   9  18  35  59  90 123 147 178 231 294 359
#     4  12  26  38  53  82 120 165 203 229 278 351
#
# _framework density 20.498792000000002
#
# number of rings (size 3 to 8) (size 9 to 14) (size 15 to 20)
#    0.000    2.667    0.000    3.500    0.000    8.333 
#    0.000    6.667    0.000    6.000    0.000    0.000 
#    0.000    0.000    0.000    0.000    0.000    0.000 
#
# Total GULP energy -133603.331595 kJ/mol
# GULP energy per Si atom -5566.805483 kJ/mol
# Density = 2.045214 g / cm^3
# Si number density = 20.498792 Si / 1000 Ang^3
#
#
#
# Elastic Constant Matrix: (Units=GPa)
#
#
# Indices 1 2 3 4 5 6 
#
# 1 131.0456 47.1279 34.0165 0.0000 0.0000 0.0000
# 2 47.1279 153.7495 102.7374 0.0000 0.0000 0.0000
# 3 34.0165 102.7374 124.1986 0.0000 0.0000 0.0000
# 4 0.0000 0.0000 0.0000 4.8957 0.0000 0.0000
# 5 0.0000 0.0000 0.0000 0.0000 375.8645 0.0000
# 6 0.0000 0.0000 0.0000 0.0000 0.0000 11.6656
#
#
#
# Elastic Compliance Matrix: (Units=1/GPa)
#
#
# Indices 1 2 3 4 5 6 
#
# 1 0.008585 -0.002371 -0.000390 0.000000 0.000000 0.000000
# 2 -0.002371 0.015197 -0.011922 0.000000 0.000000 0.000000
# 3 -0.000390 -0.011922 0.018020 0.000000 0.000000 0.000000
# 4 0.000000 0.000000 0.000000 0.204260 0.000000 0.000000
# 5 0.000000 0.000000 0.000000 0.000000 0.002661 0.000000
# 6 0.000000 0.000000 0.000000 0.000000 0.000000 0.085722
#
#
# Mechanical properties :
#
#
# Convention : Reuss Voigt Hill
#
# Bulk Modulus (GPa) = 80.40702 86.30636 83.35669
# Shear Modulus (GPa) = 13.58861 93.49263 53.54062
#
# Velocity S-wave (km/s) = 2.57747 6.76076 5.11621
# Velocity P-wave (km/s) = 6.94033 10.15571 8.69789
#
# Compressibility (1/GPa) = 0.01243673
#
# Stress axis : x y z
#
# Youngs Moduli (GPa) = 116.48495 65.80256 55.49349
#
# Poissons Ratio (x) = 0.15600 0.02165
# Poissons Ratio (y) = 0.27615 0.66158
# Poissons Ratio (z) = 0.04546 0.78448
#
# Static dielectric constant tensor:
#      x y z
#    x 1.823380 0.000000 0.000000 
#    y 0.000000 1.711280 0.000000 
#    z 0.000000 0.000000 1.801790 
# 
# From -- ./inp_files/13866.got.cif
#   From: 2010.05.17/outbox.cif.g08.bks.cpg/sg69_7_cif.got.tgz:13866.got - 2010.06.03 19:29:58.
