data_PCOD9513288
_publ_section_title
;
Structure prediction by ZEFSAII (Michael W. Deem and Ramdas Pophale) SiO2 
 PCOD9513288
Probable space group: F M M M
;
_chemical_formula_sum "Si O2"
_cell_formula_units_Z 136
_cell_length_a 16.644916
_cell_length_b 15.247832
_cell_length_c 24.056372
_cell_angle_alpha 90.000000
_cell_angle_beta 90.000000
_cell_angle_gamma 90.000000
_cell_volume 6105.480338
_symmetry_space_group_name_H-M "F M M M"
_symmetry_group_IT_number 69
_symmetry_cell_setting 'orthorhombic'
loop_
_space_group_symop_operation_xyz
x,y,z
-x,-y,z
x,-y,-z
-x,y,-z
-x,-y,-z
x,y,-z
-x,y,z
x,-y,z
x,1/2+y,1/2+z
-x,1/2-y,1/2+z
x,1/2-y,1/2-z
-x,1/2+y,1/2-z
-x,1/2-y,1/2-z
x,1/2+y,1/2-z
-x,1/2+y,1/2+z
x,1/2-y,1/2+z
1/2+x,y,1/2+z
1/2-x,-y,1/2+z
1/2+x,-y,1/2-z
1/2-x,y,1/2-z
1/2-x,-y,1/2-z
1/2+x,y,1/2-z
1/2-x,y,1/2+z
1/2+x,-y,1/2+z
1/2+x,1/2+y,z
1/2-x,1/2-y,z
1/2+x,1/2-y,-z
1/2-x,1/2+y,-z
1/2-x,1/2-y,-z
1/2+x,1/2+y,-z
1/2-x,1/2+y,z
1/2+x,1/2-y,z
loop_
_atom_site_type_symbol
_atom_site_label
_atom_site_fract_x
_atom_site_fract_y
_atom_site_fract_z
Si Si1 0.500000 0.896635 0.119908
Si Si2 0.665154 0.898720 0.832994
Si Si3 0.832059 0.606359 0.616666
Si Si4 0.500000 0.676922 0.500000
Si Si5 0.161252 0.296013 0.500000
Si Si6 0.588831 0.650456 0.771514
O O1 0.417419 0.857790 0.143896
O O2 0.500000 0.881795 0.054736
O O3 0.500000 0.000000 0.133666
O O4 0.745564 0.861880 0.859421
O O5 0.655826 0.894979 0.766685
O O6 0.665479 0.000000 0.850409
O O7 0.834981 0.500000 0.614902
O O8 0.844289 0.646083 0.555956
O O9 0.893449 0.638599 0.663871
O O10 0.583105 0.732616 0.500000
O O11 0.250000 0.250000 0.500000
O O12 0.500000 0.613802 0.759320
O O13 0.590499 0.750000 0.750000
#
# Coordination Sequence:
#
# PCOD9513288 Si02
#       6
#    16  32  32   8  16  32
#     4  10  21  40  68  96 134 177 222 289 350 410
#     4  10  21  40  67  97 132 173 225 282 344 413
#     4  11  26  46  69 100 139 188 236 282 345 421
#     4  12  27  42  69 100 138 174 246 284 343 420
#     4  12  29  48  73 100 140 188 234 302 349 400
#     4  11  25  40  67 101 141 179 226 281 345 413
#
# _framework density 22.275068999999998
#
# number of rings (size 3 to 8) (size 9 to 14) (size 15 to 20)
#    0.000    1.176    1.176    3.353    8.235    4.235 
#    0.000    5.294    0.000    0.000    0.000    0.000 
#    0.000    0.000    0.000    0.000    0.000    0.000 
#
# Total GULP energy -190060.344845 kJ/mol
# GULP energy per Si atom -5590.010142 kJ/mol
# Density = 2.222437 g / cm^3
# Si number density = 22.275069 Si / 1000 Ang^3
#
#
#
# Elastic Constant Matrix: (Units=GPa)
#
#
# Indices 1 2 3 4 5 6 
#
# 1 98.2929 -1.1816 6.5400 0.0000 0.0000 0.0000
# 2 -1.1816 52.0720 1.6726 0.0000 0.0000 0.0000
# 3 6.5400 1.6726 146.9445 0.0000 0.0000 0.0000
# 4 0.0000 0.0000 0.0000 43.3632 0.0000 0.0000
# 5 0.0000 0.0000 0.0000 0.0000 33.3043 0.0000
# 6 0.0000 0.0000 0.0000 0.0000 0.0000 12.6057
#
#
#
# Elastic Compliance Matrix: (Units=1/GPa)
#
#
# Indices 1 2 3 4 5 6 
#
# 1 0.010207 0.000246 -0.000457 0.000000 0.000000 0.000000
# 2 0.000246 0.019217 -0.000230 0.000000 0.000000 0.000000
# 3 -0.000457 -0.000230 0.006828 0.000000 0.000000 0.000000
# 4 0.000000 0.000000 0.000000 0.023061 0.000000 0.000000
# 5 0.000000 0.000000 0.000000 0.000000 0.030026 0.000000
# 6 0.000000 0.000000 0.000000 0.000000 0.000000 0.079329
#
#
# Mechanical properties :
#
#
# Convention : Reuss Voigt Hill
#
# Bulk Modulus (GPa) = 28.27139 34.59684 31.43412
# Shear Modulus (GPa) = 27.57243 37.20651 32.38947
#
# Velocity S-wave (km/s) = 3.52208 4.09139 3.81736
# Velocity P-wave (km/s) = 5.40921 6.15505 5.79414
#
# Compressibility (1/GPa) = 0.03537144
#
# Stress axis : x y z
#
# Youngs Moduli (GPa) = 97.97150 52.03685 146.45045
#
# Poissons Ratio (x) = -0.01282 0.06694
# Poissons Ratio (y) = -0.02413 0.03364
# Poissons Ratio (z) = 0.04478 0.01195
#
# Static dielectric constant tensor:
#      x y z
#    x 1.864040 0.000000 0.000000 
#    y 0.000000 1.826490 0.000000 
#    z 0.000000 0.000000 1.797500 
# 
# From -- ./inp_files/30543.got.cif
#   From: 2010.05.17/outbox.cif.g08.bks.cpg/sg69_16_cif.got.tgz:30543.got - 2010.06.03 19:29:58.
