data_PCOD9513089
_publ_section_title
;
Structure prediction by ZEFSAII (Michael W. Deem and Ramdas Pophale) SiO2 
 PCOD9513089
Probable space group: F M M M
;
_chemical_formula_sum "Si O2"
_cell_formula_units_Z 176
_cell_length_a 16.555106
_cell_length_b 25.443838
_cell_length_c 20.661777
_cell_angle_alpha 90.000000
_cell_angle_beta 90.000000
_cell_angle_gamma 90.000000
_cell_volume 8703.266008
_symmetry_space_group_name_H-M "F M M M"
_symmetry_group_IT_number 69
_symmetry_cell_setting 'orthorhombic'
loop_
_space_group_symop_operation_xyz
x,y,z
-x,-y,z
x,-y,-z
-x,y,-z
-x,-y,-z
x,y,-z
-x,y,z
x,-y,z
x,1/2+y,1/2+z
-x,1/2-y,1/2+z
x,1/2-y,1/2-z
-x,1/2+y,1/2-z
-x,1/2-y,1/2-z
x,1/2+y,1/2-z
-x,1/2+y,1/2+z
x,1/2-y,1/2+z
1/2+x,y,1/2+z
1/2-x,-y,1/2+z
1/2+x,-y,1/2-z
1/2-x,y,1/2-z
1/2-x,-y,1/2-z
1/2+x,y,1/2-z
1/2-x,y,1/2+z
1/2+x,-y,1/2+z
1/2+x,1/2+y,z
1/2-x,1/2-y,z
1/2+x,1/2-y,-z
1/2-x,1/2+y,-z
1/2-x,1/2-y,-z
1/2+x,1/2+y,-z
1/2-x,1/2+y,z
1/2+x,1/2-y,z
loop_
_atom_site_type_symbol
_atom_site_label
_atom_site_fract_x
_atom_site_fract_y
_atom_site_fract_z
Si Si1 0.748820 0.117120 0.929274
Si Si2 0.833636 0.780805 0.877949
Si Si3 0.851916 0.438449 0.666902
Si Si4 0.652532 0.839785 0.251977
Si Si5 0.500000 0.063204 0.572587
Si Si6 0.408059 0.823185 0.892449
O O1 0.805057 0.168676 0.918375
O O2 0.770584 0.078183 0.870906
O O3 0.658067 0.138692 0.923791
O O4 0.764201 0.093965 0.000000
O O5 0.750000 0.750000 0.862374
O O6 0.872438 0.802878 0.811960
O O7 0.888633 0.737140 0.911330
O O8 0.854650 0.500000 0.682067
O O9 0.862926 0.399947 0.727287
O O10 0.921598 0.424541 0.614946
O O11 0.750000 0.833825 0.250000
O O12 0.611434 0.826049 0.184633
O O13 0.500000 0.085588 0.500000
O O14 0.500000 0.000000 0.566689
O O15 0.500000 0.836874 0.905866
#
# Coordination Sequence:
#
# PCOD9513089 Si02
#       6
#    32  32  32  32  16  32
#     4  10  21  39  60  82 112 153 198 241 284 342
#     4   9  18  33  56  79 108 147 188 228 281 335
#     4  10  21  37  60  88 115 150 190 233 291 347
#     4  11  19  35  56  84 114 149 187 233 278 338
#     4   9  18  34  56  84 115 142 177 233 290 339
#     4  11  23  36  55  86 118 152 190 236 288 337
#
# _framework density 20.222294000000002
#
# number of rings (size 3 to 8) (size 9 to 14) (size 15 to 20)
#    0.000    1.909    5.455    1.091    1.273    6.545 
#    4.909    0.000    0.000    1.636    0.000    1.273 
#    0.000    0.000    0.000    0.000    0.000    0.000 
#
# Total GULP energy -245626.528453 kJ/mol
# GULP energy per Si atom -5582.421101 kJ/mol
# Density = 2.017627 g / cm^3
# Si number density = 20.222294 Si / 1000 Ang^3
#
#
#
# Elastic Constant Matrix: (Units=GPa)
#
#
# Indices 1 2 3 4 5 6 
#
# 1 79.3349 9.8805 -4.0272 0.0000 0.0000 0.0000
# 2 9.8805 76.3313 -6.6069 0.0000 0.0000 0.0000
# 3 -4.0272 -6.6069 40.4723 0.0000 0.0000 0.0000
# 4 0.0000 0.0000 0.0000 9.9517 0.0000 0.0000
# 5 0.0000 0.0000 0.0000 0.0000 -1.1440 0.0000
# 6 0.0000 0.0000 0.0000 0.0000 0.0000 14.2225
#
#
#
# Elastic Compliance Matrix: (Units=1/GPa)
#
#
# Indices 1 2 3 4 5 6 
#
# 1 0.012853 -0.001575 0.001022 0.000000 0.000000 0.000000
# 2 -0.001575 0.013482 0.002044 0.000000 0.000000 0.000000
# 3 0.001022 0.002044 0.025144 0.000000 0.000000 0.000000
# 4 0.000000 0.000000 0.000000 0.100485 0.000000 0.000000
# 5 0.000000 0.000000 0.000000 0.000000 -0.874151 0.000000
# 6 0.000000 0.000000 0.000000 0.000000 0.000000 0.070311
#
#
# Mechanical properties :
#
#
# Convention : Reuss Voigt Hill
#
# Bulk Modulus (GPa) = 18.36238 21.62571 19.99404
# Shear Modulus (GPa) = -7.85293 17.73219 4.93963
#
# Velocity S-wave (km/s) = -1.97275 2.96440 1.56460
# Velocity P-wave (km/s) = 1.97762 4.73647 3.62940
#
# Compressibility (1/GPa) = 0.05445917
#
# Stress axis : x y z
#
# Youngs Moduli (GPa) = 77.80376 74.17512 39.77156
#
# Poissons Ratio (x) = 0.11684 -0.04064
# Poissons Ratio (y) = 0.12256 -0.08129
# Poissons Ratio (z) = -0.07950 -0.15162
#
# Static dielectric constant tensor:
#      x y z
#    x 1.745780 0.000000 0.000000 
#    y 0.000000 1.717580 0.000000 
#    z 0.000000 0.000000 1.733700 
# 
# From -- ./inp_files/36037.got.cif
#   From: 2010.05.17/outbox.cif.g08.bks.cpg/sg69_19_cif.got.tgz:36037.got - 2010.06.03 19:29:58.
