data_PCOD9513073
_publ_section_title
;
Structure prediction by ZEFSAII (Michael W. Deem and Ramdas Pophale) SiO2 
 PCOD9513073
Probable space group: F M M M
;
_chemical_formula_sum "Si O2"
_cell_formula_units_Z 144
_cell_length_a 14.222234
_cell_length_b 18.530779
_cell_length_c 28.115934
_cell_angle_alpha 90.000000
_cell_angle_beta 90.000000
_cell_angle_gamma 90.000000
_cell_volume 7409.928402
_symmetry_space_group_name_H-M "F M M M"
_symmetry_group_IT_number 69
_symmetry_cell_setting 'orthorhombic'
loop_
_space_group_symop_operation_xyz
x,y,z
-x,-y,z
x,-y,-z
-x,y,-z
-x,-y,-z
x,y,-z
-x,y,z
x,-y,z
x,1/2+y,1/2+z
-x,1/2-y,1/2+z
x,1/2-y,1/2-z
-x,1/2+y,1/2-z
-x,1/2-y,1/2-z
x,1/2+y,1/2-z
-x,1/2+y,1/2+z
x,1/2-y,1/2+z
1/2+x,y,1/2+z
1/2-x,-y,1/2+z
1/2+x,-y,1/2-z
1/2-x,y,1/2-z
1/2-x,-y,1/2-z
1/2+x,y,1/2-z
1/2-x,y,1/2+z
1/2+x,-y,1/2+z
1/2+x,1/2+y,z
1/2-x,1/2-y,z
1/2+x,1/2-y,-z
1/2-x,1/2+y,-z
1/2-x,1/2-y,-z
1/2+x,1/2+y,-z
1/2-x,1/2+y,z
1/2+x,1/2-y,z
loop_
_atom_site_type_symbol
_atom_site_label
_atom_site_fract_x
_atom_site_fract_y
_atom_site_fract_z
Si Si1 0.000000 0.897675 0.445564
Si Si2 0.649843 0.141624 0.386260
Si Si3 0.387858 0.000000 0.446829
Si Si4 0.500000 0.274101 0.054231
Si Si5 0.844908 0.916468 0.367480
Si Si6 0.000000 0.154699 0.697844
Si Si7 0.500000 0.671988 0.809699
O O1 0.000000 0.811247 0.446691
O O2 0.909026 0.919153 0.414895
O O3 0.000000 0.922367 0.500000
O O4 0.593527 0.199838 0.418109
O O5 0.759807 0.139895 0.374790
O O6 0.590397 0.141628 0.337638
O O7 0.638982 0.069581 0.417163
O O8 0.500000 0.000000 0.450568
O O9 0.347177 0.000000 0.500000
O O10 0.500000 0.303021 0.000000
O O11 0.911103 0.884835 0.326037
O O12 0.815554 0.000000 0.357362
O O13 0.000000 0.240448 0.685853
O O14 0.000000 0.150931 0.754710
#
# Coordination Sequence:
#
# PCOD9513073 Si02
#       7
#    16  32  16  16  32  16  16
#     4  10  23  40  58  82 117 162 209 247 284 347
#     4  11  21  37  59  92 118 154 194 247 296 360
#     4  11  20  34  56  86 128 162 192 237 298 357
#     4  10  21  37  58  88 121 154 196 250 307 347
#     4  11  23  41  59  87 121 158 200 240 296 352
#     4  10  23  45  63  86 116 160 197 251 300 352
#     4  10  23  41  67  90 115 148 202 249 309 361
#
# _framework density 19.433385999999999
#
# number of rings (size 3 to 8) (size 9 to 14) (size 15 to 20)
#    0.000    1.444    3.333    4.667    0.000    7.111 
#    4.000    5.556    0.000    0.000    0.000    0.000 
#    0.000    0.000    0.000    0.000    0.000    0.000 
#
# Total GULP energy -200884.285597 kJ/mol
# GULP energy per Si atom -5580.119044 kJ/mol
# Density = 1.938915 g / cm^3
# Si number density = 19.433386 Si / 1000 Ang^3
#
#
#
# Elastic Constant Matrix: (Units=GPa)
#
#
# Indices 1 2 3 4 5 6 
#
# 1 133.3813 19.8813 51.6256 0.0000 0.0000 0.0000
# 2 19.8813 97.0728 42.2387 0.0000 0.0000 0.0000
# 3 51.6256 42.2387 165.4018 0.0000 0.0000 0.0000
# 4 0.0000 0.0000 0.0000 35.0156 0.0000 0.0000
# 5 0.0000 0.0000 0.0000 0.0000 169.2573 0.0000
# 6 0.0000 0.0000 0.0000 0.0000 0.0000 9.6447
#
#
#
# Elastic Compliance Matrix: (Units=1/GPa)
#
#
# Indices 1 2 3 4 5 6 
#
# 1 0.008565 -0.000665 -0.002504 0.000000 0.000000 0.000000
# 2 -0.000665 0.011641 -0.002765 0.000000 0.000000 0.000000
# 3 -0.002504 -0.002765 0.007533 0.000000 0.000000 0.000000
# 4 0.000000 0.000000 0.000000 0.028559 0.000000 0.000000
# 5 0.000000 0.000000 0.000000 0.000000 0.005908 0.000000
# 6 0.000000 0.000000 0.000000 0.000000 0.000000 0.103684
#
#
# Mechanical properties :
#
#
# Convention : Reuss Voigt Hill
#
# Bulk Modulus (GPa) = 63.00268 69.26079 66.13173
# Shear Modulus (GPa) = 27.31504 61.59086 44.45295
#
# Velocity S-wave (km/s) = 3.75316 5.63579 4.78792
# Velocity P-wave (km/s) = 7.16044 8.83555 8.04173
#
# Compressibility (1/GPa) = 0.01587234
#
# Stress axis : x y z
#
# Youngs Moduli (GPa) = 116.74793 85.90374 132.74049
#
# Poissons Ratio (x) = 0.05711 0.33234
# Poissons Ratio (y) = 0.07762 0.36706
# Poissons Ratio (z) = 0.29230 0.23754
#
# Static dielectric constant tensor:
#      x y z
#    x 1.765580 0.000000 0.000000 
#    y 0.000000 1.686970 0.000000 
#    z 0.000000 0.000000 1.677700 
# 
# From -- ./inp_files/45668.got.cif
#   From: 2010.05.17/outbox.cif.g08.bks.cpg/sg69_23_cif.got.tgz:45668.got - 2010.06.03 19:29:58.
