data_PCOD9513902
_publ_section_title
;
Structure prediction by ZEFSAII (Michael W. Deem and Ramdas Pophale) SiO2 
 PCOD9513902
Probable space group: F M M M
;
_chemical_formula_sum "Si O2"
_cell_formula_units_Z 160
_cell_length_a 27.112464
_cell_length_b 8.624394
_cell_length_c 31.292903
_cell_angle_alpha 90.000000
_cell_angle_beta 90.000000
_cell_angle_gamma 90.000000
_cell_volume 7317.174817
_symmetry_space_group_name_H-M "F M M M"
_symmetry_group_IT_number 69
_symmetry_cell_setting 'orthorhombic'
loop_
_space_group_symop_operation_xyz
x,y,z
-x,-y,z
x,-y,-z
-x,y,-z
-x,-y,-z
x,y,-z
-x,y,z
x,-y,z
x,1/2+y,1/2+z
-x,1/2-y,1/2+z
x,1/2-y,1/2-z
-x,1/2+y,1/2-z
-x,1/2-y,1/2-z
x,1/2+y,1/2-z
-x,1/2+y,1/2+z
x,1/2-y,1/2+z
1/2+x,y,1/2+z
1/2-x,-y,1/2+z
1/2+x,-y,1/2-z
1/2-x,y,1/2-z
1/2-x,-y,1/2-z
1/2+x,y,1/2-z
1/2-x,y,1/2+z
1/2+x,-y,1/2+z
1/2+x,1/2+y,z
1/2-x,1/2-y,z
1/2+x,1/2-y,-z
1/2-x,1/2+y,-z
1/2-x,1/2-y,-z
1/2+x,1/2+y,-z
1/2-x,1/2+y,z
1/2+x,1/2-y,z
loop_
_atom_site_type_symbol
_atom_site_label
_atom_site_fract_x
_atom_site_fract_y
_atom_site_fract_z
Si Si1 0.686752 0.178756 0.047857
Si Si2 0.000000 0.324147 0.192000
Si Si3 0.000000 0.669882 0.608087
Si Si4 0.301793 0.815400 0.641502
Si Si5 0.069387 0.825838 0.451416
Si Si6 0.609966 0.686372 0.204762
O O1 0.698335 0.267938 0.091435
O O2 0.627779 0.174927 0.048538
O O3 0.704813 0.000000 0.050834
O O4 0.699390 0.239547 0.000000
O O5 0.000000 0.308100 0.141280
O O6 0.946940 0.246217 0.202276
O O7 0.000000 0.500000 0.208187
O O8 0.952912 0.695978 0.578570
O O9 0.000000 0.500000 0.628517
O O10 0.250000 0.750000 0.659749
O O11 0.351765 0.763440 0.666946
O O12 0.300709 0.000000 0.644505
O O13 0.053381 0.801289 0.500000
O O14 0.054281 0.000000 0.438492
O O15 0.608339 0.500000 0.204650
O O16 0.629485 0.750000 0.250000
#
# Coordination Sequence:
#
# PCOD9513902 Si02
#       6
#    32  16  16  32  32  32
#     4   9  19  37  61  88 120 161 210 263 318 377
#     4  12  25  42  67  96 128 169 210 257 318 381
#     4  12  23  32  47  77 117 158 204 259 316 377
#     4  11  25  43  66  96 131 172 218 268 321 381
#     4   9  18  33  52  75 108 155 209 261 316 380
#     4  11  25  46  71 101 134 169 212 264 323 386
#
# _framework density 21.866361999999999
#
# number of rings (size 3 to 8) (size 9 to 14) (size 15 to 20)
#    0.000    1.600    0.000    6.000    0.000   10.000 
#    0.000    4.000    0.000    0.000    0.000    0.000 
#    0.000    0.000    0.000    0.000    0.000    0.000 
#
# Total GULP energy -223122.847917 kJ/mol
# GULP energy per Si atom -5578.071198 kJ/mol
# Density = 2.181659 g / cm^3
# Si number density = 21.866362 Si / 1000 Ang^3
#
#
#
# Elastic Constant Matrix: (Units=GPa)
#
#
# Indices 1 2 3 4 5 6 
#
# 1 162.0297 37.3240 53.3991 0.0000 0.0000 -0.0002
# 2 37.3240 65.1044 35.0134 0.0000 0.0000 -0.0003
# 3 53.3991 35.0134 121.2522 0.0000 0.0000 0.0000
# 4 0.0000 0.0000 0.0000 29.3057 0.0000 0.0000
# 5 0.0000 0.0000 0.0000 0.0000 -30.3535 0.0000
# 6 -0.0002 -0.0003 0.0000 0.0000 0.0000 31.9618
#
#
#
# Elastic Compliance Matrix: (Units=1/GPa)
#
#
# Indices 1 2 3 4 5 6 
#
# 1 0.007705 -0.003069 -0.002507 0.000000 0.000000 0.000000
# 2 -0.003069 0.019406 -0.004252 0.000000 0.000000 0.000000
# 3 -0.002507 -0.004252 0.010579 0.000000 0.000000 0.000000
# 4 0.000000 0.000000 0.000000 0.034123 0.000000 0.000000
# 5 0.000000 0.000000 0.000000 0.000000 -0.032945 0.000000
# 6 0.000000 0.000000 0.000000 0.000000 0.000000 0.031287
#
#
# Mechanical properties :
#
#
# Convention : Reuss Voigt Hill
#
# Bulk Modulus (GPa) = 55.45098 66.65106 61.05102
# Shear Modulus (GPa) = 52.17935 21.02612 36.60273
#
# Velocity S-wave (km/s) = 4.89026 3.10429 4.09581
# Velocity P-wave (km/s) = 7.56969 6.58757 7.09565
#
# Compressibility (1/GPa) = 0.01803395
#
# Stress axis : x y z
#
# Youngs Moduli (GPa) = 129.78833 51.52985 94.52439
#
# Poissons Ratio (x) = 0.15814 0.23697
# Poissons Ratio (y) = 0.39830 0.40195
# Poissons Ratio (z) = 0.32538 0.21912
#
# Static dielectric constant tensor:
#      x y z
#    x 1.827370 0.000000 0.000000 
#    y 0.000000 1.809280 0.000000 
#    z 0.000000 0.000000 1.821570 
# 
# From -- ./inp_files/47473.got.cif
#   From: 2010.05.17/outbox.cif.g08.bks.cpg/sg69_24_cif.got.tgz:47473.got - 2010.06.03 19:29:58.
