data_PCOD9513416
_publ_section_title
;
Structure prediction by ZEFSAII (Michael W. Deem and Ramdas Pophale) SiO2 
 PCOD9513416
Probable space group: F M M M
;
_chemical_formula_sum "Si O2"
_cell_formula_units_Z 176
_cell_length_a 23.637351
_cell_length_b 25.000051
_cell_length_c 15.300622
_cell_angle_alpha 90.000000
_cell_angle_beta 90.000000
_cell_angle_gamma 90.000000
_cell_volume 9041.672763
_symmetry_space_group_name_H-M "F M M M"
_symmetry_group_IT_number 69
_symmetry_cell_setting 'orthorhombic'
loop_
_space_group_symop_operation_xyz
x,y,z
-x,-y,z
x,-y,-z
-x,y,-z
-x,-y,-z
x,y,-z
-x,y,z
x,-y,z
x,1/2+y,1/2+z
-x,1/2-y,1/2+z
x,1/2-y,1/2-z
-x,1/2+y,1/2-z
-x,1/2-y,1/2-z
x,1/2+y,1/2-z
-x,1/2+y,1/2+z
x,1/2-y,1/2+z
1/2+x,y,1/2+z
1/2-x,-y,1/2+z
1/2+x,-y,1/2-z
1/2-x,y,1/2-z
1/2-x,-y,1/2-z
1/2+x,y,1/2-z
1/2-x,y,1/2+z
1/2+x,-y,1/2+z
1/2+x,1/2+y,z
1/2-x,1/2-y,z
1/2+x,1/2-y,-z
1/2-x,1/2+y,-z
1/2-x,1/2-y,-z
1/2+x,1/2+y,-z
1/2-x,1/2+y,z
1/2+x,1/2-y,z
loop_
_atom_site_type_symbol
_atom_site_label
_atom_site_fract_x
_atom_site_fract_y
_atom_site_fract_z
Si Si1 0.111298 0.064998 0.182114
Si Si2 0.627484 0.267680 0.651519
Si Si3 0.000000 0.381220 0.608756
Si Si4 0.695332 0.288533 0.000000
Si Si5 0.193848 0.875873 0.686276
Si Si6 0.845489 0.943293 0.000000
Si Si7 0.500000 0.252903 0.103351
Si Si8 0.737052 0.599202 0.500000
O O1 0.051598 0.091726 0.160591
O O2 0.147607 0.090762 0.259244
O O3 0.141346 0.081991 0.091790
O O4 0.109125 0.000000 0.190621
O O5 0.633691 0.250000 0.750000
O O6 0.656035 0.226371 0.583190
O O7 0.664450 0.321420 0.652174
O O8 0.559855 0.271581 0.634944
O O9 0.000000 0.317006 0.621276
O O10 0.000000 0.390898 0.500000
O O11 0.750000 0.250000 0.000000
O O12 0.723308 0.346933 0.000000
O O13 0.250000 0.868980 0.750000
O O14 0.207275 0.902804 0.593404
O O15 0.779668 0.948875 0.000000
O O16 0.877514 0.000000 0.000000
O O17 0.500000 0.246554 0.000000
#
# Coordination Sequence:
#
# PCOD9513416 Si02
#       8
#    32  32  16  16  32  16  16  16
#     4  11  24  42  67  99 132 166 214 276 340 405
#     4  12  25  41  64  93 130 175 226 268 330 391
#     4  11  23  41  69 100 131 171 216 273 345 402
#     4  12  24  41  63  94 136 175 219 277 326 393
#     4  12  25  41  65  97 132 177 222 272 330 396
#     4  10  22  39  65  95 128 168 208 262 333 403
#     4  11  25  44  64  93 134 180 220 276 320 390
#     4  12  24  40  63  92 134 179 219 265 326 394
#
# _framework density 19.465423999999999
#
# number of rings (size 3 to 8) (size 9 to 14) (size 15 to 20)
#    0.000    0.545    5.455    2.727    2.545    2.182 
#    0.000    0.000    0.000    0.000    0.000    1.273 
#    0.000    0.000    0.000    0.000    0.000    0.000 
#
# Total GULP energy -245079.430781 kJ/mol
# GULP energy per Si atom -5569.987063 kJ/mol
# Density = 1.942112 g / cm^3
# Si number density = 19.465424 Si / 1000 Ang^3
#
#
#
# Elastic Constant Matrix: (Units=GPa)
#
#
# Indices 1 2 3 4 5 6 
#
# 1 134.6701 36.5154 63.5507 0.0000 0.0000 0.0000
# 2 36.5154 68.4157 22.2858 0.0000 0.0000 0.0000
# 3 63.5507 22.2858 161.0005 0.0000 0.0000 0.0000
# 4 0.0000 0.0000 0.0000 28.8780 0.0000 0.0000
# 5 0.0000 0.0000 0.0000 0.0000 32.9254 0.0000
# 6 0.0000 0.0000 0.0000 0.0000 0.0000 -2.3101
#
#
#
# Elastic Compliance Matrix: (Units=1/GPa)
#
#
# Indices 1 2 3 4 5 6 
#
# 1 0.010222 -0.004337 -0.003435 0.000000 0.000000 0.000000
# 2 -0.004337 0.017147 -0.000661 0.000000 0.000000 0.000000
# 3 -0.003435 -0.000661 0.007658 0.000000 0.000000 0.000000
# 4 0.000000 0.000000 0.000000 0.034628 0.000000 0.000000
# 5 0.000000 0.000000 0.000000 0.000000 0.030372 0.000000
# 6 0.000000 0.000000 0.000000 0.000000 0.000000 -0.432877
#
#
# Mechanical properties :
#
#
# Convention : Reuss Voigt Hill
#
# Bulk Modulus (GPa) = 55.06282 67.64335 61.35309
# Shear Modulus (GPa) = -16.13276 28.01429 5.94077
#
# Velocity S-wave (km/s) = -2.88200 3.79777 1.74888
# Velocity P-wave (km/s) = 4.15625 7.35233 5.97206
#
# Compressibility (1/GPa) = 0.01816107
#
# Stress axis : x y z
#
# Youngs Moduli (GPa) = 97.82463 58.31964 130.57444
#
# Poissons Ratio (x) = 0.25294 0.44848
# Poissons Ratio (y) = 0.42428 0.08637
# Poissons Ratio (z) = 0.33599 0.03858
#
# Static dielectric constant tensor:
#      x y z
#    x 4.915820 0.000000 0.000000 
#    y 0.000000 2.254700 0.000000 
#    z 0.000000 0.000000 1.677830 
# 
# From -- ./inp_files/18178.got.cif
#   From: 2010.05.17/outbox.cif.g08.bks.cpg/sg69_10_cif.got.tgz:18178.got - 2010.06.03 19:29:58.
