data_PCOD9513508
_publ_section_title
;
Structure prediction by ZEFSAII (Michael W. Deem and Ramdas Pophale) SiO2 
 PCOD9513508
Probable space group: F M M M
;
_chemical_formula_sum "Si O2"
_cell_formula_units_Z 96
_cell_length_a 28.178417
_cell_length_b 17.583183
_cell_length_c 10.215849
_cell_angle_alpha 90.000000
_cell_angle_beta 90.000000
_cell_angle_gamma 90.000000
_cell_volume 5061.608525
_symmetry_space_group_name_H-M "F M M M"
_symmetry_group_IT_number 69
_symmetry_cell_setting 'orthorhombic'
loop_
_space_group_symop_operation_xyz
x,y,z
-x,-y,z
x,-y,-z
-x,y,-z
-x,-y,-z
x,y,-z
-x,y,z
x,-y,z
x,1/2+y,1/2+z
-x,1/2-y,1/2+z
x,1/2-y,1/2-z
-x,1/2+y,1/2-z
-x,1/2-y,1/2-z
x,1/2+y,1/2-z
-x,1/2+y,1/2+z
x,1/2-y,1/2+z
1/2+x,y,1/2+z
1/2-x,-y,1/2+z
1/2+x,-y,1/2-z
1/2-x,y,1/2-z
1/2-x,-y,1/2-z
1/2+x,y,1/2-z
1/2-x,y,1/2+z
1/2+x,-y,1/2+z
1/2+x,1/2+y,z
1/2-x,1/2-y,z
1/2+x,1/2-y,-z
1/2-x,1/2+y,-z
1/2-x,1/2-y,-z
1/2+x,1/2+y,-z
1/2-x,1/2+y,z
1/2+x,1/2-y,z
loop_
_atom_site_type_symbol
_atom_site_label
_atom_site_fract_x
_atom_site_fract_y
_atom_site_fract_z
Si Si1 0.893425 0.659279 0.744554
Si Si2 0.056263 0.908357 0.500000
Si Si3 0.793482 0.908224 0.845977
Si Si4 0.056314 0.913402 0.000000
O O1 0.892577 0.750000 0.750000
O O2 0.916551 0.624668 0.874668
O O3 0.841044 0.628130 0.712548
O O4 0.925635 0.630279 0.626048
O O5 0.000000 0.888021 0.500000
O O6 0.059067 0.000000 0.500000
O O7 0.750000 0.887460 0.750000
O O8 0.797984 0.000000 0.843026
O O9 0.787006 0.886677 0.000000
O O10 0.000000 0.917085 0.000000
O O11 0.075506 0.000000 0.000000
#
# Coordination Sequence:
#
# PCOD9513508 Si02
#       4
#    32  16  32  16
#     4  12  25  41  64  98 134 169 208 264 329 381
#     4  11  25  43  64  93 130 173 219 264 312 373
#     4  10  22  42  68  95 124 165 216 264 314 381
#     4  11  23  43  70  93 122 173 227 268 312 379
#
# _framework density 18.966303
#
# number of rings (size 3 to 8) (size 9 to 14) (size 15 to 20)
#    0.000    1.000    1.667    5.000    2.333    7.333 
#    0.000    1.667    0.000    0.000    0.000    0.000 
#    0.000    0.000    0.000    0.000    0.000    0.000 
#
# Total GULP energy -134198.428651 kJ/mol
# GULP energy per Si atom -5591.601194 kJ/mol
# Density = 1.892314 g / cm^3
# Si number density = 18.966303 Si / 1000 Ang^3
#
#
#
# Elastic Constant Matrix: (Units=GPa)
#
#
# Indices 1 2 3 4 5 6 
#
# 1 170.1385 71.1720 113.3783 0.0000 0.0000 0.0000
# 2 71.1720 87.8783 74.5178 0.0000 0.0000 0.0000
# 3 113.3783 74.5178 229.2971 0.0000 0.0000 0.0000
# 4 0.0000 0.0000 0.0000 47.7183 0.0000 0.0000
# 5 0.0000 0.0000 0.0000 0.0000 41.4807 0.0000
# 6 0.0000 0.0000 0.0000 0.0000 0.0000 59.9035
#
#
#
# Elastic Compliance Matrix: (Units=1/GPa)
#
#
# Indices 1 2 3 4 5 6 
#
# 1 0.010464 -0.005642 -0.003340 0.000000 0.000000 0.000000
# 2 -0.005642 0.018750 -0.003304 0.000000 0.000000 0.000000
# 3 -0.003340 -0.003304 0.007086 0.000000 0.000000 0.000000
# 4 0.000000 0.000000 0.000000 0.020956 0.000000 0.000000
# 5 0.000000 0.000000 0.000000 0.000000 0.024108 0.000000
# 6 0.000000 0.000000 0.000000 0.000000 0.000000 0.016694
#
#
# Mechanical properties :
#
#
# Convention : Reuss Voigt Hill
#
# Bulk Modulus (GPa) = 85.26423 111.71668 98.49046
# Shear Modulus (GPa) = 39.51337 45.03687 42.27512
#
# Velocity S-wave (km/s) = 4.56932 4.87825 4.72631
# Velocity P-wave (km/s) = 8.53765 9.52682 9.04577
#
# Compressibility (1/GPa) = 0.01172825
#
# Stress axis : x y z
#
# Youngs Moduli (GPa) = 95.56897 53.33254 141.11366
#
# Poissons Ratio (x) = 0.30090 0.47136
# Poissons Ratio (y) = 0.53920 0.46621
# Poissons Ratio (z) = 0.31923 0.17620
#
# Static dielectric constant tensor:
#      x y z
#    x 1.646740 0.000000 0.000000 
#    y 0.000000 1.628900 0.000000 
#    z 0.000000 0.000000 1.603410 
# 
# From -- ./inp_files/9790.got.cif
#   From: 2010.05.17/outbox.cif.g08.bks.cpg/sg69_5_cif.got.tgz:9790.got - 2010.06.03 19:29:58.
