data_PCOD9513810
_publ_section_title
;
Structure prediction by ZEFSAII (Michael W. Deem and Ramdas Pophale) SiO2 
 PCOD9513810
Probable space group: F M M M
;
_chemical_formula_sum "Si O2"
_cell_formula_units_Z 160
_cell_length_a 20.344888
_cell_length_b 16.627580
_cell_length_c 22.326571
_cell_angle_alpha 90.000000
_cell_angle_beta 90.000000
_cell_angle_gamma 90.000000
_cell_volume 7552.772042
_symmetry_space_group_name_H-M "F M M M"
_symmetry_group_IT_number 69
_symmetry_cell_setting 'orthorhombic'
loop_
_space_group_symop_operation_xyz
x,y,z
-x,-y,z
x,-y,-z
-x,y,-z
-x,-y,-z
x,y,-z
-x,y,z
x,-y,z
x,1/2+y,1/2+z
-x,1/2-y,1/2+z
x,1/2-y,1/2-z
-x,1/2+y,1/2-z
-x,1/2-y,1/2-z
x,1/2+y,1/2-z
-x,1/2+y,1/2+z
x,1/2-y,1/2+z
1/2+x,y,1/2+z
1/2-x,-y,1/2+z
1/2+x,-y,1/2-z
1/2-x,y,1/2-z
1/2-x,-y,1/2-z
1/2+x,y,1/2-z
1/2-x,y,1/2+z
1/2+x,-y,1/2+z
1/2+x,1/2+y,z
1/2-x,1/2-y,z
1/2+x,1/2-y,-z
1/2-x,1/2+y,-z
1/2-x,1/2-y,-z
1/2+x,1/2+y,-z
1/2-x,1/2+y,z
1/2+x,1/2-y,z
loop_
_atom_site_type_symbol
_atom_site_label
_atom_site_fract_x
_atom_site_fract_y
_atom_site_fract_z
Si Si1 0.271364 0.840466 0.067773
Si Si2 0.000000 0.714285 0.819073
Si Si3 0.186340 0.091173 0.778712
Si Si4 0.884012 0.590481 0.845412
Si Si5 0.000000 0.821400 0.064877
Si Si6 0.366917 0.594355 0.097840
O O1 0.250000 0.750000 0.085614
O O2 0.324501 0.878795 0.112384
O O3 0.203282 0.889771 0.067334
O O4 0.298289 0.836690 0.000000
O O5 0.000000 0.750000 0.750000
O O6 0.938843 0.657807 0.837403
O O7 0.000000 0.781249 0.870070
O O8 0.250000 0.133449 0.750000
O O9 0.140215 0.082569 0.722486
O O10 0.148303 0.127359 0.834864
O O11 0.207979 0.000000 0.798600
O O12 0.904652 0.500000 0.865197
O O13 0.069381 0.868392 0.067193
O O14 0.000000 0.776611 0.000000
O O15 0.380223 0.500000 0.102241
#
# Coordination Sequence:
#
# PCOD9513810 Si02
#       6
#    32  16  32  32  16  32
#     4  11  24  41  62  93 135 181 227 281 348 416
#     4  12  27  48  71  98 134 181 230 283 352 434
#     4   9  17  34  61  95 128 157 201 269 338 387
#     4  11  23  42  69  99 131 171 226 288 343 408
#     4  12  27  45  65  95 141 185 227 287 356 424
#     4  11  22  40  67  96 130 177 229 282 340 414
#
# _framework density 21.184275
#
# number of rings (size 3 to 8) (size 9 to 14) (size 15 to 20)
#    0.000    1.200    2.000    4.200    0.000    5.600 
#    0.000    5.000    0.000    1.800    0.000    0.000 
#    0.000    0.000    0.000    0.000    0.000    0.000 
#
# Total GULP energy -222915.551586 kJ/mol
# GULP energy per Si atom -5572.888790 kJ/mol
# Density = 2.113606 g / cm^3
# Si number density = 21.184275 Si / 1000 Ang^3
#
#
#
# Elastic Constant Matrix: (Units=GPa)
#
#
# Indices 1 2 3 4 5 6 
#
# 1 124.5245 29.6834 45.9788 0.0000 0.0000 0.0000
# 2 29.6834 57.8070 44.4538 0.0000 0.0000 0.0000
# 3 45.9788 44.4538 151.6947 0.0000 0.0000 0.0000
# 4 0.0000 0.0000 0.0000 51.1238 0.0000 0.0000
# 5 0.0000 0.0000 0.0000 0.0000 -23.4085 0.0000
# 6 0.0000 0.0000 0.0000 0.0000 0.0000 32.9951
#
#
#
# Elastic Compliance Matrix: (Units=1/GPa)
#
#
# Indices 1 2 3 4 5 6 
#
# 1 0.009549 -0.003457 -0.001881 0.000000 0.000000 0.000000
# 2 -0.003457 0.023583 -0.005863 0.000000 0.000000 0.000000
# 3 -0.001881 -0.005863 0.008881 0.000000 0.000000 0.000000
# 4 0.000000 0.000000 0.000000 0.019560 0.000000 0.000000
# 5 0.000000 0.000000 0.000000 0.000000 -0.042720 0.000000
# 6 0.000000 0.000000 0.000000 0.000000 0.000000 0.030308
#
#
# Mechanical properties :
#
#
# Convention : Reuss Voigt Hill
#
# Bulk Modulus (GPa) = 50.99404 63.80647 57.40026
# Shear Modulus (GPa) = 64.02053 26.40275 45.21164
#
# Velocity S-wave (km/s) = 5.50331 3.53418 4.62476
# Velocity P-wave (km/s) = 8.03155 6.84390 7.46139
#
# Compressibility (1/GPa) = 0.01961014
#
# Stress axis : x y z
#
# Youngs Moduli (GPa) = 104.72076 42.40401 112.60465
#
# Poissons Ratio (x) = 0.14657 0.21186
# Poissons Ratio (y) = 0.36198 0.66022
# Poissons Ratio (z) = 0.19702 0.24862
#
# Static dielectric constant tensor:
#      x y z
#    x 2.008200 0.000000 0.000000 
#    y 0.000000 1.843710 0.000000 
#    z 0.000000 0.000000 1.831160 
# 
# From -- ./inp_files/31762.got.cif
#   From: 2010.05.17/outbox.cif.g08.bks.cpg/sg69_16_cif.got.tgz:31762.got - 2010.06.03 19:29:58.
