data_PCOD9513503
_publ_section_title
;
Structure prediction by ZEFSAII (Michael W. Deem and Ramdas Pophale) SiO2 
 PCOD9513503
Probable space group: F M M M
;
_chemical_formula_sum "Si O2"
_cell_formula_units_Z 88
_cell_length_a 9.358875
_cell_length_b 14.632918
_cell_length_c 29.155136
_cell_angle_alpha 90.000000
_cell_angle_beta 90.000000
_cell_angle_gamma 90.000000
_cell_volume 3992.727374
_symmetry_space_group_name_H-M "F M M M"
_symmetry_group_IT_number 69
_symmetry_cell_setting 'orthorhombic'
loop_
_space_group_symop_operation_xyz
x,y,z
-x,-y,z
x,-y,-z
-x,y,-z
-x,-y,-z
x,y,-z
-x,y,z
x,-y,z
x,1/2+y,1/2+z
-x,1/2-y,1/2+z
x,1/2-y,1/2-z
-x,1/2+y,1/2-z
-x,1/2-y,1/2-z
x,1/2+y,1/2-z
-x,1/2+y,1/2+z
x,1/2-y,1/2+z
1/2+x,y,1/2+z
1/2-x,-y,1/2+z
1/2+x,-y,1/2-z
1/2-x,y,1/2-z
1/2-x,-y,1/2-z
1/2+x,y,1/2-z
1/2-x,y,1/2+z
1/2+x,-y,1/2+z
1/2+x,1/2+y,z
1/2-x,1/2-y,z
1/2+x,1/2-y,-z
1/2-x,1/2+y,-z
1/2-x,1/2-y,-z
1/2+x,1/2+y,-z
1/2-x,1/2+y,z
1/2+x,1/2-y,z
loop_
_atom_site_type_symbol
_atom_site_label
_atom_site_fract_x
_atom_site_fract_y
_atom_site_fract_z
Si Si1 0.839584 0.607872 0.175311
Si Si2 0.341399 0.892979 0.589492
Si Si3 0.828911 0.653755 0.000000
Si Si4 0.750000 0.750000 0.750000
O O1 0.810815 0.500000 0.187954
O O2 0.729694 0.640699 0.136313
O O3 0.832416 0.678724 0.217145
O O4 0.000000 0.609012 0.155875
O O5 0.500000 0.853000 0.579931
O O6 0.234895 0.887454 0.546646
O O7 0.359255 0.000000 0.597586
O O8 0.750000 0.750000 0.000000
O O9 0.000000 0.654890 0.000000
#
# Coordination Sequence:
#
# PCOD9513503 Si02
#       4
#    32  32  16   8
#     4  10  23  43  66  95 131 173 222 274 334 402
#     4  10  22  42  67  94 128 169 214 265 323 387
#     4  12  25  40  63  95 133 171 213 262 315 382
#     4  12  24  40  68  98 130 168 222 286 342 396
#
# _framework density 22.040071999999999
#
# number of rings (size 3 to 8) (size 9 to 14) (size 15 to 20)
#    0.000    1.455    0.000    4.364    2.545    7.273 
#    0.000    3.636    0.000    0.000    0.000    0.000 
#    0.000    0.000    0.000    0.000    0.000    0.000 
#
# Total GULP energy -122706.938165 kJ/mol
# GULP energy per Si atom -5577.588098 kJ/mol
# Density = 2.198991 g / cm^3
# Si number density = 22.040072 Si / 1000 Ang^3
#
#
#
# Elastic Constant Matrix: (Units=GPa)
#
#
# Indices 1 2 3 4 5 6 
#
# 1 191.5191 33.6192 78.4747 0.0000 0.0000 0.0000
# 2 33.6192 97.7802 34.4379 0.0000 0.0000 0.0000
# 3 78.4747 34.4379 129.5836 0.0000 0.0000 0.0000
# 4 0.0000 0.0000 0.0000 62.2324 0.0000 0.0000
# 5 0.0000 0.0000 0.0000 0.0000 78.7725 0.0000
# 6 0.0000 0.0000 0.0000 0.0000 0.0000 19.5496
#
#
#
# Elastic Compliance Matrix: (Units=1/GPa)
#
#
# Indices 1 2 3 4 5 6 
#
# 1 0.007034 -0.001013 -0.003991 0.000000 0.000000 0.000000
# 2 -0.001013 0.011429 -0.002424 0.000000 0.000000 0.000000
# 3 -0.003991 -0.002424 0.010778 0.000000 0.000000 0.000000
# 4 0.000000 0.000000 0.000000 0.016069 0.000000 0.000000
# 5 0.000000 0.000000 0.000000 0.000000 0.012695 0.000000
# 6 0.000000 0.000000 0.000000 0.000000 0.000000 0.051152
#
#
# Mechanical properties :
#
#
# Convention : Reuss Voigt Hill
#
# Bulk Modulus (GPa) = 69.51182 79.10517 74.30849
# Shear Modulus (GPa) = 38.81755 50.26763 44.54259
#
# Velocity S-wave (km/s) = 4.20125 4.78089 4.50041
# Velocity P-wave (km/s) = 7.42572 8.15140 7.79701
#
# Compressibility (1/GPa) = 0.01438604
#
# Stress axis : x y z
#
# Youngs Moduli (GPa) = 142.15736 87.49664 92.78195
#
# Poissons Ratio (x) = 0.08864 0.37027
# Poissons Ratio (y) = 0.14402 0.22489
# Poissons Ratio (z) = 0.56732 0.21208
#
# Static dielectric constant tensor:
#      x y z
#    x 1.857170 0.000000 0.000000 
#    y 0.000000 2.021440 0.000000 
#    z 0.000000 0.000000 2.091040 
# 
# From -- ./inp_files/44187.got.cif
#   From: 2010.05.17/outbox.cif.g08.bks.cpg/sg69_23_cif.got.tgz:44187.got - 2010.06.03 19:29:58.
