data_PCOD9513481
_publ_section_title
;
Structure prediction by ZEFSAII (Michael W. Deem and Ramdas Pophale) SiO2 
 PCOD9513481
Probable space group: F M M M
;
_chemical_formula_sum "Si O2"
_cell_formula_units_Z 80
_cell_length_a 20.374370
_cell_length_b 15.065749
_cell_length_c 12.782041
_cell_angle_alpha 90.000000
_cell_angle_beta 90.000000
_cell_angle_gamma 90.000000
_cell_volume 3923.513242
_symmetry_space_group_name_H-M "F M M M"
_symmetry_group_IT_number 69
_symmetry_cell_setting 'orthorhombic'
loop_
_space_group_symop_operation_xyz
x,y,z
-x,-y,z
x,-y,-z
-x,y,-z
-x,-y,-z
x,y,-z
-x,y,z
x,-y,z
x,1/2+y,1/2+z
-x,1/2-y,1/2+z
x,1/2-y,1/2-z
-x,1/2+y,1/2-z
-x,1/2-y,1/2-z
x,1/2+y,1/2-z
-x,1/2+y,1/2+z
x,1/2-y,1/2+z
1/2+x,y,1/2+z
1/2-x,-y,1/2+z
1/2+x,-y,1/2-z
1/2-x,y,1/2-z
1/2-x,-y,1/2-z
1/2+x,y,1/2-z
1/2-x,y,1/2+z
1/2+x,-y,1/2+z
1/2+x,1/2+y,z
1/2-x,1/2-y,z
1/2+x,1/2-y,-z
1/2-x,1/2+y,-z
1/2-x,1/2-y,-z
1/2+x,1/2+y,-z
1/2-x,1/2+y,z
1/2+x,1/2-y,z
loop_
_atom_site_type_symbol
_atom_site_label
_atom_site_fract_x
_atom_site_fract_y
_atom_site_fract_z
Si Si1 0.074761 0.500000 0.196833
Si Si2 0.886642 0.328399 0.670164
Si Si3 0.670876 0.500000 0.500000
Si Si4 0.221614 0.151620 0.000000
Si Si5 0.500000 0.211775 0.500000
O O1 0.086261 0.412909 0.266890
O O2 0.000000 0.500000 0.157518
O O3 0.124980 0.500000 0.101368
O O4 0.868691 0.250000 0.750000
O O5 0.824711 0.358937 0.601151
O O6 0.942382 0.293242 0.591215
O O7 0.718443 0.415684 0.500000
O O8 0.250000 0.250000 0.000000
#
# Coordination Sequence:
#
# PCOD9513481 Si02
#       5
#    16  32   8  16   8
#     4  12  26  44  69  99 133 182 223 278 337 390
#     4  11  24  44  70 101 134 177 223 277 335 400
#     4  12  27  46  64 103 138 174 230 276 326 407
#     4  11  25  45  69 100 136 179 222 276 336 398
#     4  10  22  41  66  99 136 166 222 273 328 395
#
# _framework density 20.389889
#
# number of rings (size 3 to 8) (size 9 to 14) (size 15 to 20)
#    0.000    0.800    2.000    4.500    0.000   12.000 
#    0.000    0.000    0.000    0.000    0.000    0.000 
#    0.000    0.000    0.000    0.000    0.000    0.000 
#
# Total GULP energy -111434.742373 kJ/mol
# GULP energy per Si atom -5571.737119 kJ/mol
# Density = 2.034348 g / cm^3
# Si number density = 20.389889 Si / 1000 Ang^3
#
#
#
# Elastic Constant Matrix: (Units=GPa)
#
#
# Indices 1 2 3 4 5 6 
#
# 1 174.4253 36.9885 73.8470 0.0000 0.0000 0.0000
# 2 36.9885 100.0427 34.1835 0.0000 0.0000 0.0000
# 3 73.8470 34.1835 148.9648 0.0000 0.0000 0.0000
# 4 0.0000 0.0000 0.0000 -8.5878 0.0000 0.0000
# 5 0.0000 0.0000 0.0000 0.0000 16.7768 0.0000
# 6 0.0000 0.0000 0.0000 0.0000 0.0000 21.4690
#
#
#
# Elastic Compliance Matrix: (Units=1/GPa)
#
#
# Indices 1 2 3 4 5 6 
#
# 1 0.007493 -0.001629 -0.003341 0.000000 0.000000 0.000000
# 2 -0.001629 0.011200 -0.001763 0.000000 0.000000 0.000000
# 3 -0.003341 -0.001763 0.008774 0.000000 0.000000 0.000000
# 4 0.000000 0.000000 0.000000 -0.116444 0.000000 0.000000
# 5 0.000000 0.000000 0.000000 0.000000 0.059606 0.000000
# 6 0.000000 0.000000 0.000000 0.000000 0.000000 0.046579
#
#
# Mechanical properties :
#
#
# Convention : Reuss Voigt Hill
#
# Bulk Modulus (GPa) = 71.41707 79.27453 75.34580
# Shear Modulus (GPa) = 141.48499 24.49252 82.98875
#
# Velocity S-wave (km/s) = 8.33909 3.46961 6.38665
# Velocity P-wave (km/s) = 11.30585 7.41718 9.56130
#
# Compressibility (1/GPa) = 0.01400225
#
# Stress axis : x y z
#
# Youngs Moduli (GPa) = 133.45977 89.28367 113.97834
#
# Poissons Ratio (x) = 0.14543 0.38077
# Poissons Ratio (y) = 0.21738 0.20091
# Poissons Ratio (z) = 0.44585 0.15738
#
# Static dielectric constant tensor:
#      x y z
#    x 1.701330 0.000000 0.000000 
#    y 0.000000 1.717120 0.000000 
#    z 0.000000 0.000000 1.699780 
# 
# From -- ./inp_files/7865.got.cif
#   From: 2010.05.17/outbox.cif.g08.bks.cpg/sg69_4_cif.got.tgz:7865.got - 2010.06.03 19:29:58.
