data_PCOD9513115
_publ_section_title
;
Structure prediction by ZEFSAII (Michael W. Deem and Ramdas Pophale) SiO2 
 PCOD9513115
Probable space group: F M M M
;
_chemical_formula_sum "Si O2"
_cell_formula_units_Z 128
_cell_length_a 18.649747
_cell_length_b 14.358389
_cell_length_c 24.312298
_cell_angle_alpha 90.000000
_cell_angle_beta 90.000000
_cell_angle_gamma 90.000000
_cell_volume 6510.354991
_symmetry_space_group_name_H-M "F M M M"
_symmetry_group_IT_number 69
_symmetry_cell_setting 'orthorhombic'
loop_
_space_group_symop_operation_xyz
x,y,z
-x,-y,z
x,-y,-z
-x,y,-z
-x,-y,-z
x,y,-z
-x,y,z
x,-y,z
x,1/2+y,1/2+z
-x,1/2-y,1/2+z
x,1/2-y,1/2-z
-x,1/2+y,1/2-z
-x,1/2-y,1/2-z
x,1/2+y,1/2-z
-x,1/2+y,1/2+z
x,1/2-y,1/2+z
1/2+x,y,1/2+z
1/2-x,-y,1/2+z
1/2+x,-y,1/2-z
1/2-x,y,1/2-z
1/2-x,-y,1/2-z
1/2+x,y,1/2-z
1/2-x,y,1/2+z
1/2+x,-y,1/2+z
1/2+x,1/2+y,z
1/2-x,1/2-y,z
1/2+x,1/2-y,-z
1/2-x,1/2+y,-z
1/2-x,1/2-y,-z
1/2+x,1/2+y,-z
1/2-x,1/2+y,z
1/2+x,1/2-y,z
loop_
_atom_site_type_symbol
_atom_site_label
_atom_site_fract_x
_atom_site_fract_y
_atom_site_fract_z
Si Si1 0.081937 0.190829 0.500000
Si Si2 0.082169 0.239000 0.814409
Si Si3 0.130148 0.104784 0.000000
Si Si4 0.358095 0.610917 0.612775
Si Si5 0.192635 0.107765 0.878800
O O1 0.081799 0.303297 0.500000
O O2 0.122182 0.153696 0.446249
O O3 0.000000 0.157083 0.500000
O O4 0.097672 0.250000 0.750000
O O5 0.091582 0.338752 0.843379
O O6 0.137594 0.171264 0.845305
O O7 0.000000 0.206418 0.821306
O O8 0.175838 0.112177 0.055957
O O9 0.097300 0.000000 0.000000
O O10 0.365961 0.500000 0.611115
O O11 0.275745 0.633391 0.628122
O O12 0.183490 0.000000 0.861937
#
# Coordination Sequence:
#
# PCOD9513115 Si02
#       5
#    16  32  16  32  32
#     4  12  24  38  63  98 133 170 208 252 313 382
#     4  11  25  43  63  90 125 167 212 260 317 375
#     4  10  21  37  62  97 131 161 199 249 311 374
#     4  11  24  41  64  94 128 166 209 257 311 373
#     4  10  22  41  66  95 125 162 207 259 316 373
#
# _framework density 19.660986999999999
#
# number of rings (size 3 to 8) (size 9 to 14) (size 15 to 20)
#    0.000    1.250    2.500    2.625    0.000    9.250 
#    0.000    7.500    0.000    0.000    0.000    0.000 
#    0.000    0.000    0.000    0.000    0.000    0.000 
#
# Total GULP energy -178818.290272 kJ/mol
# GULP energy per Si atom -5588.071571 kJ/mol
# Density = 1.961624 g / cm^3
# Si number density = 19.660987 Si / 1000 Ang^3
#
#
#
# Elastic Constant Matrix: (Units=GPa)
#
#
# Indices 1 2 3 4 5 6 
#
# 1 103.7179 45.6091 45.3128 0.0000 0.0000 0.0000
# 2 45.6091 107.9894 45.9190 0.0000 0.0000 0.0000
# 3 45.3128 45.9190 126.1110 0.0000 0.0000 0.0000
# 4 0.0000 0.0000 0.0000 -3.8561 0.0000 0.0000
# 5 0.0000 0.0000 0.0000 0.0000 9.3346 0.0000
# 6 0.0000 0.0000 0.0000 0.0000 0.0000 19.7056
#
#
#
# Elastic Compliance Matrix: (Units=1/GPa)
#
#
# Indices 1 2 3 4 5 6 
#
# 1 0.012796 -0.004081 -0.003112 0.000000 0.000000 0.000000
# 2 -0.004081 0.012258 -0.002997 0.000000 0.000000 0.000000
# 3 -0.003112 -0.002997 0.010139 0.000000 0.000000 0.000000
# 4 0.000000 0.000000 0.000000 -0.259326 0.000000 0.000000
# 5 0.000000 0.000000 0.000000 0.000000 0.107129 0.000000
# 6 0.000000 0.000000 0.000000 0.000000 0.000000 0.050747
#
#
# Mechanical properties :
#
#
# Convention : Reuss Voigt Hill
#
# Bulk Modulus (GPa) = 67.50740 67.94443 67.72591
# Shear Modulus (GPa) = -122.12783 18.43529 -51.84627
#
# Velocity S-wave (km/s) = -7.88997 3.06544 -5.14076
# Velocity P-wave (km/s) = 6.97080 6.86748 0.84550
#
# Compressibility (1/GPa) = 0.01481319
#
# Stress axis : x y z
#
# Youngs Moduli (GPa) = 78.15218 81.57807 98.63100
#
# Poissons Ratio (x) = 0.33293 0.30690
# Poissons Ratio (y) = 0.31895 0.29560
# Poissons Ratio (z) = 0.24318 0.24449
#
# Static dielectric constant tensor:
#      x y z
#    x 1.675180 0.000000 0.000000 
#    y 0.000000 1.702210 0.000000 
#    z 0.000000 0.000000 1.581930 
# 
# From -- ./inp_files/15367.got.cif
#   From: 2010.05.17/outbox.cif.g08.bks.cpg/sg69_8_cif.got.tgz:15367.got - 2010.06.03 19:29:58.
