data_PCOD9513371
_publ_section_title
;
Structure prediction by ZEFSAII (Michael W. Deem and Ramdas Pophale) SiO2 
 PCOD9513371
Probable space group: F M M M
;
_chemical_formula_sum "Si O2"
_cell_formula_units_Z 176
_cell_length_a 25.726121
_cell_length_b 20.712190
_cell_length_c 17.329890
_cell_angle_alpha 90.000000
_cell_angle_beta 90.000000
_cell_angle_gamma 90.000000
_cell_volume 9234.133212
_symmetry_space_group_name_H-M "F M M M"
_symmetry_group_IT_number 69
_symmetry_cell_setting 'orthorhombic'
loop_
_space_group_symop_operation_xyz
x,y,z
-x,-y,z
x,-y,-z
-x,y,-z
-x,-y,-z
x,y,-z
-x,y,z
x,-y,z
x,1/2+y,1/2+z
-x,1/2-y,1/2+z
x,1/2-y,1/2-z
-x,1/2+y,1/2-z
-x,1/2-y,1/2-z
x,1/2+y,1/2-z
-x,1/2+y,1/2+z
x,1/2-y,1/2+z
1/2+x,y,1/2+z
1/2-x,-y,1/2+z
1/2+x,-y,1/2-z
1/2-x,y,1/2-z
1/2-x,-y,1/2-z
1/2+x,y,1/2-z
1/2-x,y,1/2+z
1/2+x,-y,1/2+z
1/2+x,1/2+y,z
1/2-x,1/2-y,z
1/2+x,1/2-y,-z
1/2-x,1/2+y,-z
1/2-x,1/2-y,-z
1/2+x,1/2+y,-z
1/2-x,1/2+y,z
1/2+x,1/2-y,z
loop_
_atom_site_type_symbol
_atom_site_label
_atom_site_fract_x
_atom_site_fract_y
_atom_site_fract_z
Si Si1 0.939071 0.077556 0.500000
Si Si2 0.438947 0.422969 0.788427
Si Si3 0.633275 0.626303 0.092366
Si Si4 0.370372 0.615869 0.351511
Si Si5 0.790917 0.500000 0.822283
Si Si6 0.810486 0.252390 0.156971
Si Si7 0.693056 0.500000 0.089764
O O1 0.906269 0.098535 0.424785
O O2 0.000000 0.099706 0.500000
O O3 0.940615 0.000000 0.500000
O O4 0.500000 0.417717 0.776026
O O5 0.426094 0.500000 0.785902
O O6 0.421395 0.391605 0.868987
O O7 0.408098 0.384832 0.722394
O O8 0.658605 0.691519 0.123477
O O9 0.668923 0.566110 0.120832
O O10 0.630970 0.628237 0.000000
O O11 0.327564 0.561996 0.329176
O O12 0.339750 0.682044 0.365790
O O13 0.750000 0.500000 0.750000
O O14 0.753646 0.500000 0.896037
O O15 0.810942 0.250000 0.250000
O O16 0.750000 0.250000 0.131909
O O17 0.680356 0.500000 0.000000
#
# Coordination Sequence:
#
# PCOD9513371 Si02
#       7
#    16  32  32  32  16  32  16
#     4  11  24  46  71 100 134 175 228 289 341 389
#     4  11  22  41  69  98 126 164 216 277 341 393
#     4  11  23  43  64  95 131 169 215 272 325 390
#     4  12  24  42  67  97 134 176 225 272 332 396
#     4  12  24  36  65  96 132 165 223 275 324 386
#     4  11  25  43  66  92 134 179 217 261 329 401
#     4  10  22  38  62  89 128 167 210 266 328 384
#
# _framework density 19.059721
#
# number of rings (size 3 to 8) (size 9 to 14) (size 15 to 20)
#    0.000    0.818    4.545    2.727    5.091    2.182 
#    0.000    3.636    0.000    0.000    0.000    0.000 
#    0.000    0.000    0.000    0.000    0.000    0.000 
#
# Total GULP energy -245749.132053 kJ/mol
# GULP energy per Si atom -5585.207547 kJ/mol
# Density = 1.901634 g / cm^3
# Si number density = 19.059721 Si / 1000 Ang^3
#
#
#
# Elastic Constant Matrix: (Units=GPa)
#
#
# Indices 1 2 3 4 5 6 
#
# 1 135.3495 74.9510 43.1976 0.0000 0.0000 0.0000
# 2 74.9510 152.1167 38.3158 0.0000 0.0000 0.0000
# 3 43.1976 38.3158 90.1288 0.0000 0.0000 0.0000
# 4 0.0000 0.0000 0.0000 26.8353 0.0000 0.0000
# 5 0.0000 0.0000 0.0000 0.0000 23.2411 0.0000
# 6 0.0000 0.0000 0.0000 0.0000 0.0000 20.9040
#
#
#
# Elastic Compliance Matrix: (Units=1/GPa)
#
#
# Indices 1 2 3 4 5 6 
#
# 1 0.010980 -0.004575 -0.003318 0.000000 0.000000 0.000000
# 2 -0.004575 0.009268 -0.001748 0.000000 0.000000 0.000000
# 3 -0.003318 -0.001748 0.013428 0.000000 0.000000 0.000000
# 4 0.000000 0.000000 0.000000 0.037264 0.000000 0.000000
# 5 0.000000 0.000000 0.000000 0.000000 0.043027 0.000000
# 6 0.000000 0.000000 0.000000 0.000000 0.000000 0.047838
#
#
# Mechanical properties :
#
#
# Convention : Reuss Voigt Hill
#
# Bulk Modulus (GPa) = 69.46039 76.72487 73.09263
# Shear Modulus (GPa) = 26.89831 28.93812 27.91821
#
# Velocity S-wave (km/s) = 3.76076 3.90075 3.83139
# Velocity P-wave (km/s) = 7.44180 7.78654 7.61612
#
# Compressibility (1/GPa) = 0.01439670
#
# Stress axis : x y z
#
# Youngs Moduli (GPa) = 91.07106 107.89768 74.46871
#
# Poissons Ratio (x) = 0.49358 0.24709
# Poissons Ratio (y) = 0.41661 0.13014
# Poissons Ratio (z) = 0.30218 0.18856
#
# Static dielectric constant tensor:
#      x y z
#    x 1.659190 0.000000 0.000000 
#    y 0.000000 1.651930 0.000000 
#    z 0.000000 0.000000 1.689760 
# 
# From -- ./inp_files/26832.got.cif
#   From: 2010.05.17/outbox.cif.g08.bks.cpg/sg69_14_cif.got.tgz:26832.got - 2010.06.03 19:29:58.
