data_PCOD9513392
_publ_section_title
;
Structure prediction by ZEFSAII (Michael W. Deem and Ramdas Pophale) SiO2 
 PCOD9513392
Probable space group: F M M M
;
_chemical_formula_sum "Si O2"
_cell_formula_units_Z 120
_cell_length_a 23.865277
_cell_length_b 15.771575
_cell_length_c 16.353646
_cell_angle_alpha 90.000000
_cell_angle_beta 90.000000
_cell_angle_gamma 90.000000
_cell_volume 6155.397979
_symmetry_space_group_name_H-M "F M M M"
_symmetry_group_IT_number 69
_symmetry_cell_setting 'orthorhombic'
loop_
_space_group_symop_operation_xyz
x,y,z
-x,-y,z
x,-y,-z
-x,y,-z
-x,-y,-z
x,y,-z
-x,y,z
x,-y,z
x,1/2+y,1/2+z
-x,1/2-y,1/2+z
x,1/2-y,1/2-z
-x,1/2+y,1/2-z
-x,1/2-y,1/2-z
x,1/2+y,1/2-z
-x,1/2+y,1/2+z
x,1/2-y,1/2+z
1/2+x,y,1/2+z
1/2-x,-y,1/2+z
1/2+x,-y,1/2-z
1/2-x,y,1/2-z
1/2-x,-y,1/2-z
1/2+x,y,1/2-z
1/2-x,y,1/2+z
1/2+x,-y,1/2+z
1/2+x,1/2+y,z
1/2-x,1/2-y,z
1/2+x,1/2-y,-z
1/2-x,1/2+y,-z
1/2-x,1/2-y,-z
1/2+x,1/2+y,-z
1/2-x,1/2+y,z
1/2+x,1/2-y,z
loop_
_atom_site_type_symbol
_atom_site_label
_atom_site_fract_x
_atom_site_fract_y
_atom_site_fract_z
Si Si1 0.000000 0.398472 0.591846
Si Si2 0.402912 0.162022 0.708394
Si Si3 0.000000 0.624255 0.000000
Si Si4 0.892535 0.595795 0.117414
Si Si5 0.315960 0.240791 0.407249
O O1 0.946254 0.367455 0.640755
O O2 0.000000 0.500000 0.588333
O O3 0.000000 0.362426 0.500000
O O4 0.422112 0.250000 0.750000
O O5 0.399435 0.099511 0.784617
O O6 0.345338 0.183063 0.661256
O O7 0.049813 0.618763 0.070915
O O8 0.876927 0.500000 0.093894
O O9 0.846962 0.668020 0.097526
O O10 0.324638 0.207884 0.500000
O O11 0.250000 0.250000 0.393133
#
# Coordination Sequence:
#
# PCOD9513392 Si02
#       5
#    16  32   8  32  32
#     4  11  22  37  57  82 120 161 200 241 288 358
#     4  10  22  39  58  89 121 160 196 249 306 363
#     4  12  23  38  62  94 124 154 197 260 321 368
#     4  11  22  38  64  92 123 156 200 257 313 366
#     4  10  22  42  65  89 123 162 205 250 301 360
#
# _framework density 19.495083999999999
#
# number of rings (size 3 to 8) (size 9 to 14) (size 15 to 20)
#    0.000    1.467    1.333    4.000    0.000    8.000 
#    9.600    4.000    0.000    3.200    0.000    0.000 
#    0.000    0.000    0.000    0.000    0.000    0.000 
#
# Total GULP energy -167016.463220 kJ/mol
# GULP energy per Si atom -5567.215441 kJ/mol
# Density = 1.945071 g / cm^3
# Si number density = 19.495084 Si / 1000 Ang^3
#
#
#
# Elastic Constant Matrix: (Units=GPa)
#
#
# Indices 1 2 3 4 5 6 
#
# 1 151.3279 39.5556 76.8358 0.0000 0.0000 0.0000
# 2 39.5556 52.2942 27.3443 0.0000 0.0000 0.0000
# 3 76.8358 27.3443 196.6283 0.0000 0.0000 0.0000
# 4 0.0000 0.0000 0.0000 -8.8660 0.0000 0.0000
# 5 0.0000 0.0000 0.0000 0.0000 -70.8527 0.0000
# 6 0.0000 0.0000 0.0000 0.0000 0.0000 -2.9272
#
#
#
# Elastic Compliance Matrix: (Units=1/GPa)
#
#
# Indices 1 2 3 4 5 6 
#
# 1 0.009605 -0.005718 -0.002958 0.000000 0.000000 0.000000
# 2 -0.005718 0.024027 -0.001107 0.000000 0.000000 0.000000
# 3 -0.002958 -0.001107 0.006396 0.000000 0.000000 0.000000
# 4 0.000000 0.000000 0.000000 -0.112790 0.000000 0.000000
# 5 0.000000 0.000000 0.000000 0.000000 -0.014114 0.000000
# 6 0.000000 0.000000 0.000000 0.000000 0.000000 -0.341624
#
#
# Mechanical properties :
#
#
# Convention : Reuss Voigt Hill
#
# Bulk Modulus (GPa) = 48.87400 76.41353 62.64377
# Shear Modulus (GPa) = -12.43429 0.57180 -5.93124
#
# Velocity S-wave (km/s) = -2.52824 0.54217 -1.74615
# Velocity P-wave (km/s) = 4.07451 6.29868 5.30448
#
# Compressibility (1/GPa) = 0.02046078
#
# Stress axis : x y z
#
# Youngs Moduli (GPa) = 104.11454 41.62034 156.35910
#
# Poissons Ratio (x) = 0.23800 0.46251
# Poissons Ratio (y) = 0.59537 0.17305
# Poissons Ratio (z) = 0.30797 0.04606
#
# Static dielectric constant tensor:
#      x y z
#    x 1.633760 0.000000 0.000000 
#    y 0.000000 1.708790 0.000000 
#    z 0.000000 0.000000 1.721020 
# 
# From -- ./inp_files/24162.got.cif
#   From: 2010.05.17/outbox.cif.g08.bks.cpg/sg69_13_cif.got.tgz:24162.got - 2010.06.03 19:29:58.
