data_PCOD9513218
_publ_section_title
;
Structure prediction by ZEFSAII (Michael W. Deem and Ramdas Pophale) SiO2 
 PCOD9513218
Probable space group: F M M M
;
_chemical_formula_sum "Si O2"
_cell_formula_units_Z 168
_cell_length_a 26.160163
_cell_length_b 19.783097
_cell_length_c 15.649357
_cell_angle_alpha 90.000000
_cell_angle_beta 90.000000
_cell_angle_gamma 90.000000
_cell_volume 8098.996739
_symmetry_space_group_name_H-M "F M M M"
_symmetry_group_IT_number 69
_symmetry_cell_setting 'orthorhombic'
loop_
_space_group_symop_operation_xyz
x,y,z
-x,-y,z
x,-y,-z
-x,y,-z
-x,-y,-z
x,y,-z
-x,y,z
x,-y,z
x,1/2+y,1/2+z
-x,1/2-y,1/2+z
x,1/2-y,1/2-z
-x,1/2+y,1/2-z
-x,1/2-y,1/2-z
x,1/2+y,1/2-z
-x,1/2+y,1/2+z
x,1/2-y,1/2+z
1/2+x,y,1/2+z
1/2-x,-y,1/2+z
1/2+x,-y,1/2-z
1/2-x,y,1/2-z
1/2-x,-y,1/2-z
1/2+x,y,1/2-z
1/2-x,y,1/2+z
1/2+x,-y,1/2+z
1/2+x,1/2+y,z
1/2-x,1/2-y,z
1/2+x,1/2-y,-z
1/2-x,1/2+y,-z
1/2-x,1/2-y,-z
1/2+x,1/2+y,-z
1/2-x,1/2+y,z
1/2+x,1/2-y,z
loop_
_atom_site_type_symbol
_atom_site_label
_atom_site_fract_x
_atom_site_fract_y
_atom_site_fract_z
Si Si1 0.695400 0.900396 0.858497
Si Si2 0.920342 0.574970 0.400431
Si Si3 0.810375 0.104702 0.839631
Si Si4 0.556076 0.721009 0.845653
Si Si5 0.341893 0.000000 0.000000
Si Si6 0.332701 0.748829 0.902252
O O1 0.755218 0.917163 0.873428
O O2 0.684460 0.915477 0.759303
O O3 0.687303 0.820827 0.872746
O O4 0.662009 0.941561 0.924901
O O5 0.934055 0.584652 0.500000
O O6 0.937258 0.500000 0.373756
O O7 0.858870 0.578379 0.391424
O O8 0.940198 0.639285 0.348171
O O9 0.813089 0.186275 0.846188
O O10 0.500000 0.740093 0.879658
O O11 0.560288 0.750000 0.750000
O O12 0.605598 0.746904 0.895614
O O13 0.317360 0.735987 0.000000
#
# Coordination Sequence:
#
# PCOD9513218 Si02
#       6
#    32  32  32  32   8  32
#     4  11  24  39  56  85 122 163 206 243 293 347
#     4  10  22  37  60  93 126 157 190 243 307 366
#     4  10  22  37  62  83 118 162 203 248 292 350
#     4  10  21  39  62  87 116 154 200 247 297 356
#     4  12  28  38  54  84 123 168 199 248 286 354
#     4  11  21  37  62  92 117 151 196 255 306 349
#
# _framework density 20.743310000000001
#
# number of rings (size 3 to 8) (size 9 to 14) (size 15 to 20)
#    0.000    1.524    0.952    5.714    5.333    4.952 
#    0.000    0.952    0.000    0.000    0.000    0.667 
#    0.000    0.000    0.000    0.000    0.000    0.000 
#
# Total GULP energy -234255.709276 kJ/mol
# GULP energy per Si atom -5577.516888 kJ/mol
# Density = 2.069610 g / cm^3
# Si number density = 20.743310 Si / 1000 Ang^3
#
#
#
# Elastic Constant Matrix: (Units=GPa)
#
#
# Indices 1 2 3 4 5 6 
#
# 1 78.4877 2.8296 0.1665 0.0000 0.0000 0.0000
# 2 2.8296 136.9734 35.7811 0.0000 0.0000 0.0000
# 3 0.1665 35.7811 76.8979 0.0000 0.0000 0.0000
# 4 0.0000 0.0000 0.0000 63.7976 0.0000 0.0000
# 5 0.0000 0.0000 0.0000 0.0000 15.5284 0.0000
# 6 0.0000 0.0000 0.0000 0.0000 0.000025248.7620
#
#
#
# Elastic Compliance Matrix: (Units=1/GPa)
#
#
# Indices 1 2 3 4 5 6 
#
# 1 0.012751 -0.000292 0.000108 0.000000 0.000000 0.000000
# 2 -0.000292 0.008318 -0.003870 0.000000 0.000000 0.000000
# 3 0.000108 -0.003870 0.014805 0.000000 0.000000 0.000000
# 4 0.000000 0.000000 0.000000 0.015675 0.000000 0.000000
# 5 0.000000 0.000000 0.000000 0.000000 0.064398 0.000000
# 6 0.000000 0.000000 0.000000 0.000000 0.000000 0.000040
#
#
# Mechanical properties :
#
#
# Convention : Reuss Voigt Hill
#
# Bulk Modulus (GPa) = 36.01400 41.10147 38.55774
# Shear Modulus (GPa) = 37.49596 5082.52303 2560.00950
#
# Velocity S-wave (km/s) = 4.25622 49.55318 35.16840
# Velocity P-wave (km/s) = 6.44619 57.39234 40.83769
#
# Compressibility (1/GPa) = 0.02776698
#
# Stress axis : x y z
#
# Youngs Moduli (GPa) = 78.42441 120.22771 67.54674
#
# Poissons Ratio (x) = 0.03506 -0.00730
# Poissons Ratio (y) = 0.02287 0.26138
# Poissons Ratio (z) = -0.00848 0.46523
#
# Static dielectric constant tensor:
#      x y z
#    x 1.771480 0.000000 0.000000 
#    y 0.000000 1.754620 0.000000 
#    z 0.000000 0.000000 1.711820 
# 
# From -- ./inp_files/18851.got.cif
#   From: 2010.05.17/outbox.cif.g08.bks.cpg/sg69_10_cif.got.tgz:18851.got - 2010.06.03 19:29:58.
