data_PCOD9513563
_publ_section_title
;
Structure prediction by ZEFSAII (Michael W. Deem and Ramdas Pophale) SiO2 
 PCOD9513563
Probable space group: F M M M
;
_chemical_formula_sum "Si O2"
_cell_formula_units_Z 128
_cell_length_a 17.109536
_cell_length_b 19.836152
_cell_length_c 19.130080
_cell_angle_alpha 90.000000
_cell_angle_beta 90.000000
_cell_angle_gamma 90.000000
_cell_volume 6492.507286
_symmetry_space_group_name_H-M "F M M M"
_symmetry_group_IT_number 69
_symmetry_cell_setting 'orthorhombic'
loop_
_space_group_symop_operation_xyz
x,y,z
-x,-y,z
x,-y,-z
-x,y,-z
-x,-y,-z
x,y,-z
-x,y,z
x,-y,z
x,1/2+y,1/2+z
-x,1/2-y,1/2+z
x,1/2-y,1/2-z
-x,1/2+y,1/2-z
-x,1/2-y,1/2-z
x,1/2+y,1/2-z
-x,1/2+y,1/2+z
x,1/2-y,1/2+z
1/2+x,y,1/2+z
1/2-x,-y,1/2+z
1/2+x,-y,1/2-z
1/2-x,y,1/2-z
1/2-x,-y,1/2-z
1/2+x,y,1/2-z
1/2-x,y,1/2+z
1/2+x,-y,1/2+z
1/2+x,1/2+y,z
1/2-x,1/2-y,z
1/2+x,1/2-y,-z
1/2-x,1/2+y,-z
1/2-x,1/2-y,-z
1/2+x,1/2+y,-z
1/2-x,1/2+y,z
1/2+x,1/2-y,z
loop_
_atom_site_type_symbol
_atom_site_label
_atom_site_fract_x
_atom_site_fract_y
_atom_site_fract_z
Si Si1 0.588087 0.500000 0.099273
Si Si2 0.689926 0.868389 0.187410
Si Si3 0.408358 0.000000 0.766731
Si Si4 0.593826 0.271260 0.583669
Si Si5 0.318160 0.131407 0.575593
O O1 0.500000 0.500000 0.077705
O O2 0.591955 0.500000 0.183189
O O3 0.626760 0.432334 0.073353
O O4 0.750000 0.844714 0.250000
O O5 0.638016 0.932425 0.210457
O O6 0.634385 0.816389 0.144458
O O7 0.751695 0.888423 0.128866
O O8 0.500000 0.000000 0.790175
O O9 0.606789 0.289255 0.500000
O O10 0.500000 0.270159 0.593119
O O11 0.632330 0.197664 0.594136
O O12 0.282290 0.145388 0.500000
#
# Coordination Sequence:
#
# PCOD9513563 Si02
#       5
#    16  32  16  32  32
#     4  11  22  40  62  90 123 164 213 263 318 379
#     4  12  23  42  66  94 128 170 210 265 320 382
#     4  11  24  44  65  91 129 168 212 263 320 379
#     4  10  23  44  67  94 130 172 217 265 319 381
#     4  11  23  40  65  95 128 166 211 265 321 380
#
# _framework density 19.715033999999999
#
# number of rings (size 3 to 8) (size 9 to 14) (size 15 to 20)
#    0.000    1.000    2.500    4.500    0.000    6.000 
#    0.000    3.125    0.000    4.500    0.000    0.000 
#    0.000    0.000    0.000    0.000    0.000    0.000 
#
# Total GULP energy -178423.286803 kJ/mol
# GULP energy per Si atom -5575.727713 kJ/mol
# Density = 1.967016 g / cm^3
# Si number density = 19.715034 Si / 1000 Ang^3
#
#
#
# Elastic Constant Matrix: (Units=GPa)
#
#
# Indices 1 2 3 4 5 6 
#
# 1 148.6793 52.4785 70.5469 0.0000 0.0000 0.0000
# 2 52.4785 121.4927 61.0497 0.0000 0.0000 0.0000
# 3 70.5469 61.0497 120.7301 0.0000 0.0000 0.0000
# 4 0.0000 0.0000 0.0000 30.5790 0.0000 0.0000
# 5 0.0000 0.0000 0.0000 0.0000 66.7827 0.0000
# 6 0.0000 0.0000 0.0000 0.0000 0.0000 -78.0575
#
#
#
# Elastic Compliance Matrix: (Units=1/GPa)
#
#
# Indices 1 2 3 4 5 6 
#
# 1 0.009584 -0.001777 -0.004702 0.000000 0.000000 0.000000
# 2 -0.001777 0.011364 -0.004708 0.000000 0.000000 0.000000
# 3 -0.004702 -0.004708 0.013411 0.000000 0.000000 0.000000
# 4 0.000000 0.000000 0.000000 0.032702 0.000000 0.000000
# 5 0.000000 0.000000 0.000000 0.000000 0.014974 0.000000
# 6 0.000000 0.000000 0.000000 0.000000 0.000000 -0.012811
#
#
# Mechanical properties :
#
#
# Convention : Reuss Voigt Hill
#
# Bulk Modulus (GPa) = 83.43410 84.33913 83.88661
# Shear Modulus (GPa) = 52.30462 17.64931 34.97697
#
# Velocity S-wave (km/s) = 5.15635 2.99527 4.21661
# Velocity P-wave (km/s) = 8.82397 7.40501 8.14545
#
# Compressibility (1/GPa) = 0.01198551
#
# Stress axis : x y z
#
# Youngs Moduli (GPa) = 104.33987 87.99356 74.56553
#
# Poissons Ratio (x) = 0.15639 0.35058
# Poissons Ratio (y) = 0.18544 0.35107
# Poissons Ratio (z) = 0.49056 0.41429
#
# Static dielectric constant tensor:
#      x y z
#    x 1.684180 0.000000 0.000000 
#    y 0.000000 1.635150 0.000000 
#    z 0.000000 0.000000 1.727810 
# 
# From -- ./inp_files/29633.got.cif
#   From: 2010.05.17/outbox.cif.g08.bks.cpg/sg69_15_cif.got.tgz:29633.got - 2010.06.03 19:29:58.
