data_PCOD9513168
_publ_section_title
;
Structure prediction by ZEFSAII (Michael W. Deem and Ramdas Pophale) SiO2 
 PCOD9513168
Probable space group: F M M M
;
_chemical_formula_sum "Si O2"
_cell_formula_units_Z 160
_cell_length_a 21.645032
_cell_length_b 15.100252
_cell_length_c 22.107303
_cell_angle_alpha 90.000000
_cell_angle_beta 90.000000
_cell_angle_gamma 90.000000
_cell_volume 7225.671126
_symmetry_space_group_name_H-M "F M M M"
_symmetry_group_IT_number 69
_symmetry_cell_setting 'orthorhombic'
loop_
_space_group_symop_operation_xyz
x,y,z
-x,-y,z
x,-y,-z
-x,y,-z
-x,-y,-z
x,y,-z
-x,y,z
x,-y,z
x,1/2+y,1/2+z
-x,1/2-y,1/2+z
x,1/2-y,1/2-z
-x,1/2+y,1/2-z
-x,1/2-y,1/2-z
x,1/2+y,1/2-z
-x,1/2+y,1/2+z
x,1/2-y,1/2+z
1/2+x,y,1/2+z
1/2-x,-y,1/2+z
1/2+x,-y,1/2-z
1/2-x,y,1/2-z
1/2-x,-y,1/2-z
1/2+x,y,1/2-z
1/2-x,y,1/2+z
1/2+x,-y,1/2+z
1/2+x,1/2+y,z
1/2-x,1/2-y,z
1/2+x,1/2-y,-z
1/2-x,1/2+y,-z
1/2-x,1/2-y,-z
1/2+x,1/2+y,-z
1/2-x,1/2+y,z
1/2+x,1/2-y,z
loop_
_atom_site_type_symbol
_atom_site_label
_atom_site_fract_x
_atom_site_fract_y
_atom_site_fract_z
Si Si1 0.705385 0.632565 0.928346
Si Si2 0.931289 0.394378 0.000000
Si Si3 0.426275 0.608437 0.706364
Si Si4 0.400264 0.599476 0.158336
Si Si5 0.500000 0.109055 0.432004
Si Si6 0.659852 0.331462 0.399333
O O1 0.665237 0.591879 0.874105
O O2 0.683762 0.734468 0.919026
O O3 0.776714 0.615539 0.911819
O O4 0.694254 0.609441 0.000000
O O5 0.893289 0.363036 0.056785
O O6 0.933944 0.500000 0.000000
O O7 0.000000 0.358607 0.000000
O O8 0.500000 0.627510 0.694696
O O9 0.419573 0.500000 0.699580
O O10 0.409439 0.636933 0.775163
O O11 0.374191 0.655275 0.664757
O O12 0.425093 0.500000 0.166315
O O13 0.442140 0.641641 0.106359
O O14 0.500000 0.140929 0.500000
O O15 0.500000 0.000000 0.436024
#
# Coordination Sequence:
#
# PCOD9513168 Si02
#       6
#    32  16  32  32  16  32
#     4  11  23  43  63  86 129 172 211 266 317 376
#     4  11  22  39  64  96 127 159 212 271 319 375
#     4  10  21  41  66  93 129 166 208 270 331 384
#     4  10  21  38  61  91 125 163 210 263 321 381
#     4   9  16  32  56  83 118 157 203 258 315 367
#     4  11  22  42  63  87 126 171 209 257 326 385
#
# _framework density 22.143272
#
# number of rings (size 3 to 8) (size 9 to 14) (size 15 to 20)
#    0.000    1.600    3.000    2.400    0.000    6.000 
#    3.600    5.000    0.000    0.000    0.000    0.000 
#    0.000    0.000    0.000    0.000    0.000    0.000 
#
# Total GULP energy -222937.412767 kJ/mol
# GULP energy per Si atom -5573.435319 kJ/mol
# Density = 2.209287 g / cm^3
# Si number density = 22.143272 Si / 1000 Ang^3
#
#
#
# Elastic Constant Matrix: (Units=GPa)
#
#
# Indices 1 2 3 4 5 6 
#
# 1 183.6847 17.5609 75.2752 0.0000 0.0000 0.0000
# 2 17.5609 50.4221 8.4894 0.0000 0.0000 0.0000
# 3 75.2752 8.4894 193.0791 0.0000 0.0000 0.0000
# 4 0.0000 0.0000 0.0000 58.8192 0.0000 0.0000
# 5 0.0000 0.0000 0.0000 0.0000 38.8974 0.0000
# 6 0.0000 0.0000 0.0000 0.0000 0.0000 26.1959
#
#
#
# Elastic Compliance Matrix: (Units=1/GPa)
#
#
# Indices 1 2 3 4 5 6 
#
# 1 0.006654 -0.001895 -0.002511 0.000000 0.000000 0.000000
# 2 -0.001895 0.020520 -0.000164 0.000000 0.000000 0.000000
# 3 -0.002511 -0.000164 0.006165 0.000000 0.000000 0.000000
# 4 0.000000 0.000000 0.000000 0.017001 0.000000 0.000000
# 5 0.000000 0.000000 0.000000 0.000000 0.025709 0.000000
# 6 0.000000 0.000000 0.000000 0.000000 0.000000 0.038174
#
#
# Mechanical properties :
#
#
# Convention : Reuss Voigt Hill
#
# Bulk Modulus (GPa) = 41.32045 69.98188 55.65117
# Shear Modulus (GPa) = 38.04333 46.50652 42.27492
#
# Velocity S-wave (km/s) = 4.14944 4.58783 4.37413
# Velocity P-wave (km/s) = 6.45431 7.72897 7.12022
#
# Compressibility (1/GPa) = 0.02420109
#
# Stress axis : x y z
#
# Youngs Moduli (GPa) = 150.27950 48.73296 162.19659
#
# Poissons Ratio (x) = 0.09234 0.40727
# Poissons Ratio (y) = 0.28474 0.02652
# Poissons Ratio (z) = 0.37735 0.00797
#
# Static dielectric constant tensor:
#      x y z
#    x 1.865420 0.000000 0.000000 
#    y 0.000000 1.824280 0.000000 
#    z 0.000000 0.000000 1.907150 
# 
# From -- ./inp_files/31760.got.cif
#   From: 2010.05.17/outbox.cif.g08.bks.cpg/sg69_16_cif.got.tgz:31760.got - 2010.06.03 19:29:58.
