data_PCOD9513147
_publ_section_title
;
Structure prediction by ZEFSAII (Michael W. Deem and Ramdas Pophale) SiO2 
 PCOD9513147
Probable space group: F M M M
;
_chemical_formula_sum "Si O2"
_cell_formula_units_Z 136
_cell_length_a 22.544714
_cell_length_b 18.771781
_cell_length_c 16.520966
_cell_angle_alpha 90.000000
_cell_angle_beta 90.000000
_cell_angle_gamma 90.000000
_cell_volume 6991.746064
_symmetry_space_group_name_H-M "F M M M"
_symmetry_group_IT_number 69
_symmetry_cell_setting 'orthorhombic'
loop_
_space_group_symop_operation_xyz
x,y,z
-x,-y,z
x,-y,-z
-x,y,-z
-x,-y,-z
x,y,-z
-x,y,z
x,-y,z
x,1/2+y,1/2+z
-x,1/2-y,1/2+z
x,1/2-y,1/2-z
-x,1/2+y,1/2-z
-x,1/2-y,1/2-z
x,1/2+y,1/2-z
-x,1/2+y,1/2+z
x,1/2-y,1/2+z
1/2+x,y,1/2+z
1/2-x,-y,1/2+z
1/2+x,-y,1/2-z
1/2-x,y,1/2-z
1/2-x,-y,1/2-z
1/2+x,y,1/2-z
1/2-x,y,1/2+z
1/2+x,-y,1/2+z
1/2+x,1/2+y,z
1/2-x,1/2-y,z
1/2+x,1/2-y,-z
1/2-x,1/2+y,-z
1/2-x,1/2-y,-z
1/2+x,1/2+y,-z
1/2-x,1/2+y,z
1/2+x,1/2-y,z
loop_
_atom_site_type_symbol
_atom_site_label
_atom_site_fract_x
_atom_site_fract_y
_atom_site_fract_z
Si Si1 0.120672 0.085114 0.219410
Si Si2 0.133560 0.922835 0.500000
Si Si3 0.174703 0.819422 0.903019
Si Si4 0.809830 0.159913 0.644952
Si Si5 0.000000 0.414138 0.821280
Si Si6 0.500000 0.392969 0.500000
O O1 0.127508 0.125614 0.134131
O O2 0.172772 0.121527 0.272421
O O3 0.058842 0.098076 0.267157
O O4 0.128314 0.000000 0.212568
O O5 0.152837 0.880698 0.577932
O O6 0.063456 0.929008 0.500000
O O7 0.162268 0.000000 0.500000
O O8 0.171247 0.742481 0.859556
O O9 0.241531 0.844802 0.882157
O O10 0.169613 0.810351 0.000000
O O11 0.000000 0.500000 0.842666
O O12 0.000000 0.367358 0.904304
#
# Coordination Sequence:
#
# PCOD9513147 Si02
#       6
#    32  16  32  32  16   8
#     4  11  24  40  62  91 122 158 205 259 305 359
#     4  12  21  33  63  99 123 147 193 257 309 362
#     4  11  23  42  62  86 125 170 203 240 304 367
#     4  11  21  41  63  90 123 161 202 247 309 368
#     4  10  21  38  59  88 124 160 199 251 320 368
#     4  12  21  36  64  94 128 158 187 256 335 368
#
# _framework density 19.451508
#
# number of rings (size 3 to 8) (size 9 to 14) (size 15 to 20)
#    0.000    0.941    4.706    3.882    0.000    5.176 
#    0.000    4.118    0.000    2.118    0.000    0.000 
#    0.000    0.000    0.000    0.000    0.000    0.000 
#
# Total GULP energy -189618.309535 kJ/mol
# GULP energy per Si atom -5577.009104 kJ/mol
# Density = 1.940724 g / cm^3
# Si number density = 19.451508 Si / 1000 Ang^3
#
#
#
# Elastic Constant Matrix: (Units=GPa)
#
#
# Indices 1 2 3 4 5 6 
#
# 1 69.8166 50.4858 27.8136 0.0000 0.0000 0.0000
# 2 50.4858 79.8803 34.3449 0.0000 0.0000 0.0000
# 3 27.8136 34.3449 84.3651 0.0000 0.0000 0.0000
# 4 0.0000 0.0000 0.0000 19.4639 0.0000 0.0000
# 5 0.0000 0.0000 0.0000 0.0000 164.7815 0.0000
# 6 0.0000 0.0000 0.0000 0.0000 0.0000 13.1815
#
#
#
# Elastic Compliance Matrix: (Units=1/GPa)
#
#
# Indices 1 2 3 4 5 6 
#
# 1 0.026757 -0.015902 -0.002348 0.000000 0.000000 0.000000
# 2 -0.015902 0.024625 -0.004782 0.000000 0.000000 0.000000
# 3 -0.002348 -0.004782 0.014574 0.000000 0.000000 0.000000
# 4 0.000000 0.000000 0.000000 0.051377 0.000000 0.000000
# 5 0.000000 0.000000 0.000000 0.000000 0.006069 0.000000
# 6 0.000000 0.000000 0.000000 0.000000 0.000000 0.075864
#
#
# Mechanical properties :
#
#
# Convention : Reuss Voigt Hill
#
# Bulk Modulus (GPa) = 50.26926 51.03894 50.65410
# Shear Modulus (GPa) = 19.84434 47.57990 33.71212
#
# Velocity S-wave (km/s) = 3.19751 4.95115 4.16761
# Velocity P-wave (km/s) = 6.28742 7.67992 7.01829
#
# Compressibility (1/GPa) = 0.01989287
#
# Stress axis : x y z
#
# Youngs Moduli (GPa) = 37.37285 40.60906 68.61455
#
# Poissons Ratio (x) = 0.64575 0.16110
# Poissons Ratio (y) = 0.59429 0.32814
# Poissons Ratio (z) = 0.08775 0.19421
#
# Static dielectric constant tensor:
#      x y z
#    x 1.671310 0.000000 0.000000 
#    y 0.000000 1.665140 0.000000 
#    z 0.000000 0.000000 1.732570 
# 
# From -- ./inp_files/22942.got.cif
#   From: 2010.05.17/outbox.cif.g08.bks.cpg/sg69_12_cif.got.tgz:22942.got - 2010.06.03 19:29:58.
