data_PCOD9513558
_publ_section_title
;
Structure prediction by ZEFSAII (Michael W. Deem and Ramdas Pophale) SiO2 
 PCOD9513558
Probable space group: F M M M
;
_chemical_formula_sum "Si O2"
_cell_formula_units_Z 84
_cell_length_a 22.471114
_cell_length_b 9.870060
_cell_length_c 18.165021
_cell_angle_alpha 90.000000
_cell_angle_beta 90.000000
_cell_angle_gamma 90.000000
_cell_volume 4028.842595
_symmetry_space_group_name_H-M "F M M M"
_symmetry_group_IT_number 69
_symmetry_cell_setting 'orthorhombic'
loop_
_space_group_symop_operation_xyz
x,y,z
-x,-y,z
x,-y,-z
-x,y,-z
-x,-y,-z
x,y,-z
-x,y,z
x,-y,z
x,1/2+y,1/2+z
-x,1/2-y,1/2+z
x,1/2-y,1/2-z
-x,1/2+y,1/2-z
-x,1/2-y,1/2-z
x,1/2+y,1/2-z
-x,1/2+y,1/2+z
x,1/2-y,1/2+z
1/2+x,y,1/2+z
1/2-x,-y,1/2+z
1/2+x,-y,1/2-z
1/2-x,y,1/2-z
1/2-x,-y,1/2-z
1/2+x,y,1/2-z
1/2-x,y,1/2+z
1/2+x,-y,1/2+z
1/2+x,1/2+y,z
1/2-x,1/2-y,z
1/2+x,1/2-y,-z
1/2-x,1/2+y,-z
1/2-x,1/2-y,-z
1/2+x,1/2+y,-z
1/2-x,1/2+y,z
1/2+x,1/2-y,z
loop_
_atom_site_type_symbol
_atom_site_label
_atom_site_fract_x
_atom_site_fract_y
_atom_site_fract_z
Si Si1 0.500000 0.500000 0.500000
Si Si2 0.782848 0.000000 0.170050
Si Si3 0.336912 0.000000 0.912709
Si Si4 0.500000 0.286220 0.080779
Si Si5 0.882133 0.228314 0.164703
O O1 0.500000 0.622836 0.563307
O O2 0.750000 0.000000 0.250000
O O3 0.825650 0.871031 0.162819
O O4 0.732773 0.000000 0.107345
O O5 0.363943 0.132523 0.874952
O O6 0.349764 0.000000 0.000000
O O7 0.559445 0.324004 0.123870
O O8 0.500000 0.348101 0.000000
O O9 0.896518 0.250000 0.250000
#
# Coordination Sequence:
#
# PCOD9513558 Si02
#       5
#     4  16  16  16  32
#     4   8  20  44  72 102 160 188 230 318 372 446
#     4  12  26  47  68 106 151 197 242 319 371 435
#     4  12  27  45  75 109 143 201 258 304 371 449
#     4  10  23  42  70 108 146 190 243 307 371 444
#     4  12  24  44  75 104 150 197 250 303 378 448
#
# _framework density 20.849658999999999
#
# number of rings (size 3 to 8) (size 9 to 14) (size 15 to 20)
#    0.571    0.000    3.810    4.000    2.667    5.333 
#    0.000    4.762    0.000    0.000    0.000    0.000 
#    0.000    0.000    0.000    0.000    0.000    0.000 
#
# Total GULP energy -117246.007429 kJ/mol
# GULP energy per Si atom -5583.143211 kJ/mol
# Density = 2.080220 g / cm^3
# Si number density = 20.849659 Si / 1000 Ang^3
#
#
#
# Elastic Constant Matrix: (Units=GPa)
#
#
# Indices 1 2 3 4 5 6 
#
# 1 166.1972 48.3036 78.5319 0.0000 0.0000 0.0000
# 2 48.3036 125.6795 60.2360 0.0000 0.0000 0.0000
# 3 78.5319 60.2360 203.3268 0.0000 0.0000 0.0000
# 4 0.0000 0.0000 0.0000 29.2502 0.0000 0.0000
# 5 0.0000 0.0000 0.0000 0.0000 19.5332 0.0000
# 6 0.0000 0.0000 0.0000 0.0000 0.0000 -15.8866
#
#
#
# Elastic Compliance Matrix: (Units=1/GPa)
#
#
# Indices 1 2 3 4 5 6 
#
# 1 0.007689 -0.001785 -0.002441 0.000000 0.000000 0.000000
# 2 -0.001785 0.009688 -0.002181 0.000000 0.000000 0.000000
# 3 -0.002441 -0.002181 0.006507 0.000000 0.000000 0.000000
# 4 0.000000 0.000000 0.000000 0.034188 0.000000 0.000000
# 5 0.000000 0.000000 0.000000 0.000000 0.051195 0.000000
# 6 0.000000 0.000000 0.000000 0.000000 0.000000 -0.062946
#
#
# Mechanical properties :
#
#
# Convention : Reuss Voigt Hill
#
# Bulk Modulus (GPa) = 90.32974 96.59404 93.46189
# Shear Modulus (GPa) = 79.58649 27.12148 53.35399
#
# Velocity S-wave (km/s) = 6.18502 3.61059 5.06413
# Velocity P-wave (km/s) = 9.71722 7.98819 8.89482
#
# Compressibility (1/GPa) = 0.01107055
#
# Stress axis : x y z
#
# Youngs Moduli (GPa) = 130.05170 103.22016 153.68185
#
# Poissons Ratio (x) = 0.18429 0.37513
# Poissons Ratio (y) = 0.23219 0.33511
# Poissons Ratio (z) = 0.31745 0.22507
#
# Static dielectric constant tensor:
#      x y z
#    x 1.708400 0.000000 0.000000 
#    y 0.000000 1.757870 0.000000 
#    z 0.000000 0.000000 1.711020 
# 
# From -- ./inp_files/23886.got.cif
#   From: 2010.05.17/outbox.cif.g08.bks.cpg/sg69_12_cif.got.tgz:23886.got - 2010.06.03 19:29:58.
