data_PCOD9513958
_publ_section_title
;
Structure prediction by ZEFSAII (Michael W. Deem and Ramdas Pophale) SiO2 
 PCOD9513958
Probable space group: F M M M
;
_chemical_formula_sum "Si O2"
_cell_formula_units_Z 176
_cell_length_a 14.554840
_cell_length_b 28.057239
_cell_length_c 19.787443
_cell_angle_alpha 90.000000
_cell_angle_beta 90.000000
_cell_angle_gamma 90.000000
_cell_volume 8080.570880
_symmetry_space_group_name_H-M "F M M M"
_symmetry_group_IT_number 69
_symmetry_cell_setting 'orthorhombic'
loop_
_space_group_symop_operation_xyz
x,y,z
-x,-y,z
x,-y,-z
-x,y,-z
-x,-y,-z
x,y,-z
-x,y,z
x,-y,z
x,1/2+y,1/2+z
-x,1/2-y,1/2+z
x,1/2-y,1/2-z
-x,1/2+y,1/2-z
-x,1/2-y,1/2-z
x,1/2+y,1/2-z
-x,1/2+y,1/2+z
x,1/2-y,1/2+z
1/2+x,y,1/2+z
1/2-x,-y,1/2+z
1/2+x,-y,1/2-z
1/2-x,y,1/2-z
1/2-x,-y,1/2-z
1/2+x,y,1/2-z
1/2-x,y,1/2+z
1/2+x,-y,1/2+z
1/2+x,1/2+y,z
1/2-x,1/2-y,z
1/2+x,1/2-y,-z
1/2-x,1/2+y,-z
1/2-x,1/2-y,-z
1/2+x,1/2+y,-z
1/2-x,1/2+y,z
1/2+x,1/2-y,z
loop_
_atom_site_type_symbol
_atom_site_label
_atom_site_fract_x
_atom_site_fract_y
_atom_site_fract_z
Si Si1 0.396972 0.924435 0.356650
Si Si2 0.104425 0.556279 0.500000
Si Si3 0.639657 0.240024 0.923830
Si Si4 0.111999 0.552808 0.208141
Si Si5 0.847017 0.340730 0.170203
Si Si6 0.130567 0.680841 0.317813
O O1 0.500000 0.945618 0.362440
O O2 0.349368 0.931377 0.428727
O O3 0.355730 0.943687 0.286782
O O4 0.405737 0.868463 0.346407
O O5 0.095674 0.500000 0.500000
O O6 0.000000 0.577988 0.500000
O O7 0.750000 0.250000 0.926193
O O8 0.620697 0.186884 0.896311
O O9 0.604846 0.275784 0.865793
O O10 0.606129 0.248033 0.000000
O O11 0.137108 0.500000 0.181644
O O12 0.143199 0.601990 0.172811
O O13 0.000000 0.555219 0.209685
O O14 0.892319 0.318976 0.238363
O O15 0.740548 0.326268 0.177404
#
# Coordination Sequence:
#
# PCOD9513958 Si02
#       6
#    32  16  32  32  32  32
#     4   9  17  28  43  66  95 127 160 191 230 285
#     4   9  16  26  40  58  87 126 159 185 217 266
#     4   9  17  29  48  71  93 125 159 193 237 292
#     4   9  17  31  51  71  93 124 163 204 245 288
#     4   9  17  31  48  71  94 121 159 201 241 280
#     4   9  17  29  47  70  96 125 154 195 237 282
#
# _framework density 21.780639999999998
#
# number of rings (size 3 to 8) (size 9 to 14) (size 15 to 20)
#    0.000    3.000    0.000    1.091    1.273    4.364 
#    0.000    9.091    0.000    6.545    0.000    1.273 
#    0.000    0.000    0.000    0.000    0.000    0.000 
#
# Total GULP energy -245227.929890 kJ/mol
# GULP energy per Si atom -5573.362043 kJ/mol
# Density = 2.173107 g / cm^3
# Si number density = 21.780640 Si / 1000 Ang^3
#
#
#
# Elastic Constant Matrix: (Units=GPa)
#
#
# Indices 1 2 3 4 5 6 
#
# 1 56.9255 5.3751 13.5232 0.0000 0.0000 0.0000
# 2 5.3751 154.8248 76.2159 0.0000 0.0000 0.0000
# 3 13.5232 76.2159 106.8517 0.0000 0.0000 0.0000
# 4 0.0000 0.0000 0.0000 16.4542 0.0000 0.0000
# 5 0.0000 0.0000 0.0000 0.0000 7.0059 0.0000
# 6 0.0000 0.0000 0.0000 0.0000 0.0000 13.1210
#
#
#
# Elastic Compliance Matrix: (Units=1/GPa)
#
#
# Indices 1 2 3 4 5 6 
#
# 1 0.018171 0.000773 -0.002851 0.000000 0.000000 0.000000
# 2 0.000773 0.009987 -0.007221 0.000000 0.000000 0.000000
# 3 -0.002851 -0.007221 0.014870 0.000000 0.000000 0.000000
# 4 0.000000 0.000000 0.000000 0.060775 0.000000 0.000000
# 5 0.000000 0.000000 0.000000 0.000000 0.142738 0.000000
# 6 0.000000 0.000000 0.000000 0.000000 0.000000 0.076214
#
#
# Mechanical properties :
#
#
# Convention : Reuss Voigt Hill
#
# Bulk Modulus (GPa) = 40.93442 56.53671 48.73557
# Shear Modulus (GPa) = 14.30628 22.21540 18.26084
#
# Velocity S-wave (km/s) = 2.56566 3.19715 2.89865
# Velocity P-wave (km/s) = 5.25467 6.29624 5.79889
#
# Compressibility (1/GPa) = 0.02442932
#
# Stress axis : x y z
#
# Youngs Moduli (GPa) = 55.03240 100.13072 67.24757
#
# Poissons Ratio (x) = -0.07735 0.19171
# Poissons Ratio (y) = -0.04251 0.48562
# Poissons Ratio (z) = 0.15688 0.72308
#
# Static dielectric constant tensor:
#      x y z
#    x 1.930100 0.000000 0.000000 
#    y 0.000000 1.774580 0.000000 
#    z 0.000000 0.000000 1.810680 
# 
# From -- ./inp_files/23525.got.cif
#   From: 2010.05.17/outbox.cif.g08.bks.cpg/sg69_12_cif.got.tgz:23525.got - 2010.06.03 19:29:58.
