data_PCOD9513358
_publ_section_title
;
Structure prediction by ZEFSAII (Michael W. Deem and Ramdas Pophale) SiO2 
 PCOD9513358
Probable space group: F M M M
;
_chemical_formula_sum "Si O2"
_cell_formula_units_Z 144
_cell_length_a 18.021385
_cell_length_b 13.614724
_cell_length_c 32.640129
_cell_angle_alpha 90.000000
_cell_angle_beta 90.000000
_cell_angle_gamma 90.000000
_cell_volume 8008.457460
_symmetry_space_group_name_H-M "F M M M"
_symmetry_group_IT_number 69
_symmetry_cell_setting 'orthorhombic'
loop_
_space_group_symop_operation_xyz
x,y,z
-x,-y,z
x,-y,-z
-x,y,-z
-x,-y,-z
x,y,-z
-x,y,z
x,-y,z
x,1/2+y,1/2+z
-x,1/2-y,1/2+z
x,1/2-y,1/2-z
-x,1/2+y,1/2-z
-x,1/2-y,1/2-z
x,1/2+y,1/2-z
-x,1/2+y,1/2+z
x,1/2-y,1/2+z
1/2+x,y,1/2+z
1/2-x,-y,1/2+z
1/2+x,-y,1/2-z
1/2-x,y,1/2-z
1/2-x,-y,1/2-z
1/2+x,y,1/2-z
1/2-x,y,1/2+z
1/2+x,-y,1/2+z
1/2+x,1/2+y,z
1/2-x,1/2-y,z
1/2+x,1/2-y,-z
1/2-x,1/2+y,-z
1/2-x,1/2-y,-z
1/2+x,1/2+y,-z
1/2-x,1/2+y,z
1/2+x,1/2-y,z
loop_
_atom_site_type_symbol
_atom_site_label
_atom_site_fract_x
_atom_site_fract_y
_atom_site_fract_z
Si Si1 0.375082 0.884730 0.669718
Si Si2 0.876783 0.383651 0.892814
Si Si3 0.000000 0.381456 0.826757
Si Si4 0.000000 0.619707 0.266468
Si Si5 0.750000 0.750000 0.136295
Si Si6 0.500000 0.693545 0.451426
Si Si7 0.000000 0.611556 0.399980
O O1 0.426623 0.854520 0.707875
O O2 0.303418 0.818833 0.663140
O O3 0.428744 0.877472 0.629847
O O4 0.355566 0.000000 0.674264
O O5 0.862354 0.500000 0.890846
O O6 0.928008 0.354467 0.853475
O O7 0.802807 0.320135 0.890469
O O8 0.928253 0.358984 0.931579
O O9 0.000000 0.345779 0.780280
O O10 0.000000 0.500000 0.825578
O O11 0.000000 0.500000 0.266022
O O12 0.500000 0.690033 0.500000
O O13 0.500000 0.804460 0.433827
O O14 0.000000 0.500000 0.416069
#
# Coordination Sequence:
#
# PCOD9513358 Si02
#       7
#    32  32  16  16  16  16  16
#     4   9  18  32  55  81 106 146 188 223 269 323
#     4  10  22  38  58  83 109 147 188 224 279 333
#     4   8  16  35  58  76 106 147 189 237 273 310
#     4   8  15  32  56  79 104 143 194 236 268 309
#     4  12  20  34  56  78 118 150 178 222 275 339
#     4  11  21  39  65  87 108 137 182 236 273 316
#     4   9  17  35  59  82 111 143 182 222 262 319
#
# _framework density 17.980989999999998
#
# number of rings (size 3 to 8) (size 9 to 14) (size 15 to 20)
#    0.000    2.444    2.222    3.000    0.000    1.111 
#    0.000    5.000    0.000    5.333    0.000    0.000 
#    0.000    0.000    0.000    0.000    0.000    0.000 
#
# Total GULP energy -201012.534408 kJ/mol
# GULP energy per Si atom -5583.681511 kJ/mol
# Density = 1.794006 g / cm^3
# Si number density = 17.980990 Si / 1000 Ang^3
#
#
#
# Elastic Constant Matrix: (Units=GPa)
#
#
# Indices 1 2 3 4 5 6 
#
# 1 132.0187 69.0754 53.0306 0.0000 0.0000 0.0000
# 2 69.0754 134.1762 40.6771 0.0000 0.0000 0.0000
# 3 53.0306 40.6771 130.7614 0.0000 0.0000 0.0000
# 4 0.0000 0.0000 0.0000 22.7997 0.0000 0.0000
# 5 0.0000 0.0000 0.0000 0.0000 2.6929 0.0000
# 6 0.0000 0.0000 0.0000 0.0000 0.0000 45.2631
#
#
#
# Elastic Compliance Matrix: (Units=1/GPa)
#
#
# Indices 1 2 3 4 5 6 
#
# 1 0.011394 -0.004930 -0.003087 0.000000 0.000000 0.000000
# 2 -0.004930 0.010362 -0.001224 0.000000 0.000000 0.000000
# 3 -0.003087 -0.001224 0.009280 0.000000 0.000000 0.000000
# 4 0.000000 0.000000 0.000000 0.043860 0.000000 0.000000
# 5 0.000000 0.000000 0.000000 0.000000 0.371347 0.000000
# 6 0.000000 0.000000 0.000000 0.000000 0.000000 0.022093
#
#
# Mechanical properties :
#
#
# Convention : Reuss Voigt Hill
#
# Bulk Modulus (GPa) = 79.65639 80.28030 79.96834
# Shear Modulus (GPa) = 10.18322 29.76269 19.97295
#
# Velocity S-wave (km/s) = 2.38236 4.07287 3.33645
# Velocity P-wave (km/s) = 7.20861 8.17691 7.70798
#
# Compressibility (1/GPa) = 0.01255392
#
# Stress axis : x y z
#
# Youngs Moduli (GPa) = 87.76291 96.50679 107.75412
#
# Poissons Ratio (x) = 0.47577 0.33268
# Poissons Ratio (y) = 0.43267 0.13189
# Poissons Ratio (z) = 0.27096 0.11813
#
# Static dielectric constant tensor:
#      x y z
#    x 1.595550 0.000000 0.000000 
#    y 0.000000 1.674730 0.000000 
#    z 0.000000 0.000000 1.584460 
# 
# From -- ./inp_files/19558.got.cif
#   From: 2010.05.17/outbox.cif.g08.bks.cpg/sg69_10_cif.got.tgz:19558.got - 2010.06.03 19:29:58.
