data_PCOD9513664
_publ_section_title
;
Structure prediction by ZEFSAII (Michael W. Deem and Ramdas Pophale) SiO2 
 PCOD9513664
Probable space group: F M M M
;
_chemical_formula_sum "Si O2"
_cell_formula_units_Z 144
_cell_length_a 16.108462
_cell_length_b 29.652805
_cell_length_c 17.001743
_cell_angle_alpha 90.000000
_cell_angle_beta 90.000000
_cell_angle_gamma 90.000000
_cell_volume 8121.070966
_symmetry_space_group_name_H-M "F M M M"
_symmetry_group_IT_number 69
_symmetry_cell_setting 'orthorhombic'
loop_
_space_group_symop_operation_xyz
x,y,z
-x,-y,z
x,-y,-z
-x,y,-z
-x,-y,-z
x,y,-z
-x,y,z
x,-y,z
x,1/2+y,1/2+z
-x,1/2-y,1/2+z
x,1/2-y,1/2-z
-x,1/2+y,1/2-z
-x,1/2-y,1/2-z
x,1/2+y,1/2-z
-x,1/2+y,1/2+z
x,1/2-y,1/2+z
1/2+x,y,1/2+z
1/2-x,-y,1/2+z
1/2+x,-y,1/2-z
1/2-x,y,1/2-z
1/2-x,-y,1/2-z
1/2+x,y,1/2-z
1/2-x,y,1/2+z
1/2+x,-y,1/2+z
1/2+x,1/2+y,z
1/2-x,1/2-y,z
1/2+x,1/2-y,-z
1/2-x,1/2+y,-z
1/2-x,1/2-y,-z
1/2+x,1/2+y,-z
1/2-x,1/2+y,z
1/2+x,1/2-y,z
loop_
_atom_site_type_symbol
_atom_site_label
_atom_site_fract_x
_atom_site_fract_y
_atom_site_fract_z
Si Si1 0.252457 0.357200 0.593719
Si Si2 0.181369 0.448658 0.596378
Si Si3 0.500000 0.054726 0.588982
Si Si4 0.093345 0.198190 0.849378
Si Si5 0.593005 0.803270 0.840400
O O1 0.258982 0.356652 0.500000
O O2 0.243194 0.409216 0.620058
O O3 0.168401 0.330766 0.616812
O O4 0.332515 0.333280 0.628861
O O5 0.177009 0.449297 0.500000
O O6 0.200031 0.500000 0.620711
O O7 0.088963 0.434587 0.625337
O O8 0.500000 0.073260 0.500000
O O9 0.500000 0.000000 0.583226
O O10 0.095379 0.195808 0.754486
O O11 0.104215 0.251361 0.867599
O O12 0.000000 0.184296 0.875189
O O13 0.500000 0.817625 0.864764
#
# Coordination Sequence:
#
# PCOD9513664 Si02
#       5
#    32  32  16  32  32
#     4  11  21  29  48  80 105 125 155 204 258 294
#     4   8  15  27  42  64  97 132 161 191 237 298
#     4   7  10  20  38  56  82 123 156 180 221 282
#     4   9  19  35  54  72  94 130 170 203 237 290
#     4   9  19  37  54  67  92 136 179 200 225 285
#
# _framework density 17.731652
#
# number of rings (size 3 to 8) (size 9 to 14) (size 15 to 20)
#    0.000    3.000    0.000    4.000    1.556    4.444 
#    0.000    2.222    0.000    3.333    0.000    6.222 
#    0.000    0.000    0.000    0.000    0.000    0.000 
#
# Total GULP energy -200564.704199 kJ/mol
# GULP energy per Si atom -5571.241783 kJ/mol
# Density = 1.769129 g / cm^3
# Si number density = 17.731652 Si / 1000 Ang^3
#
#
#
# Elastic Constant Matrix: (Units=GPa)
#
#
# Indices 1 2 3 4 5 6 
#
# 1 147.8662 100.4864 24.0324 0.0000 0.0000 0.0000
# 2 100.4864 110.2353 19.5753 0.0000 0.0000 0.0000
# 3 24.0324 19.5753 11.1864 0.0000 0.0000 0.0000
# 4 0.0000 0.0000 0.0000 62.5555 0.0000 0.0000
# 5 0.0000 0.0000 0.0000 0.0000 -6.0677 0.0000
# 6 0.0000 0.0000 0.0000 0.0000 0.0000 26.6505
#
#
#
# Elastic Compliance Matrix: (Units=1/GPa)
#
#
# Indices 1 2 3 4 5 6 
#
# 1 0.019493 -0.014991 -0.015645 0.000000 0.000000 0.000000
# 2 -0.014991 0.024690 -0.011000 0.000000 0.000000 0.000000
# 3 -0.015645 -0.011000 0.142255 0.000000 0.000000 0.000000
# 4 0.000000 0.000000 0.000000 0.015986 0.000000 0.000000
# 5 0.000000 0.000000 0.000000 0.000000 -0.164807 0.000000
# 6 0.000000 0.000000 0.000000 0.000000 0.000000 0.037523
#
#
# Mechanical properties :
#
#
# Convention : Reuss Voigt Hill
#
# Bulk Modulus (GPa) = 9.69308 61.94180 35.81744
# Shear Modulus (GPa) = 25.93348 24.97390 25.45369
#
# Velocity S-wave (km/s) = 3.82848 3.75699 3.79290
# Velocity P-wave (km/s) = 5.00214 7.33680 6.27894
#
# Compressibility (1/GPa) = 0.10316638
#
# Stress axis : x y z
#
# Youngs Moduli (GPa) = 51.29974 40.50210 7.02963
#
# Poissons Ratio (x) = 0.60717 0.10998
# Poissons Ratio (y) = 0.76904 0.07732
# Poissons Ratio (z) = 0.80261 0.44550
#
# Static dielectric constant tensor:
#      x y z
#    x 1.614520 0.000000 0.000000 
#    y 0.000000 1.619550 0.000000 
#    z 0.000000 0.000000 1.605210 
# 
# From -- ./inp_files/15539.got.cif
#   From: 2010.05.17/outbox.cif.g08.bks.cpg/sg69_8_cif.got.tgz:15539.got - 2010.06.03 19:29:58.
