data_PCOD9513494
_publ_section_title
;
Structure prediction by ZEFSAII (Michael W. Deem and Ramdas Pophale) SiO2 
 PCOD9513494
Probable space group: F M M M
;
_chemical_formula_sum "Si O2"
_cell_formula_units_Z 160
_cell_length_a 21.327405
_cell_length_b 28.062984
_cell_length_c 11.717441
_cell_angle_alpha 90.000000
_cell_angle_beta 90.000000
_cell_angle_gamma 90.000000
_cell_volume 7013.012940
_symmetry_space_group_name_H-M "F M M M"
_symmetry_group_IT_number 69
_symmetry_cell_setting 'orthorhombic'
loop_
_space_group_symop_operation_xyz
x,y,z
-x,-y,z
x,-y,-z
-x,y,-z
-x,-y,-z
x,y,-z
-x,y,z
x,-y,z
x,1/2+y,1/2+z
-x,1/2-y,1/2+z
x,1/2-y,1/2-z
-x,1/2+y,1/2-z
-x,1/2-y,1/2-z
x,1/2+y,1/2-z
-x,1/2+y,1/2+z
x,1/2-y,1/2+z
1/2+x,y,1/2+z
1/2-x,-y,1/2+z
1/2+x,-y,1/2-z
1/2-x,y,1/2-z
1/2-x,-y,1/2-z
1/2+x,y,1/2-z
1/2-x,y,1/2+z
1/2+x,-y,1/2+z
1/2+x,1/2+y,z
1/2-x,1/2-y,z
1/2+x,1/2-y,-z
1/2-x,1/2+y,-z
1/2-x,1/2-y,-z
1/2+x,1/2+y,-z
1/2-x,1/2+y,z
1/2+x,1/2-y,z
loop_
_atom_site_type_symbol
_atom_site_label
_atom_site_fract_x
_atom_site_fract_y
_atom_site_fract_z
Si Si1 0.633504 0.401068 0.373989
Si Si2 0.702245 0.000000 0.140379
Si Si3 0.572552 0.135726 0.334814
Si Si4 0.718470 0.689774 0.626703
Si Si5 0.576382 0.946346 0.500000
Si Si6 0.900168 0.760349 0.874365
O O1 0.607612 0.404234 0.500000
O O2 0.660484 0.452654 0.344225
O O3 0.581902 0.376864 0.295378
O O4 0.690590 0.363476 0.371658
O O5 0.750000 0.000000 0.250000
O O6 0.722232 0.000000 0.000000
O O7 0.500000 0.144757 0.364263
O O8 0.594676 0.087394 0.395632
O O9 0.610226 0.182682 0.368825
O O10 0.749901 0.694997 0.500000
O O11 0.750000 0.696117 0.750000
O O12 0.838586 0.772402 0.626265
O O13 0.500000 0.949410 0.500000
O O14 0.600882 0.000000 0.500000
O O15 0.931223 0.750000 0.750000
O O16 0.929621 0.751175 0.000000
#
# Coordination Sequence:
#
# PCOD9513494 Si02
#       6
#    32  16  32  32  16  32
#     4  10  22  43  65  95 133 169 215 274 338 398
#     4  10  22  44  71  99 138 176 217 277 337 406
#     4  11  23  42  67  94 130 173 222 272 326 394
#     4  10  22  42  65  90 127 170 215 270 329 394
#     4   9  20  40  66  94 125 162 212 277 334 377
#     4  11  23  42  64  93 131 172 219 271 330 395
#
# _framework density 22.814730999999998
#
# number of rings (size 3 to 8) (size 9 to 14) (size 15 to 20)
#    0.000    1.700    3.000    0.600    1.400    2.000 
#    3.600    2.000    0.000    1.800    0.000    0.000 
#    0.000    0.000    0.000    0.000    0.000    0.000 
#
# Total GULP energy -222999.243927 kJ/mol
# GULP energy per Si atom -5574.981098 kJ/mol
# Density = 2.276280 g / cm^3
# Si number density = 22.814731 Si / 1000 Ang^3
#
#
#
# Elastic Constant Matrix: (Units=GPa)
#
#
# Indices 1 2 3 4 5 6 
#
# 1 45.5638 30.4216 48.8229 0.0000 0.0000 0.0000
# 2 30.4216 201.5192 32.0701 0.0000 0.0000 0.0000
# 3 48.8229 32.0701 200.0280 0.0000 0.0000 0.0000
# 4 0.0000 0.0000 0.0000 35.2717 0.0000 0.0000
# 5 0.0000 0.0000 0.0000 0.0000 -5.0104 0.0000
# 6 0.0000 0.0000 0.0000 0.0000 0.0000 13.1966
#
#
#
# Elastic Compliance Matrix: (Units=1/GPa)
#
#
# Indices 1 2 3 4 5 6 
#
# 1 0.032209 -0.003706 -0.007267 0.000000 0.000000 0.000000
# 2 -0.003706 0.005519 0.000020 0.000000 0.000000 0.000000
# 3 -0.007267 0.000020 0.006770 0.000000 0.000000 0.000000
# 4 0.000000 0.000000 0.000000 0.028351 0.000000 0.000000
# 5 0.000000 0.000000 0.000000 0.000000 -0.199584 0.000000
# 6 0.000000 0.000000 0.000000 0.000000 0.000000 0.075777
#
#
# Mechanical properties :
#
#
# Convention : Reuss Voigt Hill
#
# Bulk Modulus (GPa) = 44.26649 74.41556 59.34103
# Shear Modulus (GPa) = -232.32703 31.07800 -100.62452
#
# Velocity S-wave (km/s) = -10.10213 3.69479 -6.64837
# Velocity P-wave (km/s) = 10.79936 7.13373 5.73306
#
# Compressibility (1/GPa) = 0.02259045
#
# Stress axis : x y z
#
# Youngs Moduli (GPa) = 31.04755 181.20571 147.71133
#
# Poissons Ratio (x) = 0.67150 1.07347
# Poissons Ratio (y) = 0.11505 -0.00291
# Poissons Ratio (z) = 0.22563 -0.00357
#
# Static dielectric constant tensor:
#      x y z
#    x 1.864260 0.000000 0.000000 
#    y 0.000000 1.802090 0.000000 
#    z 0.000000 0.000000 1.978650 
# 
# From -- ./inp_files/10579.got.cif
#   From: 2010.05.17/outbox.cif.g08.bks.cpg/sg69_6_cif.got.tgz:10579.got - 2010.06.03 19:29:58.
