data_PCOD9513682
_publ_section_title
;
Structure prediction by ZEFSAII (Michael W. Deem and Ramdas Pophale) SiO2 
 PCOD9513682
Probable space group: F M M M
;
_chemical_formula_sum "Si O2"
_cell_formula_units_Z 160
_cell_length_a 22.157355
_cell_length_b 25.391707
_cell_length_c 13.930724
_cell_angle_alpha 90.000000
_cell_angle_beta 90.000000
_cell_angle_gamma 90.000000
_cell_volume 7837.607342
_symmetry_space_group_name_H-M "F M M M"
_symmetry_group_IT_number 69
_symmetry_cell_setting 'orthorhombic'
loop_
_space_group_symop_operation_xyz
x,y,z
-x,-y,z
x,-y,-z
-x,y,-z
-x,-y,-z
x,y,-z
-x,y,z
x,-y,z
x,1/2+y,1/2+z
-x,1/2-y,1/2+z
x,1/2-y,1/2-z
-x,1/2+y,1/2-z
-x,1/2-y,1/2-z
x,1/2+y,1/2-z
-x,1/2+y,1/2+z
x,1/2-y,1/2+z
1/2+x,y,1/2+z
1/2-x,-y,1/2+z
1/2+x,-y,1/2-z
1/2-x,y,1/2-z
1/2-x,-y,1/2-z
1/2+x,y,1/2-z
1/2-x,y,1/2+z
1/2+x,-y,1/2+z
1/2+x,1/2+y,z
1/2-x,1/2-y,z
1/2+x,1/2-y,-z
1/2-x,1/2+y,-z
1/2-x,1/2-y,-z
1/2+x,1/2+y,-z
1/2-x,1/2+y,z
1/2+x,1/2-y,z
loop_
_atom_site_type_symbol
_atom_site_label
_atom_site_fract_x
_atom_site_fract_y
_atom_site_fract_z
Si Si1 0.199398 0.714547 0.153815
Si Si2 0.652723 0.559344 0.211384
Si Si3 0.428971 0.855884 0.388591
Si Si4 0.775318 0.904771 0.614480
Si Si5 0.566345 0.736374 0.614031
O O1 0.192884 0.750000 0.250000
O O2 0.250000 0.750000 0.100102
O O3 0.226148 0.656045 0.149355
O O4 0.129652 0.707005 0.124665
O O5 0.630537 0.500000 0.197645
O O6 0.606486 0.603179 0.175789
O O7 0.713089 0.568316 0.147836
O O8 0.672767 0.568519 0.321368
O O9 0.406975 0.857911 0.500000
O O10 0.500000 0.867512 0.389951
O O11 0.422935 0.796184 0.350117
O O12 0.783304 0.907112 0.500000
O O13 0.559808 0.742534 0.500000
O O14 0.500000 0.716935 0.648658
#
# Coordination Sequence:
#
# PCOD9513682 Si02
#       5
#    32  32  32  32  32
#     4  11  21  34  55  83 116 149 185 229 278 340
#     4  11  23  39  59  81 110 149 193 247 303 350
#     4   9  18  34  58  88 119 148 183 233 291 350
#     4  11  23  38  57  83 114 149 192 239 287 342
#     4   9  18  33  53  79 112 148 183 219 269 337
#
# _framework density 20.414393
#
# number of rings (size 3 to 8) (size 9 to 14) (size 15 to 20)
#    0.000    1.800    0.000    8.400    0.000    6.800 
#    0.000    2.000    0.000    1.800    0.000    1.400 
#    0.000    0.000    0.000    0.000    0.000    0.000 
#
# Total GULP energy -222976.187389 kJ/mol
# GULP energy per Si atom -5574.404685 kJ/mol
# Density = 2.036793 g / cm^3
# Si number density = 20.414393 Si / 1000 Ang^3
#
#
#
# Elastic Constant Matrix: (Units=GPa)
#
#
# Indices 1 2 3 4 5 6 
#
# 1 79.7509 2.7131 12.8216 0.0000 0.0000 0.0000
# 2 2.7131 43.3634 -5.5067 0.0000 0.0000 0.0000
# 3 12.8216 -5.5067 109.9573 0.0000 0.0000 0.0000
# 4 0.0000 0.0000 0.0000 -35.8876 0.0000 0.0000
# 5 0.0000 0.0000 0.0000 0.0000 56.0718 0.0000
# 6 0.0000 0.0000 0.0000 0.0000 0.0000 115.4030
#
#
#
# Elastic Compliance Matrix: (Units=1/GPa)
#
#
# Indices 1 2 3 4 5 6 
#
# 1 0.012821 -0.000998 -0.001545 0.000000 0.000000 0.000000
# 2 -0.000998 0.023286 0.001283 0.000000 0.000000 0.000000
# 3 -0.001545 0.001283 0.009339 0.000000 0.000000 0.000000
# 4 0.000000 0.000000 0.000000 -0.027865 0.000000 0.000000
# 5 0.000000 0.000000 0.000000 0.000000 0.017834 0.000000
# 6 0.000000 0.000000 0.000000 0.000000 0.000000 0.008665
#
#
# Mechanical properties :
#
#
# Convention : Reuss Voigt Hill
#
# Bulk Modulus (GPa) = 23.29654 28.12528 25.71091
# Shear Modulus (GPa) = 82.08668 41.98700 62.03684
#
# Velocity S-wave (km/s) = 6.34803 4.54004 5.51858
# Velocity P-wave (km/s) = 8.07258 6.42571 7.29576
#
# Compressibility (1/GPa) = 0.04292484
#
# Stress axis : x y z
#
# Youngs Moduli (GPa) = 77.99456 42.94380 107.07976
#
# Poissons Ratio (x) = 0.04287 0.16544
# Poissons Ratio (y) = 0.07787 -0.13734
# Poissons Ratio (z) = 0.12050 -0.05508
#
# Static dielectric constant tensor:
#      x y z
#    x 1.777730 0.000000 0.000000 
#    y 0.000000 1.703650 0.000000 
#    z 0.000000 0.000000 1.830760 
# 
# From -- ./inp_files/17720.got.cif
#   From: 2010.05.17/outbox.cif.g08.bks.cpg/sg69_9_cif.got.tgz:17720.got - 2010.06.03 19:29:58.
