data_PCOD9513490
_publ_section_title
;
Structure prediction by ZEFSAII (Michael W. Deem and Ramdas Pophale) SiO2 
 PCOD9513490
Probable space group: F M M M
;
_chemical_formula_sum "Si O2"
_cell_formula_units_Z 104
_cell_length_a 14.278745
_cell_length_b 34.041468
_cell_length_c 10.471274
_cell_angle_alpha 90.000000
_cell_angle_beta 90.000000
_cell_angle_gamma 90.000000
_cell_volume 5089.766300
_symmetry_space_group_name_H-M "F M M M"
_symmetry_group_IT_number 69
_symmetry_cell_setting 'orthorhombic'
loop_
_space_group_symop_operation_xyz
x,y,z
-x,-y,z
x,-y,-z
-x,y,-z
-x,-y,-z
x,y,-z
-x,y,z
x,-y,z
x,1/2+y,1/2+z
-x,1/2-y,1/2+z
x,1/2-y,1/2-z
-x,1/2+y,1/2-z
-x,1/2-y,1/2-z
x,1/2+y,1/2-z
-x,1/2+y,1/2+z
x,1/2-y,1/2+z
1/2+x,y,1/2+z
1/2-x,-y,1/2+z
1/2+x,-y,1/2-z
1/2-x,y,1/2-z
1/2-x,-y,1/2-z
1/2+x,y,1/2-z
1/2-x,y,1/2+z
1/2+x,-y,1/2+z
1/2+x,1/2+y,z
1/2-x,1/2-y,z
1/2+x,1/2-y,-z
1/2-x,1/2+y,-z
1/2-x,1/2-y,-z
1/2+x,1/2+y,-z
1/2-x,1/2+y,z
1/2+x,1/2-y,z
loop_
_atom_site_type_symbol
_atom_site_label
_atom_site_fract_x
_atom_site_fract_y
_atom_site_fract_z
Si Si1 0.811245 0.455783 0.000000
Si Si2 0.893279 0.313409 0.150518
Si Si3 0.895496 0.435438 0.500000
Si Si4 0.250000 0.750000 0.250000
Si Si5 0.108683 0.099999 0.280604
O O1 0.839994 0.430475 0.874853
O O2 0.852516 0.500000 0.000000
O O3 0.699358 0.459709 0.000000
O O4 0.820385 0.278803 0.175619
O O5 0.859671 0.355085 0.205826
O O6 0.000000 0.305037 0.198524
O O7 0.899543 0.319344 0.000000
O O8 0.888880 0.411416 0.632122
O O9 0.000000 0.453817 0.500000
O O10 0.000000 0.099404 0.322215
#
# Coordination Sequence:
#
# PCOD9513490 Si02
#       5
#    16  32  16   8  32
#     4  12  25  41  68  99 125 165 223 266 306 382
#     4  10  22  42  64  92 129 168 212 261 317 376
#     4  10  24  42  63  94 130 169 209 260 323 377
#     4  12  24  36  64 100 126 166 210 264 314 376
#     4  10  22  43  68  94 128 170 213 264 321 378
#
# _framework density 20.433157000000001
#
# number of rings (size 3 to 8) (size 9 to 14) (size 15 to 20)
#    0.000    1.538    1.538    2.308    4.308    4.000 
#    2.769    3.077    0.000    0.000    0.000    0.000 
#    0.000    0.000    0.000    0.000    0.000    0.000 
#
# Total GULP energy -145056.839533 kJ/mol
# GULP energy per Si atom -5579.109213 kJ/mol
# Density = 2.038665 g / cm^3
# Si number density = 20.433157 Si / 1000 Ang^3
#
#
#
# Elastic Constant Matrix: (Units=GPa)
#
#
# Indices 1 2 3 4 5 6 
#
# 1 131.3792 64.3744 35.1516 0.0000 0.0000 0.0000
# 2 64.3744 160.4705 62.5396 0.0000 0.0000 0.0000
# 3 35.1516 62.5396 122.5678 0.0000 0.0000 0.0000
# 4 0.0000 0.0000 0.0000 272.0347 0.0000 0.0000
# 5 0.0000 0.0000 0.0000 0.0000 51.8503 0.0000
# 6 0.0000 0.0000 0.0000 0.0000 0.0000 75.5648
#
#
#
# Elastic Compliance Matrix: (Units=1/GPa)
#
#
# Indices 1 2 3 4 5 6 
#
# 1 0.009567 -0.003456 -0.000980 0.000000 0.000000 0.000000
# 2 -0.003456 0.009027 -0.003615 0.000000 0.000000 0.000000
# 3 -0.000980 -0.003615 0.010284 0.000000 0.000000 0.000000
# 4 0.000000 0.000000 0.000000 0.003676 0.000000 0.000000
# 5 0.000000 0.000000 0.000000 0.000000 0.019286 0.000000
# 6 0.000000 0.000000 0.000000 0.000000 0.000000 0.013234
#
#
# Mechanical properties :
#
#
# Convention : Reuss Voigt Hill
#
# Bulk Modulus (GPa) = 78.27070 82.06095 80.16583
# Shear Modulus (GPa) = 58.52385 96.71343 77.61864
#
# Velocity S-wave (km/s) = 5.35759 6.88726 6.17001
# Velocity P-wave (km/s) = 8.75560 10.17318 9.49090
#
# Compressibility (1/GPa) = 0.01277617
#
# Stress axis : x y z
#
# Youngs Moduli (GPa) = 104.52347 110.78128 97.23512
#
# Poissons Ratio (x) = 0.38285 0.09534
# Poissons Ratio (y) = 0.36122 0.35148
# Poissons Ratio (z) = 0.10248 0.40045
#
# Static dielectric constant tensor:
#      x y z
#    x 1.787450 0.000000 0.000000 
#    y 0.000000 1.720800 0.000000 
#    z 0.000000 0.000000 1.686820 
# 
# From -- ./inp_files/7439.got.cif
#   From: 2010.05.17/outbox.cif.g08.bks.cpg/sg69_4_cif.got.tgz:7439.got - 2010.06.03 19:29:58.
