data_PCOD9513362
_publ_section_title
;
Structure prediction by ZEFSAII (Michael W. Deem and Ramdas Pophale) SiO2 
 PCOD9513362
Probable space group: F M M M
;
_chemical_formula_sum "Si O2"
_cell_formula_units_Z 136
_cell_length_a 14.624999
_cell_length_b 23.498627
_cell_length_c 23.498636
_cell_angle_alpha 90.000000
_cell_angle_beta 90.000000
_cell_angle_gamma 90.000000
_cell_volume 8075.715053
_symmetry_space_group_name_H-M "F M M M"
_symmetry_group_IT_number 69
_symmetry_cell_setting 'orthorhombic'
loop_
_space_group_symop_operation_xyz
x,y,z
-x,-y,z
x,-y,-z
-x,y,-z
-x,-y,-z
x,y,-z
-x,y,z
x,-y,z
x,1/2+y,1/2+z
-x,1/2-y,1/2+z
x,1/2-y,1/2-z
-x,1/2+y,1/2-z
-x,1/2-y,1/2-z
x,1/2+y,1/2-z
-x,1/2+y,1/2+z
x,1/2-y,1/2+z
1/2+x,y,1/2+z
1/2-x,-y,1/2+z
1/2+x,-y,1/2-z
1/2-x,y,1/2-z
1/2-x,-y,1/2-z
1/2+x,y,1/2-z
1/2-x,y,1/2+z
1/2+x,-y,1/2+z
1/2+x,1/2+y,z
1/2-x,1/2-y,z
1/2+x,1/2-y,-z
1/2-x,1/2+y,-z
1/2-x,1/2-y,-z
1/2+x,1/2+y,-z
1/2-x,1/2+y,z
1/2+x,1/2-y,z
loop_
_atom_site_type_symbol
_atom_site_label
_atom_site_fract_x
_atom_site_fract_y
_atom_site_fract_z
Si Si1 0.250000 0.250000 0.750000
Si Si2 0.000000 0.338143 0.433342
Si Si3 0.142228 0.564993 0.761245
Si Si4 0.000000 0.066658 0.838143
Si Si5 0.357772 0.238755 0.935007
Si Si6 0.602780 0.821754 0.821754
O O1 0.317700 0.211785 0.788215
O O2 0.000000 0.390978 0.390978
O O3 0.086895 0.296955 0.423101
O O4 0.000000 0.354777 0.500000
O O5 0.120153 0.500000 0.777953
O O6 0.250000 0.568872 0.750000
O O7 0.086895 0.576898 0.703045
O O8 0.114034 0.612170 0.806615
O O9 0.000000 0.000000 0.854777
O O10 0.250000 0.250000 0.931129
O O11 0.385966 0.193385 0.887830
O O12 0.379847 0.222047 0.000000
O O13 0.500000 0.803941 0.803942
#
# Coordination Sequence:
#
# PCOD9513362 Si02
#       6
#     8  16  32  16  32  32
#     4  12  26  36  48  90 120 148 186 228 284 346
#     4  10  22  38  59  83 112 148 190 234 281 335
#     4  10  22  39  57  80 112 151 188 229 282 337
#     4  10  22  38  59  83 112 148 190 234 281 335
#     4  10  22  39  57  80 112 151 188 229 282 337
#     4  12  23  35  59  85 115 150 185 237 282 340
#
# _framework density 16.840613000000001
#
# number of rings (size 3 to 8) (size 9 to 14) (size 15 to 20)
#    0.000    1.412    4.706    0.353    6.588    0.235 
#    0.000    0.000    0.000    0.706    0.000    1.647 
#    0.000    0.000    0.000    0.000    0.000    0.000 
#
# Total GULP energy -189776.055617 kJ/mol
# GULP energy per Si atom -5581.648695 kJ/mol
# Density = 1.680228 g / cm^3
# Si number density = 16.840613 Si / 1000 Ang^3
#
#
#
# Elastic Constant Matrix: (Units=GPa)
#
#
# Indices 1 2 3 4 5 6 
#
# 1 138.9834 44.0482 44.0480 0.0000 0.0000 0.0000
# 2 44.0482 127.5209 104.2917 0.0000 0.0000 0.0000
# 3 44.0480 104.2917 127.5206 0.0000 0.0000 0.0000
# 4 0.0000 0.0000 0.0000 38.0834 0.0000 0.0000
# 5 0.0000 0.0000 0.0000 0.0000 18.9790 0.0000
# 6 0.0000 0.0000 0.0000 0.0000 0.0000 18.9790
#
#
#
# Elastic Compliance Matrix: (Units=1/GPa)
#
#
# Indices 1 2 3 4 5 6 
#
# 1 0.008180 -0.001554 -0.001554 0.000000 0.000000 0.000000
# 2 -0.001554 0.023977 -0.019072 0.000000 0.000000 0.000000
# 3 -0.001554 -0.019072 0.023977 0.000000 0.000000 0.000000
# 4 0.000000 0.000000 0.000000 0.026258 0.000000 0.000000
# 5 0.000000 0.000000 0.000000 0.000000 0.052690 0.000000
# 6 0.000000 0.000000 0.000000 0.000000 0.000000 0.052690
#
#
# Mechanical properties :
#
#
# Convention : Reuss Voigt Hill
#
# Bulk Modulus (GPa) = 84.94823 86.53340 85.74081
# Shear Modulus (GPa) = 21.18116 28.65074 24.91595
#
# Velocity S-wave (km/s) = 3.55031 4.12914 3.85062
# Velocity P-wave (km/s) = 8.20721 8.61559 8.41388
#
# Compressibility (1/GPa) = 0.01177188
#
# Stress axis : x y z
#
# Youngs Moduli (GPa) = 122.24366 41.70659 41.70653
#
# Poissons Ratio (x) = 0.06483 0.06483
# Poissons Ratio (y) = 0.19002 0.79545
# Poissons Ratio (z) = 0.19001 0.79545
#
# Static dielectric constant tensor:
#      x y z
#    x 1.586660 0.000000 0.000000 
#    y 0.000000 1.552680 0.000000 
#    z 0.000000 0.000000 1.552680 
# 
# From -- ./inp_files/29902.got.cif
#   From: 2010.05.17/outbox.cif.g08.bks.cpg/sg69_15_cif.got.tgz:29902.got - 2010.06.03 19:29:58.
