data_PCOD9513364
_publ_section_title
;
Structure prediction by ZEFSAII (Michael W. Deem and Ramdas Pophale) SiO2 
 PCOD9513364
Probable space group: F M M M
;
_chemical_formula_sum "Si O2"
_cell_formula_units_Z 192
_cell_length_a 28.322798
_cell_length_b 14.239655
_cell_length_c 24.180145
_cell_angle_alpha 90.000000
_cell_angle_beta 90.000000
_cell_angle_gamma 90.000000
_cell_volume 9752.018648
_symmetry_space_group_name_H-M "F M M M"
_symmetry_group_IT_number 69
_symmetry_cell_setting 'orthorhombic'
loop_
_space_group_symop_operation_xyz
x,y,z
-x,-y,z
x,-y,-z
-x,y,-z
-x,-y,-z
x,y,-z
-x,y,z
x,-y,z
x,1/2+y,1/2+z
-x,1/2-y,1/2+z
x,1/2-y,1/2-z
-x,1/2+y,1/2-z
-x,1/2-y,1/2-z
x,1/2+y,1/2-z
-x,1/2+y,1/2+z
x,1/2-y,1/2+z
1/2+x,y,1/2+z
1/2-x,-y,1/2+z
1/2+x,-y,1/2-z
1/2-x,y,1/2-z
1/2-x,-y,1/2-z
1/2+x,y,1/2-z
1/2-x,y,1/2+z
1/2+x,-y,1/2+z
1/2+x,1/2+y,z
1/2-x,1/2-y,z
1/2+x,1/2-y,-z
1/2-x,1/2+y,-z
1/2-x,1/2-y,-z
1/2+x,1/2+y,-z
1/2-x,1/2+y,z
1/2+x,1/2-y,z
loop_
_atom_site_type_symbol
_atom_site_label
_atom_site_fract_x
_atom_site_fract_y
_atom_site_fract_z
Si Si1 0.353274 0.000000 0.932697
Si Si2 0.096834 0.109584 0.261002
Si Si3 0.611968 0.795357 0.064900
Si Si4 0.702556 0.190712 0.391935
Si Si5 0.555749 0.774355 0.334548
Si Si6 0.198309 0.388421 0.273877
Si Si7 0.245086 0.000000 0.065516
O O1 0.379567 0.903899 0.917044
O O2 0.299015 0.000000 0.911330
O O3 0.351283 0.000000 0.000000
O O4 0.081329 0.142248 0.199367
O O5 0.069419 0.179517 0.301223
O O6 0.153395 0.125119 0.265864
O O7 0.086970 0.000000 0.269866
O O8 0.661549 0.743099 0.075407
O O9 0.574878 0.743009 0.104021
O O10 0.600000 0.793814 0.000000
O O11 0.750000 0.250000 0.394506
O O12 0.689664 0.172656 0.328242
O O13 0.716347 0.090615 0.416536
O O14 0.500000 0.789115 0.333046
O O15 0.198694 0.500000 0.288023
O O16 0.250000 0.366563 0.250000
O O17 0.249978 0.000000 0.000000
#
# Coordination Sequence:
#
# PCOD9513364 Si02
#       7
#    16  32  32  32  32  32  16
#     4   9  20  38  59  87 123 162 207 251 300 366
#     4  10  22  42  67  94 127 166 207 256 316 380
#     4  11  24  43  65  92 126 166 209 260 319 375
#     4  12  23  36  61  89 125 167 208 249 298 364
#     4  11  25  43  66  94 120 158 215 270 324 380
#     4  10  22  38  59  91 129 166 201 243 302 368
#     4  11  22  36  57  86 123 166 211 248 287 358
#
# _framework density 19.688230999999998
#
# number of rings (size 3 to 8) (size 9 to 14) (size 15 to 20)
#    0.000    1.333    4.167    1.500    3.500    2.667 
#    0.000    0.000    0.000    1.500    0.000    1.167 
#    0.000    0.000    0.000    0.000    0.000    0.000 
#
# Total GULP energy -268354.841576 kJ/mol
# GULP energy per Si atom -5590.725866 kJ/mol
# Density = 1.964342 g / cm^3
# Si number density = 19.688231 Si / 1000 Ang^3
#
#
#
# Elastic Constant Matrix: (Units=GPa)
#
#
# Indices 1 2 3 4 5 6 
#
# 1 96.1328 -5.5462 3.2191 0.0000 0.0000 0.0000
# 2 -5.5462 76.4271 -3.9020 0.0000 0.0000 0.0000
# 3 3.2191 -3.9020 54.4127 0.0000 0.0000 0.0000
# 4 0.0000 0.0000 0.0000 26.4440 0.0000 0.0000
# 5 0.0000 0.0000 0.0000 0.0000 20.3738 0.0000
# 6 0.0000 0.0000 0.0000 0.0000 0.0000 17.0059
#
#
#
# Elastic Compliance Matrix: (Units=1/GPa)
#
#
# Indices 1 2 3 4 5 6 
#
# 1 0.010463 0.000730 -0.000567 0.000000 0.000000 0.000000
# 2 0.000730 0.013183 0.000902 0.000000 0.000000 0.000000
# 3 -0.000567 0.000902 0.018476 0.000000 0.000000 0.000000
# 4 0.000000 0.000000 0.000000 0.037816 0.000000 0.000000
# 5 0.000000 0.000000 0.000000 0.000000 0.049083 0.000000
# 6 0.000000 0.000000 0.000000 0.000000 0.000000 0.058803
#
#
# Mechanical properties :
#
#
# Convention : Reuss Voigt Hill
#
# Bulk Modulus (GPa) = 22.59633 23.83492 23.21563
# Shear Modulus (GPa) = 24.94456 28.31152 26.62804
#
# Velocity S-wave (km/s) = 3.56333 3.79620 3.68160
# Velocity P-wave (km/s) = 5.33214 5.59887 5.46713
#
# Compressibility (1/GPa) = 0.04425498
#
# Stress axis : x y z
#
# Youngs Moduli (GPa) = 95.57133 75.85279 54.12341
#
# Poissons Ratio (x) = -0.05540 0.03067
# Poissons Ratio (y) = -0.06980 -0.04883
# Poissons Ratio (z) = 0.05415 -0.06843
#
# Static dielectric constant tensor:
#      x y z
#    x 1.954330 0.000000 0.000000 
#    y 0.000000 1.669070 0.000000 
#    z 0.000000 0.000000 1.702100 
# 
# From -- ./inp_files/38392.got.cif
#   From: 2010.05.17/outbox.cif.g08.bks.cpg/sg69_20_cif.got.tgz:38392.got - 2010.06.03 19:29:58.
