data_PCOD9513420
_publ_section_title
;
Structure prediction by ZEFSAII (Michael W. Deem and Ramdas Pophale) SiO2 
 PCOD9513420
Probable space group: F M M M
;
_chemical_formula_sum "Si O2"
_cell_formula_units_Z 160
_cell_length_a 15.190284
_cell_length_b 22.706462
_cell_length_c 25.459398
_cell_angle_alpha 90.000000
_cell_angle_beta 90.000000
_cell_angle_gamma 90.000000
_cell_volume 8781.394619
_symmetry_space_group_name_H-M "F M M M"
_symmetry_group_IT_number 69
_symmetry_cell_setting 'orthorhombic'
loop_
_space_group_symop_operation_xyz
x,y,z
-x,-y,z
x,-y,-z
-x,y,-z
-x,-y,-z
x,y,-z
-x,y,z
x,-y,z
x,1/2+y,1/2+z
-x,1/2-y,1/2+z
x,1/2-y,1/2-z
-x,1/2+y,1/2-z
-x,1/2-y,1/2-z
x,1/2+y,1/2-z
-x,1/2+y,1/2+z
x,1/2-y,1/2+z
1/2+x,y,1/2+z
1/2-x,-y,1/2+z
1/2+x,-y,1/2-z
1/2-x,y,1/2-z
1/2-x,-y,1/2-z
1/2+x,y,1/2-z
1/2-x,y,1/2+z
1/2+x,-y,1/2+z
1/2+x,1/2+y,z
1/2-x,1/2-y,z
1/2+x,1/2-y,-z
1/2-x,1/2+y,-z
1/2-x,1/2-y,-z
1/2+x,1/2+y,-z
1/2-x,1/2+y,z
1/2+x,1/2-y,z
loop_
_atom_site_type_symbol
_atom_site_label
_atom_site_fract_x
_atom_site_fract_y
_atom_site_fract_z
Si Si1 0.782307 0.569297 0.356945
Si Si2 0.643932 0.755769 0.635291
Si Si3 0.404689 0.126867 0.841331
Si Si4 0.845745 0.338424 0.728284
Si Si5 0.398254 0.136567 0.562049
O O1 0.791516 0.500000 0.350320
O O2 0.679902 0.588262 0.356183
O O3 0.826976 0.605933 0.309489
O O4 0.831581 0.592671 0.408767
O O5 0.750000 0.750000 0.635426
O O6 0.605751 0.690746 0.631691
O O7 0.618125 0.787494 0.690324
O O8 0.615849 0.800003 0.589449
O O9 0.500000 0.100842 0.853498
O O10 0.398515 0.141748 0.779154
O O11 0.750000 0.319436 0.750000
O O12 0.382713 0.139405 0.500000
O O13 0.500000 0.118729 0.571046
#
# Coordination Sequence:
#
# PCOD9513420 Si02
#       5
#    32  32  32  32  32
#     4  10  22  40  58  78 112 152 192 240 285 326
#     4  11  18  34  58  86 116 151 183 224 281 342
#     4  11  22  34  54  84 118 156 192 224 270 331
#     4   9  18  31  53  79 113 149 192 226 270 323
#     4  10  22  40  63  89 112 137 179 237 298 352
#
# _framework density 18.220341000000001
#
# number of rings (size 3 to 8) (size 9 to 14) (size 15 to 20)
#    0.000    1.800    6.000    1.200    0.000   10.000 
#    0.000    1.000    0.000    0.600    0.000    1.400 
#    0.000    0.000    0.000    0.000    0.000    0.000 
#
# Total GULP energy -223300.117968 kJ/mol
# GULP energy per Si atom -5582.502949 kJ/mol
# Density = 1.817887 g / cm^3
# Si number density = 18.220341 Si / 1000 Ang^3
#
#
#
# Elastic Constant Matrix: (Units=GPa)
#
#
# Indices 1 2 3 4 5 6 
#
# 1 92.8155 4.0123 34.5005 0.0000 0.0000 0.0000
# 2 4.0123 87.1964 22.9474 0.0000 0.0000 0.0000
# 3 34.5005 22.9474 74.9223 0.0000 0.0000 0.0000
# 4 0.0000 0.0000 0.0000 7.0311 0.0000 0.0000
# 5 0.0000 0.0000 0.0000 0.0000 15.0347 0.0000
# 6 0.0000 0.0000 0.0000 0.0000 0.0000 3.1283
#
#
#
# Elastic Compliance Matrix: (Units=1/GPa)
#
#
# Indices 1 2 3 4 5 6 
#
# 1 0.013090 0.001070 -0.006356 0.000000 0.000000 0.000000
# 2 0.001070 0.012561 -0.004340 0.000000 0.000000 0.000000
# 3 -0.006356 -0.004340 0.017603 0.000000 0.000000 0.000000
# 4 0.000000 0.000000 0.000000 0.142226 0.000000 0.000000
# 5 0.000000 0.000000 0.000000 0.000000 0.066513 0.000000
# 6 0.000000 0.000000 0.000000 0.000000 0.000000 0.319659
#
#
# Mechanical properties :
#
#
# Convention : Reuss Voigt Hill
#
# Bulk Modulus (GPa) = 41.66035 41.98386 41.82211
# Shear Modulus (GPa) = 8.34857 17.93709 13.14283
#
# Velocity S-wave (km/s) = 2.14288 3.14101 2.68867
# Velocity P-wave (km/s) = 5.38860 6.02054 5.71331
#
# Compressibility (1/GPa) = 0.02400364
#
# Stress axis : x y z
#
# Youngs Moduli (GPa) = 76.39266 79.60953 56.80801
#
# Poissons Ratio (x) = -0.08520 0.36105
# Poissons Ratio (y) = -0.08176 0.24656
# Poissons Ratio (z) = 0.48553 0.34552
#
# Static dielectric constant tensor:
#      x y z
#    x 1.685440 0.000000 0.000000 
#    y 0.000000 1.609240 0.000000 
#    z 0.000000 0.000000 1.618480 
# 
# From -- ./inp_files/17704.got.cif
#   From: 2010.05.17/outbox.cif.g08.bks.cpg/sg69_9_cif.got.tgz:17704.got - 2010.06.03 19:29:58.
