data_PCOD9513986
_publ_section_title
;
Structure prediction by ZEFSAII (Michael W. Deem and Ramdas Pophale) SiO2 
 PCOD9513986
Probable space group: F M M M
;
_chemical_formula_sum "Si O2"
_cell_formula_units_Z 36
_cell_length_a 30.000000
_cell_length_b 30.000000
_cell_length_c 9.000000
_cell_angle_alpha 90.000000
_cell_angle_beta 90.000000
_cell_angle_gamma 90.000000
_cell_volume 8100.000000
_symmetry_space_group_name_H-M "F M M M"
_symmetry_group_IT_number 69
_symmetry_cell_setting 'orthorhombic'
loop_
_space_group_symop_operation_xyz
x,y,z
-x,-y,z
x,-y,-z
-x,y,-z
-x,-y,-z
x,y,-z
-x,y,z
x,-y,z
x,1/2+y,1/2+z
-x,1/2-y,1/2+z
x,1/2-y,1/2-z
-x,1/2+y,1/2-z
-x,1/2-y,1/2-z
x,1/2+y,1/2-z
-x,1/2+y,1/2+z
x,1/2-y,1/2+z
1/2+x,y,1/2+z
1/2-x,-y,1/2+z
1/2+x,-y,1/2-z
1/2-x,y,1/2-z
1/2-x,-y,1/2-z
1/2+x,y,1/2-z
1/2-x,y,1/2+z
1/2+x,-y,1/2+z
1/2+x,1/2+y,z
1/2-x,1/2-y,z
1/2+x,1/2-y,-z
1/2-x,1/2+y,-z
1/2-x,1/2-y,-z
1/2+x,1/2+y,-z
1/2-x,1/2+y,z
1/2+x,1/2-y,z
loop_
_atom_site_type_symbol
_atom_site_label
_atom_site_fract_x
_atom_site_fract_y
_atom_site_fract_z
Si Si1 0.000000 0.553964 0.332936
Si Si2 0.127405 0.866654 0.176811
Si Si3 0.407657 0.551413 0.676923
Si Si4 0.448785 0.797981 0.678599
Si Si5 0.298148 0.705271 0.823383
O O1 0.044926 0.565341 0.247339
O O2 0.000000 0.500000 0.342123
O O3 0.000000 0.572624 0.500000
O O4 0.127128 0.913253 0.260862
O O5 0.085731 0.835890 0.225569
O O6 0.170737 0.836876 0.203221
O O7 0.122986 0.874639 0.000000
O O8 0.410499 0.553170 0.500000
O O9 0.398786 0.500000 0.720377
O O10 0.445325 0.793699 0.500000
O O11 0.500000 0.809640 0.715620
O O12 0.438864 0.750000 0.750000
O O13 0.317949 0.750000 0.750000
O O14 0.250000 0.699113 0.750000
O O15 0.294067 0.711996 0.000000
#
# Coordination Sequence:
#
# PCOD9513986 Si02
#       5
#    16  32  32  32  32
#     4   9  17  31  51  71  96 135 178 219 263 307
#     4  10  21  34  52  78 104 137 178 217 260 317
#     4  10  21  35  51  75 106 138 177 225 269 311
#     4   9  18  32  48  69 100 135 170 207 247 300
#     4  10  20  35  56  82 110 138 174 218 266 320
#
# _framework density 4.4444439999999998
#
# number of rings (size 3 to 8) (size 9 to 14) (size 15 to 20)
#    0.000    2.333    0.000    3.000    1.556    5.333 
#    0.000    0.000    0.000    0.667    0.000    0.000 
#    0.000    0.000    0.000    0.000    0.000    0.000 
#
# Total GULP energy -200912.474529 kJ/mol
# GULP energy per Si atom -5580.902070 kJ/mol
# Density = 0.443433 g / cm^3
# Si number density = 4.444444 Si / 1000 Ang^3
#
#
#
# Elastic Constant Matrix: (Units=GPa)
#
#
# Indices 1 2 3 4 5 6 
#
# 1 55.8493 53.4087 40.5101 0.0041 -0.0219 -0.0035
# 2 53.4087 113.5296 59.4635 0.0050 0.0221 -0.0040
# 3 40.5101 59.4635 61.1017 0.0273 0.0410 -0.0195
# 4 0.0041 0.0050 0.0273 31.3396 0.0281 -0.0080
# 5 -0.0219 0.0221 0.0410 0.0281 -54.0340 0.0062
# 6 -0.0035 -0.0040 -0.0195 -0.0080 0.0062 14.7726
#
#
#
# Elastic Compliance Matrix: (Units=1/GPa)
#
#
# Indices 1 2 3 4 5 6 
#
# 1 0.039250 -0.009862 -0.016425 0.000011 -0.000032 -0.000015
# 2 -0.009862 0.020444 -0.013358 0.000010 0.000002 -0.000014
# 3 -0.016425 -0.013358 0.040255 -0.000031 0.000032 0.000046
# 4 0.000011 0.000010 -0.000031 0.031909 0.000017 0.000017
# 5 -0.000032 0.000002 0.000032 0.000017 -0.018507 0.000008
# 6 -0.000015 -0.000014 0.000046 0.000017 0.000008 0.067693
#
#
# Mechanical properties :
#
#
# Convention : Reuss Voigt Hill
#
# Bulk Modulus (GPa) = 48.40181 59.69390 54.04786
# Shear Modulus (GPa) = 18.71120 3.55554 11.13337
#
# Velocity S-wave (km/s) = 3.24775 1.41574 2.50522
# Velocity P-wave (km/s) = 6.43032 6.02687 6.23186
#
# Compressibility (1/GPa) = 0.02066038
#
# Stress axis : x y z
#
# Youngs Moduli (GPa) = 25.47771 48.91454 24.84138
#
# Poissons Ratio (x) = 0.48238 0.40803
# Poissons Ratio (y) = 0.25125 0.33182
# Poissons Ratio (z) = 0.41848 0.65338
#
# Static dielectric constant tensor:
#      x y z
#    x 1.609340 0.000000 0.000010 
#    y 0.000000 1.615110 0.000000 
#    z 0.000010 0.000000 1.597080 
# 
# From -- ./inp_files/5588.got.cif
#   From: 2010.05.17/outbox.ucp.g08.bks.cvg/sg69_3_cif.got.tgz:5588.got - 2010.06.11 16:51:34.
