data_PCOD9513347
_publ_section_title
;
Structure prediction by ZEFSAII (Michael W. Deem and Ramdas Pophale) SiO2 
 PCOD9513347
Probable space group: F M M M
;
_chemical_formula_sum "Si O2"
_cell_formula_units_Z 208
_cell_length_a 27.607784
_cell_length_b 22.575956
_cell_length_c 17.132720
_cell_angle_alpha 90.000000
_cell_angle_beta 90.000000
_cell_angle_gamma 90.000000
_cell_volume 10678.346662
_symmetry_space_group_name_H-M "F M M M"
_symmetry_group_IT_number 69
_symmetry_cell_setting 'orthorhombic'
loop_
_space_group_symop_operation_xyz
x,y,z
-x,-y,z
x,-y,-z
-x,y,-z
-x,-y,-z
x,y,-z
-x,y,z
x,-y,z
x,1/2+y,1/2+z
-x,1/2-y,1/2+z
x,1/2-y,1/2-z
-x,1/2+y,1/2-z
-x,1/2-y,1/2-z
x,1/2+y,1/2-z
-x,1/2+y,1/2+z
x,1/2-y,1/2+z
1/2+x,y,1/2+z
1/2-x,-y,1/2+z
1/2+x,-y,1/2-z
1/2-x,y,1/2-z
1/2-x,-y,1/2-z
1/2+x,y,1/2-z
1/2-x,y,1/2+z
1/2+x,-y,1/2+z
1/2+x,1/2+y,z
1/2-x,1/2-y,z
1/2+x,1/2-y,-z
1/2-x,1/2+y,-z
1/2-x,1/2-y,-z
1/2+x,1/2+y,-z
1/2-x,1/2+y,z
1/2+x,1/2-y,z
loop_
_atom_site_type_symbol
_atom_site_label
_atom_site_fract_x
_atom_site_fract_y
_atom_site_fract_z
Si Si1 0.301330 0.878237 0.846329
Si Si2 0.400894 0.932103 0.143187
Si Si3 0.848519 0.255085 0.156136
Si Si4 0.554757 0.308830 0.407858
Si Si5 0.096250 0.930456 0.829866
Si Si6 0.806162 0.629596 0.343826
Si Si7 0.500000 0.427410 0.090398
O O1 0.343666 0.922203 0.873450
O O2 0.318269 0.812501 0.869534
O O3 0.246610 0.889834 0.872709
O O4 0.302476 0.876045 0.751165
O O5 0.430060 0.877899 0.105254
O O6 0.405940 0.922133 0.236563
O O7 0.415243 0.000000 0.124825
O O8 0.849803 0.250000 0.250000
O O9 0.903347 0.267746 0.128965
O O10 0.820390 0.196045 0.131643
O O11 0.554817 0.297803 0.500000
O O12 0.500000 0.299383 0.377679
O O13 0.146345 0.907198 0.864094
O O14 0.048374 0.904290 0.868603
O O15 0.095517 0.000000 0.843471
O O16 0.500000 0.500000 0.096680
O O17 0.500000 0.412486 0.000000
#
# Coordination Sequence:
#
# PCOD9513347 Si02
#       7
#    32  32  32  32  32  32  16
#     4   8  15  27  48  77 108 132 166 218 265 304
#     4   9  18  32  52  79 106 138 179 219 259 309
#     4   9  17  32  52  76  99 133 177 217 258 312
#     4  10  22  38  53  73 105 140 173 218 269 312
#     4   9  18  31  49  77 107 137 178 221 259 306
#     4   9  15  27  49  77 104 136 170 211 263 317
#     4   9  18  34  52  68  98 143 177 215 273 315
#
# _framework density 19.478670999999999
#
# number of rings (size 3 to 8) (size 9 to 14) (size 15 to 20)
#    0.000    3.000    0.000    1.385    1.077    3.385 
#    1.385    4.615    0.000   11.077    0.000    4.308 
#    0.000    0.000    0.000    0.000    0.000    0.000 
#
# Total GULP energy -289635.246322 kJ/mol
# GULP energy per Si atom -5569.908583 kJ/mol
# Density = 1.943434 g / cm^3
# Si number density = 19.478671 Si / 1000 Ang^3
#
#
#
# Elastic Constant Matrix: (Units=GPa)
#
#
# Indices 1 2 3 4 5 6 
#
# 1 154.6249 -10.7525 29.7889 0.0000 0.0000 0.0000
# 2 -10.7525 -8.6254 21.4172 0.0000 0.0000 0.0000
# 3 29.7889 21.4172 -0.0463 0.0000 0.0000 0.0000
# 4 0.0000 0.0000 0.0000 7.4325 0.0000 0.0000
# 5 0.0000 0.0000 0.0000 0.0000 -94.3143 0.0000
# 6 0.0000 0.0000 0.0000 0.0000 0.0000 20.8983
#
#
#
# Elastic Compliance Matrix: (Units=1/GPa)
#
#
# Indices 1 2 3 4 5 6 
#
# 1 0.005958 -0.008287 -0.000346 0.000000 0.000000 0.000000
# 2 -0.008287 0.011629 0.047214 0.000000 0.000000 0.000000
# 3 -0.000346 0.047214 0.018841 0.000000 0.000000 0.000000
# 4 0.000000 0.000000 0.000000 0.134544 0.000000 0.000000
# 5 0.000000 0.000000 0.000000 0.000000 -0.010603 0.000000
# 6 0.000000 0.000000 0.000000 0.000000 0.000000 0.047851
#
#
# Mechanical properties :
#
#
# Convention : Reuss Voigt Hill
#
# Bulk Modulus (GPa) = 8.80375 25.20669 17.00522
# Shear Modulus (GPa) = 29.59961 -6.16339 11.71811
#
# Velocity S-wave (km/s) = 3.90242 -1.78074 2.45539
# Velocity P-wave (km/s) = 4.98344 2.95647 4.09728
#
# Compressibility (1/GPa) = 0.11358801
#
# Stress axis : x y z
#
# Youngs Moduli (GPa) = 167.84938 85.99394 53.07643
#
# Poissons Ratio (x) = 0.71266 0.01839
# Poissons Ratio (y) = 1.39101 -2.50596
# Poissons Ratio (z) = 0.05816 -4.06013
#
# Static dielectric constant tensor:
#      x y z
#    x 1.709320 0.000000 0.000000 
#    y 0.000000 1.690930 0.000000 
#    z 0.000000 0.000000 1.727720 
# 
# From -- ./inp_files/26980.got.cif
#   From: 2010.05.17/outbox.cif.g08.bks.cpg/sg69_14_cif.got.tgz:26980.got - 2010.06.03 19:29:58.
