data_PCOD9513260
_publ_section_title
;
Structure prediction by ZEFSAII (Michael W. Deem and Ramdas Pophale) SiO2 
 PCOD9513260
Probable space group: F M M M
;
_chemical_formula_sum "Si O2"
_cell_formula_units_Z 144
_cell_length_a 20.555780
_cell_length_b 17.019239
_cell_length_c 20.808090
_cell_angle_alpha 90.000000
_cell_angle_beta 90.000000
_cell_angle_gamma 90.000000
_cell_volume 7279.579875
_symmetry_space_group_name_H-M "F M M M"
_symmetry_group_IT_number 69
_symmetry_cell_setting 'orthorhombic'
loop_
_space_group_symop_operation_xyz
x,y,z
-x,-y,z
x,-y,-z
-x,y,-z
-x,-y,-z
x,y,-z
-x,y,z
x,-y,z
x,1/2+y,1/2+z
-x,1/2-y,1/2+z
x,1/2-y,1/2-z
-x,1/2+y,1/2-z
-x,1/2-y,1/2-z
x,1/2+y,1/2-z
-x,1/2+y,1/2+z
x,1/2-y,1/2+z
1/2+x,y,1/2+z
1/2-x,-y,1/2+z
1/2+x,-y,1/2-z
1/2-x,y,1/2-z
1/2-x,-y,1/2-z
1/2+x,y,1/2-z
1/2-x,y,1/2+z
1/2+x,-y,1/2+z
1/2+x,1/2+y,z
1/2-x,1/2-y,z
1/2+x,1/2-y,-z
1/2-x,1/2+y,-z
1/2-x,1/2-y,-z
1/2+x,1/2+y,-z
1/2-x,1/2+y,z
1/2+x,1/2-y,z
loop_
_atom_site_type_symbol
_atom_site_label
_atom_site_fract_x
_atom_site_fract_y
_atom_site_fract_z
Si Si1 0.424001 0.906601 0.500000
Si Si2 0.500000 0.223186 0.322215
Si Si3 0.144316 0.869660 0.574842
Si Si4 0.743035 0.411704 0.827011
Si Si5 0.500000 0.861611 0.926562
Si Si6 0.630454 0.687708 0.882753
O O1 0.500000 0.881672 0.500000
O O2 0.387895 0.870168 0.439804
O O3 0.421952 0.000000 0.500000
O O4 0.500000 0.250000 0.250000
O O5 0.500000 0.294240 0.373273
O O6 0.568255 0.181673 0.335974
O O7 0.165621 0.880899 0.500000
O O8 0.192270 0.903241 0.629044
O O9 0.070223 0.902301 0.580047
O O10 0.139019 0.775921 0.589787
O O11 0.716742 0.500000 0.839246
O O12 0.750000 0.404809 0.750000
O O13 0.694826 0.343605 0.849471
O O14 0.500000 0.828780 0.000000
#
# Coordination Sequence:
#
# PCOD9513260 Si02
#       6
#    16  16  32  32  16  32
#     4  11  22  38  61  96 135 168 199 250 319 394
#     4  10  22  34  60  98 127 155 205 259 308 368
#     4  10  21  39  67  96 120 155 210 265 321 376
#     4  11  27  45  58  82 127 173 210 257 318 383
#     4   8  18  36  63  91 121 150 191 265 328 360
#     4  11  22  39  65  92 126 161 209 260 314 372
#
# _framework density 19.781361
#
# number of rings (size 3 to 8) (size 9 to 14) (size 15 to 20)
#    0.000    1.667    2.222    1.333    9.333    2.222 
#    0.000    0.556    0.000    4.667    0.000    0.000 
#    0.000    0.000    0.000    0.000    0.000    0.000 
#
# Total GULP energy -200830.229015 kJ/mol
# GULP energy per Si atom -5578.617473 kJ/mol
# Density = 1.973634 g / cm^3
# Si number density = 19.781361 Si / 1000 Ang^3
#
#
#
# Elastic Constant Matrix: (Units=GPa)
#
#
# Indices 1 2 3 4 5 6 
#
# 1 100.1326 9.9808 68.0772 0.0000 0.0000 0.0000
# 2 9.9808 59.6113 24.1510 0.0000 0.0000 0.0000
# 3 68.0772 24.1510 140.3526 0.0000 0.0000 0.0000
# 4 0.0000 0.0000 0.0000 470.4927 0.0000 0.0000
# 5 0.0000 0.0000 0.0000 0.0000 -99.5068 0.0000
# 6 0.0000 0.0000 0.0000 0.0000 0.0000 28.3912
#
#
#
# Elastic Compliance Matrix: (Units=1/GPa)
#
#
# Indices 1 2 3 4 5 6 
#
# 1 0.014912 0.000466 -0.007313 0.000000 0.000000 0.000000
# 2 0.000466 0.018047 -0.003332 0.000000 0.000000 0.000000
# 3 -0.007313 -0.003332 0.011246 0.000000 0.000000 0.000000
# 4 0.000000 0.000000 0.000000 0.002125 0.000000 0.000000
# 5 0.000000 0.000000 0.000000 0.000000 -0.010050 0.000000
# 6 0.000000 0.000000 0.000000 0.000000 0.000000 0.035222
#
#
# Mechanical properties :
#
#
# Convention : Reuss Voigt Hill
#
# Bulk Modulus (GPa) = 41.93324 56.05719 48.99521
# Shear Modulus (GPa) = 50.09525 93.06790 71.58158
#
# Velocity S-wave (km/s) = 5.03780 6.86662 6.02204
# Velocity P-wave (km/s) = 7.42184 9.55338 8.55426
#
# Compressibility (1/GPa) = 0.02384743
#
# Stress axis : x y z
#
# Youngs Moduli (GPa) = 67.05795 55.41076 88.92431
#
# Poissons Ratio (x) = -0.02583 0.65034
# Poissons Ratio (y) = -0.03126 0.29625
# Poissons Ratio (z) = 0.49042 0.18460
#
# Static dielectric constant tensor:
#      x y z
#    x 1.715030 0.000000 0.000000 
#    y 0.000000 1.683250 0.000000 
#    z 0.000000 0.000000 1.675220 
# 
# From -- ./inp_files/31711.got.cif
#   From: 2010.05.17/outbox.cif.g08.bks.cpg/sg69_16_cif.got.tgz:31711.got - 2010.06.03 19:29:58.
