data_PCOD9513790
_publ_section_title
;
Structure prediction by ZEFSAII (Michael W. Deem and Ramdas Pophale) SiO2 
 PCOD9513790
Probable space group: F M M M
;
_chemical_formula_sum "Si O2"
_cell_formula_units_Z 104
_cell_length_a 17.219077
_cell_length_b 15.810134
_cell_length_c 19.101532
_cell_angle_alpha 90.000000
_cell_angle_beta 90.000000
_cell_angle_gamma 90.000000
_cell_volume 5200.123037
_symmetry_space_group_name_H-M "F M M M"
_symmetry_group_IT_number 69
_symmetry_cell_setting 'orthorhombic'
loop_
_space_group_symop_operation_xyz
x,y,z
-x,-y,z
x,-y,-z
-x,y,-z
-x,-y,-z
x,y,-z
-x,y,z
x,-y,z
x,1/2+y,1/2+z
-x,1/2-y,1/2+z
x,1/2-y,1/2-z
-x,1/2+y,1/2-z
-x,1/2-y,1/2-z
x,1/2+y,1/2-z
-x,1/2+y,1/2+z
x,1/2-y,1/2+z
1/2+x,y,1/2+z
1/2-x,-y,1/2+z
1/2+x,-y,1/2-z
1/2-x,y,1/2-z
1/2-x,-y,1/2-z
1/2+x,y,1/2-z
1/2-x,y,1/2+z
1/2+x,-y,1/2+z
1/2+x,1/2+y,z
1/2-x,1/2-y,z
1/2+x,1/2-y,-z
1/2-x,1/2+y,-z
1/2-x,1/2-y,-z
1/2+x,1/2+y,-z
1/2-x,1/2+y,z
1/2+x,1/2-y,z
loop_
_atom_site_type_symbol
_atom_site_label
_atom_site_fract_x
_atom_site_fract_y
_atom_site_fract_z
Si Si1 0.672660 0.810796 0.000000
Si Si2 0.000000 0.404062 0.628912
Si Si3 0.500000 0.723891 0.000000
Si Si4 0.715301 0.902951 0.142158
Si Si5 0.861541 0.345004 0.724278
O O1 0.750000 0.750000 0.000000
O O2 0.682894 0.865479 0.070545
O O3 0.584660 0.771783 0.000000
O O4 0.072779 0.386236 0.678083
O O5 0.000000 0.500000 0.602329
O O6 0.000000 0.336212 0.567383
O O7 0.785940 0.848216 0.174209
O O8 0.654123 0.897661 0.205419
O O9 0.740860 0.000000 0.132750
O O10 0.878357 0.250000 0.750000
#
# Coordination Sequence:
#
# PCOD9513790 Si02
#       5
#    16  16   8  32  32
#     4  12  25  44  65  90 128 172 214 266 326 387
#     4  12  24  41  63  92 126 164 208 268 327 383
#     4  12  27  44  65  96 126 166 220 268 323 394
#     4  11  22  40  63  92 124 164 211 261 317 382
#     4  11  22  39  64  93 125 164 210 261 317 384
#
# _framework density 19.999528000000002
#
# number of rings (size 3 to 8) (size 9 to 14) (size 15 to 20)
#    0.000    0.615    0.000   12.231    0.000    1.231 
#    0.000    7.692    0.000    0.000    0.000    0.000 
#    0.000    0.000    0.000    0.000    0.000    0.000 
#
# Total GULP energy -145270.134934 kJ/mol
# GULP energy per Si atom -5587.312882 kJ/mol
# Density = 1.995401 g / cm^3
# Si number density = 19.999528 Si / 1000 Ang^3
#
#
#
# Elastic Constant Matrix: (Units=GPa)
#
#
# Indices 1 2 3 4 5 6 
#
# 1 81.1378 16.2998 54.4067 0.0000 0.0000 0.0000
# 2 16.2998 83.7074 15.3504 0.0000 0.0000 0.0000
# 3 54.4067 15.3504 162.8769 0.0000 0.0000 0.0000
# 4 0.0000 0.0000 0.0000 -202.8609 0.0000 0.0000
# 5 0.0000 0.0000 0.0000 0.0000 9.1637 0.0000
# 6 0.0000 0.0000 0.0000 0.0000 0.0000 13.6582
#
#
#
# Elastic Compliance Matrix: (Units=1/GPa)
#
#
# Indices 1 2 3 4 5 6 
#
# 1 0.016274 -0.002210 -0.005228 0.000000 0.000000 0.000000
# 2 -0.002210 0.012457 -0.000436 0.000000 0.000000 0.000000
# 3 -0.005228 -0.000436 0.007927 0.000000 0.000000 0.000000
# 4 0.000000 0.000000 0.000000 -0.004929 0.000000 0.000000
# 5 0.000000 0.000000 0.000000 0.000000 0.109126 0.000000
# 6 0.000000 0.000000 0.000000 0.000000 0.000000 0.073216
#
#
# Mechanical properties :
#
#
# Convention : Reuss Voigt Hill
#
# Bulk Modulus (GPa) = 47.82345 55.53730 51.68038
# Shear Modulus (GPa) = 21.11589 -19.89680 0.60955
#
# Velocity S-wave (km/s) = 3.25286 -3.15757 0.55267
# Velocity P-wave (km/s) = 6.17028 3.81260 5.12876
#
# Compressibility (1/GPa) = 0.02091024
#
# Stress axis : x y z
#
# Youngs Moduli (GPa) = 61.44668 80.27829 126.15175
#
# Poissons Ratio (x) = 0.17744 0.65951
# Poissons Ratio (y) = 0.13581 0.05496
# Poissons Ratio (z) = 0.32124 0.03498
#
# Static dielectric constant tensor:
#      x y z
#    x 1.824060 0.000000 0.000000 
#    y 0.000000 1.712720 0.000000 
#    z 0.000000 0.000000 1.662830 
# 
# From -- ./inp_files/22283.got.cif
#   From: 2010.05.17/outbox.cif.g08.bks.cpg/sg69_12_cif.got.tgz:22283.got - 2010.06.03 19:29:58.
