data_PCOD9513033
_publ_section_title
;
Structure prediction by ZEFSAII (Michael W. Deem and Ramdas Pophale) SiO2 
 PCOD9513033
Probable space group: F M M M
;
_chemical_formula_sum "Si O2"
_cell_formula_units_Z 144
_cell_length_a 31.436482
_cell_length_b 29.046882
_cell_length_c 8.700389
_cell_angle_alpha 90.000000
_cell_angle_beta 90.000000
_cell_angle_gamma 90.000000
_cell_volume 7944.601722
_symmetry_space_group_name_H-M "F M M M"
_symmetry_group_IT_number 69
_symmetry_cell_setting 'orthorhombic'
loop_
_space_group_symop_operation_xyz
x,y,z
-x,-y,z
x,-y,-z
-x,y,-z
-x,-y,-z
x,y,-z
-x,y,z
x,-y,z
x,1/2+y,1/2+z
-x,1/2-y,1/2+z
x,1/2-y,1/2-z
-x,1/2+y,1/2-z
-x,1/2-y,1/2-z
x,1/2+y,1/2-z
-x,1/2+y,1/2+z
x,1/2-y,1/2+z
1/2+x,y,1/2+z
1/2-x,-y,1/2+z
1/2+x,-y,1/2-z
1/2-x,y,1/2-z
1/2-x,-y,1/2-z
1/2+x,y,1/2-z
1/2-x,y,1/2+z
1/2+x,-y,1/2+z
1/2+x,1/2+y,z
1/2-x,1/2-y,z
1/2+x,1/2-y,-z
1/2-x,1/2+y,-z
1/2-x,1/2-y,-z
1/2+x,1/2+y,-z
1/2-x,1/2+y,z
1/2+x,1/2-y,z
loop_
_atom_site_type_symbol
_atom_site_label
_atom_site_fract_x
_atom_site_fract_y
_atom_site_fract_z
Si Si1 0.000000 0.444216 0.674972
Si Si2 0.127159 0.858904 0.182376
Si Si3 0.409482 0.554036 0.682810
Si Si4 0.451557 0.801749 0.815277
Si Si5 0.296356 0.699381 0.683655
O O1 0.042965 0.432317 0.763670
O O2 0.000000 0.500000 0.666882
O O3 0.000000 0.426422 0.500000
O O4 0.122191 0.911921 0.231273
O O5 0.084891 0.832965 0.242488
O O6 0.167602 0.835448 0.261350
O O7 0.130086 0.854200 0.000000
O O8 0.406074 0.559928 0.500000
O O9 0.403324 0.500000 0.719053
O O10 0.500000 0.817250 0.779177
O O11 0.447112 0.750000 0.750000
O O12 0.446896 0.801157 0.000000
O O13 0.294516 0.701757 0.500000
O O14 0.306833 0.750000 0.750000
O O15 0.250000 0.686972 0.750000
#
# Coordination Sequence:
#
# PCOD9513033 Si02
#       5
#    16  32  32  32  32
#     4   9  17  31  51  75 104 141 186 235 285 335
#     4  12  24  37  57  84 115 151 193 236 285 342
#     4  10  21  37  56  79 110 149 193 242 292 340
#     4  10  21  37  55  77 110 150 191 234 282 337
#     4  11  22  40  64  91 121 150 187 232 287 343
#
# _framework density 18.125516000000001
#
# number of rings (size 3 to 8) (size 9 to 14) (size 15 to 20)
#    0.000    1.444    0.000    7.000    1.556    4.000 
#    0.000    0.000    0.000    0.667    0.000    0.000 
#    0.000    0.000    0.000    0.000    0.000    0.000 
#
# Total GULP energy -201299.036846 kJ/mol
# GULP energy per Si atom -5591.639912 kJ/mol
# Density = 1.808426 g / cm^3
# Si number density = 18.125516 Si / 1000 Ang^3
#
#
#
# Elastic Constant Matrix: (Units=GPa)
#
#
# Indices 1 2 3 4 5 6 
#
# 1 95.6469 67.5298 60.7678 -0.0099 0.0205 0.0054
# 2 67.5298 80.3766 52.1059 -0.0199 0.0014 0.0099
# 3 60.7678 52.1059 150.4775 -0.0511 0.0272 0.0156
# 4 -0.0099 -0.0199 -0.0511 30.6858 0.0132 0.0115
# 5 0.0205 0.0014 0.0272 0.0132 44.7334 -0.0100
# 6 0.0054 0.0099 0.0156 0.0115 -0.0100 12.1656
#
#
#
# Elastic Compliance Matrix: (Units=1/GPa)
#
#
# Indices 1 2 3 4 5 6 
#
# 1 0.027445 -0.020468 -0.003996 -0.000011 -0.000010 0.000010
# 2 -0.020468 0.031307 -0.002575 0.000009 0.000010 -0.000013
# 3 -0.003996 -0.002575 0.009151 0.000012 -0.000004 -0.000008
# 4 -0.000011 0.000009 0.000012 0.032588 -0.000010 -0.000031
# 5 -0.000010 0.000010 -0.000004 -0.000010 0.022355 0.000018
# 6 0.000010 -0.000013 -0.000008 -0.000031 0.000018 0.082199
#
#
# Mechanical properties :
#
#
# Convention : Reuss Voigt Hill
#
# Bulk Modulus (GPa) = 72.33081 76.36756 74.34918
# Shear Modulus (GPa) = 18.95874 27.25679 23.10777
#
# Velocity S-wave (km/s) = 3.23765 3.88207 3.57441
# Velocity P-wave (km/s) = 7.34634 7.89418 7.62518
#
# Compressibility (1/GPa) = 0.01382537
#
# Stress axis : x y z
#
# Youngs Moduli (GPa) = 36.43693 31.94146 109.27999
#
# Poissons Ratio (x) = 0.65377 0.43665
# Poissons Ratio (y) = 0.74579 0.28142
# Poissons Ratio (z) = 0.14559 0.08226
#
# Static dielectric constant tensor:
#      x y z
#    x 1.598570 0.000000 0.000000 
#    y 0.000000 1.636650 -0.000010 
#    z 0.000000 -0.000010 1.605200 
# 
# From -- ./inp_files/5624.got.cif
#   From: 2010.05.17/outbox.cif.g08.bks.cpg/sg69_3_cif.got.tgz:5624.got - 2010.06.03 19:29:58.
