data_PCOD9513119
_publ_section_title
;
Structure prediction by ZEFSAII (Michael W. Deem and Ramdas Pophale) SiO2 
 PCOD9513119
Probable space group: F M M M
;
_chemical_formula_sum "Si O2"
_cell_formula_units_Z 120
_cell_length_a 21.089692
_cell_length_b 19.652009
_cell_length_c 15.096453
_cell_angle_alpha 90.000000
_cell_angle_beta 90.000000
_cell_angle_gamma 90.000000
_cell_volume 6256.797665
_symmetry_space_group_name_H-M "F M M M"
_symmetry_group_IT_number 69
_symmetry_cell_setting 'orthorhombic'
loop_
_space_group_symop_operation_xyz
x,y,z
-x,-y,z
x,-y,-z
-x,y,-z
-x,-y,-z
x,y,-z
-x,y,z
x,-y,z
x,1/2+y,1/2+z
-x,1/2-y,1/2+z
x,1/2-y,1/2-z
-x,1/2+y,1/2-z
-x,1/2-y,1/2-z
x,1/2+y,1/2-z
-x,1/2+y,1/2+z
x,1/2-y,1/2+z
1/2+x,y,1/2+z
1/2-x,-y,1/2+z
1/2+x,-y,1/2-z
1/2-x,y,1/2-z
1/2-x,-y,1/2-z
1/2+x,y,1/2-z
1/2-x,y,1/2+z
1/2+x,-y,1/2+z
1/2+x,1/2+y,z
1/2-x,1/2-y,z
1/2+x,1/2-y,-z
1/2-x,1/2+y,-z
1/2-x,1/2-y,-z
1/2+x,1/2+y,-z
1/2-x,1/2+y,z
1/2+x,1/2-y,z
loop_
_atom_site_type_symbol
_atom_site_label
_atom_site_fract_x
_atom_site_fract_y
_atom_site_fract_z
Si Si1 0.163750 0.500000 0.000000
Si Si2 0.574290 0.867810 0.000000
Si Si3 0.770303 0.000000 0.150317
Si Si4 0.500000 0.419886 0.101121
Si Si5 0.074339 0.249017 0.356733
Si Si6 0.366963 0.616647 0.896527
O O1 0.119985 0.567280 0.000000
O O2 0.211222 0.500000 0.916235
O O3 0.584319 0.820149 0.087410
O O4 0.500000 0.888120 0.000000
O O5 0.750000 0.000000 0.250000
O O6 0.811827 0.931454 0.137141
O O7 0.500000 0.500000 0.091848
O O8 0.434468 0.402052 0.147603
O O9 0.500000 0.391026 0.000000
O O10 0.077802 0.250000 0.250000
O O11 0.128341 0.302237 0.388119
O O12 0.000000 0.268575 0.378504
O O13 0.370744 0.598374 0.000000
#
# Coordination Sequence:
#
# PCOD9513119 Si02
#       6
#     8  16  16  16  32  32
#     4  12  27  50  66  87 128 182 234 266 314 391
#     4  10  23  45  72  96 126 170 218 276 333 388
#     4  12  28  44  63  89 132 181 224 262 310 381
#     4   9  16  26  57  96 126 148 191 256 320 380
#     4  10  21  37  64 103 135 160 203 269 338 392
#     4  11  19  38  64  96 128 163 207 262 324 380
#
# _framework density 19.17914
#
# number of rings (size 3 to 8) (size 9 to 14) (size 15 to 20)
#    0.000    1.467    5.333    0.200    3.733    0.000 
#    0.000    2.667    2.933    0.000    0.000    0.000 
#    0.000    0.000    0.000    0.000    0.000    0.000 
#
# Total GULP energy -167021.970256 kJ/mol
# GULP energy per Si atom -5567.399009 kJ/mol
# Density = 1.913549 g / cm^3
# Si number density = 19.179140 Si / 1000 Ang^3
#
#
#
# Elastic Constant Matrix: (Units=GPa)
#
#
# Indices 1 2 3 4 5 6 
#
# 1 129.7411 92.5008 61.3969 0.0000 0.0000 0.0000
# 2 92.5008 137.5082 51.6912 0.0000 0.0000 0.0000
# 3 61.3969 51.6912 116.9814 0.0000 0.0000 0.0000
# 4 0.0000 0.0000 0.0000 16.3191 0.0000 0.0000
# 5 0.0000 0.0000 0.0000 0.0000 2386.6580 0.0000
# 6 0.0000 0.0000 0.0000 0.0000 0.0000 14.0815
#
#
#
# Elastic Compliance Matrix: (Units=1/GPa)
#
#
# Indices 1 2 3 4 5 6 
#
# 1 0.016598 -0.009462 -0.004530 0.000000 0.000000 0.000000
# 2 -0.009462 0.014115 -0.001271 0.000000 0.000000 0.000000
# 3 -0.004530 -0.001271 0.011488 0.000000 0.000000 0.000000
# 4 0.000000 0.000000 0.000000 0.061278 0.000000 0.000000
# 5 0.000000 0.000000 0.000000 0.000000 0.000419 0.000000
# 6 0.000000 0.000000 0.000000 0.000000 0.000000 0.071015
#
#
# Mechanical properties :
#
#
# Convention : Reuss Voigt Hill
#
# Bulk Modulus (GPa) = 85.66096 88.37871 87.01984
# Shear Modulus (GPa) = 23.88573 495.32117 259.60345
#
# Velocity S-wave (km/s) = 3.53285 16.08792 11.64693
# Velocity P-wave (km/s) = 7.83594 19.78068 15.04456
#
# Compressibility (1/GPa) = 0.01167393
#
# Stress axis : x y z
#
# Youngs Moduli (GPa) = 60.24974 70.84547 87.05074
#
# Poissons Ratio (x) = 0.67035 0.39434
# Poissons Ratio (y) = 0.57009 0.11064
# Poissons Ratio (z) = 0.27293 0.09005
#
# Static dielectric constant tensor:
#      x y z
#    x 1.723060 0.000000 0.000000 
#    y 0.000000 1.743280 0.000000 
#    z 0.000000 0.000000 1.662760 
# 
# From -- ./inp_files/16289.got.cif
#   From: 2010.05.17/outbox.cif.g08.bks.cpg/sg69_9_cif.got.tgz:16289.got - 2010.06.03 19:29:58.
