data_PCOD9513695
_publ_section_title
;
Structure prediction by ZEFSAII (Michael W. Deem and Ramdas Pophale) SiO2 
 PCOD9513695
Probable space group: F M M M
;
_chemical_formula_sum "Si O2"
_cell_formula_units_Z 144
_cell_length_a 23.774832
_cell_length_b 19.743943
_cell_length_c 17.193000
_cell_angle_alpha 90.000000
_cell_angle_beta 90.000000
_cell_angle_gamma 90.000000
_cell_volume 8070.547696
_symmetry_space_group_name_H-M "F M M M"
_symmetry_group_IT_number 69
_symmetry_cell_setting 'orthorhombic'
loop_
_space_group_symop_operation_xyz
x,y,z
-x,-y,z
x,-y,-z
-x,y,-z
-x,-y,-z
x,y,-z
-x,y,z
x,-y,z
x,1/2+y,1/2+z
-x,1/2-y,1/2+z
x,1/2-y,1/2-z
-x,1/2+y,1/2-z
-x,1/2-y,1/2-z
x,1/2+y,1/2-z
-x,1/2+y,1/2+z
x,1/2-y,1/2+z
1/2+x,y,1/2+z
1/2-x,-y,1/2+z
1/2+x,-y,1/2-z
1/2-x,y,1/2-z
1/2-x,-y,1/2-z
1/2+x,y,1/2-z
1/2-x,y,1/2+z
1/2+x,-y,1/2+z
1/2+x,1/2+y,z
1/2-x,1/2-y,z
1/2+x,1/2-y,-z
1/2-x,1/2+y,-z
1/2-x,1/2-y,-z
1/2+x,1/2+y,-z
1/2-x,1/2+y,z
1/2+x,1/2-y,z
loop_
_atom_site_type_symbol
_atom_site_label
_atom_site_fract_x
_atom_site_fract_y
_atom_site_fract_z
Si Si1 0.563666 0.082138 0.500000
Si Si2 0.435214 0.176605 0.209106
Si Si3 0.716418 0.147367 0.406947
Si Si4 0.663545 0.703605 0.591807
Si Si5 0.381046 0.920368 0.337191
O O1 0.500000 0.106371 0.500000
O O2 0.592643 0.102898 0.420090
O O3 0.564142 0.000000 0.500000
O O4 0.500000 0.159902 0.188572
O O5 0.435672 0.250000 0.250000
O O6 0.391590 0.183792 0.138592
O O7 0.409665 0.122379 0.269393
O O8 0.712566 0.131442 0.500000
O O9 0.684531 0.219258 0.394147
O O10 0.781825 0.158380 0.388019
O O11 0.684570 0.094829 0.352006
O O12 0.653889 0.697614 0.500000
O O13 0.391406 0.000000 0.326845
#
# Coordination Sequence:
#
# PCOD9513695 Si02
#       5
#    16  32  32  32  32
#     4   9  18  32  52  79 114 158 188 211 276 358
#     4  11  23  38  55  82 118 152 195 242 280 330
#     4   9  17  34  59  86 114 145 187 232 284 345
#     4   9  19  37  60  82 110 151 192 234 283 335
#     4  11  21  35  57  85 119 152 185 233 290 344
#
# _framework density 17.842655000000001
#
# number of rings (size 3 to 8) (size 9 to 14) (size 15 to 20)
#    0.000    2.111    3.333    2.000    0.000    2.667 
#    0.000    2.222    0.000    2.000    0.000    1.556 
#    0.000    0.000    0.000    0.000    0.000    0.000 
#
# Total GULP energy -200796.274471 kJ/mol
# GULP energy per Si atom -5577.674291 kJ/mol
# Density = 1.780204 g / cm^3
# Si number density = 17.842655 Si / 1000 Ang^3
#
#
#
# Elastic Constant Matrix: (Units=GPa)
#
#
# Indices 1 2 3 4 5 6 
#
# 1 148.4348 34.2769 66.1880 0.0000 0.0000 0.0000
# 2 34.2769 56.1843 27.6586 0.0000 0.0000 0.0000
# 3 66.1880 27.6586 66.2505 0.0000 0.0000 0.0000
# 4 0.0000 0.0000 0.0000 25.5549 0.0000 0.0000
# 5 0.0000 0.0000 0.0000 0.0000 24.9946 0.0000
# 6 0.0000 0.0000 0.0000 0.0000 0.0000 18.9365
#
#
#
# Elastic Compliance Matrix: (Units=1/GPa)
#
#
# Indices 1 2 3 4 5 6 
#
# 1 0.012297 -0.001830 -0.011521 0.000000 0.000000 0.000000
# 2 -0.001830 0.022675 -0.007638 0.000000 0.000000 0.000000
# 3 -0.011521 -0.007638 0.029793 0.000000 0.000000 0.000000
# 4 0.000000 0.000000 0.000000 0.039131 0.000000 0.000000
# 5 0.000000 0.000000 0.000000 0.000000 0.040009 0.000000
# 6 0.000000 0.000000 0.000000 0.000000 0.000000 0.052808
#
#
# Mechanical properties :
#
#
# Convention : Reuss Voigt Hill
#
# Bulk Modulus (GPa) = 43.88571 58.56853 51.22712
# Shear Modulus (GPa) = 20.30138 23.41360 21.85749
#
# Velocity S-wave (km/s) = 3.37679 3.62640 3.50382
# Velocity P-wave (km/s) = 6.31292 7.10145 6.71876
#
# Compressibility (1/GPa) = 0.02278646
#
# Stress axis : x y z
#
# Youngs Moduli (GPa) = 81.32019 44.10087 33.56454
#
# Poissons Ratio (x) = 0.08072 0.38671
# Poissons Ratio (y) = 0.14885 0.25636
# Poissons Ratio (z) = 0.93691 0.33684
#
# Static dielectric constant tensor:
#      x y z
#    x 1.651900 0.000000 0.000000 
#    y 0.000000 1.609600 0.000000 
#    z 0.000000 0.000000 1.596670 
# 
# From -- ./inp_files/22846.got.cif
#   From: 2010.05.17/outbox.cif.g08.bks.cpg/sg69_12_cif.got.tgz:22846.got - 2010.06.03 19:29:58.
