data_PCOD9513955
_publ_section_title
;
Structure prediction by ZEFSAII (Michael W. Deem and Ramdas Pophale) SiO2 
 PCOD9513955
Probable space group: F M M M
;
_chemical_formula_sum "Si O2"
_cell_formula_units_Z 208
_cell_length_a 35.595597
_cell_length_b 18.696816
_cell_length_c 14.557254
_cell_angle_alpha 90.000000
_cell_angle_beta 90.000000
_cell_angle_gamma 90.000000
_cell_volume 9688.206679
_symmetry_space_group_name_H-M "F M M M"
_symmetry_group_IT_number 69
_symmetry_cell_setting 'orthorhombic'
loop_
_space_group_symop_operation_xyz
x,y,z
-x,-y,z
x,-y,-z
-x,y,-z
-x,-y,-z
x,y,-z
-x,y,z
x,-y,z
x,1/2+y,1/2+z
-x,1/2-y,1/2+z
x,1/2-y,1/2-z
-x,1/2+y,1/2-z
-x,1/2-y,1/2-z
x,1/2+y,1/2-z
-x,1/2+y,1/2+z
x,1/2-y,1/2+z
1/2+x,y,1/2+z
1/2-x,-y,1/2+z
1/2+x,-y,1/2-z
1/2-x,y,1/2-z
1/2-x,-y,1/2-z
1/2+x,y,1/2-z
1/2-x,y,1/2+z
1/2+x,-y,1/2+z
1/2+x,1/2+y,z
1/2-x,1/2-y,z
1/2+x,1/2-y,-z
1/2-x,1/2+y,-z
1/2-x,1/2-y,-z
1/2+x,1/2+y,-z
1/2-x,1/2+y,z
1/2+x,1/2-y,z
loop_
_atom_site_type_symbol
_atom_site_label
_atom_site_fract_x
_atom_site_fract_y
_atom_site_fract_z
Si Si1 0.956676 0.000000 0.887432
Si Si2 0.583230 0.354404 0.112534
Si Si3 0.542983 0.707681 0.387565
Si Si4 0.753839 0.830834 0.142062
Si Si5 0.326834 0.351808 0.392400
Si Si6 0.902564 0.920683 0.612593
Si Si7 0.835394 0.810557 0.109644
O O1 0.935690 0.927988 0.857661
O O2 0.000000 0.000000 0.858143
O O3 0.956636 0.000000 0.000000
O O4 0.560117 0.283986 0.140542
O O5 0.626254 0.345277 0.143829
O O6 0.583026 0.355088 0.000000
O O7 0.543093 0.707424 0.500000
O O8 0.500000 0.699272 0.357627
O O9 0.569805 0.642818 0.358045
O O10 0.750000 0.825221 0.250000
O O11 0.750000 0.750000 0.101840
O O12 0.716769 0.873954 0.113911
O O13 0.796546 0.852944 0.124049
O O14 0.334711 0.345348 0.500000
O O15 0.359959 0.402052 0.357220
O O16 0.330607 0.270898 0.353627
O O17 0.903512 0.921379 0.500000
O O18 0.913567 0.000000 0.642955
O O19 0.839543 0.804575 0.000000
#
# Coordination Sequence:
#
# PCOD9513955 Si02
#       7
#    16  32  32  32  32  32  32
#     4   9  16  24  36  58  89 122 150 180 224 271
#     4   9  15  24  38  58  85 118 151 182 217 264
#     4   9  15  23  36  56  85 118 146 176 221 270
#     4   9  17  27  42  67  93 114 143 190 229 263
#     4   9  15  26  43  62  86 117 151 183 219 266
#     4   9  16  25  38  58  84 115 150 186 220 260
#     4   9  15  25  43  64  87 119 154 182 218 267
#
# _framework density 21.469401999999999
#
# number of rings (size 3 to 8) (size 9 to 14) (size 15 to 20)
#    0.000    3.000    1.538    0.923    0.000    4.000 
#    0.000    1.538    1.692    0.462    0.000    0.000 
#    0.000    3.692    0.308    0.000    0.000    0.000 
#
# Total GULP energy -290050.046080 kJ/mol
# GULP energy per Si atom -5577.885502 kJ/mol
# Density = 2.142054 g / cm^3
# Si number density = 21.469402 Si / 1000 Ang^3
#
#
#
# Elastic Constant Matrix: (Units=GPa)
#
#
# Indices 1 2 3 4 5 6 
#
# 1 214.1465 101.9935 -14.8832 0.0000 0.0000 0.0000
# 2 101.9935 145.9052 3.5286 0.0000 0.0000 0.0000
# 3 -14.8832 3.5286 41.0818 0.0000 0.0000 0.0000
# 4 0.0000 0.0000 0.0000 -20.5894 0.0000 0.0000
# 5 0.0000 0.0000 0.0000 0.0000 -30.8474 0.0000
# 6 0.0000 0.0000 0.0000 0.0000 0.0000 16.6342
#
#
#
# Elastic Compliance Matrix: (Units=1/GPa)
#
#
# Indices 1 2 3 4 5 6 
#
# 1 0.007380 -0.005234 0.003123 0.000000 0.000000 0.000000
# 2 -0.005234 0.010581 -0.002805 0.000000 0.000000 0.000000
# 3 0.003123 -0.002805 0.025714 0.000000 0.000000 0.000000
# 4 0.000000 0.000000 0.000000 -0.048569 0.000000 0.000000
# 5 0.000000 0.000000 0.000000 0.000000 -0.032418 0.000000
# 6 0.000000 0.000000 0.000000 0.000000 0.000000 0.060117
#
#
# Mechanical properties :
#
#
# Convention : Reuss Voigt Hill
#
# Bulk Modulus (GPa) = 29.54909 64.71236 47.13073
# Shear Modulus (GPa) = 113.84814 13.73912 63.79363
#
# Velocity S-wave (km/s) = 7.28994 2.53245 5.45695
# Velocity P-wave (km/s) = 9.20059 6.22560 7.85522
#
# Compressibility (1/GPa) = 0.03384198
#
# Stress axis : x y z
#
# Youngs Moduli (GPa) = 135.50644 94.51307 38.88920
#
# Poissons Ratio (x) = 0.49470 -0.12146
# Poissons Ratio (y) = 0.70927 0.10909
# Poissons Ratio (z) = -0.42320 0.26512
#
# Static dielectric constant tensor:
#      x y z
#    x 1.800790 0.000000 0.000000 
#    y 0.000000 1.742260 0.000000 
#    z 0.000000 0.000000 1.830440 
# 
# From -- ./inp_files/34011.got.cif
#   From: 2010.05.17/outbox.cif.g08.bks.cpg/sg69_18_cif.got.tgz:34011.got - 2010.06.03 19:29:58.
