data_PCOD9513655
_publ_section_title
;
Structure prediction by ZEFSAII (Michael W. Deem and Ramdas Pophale) SiO2 
 PCOD9513655
Probable space group: F M M M
;
_chemical_formula_sum "Si O2"
_cell_formula_units_Z 176
_cell_length_a 29.319759
_cell_length_b 18.718446
_cell_length_c 17.397585
_cell_angle_alpha 90.000000
_cell_angle_beta 90.000000
_cell_angle_gamma 90.000000
_cell_volume 9548.148264
_symmetry_space_group_name_H-M "F M M M"
_symmetry_group_IT_number 69
_symmetry_cell_setting 'orthorhombic'
loop_
_space_group_symop_operation_xyz
x,y,z
-x,-y,z
x,-y,-z
-x,y,-z
-x,-y,-z
x,y,-z
-x,y,z
x,-y,z
x,1/2+y,1/2+z
-x,1/2-y,1/2+z
x,1/2-y,1/2-z
-x,1/2+y,1/2-z
-x,1/2-y,1/2-z
x,1/2+y,1/2-z
-x,1/2+y,1/2+z
x,1/2-y,1/2+z
1/2+x,y,1/2+z
1/2-x,-y,1/2+z
1/2+x,-y,1/2-z
1/2-x,y,1/2-z
1/2-x,-y,1/2-z
1/2+x,y,1/2-z
1/2-x,y,1/2+z
1/2+x,-y,1/2+z
1/2+x,1/2+y,z
1/2-x,1/2-y,z
1/2+x,1/2-y,-z
1/2-x,1/2+y,-z
1/2-x,1/2-y,-z
1/2+x,1/2+y,-z
1/2-x,1/2+y,z
1/2+x,1/2-y,z
loop_
_atom_site_type_symbol
_atom_site_label
_atom_site_fract_x
_atom_site_fract_y
_atom_site_fract_z
Si Si1 0.949039 0.334943 0.268700
Si Si2 0.945832 0.916215 0.500000
Si Si3 0.889586 0.173619 0.908932
Si Si4 0.797007 0.415412 0.156685
Si Si5 0.112384 0.841474 0.628202
Si Si6 0.805455 0.585242 0.659148
O O1 0.951781 0.250000 0.250000
O O2 0.932335 0.348513 0.355303
O O3 0.908504 0.358700 0.212122
O O4 0.000000 0.364127 0.254140
O O5 0.923883 0.876942 0.427974
O O6 0.000000 0.908897 0.500000
O O7 0.934295 0.000000 0.500000
O O8 0.883852 0.257362 0.888214
O O9 0.845203 0.129928 0.880880
O O10 0.896586 0.165335 0.000000
O O11 0.800997 0.500000 0.143709
O O12 0.838088 0.374935 0.116810
O O13 0.803646 0.403634 0.248502
O O14 0.745810 0.394264 0.132927
O O15 0.811688 0.500000 0.646301
#
# Coordination Sequence:
#
# PCOD9513655 Si02
#       6
#    32  16  32  32  32  32
#     4   9  19  35  57  83 111 148 192 237 286 346
#     4  11  24  40  60  89 125 159 189 236 299 354
#     4  11  22  37  56  85 120 155 195 241 296 345
#     4   9  18  35  62  86 111 149 192 240 291 348
#     4  11  20  38  59  87 119 149 192 241 292 359
#     4   9  19  37  59  85 112 149 198 239 286 347
#
# _framework density 18.432894000000001
#
# number of rings (size 3 to 8) (size 9 to 14) (size 15 to 20)
#    0.000    2.091    2.727    2.182    0.000    2.182 
#    1.636    2.727    0.000    1.636    0.000    1.273 
#    0.000    0.000    0.000    0.000    0.000    0.000 
#
# Total GULP energy -245319.700077 kJ/mol
# GULP energy per Si atom -5575.447729 kJ/mol
# Density = 1.839094 g / cm^3
# Si number density = 18.432894 Si / 1000 Ang^3
#
#
#
# Elastic Constant Matrix: (Units=GPa)
#
#
# Indices 1 2 3 4 5 6 
#
# 1 115.2075 42.5819 29.1564 0.0000 0.0000 0.0000
# 2 42.5819 48.8397 19.4029 0.0000 0.0000 0.0000
# 3 29.1564 19.4029 84.2580 0.0000 0.0000 0.0000
# 4 0.0000 0.0000 0.0000 20.7598 0.0000 0.0000
# 5 0.0000 0.0000 0.0000 0.0000 27.6813 0.0000
# 6 0.0000 0.0000 0.0000 0.0000 0.0000 31.2759
#
#
#
# Elastic Compliance Matrix: (Units=1/GPa)
#
#
# Indices 1 2 3 4 5 6 
#
# 1 0.013136 -0.010619 -0.002100 0.000000 0.000000 0.000000
# 2 -0.010619 0.031121 -0.003492 0.000000 0.000000 0.000000
# 3 -0.002100 -0.003492 0.013399 0.000000 0.000000 0.000000
# 4 0.000000 0.000000 0.000000 0.048170 0.000000 0.000000
# 5 0.000000 0.000000 0.000000 0.000000 0.036125 0.000000
# 6 0.000000 0.000000 0.000000 0.000000 0.000000 0.031973
#
#
# Mechanical properties :
#
#
# Convention : Reuss Voigt Hill
#
# Bulk Modulus (GPa) = 39.62907 47.84308 43.73607
# Shear Modulus (GPa) = 23.28192 26.42100 24.85146
#
# Velocity S-wave (km/s) = 3.55782 3.79008 3.67578
# Velocity P-wave (km/s) = 6.19864 6.72046 6.46482
#
# Compressibility (1/GPa) = 0.02523400
#
# Stress axis : x y z
#
# Youngs Moduli (GPa) = 76.12455 32.13297 74.63110
#
# Poissons Ratio (x) = 0.34121 0.15675
# Poissons Ratio (y) = 0.80835 0.26061
# Poissons Ratio (z) = 0.15989 0.11221
#
# Static dielectric constant tensor:
#      x y z
#    x 1.626170 0.000000 0.000000 
#    y 0.000000 1.612410 0.000000 
#    z 0.000000 0.000000 1.690360 
# 
# From -- ./inp_files/27661.got.cif
#   From: 2010.05.17/outbox.cif.g08.bks.cpg/sg69_14_cif.got.tgz:27661.got - 2010.06.03 19:29:58.
