data_PCOD9513056
_publ_section_title
;
Structure prediction by ZEFSAII (Michael W. Deem and Ramdas Pophale) SiO2 
 PCOD9513056
Probable space group: F M M M
;
_chemical_formula_sum "Si O2"
_cell_formula_units_Z 160
_cell_length_a 17.304294
_cell_length_b 24.262313
_cell_length_c 19.779228
_cell_angle_alpha 90.000000
_cell_angle_beta 90.000000
_cell_angle_gamma 90.000000
_cell_volume 8304.154544
_symmetry_space_group_name_H-M "F M M M"
_symmetry_group_IT_number 69
_symmetry_cell_setting 'orthorhombic'
loop_
_space_group_symop_operation_xyz
x,y,z
-x,-y,z
x,-y,-z
-x,y,-z
-x,-y,-z
x,y,-z
-x,y,z
x,-y,z
x,1/2+y,1/2+z
-x,1/2-y,1/2+z
x,1/2-y,1/2-z
-x,1/2+y,1/2-z
-x,1/2-y,1/2-z
x,1/2+y,1/2-z
-x,1/2+y,1/2+z
x,1/2-y,1/2+z
1/2+x,y,1/2+z
1/2-x,-y,1/2+z
1/2+x,-y,1/2-z
1/2-x,y,1/2-z
1/2-x,-y,1/2-z
1/2+x,y,1/2-z
1/2-x,y,1/2+z
1/2+x,-y,1/2+z
1/2+x,1/2+y,z
1/2-x,1/2-y,z
1/2+x,1/2-y,-z
1/2-x,1/2+y,-z
1/2-x,1/2-y,-z
1/2+x,1/2+y,-z
1/2-x,1/2+y,z
1/2+x,1/2-y,z
loop_
_atom_site_type_symbol
_atom_site_label
_atom_site_fract_x
_atom_site_fract_y
_atom_site_fract_z
Si Si1 0.588271 0.733119 0.324483
Si Si2 0.414962 0.560283 0.111146
Si Si3 0.750517 0.063176 0.824426
Si Si4 0.694992 0.343356 0.580022
Si Si5 0.624732 0.320762 0.928280
O O1 0.500000 0.712109 0.316922
O O2 0.618419 0.750000 0.250000
O O3 0.639790 0.692674 0.371331
O O4 0.587480 0.789520 0.366694
O O5 0.500000 0.563410 0.143145
O O6 0.411682 0.500000 0.076311
O O7 0.341298 0.560911 0.159061
O O8 0.402423 0.616056 0.070149
O O9 0.750000 0.089288 0.750000
O O10 0.707190 0.098050 0.881915
O O11 0.721357 0.000000 0.821588
O O12 0.672014 0.347040 0.500000
O O13 0.782409 0.319195 0.579518
O O14 0.604598 0.293955 0.000000
#
# Coordination Sequence:
#
# PCOD9513056 Si02
#       5
#    32  32  32  32  32
#     4  11  25  40  57  83 113 151 199 249 302 353
#     4   9  18  32  53  83 117 149 184 231 289 351
#     4   9  19  36  59  87 117 154 197 240 293 352
#     4  10  22  38  60  88 115 153 198 239 293 359
#     4  10  21  37  57  82 115 152 190 232 286 355
#
# _framework density 19.267464
#
# number of rings (size 3 to 8) (size 9 to 14) (size 15 to 20)
#    0.000    2.200    0.000    1.800    5.600    6.000 
#    0.000    5.000    0.000    0.600    0.000    1.400 
#    0.000    0.000    0.000    0.000    0.000    0.000 
#
# Total GULP energy -222674.083204 kJ/mol
# GULP energy per Si atom -5566.852080 kJ/mol
# Density = 1.922361 g / cm^3
# Si number density = 19.267464 Si / 1000 Ang^3
#
#
#
# Elastic Constant Matrix: (Units=GPa)
#
#
# Indices 1 2 3 4 5 6 
#
# 1 78.6512 35.8616 38.1307 0.0000 0.0000 0.0000
# 2 35.8616 87.9070 54.6279 0.0000 0.0000 0.0000
# 3 38.1307 54.6279 165.6615 0.0000 0.0000 0.0000
# 4 0.0000 0.0000 0.0000 -8.9013 0.0000 0.0000
# 5 0.0000 0.0000 0.0000 0.0000 -25.2300 0.0000
# 6 0.0000 0.0000 0.0000 0.0000 0.0000 19.6305
#
#
#
# Elastic Compliance Matrix: (Units=1/GPa)
#
#
# Indices 1 2 3 4 5 6 
#
# 1 0.016099 -0.005364 -0.001937 0.000000 0.000000 0.000000
# 2 -0.005364 0.016095 -0.004073 0.000000 0.000000 0.000000
# 3 -0.001937 -0.004073 0.007825 0.000000 0.000000 0.000000
# 4 0.000000 0.000000 0.000000 -0.112344 0.000000 0.000000
# 5 0.000000 0.000000 0.000000 0.000000 -0.039635 0.000000
# 6 0.000000 0.000000 0.000000 0.000000 0.000000 0.050941
#
#
# Mechanical properties :
#
#
# Convention : Reuss Voigt Hill
#
# Bulk Modulus (GPa) = 57.89690 65.49558 61.69624
# Shear Modulus (GPa) = -153.77747 10.67315 -71.55216
#
# Velocity S-wave (km/s) = -8.94345 2.35616 -6.10056
# Velocity P-wave (km/s) = 8.74830 6.43961 4.18713
#
# Compressibility (1/GPa) = 0.01727208
#
# Stress axis : x y z
#
# Youngs Moduli (GPa) = 62.11534 62.13176 127.79245
#
# Poissons Ratio (x) = 0.33328 0.24750
# Poissons Ratio (y) = 0.33319 0.52046
# Poissons Ratio (z) = 0.12030 0.25304
#
# Static dielectric constant tensor:
#      x y z
#    x 1.674520 0.000000 0.000000 
#    y 0.000000 1.722570 0.000000 
#    z 0.000000 0.000000 1.704660 
# 
# From -- ./inp_files/23137.got.cif
#   From: 2010.05.17/outbox.cif.g08.bks.cpg/sg69_12_cif.got.tgz:23137.got - 2010.06.03 19:29:58.
