data_PCOD9513191
_publ_section_title
;
Structure prediction by ZEFSAII (Michael W. Deem and Ramdas Pophale) SiO2 
 PCOD9513191
Probable space group: F M M M
;
_chemical_formula_sum "Si O2"
_cell_formula_units_Z 152
_cell_length_a 17.243494
_cell_length_b 29.714517
_cell_length_c 15.007797
_cell_angle_alpha 90.000000
_cell_angle_beta 90.000000
_cell_angle_gamma 90.000000
_cell_volume 7689.726477
_symmetry_space_group_name_H-M "F M M M"
_symmetry_group_IT_number 69
_symmetry_cell_setting 'orthorhombic'
loop_
_space_group_symop_operation_xyz
x,y,z
-x,-y,z
x,-y,-z
-x,y,-z
-x,-y,-z
x,y,-z
-x,y,z
x,-y,z
x,1/2+y,1/2+z
-x,1/2-y,1/2+z
x,1/2-y,1/2-z
-x,1/2+y,1/2-z
-x,1/2-y,1/2-z
x,1/2+y,1/2-z
-x,1/2+y,1/2+z
x,1/2-y,1/2+z
1/2+x,y,1/2+z
1/2-x,-y,1/2+z
1/2+x,-y,1/2-z
1/2-x,y,1/2-z
1/2-x,-y,1/2-z
1/2+x,y,1/2-z
1/2-x,y,1/2+z
1/2+x,-y,1/2+z
1/2+x,1/2+y,z
1/2-x,1/2-y,z
1/2+x,1/2-y,-z
1/2-x,1/2+y,-z
1/2-x,1/2-y,-z
1/2+x,1/2+y,-z
1/2-x,1/2+y,z
1/2+x,1/2-y,z
loop_
_atom_site_type_symbol
_atom_site_label
_atom_site_fract_x
_atom_site_fract_y
_atom_site_fract_z
Si Si1 0.232607 0.000000 0.500000
Si Si2 0.500000 0.052619 0.891872
Si Si3 0.591651 0.800089 0.745946
Si Si4 0.265187 0.573099 0.149602
Si Si5 0.908589 0.626333 0.394779
Si Si6 0.374598 0.128530 0.894122
O O1 0.235589 0.961524 0.422737
O O2 0.426489 0.084357 0.868066
O O3 0.500000 0.000000 0.860488
O O4 0.500000 0.049344 0.000000
O O5 0.500000 0.794964 0.729078
O O6 0.625992 0.750000 0.750000
O O7 0.618869 0.831803 0.665205
O O8 0.600657 0.828718 0.836292
O O9 0.250000 0.558364 0.250000
O O10 0.354792 0.584629 0.132617
O O11 0.213367 0.617220 0.131320
O O12 0.899539 0.634668 0.500000
O O13 0.000000 0.617964 0.377323
O O14 0.384223 0.135142 0.000000
#
# Coordination Sequence:
#
# PCOD9513191 Si02
#       6
#     8  16  32  32  32  32
#     4  12  26  44  65  99 130 170 220 274 326 393
#     4   9  20  34  57  88 123 169 206 249 312 390
#     4  10  21  38  64  97 129 168 221 271 324 390
#     4  12  24  42  67  94 129 172 217 270 330 391
#     4  10  21  42  68  90 125 174 220 269 326 385
#     4  11  21  37  63  91 133 168 211 269 332 390
#
# _framework density 19.766632000000001
#
# number of rings (size 3 to 8) (size 9 to 14) (size 15 to 20)
#    0.000    1.368    5.263    0.316    1.474    0.842 
#    0.000    5.263    0.000    2.526    0.000    0.000 
#    0.000    0.000    0.000    0.000    0.000    0.000 
#
# Total GULP energy -211535.067729 kJ/mol
# GULP energy per Si atom -5566.712309 kJ/mol
# Density = 1.972164 g / cm^3
# Si number density = 19.766632 Si / 1000 Ang^3
#
#
#
# Elastic Constant Matrix: (Units=GPa)
#
#
# Indices 1 2 3 4 5 6 
#
# 1 60.7418 12.9633 14.5221 0.0000 0.0000 0.0000
# 2 12.9633 83.6878 27.0348 0.0000 0.0000 0.0000
# 3 14.5221 27.0348 135.3883 0.0000 0.0000 0.0000
# 4 0.0000 0.0000 0.0000 27.2212 0.0000 0.0000
# 5 0.0000 0.0000 0.0000 0.0000 21.1210 0.0000
# 6 0.0000 0.0000 0.0000 0.0000 0.0000 569.7445
#
#
#
# Elastic Compliance Matrix: (Units=1/GPa)
#
#
# Indices 1 2 3 4 5 6 
#
# 1 0.017274 -0.002220 -0.001409 0.000000 0.000000 0.000000
# 2 -0.002220 0.013059 -0.002369 0.000000 0.000000 0.000000
# 3 -0.001409 -0.002369 0.008010 0.000000 0.000000 0.000000
# 4 0.000000 0.000000 0.000000 0.036736 0.000000 0.000000
# 5 0.000000 0.000000 0.000000 0.000000 0.047346 0.000000
# 6 0.000000 0.000000 0.000000 0.000000 0.000000 0.001755
#
#
# Mechanical properties :
#
#
# Convention : Reuss Voigt Hill
#
# Bulk Modulus (GPa) = 37.95875 43.20648 40.58261
# Shear Modulus (GPa) = 34.49216 138.63719 86.56468
#
# Velocity S-wave (km/s) = 4.18181 8.38387 6.62483
# Velocity P-wave (km/s) = 6.52395 10.75289 8.89344
#
# Compressibility (1/GPa) = 0.02634439
#
# Stress axis : x y z
#
# Youngs Moduli (GPa) = 57.89057 76.57820 124.83654
#
# Poissons Ratio (x) = 0.17004 0.17595
# Poissons Ratio (y) = 0.12854 0.29579
# Poissons Ratio (z) = 0.08159 0.18145
#
# Static dielectric constant tensor:
#      x y z
#    x 1.761430 0.000000 0.000000 
#    y 0.000000 1.703850 0.000000 
#    z 0.000000 0.000000 1.679480 
# 
# From -- ./inp_files/16797.got.cif
#   From: 2010.05.17/outbox.cif.g08.bks.cpg/sg69_9_cif.got.tgz:16797.got - 2010.06.03 19:29:58.
