data_PCOD9513107
_publ_section_title
;
Structure prediction by ZEFSAII (Michael W. Deem and Ramdas Pophale) SiO2 
 PCOD9513107
Probable space group: F M M M
;
_chemical_formula_sum "Si O2"
_cell_formula_units_Z 160
_cell_length_a 28.928723
_cell_length_b 18.162236
_cell_length_c 14.619066
_cell_angle_alpha 90.000000
_cell_angle_beta 90.000000
_cell_angle_gamma 90.000000
_cell_volume 7681.007770
_symmetry_space_group_name_H-M "F M M M"
_symmetry_group_IT_number 69
_symmetry_cell_setting 'orthorhombic'
loop_
_space_group_symop_operation_xyz
x,y,z
-x,-y,z
x,-y,-z
-x,y,-z
-x,-y,-z
x,y,-z
-x,y,z
x,-y,z
x,1/2+y,1/2+z
-x,1/2-y,1/2+z
x,1/2-y,1/2-z
-x,1/2+y,1/2-z
-x,1/2-y,1/2-z
x,1/2+y,1/2-z
-x,1/2+y,1/2+z
x,1/2-y,1/2+z
1/2+x,y,1/2+z
1/2-x,-y,1/2+z
1/2+x,-y,1/2-z
1/2-x,y,1/2-z
1/2-x,-y,1/2-z
1/2+x,y,1/2-z
1/2-x,y,1/2+z
1/2+x,-y,1/2+z
1/2+x,1/2+y,z
1/2-x,1/2-y,z
1/2+x,1/2-y,-z
1/2-x,1/2+y,-z
1/2-x,1/2-y,-z
1/2+x,1/2+y,-z
1/2-x,1/2+y,z
1/2+x,1/2-y,z
loop_
_atom_site_type_symbol
_atom_site_label
_atom_site_fract_x
_atom_site_fract_y
_atom_site_fract_z
Si Si1 0.684010 0.646408 0.397073
Si Si2 0.446745 0.500000 0.761713
Si Si3 0.723777 0.915995 0.346740
Si Si4 0.650035 0.301052 0.110223
Si Si5 0.552574 0.859485 0.392126
Si Si6 0.369316 0.500000 0.388657
O O1 0.665504 0.652800 0.500000
O O2 0.738432 0.631229 0.401525
O O3 0.671259 0.724416 0.354281
O O4 0.660036 0.572263 0.361674
O O5 0.500000 0.500000 0.732170
O O6 0.439900 0.570822 0.826592
O O7 0.414612 0.500000 0.673081
O O8 0.750000 0.919093 0.250000
O O9 0.676650 0.870521 0.346846
O O10 0.717895 0.000000 0.379693
O O11 0.595058 0.304694 0.125607
O O12 0.657595 0.307608 0.000000
O O13 0.555401 0.880951 0.500000
O O14 0.500000 0.831583 0.377292
O O15 0.375845 0.500000 0.500000
#
# Coordination Sequence:
#
# PCOD9513107 Si02
#       6
#    32  16  32  32  32  16
#     4  10  21  40  59  80 114 159 201 246 302 357
#     4  10  21  37  61  90 121 156 199 250 301 363
#     4  11  24  37  55  86 120 158 197 245 298 359
#     4  10  22  37  59  89 119 155 201 248 298 361
#     4   9  19  37  61  91 126 159 191 241 309 365
#     4  10  22  40  63  82 111 160 208 254 304 348
#
# _framework density 20.830598999999999
#
# number of rings (size 3 to 8) (size 9 to 14) (size 15 to 20)
#    0.000    2.000    1.000    1.500    4.200    5.800 
#    0.000    1.000    0.000    6.000    0.000    0.000 
#    0.000    0.000    0.000    0.000    0.000    0.000 
#
# Total GULP energy -223210.405000 kJ/mol
# GULP energy per Si atom -5580.260125 kJ/mol
# Density = 2.078319 g / cm^3
# Si number density = 20.830599 Si / 1000 Ang^3
#
#
#
# Elastic Constant Matrix: (Units=GPa)
#
#
# Indices 1 2 3 4 5 6 
#
# 1 138.0852 67.9113 30.6429 0.0000 0.0000 0.0000
# 2 67.9113 126.3189 19.5698 0.0000 0.0000 0.0000
# 3 30.6429 19.5698 65.3907 0.0000 0.0000 0.0000
# 4 0.0000 0.0000 0.0000 5.5351 0.0000 0.0000
# 5 0.0000 0.0000 0.0000 0.0000 32.1220 0.0000
# 6 0.0000 0.0000 0.0000 0.0000 0.0000 16.9774
#
#
#
# Elastic Compliance Matrix: (Units=1/GPa)
#
#
# Indices 1 2 3 4 5 6 
#
# 1 0.010517 -0.005128 -0.003394 0.000000 0.000000 0.000000
# 2 -0.005128 0.010802 -0.000830 0.000000 0.000000 0.000000
# 3 -0.003394 -0.000830 0.017131 0.000000 0.000000 0.000000
# 4 0.000000 0.000000 0.000000 0.180666 0.000000 0.000000
# 5 0.000000 0.000000 0.000000 0.000000 0.031131 0.000000
# 6 0.000000 0.000000 0.000000 0.000000 0.000000 0.058902
#
#
# Mechanical properties :
#
#
# Convention : Reuss Voigt Hill
#
# Bulk Modulus (GPa) = 50.63997 62.89365 56.76681
# Shear Modulus (GPa) = 14.95056 25.03828 19.99442
#
# Velocity S-wave (km/s) = 2.68194 3.47074 3.10152
# Velocity P-wave (km/s) = 5.82697 6.80587 6.33535
#
# Compressibility (1/GPa) = 0.01974725
#
# Stress axis : x y z
#
# Youngs Moduli (GPa) = 95.08199 92.57407 58.37276
#
# Poissons Ratio (x) = 0.47477 0.19810
# Poissons Ratio (y) = 0.48763 0.04842
# Poissons Ratio (z) = 0.32268 0.07679
#
# Static dielectric constant tensor:
#      x y z
#    x 1.732100 0.000000 0.000000 
#    y 0.000000 1.747540 0.000000 
#    z 0.000000 0.000000 1.828770 
# 
# From -- ./inp_files/19588.got.cif
#   From: 2010.05.17/outbox.cif.g08.bks.cpg/sg69_10_cif.got.tgz:19588.got - 2010.06.03 19:29:58.
