data_PCOD9513088
_publ_section_title
;
Structure prediction by ZEFSAII (Michael W. Deem and Ramdas Pophale) SiO2 
 PCOD9513088
Probable space group: F M M M
;
_chemical_formula_sum "Si O2"
_cell_formula_units_Z 160
_cell_length_a 15.942523
_cell_length_b 21.095031
_cell_length_c 23.224318
_cell_angle_alpha 90.000000
_cell_angle_beta 90.000000
_cell_angle_gamma 90.000000
_cell_volume 7810.524331
_symmetry_space_group_name_H-M "F M M M"
_symmetry_group_IT_number 69
_symmetry_cell_setting 'orthorhombic'
loop_
_space_group_symop_operation_xyz
x,y,z
-x,-y,z
x,-y,-z
-x,y,-z
-x,-y,-z
x,y,-z
-x,y,z
x,-y,z
x,1/2+y,1/2+z
-x,1/2-y,1/2+z
x,1/2-y,1/2-z
-x,1/2+y,1/2-z
-x,1/2-y,1/2-z
x,1/2+y,1/2-z
-x,1/2+y,1/2+z
x,1/2-y,1/2+z
1/2+x,y,1/2+z
1/2-x,-y,1/2+z
1/2+x,-y,1/2-z
1/2-x,y,1/2-z
1/2-x,-y,1/2-z
1/2+x,y,1/2-z
1/2-x,y,1/2+z
1/2+x,-y,1/2+z
1/2+x,1/2+y,z
1/2-x,1/2-y,z
1/2+x,1/2-y,-z
1/2-x,1/2+y,-z
1/2-x,1/2-y,-z
1/2+x,1/2+y,-z
1/2-x,1/2+y,z
1/2+x,1/2-y,z
loop_
_atom_site_type_symbol
_atom_site_label
_atom_site_fract_x
_atom_site_fract_y
_atom_site_fract_z
Si Si1 0.595936 0.859469 0.761673
Si Si2 0.347409 0.500000 0.729400
Si Si3 0.814087 0.690434 0.654291
Si Si4 0.093150 0.202588 0.387800
Si Si5 0.603264 0.000000 0.095457
Si Si6 0.282217 0.117920 0.062406
O O1 0.500000 0.842022 0.747832
O O2 0.610076 0.934171 0.752466
O O3 0.660493 0.827336 0.718453
O O4 0.608507 0.836912 0.827777
O O5 0.250000 0.500000 0.750000
O O6 0.366115 0.500000 0.661352
O O7 0.750000 0.750000 0.654954
O O8 0.894460 0.723751 0.625528
O O9 0.780018 0.631842 0.616095
O O10 0.159944 0.180094 0.433947
O O11 0.000000 0.187035 0.406259
O O12 0.650745 0.061190 0.069811
O O13 0.500000 0.000000 0.090936
O O14 0.240690 0.111692 0.000000
#
# Coordination Sequence:
#
# PCOD9513088 Si02
#       6
#    32  16  32  32  16  32
#     4  11  22  39  61  90 125 158 196 244 300 364
#     4  12  24  37  63  93 126 159 190 239 303 361
#     4  10  23  38  59  85 121 161 203 242 294 356
#     4  10  21  37  60  87 120 158 199 247 299 360
#     4  12  23  42  64  88 121 156 199 248 305 364
#     4  11  24  40  59  86 119 158 203 254 301 350
#
# _framework density 20.485181000000001
#
# number of rings (size 3 to 8) (size 9 to 14) (size 15 to 20)
#    0.000    1.200    2.000    4.200    2.800    9.600 
#    0.000    0.000    0.000    1.800    0.000    0.000 
#    0.000    9.600    0.000    0.000    0.000    0.000 
#
# Total GULP energy -223059.860836 kJ/mol
# GULP energy per Si atom -5576.496521 kJ/mol
# Density = 2.043856 g / cm^3
# Si number density = 20.485181 Si / 1000 Ang^3
#
#
#
# Elastic Constant Matrix: (Units=GPa)
#
#
# Indices 1 2 3 4 5 6 
#
# 1 77.0973 19.3144 34.0213 0.0000 0.0000 0.0000
# 2 19.3144 74.6891 8.8142 0.0000 0.0000 0.0000
# 3 34.0213 8.8142 75.2723 0.0000 0.0000 0.0000
# 4 0.0000 0.0000 0.0000 -8.1841 0.0000 0.0000
# 5 0.0000 0.0000 0.0000 0.0000 16.7704 0.0000
# 6 0.0000 0.0000 0.0000 0.0000 0.0000 30.5241
#
#
#
# Elastic Compliance Matrix: (Units=1/GPa)
#
#
# Indices 1 2 3 4 5 6 
#
# 1 0.017085 -0.003556 -0.007306 0.000000 0.000000 0.000000
# 2 -0.003556 0.014317 -0.000069 0.000000 0.000000 0.000000
# 3 -0.007306 -0.000069 0.016595 0.000000 0.000000 0.000000
# 4 0.000000 0.000000 0.000000 -0.122188 0.000000 0.000000
# 5 0.000000 0.000000 0.000000 0.000000 0.059629 0.000000
# 6 0.000000 0.000000 0.000000 0.000000 0.000000 0.032761
#
#
# Mechanical properties :
#
#
# Convention : Reuss Voigt Hill
#
# Bulk Modulus (GPa) = 38.26264 39.03984 38.65124
# Shear Modulus (GPa) = 102.51701 18.81601 60.66651
#
# Velocity S-wave (km/s) = 7.08189 3.03399 5.44785
# Velocity P-wave (km/s) = 9.25146 5.60111 7.64729
#
# Compressibility (1/GPa) = 0.02613515
#
# Stress axis : x y z
#
# Youngs Moduli (GPa) = 58.52963 69.84903 60.25827
#
# Poissons Ratio (x) = 0.24839 0.44023
# Poissons Ratio (y) = 0.20813 0.00417
# Poissons Ratio (z) = 0.42760 0.00483
#
# Static dielectric constant tensor:
#      x y z
#    x 1.802340 0.000000 0.000000 
#    y 0.000000 1.792570 0.000000 
#    z 0.000000 0.000000 1.776910 
# 
# From -- ./inp_files/24629.got.cif
#   From: 2010.05.17/outbox.cif.g08.bks.cpg/sg69_13_cif.got.tgz:24629.got - 2010.06.03 19:29:58.
