data_PCOD9513837
_publ_section_title
;
Structure prediction by ZEFSAII (Michael W. Deem and Ramdas Pophale) SiO2 
 PCOD9513837
Probable space group: F M M M
;
_chemical_formula_sum "Si O2"
_cell_formula_units_Z 136
_cell_length_a 21.113383
_cell_length_b 17.378487
_cell_length_c 21.113377
_cell_angle_alpha 90.000000
_cell_angle_beta 90.000000
_cell_angle_gamma 90.000000
_cell_volume 7746.891828
_symmetry_space_group_name_H-M "F M M M"
_symmetry_group_IT_number 69
_symmetry_cell_setting 'orthorhombic'
loop_
_space_group_symop_operation_xyz
x,y,z
-x,-y,z
x,-y,-z
-x,y,-z
-x,-y,-z
x,y,-z
-x,y,z
x,-y,z
x,1/2+y,1/2+z
-x,1/2-y,1/2+z
x,1/2-y,1/2-z
-x,1/2+y,1/2-z
-x,1/2-y,1/2-z
x,1/2+y,1/2-z
-x,1/2+y,1/2+z
x,1/2-y,1/2+z
1/2+x,y,1/2+z
1/2-x,-y,1/2+z
1/2+x,-y,1/2-z
1/2-x,y,1/2-z
1/2-x,-y,1/2-z
1/2+x,y,1/2-z
1/2-x,y,1/2+z
1/2+x,-y,1/2+z
1/2+x,1/2+y,z
1/2-x,1/2-y,z
1/2+x,1/2-y,-z
1/2-x,1/2+y,-z
1/2-x,1/2-y,-z
1/2+x,1/2+y,-z
1/2-x,1/2+y,z
1/2+x,1/2-y,z
loop_
_atom_site_type_symbol
_atom_site_label
_atom_site_fract_x
_atom_site_fract_y
_atom_site_fract_z
Si Si1 0.743695 0.842095 0.428444
Si Si2 0.697533 0.407996 0.697533
Si Si3 0.428444 0.657905 0.243695
Si Si4 0.500000 0.598201 0.000000
Si Si5 0.891727 0.090196 0.891727
O O1 0.762034 0.865871 0.500000
O O2 0.750000 0.750000 0.424791
O O3 0.783670 0.878259 0.371598
O O4 0.671920 0.869027 0.415728
O O5 0.698243 0.500000 0.698243
O O6 0.750000 0.381610 0.750000
O O7 0.628402 0.378259 0.716330
O O8 0.500000 0.634129 0.262034
O O9 0.424791 0.750000 0.250000
O O10 0.415728 0.630973 0.171920
O O11 0.445011 0.594933 0.945011
O O12 0.878187 0.000000 0.878187
#
# Coordination Sequence:
#
# PCOD9513837 Si02
#       5
#    32  32  32   8  32
#     4  11  24  40  61  88 124 163 206 251 308 365
#     4  11  23  38  61  92 119 158 207 250 301 364
#     4  11  24  40  61  88 124 163 206 251 308 365
#     4  12  25  36  60 100 136 156 185 246 321 384
#     4  12  22  38  64  95 124 159 197 245 316 382
#
# _framework density 17.555427000000002
#
# number of rings (size 3 to 8) (size 9 to 14) (size 15 to 20)
#    0.000    0.706    4.706    3.882    0.000    2.824 
#    0.000    0.000    0.000    0.706    0.000    1.647 
#    0.000    0.000    0.000    0.000    0.000    0.000 
#
# Total GULP energy -189477.515470 kJ/mol
# GULP energy per Si atom -5572.868102 kJ/mol
# Density = 1.751547 g / cm^3
# Si number density = 17.555427 Si / 1000 Ang^3
#
#
#
# Elastic Constant Matrix: (Units=GPa)
#
#
# Indices 1 2 3 4 5 6 
#
# 1 145.5590 56.8125 106.0042 0.0000 0.0000 0.0000
# 2 56.8125 88.7405 56.8125 0.0000 0.0000 0.0000
# 3 106.0042 56.8125 145.5589 0.0000 0.0000 0.0000
# 4 0.0000 0.0000 0.0000 23.8857 0.0000 0.0000
# 5 0.0000 0.0000 0.0000 0.0000 53.3310 0.0000
# 6 0.0000 0.0000 0.0000 0.0000 0.0000 23.8858
#
#
#
# Elastic Compliance Matrix: (Units=1/GPa)
#
#
# Indices 1 2 3 4 5 6 
#
# 1 0.015437 -0.003580 -0.009845 0.000000 0.000000 0.000000
# 2 -0.003580 0.015853 -0.003580 0.000000 0.000000 0.000000
# 3 -0.009845 -0.003580 0.015437 0.000000 0.000000 0.000000
# 4 0.000000 0.000000 0.000000 0.041866 0.000000 0.000000
# 5 0.000000 0.000000 0.000000 0.000000 0.018751 0.000000
# 6 0.000000 0.000000 0.000000 0.000000 0.000000 0.041866
#
#
# Mechanical properties :
#
#
# Convention : Reuss Voigt Hill
#
# Bulk Modulus (GPa) = 78.63717 91.01299 84.82508
# Shear Modulus (GPa) = 26.67260 30.90244 28.78752
#
# Velocity S-wave (km/s) = 3.90210 4.20012 4.05385
# Velocity P-wave (km/s) = 8.07420 8.68776 8.38659
#
# Compressibility (1/GPa) = 0.01271663
#
# Stress axis : x y z
#
# Youngs Moduli (GPa) = 64.78013 63.07971 64.78010
#
# Poissons Ratio (x) = 0.22584 0.63773
# Poissons Ratio (y) = 0.23193 0.23193
# Poissons Ratio (z) = 0.63773 0.22584
#
# Static dielectric constant tensor:
#      x y z
#    x 1.589190 0.000000 0.000000 
#    y 0.000000 1.590620 0.000000 
#    z 0.000000 0.000000 1.589180 
# 
# From -- ./inp_files/24197.got.cif
#   From: 2010.05.17/outbox.cif.g08.bks.cpg/sg69_13_cif.got.tgz:24197.got - 2010.06.03 19:29:58.
