data_PCOD9513309
_publ_section_title
;
Structure prediction by ZEFSAII (Michael W. Deem and Ramdas Pophale) SiO2 
 PCOD9513309
Probable space group: F M M M
;
_chemical_formula_sum "Si O2"
_cell_formula_units_Z 96
_cell_length_a 14.992773
_cell_length_b 27.088353
_cell_length_c 11.420334
_cell_angle_alpha 90.000000
_cell_angle_beta 90.000000
_cell_angle_gamma 90.000000
_cell_volume 4638.134851
_symmetry_space_group_name_H-M "F M M M"
_symmetry_group_IT_number 69
_symmetry_cell_setting 'orthorhombic'
loop_
_space_group_symop_operation_xyz
x,y,z
-x,-y,z
x,-y,-z
-x,y,-z
-x,-y,-z
x,y,-z
-x,y,z
x,-y,z
x,1/2+y,1/2+z
-x,1/2-y,1/2+z
x,1/2-y,1/2-z
-x,1/2+y,1/2-z
-x,1/2-y,1/2-z
x,1/2+y,1/2-z
-x,1/2+y,1/2+z
x,1/2-y,1/2+z
1/2+x,y,1/2+z
1/2-x,-y,1/2+z
1/2+x,-y,1/2-z
1/2-x,y,1/2-z
1/2-x,-y,1/2-z
1/2+x,y,1/2-z
1/2-x,y,1/2+z
1/2+x,-y,1/2+z
1/2+x,1/2+y,z
1/2-x,1/2-y,z
1/2+x,1/2-y,-z
1/2-x,1/2+y,-z
1/2-x,1/2-y,-z
1/2+x,1/2+y,-z
1/2-x,1/2+y,z
1/2+x,1/2-y,z
loop_
_atom_site_type_symbol
_atom_site_label
_atom_site_fract_x
_atom_site_fract_y
_atom_site_fract_z
Si Si1 0.148975 0.884768 0.716893
Si Si2 0.898487 0.057797 0.500000
Si Si3 0.396048 0.723276 0.366790
Si Si4 0.000000 0.941538 0.860181
O O1 0.250000 0.873511 0.750000
O O2 0.151258 0.923865 0.613122
O O3 0.108529 0.834521 0.664418
O O4 0.085276 0.910747 0.812459
O O5 0.000000 0.078177 0.500000
O O6 0.904867 0.000000 0.500000
O O7 0.359399 0.731684 0.500000
O O8 0.500000 0.738632 0.373022
O O9 0.357578 0.750000 0.250000
O O10 0.000000 0.000000 0.820289
O O11 0.000000 0.941989 0.000000
#
# Coordination Sequence:
#
# PCOD9513309 Si02
#       4
#    32  16  32  16
#     4  12  25  43  68 100 134 177 224 277 336 405
#     4  11  22  42  72  96 127 179 235 281 327 391
#     4  10  21  42  70  99 132 174 225 280 338 406
#     4  11  26  45  64  95 140 180 220 279 341 398
#
# _framework density 20.697975
#
# number of rings (size 3 to 8) (size 9 to 14) (size 15 to 20)
#    0.000    1.000    5.000    1.000    2.333    4.667 
#    0.000    1.667    0.000    0.000    0.000    0.000 
#    0.000    0.000    0.000    0.000    0.000    0.000 
#
# Total GULP energy -133870.142326 kJ/mol
# GULP energy per Si atom -5577.922597 kJ/mol
# Density = 2.065087 g / cm^3
# Si number density = 20.697975 Si / 1000 Ang^3
#
#
#
# Elastic Constant Matrix: (Units=GPa)
#
#
# Indices 1 2 3 4 5 6 
#
# 1 71.1406 -6.8296 22.8893 0.0000 0.0000 0.0000
# 2 -6.8296 88.5795 51.6411 0.0000 0.0000 0.0000
# 3 22.8893 51.6411 166.0657 0.0000 0.0000 0.0000
# 4 0.0000 0.0000 0.0000 54.0809 0.0000 0.0000
# 5 0.0000 0.0000 0.0000 0.0000 31.4576 0.0000
# 6 0.0000 0.0000 0.0000 0.0000 0.0000 -7.0094
#
#
#
# Elastic Compliance Matrix: (Units=1/GPa)
#
#
# Indices 1 2 3 4 5 6 
#
# 1 0.015313 0.002945 -0.003026 0.000000 0.000000 0.000000
# 2 0.002945 0.014356 -0.004870 0.000000 0.000000 0.000000
# 3 -0.003026 -0.004870 0.007953 0.000000 0.000000 0.000000
# 4 0.000000 0.000000 0.000000 0.018491 0.000000 0.000000
# 5 0.000000 0.000000 0.000000 0.000000 0.031789 0.000000
# 6 0.000000 0.000000 0.000000 0.000000 0.000000 -0.142666
#
#
# Mechanical properties :
#
#
# Convention : Reuss Voigt Hill
#
# Bulk Modulus (GPa) = 36.07618 51.24306 43.65962
# Shear Modulus (GPa) = -140.36427 32.91148 -53.72640
#
# Velocity S-wave (km/s) = -8.24395 3.99191 -5.10036
# Velocity P-wave (km/s) = 8.55273 6.78663 3.68041
#
# Compressibility (1/GPa) = 0.02771912
#
# Stress axis : x y z
#
# Youngs Moduli (GPa) = 65.30325 69.65941 125.73410
#
# Poissons Ratio (x) = -0.20515 0.38053
# Poissons Ratio (y) = -0.19232 0.61233
# Poissons Ratio (z) = 0.19764 0.33924
#
# Static dielectric constant tensor:
#      x y z
#    x 1.637380 0.000000 0.000000 
#    y 0.000000 1.717040 0.000000 
#    z 0.000000 0.000000 1.767340 
# 
# From -- ./inp_files/7255.got.cif
#   From: 2010.05.17/outbox.cif.g08.bks.cpg/sg69_4_cif.got.tgz:7255.got - 2010.06.03 19:29:58.
