data_PCOD9513939
_publ_section_title
;
Structure prediction by ZEFSAII (Michael W. Deem and Ramdas Pophale) SiO2 
 PCOD9513939
Probable space group: F M M M
;
_chemical_formula_sum "Si O2"
_cell_formula_units_Z 144
_cell_length_a 29.474254
_cell_length_b 7.385619
_cell_length_c 32.698161
_cell_angle_alpha 90.000000
_cell_angle_beta 90.000000
_cell_angle_gamma 90.000000
_cell_volume 7117.919135
_symmetry_space_group_name_H-M "F M M M"
_symmetry_group_IT_number 69
_symmetry_cell_setting 'orthorhombic'
loop_
_space_group_symop_operation_xyz
x,y,z
-x,-y,z
x,-y,-z
-x,y,-z
-x,-y,-z
x,y,-z
-x,y,z
x,-y,z
x,1/2+y,1/2+z
-x,1/2-y,1/2+z
x,1/2-y,1/2-z
-x,1/2+y,1/2-z
-x,1/2-y,1/2-z
x,1/2+y,1/2-z
-x,1/2+y,1/2+z
x,1/2-y,1/2+z
1/2+x,y,1/2+z
1/2-x,-y,1/2+z
1/2+x,-y,1/2-z
1/2-x,y,1/2-z
1/2-x,-y,1/2-z
1/2+x,y,1/2-z
1/2-x,y,1/2+z
1/2+x,-y,1/2+z
1/2+x,1/2+y,z
1/2-x,1/2-y,z
1/2+x,1/2-y,-z
1/2-x,1/2+y,-z
1/2-x,1/2-y,-z
1/2+x,1/2+y,-z
1/2-x,1/2+y,z
1/2+x,1/2-y,z
loop_
_atom_site_type_symbol
_atom_site_label
_atom_site_fract_x
_atom_site_fract_y
_atom_site_fract_z
Si Si1 0.195941 0.215486 0.000000
Si Si2 0.551678 0.783705 0.295906
Si Si3 0.892631 0.721528 0.626248
Si Si4 0.803106 0.283495 0.410629
Si Si5 0.446902 0.220119 0.454631
O O1 0.250000 0.250000 0.000000
O O2 0.182040 0.286635 0.955669
O O3 0.186361 0.000000 0.000000
O O4 0.500000 0.713084 0.298521
O O5 0.568815 0.750000 0.250000
O O6 0.582490 0.715314 0.332847
O O7 0.549077 0.000000 0.300656
O O8 0.893794 0.500000 0.626793
O O9 0.840299 0.778586 0.621737
O O10 0.919119 0.778523 0.585066
O O11 0.806808 0.500000 0.413051
O O12 0.750000 0.250000 0.403010
O O13 0.430641 0.277782 0.500000
O O14 0.500000 0.270170 0.450838
O O15 0.445143 0.000000 0.454746
#
# Coordination Sequence:
#
# PCOD9513939 Si02
#       5
#    16  32  32  32  32
#     4   8  14  24  38  56  79 109 143 177 210 244
#     4   9  17  30  48  69  92 115 141 177 220 264
#     4   9  16  25  41  62  86 116 146 177 216 261
#     4   9  17  28  42  61  86 116 148 182 217 253
#     4   8  13  20  32  55  87 117 142 170 207 255
#
# _framework density 20.230632
#
# number of rings (size 3 to 8) (size 9 to 14) (size 15 to 20)
#    0.000    3.333    0.000    1.333    1.556    2.667 
#    0.000    1.111    0.000    0.667    0.000    4.667 
#    0.000    0.000    0.000   10.667    0.000   10.222 
#
# Total GULP energy -200693.514778 kJ/mol
# GULP energy per Si atom -5574.819855 kJ/mol
# Density = 2.018459 g / cm^3
# Si number density = 20.230632 Si / 1000 Ang^3
#
#
#
# Elastic Constant Matrix: (Units=GPa)
#
#
# Indices 1 2 3 4 5 6 
#
# 1 116.9382 1.6600 112.1995 0.0004 0.0000 0.0028
# 2 1.6600 70.1363 3.8282 0.0006 -0.0004 0.0021
# 3 112.1995 3.8282 186.1753 0.0001 0.0000 -0.0004
# 4 0.0004 0.0006 0.0001 -20.1218 0.0001 -0.0017
# 5 0.0000 -0.0004 0.0000 0.0001 28.8938 0.0001
# 6 0.0028 0.0021 -0.0004 -0.0017 0.0001 1.9662
#
#
#
# Elastic Compliance Matrix: (Units=1/GPa)
#
#
# Indices 1 2 3 4 5 6 
#
# 1 0.020278 0.000187 -0.012224 0.000000 0.000000 -0.000031
# 2 0.000187 0.014276 -0.000406 0.000000 0.000000 -0.000015
# 3 -0.012224 -0.000406 0.012747 0.000000 0.000000 0.000020
# 4 0.000000 0.000000 0.000000 -0.049697 0.000000 -0.000042
# 5 0.000000 0.000000 0.000000 0.000000 0.034610 -0.000001
# 6 -0.000031 -0.000015 0.000020 -0.000042 -0.000001 0.508603
#
#
# Mechanical properties :
#
#
# Convention : Reuss Voigt Hill
#
# Bulk Modulus (GPa) = 44.61644 67.62502 56.12073
# Shear Modulus (GPa) = 8.72335 19.18510 13.95423
#
# Velocity S-wave (km/s) = 2.07878 3.08282 2.62917
# Velocity P-wave (km/s) = 5.27859 6.79495 6.08419
#
# Compressibility (1/GPa) = 0.02241326
#
# Stress axis : x y z
#
# Youngs Moduli (GPa) = 49.31462 70.04906 78.45120
#
# Poissons Ratio (x) = -0.01312 0.95902
# Poissons Ratio (y) = -0.00924 0.03188
# Poissons Ratio (z) = 0.60285 0.02847
#
# Static dielectric constant tensor:
#      x y z
#    x 1.722970 0.000000 0.000000 
#    y 0.000000 1.809400 0.000000 
#    z 0.000000 0.000000 1.710290 
# 
# From -- ./inp_files/10349.got.cif
#   From: 2010.05.17/outbox.cif.g08.bks.cpg/sg69_6_cif.got.tgz:10349.got - 2010.06.03 19:29:58.
