data_PCOD9513467
_publ_section_title
;
Structure prediction by ZEFSAII (Michael W. Deem and Ramdas Pophale) SiO2 
 PCOD9513467
Probable space group: F M M M
;
_chemical_formula_sum "Si O2"
_cell_formula_units_Z 100
_cell_length_a 22.284424
_cell_length_b 9.973207
_cell_length_c 21.849629
_cell_angle_alpha 90.000000
_cell_angle_beta 90.000000
_cell_angle_gamma 90.000000
_cell_volume 4856.018286
_symmetry_space_group_name_H-M "F M M M"
_symmetry_group_IT_number 69
_symmetry_cell_setting 'orthorhombic'
loop_
_space_group_symop_operation_xyz
x,y,z
-x,-y,z
x,-y,-z
-x,y,-z
-x,-y,-z
x,y,-z
-x,y,z
x,-y,z
x,1/2+y,1/2+z
-x,1/2-y,1/2+z
x,1/2-y,1/2-z
-x,1/2+y,1/2-z
-x,1/2-y,1/2-z
x,1/2+y,1/2-z
-x,1/2+y,1/2+z
x,1/2-y,1/2+z
1/2+x,y,1/2+z
1/2-x,-y,1/2+z
1/2+x,-y,1/2-z
1/2-x,y,1/2-z
1/2-x,-y,1/2-z
1/2+x,y,1/2-z
1/2-x,y,1/2+z
1/2+x,-y,1/2+z
1/2+x,1/2+y,z
1/2-x,1/2-y,z
1/2+x,1/2-y,-z
1/2-x,1/2+y,-z
1/2-x,1/2-y,-z
1/2+x,1/2+y,-z
1/2-x,1/2+y,z
1/2+x,1/2-y,z
loop_
_atom_site_type_symbol
_atom_site_label
_atom_site_fract_x
_atom_site_fract_y
_atom_site_fract_z
Si Si1 0.333410 0.000000 0.802998
Si Si2 0.500000 0.000000 0.500000
Si Si3 0.381456 0.253024 0.872529
Si Si4 0.066893 0.221604 0.500000
Si Si5 0.304713 0.000000 0.659927
Si Si6 0.500000 0.348631 0.806953
O O1 0.365415 0.133801 0.826349
O O2 0.329516 0.000000 0.729750
O O3 0.266640 0.000000 0.831775
O O4 0.448620 0.119254 0.500000
O O5 0.330093 0.366214 0.871747
O O6 0.442046 0.323650 0.848688
O O7 0.396284 0.193267 0.938833
O O8 0.000000 0.158116 0.500000
O O9 0.500000 0.500000 0.784114
O O10 0.500000 0.250000 0.750000
#
# Coordination Sequence:
#
# PCOD9513467 Si02
#       6
#    16   4  32  16  16  16
#     4  11  26  44  67  96 138 172 216 277 340 385
#     4   8  16  36  64  86 120 172 220 250 296 400
#     4  12  24  42  68  98 131 174 222 267 330 397
#     4  10  22  41  63  94 132 177 216 263 326 401
#     4  11  23  46  70  96 126 180 226 270 326 394
#     4  12  25  40  65 101 135 166 215 280 338 394
#
# _framework density 20.593001999999998
#
# number of rings (size 3 to 8) (size 9 to 14) (size 15 to 20)
#    0.480    0.320    3.200    4.800    4.480    3.200 
#    0.000    5.600    0.000    0.000    0.000    0.000 
#    0.000    0.000    0.000    0.000    0.000    0.000 
#
# Total GULP energy -139610.393591 kJ/mol
# GULP energy per Si atom -5584.415744 kJ/mol
# Density = 2.054613 g / cm^3
# Si number density = 20.593002 Si / 1000 Ang^3
#
#
#
# Elastic Constant Matrix: (Units=GPa)
#
#
# Indices 1 2 3 4 5 6 
#
# 1 82.2133 15.5693 20.4727 0.0000 0.0000 0.0000
# 2 15.5693 100.0802 -0.9185 0.0000 0.0000 0.0000
# 3 20.4727 -0.9185 92.8200 0.0000 0.0000 0.0000
# 4 0.0000 0.0000 0.0000 -14.1779 0.0000 0.0000
# 5 0.0000 0.0000 0.0000 0.0000 22.8779 0.0000
# 6 0.0000 0.0000 0.0000 0.0000 0.0000 22.9034
#
#
#
# Elastic Compliance Matrix: (Units=1/GPa)
#
#
# Indices 1 2 3 4 5 6 
#
# 1 0.013296 -0.002095 -0.002953 0.000000 0.000000 0.000000
# 2 -0.002095 0.010323 0.000564 0.000000 0.000000 0.000000
# 3 -0.002953 0.000564 0.011431 0.000000 0.000000 0.000000
# 4 0.000000 0.000000 0.000000 -0.070532 0.000000 0.000000
# 5 0.000000 0.000000 0.000000 0.000000 0.043710 0.000000
# 6 0.000000 0.000000 0.000000 0.000000 0.000000 0.043662
#
#
# Mechanical properties :
#
#
# Convention : Reuss Voigt Hill
#
# Bulk Modulus (GPa) = 38.34278 38.37338 38.35808
# Shear Modulus (GPa) = 71.88915 22.32001 47.10458
#
# Velocity S-wave (km/s) = 5.91484 3.29578 4.78787
# Velocity P-wave (km/s) = 8.08126 5.75826 7.01656
#
# Compressibility (1/GPa) = 0.02608053
#
# Stress axis : x y z
#
# Youngs Moduli (GPa) = 75.21201 96.86953 87.48510
#
# Poissons Ratio (x) = 0.20299 0.25837
# Poissons Ratio (y) = 0.15761 -0.04937
# Poissons Ratio (z) = 0.22212 -0.05467
#
# Static dielectric constant tensor:
#      x y z
#    x 1.725790 0.000000 0.000000 
#    y 0.000000 1.696700 0.000000 
#    z 0.000000 0.000000 1.750120 
# 
# From -- ./inp_files/33146.got.cif
#   From: 2010.05.17/outbox.cif.g08.bks.cpg/sg69_17_cif.got.tgz:33146.got - 2010.06.03 19:29:58.
