data_PCOD9513761
_publ_section_title
;
Structure prediction by ZEFSAII (Michael W. Deem and Ramdas Pophale) SiO2 
 PCOD9513761
Probable space group: F M M M
;
_chemical_formula_sum "Si O2"
_cell_formula_units_Z 136
_cell_length_a 15.351311
_cell_length_b 23.009013
_cell_length_c 23.057765
_cell_angle_alpha 90.000000
_cell_angle_beta 90.000000
_cell_angle_gamma 90.000000
_cell_volume 8144.429498
_symmetry_space_group_name_H-M "F M M M"
_symmetry_group_IT_number 69
_symmetry_cell_setting 'orthorhombic'
loop_
_space_group_symop_operation_xyz
x,y,z
-x,-y,z
x,-y,-z
-x,y,-z
-x,-y,-z
x,y,-z
-x,y,z
x,-y,z
x,1/2+y,1/2+z
-x,1/2-y,1/2+z
x,1/2-y,1/2-z
-x,1/2+y,1/2-z
-x,1/2-y,1/2-z
x,1/2+y,1/2-z
-x,1/2+y,1/2+z
x,1/2-y,1/2+z
1/2+x,y,1/2+z
1/2-x,-y,1/2+z
1/2+x,-y,1/2-z
1/2-x,y,1/2-z
1/2-x,-y,1/2-z
1/2+x,y,1/2-z
1/2-x,y,1/2+z
1/2+x,-y,1/2+z
1/2+x,1/2+y,z
1/2-x,1/2-y,z
1/2+x,1/2-y,-z
1/2-x,1/2+y,-z
1/2-x,1/2-y,-z
1/2+x,1/2+y,-z
1/2-x,1/2+y,z
1/2+x,1/2-y,z
loop_
_atom_site_type_symbol
_atom_site_label
_atom_site_fract_x
_atom_site_fract_y
_atom_site_fract_z
Si Si1 0.892671 0.500000 0.628299
Si Si2 0.171009 0.893683 0.792926
Si Si3 0.899580 0.364057 0.500000
Si Si4 0.000000 0.344676 0.242433
Si Si5 0.629386 0.500000 0.000000
Si Si6 0.500000 0.749834 0.846395
Si Si7 0.176159 0.701704 0.608899
O O1 0.862699 0.444146 0.664592
O O2 0.841045 0.500000 0.567260
O O3 0.000000 0.500000 0.619104
O O4 0.250000 0.908676 0.750000
O O5 0.087983 0.879225 0.753125
O O6 0.193941 0.838036 0.833933
O O7 0.907678 0.433880 0.500000
O O8 0.846663 0.340915 0.555653
O O9 0.000000 0.341980 0.500000
O O10 0.000000 0.296119 0.293254
O O11 0.000000 0.312933 0.181385
O O12 0.412943 0.736699 0.880707
O O13 0.250000 0.750000 0.598675
#
# Coordination Sequence:
#
# PCOD9513761 Si02
#       7
#    16  32  16  16   8  16  32
#     4  12  22  39  59  87 116 152 198 246 297 343
#     4  11  22  36  57  84 118 154 195 239 292 351
#     4  12  22  39  59  87 116 152 198 246 297 343
#     4   9  18  33  52  76 112 153 190 227 274 344
#     4  12  25  36  68  88 112 157 198 241 300 364
#     4   9  18  33  52  76 112 153 190 227 274 344
#     4  11  22  36  57  84 118 154 195 239 292 351
#
# _framework density 16.698530000000002
#
# number of rings (size 3 to 8) (size 9 to 14) (size 15 to 20)
#    0.000    1.176    4.706    3.176    0.000    2.353 
#    0.000    0.000    0.000    0.000    0.000    0.000 
#    0.000    1.882    0.000    0.000    0.000    0.000 
#
# Total GULP energy -189325.724297 kJ/mol
# GULP energy per Si atom -5568.403656 kJ/mol
# Density = 1.666052 g / cm^3
# Si number density = 16.698530 Si / 1000 Ang^3
#
#
#
# Elastic Constant Matrix: (Units=GPa)
#
#
# Indices 1 2 3 4 5 6 
#
# 1 95.4420 35.6993 29.3908 0.0000 0.0000 0.0000
# 2 35.6993 88.3621 30.4819 0.0000 0.0000 0.0000
# 3 29.3908 30.4819 77.8992 0.0000 0.0000 0.0000
# 4 0.0000 0.0000 0.0000 37.1331 0.0000 0.0000
# 5 0.0000 0.0000 0.0000 0.0000 53.2136 0.0000
# 6 0.0000 0.0000 0.0000 0.0000 0.0000 23.9084
#
#
#
# Elastic Compliance Matrix: (Units=1/GPa)
#
#
# Indices 1 2 3 4 5 6 
#
# 1 0.013039 -0.004128 -0.003304 0.000000 0.000000 0.000000
# 2 -0.004128 0.014390 -0.004073 0.000000 0.000000 0.000000
# 3 -0.003304 -0.004073 0.015678 0.000000 0.000000 0.000000
# 4 0.000000 0.000000 0.000000 0.026930 0.000000 0.000000
# 5 0.000000 0.000000 0.000000 0.000000 0.018792 0.000000
# 6 0.000000 0.000000 0.000000 0.000000 0.000000 0.041826
#
#
# Mechanical properties :
#
#
# Convention : Reuss Voigt Hill
#
# Bulk Modulus (GPa) = 49.76235 50.31636 50.03935
# Shear Modulus (GPa) = 31.17880 33.92643 32.55262
#
# Velocity S-wave (km/s) = 4.32575 4.51233 4.42003
# Velocity P-wave (km/s) = 7.40369 7.57270 7.48867
#
# Compressibility (1/GPa) = 0.02009551
#
# Stress axis : x y z
#
# Youngs Moduli (GPa) = 76.69195 69.49259 63.78507
#
# Poissons Ratio (x) = 0.28687 0.21076
# Poissons Ratio (y) = 0.31659 0.25982
# Poissons Ratio (z) = 0.25341 0.28306
#
# Static dielectric constant tensor:
#      x y z
#    x 1.542070 0.000000 0.000000 
#    y 0.000000 1.574720 0.000000 
#    z 0.000000 0.000000 1.567750 
# 
# From -- ./inp_files/35733.got.cif
#   From: 2010.05.17/outbox.cif.g08.bks.cpg/sg69_18_cif.got.tgz:35733.got - 2010.06.03 19:29:58.
