data_PCOD9513836
_publ_section_title
;
Structure prediction by ZEFSAII (Michael W. Deem and Ramdas Pophale) SiO2 
 PCOD9513836
Probable space group: F M M M
;
_chemical_formula_sum "Si O2"
_cell_formula_units_Z 136
_cell_length_a 23.280453
_cell_length_b 16.512971
_cell_length_c 17.418751
_cell_angle_alpha 90.000000
_cell_angle_beta 90.000000
_cell_angle_gamma 90.000000
_cell_volume 6696.280784
_symmetry_space_group_name_H-M "F M M M"
_symmetry_group_IT_number 69
_symmetry_cell_setting 'orthorhombic'
loop_
_space_group_symop_operation_xyz
x,y,z
-x,-y,z
x,-y,-z
-x,y,-z
-x,-y,-z
x,y,-z
-x,y,z
x,-y,z
x,1/2+y,1/2+z
-x,1/2-y,1/2+z
x,1/2-y,1/2-z
-x,1/2+y,1/2-z
-x,1/2-y,1/2-z
x,1/2+y,1/2-z
-x,1/2+y,1/2+z
x,1/2-y,1/2+z
1/2+x,y,1/2+z
1/2-x,-y,1/2+z
1/2+x,-y,1/2-z
1/2-x,y,1/2-z
1/2-x,-y,1/2-z
1/2+x,y,1/2-z
1/2-x,y,1/2+z
1/2+x,-y,1/2+z
1/2+x,1/2+y,z
1/2-x,1/2-y,z
1/2+x,1/2-y,-z
1/2-x,1/2+y,-z
1/2-x,1/2-y,-z
1/2+x,1/2+y,-z
1/2-x,1/2+y,z
1/2+x,1/2-y,z
loop_
_atom_site_type_symbol
_atom_site_label
_atom_site_fract_x
_atom_site_fract_y
_atom_site_fract_z
Si Si1 0.673093 0.903568 0.675690
Si Si2 0.000000 0.000000 0.647800
Si Si3 0.203046 0.903528 0.355392
Si Si4 0.082545 0.365342 0.086356
Si Si5 0.936673 0.203770 0.831280
O O1 0.731559 0.874486 0.633847
O O2 0.685874 0.890763 0.766257
O O3 0.615354 0.857086 0.655546
O O4 0.667023 0.000000 0.663881
O O5 0.050309 0.071239 0.641534
O O6 0.151051 0.868555 0.403756
O O7 0.203932 0.000000 0.368269
O O8 0.064160 0.274936 0.106359
O O9 0.066733 0.389683 0.000000
O O10 0.927976 0.250000 0.750000
O O11 0.000000 0.164844 0.829049
#
# Coordination Sequence:
#
# PCOD9513836 Si02
#       5
#    32   8  32  32  32
#     4   9  19  38  60  82 116 158 199 240 300 353
#     4  12  25  40  62  90 128 172 187 228 321 380
#     4   9  18  35  59  86 115 155 198 242 291 359
#     4  12  23  38  61  89 122 158 197 242 305 368
#     4  11  23  38  55  87 123 154 201 253 298 349
#
# _framework density 20.309781999999998
#
# number of rings (size 3 to 8) (size 9 to 14) (size 15 to 20)
#    0.000    1.647    4.706    2.471    0.000    1.412 
#    0.000    2.353    0.000    2.118    0.000    1.647 
#    0.000    0.000    0.000    0.000    0.000    0.000 
#
# Total GULP energy -189317.924211 kJ/mol
# GULP energy per Si atom -5568.174242 kJ/mol
# Density = 2.026356 g / cm^3
# Si number density = 20.309782 Si / 1000 Ang^3
#
#
#
# Elastic Constant Matrix: (Units=GPa)
#
#
# Indices 1 2 3 4 5 6 
#
# 1 230.4571 67.1123 11.5991 0.0000 0.0000 0.0000
# 2 67.1123 58.8591 -1.6210 0.0000 0.0000 0.0000
# 3 11.5991 -1.6210 13.3689 0.0000 0.0000 0.0000
# 4 0.0000 0.0000 0.0000 -3.3065 0.0000 0.0000
# 5 0.0000 0.0000 0.0000 0.0000 -20.8707 0.0000
# 6 0.0000 0.0000 0.0000 0.0000 0.0000 38.3815
#
#
#
# Elastic Compliance Matrix: (Units=1/GPa)
#
#
# Indices 1 2 3 4 5 6 
#
# 1 0.007124 -0.008321 -0.007190 0.000000 0.000000 0.000000
# 2 -0.008321 0.026766 0.010465 0.000000 0.000000 0.000000
# 3 -0.007190 0.010465 0.082308 0.000000 0.000000 0.000000
# 4 0.000000 0.000000 0.000000 -0.302438 0.000000 0.000000
# 5 0.000000 0.000000 0.000000 0.000000 -0.047914 0.000000
# 6 0.000000 0.000000 0.000000 0.000000 0.000000 0.026054
#
#
# Mechanical properties :
#
#
# Convention : Reuss Voigt Hill
#
# Bulk Modulus (GPa) = 9.42460 50.76288 30.09374
# Shear Modulus (GPa) = -30.74300 17.88051 -6.43124
#
# Velocity S-wave (km/s) = -3.89486 2.97035 -1.78142
# Velocity P-wave (km/s) = 3.94665 6.06734 3.25857
#
# Compressibility (1/GPa) = 0.10610528
#
# Stress axis : x y z
#
# Youngs Moduli (GPa) = 140.36279 37.36063 12.14955
#
# Poissons Ratio (x) = 0.31089 0.08736
# Poissons Ratio (y) = 1.16801 -0.12715
# Poissons Ratio (z) = 1.00924 -0.39099
#
# Static dielectric constant tensor:
#      x y z
#    x 1.767240 0.000000 0.000000 
#    y 0.000000 1.699090 0.000000 
#    z 0.000000 0.000000 1.748660 
# 
# From -- ./inp_files/16539.got.cif
#   From: 2010.05.17/outbox.cif.g08.bks.cpg/sg69_9_cif.got.tgz:16539.got - 2010.06.03 19:29:58.
