data_PCOD9513734
_publ_section_title
;
Structure prediction by ZEFSAII (Michael W. Deem and Ramdas Pophale) SiO2 
 PCOD9513734
Probable space group: F M M M
;
_chemical_formula_sum "Si O2"
_cell_formula_units_Z 144
_cell_length_a 20.216713
_cell_length_b 14.336282
_cell_length_c 29.470530
_cell_angle_alpha 90.000000
_cell_angle_beta 90.000000
_cell_angle_gamma 90.000000
_cell_volume 8541.517347
_symmetry_space_group_name_H-M "F M M M"
_symmetry_group_IT_number 69
_symmetry_cell_setting 'orthorhombic'
loop_
_space_group_symop_operation_xyz
x,y,z
-x,-y,z
x,-y,-z
-x,y,-z
-x,-y,-z
x,y,-z
-x,y,z
x,-y,z
x,1/2+y,1/2+z
-x,1/2-y,1/2+z
x,1/2-y,1/2-z
-x,1/2+y,1/2-z
-x,1/2-y,1/2-z
x,1/2+y,1/2-z
-x,1/2+y,1/2+z
x,1/2-y,1/2+z
1/2+x,y,1/2+z
1/2-x,-y,1/2+z
1/2+x,-y,1/2-z
1/2-x,y,1/2-z
1/2-x,-y,1/2-z
1/2+x,y,1/2-z
1/2-x,y,1/2+z
1/2+x,-y,1/2+z
1/2+x,1/2+y,z
1/2-x,1/2-y,z
1/2+x,1/2-y,-z
1/2-x,1/2+y,-z
1/2-x,1/2-y,-z
1/2+x,1/2+y,-z
1/2-x,1/2+y,z
1/2+x,1/2-y,z
loop_
_atom_site_type_symbol
_atom_site_label
_atom_site_fract_x
_atom_site_fract_y
_atom_site_fract_z
Si Si1 0.852836 0.886450 0.553389
Si Si2 0.852706 0.000000 0.212697
Si Si3 0.183800 0.803519 0.357825
Si Si4 0.078733 0.301489 0.298481
Si Si5 0.794646 0.000000 0.686102
Si Si6 0.000000 0.895447 0.445196
O O1 0.840878 0.869421 0.500000
O O2 0.811585 0.825949 0.588616
O O3 0.928416 0.856430 0.565629
O O4 0.847227 0.000000 0.559501
O O5 0.895541 0.907417 0.205303
O O6 0.822846 0.000000 0.263234
O O7 0.785316 0.000000 0.183307
O O8 0.250000 0.750000 0.342610
O O9 0.121457 0.747328 0.338040
O O10 0.180368 0.906086 0.336609
O O11 0.091913 0.250000 0.250000
O O12 0.000000 0.297177 0.306711
O O13 0.000000 0.902442 0.500000
O O14 0.000000 0.000000 0.426028
#
# Coordination Sequence:
#
# PCOD9513734 Si02
#       6
#    32  16  32  32  16  16
#     4   9  18  33  54  80 112 147 183 232 288 339
#     4  11  21  40  62  76 117 154 192 237 277 339
#     4  12  23  37  57  84 116 146 196 239 282 348
#     4  11  24  39  57  86 117 150 190 236 285 335
#     4  11  22  36  59  86 107 152 195 235 287 330
#     4   7  12  26  48  74 101 133 171 215 277 338
#
# _framework density 16.858830999999999
#
# number of rings (size 3 to 8) (size 9 to 14) (size 15 to 20)
#    0.000    1.667    5.556    1.667    1.556    0.889 
#    0.000    0.556    0.000    0.000    0.000    0.000 
#    0.000    1.778    0.000    0.000    0.000    0.000 
#
# Total GULP energy -200476.242276 kJ/mol
# GULP energy per Si atom -5568.784508 kJ/mol
# Density = 1.682046 g / cm^3
# Si number density = 16.858831 Si / 1000 Ang^3
#
#
#
# Elastic Constant Matrix: (Units=GPa)
#
#
# Indices 1 2 3 4 5 6 
#
# 1 77.0699 43.9735 24.0213 0.0000 0.0000 0.0000
# 2 43.9735 121.7588 39.9001 0.0000 0.0000 0.0000
# 3 24.0213 39.9001 72.0233 0.0000 0.0000 0.0000
# 4 0.0000 0.0000 0.0000 38.1969 0.0000 0.0000
# 5 0.0000 0.0000 0.0000 0.0000 22.2344 0.0000
# 6 0.0000 0.0000 0.0000 0.0000 0.0000 11.1323
#
#
#
# Elastic Compliance Matrix: (Units=1/GPa)
#
#
# Indices 1 2 3 4 5 6 
#
# 1 0.016772 -0.005161 -0.002735 0.000000 0.000000 0.000000
# 2 -0.005161 0.011623 -0.004718 0.000000 0.000000 0.000000
# 3 -0.002735 -0.004718 0.017410 0.000000 0.000000 0.000000
# 4 0.000000 0.000000 0.000000 0.026180 0.000000 0.000000
# 5 0.000000 0.000000 0.000000 0.000000 0.044975 0.000000
# 6 0.000000 0.000000 0.000000 0.000000 0.000000 0.089828
#
#
# Mechanical properties :
#
#
# Convention : Reuss Voigt Hill
#
# Bulk Modulus (GPa) = 48.59497 54.07131 51.33314
# Shear Modulus (GPa) = 20.93139 25.17653 23.05396
#
# Velocity S-wave (km/s) = 3.52741 3.86861 3.70194
# Velocity P-wave (km/s) = 6.74369 7.21786 6.98480
#
# Compressibility (1/GPa) = 0.02057826
#
# Stress axis : x y z
#
# Youngs Moduli (GPa) = 59.62167 86.03707 57.43841
#
# Poissons Ratio (x) = 0.44406 0.15708
# Poissons Ratio (y) = 0.30772 0.27097
# Poissons Ratio (z) = 0.16305 0.40589
#
# Static dielectric constant tensor:
#      x y z
#    x 1.588850 0.000000 0.000000 
#    y 0.000000 1.547290 0.000000 
#    z 0.000000 0.000000 1.584960 
# 
# From -- ./inp_files/46189.got.cif
#   From: 2010.05.17/outbox.cif.g08.bks.cpg/sg69_24_cif.got.tgz:46189.got - 2010.06.03 19:29:58.
