data_PCOD9513805
_publ_section_title
;
Structure prediction by ZEFSAII (Michael W. Deem and Ramdas Pophale) SiO2 
 PCOD9513805
Probable space group: F M M M
;
_chemical_formula_sum "Si O2"
_cell_formula_units_Z 100
_cell_length_a 26.780673
_cell_length_b 8.154759
_cell_length_c 23.646433
_cell_angle_alpha 90.000000
_cell_angle_beta 90.000000
_cell_angle_gamma 90.000000
_cell_volume 5164.142946
_symmetry_space_group_name_H-M "F M M M"
_symmetry_group_IT_number 69
_symmetry_cell_setting 'orthorhombic'
loop_
_space_group_symop_operation_xyz
x,y,z
-x,-y,z
x,-y,-z
-x,y,-z
-x,-y,-z
x,y,-z
-x,y,z
x,-y,z
x,1/2+y,1/2+z
-x,1/2-y,1/2+z
x,1/2-y,1/2-z
-x,1/2+y,1/2-z
-x,1/2-y,1/2-z
x,1/2+y,1/2-z
-x,1/2+y,1/2+z
x,1/2-y,1/2+z
1/2+x,y,1/2+z
1/2-x,-y,1/2+z
1/2+x,-y,1/2-z
1/2-x,y,1/2-z
1/2-x,-y,1/2-z
1/2+x,y,1/2-z
1/2-x,y,1/2+z
1/2+x,-y,1/2+z
1/2+x,1/2+y,z
1/2-x,1/2-y,z
1/2+x,1/2-y,-z
1/2-x,1/2+y,-z
1/2-x,1/2-y,-z
1/2+x,1/2+y,-z
1/2-x,1/2+y,z
1/2+x,1/2-y,z
loop_
_atom_site_type_symbol
_atom_site_label
_atom_site_fract_x
_atom_site_fract_y
_atom_site_fract_z
Si Si1 0.500000 0.804191 0.184163
Si Si2 0.400100 0.192571 0.617520
Si Si3 0.000000 0.500000 0.500000
Si Si4 0.195932 0.195087 0.684811
Si Si5 0.924073 0.813737 0.500000
O O1 0.500000 0.750000 0.250000
O O2 0.450541 0.742167 0.151437
O O3 0.500000 0.000000 0.182450
O O4 0.351192 0.226517 0.654096
O O5 0.395996 0.293278 0.559415
O O6 0.404048 0.000000 0.605690
O O7 0.958436 0.650446 0.500000
O O8 0.194287 0.250000 0.750000
O O9 0.250000 0.250000 0.661867
O O10 0.192162 0.000000 0.681880
O O11 0.945452 0.000000 0.500000
#
# Coordination Sequence:
#
# PCOD9513805 Si02
#       5
#    16  32   4  32  16
#     4  12  25  41  60  91 125 167 209 261 324 388
#     4  12  24  43  64  93 130 169 214 270 324 387
#     4  12  22  44  60  94 124 168 214 264 312 374
#     4  11  22  40  65  96 127 170 216 271 329 388
#     4  12  25  43  66  95 128 174 222 267 323 388
#
# _framework density 19.364297000000001
#
# number of rings (size 3 to 8) (size 9 to 14) (size 15 to 20)
#    0.000    0.320    1.600   10.320    0.000    0.000 
#    0.000    0.800    0.000    0.000    0.000    0.000 
#    0.000    0.000    0.000    0.000    0.000    0.000 
#
# Total GULP energy -139439.062104 kJ/mol
# GULP energy per Si atom -5577.562484 kJ/mol
# Density = 1.932022 g / cm^3
# Si number density = 19.364297 Si / 1000 Ang^3
#
#
#
# Elastic Constant Matrix: (Units=GPa)
#
#
# Indices 1 2 3 4 5 6 
#
# 1 161.8901 34.3483 70.6992 0.0000 0.0000 0.0000
# 2 34.3483 181.2774 25.1709 0.0000 0.0000 0.0001
# 3 70.6992 25.1709 120.1806 0.0000 0.0000 0.0000
# 4 0.0000 0.0000 0.0000 33.8357 0.0000 0.0000
# 5 0.0000 0.0000 0.0000 0.0000 48.0616 0.0000
# 6 0.0000 0.0001 0.0000 0.0000 0.0000 14.2475
#
#
#
# Elastic Compliance Matrix: (Units=1/GPa)
#
#
# Indices 1 2 3 4 5 6 
#
# 1 0.008465 -0.000940 -0.004783 0.000000 0.000000 0.000000
# 2 -0.000940 0.005786 -0.000659 0.000000 0.000000 0.000000
# 3 -0.004783 -0.000659 0.011273 0.000000 0.000000 0.000000
# 4 0.000000 0.000000 0.000000 0.029555 0.000000 0.000000
# 5 0.000000 0.000000 0.000000 0.000000 0.020807 0.000000
# 6 0.000000 0.000000 0.000000 0.000000 0.000000 0.070188
#
#
# Mechanical properties :
#
#
# Convention : Reuss Voigt Hill
#
# Bulk Modulus (GPa) = 78.36913 80.42055 79.39484
# Shear Modulus (GPa) = 30.65795 41.43761 36.04778
#
# Velocity S-wave (km/s) = 3.98329 4.63092 4.31926
# Velocity P-wave (km/s) = 7.85584 8.37940 8.12184
#
# Compressibility (1/GPa) = 0.01276013
#
# Stress axis : x y z
#
# Youngs Moduli (GPa) = 118.13003 172.83139 88.71096
#
# Poissons Ratio (x) = 0.16244 0.42431
# Poissons Ratio (y) = 0.11102 0.05845
# Poissons Ratio (z) = 0.56502 0.11389
#
# Static dielectric constant tensor:
#      x y z
#    x 1.670580 0.000000 0.000000 
#    y 0.000000 1.666800 0.000000 
#    z 0.000000 0.000000 1.698650 
# 
# From -- ./inp_files/4357.got.cif
#   From: 2010.05.17/outbox.cif.g08.bks.cpg/sg69_3_cif.got.tgz:4357.got - 2010.06.03 19:29:58.
