data_PCOD9513086
_publ_section_title
;
Structure prediction by ZEFSAII (Michael W. Deem and Ramdas Pophale) SiO2 
 PCOD9513086
Probable space group: F M M M
;
_chemical_formula_sum "Si O2"
_cell_formula_units_Z 112
_cell_length_a 14.344241
_cell_length_b 14.440922
_cell_length_c 29.033611
_cell_angle_alpha 90.000000
_cell_angle_beta 90.000000
_cell_angle_gamma 90.000000
_cell_volume 6014.140217
_symmetry_space_group_name_H-M "F M M M"
_symmetry_group_IT_number 69
_symmetry_cell_setting 'orthorhombic'
loop_
_space_group_symop_operation_xyz
x,y,z
-x,-y,z
x,-y,-z
-x,y,-z
-x,-y,-z
x,y,-z
-x,y,z
x,-y,z
x,1/2+y,1/2+z
-x,1/2-y,1/2+z
x,1/2-y,1/2-z
-x,1/2+y,1/2-z
-x,1/2-y,1/2-z
x,1/2+y,1/2-z
-x,1/2+y,1/2+z
x,1/2-y,1/2+z
1/2+x,y,1/2+z
1/2-x,-y,1/2+z
1/2+x,-y,1/2-z
1/2-x,y,1/2-z
1/2-x,-y,1/2-z
1/2+x,y,1/2-z
1/2-x,y,1/2+z
1/2+x,-y,1/2+z
1/2+x,1/2+y,z
1/2-x,1/2-y,z
1/2+x,1/2-y,-z
1/2-x,1/2+y,-z
1/2-x,1/2-y,-z
1/2+x,1/2+y,-z
1/2-x,1/2+y,z
1/2+x,1/2-y,z
loop_
_atom_site_type_symbol
_atom_site_label
_atom_site_fract_x
_atom_site_fract_y
_atom_site_fract_z
Si Si1 0.606151 0.500000 0.944678
Si Si2 0.000000 0.108638 0.807272
Si Si3 0.500000 0.391526 0.696983
Si Si4 0.148824 0.705838 0.448336
Si Si5 0.862497 0.246882 0.349662
O O1 0.500000 0.500000 0.926935
O O2 0.653448 0.597575 0.933834
O O3 0.601197 0.500000 0.000000
O O4 0.000000 0.119268 0.752123
O O5 0.089370 0.162262 0.827733
O O6 0.000000 0.000000 0.818145
O O7 0.500000 0.500000 0.685860
O O8 0.410044 0.338955 0.676337
O O9 0.106059 0.711372 0.500000
O O10 0.250000 0.750000 0.452657
O O11 0.107782 0.755331 0.403554
O O12 0.750000 0.250000 0.346566
#
# Coordination Sequence:
#
# PCOD9513086 Si02
#       5
#    16  16  16  32  32
#     4   9  18  30  52  80 107 142 184 230 271 313
#     4  10  23  39  60  86 114 143 184 242 290 337
#     4  10  23  43  58  80 117 150 182 234 297 340
#     4   9  19  35  53  81 118 151 182 224 277 325
#     4  10  21  37  60  87 112 151 190 231 274 337
#
# _framework density 18.622779999999999
#
# number of rings (size 3 to 8) (size 9 to 14) (size 15 to 20)
#    0.000    2.429    0.000    1.714    6.000    3.429 
#    7.714    2.857    0.000    0.857    0.000    0.000 
#    0.000    0.000    0.000    0.000    0.000    0.000 
#
# Total GULP energy -155943.551708 kJ/mol
# GULP energy per Si atom -5569.412561 kJ/mol
# Density = 1.858039 g / cm^3
# Si number density = 18.622780 Si / 1000 Ang^3
#
#
#
# Elastic Constant Matrix: (Units=GPa)
#
#
# Indices 1 2 3 4 5 6 
#
# 1 141.6392 69.7439 36.7520 0.0000 0.0000 0.0000
# 2 69.7439 132.1560 54.1087 0.0000 0.0000 0.0000
# 3 36.7520 54.1087 150.1597 0.0000 0.0000 0.0000
# 4 0.0000 0.0000 0.0000 36.5303 0.0000 0.0000
# 5 0.0000 0.0000 0.0000 0.0000 42.4290 0.0000
# 6 0.0000 0.0000 0.0000 0.0000 0.0000 0.6064
#
#
#
# Elastic Compliance Matrix: (Units=1/GPa)
#
#
# Indices 1 2 3 4 5 6 
#
# 1 0.009587 -0.004808 -0.000614 0.000000 0.000000 0.000000
# 2 -0.004808 0.011288 -0.002891 0.000000 0.000000 0.000000
# 3 -0.000614 -0.002891 0.007851 0.000000 0.000000 0.000000
# 4 0.000000 0.000000 0.000000 0.027375 0.000000 0.000000
# 5 0.000000 0.000000 0.000000 0.000000 0.023569 0.000000
# 6 0.000000 0.000000 0.000000 0.000000 0.000000 1.649099
#
#
# Mechanical properties :
#
#
# Convention : Reuss Voigt Hill
#
# Bulk Modulus (GPa) = 82.63819 82.79602 82.71710
# Shear Modulus (GPa) = 2.85808 33.46984 18.16396
#
# Velocity S-wave (km/s) = 1.24018 4.24400 3.12647
# Velocity P-wave (km/s) = 6.82069 8.28079 7.58595
#
# Compressibility (1/GPa) = 0.01210094
#
# Stress axis : x y z
#
# Youngs Moduli (GPa) = 104.30777 88.59161 127.36506
#
# Poissons Ratio (x) = 0.42596 0.07819
# Poissons Ratio (y) = 0.50152 0.36817
# Poissons Ratio (z) = 0.06403 0.25609
#
# Static dielectric constant tensor:
#      x y z
#    x 1.626940 0.000000 0.000000 
#    y 0.000000 1.634710 0.000000 
#    z 0.000000 0.000000 1.697680 
# 
# From -- ./inp_files/14324.got.cif
#   From: 2010.05.17/outbox.cif.g08.bks.cpg/sg69_8_cif.got.tgz:14324.got - 2010.06.03 19:29:58.
