data_PCOD9513488
_publ_section_title
;
Structure prediction by ZEFSAII (Michael W. Deem and Ramdas Pophale) SiO2 
 PCOD9513488
Probable space group: F M M M
;
_chemical_formula_sum "Si O2"
_cell_formula_units_Z 216
_cell_length_a 14.071326
_cell_length_b 28.369297
_cell_length_c 26.132037
_cell_angle_alpha 90.000000
_cell_angle_beta 90.000000
_cell_angle_gamma 90.000000
_cell_volume 10431.742617
_symmetry_space_group_name_H-M "F M M M"
_symmetry_group_IT_number 69
_symmetry_cell_setting 'orthorhombic'
loop_
_space_group_symop_operation_xyz
x,y,z
-x,-y,z
x,-y,-z
-x,y,-z
-x,-y,-z
x,y,-z
-x,y,z
x,-y,z
x,1/2+y,1/2+z
-x,1/2-y,1/2+z
x,1/2-y,1/2-z
-x,1/2+y,1/2-z
-x,1/2-y,1/2-z
x,1/2+y,1/2-z
-x,1/2+y,1/2+z
x,1/2-y,1/2+z
1/2+x,y,1/2+z
1/2-x,-y,1/2+z
1/2+x,-y,1/2-z
1/2-x,y,1/2-z
1/2-x,-y,1/2-z
1/2+x,y,1/2-z
1/2-x,y,1/2+z
1/2+x,-y,1/2+z
1/2+x,1/2+y,z
1/2-x,1/2-y,z
1/2+x,1/2-y,-z
1/2-x,1/2+y,-z
1/2-x,1/2-y,-z
1/2+x,1/2+y,-z
1/2-x,1/2+y,z
1/2+x,1/2-y,z
loop_
_atom_site_type_symbol
_atom_site_label
_atom_site_fract_x
_atom_site_fract_y
_atom_site_fract_z
Si Si1 0.702145 0.118872 0.412874
Si Si2 0.114427 0.449181 0.213028
Si Si3 0.614400 0.445825 0.830388
Si Si4 0.388654 0.233028 0.194412
Si Si5 0.613396 0.056278 0.500000
Si Si6 0.113899 0.862170 0.361202
Si Si7 0.850569 0.275399 0.413054
Si Si8 0.500000 0.248733 0.000000
O O1 0.665169 0.095672 0.360524
O O2 0.666125 0.080389 0.452742
O O3 0.814878 0.129324 0.408400
O O4 0.654304 0.169035 0.424131
O O5 0.149652 0.500000 0.193703
O O6 0.145391 0.442733 0.271329
O O7 0.130598 0.406485 0.175533
O O8 0.000000 0.452088 0.216680
O O9 0.500000 0.439713 0.834123
O O10 0.633079 0.500000 0.848112
O O11 0.500000 0.223775 0.202645
O O12 0.352456 0.250000 0.250000
O O13 0.352020 0.184032 0.170108
O O14 0.378247 0.268896 0.146957
O O15 0.500000 0.067273 0.500000
O O16 0.622216 0.000000 0.500000
O O17 0.000000 0.858290 0.373022
O O18 0.750000 0.250000 0.418382
O O19 0.919048 0.251595 0.454166
#
# Coordination Sequence:
#
# PCOD9513488 Si02
#       8
#    32  32  32  32  16  32  32   8
#     4  12  25  40  68  96 131 171 226 274 340 426
#     4   8  16  33  57  87 126 170 217 264 316 383
#     4   9  19  36  60  94 133 173 217 273 334 399
#     4  10  22  43  68  96 142 190 232 284 351 419
#     4  11  27  50  74 103 139 172 213 288 368 428
#     4  10  22  42  63  92 133 179 230 272 336 399
#     4  12  26  47  68 108 136 179 234 286 347 413
#     4  12  28  48  78  90 133 170 223 300 344 392
#
# _framework density 20.706032
#
# number of rings (size 3 to 8) (size 9 to 14) (size 15 to 20)
#    0.000    1.704    2.222    2.444    5.185    3.259 
#    0.000    1.852    0.000    0.444    0.000    0.000 
#    0.000    0.000    0.000    0.000    0.000    0.000 
#
# Total GULP energy -300887.581018 kJ/mol
# GULP energy per Si atom -5571.992241 kJ/mol
# Density = 2.065890 g / cm^3
# Si number density = 20.706032 Si / 1000 Ang^3
#
#
#
# Elastic Constant Matrix: (Units=GPa)
#
#
# Indices 1 2 3 4 5 6 
#
# 1 97.5469 21.6215 38.8195 0.0000 0.0000 0.0000
# 2 21.6215 88.0641 19.7582 0.0000 0.0000 0.0000
# 3 38.8195 19.7582 92.6322 0.0000 0.0000 0.0000
# 4 0.0000 0.0000 0.0000 15.6040 0.0000 0.0000
# 5 0.0000 0.0000 0.0000 0.0000 27.8944 0.0000
# 6 0.0000 0.0000 0.0000 0.0000 0.0000 39.5222
#
#
#
# Elastic Compliance Matrix: (Units=1/GPa)
#
#
# Indices 1 2 3 4 5 6 
#
# 1 0.012633 -0.002010 -0.004865 0.000000 0.000000 0.000000
# 2 -0.002010 0.012246 -0.001770 0.000000 0.000000 0.000000
# 3 -0.004865 -0.001770 0.013212 0.000000 0.000000 0.000000
# 4 0.000000 0.000000 0.000000 0.064086 0.000000 0.000000
# 5 0.000000 0.000000 0.000000 0.000000 0.035849 0.000000
# 6 0.000000 0.000000 0.000000 0.000000 0.000000 0.025302
#
#
# Mechanical properties :
#
#
# Convention : Reuss Voigt Hill
#
# Bulk Modulus (GPa) = 48.07563 48.73795 48.40679
# Shear Modulus (GPa) = 26.65913 29.80706 28.23310
#
# Velocity S-wave (km/s) = 3.59208 3.79824 3.69659
# Velocity P-wave (km/s) = 6.36181 6.54405 6.45357
#
# Compressibility (1/GPa) = 0.02080056
#
# Stress axis : x y z
#
# Youngs Moduli (GPa) = 79.15606 81.65986 75.68977
#
# Poissons Ratio (x) = 0.16414 0.36827
# Poissons Ratio (y) = 0.15911 0.13394
# Poissons Ratio (z) = 0.38513 0.14451
#
# Static dielectric constant tensor:
#      x y z
#    x 1.800320 0.000000 0.000000 
#    y 0.000000 1.733470 0.000000 
#    z 0.000000 0.000000 1.916720 
# 
# From -- ./inp_files/41314.got.cif
#   From: 2010.05.17/outbox.cif.g08.bks.cpg/sg69_21_cif.got.tgz:41314.got - 2010.06.03 19:29:58.
