data_PCOD9513020
_publ_section_title
;
Structure prediction by ZEFSAII (Michael W. Deem and Ramdas Pophale) SiO2 
 PCOD9513020
Probable space group: F M M M
;
_chemical_formula_sum "Si O2"
_cell_formula_units_Z 148
_cell_length_a 17.835165
_cell_length_b 14.565027
_cell_length_c 30.082960
_cell_angle_alpha 90.000000
_cell_angle_beta 90.000000
_cell_angle_gamma 90.000000
_cell_volume 7814.640284
_symmetry_space_group_name_H-M "F M M M"
_symmetry_group_IT_number 69
_symmetry_cell_setting 'orthorhombic'
loop_
_space_group_symop_operation_xyz
x,y,z
-x,-y,z
x,-y,-z
-x,y,-z
-x,-y,-z
x,y,-z
-x,y,z
x,-y,z
x,1/2+y,1/2+z
-x,1/2-y,1/2+z
x,1/2-y,1/2-z
-x,1/2+y,1/2-z
-x,1/2-y,1/2-z
x,1/2+y,1/2-z
-x,1/2+y,1/2+z
x,1/2-y,1/2+z
1/2+x,y,1/2+z
1/2-x,-y,1/2+z
1/2+x,-y,1/2-z
1/2-x,y,1/2-z
1/2-x,-y,1/2-z
1/2+x,y,1/2-z
1/2-x,y,1/2+z
1/2+x,-y,1/2+z
1/2+x,1/2+y,z
1/2-x,1/2-y,z
1/2+x,1/2-y,-z
1/2-x,1/2+y,-z
1/2-x,1/2-y,-z
1/2+x,1/2+y,-z
1/2-x,1/2+y,z
1/2+x,1/2-y,z
loop_
_atom_site_type_symbol
_atom_site_label
_atom_site_fract_x
_atom_site_fract_y
_atom_site_fract_z
Si Si1 0.911021 0.890793 0.848256
Si Si2 0.416858 0.809264 0.000000
Si Si3 0.835878 0.888564 0.755578
Si Si4 0.087779 0.610325 0.163504
Si Si5 0.000000 0.000000 0.500000
Si Si6 0.660923 0.240953 0.907972
O O1 0.872138 0.860298 0.802120
O O2 0.875261 0.833226 0.887877
O O3 0.000000 0.874787 0.845420
O O4 0.898945 0.000000 0.853462
O O5 0.435936 0.917797 0.000000
O O6 0.372761 0.781744 0.044072
O O7 0.500000 0.764301 0.000000
O O8 0.750000 0.858435 0.750000
O O9 0.883893 0.862326 0.712492
O O10 0.835692 0.000000 0.756237
O O11 0.095752 0.500000 0.159430
O O12 0.135464 0.661503 0.126283
O O13 0.000000 0.632612 0.157893
O O14 0.750000 0.250000 0.909286
#
# Coordination Sequence:
#
# PCOD9513020 Si02
#       6
#    32  16  32  32   4  32
#     4  10  21  39  60  83 119 168 212 244 292 359
#     4  10  23  45  69  96 121 148 192 240 306 367
#     4   9  17  32  54  84 122 160 203 259 313 362
#     4  10  21  36  60  90 121 159 209 264 315 365
#     4   8  24  44  80 100 114 156 190 244 328 364
#     4  12  25  40  62  91 125 157 196 250 304 365
#
# _framework density 18.938811000000001
#
# number of rings (size 3 to 8) (size 9 to 14) (size 15 to 20)
#    0.324    1.514    0.000    4.216    1.514    6.054 
#    0.000    4.865    0.000    1.946    0.000    0.000 
#    0.000    0.000    0.000    0.000    0.000    0.000 
#
# Total GULP energy -206501.492359 kJ/mol
# GULP energy per Si atom -5581.121415 kJ/mol
# Density = 1.889571 g / cm^3
# Si number density = 18.938811 Si / 1000 Ang^3
#
#
#
# Elastic Constant Matrix: (Units=GPa)
#
#
# Indices 1 2 3 4 5 6 
#
# 1 178.8429 65.4433 95.0862 0.0000 0.0000 0.0000
# 2 65.4433 99.0000 66.5569 0.0000 0.0000 0.0000
# 3 95.0862 66.5569 176.5175 0.0000 0.0000 0.0000
# 4 0.0000 0.0000 0.0000 10.1298 0.0000 0.0000
# 5 0.0000 0.0000 0.0000 0.0000 35.7365 0.0000
# 6 0.0000 0.0000 0.0000 0.0000 0.0000 23.2605
#
#
#
# Elastic Compliance Matrix: (Units=1/GPa)
#
#
# Indices 1 2 3 4 5 6 
#
# 1 0.008638 -0.003458 -0.003349 0.000000 0.000000 0.000000
# 2 -0.003458 0.014916 -0.003761 0.000000 0.000000 0.000000
# 3 -0.003349 -0.003761 0.008887 0.000000 0.000000 0.000000
# 4 0.000000 0.000000 0.000000 0.098719 0.000000 0.000000
# 5 0.000000 0.000000 0.000000 0.000000 0.027983 0.000000
# 6 0.000000 0.000000 0.000000 0.000000 0.000000 0.042991
#
#
# Mechanical properties :
#
#
# Convention : Reuss Voigt Hill
#
# Bulk Modulus (GPa) = 88.46550 100.94814 94.70682
# Shear Modulus (GPa) = 22.02274 28.97694 25.49984
#
# Velocity S-wave (km/s) = 3.41374 3.91580 3.67336
# Velocity P-wave (km/s) = 7.89625 8.59434 8.25268
#
# Compressibility (1/GPa) = 0.01130384
#
# Stress axis : x y z
#
# Youngs Moduli (GPa) = 115.77419 67.04344 112.52067
#
# Poissons Ratio (x) = 0.23186 0.37681
# Poissons Ratio (y) = 0.40039 0.42320
# Poissons Ratio (z) = 0.38771 0.25216
#
# Static dielectric constant tensor:
#      x y z
#    x 1.632460 0.000000 0.000000 
#    y 0.000000 1.688160 0.000000 
#    z 0.000000 0.000000 1.622060 
# 
# From -- ./inp_files/46196.got.cif
#   From: 2010.05.17/outbox.cif.g08.bks.cpg/sg69_24_cif.got.tgz:46196.got - 2010.06.03 19:29:58.
