data_PCOD9513217
_publ_section_title
;
Structure prediction by ZEFSAII (Michael W. Deem and Ramdas Pophale) SiO2 
 PCOD9513217
Probable space group: F M M M
;
_chemical_formula_sum "Si O2"
_cell_formula_units_Z 104
_cell_length_a 10.296298
_cell_length_b 14.055433
_cell_length_c 33.176756
_cell_angle_alpha 90.000000
_cell_angle_beta 90.000000
_cell_angle_gamma 90.000000
_cell_volume 4801.304519
_symmetry_space_group_name_H-M "F M M M"
_symmetry_group_IT_number 69
_symmetry_cell_setting 'orthorhombic'
loop_
_space_group_symop_operation_xyz
x,y,z
-x,-y,z
x,-y,-z
-x,y,-z
-x,-y,-z
x,y,-z
-x,y,z
x,-y,z
x,1/2+y,1/2+z
-x,1/2-y,1/2+z
x,1/2-y,1/2-z
-x,1/2+y,1/2-z
-x,1/2-y,1/2-z
x,1/2+y,1/2-z
-x,1/2+y,1/2+z
x,1/2-y,1/2+z
1/2+x,y,1/2+z
1/2-x,-y,1/2+z
1/2+x,-y,1/2-z
1/2-x,y,1/2-z
1/2-x,-y,1/2-z
1/2+x,y,1/2-z
1/2-x,y,1/2+z
1/2+x,-y,1/2+z
1/2+x,1/2+y,z
1/2-x,1/2-y,z
1/2+x,1/2-y,-z
1/2-x,1/2+y,-z
1/2-x,1/2-y,-z
1/2+x,1/2+y,-z
1/2-x,1/2+y,z
1/2+x,1/2-y,z
loop_
_atom_site_type_symbol
_atom_site_label
_atom_site_fract_x
_atom_site_fract_y
_atom_site_fract_z
Si Si1 0.000000 0.390910 0.931020
Si Si2 0.756244 0.112699 0.372024
Si Si3 0.500000 0.229125 0.500000
Si Si4 0.648613 0.383809 0.284652
Si Si5 0.500000 0.115530 0.417485
O O1 0.874183 0.379202 0.903069
O O2 0.000000 0.500000 0.946363
O O3 0.000000 0.313239 0.965353
O O4 0.799687 0.148030 0.328307
O O5 0.626724 0.150963 0.393115
O O6 0.731823 0.000000 0.366167
O O7 0.500000 0.149822 0.463464
O O8 0.500000 0.351884 0.278064
O O9 0.644404 0.500000 0.285122
O O10 0.750000 0.357032 0.250000
O O11 0.500000 0.000000 0.417649
#
# Coordination Sequence:
#
# PCOD9513217 Si02
#       5
#    16  32   8  32  16
#     4  10  21  39  62  86 117 154 194 246 304 360
#     4   9  18  35  55  80 120 163 194 235 299 356
#     4  12  26  42  64  92 114 146 206 258 308 356
#     4   9  16  26  47  83 121 154 196 244 285 340
#     4  10  23  39  58  84 121 160 196 246 302 358
#
# _framework density 21.660779000000002
#
# number of rings (size 3 to 8) (size 9 to 14) (size 15 to 20)
#    0.000    2.462    1.538    0.462    2.154    3.692 
#    0.000    4.615    0.000    0.000    0.000    6.462 
#    0.000    0.000    0.000    0.000    0.000    1.846 
#
# Total GULP energy -144767.385967 kJ/mol
# GULP energy per Si atom -5567.976383 kJ/mol
# Density = 2.161148 g / cm^3
# Si number density = 21.660779 Si / 1000 Ang^3
#
#
#
# Elastic Constant Matrix: (Units=GPa)
#
#
# Indices 1 2 3 4 5 6 
#
# 1 204.8888 10.7524 107.6941 0.0000 0.0000 0.0000
# 2 10.7524 98.8816 12.2606 0.0000 0.0000 0.0000
# 3 107.6941 12.2606 198.3120 0.0000 0.0000 0.0000
# 4 0.0000 0.0000 0.0000 -90.1308 0.0000 0.0000
# 5 0.0000 0.0000 0.0000 0.0000 -13.6580 0.0000
# 6 0.0000 0.0000 0.0000 0.0000 0.0000 -3.0828
#
#
#
# Elastic Compliance Matrix: (Units=1/GPa)
#
#
# Indices 1 2 3 4 5 6 
#
# 1 0.006838 -0.000285 -0.003696 0.000000 0.000000 0.000000
# 2 -0.000285 0.010203 -0.000476 0.000000 0.000000 0.000000
# 3 -0.003696 -0.000476 0.007079 0.000000 0.000000 0.000000
# 4 0.000000 0.000000 0.000000 -0.011095 0.000000 0.000000
# 5 0.000000 0.000000 0.000000 0.000000 -0.073217 0.000000
# 6 0.000000 0.000000 0.000000 0.000000 0.000000 -0.324385
#
#
# Mechanical properties :
#
#
# Convention : Reuss Voigt Hill
#
# Bulk Modulus (GPa) = 65.76232 84.83298 75.29765
# Shear Modulus (GPa) = -13.49185 3.38404 -5.05390
#
# Velocity S-wave (km/s) = -2.49844 1.25127 -1.52914
# Velocity P-wave (km/s) = 4.70139 6.42938 5.63205
#
# Compressibility (1/GPa) = 0.01520628
#
# Stress axis : x y z
#
# Youngs Moduli (GPa) = 146.23424 98.00913 141.26132
#
# Poissons Ratio (x) = 0.02797 0.52209
# Poissons Ratio (y) = 0.04173 0.06722
# Poissons Ratio (z) = 0.54047 0.04664
#
# Static dielectric constant tensor:
#      x y z
#    x 1.759350 0.000000 0.000000 
#    y 0.000000 1.812440 0.000000 
#    z 0.000000 0.000000 1.731550 
# 
# From -- ./inp_files/19210.got.cif
#   From: 2010.05.17/outbox.cif.g08.bks.cpg/sg69_10_cif.got.tgz:19210.got - 2010.06.03 19:29:58.
