data_PCOD9513904
_publ_section_title
;
Structure prediction by ZEFSAII (Michael W. Deem and Ramdas Pophale) SiO2 
 PCOD9513904
Probable space group: F M M M
;
_chemical_formula_sum "Si O2"
_cell_formula_units_Z 88
_cell_length_a 16.573367
_cell_length_b 17.810274
_cell_length_c 12.829881
_cell_angle_alpha 90.000000
_cell_angle_beta 90.000000
_cell_angle_gamma 90.000000
_cell_volume 3787.075615
_symmetry_space_group_name_H-M "F M M M"
_symmetry_group_IT_number 69
_symmetry_cell_setting 'orthorhombic'
loop_
_space_group_symop_operation_xyz
x,y,z
-x,-y,z
x,-y,-z
-x,y,-z
-x,-y,-z
x,y,-z
-x,y,z
x,-y,z
x,1/2+y,1/2+z
-x,1/2-y,1/2+z
x,1/2-y,1/2-z
-x,1/2+y,1/2-z
-x,1/2-y,1/2-z
x,1/2+y,1/2-z
-x,1/2+y,1/2+z
x,1/2-y,1/2+z
1/2+x,y,1/2+z
1/2-x,-y,1/2+z
1/2+x,-y,1/2-z
1/2-x,y,1/2-z
1/2-x,-y,1/2-z
1/2+x,y,1/2-z
1/2-x,y,1/2+z
1/2+x,-y,1/2+z
1/2+x,1/2+y,z
1/2-x,1/2-y,z
1/2+x,1/2-y,-z
1/2-x,1/2+y,-z
1/2-x,1/2-y,-z
1/2+x,1/2+y,-z
1/2-x,1/2+y,z
1/2+x,1/2-y,z
loop_
_atom_site_type_symbol
_atom_site_label
_atom_site_fract_x
_atom_site_fract_y
_atom_site_fract_z
Si Si1 0.652176 0.227549 0.000000
Si Si2 0.240372 0.078177 0.000000
Si Si3 0.500000 0.624633 0.500000
Si Si4 0.000000 0.585853 0.768243
Si Si5 0.667363 0.848976 0.681944
O O1 0.656181 0.277285 0.894747
O O2 0.713985 0.157808 0.000000
O O3 0.572271 0.181941 0.000000
O O4 0.186829 0.083384 0.897265
O O5 0.288657 0.000000 0.000000
O O6 0.500000 0.580734 0.392853
O O7 0.917310 0.630285 0.737107
O O8 0.000000 0.500000 0.725958
O O9 0.750000 0.841204 0.750000
#
# Coordination Sequence:
#
# PCOD9513904 Si02
#       5
#    16  16   8  16  32
#     4  11  26  46  72 106 141 183 234 289 344 410
#     4  11  25  43  68 103 140 181 233 287 344 412
#     4  12  27  42  66 102 143 182 234 286 345 420
#     4  12  28  47  71 104 143 184 229 289 351 410
#     4  11  25  47  74 102 139 187 235 282 344 416
#
# _framework density 23.236927999999999
#
# number of rings (size 3 to 8) (size 9 to 14) (size 15 to 20)
#    0.000    0.727    0.000    6.818    0.000   22.545 
#    0.000    4.545    0.000    0.000    0.000    0.000 
#    0.000    0.000    0.000    0.364    0.000    0.000 
#
# Total GULP energy -122808.357148 kJ/mol
# GULP energy per Si atom -5582.198052 kJ/mol
# Density = 2.318404 g / cm^3
# Si number density = 23.236928 Si / 1000 Ang^3
#
#
#
# Elastic Constant Matrix: (Units=GPa)
#
#
# Indices 1 2 3 4 5 6 
#
# 1 200.6391 62.1747 82.3029 0.0000 0.0000 0.0000
# 2 62.1747 188.6315 66.5032 0.0000 0.0000 0.0000
# 3 82.3029 66.5032 160.8759 0.0000 0.0000 0.0000
# 4 0.0000 0.0000 0.0000 -423.6522 0.0000 0.0000
# 5 0.0000 0.0000 0.0000 0.0000 35.8005 0.0000
# 6 0.0000 0.0000 0.0000 0.0000 0.0000 4.7950
#
#
#
# Elastic Compliance Matrix: (Units=1/GPa)
#
#
# Indices 1 2 3 4 5 6 
#
# 1 0.006510 -0.001137 -0.002860 0.000000 0.000000 0.000000
# 2 -0.001137 0.006404 -0.002066 0.000000 0.000000 0.000000
# 3 -0.002860 -0.002066 0.008533 0.000000 0.000000 0.000000
# 4 0.000000 0.000000 0.000000 -0.002360 0.000000 0.000000
# 5 0.000000 0.000000 0.000000 0.000000 0.027933 0.000000
# 6 0.000000 0.000000 0.000000 0.000000 0.000000 0.208551
#
#
# Mechanical properties :
#
#
# Convention : Reuss Voigt Hill
#
# Bulk Modulus (GPa) = 107.28412 108.01201 107.64806
# Shear Modulus (GPa) = 18.46357 -54.00030 -17.76837
#
# Velocity S-wave (km/s) = 2.82189 -4.82591 -2.76825
# Velocity P-wave (km/s) = 7.54237 3.94097 6.01741
#
# Compressibility (1/GPa) = 0.00932104
#
# Stress axis : x y z
#
# Youngs Moduli (GPa) = 153.61519 156.14108 117.19019
#
# Poissons Ratio (x) = 0.17758 0.33519
# Poissons Ratio (y) = 0.17471 0.24207
# Poissons Ratio (z) = 0.43937 0.32253
#
# Static dielectric constant tensor:
#      x y z
#    x 5.738910 0.000000 0.000000 
#    y 0.000000 1.846070 0.000000 
#    z 0.000000 0.000000 1.916940 
# 
# From -- ./inp_files/14834.got.cif
#   From: 2010.05.17/outbox.cif.g08.bks.cpg/sg69_8_cif.got.tgz:14834.got - 2010.06.03 19:29:58.
