data_PCOD9513826
_publ_section_title
;
Structure prediction by ZEFSAII (Michael W. Deem and Ramdas Pophale) SiO2 
 PCOD9513826
Probable space group: F M M M
;
_chemical_formula_sum "Si O2"
_cell_formula_units_Z 88
_cell_length_a 18.978881
_cell_length_b 10.161602
_cell_length_c 22.056849
_cell_angle_alpha 90.000000
_cell_angle_beta 90.000000
_cell_angle_gamma 90.000000
_cell_volume 4253.792034
_symmetry_space_group_name_H-M "F M M M"
_symmetry_group_IT_number 69
_symmetry_cell_setting 'orthorhombic'
loop_
_space_group_symop_operation_xyz
x,y,z
-x,-y,z
x,-y,-z
-x,y,-z
-x,-y,-z
x,y,-z
-x,y,z
x,-y,z
x,1/2+y,1/2+z
-x,1/2-y,1/2+z
x,1/2-y,1/2-z
-x,1/2+y,1/2-z
-x,1/2-y,1/2-z
x,1/2+y,1/2-z
-x,1/2+y,1/2+z
x,1/2-y,1/2+z
1/2+x,y,1/2+z
1/2-x,-y,1/2+z
1/2+x,-y,1/2-z
1/2-x,y,1/2-z
1/2-x,-y,1/2-z
1/2+x,y,1/2-z
1/2-x,y,1/2+z
1/2+x,-y,1/2+z
1/2+x,1/2+y,z
1/2-x,1/2-y,z
1/2+x,1/2-y,-z
1/2-x,1/2+y,-z
1/2-x,1/2-y,-z
1/2+x,1/2+y,-z
1/2-x,1/2+y,z
1/2+x,1/2-y,z
loop_
_atom_site_type_symbol
_atom_site_label
_atom_site_fract_x
_atom_site_fract_y
_atom_site_fract_z
Si Si1 0.750000 0.750000 0.250000
Si Si2 0.000000 0.142893 0.699564
Si Si3 0.702668 0.000000 0.068517
Si Si4 0.640899 0.743667 0.356962
Si Si5 0.371301 0.500000 0.931726
O O1 0.690998 0.794810 0.301141
O O2 0.000000 0.250000 0.750000
O O3 0.072143 0.164886 0.664220
O O4 0.000000 0.000000 0.727967
O O5 0.682019 0.134047 0.103442
O O6 0.786529 0.000000 0.064177
O O7 0.672965 0.000000 0.000000
O O8 0.613378 0.867603 0.395016
O O9 0.400397 0.500000 0.000000
#
# Coordination Sequence:
#
# PCOD9513826 Si02
#       5
#     8  16  16  32  16
#     4  12  24  40  70 102 136 168 224 272 340 392
#     4  12  28  46  67 100 144 180 219 273 348 410
#     4  11  22  43  70  99 135 178 228 282 334 395
#     4  12  25  43  69 103 137 176 225 280 337 408
#     4  11  24  43  70 103 135 178 230 286 334 389
#
# _framework density 20.687425000000001
#
# number of rings (size 3 to 8) (size 9 to 14) (size 15 to 20)
#    0.000    0.364    7.273    1.091    2.545    5.818 
#    0.000    5.455    0.000    0.000    0.000    0.000 
#    0.000    0.000    0.000    0.000    0.000    0.000 
#
# Total GULP energy -122518.508063 kJ/mol
# GULP energy per Si atom -5569.023094 kJ/mol
# Density = 2.064034 g / cm^3
# Si number density = 20.687425 Si / 1000 Ang^3
#
#
#
# Elastic Constant Matrix: (Units=GPa)
#
#
# Indices 1 2 3 4 5 6 
#
# 1 54.0724 -16.8107 -8.1663 0.0000 0.0000 0.0000
# 2 -16.8107 150.8833 43.9943 0.0000 0.0000 0.0000
# 3 -8.1663 43.9943 114.2184 0.0000 0.0000 0.0000
# 4 0.0000 0.0000 0.0000 24.9095 0.0000 0.0000
# 5 0.0000 0.0000 0.0000 0.0000 -4.0947 0.0000
# 6 0.0000 0.0000 0.0000 0.0000 0.0000 29.4639
#
#
#
# Elastic Compliance Matrix: (Units=1/GPa)
#
#
# Indices 1 2 3 4 5 6 
#
# 1 0.019196 0.001958 0.000618 0.000000 0.000000 0.000000
# 2 0.001958 0.007666 -0.002813 0.000000 0.000000 0.000000
# 3 0.000618 -0.002813 0.009883 0.000000 0.000000 0.000000
# 4 0.000000 0.000000 0.000000 0.040145 0.000000 0.000000
# 5 0.000000 0.000000 0.000000 0.000000 -0.244218 0.000000
# 6 0.000000 0.000000 0.000000 0.000000 0.000000 0.033940
#
#
# Mechanical properties :
#
#
# Convention : Reuss Voigt Hill
#
# Bulk Modulus (GPa) = 27.56920 39.68987 33.62953
# Shear Modulus (GPa) = -41.38209 30.06618 -5.65796
#
# Velocity S-wave (km/s) = -4.47738 3.81643 -1.65557
# Velocity P-wave (km/s) = 3.65701 6.21669 3.55482
#
# Compressibility (1/GPa) = 0.03627236
#
# Stress axis : x y z
#
# Youngs Moduli (GPa) = 52.09436 130.44649 101.18645
#
# Poissons Ratio (x) = -0.25548 -0.06254
# Poissons Ratio (y) = -0.10203 0.28461
# Poissons Ratio (z) = -0.03220 0.36691
#
# Static dielectric constant tensor:
#      x y z
#    x 1.625430 0.000000 0.000000 
#    y 0.000000 1.680650 0.000000 
#    z 0.000000 0.000000 1.797870 
# 
# From -- ./inp_files/23916.got.cif
#   From: 2010.05.17/outbox.cif.g08.bks.cpg/sg69_12_cif.got.tgz:23916.got - 2010.06.03 19:29:58.
