data_PCOD9513464
_publ_section_title
;
Structure prediction by ZEFSAII (Michael W. Deem and Ramdas Pophale) SiO2 
 PCOD9513464
Probable space group: F M M M
;
_chemical_formula_sum "Si O2"
_cell_formula_units_Z 144
_cell_length_a 25.494677
_cell_length_b 19.170756
_cell_length_c 14.939845
_cell_angle_alpha 90.000000
_cell_angle_beta 90.000000
_cell_angle_gamma 90.000000
_cell_volume 7301.882590
_symmetry_space_group_name_H-M "F M M M"
_symmetry_group_IT_number 69
_symmetry_cell_setting 'orthorhombic'
loop_
_space_group_symop_operation_xyz
x,y,z
-x,-y,z
x,-y,-z
-x,y,-z
-x,-y,-z
x,y,-z
-x,y,z
x,-y,z
x,1/2+y,1/2+z
-x,1/2-y,1/2+z
x,1/2-y,1/2-z
-x,1/2+y,1/2-z
-x,1/2-y,1/2-z
x,1/2+y,1/2-z
-x,1/2+y,1/2+z
x,1/2-y,1/2+z
1/2+x,y,1/2+z
1/2-x,-y,1/2+z
1/2+x,-y,1/2-z
1/2-x,y,1/2-z
1/2-x,-y,1/2-z
1/2+x,y,1/2-z
1/2-x,y,1/2+z
1/2+x,-y,1/2+z
1/2+x,1/2+y,z
1/2-x,1/2-y,z
1/2+x,1/2-y,-z
1/2-x,1/2+y,-z
1/2-x,1/2-y,-z
1/2+x,1/2+y,-z
1/2-x,1/2+y,z
1/2+x,1/2-y,z
loop_
_atom_site_type_symbol
_atom_site_label
_atom_site_fract_x
_atom_site_fract_y
_atom_site_fract_z
Si Si1 0.500000 0.920215 0.391496
Si Si2 0.611042 0.646404 0.101634
Si Si3 0.558028 0.723069 0.648035
Si Si4 0.809847 0.417957 0.258295
Si Si5 0.893177 0.078909 0.393629
O O1 0.500000 0.918761 0.500000
O O2 0.554841 0.884644 0.365332
O O3 0.500000 0.000000 0.361080
O O4 0.601529 0.729266 0.101466
O O5 0.656259 0.623061 0.168447
O O6 0.620323 0.621783 0.000000
O O7 0.500000 0.737537 0.610732
O O8 0.558707 0.750000 0.750000
O O9 0.569805 0.641739 0.637701
O O10 0.809416 0.500000 0.283913
O O11 0.750000 0.394016 0.250000
O O12 0.840257 0.412945 0.164055
O O13 0.884767 0.084937 0.500000
O O14 0.913309 0.000000 0.375853
#
# Coordination Sequence:
#
# PCOD9513464 Si02
#       5
#    16  32  32  32  32
#     4   9  18  32  53  86 126 160 193 240 301 374
#     4  11  21  36  60  93 127 163 205 254 319 386
#     4  11  22  39  63  92 127 168 207 254 318 386
#     4  10  22  41  63  89 125 167 213 264 314 369
#     4  10  22  41  64  89 121 165 217 265 308 366
#
# _framework density 19.720941
#
# number of rings (size 3 to 8) (size 9 to 14) (size 15 to 20)
#    0.000    1.667    3.333    1.333    0.000    4.000 
#    0.000    5.556    0.000    2.667    0.000    0.000 
#    0.000    0.000    0.000    0.000    0.000    0.000 
#
# Total GULP energy -201001.640908 kJ/mol
# GULP energy per Si atom -5583.378914 kJ/mol
# Density = 1.967606 g / cm^3
# Si number density = 19.720941 Si / 1000 Ang^3
#
#
#
# Elastic Constant Matrix: (Units=GPa)
#
#
# Indices 1 2 3 4 5 6 
#
# 1 129.7260 58.7752 49.5262 0.0000 0.0000 0.0000
# 2 58.7752 120.3651 46.1310 0.0000 0.0000 0.0000
# 3 49.5262 46.1310 113.0247 0.0000 0.0000 0.0000
# 4 0.0000 0.0000 0.0000 26.8718 0.0000 0.0000
# 5 0.0000 0.0000 0.0000 0.0000 10.2292 0.0000
# 6 0.0000 0.0000 0.0000 0.0000 0.0000 21.6510
#
#
#
# Elastic Compliance Matrix: (Units=1/GPa)
#
#
# Indices 1 2 3 4 5 6 
#
# 1 0.010709 -0.004067 -0.003033 0.000000 0.000000 0.000000
# 2 -0.004067 0.011393 -0.002868 0.000000 0.000000 0.000000
# 3 -0.003033 -0.002868 0.011347 0.000000 0.000000 0.000000
# 4 0.000000 0.000000 0.000000 0.037214 0.000000 0.000000
# 5 0.000000 0.000000 0.000000 0.000000 0.097759 0.000000
# 6 0.000000 0.000000 0.000000 0.000000 0.000000 0.046187
#
#
# Mechanical properties :
#
#
# Convention : Reuss Voigt Hill
#
# Bulk Modulus (GPa) = 73.99745 74.66452 74.33098
# Shear Modulus (GPa) = 20.91619 25.66262 23.28941
#
# Velocity S-wave (km/s) = 3.26023 3.61125 3.44022
# Velocity P-wave (km/s) = 7.19555 7.43847 7.31802
#
# Compressibility (1/GPa) = 0.01351398
#
# Stress axis : x y z
#
# Youngs Moduli (GPa) = 93.37961 87.77161 88.12853
#
# Poissons Ratio (x) = 0.35697 0.26726
# Poissons Ratio (y) = 0.37978 0.25275
# Poissons Ratio (z) = 0.28318 0.25173
#
# Static dielectric constant tensor:
#      x y z
#    x 1.659220 0.000000 0.000000 
#    y 0.000000 1.735400 0.000000 
#    z 0.000000 0.000000 1.705680 
# 
# From -- ./inp_files/25724.got.cif
#   From: 2010.05.17/outbox.cif.g08.bks.cpg/sg69_13_cif.got.tgz:25724.got - 2010.06.03 19:29:58.
