data_PCOD9513547
_publ_section_title
;
Structure prediction by ZEFSAII (Michael W. Deem and Ramdas Pophale) SiO2 
 PCOD9513547
Probable space group: F M M M
;
_chemical_formula_sum "Si O2"
_cell_formula_units_Z 176
_cell_length_a 17.581693
_cell_length_b 26.359958
_cell_length_c 20.477605
_cell_angle_alpha 90.000000
_cell_angle_beta 90.000000
_cell_angle_gamma 90.000000
_cell_volume 9490.401103
_symmetry_space_group_name_H-M "F M M M"
_symmetry_group_IT_number 69
_symmetry_cell_setting 'orthorhombic'
loop_
_space_group_symop_operation_xyz
x,y,z
-x,-y,z
x,-y,-z
-x,y,-z
-x,-y,-z
x,y,-z
-x,y,z
x,-y,z
x,1/2+y,1/2+z
-x,1/2-y,1/2+z
x,1/2-y,1/2-z
-x,1/2+y,1/2-z
-x,1/2-y,1/2-z
x,1/2+y,1/2-z
-x,1/2+y,1/2+z
x,1/2-y,1/2+z
1/2+x,y,1/2+z
1/2-x,-y,1/2+z
1/2+x,-y,1/2-z
1/2-x,y,1/2-z
1/2-x,-y,1/2-z
1/2+x,y,1/2-z
1/2-x,y,1/2+z
1/2+x,-y,1/2+z
1/2+x,1/2+y,z
1/2-x,1/2-y,z
1/2+x,1/2-y,-z
1/2-x,1/2+y,-z
1/2-x,1/2-y,-z
1/2+x,1/2+y,-z
1/2-x,1/2+y,z
1/2+x,1/2-y,z
loop_
_atom_site_type_symbol
_atom_site_label
_atom_site_fract_x
_atom_site_fract_y
_atom_site_fract_z
Si Si1 0.000000 0.939432 0.078179
Si Si2 0.283946 0.440247 0.579059
Si Si3 0.591161 0.309651 0.755708
Si Si4 0.140653 0.624186 0.376288
Si Si5 0.589622 0.869639 0.120853
Si Si6 0.837893 0.191092 0.000000
Si Si7 0.154267 0.192643 0.500000
O O1 0.927191 0.915686 0.113732
O O2 0.000000 0.000000 0.082805
O O3 0.000000 0.927058 0.000000
O O4 0.283781 0.431360 0.500000
O O5 0.271461 0.500000 0.588752
O O6 0.218399 0.406651 0.612473
O O7 0.362282 0.420794 0.610582
O O8 0.500000 0.310103 0.770085
O O9 0.613647 0.250000 0.750000
O O10 0.633189 0.342025 0.811547
O O11 0.603338 0.339678 0.688155
O O12 0.133853 0.662883 0.436203
O O13 0.500000 0.878762 0.114619
O O14 0.619754 0.833886 0.063106
O O15 0.864575 0.248455 0.000000
O O16 0.745834 0.189001 0.000000
#
# Coordination Sequence:
#
# PCOD9513547 Si02
#       7
#    16  32  32  32  32  16  16
#     4  11  22  36  61  94 124 163 210 255 309 371
#     4  11  23  42  67  93 124 161 206 269 328 371
#     4  10  23  41  62  91 131 171 206 251 311 374
#     4  12  20  41  61  91 126 164 207 252 310 380
#     4  11  22  42  64  90 123 165 213 263 311 374
#     4  11  22  35  63  92 127 155 204 257 312 374
#     4  11  21  40  59  92 124 158 204 264 312 369
#
# _framework density 18.545054
#
# number of rings (size 3 to 8) (size 9 to 14) (size 15 to 20)
#    0.000    1.000    5.455    1.909    0.000    2.545 
#    3.273    4.545    0.000    0.000    0.000    0.000 
#    0.000    0.000    0.000    0.000    0.000    0.000 
#
# Total GULP energy -245800.196910 kJ/mol
# GULP energy per Si atom -5586.368112 kJ/mol
# Density = 1.850284 g / cm^3
# Si number density = 18.545054 Si / 1000 Ang^3
#
#
#
# Elastic Constant Matrix: (Units=GPa)
#
#
# Indices 1 2 3 4 5 6 
#
# 1 58.9595 24.0122 35.3378 0.0000 0.0000 0.0000
# 2 24.0122 126.1896 48.1920 0.0000 0.0000 0.0000
# 3 35.3378 48.1920 116.1260 0.0000 0.0000 0.0000
# 4 0.0000 0.0000 0.0000 867.6880 0.0000 0.0000
# 5 0.0000 0.0000 0.0000 0.0000 16.2746 0.0000
# 6 0.0000 0.0000 0.0000 0.0000 0.0000 15.5026
#
#
#
# Elastic Compliance Matrix: (Units=1/GPa)
#
#
# Indices 1 2 3 4 5 6 
#
# 1 0.021104 -0.001858 -0.005651 0.000000 0.000000 0.000000
# 2 -0.001858 0.009581 -0.003411 0.000000 0.000000 0.000000
# 3 -0.005651 -0.003411 0.011746 0.000000 0.000000 0.000000
# 4 0.000000 0.000000 0.000000 0.001152 0.000000 0.000000
# 5 0.000000 0.000000 0.000000 0.000000 0.061445 0.000000
# 6 0.000000 0.000000 0.000000 0.000000 0.000000 0.064505
#
#
# Mechanical properties :
#
#
# Convention : Reuss Voigt Hill
#
# Bulk Modulus (GPa) = 48.56164 57.37322 52.96743
# Shear Modulus (GPa) = 25.22222 192.80859 109.01541
#
# Velocity S-wave (km/s) = 3.69189 10.20752 7.67540
# Velocity P-wave (km/s) = 6.66453 13.03568 10.35241
#
# Compressibility (1/GPa) = 0.02059238
#
# Stress axis : x y z
#
# Youngs Moduli (GPa) = 47.38330 104.37770 85.13212
#
# Poissons Ratio (x) = 0.19390 0.48111
# Poissons Ratio (y) = 0.08802 0.29035
# Poissons Ratio (z) = 0.26778 0.35599
#
# Static dielectric constant tensor:
#      x y z
#    x 1.662220 0.000000 0.000000 
#    y 0.000000 1.631740 0.000000 
#    z 0.000000 0.000000 1.610370 
# 
# From -- ./inp_files/23322.got.cif
#   From: 2010.05.17/outbox.cif.g08.bks.cpg/sg69_12_cif.got.tgz:23322.got - 2010.06.03 19:29:58.
