data_PCOD9513240
_publ_section_title
;
Structure prediction by ZEFSAII (Michael W. Deem and Ramdas Pophale) SiO2 
 PCOD9513240
Probable space group: F M M M
;
_chemical_formula_sum "Si O2"
_cell_formula_units_Z 160
_cell_length_a 24.409313
_cell_length_b 28.174571
_cell_length_c 13.860486
_cell_angle_alpha 90.000000
_cell_angle_beta 90.000000
_cell_angle_gamma 90.000000
_cell_volume 9532.160074
_symmetry_space_group_name_H-M "F M M M"
_symmetry_group_IT_number 69
_symmetry_cell_setting 'orthorhombic'
loop_
_space_group_symop_operation_xyz
x,y,z
-x,-y,z
x,-y,-z
-x,y,-z
-x,-y,-z
x,y,-z
-x,y,z
x,-y,z
x,1/2+y,1/2+z
-x,1/2-y,1/2+z
x,1/2-y,1/2-z
-x,1/2+y,1/2-z
-x,1/2-y,1/2-z
x,1/2+y,1/2-z
-x,1/2+y,1/2+z
x,1/2-y,1/2+z
1/2+x,y,1/2+z
1/2-x,-y,1/2+z
1/2+x,-y,1/2-z
1/2-x,y,1/2-z
1/2-x,-y,1/2-z
1/2+x,y,1/2-z
1/2-x,y,1/2+z
1/2+x,-y,1/2+z
1/2+x,1/2+y,z
1/2-x,1/2-y,z
1/2+x,1/2-y,-z
1/2-x,1/2+y,-z
1/2-x,1/2-y,-z
1/2+x,1/2+y,-z
1/2-x,1/2+y,z
1/2+x,1/2-y,z
loop_
_atom_site_type_symbol
_atom_site_label
_atom_site_fract_x
_atom_site_fract_y
_atom_site_fract_z
Si Si1 0.000000 0.356707 0.879952
Si Si2 0.664514 0.725745 0.500000
Si Si3 0.893102 0.698975 0.803002
Si Si4 0.217108 0.822201 0.000000
Si Si5 0.108213 0.943380 0.112837
Si Si6 0.807790 0.372626 0.696723
Si Si7 0.500000 0.056701 0.260963
O O1 0.052317 0.329814 0.832688
O O2 0.000000 0.409832 0.833662
O O3 0.000000 0.355786 0.000000
O O4 0.634354 0.710687 0.595568
O O5 0.724166 0.702493 0.500000
O O6 0.671437 0.781836 0.500000
O O7 0.902866 0.750000 0.750000
O O8 0.849229 0.665556 0.746440
O O9 0.210015 0.851997 0.094775
O O10 0.156864 0.918953 0.172133
O O11 0.052581 0.932969 0.171528
O O12 0.114798 0.000000 0.110994
O O13 0.105933 0.927256 0.000000
O O14 0.750000 0.380577 0.750000
O O15 0.500000 0.000000 0.238199
#
# Coordination Sequence:
#
# PCOD9513240 Si02
#       7
#    16  16  32  16  32  32  16
#     4  12  25  41  63  85 116 161 197 240 298 350
#     4  11  22  37  60  84 119 155 202 246 279 338
#     4  12  24  40  59  86 120 158 200 240 289 347
#     4  11  22  36  57  90 117 154 203 245 280 342
#     4  10  21  39  64  90 118 150 191 244 300 354
#     4  12  23  36  61  89 118 157 199 240 291 347
#     4  10  21  40  66  94 115 144 194 246 297 356
#
# _framework density 16.785283
#
# number of rings (size 3 to 8) (size 9 to 14) (size 15 to 20)
#    0.000    0.800    8.000    0.600    0.000    2.200 
#    0.000    0.000    0.000    0.000    0.000    0.000 
#    0.000    0.000    0.000    0.000    0.000    0.000 
#
# Total GULP energy -222978.787072 kJ/mol
# GULP energy per Si atom -5574.469677 kJ/mol
# Density = 1.674708 g / cm^3
# Si number density = 16.785283 Si / 1000 Ang^3
#
#
#
# Elastic Constant Matrix: (Units=GPa)
#
#
# Indices 1 2 3 4 5 6 
#
# 1 136.9512 55.4539 67.7506 0.0000 0.0000 0.0000
# 2 55.4539 69.2722 52.3714 0.0000 0.0000 0.0000
# 3 67.7506 52.3714 143.1301 0.0000 0.0000 0.0000
# 4 0.0000 0.0000 0.0000 40.9650 0.0000 0.0000
# 5 0.0000 0.0000 0.0000 0.0000 30.4484 0.0000
# 6 0.0000 0.0000 0.0000 0.0000 0.0000 31.0636
#
#
#
# Elastic Compliance Matrix: (Units=1/GPa)
#
#
# Indices 1 2 3 4 5 6 
#
# 1 0.011612 -0.007106 -0.002897 0.000000 0.000000 0.000000
# 2 -0.007106 0.024305 -0.005530 0.000000 0.000000 0.000000
# 3 -0.002897 -0.005530 0.010381 0.000000 0.000000 0.000000
# 4 0.000000 0.000000 0.000000 0.024411 0.000000 0.000000
# 5 0.000000 0.000000 0.000000 0.000000 0.032842 0.000000
# 6 0.000000 0.000000 0.000000 0.000000 0.000000 0.032192
#
#
# Mechanical properties :
#
#
# Convention : Reuss Voigt Hill
#
# Bulk Modulus (GPa) = 65.64328 77.83393 71.73861
# Shear Modulus (GPa) = 29.08918 32.08055 30.58486
#
# Velocity S-wave (km/s) = 4.16747 4.37651 4.27327
# Velocity P-wave (km/s) = 7.89618 8.48584 8.19631
#
# Compressibility (1/GPa) = 0.01523385
#
# Stress axis : x y z
#
# Youngs Moduli (GPa) = 86.11698 41.14436 96.33001
#
# Poissons Ratio (x) = 0.29237 0.27902
# Poissons Ratio (y) = 0.61194 0.53266
# Poissons Ratio (z) = 0.24944 0.22751
#
# Static dielectric constant tensor:
#      x y z
#    x 1.575400 0.000000 0.000000 
#    y 0.000000 1.580680 0.000000 
#    z 0.000000 0.000000 1.529580 
# 
# From -- ./inp_files/10598.got.cif
#   From: 2010.05.17/outbox.cif.g08.bks.cpg/sg69_6_cif.got.tgz:10598.got - 2010.06.03 19:29:58.
