data_PCOD9513883
_publ_section_title
;
Structure prediction by ZEFSAII (Michael W. Deem and Ramdas Pophale) SiO2 
 PCOD9513883
Probable space group: F M M M
;
_chemical_formula_sum "Si O2"
_cell_formula_units_Z 96
_cell_length_a 8.228605
_cell_length_b 20.932469
_cell_length_c 25.453650
_cell_angle_alpha 90.000000
_cell_angle_beta 90.000000
_cell_angle_gamma 90.000000
_cell_volume 4384.264430
_symmetry_space_group_name_H-M "F M M M"
_symmetry_group_IT_number 69
_symmetry_cell_setting 'orthorhombic'
loop_
_space_group_symop_operation_xyz
x,y,z
-x,-y,z
x,-y,-z
-x,y,-z
-x,-y,-z
x,y,-z
-x,y,z
x,-y,z
x,1/2+y,1/2+z
-x,1/2-y,1/2+z
x,1/2-y,1/2-z
-x,1/2+y,1/2-z
-x,1/2-y,1/2-z
x,1/2+y,1/2-z
-x,1/2+y,1/2+z
x,1/2-y,1/2+z
1/2+x,y,1/2+z
1/2-x,-y,1/2+z
1/2+x,-y,1/2-z
1/2-x,y,1/2-z
1/2-x,-y,1/2-z
1/2+x,y,1/2-z
1/2-x,y,1/2+z
1/2+x,-y,1/2+z
1/2+x,1/2+y,z
1/2-x,1/2-y,z
1/2+x,1/2-y,-z
1/2-x,1/2+y,-z
1/2-x,1/2-y,-z
1/2+x,1/2+y,-z
1/2-x,1/2+y,z
1/2+x,1/2-y,z
loop_
_atom_site_type_symbol
_atom_site_label
_atom_site_fract_x
_atom_site_fract_y
_atom_site_fract_z
Si Si1 0.303666 0.359884 0.690143
Si Si2 0.805286 0.500000 0.190050
Si Si3 0.305352 0.682072 0.580252
Si Si4 0.694107 0.074668 0.500000
O O1 0.500000 0.358827 0.691906
O O2 0.250000 0.345898 0.750000
O O3 0.247922 0.431090 0.672213
O O4 0.246501 0.318987 0.640948
O O5 0.750000 0.500000 0.250000
O O6 0.000000 0.500000 0.185185
O O7 0.500000 0.680200 0.579607
O O8 0.250000 0.750000 0.557563
O O9 0.247922 0.619120 0.549078
O O10 0.500000 0.071336 0.500000
O O11 0.754395 0.000000 0.500000
#
# Coordination Sequence:
#
# PCOD9513883 Si02
#       4
#    32  16  32  16
#     4   9  19  34  57  88 124 166 209 255 307 368
#     4   8  14  28  48  75 110 149 197 246 294 350
#     4  11  24  42  66  94 129 172 213 260 315 377
#     4  11  26  47  70  97 125 157 206 267 324 381
#
# _framework density 21.89649
#
# number of rings (size 3 to 8) (size 9 to 14) (size 15 to 20)
#    0.000    2.167    0.000    2.000    2.333    4.667 
#    0.000    3.333    0.000    0.000    0.000    0.000 
#    0.000    0.000    0.000    0.000    0.000    0.000 
#
# Total GULP energy -133676.495921 kJ/mol
# GULP energy per Si atom -5569.853997 kJ/mol
# Density = 2.184665 g / cm^3
# Si number density = 21.896490 Si / 1000 Ang^3
#
#
#
# Elastic Constant Matrix: (Units=GPa)
#
#
# Indices 1 2 3 4 5 6 
#
# 1 38.3385 21.5889 18.8168 0.0000 0.0000 0.0000
# 2 21.5889 196.4793 81.6036 0.0000 0.0000 0.0000
# 3 18.8168 81.6036 167.0410 0.0000 0.0000 0.0000
# 4 0.0000 0.0000 0.0000 -74.3504 0.0000 0.0000
# 5 0.0000 0.0000 0.0000 0.0000 22.1770 0.0000
# 6 0.0000 0.0000 0.0000 0.0000 0.0000 22.1656
#
#
#
# Elastic Compliance Matrix: (Units=1/GPa)
#
#
# Indices 1 2 3 4 5 6 
#
# 1 0.028379 -0.002246 -0.002099 0.000000 0.000000 0.000000
# 2 -0.002246 0.006563 -0.002953 0.000000 0.000000 0.000000
# 3 -0.002099 -0.002953 0.007666 0.000000 0.000000 0.000000
# 4 0.000000 0.000000 0.000000 -0.013450 0.000000 0.000000
# 5 0.000000 0.000000 0.000000 0.000000 0.045092 0.000000
# 6 0.000000 0.000000 0.000000 0.000000 0.000000 0.045115
#
#
# Mechanical properties :
#
#
# Convention : Reuss Voigt Hill
#
# Bulk Modulus (GPa) = 35.70185 71.76417 53.73301
# Shear Modulus (GPa) = 34.89220 12.65507 23.77364
#
# Velocity S-wave (km/s) = 3.99621 2.40667 3.29861
# Velocity P-wave (km/s) = 6.13458 6.36931 6.25305
#
# Compressibility (1/GPa) = 0.02800975
#
# Stress axis : x y z
#
# Youngs Moduli (GPa) = 35.23763 152.37108 130.45092
#
# Poissons Ratio (x) = 0.34227 0.27387
# Poissons Ratio (y) = 0.07915 0.38524
# Poissons Ratio (z) = 0.07398 0.44997
#
# Static dielectric constant tensor:
#      x y z
#    x 1.773740 0.000000 0.000000 
#    y 0.000000 1.890280 0.000000 
#    z 0.000000 0.000000 1.815480 
# 
# From -- ./inp_files/4296.got.cif
#   From: 2010.05.17/outbox.cif.g08.bks.cpg/sg69_3_cif.got.tgz:4296.got - 2010.06.03 19:29:58.
