data_PCOD9513409
_publ_section_title
;
Structure prediction by ZEFSAII (Michael W. Deem and Ramdas Pophale) SiO2 
 PCOD9513409
Probable space group: F M M M
;
_chemical_formula_sum "Si O2"
_cell_formula_units_Z 120
_cell_length_a 26.569989
_cell_length_b 12.688907
_cell_length_c 18.576749
_cell_angle_alpha 90.000000
_cell_angle_beta 90.000000
_cell_angle_gamma 90.000000
_cell_volume 6263.041683
_symmetry_space_group_name_H-M "F M M M"
_symmetry_group_IT_number 69
_symmetry_cell_setting 'orthorhombic'
loop_
_space_group_symop_operation_xyz
x,y,z
-x,-y,z
x,-y,-z
-x,y,-z
-x,-y,-z
x,y,-z
-x,y,z
x,-y,z
x,1/2+y,1/2+z
-x,1/2-y,1/2+z
x,1/2-y,1/2-z
-x,1/2+y,1/2-z
-x,1/2-y,1/2-z
x,1/2+y,1/2-z
-x,1/2+y,1/2+z
x,1/2-y,1/2+z
1/2+x,y,1/2+z
1/2-x,-y,1/2+z
1/2+x,-y,1/2-z
1/2-x,y,1/2-z
1/2-x,-y,1/2-z
1/2+x,y,1/2-z
1/2-x,y,1/2+z
1/2+x,-y,1/2+z
1/2+x,1/2+y,z
1/2-x,1/2-y,z
1/2+x,1/2-y,-z
1/2-x,1/2+y,-z
1/2-x,1/2-y,-z
1/2+x,1/2+y,-z
1/2-x,1/2+y,z
1/2+x,1/2-y,z
loop_
_atom_site_type_symbol
_atom_site_label
_atom_site_fract_x
_atom_site_fract_y
_atom_site_fract_z
Si Si1 0.500000 0.231114 0.000000
Si Si2 0.310817 0.875212 0.000000
Si Si3 0.387611 0.804104 0.500000
Si Si4 0.844181 0.877345 0.152240
Si Si5 0.419479 0.250000 0.250000
Si Si6 0.250000 0.250000 0.380202
Si Si7 0.500000 0.626289 0.655239
O O1 0.551947 0.298307 0.000000
O O2 0.500000 0.161236 0.072159
O O3 0.279296 0.832712 0.931734
O O4 0.364069 0.814125 0.000000
O O5 0.315845 0.000000 0.000000
O O6 0.364707 0.858536 0.570918
O O7 0.885367 0.829040 0.204741
O O8 0.792560 0.813259 0.161452
O O9 0.836329 0.000000 0.164434
O O10 0.453028 0.319054 0.304457
O O11 0.500000 0.500000 0.662632
#
# Coordination Sequence:
#
# PCOD9513409 Si02
#       7
#     8  16  16  32  16  16  16
#     4  12  21  44  63  96 126 150 209 266 303 364
#     4   9  17  33  56  85 122 160 196 253 315 361
#     4  10  22  39  62  94 125 154 211 261 306 369
#     4  11  22  42  66  90 126 167 204 260 314 362
#     4  11  24  43  62  92 130 163 216 251 302 388
#     4   9  20  35  58  90 120 156 212 254 298 374
#     4  11  24  43  66  90 126 171 204 257 320 366
#
# _framework density 19.160018999999998
#
# number of rings (size 3 to 8) (size 9 to 14) (size 15 to 20)
#    0.000    1.600    2.667    3.000    0.000    1.600 
#    0.000    8.000    0.000    0.000    0.000    0.000 
#    0.000    0.000    0.000    0.000    0.000    0.000 
#
# Total GULP energy -167656.638591 kJ/mol
# GULP energy per Si atom -5588.554620 kJ/mol
# Density = 1.911641 g / cm^3
# Si number density = 19.160019 Si / 1000 Ang^3
#
#
#
# Elastic Constant Matrix: (Units=GPa)
#
#
# Indices 1 2 3 4 5 6 
#
# 1 149.8909 60.0435 44.4605 0.0000 0.0000 0.0000
# 2 60.0435 158.9128 46.4093 0.0000 0.0000 0.0000
# 3 44.4605 46.4093 111.4322 0.0000 0.0000 0.0000
# 4 0.0000 0.0000 0.0000 5.2653 0.0000 0.0000
# 5 0.0000 0.0000 0.0000 0.0000 29.1998 0.0000
# 6 0.0000 0.0000 0.0000 0.0000 0.0000 12.3100
#
#
#
# Elastic Compliance Matrix: (Units=1/GPa)
#
#
# Indices 1 2 3 4 5 6 
#
# 1 0.008347 -0.002483 -0.002296 0.000000 0.000000 0.000000
# 2 -0.002483 0.007903 -0.002301 0.000000 0.000000 0.000000
# 3 -0.002296 -0.002301 0.010848 0.000000 0.000000 0.000000
# 4 0.000000 0.000000 0.000000 0.189923 0.000000 0.000000
# 5 0.000000 0.000000 0.000000 0.000000 0.034247 0.000000
# 6 0.000000 0.000000 0.000000 0.000000 0.000000 0.081234
#
#
# Mechanical properties :
#
#
# Convention : Reuss Voigt Hill
#
# Bulk Modulus (GPa) = 77.28973 80.22914 78.75943
# Shear Modulus (GPa) = 14.24599 27.30986 20.77793
#
# Velocity S-wave (km/s) = 2.72973 3.77949 3.29666
# Velocity P-wave (km/s) = 7.09661 7.81090 7.46230
#
# Compressibility (1/GPa) = 0.01293833
#
# Stress axis : x y z
#
# Youngs Moduli (GPa) = 119.79728 126.53519 92.17946
#
# Poissons Ratio (x) = 0.31423 0.21167
# Poissons Ratio (y) = 0.29750 0.21207
# Poissons Ratio (z) = 0.27509 0.29110
#
# Static dielectric constant tensor:
#      x y z
#    x 1.669510 0.000000 0.000000 
#    y 0.000000 1.611010 0.000000 
#    z 0.000000 0.000000 1.658850 
# 
# From -- ./inp_files/32420.got.cif
#   From: 2010.05.17/outbox.cif.g08.bks.cpg/sg69_17_cif.got.tgz:32420.got - 2010.06.03 19:29:58.
