data_PCOD9513832
_publ_section_title
;
Structure prediction by ZEFSAII (Michael W. Deem and Ramdas Pophale) SiO2 
 PCOD9513832
Probable space group: F M M M
;
_chemical_formula_sum "Si O2"
_cell_formula_units_Z 144
_cell_length_a 8.247389
_cell_length_b 32.995740
_cell_length_c 27.989968
_cell_angle_alpha 90.000000
_cell_angle_beta 90.000000
_cell_angle_gamma 90.000000
_cell_volume 7616.873692
_symmetry_space_group_name_H-M "F M M M"
_symmetry_group_IT_number 69
_symmetry_cell_setting 'orthorhombic'
loop_
_space_group_symop_operation_xyz
x,y,z
-x,-y,z
x,-y,-z
-x,y,-z
-x,-y,-z
x,y,-z
-x,y,z
x,-y,z
x,1/2+y,1/2+z
-x,1/2-y,1/2+z
x,1/2-y,1/2-z
-x,1/2+y,1/2-z
-x,1/2-y,1/2-z
x,1/2+y,1/2-z
-x,1/2+y,1/2+z
x,1/2-y,1/2+z
1/2+x,y,1/2+z
1/2-x,-y,1/2+z
1/2+x,-y,1/2-z
1/2-x,y,1/2-z
1/2-x,-y,1/2-z
1/2+x,y,1/2-z
1/2-x,y,1/2+z
1/2+x,-y,1/2+z
1/2+x,1/2+y,z
1/2-x,1/2-y,z
1/2+x,1/2-y,-z
1/2-x,1/2+y,-z
1/2-x,1/2-y,-z
1/2+x,1/2+y,-z
1/2-x,1/2+y,z
1/2+x,1/2-y,z
loop_
_atom_site_type_symbol
_atom_site_label
_atom_site_fract_x
_atom_site_fract_y
_atom_site_fract_z
Si Si1 0.304738 0.122575 0.197583
Si Si2 0.697729 0.332242 0.553132
Si Si3 0.806844 0.500000 0.554163
Si Si4 0.804505 0.416560 0.099958
Si Si5 0.195185 0.705825 0.848373
O O1 0.500000 0.122824 0.196694
O O2 0.250000 0.110489 0.250000
O O3 0.250107 0.094134 0.153833
O O4 0.249088 0.168279 0.184313
O O5 0.754425 0.321322 0.500000
O O6 0.500000 0.331268 0.552778
O O7 0.744974 0.378309 0.566982
O O8 0.750757 0.304135 0.597268
O O9 0.740496 0.500000 0.500000
O O10 0.753688 0.540729 0.580738
O O11 0.000000 0.500000 0.551792
O O12 0.000000 0.416836 0.099895
O O13 0.250000 0.750000 0.832900
O O14 0.000000 0.704962 0.848602
#
# Coordination Sequence:
#
# PCOD9513832 Si02
#       5
#    32  32  16  32  32
#     4   9  19  35  54  75  98 127 166 210 252 295
#     4   8  14  27  48  70  93 125 164 204 243 285
#     4  11  23  35  50  79 114 137 156 193 244 291
#     4   9  18  34  55  76  97 128 172 209 239 289
#     4   9  18  31  46  69  99 127 161 204 246 292
#
# _framework density 18.905394000000001
#
# number of rings (size 3 to 8) (size 9 to 14) (size 15 to 20)
#    0.000    3.000    0.000    3.667    0.000    4.444 
#    0.000    6.111    0.000    1.333    0.000    0.000 
#    0.000    0.000    0.000    0.000    0.000    0.000 
#
# Total GULP energy -200713.183756 kJ/mol
# GULP energy per Si atom -5575.366215 kJ/mol
# Density = 1.886236 g / cm^3
# Si number density = 18.905394 Si / 1000 Ang^3
#
#
#
# Elastic Constant Matrix: (Units=GPa)
#
#
# Indices 1 2 3 4 5 6 
#
# 1 6.5673 8.2724 9.3272 0.0000 0.0000 0.0000
# 2 8.2724 97.8354 26.9036 0.0000 0.0000 0.0000
# 3 9.3272 26.9036 108.5207 0.0000 0.0000 0.0000
# 4 0.0000 0.0000 0.0000 8.9988 0.0000 0.0000
# 5 0.0000 0.0000 0.0000 0.0000 16.3325 0.0000
# 6 0.0000 0.0000 0.0000 0.0000 0.0000 18.0440
#
#
#
# Elastic Compliance Matrix: (Units=1/GPa)
#
#
# Indices 1 2 3 4 5 6 
#
# 1 0.186011 -0.012161 -0.012973 0.000000 0.000000 0.000000
# 2 -0.012161 0.011764 -0.001871 0.000000 0.000000 0.000000
# 3 -0.012973 -0.001871 0.010794 0.000000 0.000000 0.000000
# 4 0.000000 0.000000 0.000000 0.111125 0.000000 0.000000
# 5 0.000000 0.000000 0.000000 0.000000 0.061228 0.000000
# 6 0.000000 0.000000 0.000000 0.000000 0.000000 0.055420
#
#
# Mechanical properties :
#
#
# Convention : Reuss Voigt Hill
#
# Bulk Modulus (GPa) = 6.46999 33.54777 20.00888
# Shear Modulus (GPa) = 9.22729 19.90309 14.56519
#
# Velocity S-wave (km/s) = 2.21164 3.24817 2.77866
# Velocity P-wave (km/s) = 3.15461 5.64367 4.57179
#
# Compressibility (1/GPa) = 0.15455970
#
# Stress axis : x y z
#
# Youngs Moduli (GPa) = 5.37603 85.00468 92.64656
#
# Poissons Ratio (x) = 1.03372 1.20186
# Poissons Ratio (y) = 0.06538 0.17337
# Poissons Ratio (z) = 0.06974 0.15907
#
# Static dielectric constant tensor:
#      x y z
#    x 1.666210 0.000000 0.000000 
#    y 0.000000 1.631930 0.000000 
#    z 0.000000 0.000000 1.666840 
# 
# From -- ./inp_files/5563.got.cif
#   From: 2010.05.17/outbox.cif.g08.bks.cpg/sg69_3_cif.got.tgz:5563.got - 2010.06.03 19:29:58.
