data_PCOD9513575
_publ_section_title
;
Structure prediction by ZEFSAII (Michael W. Deem and Ramdas Pophale) SiO2 
 PCOD9513575
Probable space group: F M M M
;
_chemical_formula_sum "Si O2"
_cell_formula_units_Z 176
_cell_length_a 24.135107
_cell_length_b 14.218906
_cell_length_c 24.424955
_cell_angle_alpha 90.000000
_cell_angle_beta 90.000000
_cell_angle_gamma 90.000000
_cell_volume 8382.029480
_symmetry_space_group_name_H-M "F M M M"
_symmetry_group_IT_number 69
_symmetry_cell_setting 'orthorhombic'
loop_
_space_group_symop_operation_xyz
x,y,z
-x,-y,z
x,-y,-z
-x,y,-z
-x,-y,-z
x,y,-z
-x,y,z
x,-y,z
x,1/2+y,1/2+z
-x,1/2-y,1/2+z
x,1/2-y,1/2-z
-x,1/2+y,1/2-z
-x,1/2-y,1/2-z
x,1/2+y,1/2-z
-x,1/2+y,1/2+z
x,1/2-y,1/2+z
1/2+x,y,1/2+z
1/2-x,-y,1/2+z
1/2+x,-y,1/2-z
1/2-x,y,1/2-z
1/2-x,-y,1/2-z
1/2+x,y,1/2-z
1/2-x,y,1/2+z
1/2+x,-y,1/2+z
1/2+x,1/2+y,z
1/2-x,1/2-y,z
1/2+x,1/2-y,-z
1/2-x,1/2+y,-z
1/2-x,1/2-y,-z
1/2+x,1/2+y,-z
1/2-x,1/2+y,z
1/2+x,1/2-y,z
loop_
_atom_site_type_symbol
_atom_site_label
_atom_site_fract_x
_atom_site_fract_y
_atom_site_fract_z
Si Si1 0.664622 0.110145 0.108558
Si Si2 0.062271 0.740750 0.885884
Si Si3 0.811255 0.360466 0.763460
Si Si4 0.784001 0.885622 0.937293
Si Si5 0.500000 0.897740 0.437400
Si Si6 0.626025 0.106093 0.657434
O O1 0.608803 0.168160 0.095824
O O2 0.674012 0.119992 0.173884
O O3 0.721328 0.144429 0.079307
O O4 0.657371 0.000000 0.095105
O O5 0.051900 0.830161 0.925613
O O6 0.084541 0.805124 0.836599
O O7 0.000000 0.700929 0.877785
O O8 0.811603 0.250000 0.750000
O O9 0.750000 0.394875 0.750000
O O10 0.849815 0.403278 0.717663
O O11 0.827349 0.863068 0.888102
O O12 0.782958 0.000000 0.937739
O O13 0.797602 0.855543 0.000000
O O14 0.500000 0.913294 0.500000
O O15 0.500000 0.000000 0.409824
O O16 0.607375 0.000000 0.641415
#
# Coordination Sequence:
#
# PCOD9513575 Si02
#       6
#    32  32  32  32  16  32
#     4  11  22  40  65  92 127 170 212 257 318 384
#     4  10  24  41  60  88 126 164 211 264 308 362
#     4  11  21  36  63  92 129 162 208 263 321 390
#     4   9  20  37  60  93 128 161 200 252 318 386
#     4   9  20  42  69  92 119 163 217 267 312 359
#     4  11  21  37  64  93 124 162 205 257 324 385
#
# _framework density 20.997301
#
# number of rings (size 3 to 8) (size 9 to 14) (size 15 to 20)
#    0.545    1.182    3.636    1.091    0.000    3.273 
#    0.000    4.545    0.000    2.727    0.000    0.000 
#    0.000    0.000    0.000    0.000    0.000    0.000 
#
# Total GULP energy -244961.173246 kJ/mol
# GULP energy per Si atom -5567.299392 kJ/mol
# Density = 2.094951 g / cm^3
# Si number density = 20.997301 Si / 1000 Ang^3
#
#
#
# Elastic Constant Matrix: (Units=GPa)
#
#
# Indices 1 2 3 4 5 6 
#
# 1 93.9481 25.3812 10.6068 0.0000 0.0000 0.0000
# 2 25.3812 99.4990 -11.7498 0.0000 0.0000 0.0000
# 3 10.6068 -11.7498 83.4045 0.0000 0.0000 0.0000
# 4 0.0000 0.0000 0.0000 139.4134 0.0000 0.0000
# 5 0.0000 0.0000 0.0000 0.0000 14.8018 0.0000
# 6 0.0000 0.0000 0.0000 0.0000 0.0000 28.1152
#
#
#
# Elastic Compliance Matrix: (Units=1/GPa)
#
#
# Indices 1 2 3 4 5 6 
#
# 1 0.011735 -0.003223 -0.001946 0.000000 0.000000 0.000000
# 2 -0.003223 0.011106 0.001974 0.000000 0.000000 0.000000
# 3 -0.001946 0.001974 0.012515 0.000000 0.000000 0.000000
# 4 0.000000 0.000000 0.000000 0.007173 0.000000 0.000000
# 5 0.000000 0.000000 0.000000 0.000000 0.067559 0.000000
# 6 0.000000 0.000000 0.000000 0.000000 0.000000 0.035568
#
#
# Mechanical properties :
#
#
# Convention : Reuss Voigt Hill
#
# Bulk Modulus (GPa) = 34.52387 36.14754 35.33570
# Shear Modulus (GPa) = 30.92112 53.30698 42.11405
#
# Velocity S-wave (km/s) = 3.84164 5.04407 4.48335
# Velocity P-wave (km/s) = 6.01293 7.15376 6.60801
#
# Compressibility (1/GPa) = 0.02896547
#
# Stress axis : x y z
#
# Youngs Moduli (GPa) = 85.21708 90.04354 79.90123
#
# Poissons Ratio (x) = 0.29023 0.15552
# Poissons Ratio (y) = 0.27468 -0.15776
# Poissons Ratio (z) = 0.16587 -0.17779
#
# Static dielectric constant tensor:
#      x y z
#    x 2.592550 0.000000 0.000000 
#    y 0.000000 1.809940 0.000000 
#    z 0.000000 0.000000 1.707020 
# 
# From -- ./inp_files/43170.got.cif
#   From: 2010.05.17/outbox.cif.g08.bks.cpg/sg69_22_cif.got.tgz:43170.got - 2010.06.03 19:29:58.
