data_PCOD9513199
_publ_section_title
;
Structure prediction by ZEFSAII (Michael W. Deem and Ramdas Pophale) SiO2 
 PCOD9513199
Probable space group: F M M M
;
_chemical_formula_sum "Si O2"
_cell_formula_units_Z 168
_cell_length_a 18.160237
_cell_length_b 27.874291
_cell_length_c 14.413623
_cell_angle_alpha 90.000000
_cell_angle_beta 90.000000
_cell_angle_gamma 90.000000
_cell_volume 7296.229736
_symmetry_space_group_name_H-M "F M M M"
_symmetry_group_IT_number 69
_symmetry_cell_setting 'orthorhombic'
loop_
_space_group_symop_operation_xyz
x,y,z
-x,-y,z
x,-y,-z
-x,y,-z
-x,-y,-z
x,y,-z
-x,y,z
x,-y,z
x,1/2+y,1/2+z
-x,1/2-y,1/2+z
x,1/2-y,1/2-z
-x,1/2+y,1/2-z
-x,1/2-y,1/2-z
x,1/2+y,1/2-z
-x,1/2+y,1/2+z
x,1/2-y,1/2+z
1/2+x,y,1/2+z
1/2-x,-y,1/2+z
1/2+x,-y,1/2-z
1/2-x,y,1/2-z
1/2-x,-y,1/2-z
1/2+x,y,1/2-z
1/2-x,y,1/2+z
1/2+x,-y,1/2+z
1/2+x,1/2+y,z
1/2-x,1/2-y,z
1/2+x,1/2-y,-z
1/2-x,1/2+y,-z
1/2-x,1/2-y,-z
1/2+x,1/2+y,-z
1/2-x,1/2+y,z
1/2+x,1/2-y,z
loop_
_atom_site_type_symbol
_atom_site_label
_atom_site_fract_x
_atom_site_fract_y
_atom_site_fract_z
Si Si1 0.279777 0.345802 0.145641
Si Si2 0.135393 0.500000 0.000000
Si Si3 0.687157 0.551198 0.170643
Si Si4 0.120121 0.175049 0.603801
Si Si5 0.414325 0.569647 0.335407
Si Si6 0.918708 0.720049 0.387124
O O1 0.250000 0.349421 0.250000
O O2 0.299393 0.399985 0.115052
O O3 0.208736 0.323636 0.097016
O O4 0.351474 0.313193 0.142263
O O5 0.128863 0.458260 0.917132
O O6 0.689825 0.500000 0.119822
O O7 0.750000 0.549774 0.250000
O O8 0.614142 0.555304 0.233678
O O9 0.089280 0.170627 0.500000
O O10 0.098516 0.126526 0.655566
O O11 0.092861 0.225097 0.645106
O O12 0.500000 0.558375 0.349178
O O13 0.916078 0.721430 0.500000
O O14 0.000000 0.702806 0.359649
#
# Coordination Sequence:
#
# PCOD9513199 Si02
#       6
#    32   8  32  32  32  32
#     4  11  22  41  61  92 122 162 202 253 311 370
#     4  12  25  36  58  92 128 160 193 256 313 366
#     4  10  21  39  59  80 120 161 200 242 293 362
#     4  11  22  39  61  89 121 163 204 250 306 368
#     4  12  22  36  57  87 121 157 200 246 303 365
#     4  10  23  43  66  89 119 164 214 262 310 364
#
# _framework density 23.025592
#
# number of rings (size 3 to 8) (size 9 to 14) (size 15 to 20)
#    0.000    1.143    5.714    2.571    0.000    4.571 
#    0.000    0.952    0.000    1.714    0.000    1.333 
#    0.000    0.000    0.000    0.000    0.000    0.000 
#
# Total GULP energy -234367.449152 kJ/mol
# GULP energy per Si atom -5580.177361 kJ/mol
# Density = 2.297318 g / cm^3
# Si number density = 23.025592 Si / 1000 Ang^3
#
#
#
# Elastic Constant Matrix: (Units=GPa)
#
#
# Indices 1 2 3 4 5 6 
#
# 1 116.5067 55.8101 9.5165 0.0000 0.0000 0.0000
# 2 55.8101 159.8653 -1.1551 0.0000 0.0000 0.0000
# 3 9.5165 -1.1551 48.8041 0.0000 0.0000 0.0000
# 4 0.0000 0.0000 0.0000 2.6599 0.0000 0.0000
# 5 0.0000 0.0000 0.0000 0.0000 12.9911 0.0000
# 6 0.0000 0.0000 0.0000 0.0000 0.0000 -3.3221
#
#
#
# Elastic Compliance Matrix: (Units=1/GPa)
#
#
# Indices 1 2 3 4 5 6 
#
# 1 0.010526 -0.003690 -0.002140 0.000000 0.000000 0.000000
# 2 -0.003690 0.007550 0.000898 0.000000 0.000000 0.000000
# 3 -0.002140 0.000898 0.020929 0.000000 0.000000 0.000000
# 4 0.000000 0.000000 0.000000 0.375950 0.000000 0.000000
# 5 0.000000 0.000000 0.000000 0.000000 0.076976 0.000000
# 6 0.000000 0.000000 0.000000 0.000000 0.000000 -0.301018
#
#
# Mechanical properties :
#
#
# Convention : Reuss Voigt Hill
#
# Bulk Modulus (GPa) = 34.31586 50.39101 42.35343
# Shear Modulus (GPa) = 23.75423 19.86610 21.81016
#
# Velocity S-wave (km/s) = 3.21541 2.94050 3.08102
# Velocity P-wave (km/s) = 5.35918 5.78455 5.57592
#
# Compressibility (1/GPa) = 0.02914105
#
# Stress axis : x y z
#
# Youngs Moduli (GPa) = 95.00641 132.45084 47.78152
#
# Poissons Ratio (x) = 0.48875 0.10224
# Poissons Ratio (y) = 0.35058 -0.04292
# Poissons Ratio (z) = 0.20329 -0.11897
#
# Static dielectric constant tensor:
#      x y z
#    x 1.877860 0.000000 0.000000 
#    y 0.000000 1.878160 0.000000 
#    z 0.000000 0.000000 1.942440 
# 
# From -- ./inp_files/16905.got.cif
#   From: 2010.05.17/outbox.cif.g08.bks.cpg/sg69_9_cif.got.tgz:16905.got - 2010.06.03 19:29:58.
