data_PCOD9513291
_publ_section_title
;
Structure prediction by ZEFSAII (Michael W. Deem and Ramdas Pophale) SiO2 
 PCOD9513291
Probable space group: F M M M
;
_chemical_formula_sum "Si O2"
_cell_formula_units_Z 176
_cell_length_a 25.140389
_cell_length_b 17.972258
_cell_length_c 19.065161
_cell_angle_alpha 90.000000
_cell_angle_beta 90.000000
_cell_angle_gamma 90.000000
_cell_volume 8614.203255
_symmetry_space_group_name_H-M "F M M M"
_symmetry_group_IT_number 69
_symmetry_cell_setting 'orthorhombic'
loop_
_space_group_symop_operation_xyz
x,y,z
-x,-y,z
x,-y,-z
-x,y,-z
-x,-y,-z
x,y,-z
-x,y,z
x,-y,z
x,1/2+y,1/2+z
-x,1/2-y,1/2+z
x,1/2-y,1/2-z
-x,1/2+y,1/2-z
-x,1/2-y,1/2-z
x,1/2+y,1/2-z
-x,1/2+y,1/2+z
x,1/2-y,1/2+z
1/2+x,y,1/2+z
1/2-x,-y,1/2+z
1/2+x,-y,1/2-z
1/2-x,y,1/2-z
1/2-x,-y,1/2-z
1/2+x,y,1/2-z
1/2-x,y,1/2+z
1/2+x,-y,1/2+z
1/2+x,1/2+y,z
1/2-x,1/2-y,z
1/2+x,1/2-y,-z
1/2-x,1/2+y,-z
1/2-x,1/2-y,-z
1/2+x,1/2+y,-z
1/2-x,1/2+y,z
1/2+x,1/2-y,z
loop_
_atom_site_type_symbol
_atom_site_label
_atom_site_fract_x
_atom_site_fract_y
_atom_site_fract_z
Si Si1 0.785844 0.913296 0.815901
Si Si2 0.000000 0.911774 0.079903
Si Si3 0.562901 0.084660 0.192172
Si Si4 0.227026 0.326422 0.079231
Si Si5 0.902095 0.344707 0.333915
Si Si6 0.100993 0.807091 0.580676
O O1 0.750000 0.885957 0.750000
O O2 0.747129 0.897985 0.880529
O O3 0.840843 0.872129 0.835600
O O4 0.797701 0.000000 0.804350
O O5 0.946529 0.889327 0.121523
O O6 0.000000 0.000000 0.075698
O O7 0.000000 0.881229 0.000000
O O8 0.500000 0.080573 0.201486
O O9 0.583936 0.139422 0.252854
O O10 0.575198 0.121475 0.117454
O O11 0.584492 0.000000 0.199282
O O12 0.250000 0.250000 0.112092
O O13 0.164040 0.320726 0.078903
O O14 0.247848 0.329235 0.000000
O O15 0.907335 0.263203 0.367924
O O16 0.083276 0.793873 0.500000
#
# Coordination Sequence:
#
# PCOD9513291 Si02
#       6
#    32  16  32  32  32  32
#     4  11  24  40  65 101 134 170 222 278 335 402
#     4  11  24  40  63  98 140 186 229 275 340 416
#     4  11  25  45  68  94 130 176 222 271 332 398
#     4  10  21  41  62  88 127 169 211 258 322 390
#     4  12  23  43  70  97 136 176 222 283 342 405
#     4  11  25  43  68 100 133 172 222 279 338 402
#
# _framework density 20.431373000000001
#
# number of rings (size 3 to 8) (size 9 to 14) (size 15 to 20)
#    0.000    1.000    2.727    3.818    1.273    5.091 
#    0.000    2.727    0.000    0.000    0.000    0.000 
#    0.000    0.000    0.000    0.000    0.000    0.000 
#
# Total GULP energy -245522.548374 kJ/mol
# GULP energy per Si atom -5580.057918 kJ/mol
# Density = 2.038487 g / cm^3
# Si number density = 20.431373 Si / 1000 Ang^3
#
#
#
# Elastic Constant Matrix: (Units=GPa)
#
#
# Indices 1 2 3 4 5 6 
#
# 1 54.0977 27.9983 22.3873 0.0000 0.0000 0.0000
# 2 27.9983 72.5151 58.4997 0.0000 0.0000 0.0000
# 3 22.3873 58.4997 116.9227 0.0000 0.0000 0.0000
# 4 0.0000 0.0000 0.0000 30.9185 0.0000 0.0000
# 5 0.0000 0.0000 0.0000 0.0000 34.4414 0.0000
# 6 0.0000 0.0000 0.0000 0.0000 0.0000 23.6577
#
#
#
# Elastic Compliance Matrix: (Units=1/GPa)
#
#
# Indices 1 2 3 4 5 6 
#
# 1 0.023102 -0.008973 0.000066 0.000000 0.000000 0.000000
# 2 -0.008973 0.026609 -0.011595 0.000000 0.000000 0.000000
# 3 0.000066 -0.011595 0.014341 0.000000 0.000000 0.000000
# 4 0.000000 0.000000 0.000000 0.032343 0.000000 0.000000
# 5 0.000000 0.000000 0.000000 0.000000 0.029035 0.000000
# 6 0.000000 0.000000 0.000000 0.000000 0.000000 0.042269
#
#
# Mechanical properties :
#
#
# Convention : Reuss Voigt Hill
#
# Bulk Modulus (GPa) = 43.38776 51.25622 47.32199
# Shear Modulus (GPa) = 23.10691 26.78020 24.94356
#
# Velocity S-wave (km/s) = 3.36661 3.62434 3.49785
# Velocity P-wave (km/s) = 6.03275 6.53115 6.28689
#
# Compressibility (1/GPa) = 0.02304797
#
# Stress axis : x y z
#
# Youngs Moduli (GPa) = 43.28689 37.58168 69.72865
#
# Poissons Ratio (x) = 0.33722 -0.00461
# Poissons Ratio (y) = 0.38841 0.80850
# Poissons Ratio (z) = -0.00286 0.43576
#
# Static dielectric constant tensor:
#      x y z
#    x 1.829390 0.000000 0.000000 
#    y 0.000000 1.744680 0.000000 
#    z 0.000000 0.000000 1.744970 
# 
# From -- ./inp_files/26749.got.cif
#   From: 2010.05.17/outbox.cif.g08.bks.cpg/sg69_14_cif.got.tgz:26749.got - 2010.06.03 19:29:58.
