data_PCOD9513334
_publ_section_title
;
Structure prediction by ZEFSAII (Michael W. Deem and Ramdas Pophale) SiO2 
 PCOD9513334
Probable space group: F M M M
;
_chemical_formula_sum "Si O2"
_cell_formula_units_Z 132
_cell_length_a 25.844928
_cell_length_b 15.039948
_cell_length_c 18.014878
_cell_angle_alpha 90.000000
_cell_angle_beta 90.000000
_cell_angle_gamma 90.000000
_cell_volume 7002.497891
_symmetry_space_group_name_H-M "F M M M"
_symmetry_group_IT_number 69
_symmetry_cell_setting 'orthorhombic'
loop_
_space_group_symop_operation_xyz
x,y,z
-x,-y,z
x,-y,-z
-x,y,-z
-x,-y,-z
x,y,-z
-x,y,z
x,-y,z
x,1/2+y,1/2+z
-x,1/2-y,1/2+z
x,1/2-y,1/2-z
-x,1/2+y,1/2-z
-x,1/2-y,1/2-z
x,1/2+y,1/2-z
-x,1/2+y,1/2+z
x,1/2-y,1/2+z
1/2+x,y,1/2+z
1/2-x,-y,1/2+z
1/2+x,-y,1/2-z
1/2-x,y,1/2-z
1/2-x,-y,1/2-z
1/2+x,y,1/2-z
1/2-x,y,1/2+z
1/2+x,-y,1/2+z
1/2+x,1/2+y,z
1/2-x,1/2-y,z
1/2+x,1/2-y,-z
1/2-x,1/2+y,-z
1/2-x,1/2-y,-z
1/2+x,1/2+y,-z
1/2-x,1/2+y,z
1/2+x,1/2-y,z
loop_
_atom_site_type_symbol
_atom_site_label
_atom_site_fract_x
_atom_site_fract_y
_atom_site_fract_z
Si Si1 0.438851 0.000000 0.411854
Si Si2 0.614271 0.840795 0.829610
Si Si3 0.333331 0.000000 0.087745
Si Si4 0.786338 0.500000 0.410055
Si Si5 0.136313 0.139088 0.841348
Si Si6 0.500000 0.400571 0.654292
Si Si7 0.000000 0.500000 0.000000
O O1 0.412556 0.914587 0.373847
O O2 0.500000 0.000000 0.402703
O O3 0.426693 0.000000 0.500000
O O4 0.635955 0.864209 0.747988
O O5 0.631736 0.743743 0.856430
O O6 0.552225 0.849267 0.825644
O O7 0.635946 0.915011 0.883806
O O8 0.273653 0.000000 0.112222
O O9 0.333500 0.000000 0.000000
O O10 0.790540 0.500000 0.500000
O O11 0.815473 0.413691 0.376736
O O12 0.500000 0.500000 0.690790
O O13 0.500000 0.424010 0.566603
#
# Coordination Sequence:
#
# PCOD9513334 Si02
#       7
#    16  32  16  16  32  16   4
#     4  10  22  38  56  84 115 163 205 241 286 343
#     4  11  24  38  61  96 117 165 194 245 299 354
#     4  11  24  41  65  89 120 153 203 246 307 361
#     4  10  23  45  64  86 117 161 196 255 302 347
#     4  10  23  40  62  86 124 153 204 245 292 355
#     4  10  22  37  55  87 130 159 200 231 301 347
#     4   8  20  36  48  80 120 166 190 240 280 348
#
# _framework density 18.850417
#
# number of rings (size 3 to 8) (size 9 to 14) (size 15 to 20)
#    0.364    1.333    1.212    2.909    6.788    5.818 
#    0.000    4.848    0.000    0.000    0.000    0.000 
#    0.000    0.000    0.000    0.000    0.000    0.000 
#
# Total GULP energy -183976.341097 kJ/mol
# GULP energy per Si atom -5575.040639 kJ/mol
# Density = 1.880751 g / cm^3
# Si number density = 18.850417 Si / 1000 Ang^3
#
#
#
# Elastic Constant Matrix: (Units=GPa)
#
#
# Indices 1 2 3 4 5 6 
#
# 1 126.6729 52.0804 18.1313 0.0000 0.0000 0.0000
# 2 52.0804 143.4443 43.5879 0.0000 0.0000 0.0000
# 3 18.1313 43.5879 53.7549 0.0000 0.0000 0.0000
# 4 0.0000 0.0000 0.0000 113.1224 0.0000 0.0000
# 5 0.0000 0.0000 0.0000 0.0000 33.0224 0.0000
# 6 0.0000 0.0000 0.0000 0.0000 0.0000 176.4933
#
#
#
# Elastic Compliance Matrix: (Units=1/GPa)
#
#
# Indices 1 2 3 4 5 6 
#
# 1 0.009291 -0.003213 -0.000529 0.000000 0.000000 0.000000
# 2 -0.003213 0.010361 -0.007318 0.000000 0.000000 0.000000
# 3 -0.000529 -0.007318 0.024715 0.000000 0.000000 0.000000
# 4 0.000000 0.000000 0.000000 0.008840 0.000000 0.000000
# 5 0.000000 0.000000 0.000000 0.000000 0.030282 0.000000
# 6 0.000000 0.000000 0.000000 0.000000 0.000000 0.005666
#
#
# Mechanical properties :
#
#
# Convention : Reuss Voigt Hill
#
# Bulk Modulus (GPa) = 44.94663 61.27460 53.11061
# Shear Modulus (GPa) = 42.12606 78.53244 60.32925
#
# Velocity S-wave (km/s) = 4.73245 6.46152 5.66336
# Velocity P-wave (km/s) = 7.33192 9.39386 8.42620
#
# Compressibility (1/GPa) = 0.02224861
#
# Stress axis : x y z
#
# Youngs Moduli (GPa) = 107.63278 96.51142 40.46066
#
# Poissons Ratio (x) = 0.31005 0.02140
# Poissons Ratio (y) = 0.34577 0.29610
# Poissons Ratio (z) = 0.05692 0.70629
#
# Static dielectric constant tensor:
#      x y z
#    x 1.654940 0.000000 0.000000 
#    y 0.000000 1.620090 0.000000 
#    z 0.000000 0.000000 1.657190 
# 
# From -- ./inp_files/26544.got.cif
#   From: 2010.05.17/outbox.cif.g08.bks.cpg/sg69_14_cif.got.tgz:26544.got - 2010.06.03 19:29:58.
