data_PCOD9513771
_publ_section_title
;
Structure prediction by ZEFSAII (Michael W. Deem and Ramdas Pophale) SiO2 
 PCOD9513771
Probable space group: F M M M
;
_chemical_formula_sum "Si O2"
_cell_formula_units_Z 176
_cell_length_a 24.579605
_cell_length_b 16.572041
_cell_length_c 23.211631
_cell_angle_alpha 90.000000
_cell_angle_beta 90.000000
_cell_angle_gamma 90.000000
_cell_volume 9454.891651
_symmetry_space_group_name_H-M "F M M M"
_symmetry_group_IT_number 69
_symmetry_cell_setting 'orthorhombic'
loop_
_space_group_symop_operation_xyz
x,y,z
-x,-y,z
x,-y,-z
-x,y,-z
-x,-y,-z
x,y,-z
-x,y,z
x,-y,z
x,1/2+y,1/2+z
-x,1/2-y,1/2+z
x,1/2-y,1/2-z
-x,1/2+y,1/2-z
-x,1/2-y,1/2-z
x,1/2+y,1/2-z
-x,1/2+y,1/2+z
x,1/2-y,1/2+z
1/2+x,y,1/2+z
1/2-x,-y,1/2+z
1/2+x,-y,1/2-z
1/2-x,y,1/2-z
1/2-x,-y,1/2-z
1/2+x,y,1/2-z
1/2-x,y,1/2+z
1/2+x,-y,1/2+z
1/2+x,1/2+y,z
1/2-x,1/2-y,z
1/2+x,1/2-y,-z
1/2-x,1/2+y,-z
1/2-x,1/2-y,-z
1/2+x,1/2+y,-z
1/2-x,1/2+y,z
1/2+x,1/2-y,z
loop_
_atom_site_type_symbol
_atom_site_label
_atom_site_fract_x
_atom_site_fract_y
_atom_site_fract_z
Si Si1 0.149758 0.686694 0.860884
Si Si2 0.564940 0.500000 0.069215
Si Si3 0.685051 0.908897 0.753943
Si Si4 0.261229 0.592925 0.432196
Si Si5 0.853663 0.622638 0.625710
Si Si6 0.435720 0.596012 0.435256
O O1 0.159457 0.657436 0.795793
O O2 0.202096 0.653731 0.895803
O O3 0.142022 0.781217 0.869880
O O4 0.098451 0.641482 0.887962
O O5 0.500000 0.500000 0.079198
O O6 0.594996 0.423142 0.098195
O O7 0.574022 0.500000 0.000000
O O8 0.750000 0.895008 0.750000
O O9 0.659733 0.905999 0.690477
O O10 0.677408 0.000000 0.777734
O O11 0.266714 0.608358 0.500000
O O12 0.278505 0.500000 0.421096
O O13 0.198955 0.601278 0.412744
O O14 0.417931 0.620112 0.500000
O O15 0.500000 0.611327 0.430544
O O16 0.427582 0.500000 0.430542
#
# Coordination Sequence:
#
# PCOD9513771 Si02
#       6
#    32  16  32  32  32  32
#     4  12  24  35  62  98 127 161 209 261 325 384
#     4  11  26  50  75  92 120 178 231 268 320 377
#     4  11  22  40  65  91 128 174 213 250 317 395
#     4  11  22  37  58  88 131 171 206 255 320 387
#     4  12  24  42  62  92 128 162 213 273 317 372
#     4   9  19  38  61  86 123 164 201 250 313 383
#
# _framework density 18.614702999999999
#
# number of rings (size 3 to 8) (size 9 to 14) (size 15 to 20)
#    0.000    1.000    3.636    4.364    0.000    6.545 
#    0.000    2.727    0.000    2.182    0.000    0.000 
#    0.000    0.000    0.000    0.000    0.000    0.000 
#
# Total GULP energy -246013.334838 kJ/mol
# GULP energy per Si atom -5591.212155 kJ/mol
# Density = 1.857233 g / cm^3
# Si number density = 18.614703 Si / 1000 Ang^3
#
#
#
# Elastic Constant Matrix: (Units=GPa)
#
#
# Indices 1 2 3 4 5 6 
#
# 1 94.1736 58.1238 54.0148 0.0000 0.0000 0.0000
# 2 58.1238 100.8801 44.0636 0.0000 0.0000 0.0000
# 3 54.0148 44.0636 106.5697 0.0000 0.0000 0.0000
# 4 0.0000 0.0000 0.0000 -106.4831 0.0000 0.0000
# 5 0.0000 0.0000 0.0000 0.0000 33.6157 0.0000
# 6 0.0000 0.0000 0.0000 0.0000 0.0000 3.4996
#
#
#
# Elastic Compliance Matrix: (Units=1/GPa)
#
#
# Indices 1 2 3 4 5 6 
#
# 1 0.019493 -0.008440 -0.006390 0.000000 0.000000 0.000000
# 2 -0.008440 0.015752 -0.002235 0.000000 0.000000 0.000000
# 3 -0.006390 -0.002235 0.013547 0.000000 0.000000 0.000000
# 4 0.000000 0.000000 0.000000 -0.009391 0.000000 0.000000
# 5 0.000000 0.000000 0.000000 0.000000 0.029748 0.000000
# 6 0.000000 0.000000 0.000000 0.000000 0.000000 0.285745
#
#
# Mechanical properties :
#
#
# Convention : Reuss Voigt Hill
#
# Bulk Modulus (GPa) = 68.21002 68.22532 68.21767
# Shear Modulus (GPa) = 12.69320 -4.17881 4.25720
#
# Velocity S-wave (km/s) = 2.61414 -1.49992 1.51393
# Velocity P-wave (km/s) = 6.77010 5.80786 6.30735
#
# Compressibility (1/GPa) = 0.01466060
#
# Stress axis : x y z
#
# Youngs Moduli (GPa) = 51.29993 63.48418 73.81892
#
# Poissons Ratio (x) = 0.53581 0.47173
# Poissons Ratio (y) = 0.43298 0.16500
# Poissons Ratio (z) = 0.32783 0.14190
#
# Static dielectric constant tensor:
#      x y z
#    x 1.618600 0.000000 0.000000 
#    y 0.000000 1.654810 0.000000 
#    z 0.000000 0.000000 1.649870 
# 
# From -- ./inp_files/17901.got.cif
#   From: 2010.05.17/outbox.cif.g08.bks.cpg/sg69_9_cif.got.tgz:17901.got - 2010.06.03 19:29:58.
