data_PCOD9513397
_publ_section_title
;
Structure prediction by ZEFSAII (Michael W. Deem and Ramdas Pophale) SiO2 
 PCOD9513397
Probable space group: F M M M
;
_chemical_formula_sum "Si O2"
_cell_formula_units_Z 176
_cell_length_a 26.990589
_cell_length_b 27.813266
_cell_length_c 13.610493
_cell_angle_alpha 90.000000
_cell_angle_beta 90.000000
_cell_angle_gamma 90.000000
_cell_volume 10217.348524
_symmetry_space_group_name_H-M "F M M M"
_symmetry_group_IT_number 69
_symmetry_cell_setting 'orthorhombic'
loop_
_space_group_symop_operation_xyz
x,y,z
-x,-y,z
x,-y,-z
-x,y,-z
-x,-y,-z
x,y,-z
-x,y,z
x,-y,z
x,1/2+y,1/2+z
-x,1/2-y,1/2+z
x,1/2-y,1/2-z
-x,1/2+y,1/2-z
-x,1/2-y,1/2-z
x,1/2+y,1/2-z
-x,1/2+y,1/2+z
x,1/2-y,1/2+z
1/2+x,y,1/2+z
1/2-x,-y,1/2+z
1/2+x,-y,1/2-z
1/2-x,y,1/2-z
1/2-x,-y,1/2-z
1/2+x,y,1/2-z
1/2-x,y,1/2+z
1/2+x,-y,1/2+z
1/2+x,1/2+y,z
1/2-x,1/2-y,z
1/2+x,1/2-y,-z
1/2-x,1/2+y,-z
1/2-x,1/2-y,-z
1/2+x,1/2+y,-z
1/2-x,1/2+y,z
1/2+x,1/2-y,z
loop_
_atom_site_type_symbol
_atom_site_label
_atom_site_fract_x
_atom_site_fract_y
_atom_site_fract_z
Si Si1 0.557694 0.558386 0.000000
Si Si2 0.304900 0.868537 0.295174
Si Si3 0.440960 0.612433 0.384909
Si Si4 0.774945 0.328464 0.500000
Si Si5 0.110185 0.557419 0.707426
Si Si6 0.616821 0.202762 0.807727
Si Si7 0.323386 0.224112 0.000000
O O1 0.584184 0.572871 0.103201
O O2 0.557951 0.500000 0.000000
O O3 0.500000 0.573958 0.000000
O O4 0.250000 0.869985 0.250000
O O5 0.294692 0.855859 0.406724
O O6 0.336450 0.917101 0.285866
O O7 0.340536 0.826909 0.250795
O O8 0.424066 0.606974 0.500000
O O9 0.500000 0.608666 0.385221
O O10 0.419159 0.575116 0.304773
O O11 0.423709 0.664103 0.342430
O O12 0.715897 0.319755 0.500000
O O13 0.796071 0.274757 0.500000
O O14 0.113244 0.500000 0.706638
O O15 0.598938 0.250000 0.750000
O O16 0.643537 0.221213 0.904655
#
# Coordination Sequence:
#
# PCOD9513397 Si02
#       7
#    16  32  32  16  32  32  16
#     4   9  17  34  62  88 109 136 178 240 304 355
#     4  11  22  35  54  81 115 155 196 240 284 337
#     4  10  22  39  61  87 116 152 192 240 297 354
#     4  11  21  32  55  84 115 149 194 236 279 334
#     4  10  22  39  60  85 116 152 196 246 300 356
#     4  11  21  36  57  83 117 151 190 232 282 340
#     4  11  20  32  55  82 114 148 188 228 276 333
#
# _framework density 17.225605000000002
#
# number of rings (size 3 to 8) (size 9 to 14) (size 15 to 20)
#    0.000    1.545    4.545    1.091    0.000    2.545 
#    0.000    0.909    0.000    0.000    0.000    0.000 
#    0.000    0.000    0.000    0.000    0.000    0.000 
#
# Total GULP energy -245245.023901 kJ/mol
# GULP energy per Si atom -5573.750543 kJ/mol
# Density = 1.718640 g / cm^3
# Si number density = 17.225605 Si / 1000 Ang^3
#
#
#
# Elastic Constant Matrix: (Units=GPa)
#
#
# Indices 1 2 3 4 5 6 
#
# 1 65.8865 27.5303 38.4914 0.0000 0.0000 0.0000
# 2 27.5303 88.1038 45.8806 0.0000 0.0000 0.0000
# 3 38.4914 45.8806 153.1008 0.0000 0.0000 0.0000
# 4 0.0000 0.0000 0.0000 30.2808 0.0000 0.0000
# 5 0.0000 0.0000 0.0000 0.0000 6.2213 0.0000
# 6 0.0000 0.0000 0.0000 0.0000 0.0000 -69.6287
#
#
#
# Elastic Compliance Matrix: (Units=1/GPa)
#
#
# Indices 1 2 3 4 5 6 
#
# 1 0.018951 -0.004077 -0.003543 0.000000 0.000000 0.000000
# 2 -0.004077 0.014326 -0.003268 0.000000 0.000000 0.000000
# 3 -0.003543 -0.003268 0.008402 0.000000 0.000000 0.000000
# 4 0.000000 0.000000 0.000000 0.033024 0.000000 0.000000
# 5 0.000000 0.000000 0.000000 0.000000 0.160738 0.000000
# 6 0.000000 0.000000 0.000000 0.000000 0.000000 -0.014362
#
#
# Mechanical properties :
#
#
# Convention : Reuss Voigt Hill
#
# Bulk Modulus (GPa) = 50.24332 58.98839 54.61586
# Shear Modulus (GPa) = 20.04095 6.38726 13.21410
#
# Velocity S-wave (km/s) = 3.41462 1.92771 2.77270
# Velocity P-wave (km/s) = 6.69159 6.26687 6.48271
#
# Compressibility (1/GPa) = 0.01990314
#
# Stress axis : x y z
#
# Youngs Moduli (GPa) = 52.76832 69.80272 119.02282
#
# Poissons Ratio (x) = 0.28457 0.42167
# Poissons Ratio (y) = 0.21512 0.38900
# Poissons Ratio (z) = 0.18695 0.22813
#
# Static dielectric constant tensor:
#      x y z
#    x 1.584800 0.000000 0.000000 
#    y 0.000000 1.591440 0.000000 
#    z 0.000000 0.000000 1.581420 
# 
# From -- ./inp_files/11573.got.cif
#   From: 2010.05.17/outbox.cif.g08.bks.cpg/sg69_6_cif.got.tgz:11573.got - 2010.06.03 19:29:58.
