data_PCOD9513543
_publ_section_title
;
Structure prediction by ZEFSAII (Michael W. Deem and Ramdas Pophale) SiO2 
 PCOD9513543
Probable space group: F M M M
;
_chemical_formula_sum "Si O2"
_cell_formula_units_Z 192
_cell_length_a 27.704790
_cell_length_b 15.004031
_cell_length_c 24.956191
_cell_angle_alpha 90.000000
_cell_angle_beta 90.000000
_cell_angle_gamma 90.000000
_cell_volume 10373.877521
_symmetry_space_group_name_H-M "F M M M"
_symmetry_group_IT_number 69
_symmetry_cell_setting 'orthorhombic'
loop_
_space_group_symop_operation_xyz
x,y,z
-x,-y,z
x,-y,-z
-x,y,-z
-x,-y,-z
x,y,-z
-x,y,z
x,-y,z
x,1/2+y,1/2+z
-x,1/2-y,1/2+z
x,1/2-y,1/2-z
-x,1/2+y,1/2-z
-x,1/2-y,1/2-z
x,1/2+y,1/2-z
-x,1/2+y,1/2+z
x,1/2-y,1/2+z
1/2+x,y,1/2+z
1/2-x,-y,1/2+z
1/2+x,-y,1/2-z
1/2-x,y,1/2-z
1/2-x,-y,1/2-z
1/2+x,y,1/2-z
1/2-x,y,1/2+z
1/2+x,-y,1/2+z
1/2+x,1/2+y,z
1/2-x,1/2-y,z
1/2+x,1/2-y,-z
1/2-x,1/2+y,-z
1/2-x,1/2-y,-z
1/2+x,1/2+y,-z
1/2-x,1/2+y,z
1/2+x,1/2-y,z
loop_
_atom_site_type_symbol
_atom_site_label
_atom_site_fract_x
_atom_site_fract_y
_atom_site_fract_z
Si Si1 0.685048 0.500000 0.181518
Si Si2 0.443076 0.766281 0.563317
Si Si3 0.303642 0.710484 0.310627
Si Si4 0.058440 0.899734 0.638304
Si Si5 0.555784 0.107808 0.259107
Si Si6 0.875723 0.661442 0.645158
Si Si7 0.300332 0.500000 0.299497
O O1 0.663334 0.416405 0.151257
O O2 0.669539 0.500000 0.243680
O O3 0.741934 0.500000 0.192539
O O4 0.435371 0.761013 0.500000
O O5 0.500000 0.785453 0.572750
O O6 0.431736 0.672714 0.593023
O O7 0.408705 0.836768 0.592714
O O8 0.312529 0.750000 0.250000
O O9 0.250000 0.750000 0.322936
O O10 0.343415 0.751549 0.349069
O O11 0.308136 0.603769 0.315875
O O12 0.072521 0.871857 0.698581
O O13 0.000000 0.906183 0.640908
O O14 0.077248 0.000000 0.627787
O O15 0.500000 0.136592 0.265315
O O16 0.588440 0.150591 0.304462
O O17 0.556392 0.000000 0.264669
#
# Coordination Sequence:
#
# PCOD9513543 Si02
#       7
#    16  32  32  32  32  32  16
#     4  11  20  34  58  83 118 154 194 235 277 362
#     4  10  23  41  57  78 115 160 208 261 302 342
#     4  11  21  35  57  87 125 159 189 235 298 365
#     4   8  16  32  53  77 107 147 195 243 298 360
#     4   9  18  31  51  85 124 153 189 246 307 368
#     4  12  22  35  58  90 114 160 205 240 301 364
#     4  11  20  38  54  86 132 157 184 234 297 372
#
# _framework density 18.508026999999998
#
# number of rings (size 3 to 8) (size 9 to 14) (size 15 to 20)
#    0.000    1.833    4.167    2.500    2.333    0.333 
#    1.500    4.583    0.000    1.500    0.000    0.000 
#    0.000    0.000    0.000    0.000    0.000    0.000 
#
# Total GULP energy -267570.243031 kJ/mol
# GULP energy per Si atom -5574.380063 kJ/mol
# Density = 1.846590 g / cm^3
# Si number density = 18.508027 Si / 1000 Ang^3
#
#
#
# Elastic Constant Matrix: (Units=GPa)
#
#
# Indices 1 2 3 4 5 6 
#
# 1 63.9661 16.8137 36.6277 0.0000 0.0000 0.0000
# 2 16.8137 106.4598 20.2906 0.0000 0.0000 0.0000
# 3 36.6277 20.2906 87.6633 0.0000 0.0000 0.0000
# 4 0.0000 0.0000 0.0000 35.6006 0.0000 0.0000
# 5 0.0000 0.0000 0.0000 0.0000 23.0058 0.0000
# 6 0.0000 0.0000 0.0000 0.0000 0.0000 31.5004
#
#
#
# Elastic Compliance Matrix: (Units=1/GPa)
#
#
# Indices 1 2 3 4 5 6 
#
# 1 0.020842 -0.001707 -0.008313 0.000000 0.000000 0.000000
# 2 -0.001707 0.009967 -0.001594 0.000000 0.000000 0.000000
# 3 -0.008313 -0.001594 0.015250 0.000000 0.000000 0.000000
# 4 0.000000 0.000000 0.000000 0.028089 0.000000 0.000000
# 5 0.000000 0.000000 0.000000 0.000000 0.043467 0.000000
# 6 0.000000 0.000000 0.000000 0.000000 0.000000 0.031746
#
#
# Mechanical properties :
#
#
# Convention : Reuss Voigt Hill
#
# Bulk Modulus (GPa) = 43.80125 45.06146 44.43135
# Shear Modulus (GPa) = 27.74711 30.31183 29.02947
#
# Velocity S-wave (km/s) = 3.87614 4.05132 3.96470
# Velocity P-wave (km/s) = 6.61439 6.80324 6.70948
#
# Compressibility (1/GPa) = 0.02283040
#
# Stress axis : x y z
#
# Youngs Moduli (GPa) = 47.97938 100.33533 65.57562
#
# Poissons Ratio (x) = 0.17130 0.54514
# Poissons Ratio (y) = 0.08191 0.10450
# Poissons Ratio (z) = 0.39886 0.15989
#
# Static dielectric constant tensor:
#      x y z
#    x 1.721210 0.000000 0.000000 
#    y 0.000000 1.736970 0.000000 
#    z 0.000000 0.000000 1.620240 
# 
# From -- ./inp_files/38362.got.cif
#   From: 2010.05.17/outbox.cif.g08.bks.cpg/sg69_20_cif.got.tgz:38362.got - 2010.06.03 19:29:58.
