data_PCOD9513406
_publ_section_title
;
Structure prediction by ZEFSAII (Michael W. Deem and Ramdas Pophale) SiO2 
 PCOD9513406
Probable space group: F M M M
;
_chemical_formula_sum "Si O2"
_cell_formula_units_Z 112
_cell_length_a 14.085657
_cell_length_b 26.799479
_cell_length_c 14.946409
_cell_angle_alpha 90.000000
_cell_angle_beta 90.000000
_cell_angle_gamma 90.000000
_cell_volume 5642.094061
_symmetry_space_group_name_H-M "F M M M"
_symmetry_group_IT_number 69
_symmetry_cell_setting 'orthorhombic'
loop_
_space_group_symop_operation_xyz
x,y,z
-x,-y,z
x,-y,-z
-x,y,-z
-x,-y,-z
x,y,-z
-x,y,z
x,-y,z
x,1/2+y,1/2+z
-x,1/2-y,1/2+z
x,1/2-y,1/2-z
-x,1/2+y,1/2-z
-x,1/2-y,1/2-z
x,1/2+y,1/2-z
-x,1/2+y,1/2+z
x,1/2-y,1/2+z
1/2+x,y,1/2+z
1/2-x,-y,1/2+z
1/2+x,-y,1/2-z
1/2-x,y,1/2-z
1/2-x,-y,1/2-z
1/2+x,y,1/2-z
1/2-x,y,1/2+z
1/2+x,-y,1/2+z
1/2+x,1/2+y,z
1/2-x,1/2-y,z
1/2+x,1/2-y,-z
1/2-x,1/2+y,-z
1/2-x,1/2-y,-z
1/2+x,1/2+y,-z
1/2-x,1/2+y,z
1/2+x,1/2-y,z
loop_
_atom_site_type_symbol
_atom_site_label
_atom_site_fract_x
_atom_site_fract_y
_atom_site_fract_z
Si Si1 0.500000 0.774714 0.106295
Si Si2 0.693747 0.604783 0.157618
Si Si3 0.391621 0.000000 0.395059
Si Si4 0.500000 0.844613 0.391839
Si Si5 0.791834 0.801129 0.351124
O O1 0.500000 0.714924 0.117218
O O2 0.595641 0.796195 0.148232
O O3 0.500000 0.785029 0.000000
O O4 0.750000 0.597721 0.250000
O O5 0.667850 0.549660 0.125634
O O6 0.591964 0.632261 0.155002
O O7 0.757676 0.646624 0.107032
O O8 0.500000 0.000000 0.354709
O O9 0.405169 0.000000 0.500000
O O10 0.500000 0.856418 0.500000
O O11 0.750000 0.801783 0.250000
O O12 0.750000 0.750000 0.392982
#
# Coordination Sequence:
#
# PCOD9513406 Si02
#       5
#    16  32  16  16  32
#     4  11  24  38  59  94 134 171 211 259 310 371
#     4  11  23  40  64  96 126 163 211 264 312 374
#     4  11  23  42  68  93 122 162 211 267 323 374
#     4  11  22  38  63  95 130 166 213 260 305 371
#     4  10  22  39  61  92 128 170 209 253 312 376
#
# _framework density 19.850785999999999
#
# number of rings (size 3 to 8) (size 9 to 14) (size 15 to 20)
#    0.000    1.286    4.286    1.286    0.000    9.714 
#    0.000    0.000    0.000    0.000    0.000    5.000 
#    0.000    0.000    0.000    0.000    0.000    0.000 
#
# Total GULP energy -156142.215274 kJ/mol
# GULP energy per Si atom -5576.507688 kJ/mol
# Density = 1.980560 g / cm^3
# Si number density = 19.850786 Si / 1000 Ang^3
#
#
#
# Elastic Constant Matrix: (Units=GPa)
#
#
# Indices 1 2 3 4 5 6 
#
# 1 204.7600 81.4710 56.6514 0.0000 0.0000 0.0000
# 2 81.4710 200.2920 35.4368 0.0000 0.0000 0.0000
# 3 56.6514 35.4368 94.7077 0.0000 0.0000 0.0000
# 4 0.0000 0.0000 0.0000 51.4673 0.0000 0.0000
# 5 0.0000 0.0000 0.0000 0.0000 115.0667 0.0000
# 6 0.0000 0.0000 0.0000 0.0000 0.0000 47.7087
#
#
#
# Elastic Compliance Matrix: (Units=1/GPa)
#
#
# Indices 1 2 3 4 5 6 
#
# 1 0.006603 -0.002128 -0.003153 0.000000 0.000000 0.000000
# 2 -0.002128 0.006032 -0.000984 0.000000 0.000000 0.000000
# 3 -0.003153 -0.000984 0.012813 0.000000 0.000000 0.000000
# 4 0.000000 0.000000 0.000000 0.019430 0.000000 0.000000
# 5 0.000000 0.000000 0.000000 0.000000 0.008691 0.000000
# 6 0.000000 0.000000 0.000000 0.000000 0.000000 0.020961
#
#
# Mechanical properties :
#
#
# Convention : Reuss Voigt Hill
#
# Bulk Modulus (GPa) = 77.41497 94.09755 85.75626
# Shear Modulus (GPa) = 54.72447 64.59523 59.65985
#
# Velocity S-wave (km/s) = 5.25621 5.71061 5.48811
# Velocity P-wave (km/s) = 8.71321 9.53870 9.13528
#
# Compressibility (1/GPa) = 0.01291740
#
# Stress axis : x y z
#
# Youngs Moduli (GPa) = 151.44874 165.77158 78.04315
#
# Poissons Ratio (x) = 0.35274 0.24611
# Poissons Ratio (y) = 0.32226 0.07682
# Poissons Ratio (z) = 0.47759 0.16317
#
# Static dielectric constant tensor:
#      x y z
#    x 1.706030 0.000000 0.000000 
#    y 0.000000 1.770150 0.000000 
#    z 0.000000 0.000000 1.761600 
# 
# From -- ./inp_files/20852.got.cif
#   From: 2010.05.17/outbox.cif.g08.bks.cpg/sg69_11_cif.got.tgz:20852.got - 2010.06.03 19:29:58.
