data_PCOD9513232
_publ_section_title
;
Structure prediction by ZEFSAII (Michael W. Deem and Ramdas Pophale) SiO2 
 PCOD9513232
Probable space group: F M M M
;
_chemical_formula_sum "Si O2"
_cell_formula_units_Z 104
_cell_length_a 13.676627
_cell_length_b 15.045349
_cell_length_c 25.450444
_cell_angle_alpha 90.000000
_cell_angle_beta 90.000000
_cell_angle_gamma 90.000000
_cell_volume 5236.928353
_symmetry_space_group_name_H-M "F M M M"
_symmetry_group_IT_number 69
_symmetry_cell_setting 'orthorhombic'
loop_
_space_group_symop_operation_xyz
x,y,z
-x,-y,z
x,-y,-z
-x,y,-z
-x,-y,-z
x,y,-z
-x,y,z
x,-y,z
x,1/2+y,1/2+z
-x,1/2-y,1/2+z
x,1/2-y,1/2-z
-x,1/2+y,1/2-z
-x,1/2-y,1/2-z
x,1/2+y,1/2-z
-x,1/2+y,1/2+z
x,1/2-y,1/2+z
1/2+x,y,1/2+z
1/2-x,-y,1/2+z
1/2+x,-y,1/2-z
1/2-x,y,1/2-z
1/2-x,-y,1/2-z
1/2+x,y,1/2-z
1/2-x,y,1/2+z
1/2+x,-y,1/2+z
1/2+x,1/2+y,z
1/2-x,1/2-y,z
1/2+x,1/2-y,-z
1/2-x,1/2+y,-z
1/2-x,1/2-y,-z
1/2+x,1/2+y,-z
1/2-x,1/2+y,z
1/2+x,1/2-y,z
loop_
_atom_site_type_symbol
_atom_site_label
_atom_site_fract_x
_atom_site_fract_y
_atom_site_fract_z
Si Si1 0.380635 0.000000 0.229192
Si Si2 0.618653 0.000000 0.647886
Si Si3 0.881754 0.812241 0.901740
Si Si4 0.250000 0.250000 0.500000
Si Si5 0.618003 0.693143 0.301061
O O1 0.347052 0.908136 0.203086
O O2 0.500000 0.000000 0.226954
O O3 0.354194 0.000000 0.290723
O O4 0.648417 0.089636 0.618174
O O5 0.500000 0.000000 0.648227
O O6 0.826215 0.784231 0.953797
O O7 0.858938 0.744044 0.854398
O O8 0.000000 0.811928 0.908974
O O9 0.500000 0.689384 0.298890
O O10 0.646939 0.750000 0.250000
#
# Coordination Sequence:
#
# PCOD9513232 Si02
#       5
#    16  16  32   8  32
#     4   9  14  24  51  92 126 152 184 231 301 375
#     4   9  16  31  62  96 118 145 193 253 314 359
#     4  10  21  39  63  90 120 157 201 251 302 354
#     4  12  26  42  56  78 118 166 210 254 286 344
#     4   9  15  27  53  87 120 151 185 232 297 366
#
# _framework density 19.858971
#
# number of rings (size 3 to 8) (size 9 to 14) (size 15 to 20)
#    0.000    2.462    3.077    0.462    0.000    0.615 
#    0.000    6.154    0.000    1.846    0.000    9.692 
#    0.000    0.000    0.000    0.000    0.000    0.000 
#
# Total GULP energy -144789.158298 kJ/mol
# GULP energy per Si atom -5568.813781 kJ/mol
# Density = 1.981377 g / cm^3
# Si number density = 19.858971 Si / 1000 Ang^3
#
#
#
# Elastic Constant Matrix: (Units=GPa)
#
#
# Indices 1 2 3 4 5 6 
#
# 1 94.8641 51.0513 41.7261 0.0000 0.0000 0.0000
# 2 51.0513 209.9671 131.4963 0.0000 0.0000 0.0000
# 3 41.7261 131.4963 229.5271 0.0000 0.0000 0.0000
# 4 0.0000 0.0000 0.0000 11.2009 0.0000 0.0000
# 5 0.0000 0.0000 0.0000 0.0000 359.4077 0.0000
# 6 0.0000 0.0000 0.0000 0.0000 0.0000 4.3113
#
#
#
# Elastic Compliance Matrix: (Units=1/GPa)
#
#
# Indices 1 2 3 4 5 6 
#
# 1 0.012224 -0.002465 -0.000810 0.000000 0.000000 0.000000
# 2 -0.002465 0.007925 -0.004092 0.000000 0.000000 0.000000
# 3 -0.000810 -0.004092 0.006848 0.000000 0.000000 0.000000
# 4 0.000000 0.000000 0.000000 0.089278 0.000000 0.000000
# 5 0.000000 0.000000 0.000000 0.000000 0.002782 0.000000
# 6 0.000000 0.000000 0.000000 0.000000 0.000000 0.231948
#
#
# Mechanical properties :
#
#
# Convention : Reuss Voigt Hill
#
# Bulk Modulus (GPa) = 81.54397 109.21176 95.37787
# Shear Modulus (GPa) = 13.51981 95.65630 54.58806
#
# Velocity S-wave (km/s) = 2.61203 6.94783 5.24857
# Velocity P-wave (km/s) = 7.08855 10.93052 9.21205
#
# Compressibility (1/GPa) = 0.01226332
#
# Stress axis : x y z
#
# Youngs Moduli (GPa) = 81.80508 126.18935 146.02089
#
# Poissons Ratio (x) = 0.31103 0.11830
# Poissons Ratio (y) = 0.20163 0.59751
# Poissons Ratio (z) = 0.06628 0.51636
#
# Static dielectric constant tensor:
#      x y z
#    x 1.745860 0.000000 0.000000 
#    y 0.000000 1.709390 0.000000 
#    z 0.000000 0.000000 1.625070 
# 
# From -- ./inp_files/14137.got.cif
#   From: 2010.05.17/outbox.cif.g08.bks.cpg/sg69_8_cif.got.tgz:14137.got - 2010.06.03 19:29:58.
