data_PCOD9513707
_publ_section_title
;
Structure prediction by ZEFSAII (Michael W. Deem and Ramdas Pophale) SiO2 
 PCOD9513707
Probable space group: F M M M
;
_chemical_formula_sum "Si O2"
_cell_formula_units_Z 160
_cell_length_a 17.267183
_cell_length_b 18.794631
_cell_length_c 23.048439
_cell_angle_alpha 90.000000
_cell_angle_beta 90.000000
_cell_angle_gamma 90.000000
_cell_volume 7479.917581
_symmetry_space_group_name_H-M "F M M M"
_symmetry_group_IT_number 69
_symmetry_cell_setting 'orthorhombic'
loop_
_space_group_symop_operation_xyz
x,y,z
-x,-y,z
x,-y,-z
-x,y,-z
-x,-y,-z
x,y,-z
-x,y,z
x,-y,z
x,1/2+y,1/2+z
-x,1/2-y,1/2+z
x,1/2-y,1/2-z
-x,1/2+y,1/2-z
-x,1/2-y,1/2-z
x,1/2+y,1/2-z
-x,1/2+y,1/2+z
x,1/2-y,1/2+z
1/2+x,y,1/2+z
1/2-x,-y,1/2+z
1/2+x,-y,1/2-z
1/2-x,y,1/2-z
1/2-x,-y,1/2-z
1/2+x,y,1/2-z
1/2-x,y,1/2+z
1/2+x,-y,1/2+z
1/2+x,1/2+y,z
1/2-x,1/2-y,z
1/2+x,1/2-y,-z
1/2-x,1/2+y,-z
1/2-x,1/2-y,-z
1/2+x,1/2+y,-z
1/2-x,1/2+y,z
1/2+x,1/2-y,z
loop_
_atom_site_type_symbol
_atom_site_label
_atom_site_fract_x
_atom_site_fract_y
_atom_site_fract_z
Si Si1 0.686389 0.358203 0.430540
Si Si2 0.500000 0.913736 0.434424
Si Si3 0.661120 0.917915 0.623297
Si Si4 0.090204 0.362951 0.727674
Si Si5 0.412509 0.500000 0.569861
Si Si6 0.589672 0.714730 0.342654
O O1 0.690574 0.349757 0.500000
O O2 0.769774 0.372671 0.402859
O O3 0.634502 0.428404 0.416426
O O4 0.644593 0.293980 0.397400
O O5 0.500000 0.887611 0.500000
O O6 0.421310 0.893051 0.402767
O O7 0.500000 0.000000 0.434941
O O8 0.648061 0.912614 0.692309
O O9 0.673563 0.000000 0.605922
O O10 0.109139 0.344983 0.794026
O O11 0.095317 0.288432 0.692292
O O12 0.000000 0.387049 0.725191
O O13 0.500000 0.500000 0.594051
O O14 0.418487 0.500000 0.500000
O O15 0.500000 0.705823 0.359863
#
# Coordination Sequence:
#
# PCOD9513707 Si02
#       6
#    32  16  32  32  16  32
#     4  11  22  37  58  88 124 157 198 249 296 353
#     4   9  18  32  54  79 108 154 195 229 292 360
#     4  11  21  36  59  87 121 156 197 250 300 355
#     4   9  19  40  65  87 116 156 204 250 304 362
#     4   9  18  34  56  78 111 159 197 233 289 347
#     4   9  20  40  65  87 115 160 203 248 304 363
#
# _framework density 21.390609000000001
#
# number of rings (size 3 to 8) (size 9 to 14) (size 15 to 20)
#    0.000    2.200    2.000    2.400    0.000    3.600 
#    1.800    6.000    0.000    0.000    0.000    0.000 
#    0.000    0.000    0.000    0.000    0.000    0.000 
#
# Total GULP energy -223408.262169 kJ/mol
# GULP energy per Si atom -5585.206554 kJ/mol
# Density = 2.134192 g / cm^3
# Si number density = 21.390609 Si / 1000 Ang^3
#
#
#
# Elastic Constant Matrix: (Units=GPa)
#
#
# Indices 1 2 3 4 5 6 
#
# 1 109.4107 23.5073 37.2262 0.0000 0.0000 0.0000
# 2 23.5073 30.7530 18.1380 0.0000 0.0000 0.0000
# 3 37.2262 18.1380 87.9672 0.0000 0.0000 0.0000
# 4 0.0000 0.0000 0.0000 28.9092 0.0000 0.0000
# 5 0.0000 0.0000 0.0000 0.0000 21.2720 0.0000
# 6 0.0000 0.0000 0.0000 0.0000 0.0000 18.1945
#
#
#
# Elastic Compliance Matrix: (Units=1/GPa)
#
#
# Indices 1 2 3 4 5 6 
#
# 1 0.011851 -0.006946 -0.003583 0.000000 0.000000 0.000000
# 2 -0.006946 0.041090 -0.005533 0.000000 0.000000 0.000000
# 3 -0.003583 -0.005533 0.014025 0.000000 0.000000 0.000000
# 4 0.000000 0.000000 0.000000 0.034591 0.000000 0.000000
# 5 0.000000 0.000000 0.000000 0.000000 0.047010 0.000000
# 6 0.000000 0.000000 0.000000 0.000000 0.000000 0.054962
#
#
# Mechanical properties :
#
#
# Convention : Reuss Voigt Hill
#
# Bulk Modulus (GPa) = 28.70068 42.87488 35.78778
# Shear Modulus (GPa) = 20.22108 23.62577 21.92342
#
# Velocity S-wave (km/s) = 3.07795 3.32700 3.20489
# Velocity P-wave (km/s) = 5.10669 5.90304 5.51924
#
# Compressibility (1/GPa) = 0.03484238
#
# Stress axis : x y z
#
# Youngs Moduli (GPa) = 84.37879 24.33699 71.30103
#
# Poissons Ratio (x) = 0.16904 0.25548
# Poissons Ratio (y) = 0.58607 0.39451
# Poissons Ratio (z) = 0.30234 0.13466
#
# Static dielectric constant tensor:
#      x y z
#    x 1.751520 0.000000 0.000000 
#    y 0.000000 1.819070 0.000000 
#    z 0.000000 0.000000 1.789610 
# 
# From -- ./inp_files/36618.got.cif
#   From: 2010.05.17/outbox.cif.g08.bks.cpg/sg69_19_cif.got.tgz:36618.got - 2010.06.03 19:29:58.
