data_PCOD9513806
_publ_section_title
;
Structure prediction by ZEFSAII (Michael W. Deem and Ramdas Pophale) SiO2 
 PCOD9513806
Probable space group: F M M M
;
_chemical_formula_sum "Si O2"
_cell_formula_units_Z 104
_cell_length_a 14.009885
_cell_length_b 15.096447
_cell_length_c 24.790503
_cell_angle_alpha 90.000000
_cell_angle_beta 90.000000
_cell_angle_gamma 90.000000
_cell_volume 5243.178652
_symmetry_space_group_name_H-M "F M M M"
_symmetry_group_IT_number 69
_symmetry_cell_setting 'orthorhombic'
loop_
_space_group_symop_operation_xyz
x,y,z
-x,-y,z
x,-y,-z
-x,y,-z
-x,-y,-z
x,y,-z
-x,y,z
x,-y,z
x,1/2+y,1/2+z
-x,1/2-y,1/2+z
x,1/2-y,1/2-z
-x,1/2+y,1/2-z
-x,1/2-y,1/2-z
x,1/2+y,1/2-z
-x,1/2+y,1/2+z
x,1/2-y,1/2+z
1/2+x,y,1/2+z
1/2-x,-y,1/2+z
1/2+x,-y,1/2-z
1/2-x,y,1/2-z
1/2-x,-y,1/2-z
1/2+x,y,1/2-z
1/2-x,y,1/2+z
1/2+x,-y,1/2+z
1/2+x,1/2+y,z
1/2-x,1/2-y,z
1/2+x,1/2-y,-z
1/2-x,1/2+y,-z
1/2-x,1/2-y,-z
1/2+x,1/2+y,-z
1/2-x,1/2+y,z
1/2+x,1/2-y,z
loop_
_atom_site_type_symbol
_atom_site_label
_atom_site_fract_x
_atom_site_fract_y
_atom_site_fract_z
Si Si1 0.500000 0.143938 0.253907
Si Si2 0.791299 0.158102 0.412965
Si Si3 0.731289 0.500000 0.500000
Si Si4 0.300148 0.102955 0.697423
Si Si5 0.000000 0.394735 0.126359
O O1 0.500000 0.250000 0.250000
O O2 0.590175 0.111313 0.287616
O O3 0.500000 0.110547 0.191795
O O4 0.750000 0.250000 0.435657
O O5 0.771540 0.077635 0.453068
O O6 0.733060 0.146336 0.357347
O O7 0.904002 0.150951 0.397001
O O8 0.250000 0.142757 0.750000
O O9 0.271113 0.000000 0.693153
O O10 0.000000 0.500000 0.111496
#
# Coordination Sequence:
#
# PCOD9513806 Si02
#       5
#    16  32   8  32  16
#     4  12  24  36  64 105 148 182 227 285 358 442
#     4  12  26  45  75 105 144 185 241 299 358 420
#     4  12  26  53  70 103 136 194 246 303 356 409
#     4  11  22  40  65  99 140 185 219 277 362 428
#     4  12  22  44  74 109 139 184 240 300 356 422
#
# _framework density 19.835296
#
# number of rings (size 3 to 8) (size 9 to 14) (size 15 to 20)
#    0.000    0.308    6.154    3.692    0.000    1.231 
#    0.000    0.000    0.000    6.462    0.000    0.000 
#    0.000    0.000    0.000    0.000    0.000    0.000 
#
# Total GULP energy -144780.212692 kJ/mol
# GULP energy per Si atom -5568.469719 kJ/mol
# Density = 1.979015 g / cm^3
# Si number density = 19.835296 Si / 1000 Ang^3
#
#
#
# Elastic Constant Matrix: (Units=GPa)
#
#
# Indices 1 2 3 4 5 6 
#
# 1 131.7008 33.1617 48.1333 0.0000 0.0000 0.0000
# 2 33.1617 165.3298 56.5532 0.0000 0.0000 0.0000
# 3 48.1333 56.5532 150.8046 0.0000 0.0000 0.0000
# 4 0.0000 0.0000 0.0000 -62.1172 0.0000 0.0000
# 5 0.0000 0.0000 0.0000 0.0000 -12.2489 0.0000
# 6 0.0000 0.0000 0.0000 0.0000 0.0000 31.7380
#
#
#
# Elastic Compliance Matrix: (Units=1/GPa)
#
#
# Indices 1 2 3 4 5 6 
#
# 1 0.008714 -0.000914 -0.002439 0.000000 0.000000 0.000000
# 2 -0.000914 0.007034 -0.002346 0.000000 0.000000 0.000000
# 3 -0.002439 -0.002346 0.008289 0.000000 0.000000 0.000000
# 4 0.000000 0.000000 0.000000 -0.016099 0.000000 0.000000
# 5 0.000000 0.000000 0.000000 0.000000 -0.081640 0.000000
# 6 0.000000 0.000000 0.000000 0.000000 0.000000 0.031508
#
#
# Mechanical properties :
#
#
# Convention : Reuss Voigt Hill
#
# Bulk Modulus (GPa) = 79.11068 80.39239 79.75153
# Shear Modulus (GPa) = -188.10344 12.14018 -87.98163
#
# Velocity S-wave (km/s) = -9.74877 2.47665 -6.66726
# Velocity P-wave (km/s) = 9.31384 6.98544 4.35611
#
# Compressibility (1/GPa) = 0.01264052
#
# Stress axis : x y z
#
# Youngs Moduli (GPa) = 114.75340 142.15905 120.63614
#
# Poissons Ratio (x) = 0.12989 0.29420
# Poissons Ratio (y) = 0.10485 0.28305
# Poissons Ratio (z) = 0.27986 0.33355
#
# Static dielectric constant tensor:
#      x y z
#    x 1.689720 0.000000 0.000000 
#    y 0.000000 1.754130 0.000000 
#    z 0.000000 0.000000 1.666830 
# 
# From -- ./inp_files/14106.got.cif
#   From: 2010.05.17/outbox.cif.g08.bks.cpg/sg69_8_cif.got.tgz:14106.got - 2010.06.03 19:29:58.
