data_PCOD9513926
_publ_section_title
;
Structure prediction by ZEFSAII (Michael W. Deem and Ramdas Pophale) SiO2 
 PCOD9513926
Probable space group: F M M M
;
_chemical_formula_sum "Si O2"
_cell_formula_units_Z 144
_cell_length_a 18.265049
_cell_length_b 28.925393
_cell_length_c 15.533471
_cell_angle_alpha 90.000000
_cell_angle_beta 90.000000
_cell_angle_gamma 90.000000
_cell_volume 8206.701191
_symmetry_space_group_name_H-M "F M M M"
_symmetry_group_IT_number 69
_symmetry_cell_setting 'orthorhombic'
loop_
_space_group_symop_operation_xyz
x,y,z
-x,-y,z
x,-y,-z
-x,y,-z
-x,-y,-z
x,y,-z
-x,y,z
x,-y,z
x,1/2+y,1/2+z
-x,1/2-y,1/2+z
x,1/2-y,1/2-z
-x,1/2+y,1/2-z
-x,1/2-y,1/2-z
x,1/2+y,1/2-z
-x,1/2+y,1/2+z
x,1/2-y,1/2+z
1/2+x,y,1/2+z
1/2-x,-y,1/2+z
1/2+x,-y,1/2-z
1/2-x,y,1/2-z
1/2-x,-y,1/2-z
1/2+x,y,1/2-z
1/2-x,y,1/2+z
1/2+x,-y,1/2+z
1/2+x,1/2+y,z
1/2-x,1/2-y,z
1/2+x,1/2-y,-z
1/2-x,1/2+y,-z
1/2-x,1/2-y,-z
1/2+x,1/2+y,-z
1/2-x,1/2+y,z
1/2+x,1/2-y,z
loop_
_atom_site_type_symbol
_atom_site_label
_atom_site_fract_x
_atom_site_fract_y
_atom_site_fract_z
Si Si1 0.588555 0.945938 0.190565
Si Si2 0.413325 0.691650 0.598953
Si Si3 0.083187 0.943950 0.500000
Si Si4 0.414678 0.302099 0.100581
Si Si5 0.163248 0.639803 0.255467
O O1 0.500000 0.941322 0.191992
O O2 0.626188 0.910701 0.255038
O O3 0.604996 0.000000 0.205329
O O4 0.614804 0.932576 0.093326
O O5 0.394368 0.679376 0.500000
O O6 0.500000 0.682019 0.610536
O O7 0.403452 0.746916 0.609241
O O8 0.368047 0.665725 0.671173
O O9 0.000000 0.925656 0.500000
O O10 0.078481 0.000000 0.500000
O O11 0.500000 0.311207 0.122957
O O12 0.363049 0.330735 0.162849
O O13 0.404159 0.313476 0.000000
O O14 0.250000 0.636365 0.250000
#
# Coordination Sequence:
#
# PCOD9513926 Si02
#       5
#    32  32  16  32  32
#     4   9  18  34  56  79 103 135 178 225 268 311
#     4   9  19  36  59  83 104 133 180 234 275 307
#     4   7  12  26  50  78 100 119 153 209 271 314
#     4   9  19  38  59  76 101 142 190 231 259 296
#     4  12  24  33  49  81 116 149 172 208 266 335
#
# _framework density 17.546635999999999
#
# number of rings (size 3 to 8) (size 9 to 14) (size 15 to 20)
#    0.000    2.556    0.000    5.333    1.556    4.889 
#    0.000    2.222    0.000    0.667    0.000    3.111 
#    0.000    0.000    0.000    0.000    0.000    0.000 
#
# Total GULP energy -200851.832962 kJ/mol
# GULP energy per Si atom -5579.217582 kJ/mol
# Density = 1.750670 g / cm^3
# Si number density = 17.546636 Si / 1000 Ang^3
#
#
#
# Elastic Constant Matrix: (Units=GPa)
#
#
# Indices 1 2 3 4 5 6 
#
# 1 72.5052 53.4043 42.7843 0.0000 0.0000 0.0000
# 2 53.4043 76.6597 45.5348 0.0000 0.0000 0.0000
# 3 42.7843 45.5348 51.4991 0.0000 0.0000 0.0000
# 4 0.0000 0.0000 0.0000 20.9309 0.0000 0.0000
# 5 0.0000 0.0000 0.0000 0.0000 0.0694 0.0000
# 6 0.0000 0.0000 0.0000 0.0000 0.0000 -80.7101
#
#
#
# Elastic Compliance Matrix: (Units=1/GPa)
#
#
# Indices 1 2 3 4 5 6 
#
# 1 0.033007 -0.014124 -0.014933 0.000000 0.000000 0.000000
# 2 -0.014124 0.033517 -0.017902 0.000000 0.000000 0.000000
# 3 -0.014933 -0.017902 0.047653 0.000000 0.000000 0.000000
# 4 0.000000 0.000000 0.000000 0.047776 0.000000 0.000000
# 5 0.000000 0.000000 0.000000 0.000000 14.418675 0.000000
# 6 0.000000 0.000000 0.000000 0.000000 0.000000 -0.012390
#
#
# Mechanical properties :
#
#
# Convention : Reuss Voigt Hill
#
# Bulk Modulus (GPa) = 49.36083 53.79009 51.57546
# Shear Modulus (GPa) = 0.34086 -8.01260 -3.83587
#
# Velocity S-wave (km/s) = 0.44122 -2.13925 -1.48015
# Velocity P-wave (km/s) = 5.33403 4.96188 5.15131
#
# Compressibility (1/GPa) = 0.02025898
#
# Stress axis : x y z
#
# Youngs Moduli (GPa) = 30.29639 29.83527 20.98517
#
# Poissons Ratio (x) = 0.42139 0.31338
# Poissons Ratio (y) = 0.42790 0.37567
# Poissons Ratio (z) = 0.45243 0.53410
#
# Static dielectric constant tensor:
#      x y z
#    x 1.569000 0.000000 0.000000 
#    y 0.000000 1.617800 0.000000 
#    z 0.000000 0.000000 1.606140 
# 
# From -- ./inp_files/15522.got.cif
#   From: 2010.05.17/outbox.cif.g08.bks.cpg/sg69_8_cif.got.tgz:15522.got - 2010.06.03 19:29:58.
