data_PCOD9513111
_publ_section_title
;
Structure prediction by ZEFSAII (Michael W. Deem and Ramdas Pophale) SiO2 
 PCOD9513111
Probable space group: F M M M
;
_chemical_formula_sum "Si O2"
_cell_formula_units_Z 168
_cell_length_a 14.699107
_cell_length_b 25.908224
_cell_length_c 19.940388
_cell_angle_alpha 90.000000
_cell_angle_beta 90.000000
_cell_angle_gamma 90.000000
_cell_volume 7593.853231
_symmetry_space_group_name_H-M "F M M M"
_symmetry_group_IT_number 69
_symmetry_cell_setting 'orthorhombic'
loop_
_space_group_symop_operation_xyz
x,y,z
-x,-y,z
x,-y,-z
-x,y,-z
-x,-y,-z
x,y,-z
-x,y,z
x,-y,z
x,1/2+y,1/2+z
-x,1/2-y,1/2+z
x,1/2-y,1/2-z
-x,1/2+y,1/2-z
-x,1/2-y,1/2-z
x,1/2+y,1/2-z
-x,1/2+y,1/2+z
x,1/2-y,1/2+z
1/2+x,y,1/2+z
1/2-x,-y,1/2+z
1/2+x,-y,1/2-z
1/2-x,y,1/2-z
1/2-x,-y,1/2-z
1/2+x,y,1/2-z
1/2-x,y,1/2+z
1/2+x,-y,1/2+z
1/2+x,1/2+y,z
1/2-x,1/2-y,z
1/2+x,1/2-y,-z
1/2-x,1/2+y,-z
1/2-x,1/2-y,-z
1/2+x,1/2+y,-z
1/2-x,1/2+y,z
1/2+x,1/2-y,z
loop_
_atom_site_type_symbol
_atom_site_label
_atom_site_fract_x
_atom_site_fract_y
_atom_site_fract_z
Si Si1 0.298603 0.588172 0.599917
Si Si2 0.602058 0.589557 0.268399
Si Si3 0.605993 0.798955 0.292536
Si Si4 0.401418 0.559531 0.115113
Si Si5 0.642481 0.000000 0.000000
Si Si6 0.777184 0.190146 0.074677
O O1 0.323375 0.576594 0.676737
O O2 0.191201 0.580951 0.585659
O O3 0.351741 0.546154 0.557119
O O4 0.306214 0.649390 0.584989
O O5 0.500000 0.579172 0.295106
O O6 0.610602 0.650371 0.253297
O O7 0.607486 0.563198 0.195824
O O8 0.500000 0.788832 0.308580
O O9 0.640826 0.750000 0.250000
O O10 0.657976 0.813310 0.360589
O O11 0.500000 0.583473 0.097915
O O12 0.404124 0.500000 0.095029
O O13 0.750000 0.250000 0.074946
O O14 0.815963 0.180092 0.000000
#
# Coordination Sequence:
#
# PCOD9513111 Si02
#       6
#    32  32  32  32   8  32
#     4  12  23  42  64  86 128 172 213 267 328 385
#     4  10  22  38  62  95 123 159 217 274 321 382
#     4  10  21  39  64  96 130 165 217 275 326 390
#     4  10  21  37  61  95 125 154 206 270 327 387
#     4  12  28  44  62  92 124 174 230 260 320 414
#     4  11  24  40  62  94 132 173 216 264 325 400
#
# _framework density 22.123156000000002
#
# number of rings (size 3 to 8) (size 9 to 14) (size 15 to 20)
#    0.000    1.333    3.810    1.714    1.333    3.048 
#    0.000    1.905    0.000    1.143    0.000    0.000 
#    0.000    0.000    0.000    0.000    0.000    0.000 
#
# Total GULP energy -233911.477796 kJ/mol
# GULP energy per Si atom -5569.320900 kJ/mol
# Density = 2.207280 g / cm^3
# Si number density = 22.123156 Si / 1000 Ang^3
#
#
#
# Elastic Constant Matrix: (Units=GPa)
#
#
# Indices 1 2 3 4 5 6 
#
# 1 46.2844 -8.5595 7.5946 0.0000 0.0000 0.0000
# 2 -8.5595 92.5213 -4.1794 0.0000 0.0000 0.0000
# 3 7.5946 -4.1794 80.6342 0.0000 0.0000 0.0000
# 4 0.0000 0.0000 0.0000 29.3226 0.0000 0.0000
# 5 0.0000 0.0000 0.0000 0.0000 -23.4262 0.0000
# 6 0.0000 0.0000 0.0000 0.0000 0.0000 12.8162
#
#
#
# Elastic Compliance Matrix: (Units=1/GPa)
#
#
# Indices 1 2 3 4 5 6 
#
# 1 0.022298 0.001973 -0.001998 0.000000 0.000000 0.000000
# 2 0.001973 0.011008 0.000385 0.000000 0.000000 0.000000
# 3 -0.001998 0.000385 0.012610 0.000000 0.000000 0.000000
# 4 0.000000 0.000000 0.000000 0.034103 0.000000 0.000000
# 5 0.000000 0.000000 0.000000 0.000000 -0.042687 0.000000
# 6 0.000000 0.000000 0.000000 0.000000 0.000000 0.078026
#
#
# Mechanical properties :
#
#
# Convention : Reuss Voigt Hill
#
# Bulk Modulus (GPa) = 21.44304 23.23904 22.34104
# Shear Modulus (GPa) = 38.40701 18.71480 28.56091
#
# Velocity S-wave (km/s) = 4.17112 2.91166 3.59694
# Velocity P-wave (km/s) = 5.73683 4.67235 5.23174
#
# Compressibility (1/GPa) = 0.04663518
#
# Stress axis : x y z
#
# Youngs Moduli (GPa) = 44.84666 90.84140 79.30339
#
# Poissons Ratio (x) = -0.17920 0.15844
# Poissons Ratio (y) = -0.08847 -0.03051
# Poissons Ratio (z) = 0.08960 -0.03495
#
# Static dielectric constant tensor:
#      x y z
#    x 1.880800 0.000000 0.000000 
#    y 0.000000 1.887420 0.000000 
#    z 0.000000 0.000000 1.817500 
# 
# From -- ./inp_files/16902.got.cif
#   From: 2010.05.17/outbox.cif.g08.bks.cpg/sg69_9_cif.got.tgz:16902.got - 2010.06.03 19:29:58.
