data_PCOD9513690
_publ_section_title
;
Structure prediction by ZEFSAII (Michael W. Deem and Ramdas Pophale) SiO2 
 PCOD9513690
Probable space group: F M M M
;
_chemical_formula_sum "Si O2"
_cell_formula_units_Z 160
_cell_length_a 17.581761
_cell_length_b 30.582923
_cell_length_c 15.470796
_cell_angle_alpha 90.000000
_cell_angle_beta 90.000000
_cell_angle_gamma 90.000000
_cell_volume 8318.672426
_symmetry_space_group_name_H-M "F M M M"
_symmetry_group_IT_number 69
_symmetry_cell_setting 'orthorhombic'
loop_
_space_group_symop_operation_xyz
x,y,z
-x,-y,z
x,-y,-z
-x,y,-z
-x,-y,-z
x,y,-z
-x,y,z
x,-y,z
x,1/2+y,1/2+z
-x,1/2-y,1/2+z
x,1/2-y,1/2-z
-x,1/2+y,1/2-z
-x,1/2-y,1/2-z
x,1/2+y,1/2-z
-x,1/2+y,1/2+z
x,1/2-y,1/2+z
1/2+x,y,1/2+z
1/2-x,-y,1/2+z
1/2+x,-y,1/2-z
1/2-x,y,1/2-z
1/2-x,-y,1/2-z
1/2+x,y,1/2-z
1/2-x,y,1/2+z
1/2+x,-y,1/2+z
1/2+x,1/2+y,z
1/2-x,1/2-y,z
1/2+x,1/2-y,-z
1/2-x,1/2+y,-z
1/2-x,1/2-y,-z
1/2+x,1/2+y,-z
1/2-x,1/2+y,z
1/2+x,1/2-y,z
loop_
_atom_site_type_symbol
_atom_site_label
_atom_site_fract_x
_atom_site_fract_y
_atom_site_fract_z
Si Si1 0.412113 0.121207 0.905977
Si Si2 0.809339 0.684837 0.000000
Si Si3 0.589329 0.793044 0.694991
Si Si4 0.409810 0.449805 0.897903
Si Si5 0.143743 0.714598 0.500000
Si Si6 0.839270 0.614036 0.736799
O O1 0.500000 0.135748 0.895967
O O2 0.352538 0.161091 0.920651
O O3 0.383835 0.096826 0.821761
O O4 0.408149 0.097928 0.000000
O O5 0.828657 0.735412 0.000000
O O6 0.718103 0.682860 0.000000
O O7 0.500000 0.799082 0.713140
O O8 0.613930 0.750000 0.750000
O O9 0.600484 0.789874 0.591126
O O10 0.633962 0.836181 0.723323
O O11 0.500000 0.443431 0.882899
O O12 0.391150 0.500000 0.874619
O O13 0.363846 0.414896 0.843901
O O14 0.396660 0.444630 0.000000
O O15 0.750000 0.612034 0.750000
#
# Coordination Sequence:
#
# PCOD9513690 Si02
#       6
#    32  16  32  32  16  32
#     4   9  19  36  59  78 106 154 205 243 289 361
#     4   9  19  35  55  79 108 151 200 247 315 373
#     4  11  25  40  57  85 119 164 219 262 309 367
#     4   9  20  41  69  97 126 162 203 253 316 383
#     4  11  21  35  55  79 114 149 194 267 321 357
#     4  12  24  37  61  92 126 164 203 263 316 377
#
# _framework density 19.233837999999999
#
# number of rings (size 3 to 8) (size 9 to 14) (size 15 to 20)
#    0.600    1.200    0.000    5.100    1.400    6.400 
#    0.000    0.000    0.000    0.600    0.000    2.800 
#    0.000    0.000    0.000    0.000    0.000    0.000 
#
# Total GULP energy -223038.018312 kJ/mol
# GULP energy per Si atom -5575.950458 kJ/mol
# Density = 1.919006 g / cm^3
# Si number density = 19.233838 Si / 1000 Ang^3
#
#
#
# Elastic Constant Matrix: (Units=GPa)
#
#
# Indices 1 2 3 4 5 6 
#
# 1 93.9713 57.4593 37.4606 0.0000 0.0000 0.0000
# 2 57.4593 87.2984 43.9483 0.0000 0.0000 0.0000
# 3 37.4606 43.9483 96.1599 0.0000 0.0000 0.0000
# 4 0.0000 0.0000 0.0000 27.5892 0.0000 0.0000
# 5 0.0000 0.0000 0.0000 0.0000 11.0310 0.0000
# 6 0.0000 0.0000 0.0000 0.0000 0.0000 -9.4556
#
#
#
# Elastic Compliance Matrix: (Units=1/GPa)
#
#
# Indices 1 2 3 4 5 6 
#
# 1 0.018126 -0.010879 -0.002089 0.000000 0.000000 0.000000
# 2 -0.010879 0.021407 -0.005546 0.000000 0.000000 0.000000
# 3 -0.002089 -0.005546 0.013748 0.000000 0.000000 0.000000
# 4 0.000000 0.000000 0.000000 0.036246 0.000000 0.000000
# 5 0.000000 0.000000 0.000000 0.000000 0.090654 0.000000
# 6 0.000000 0.000000 0.000000 0.000000 0.000000 -0.105757
#
#
# Mechanical properties :
#
#
# Convention : Reuss Voigt Hill
#
# Bulk Modulus (GPa) = 61.52541 61.68511 61.60526
# Shear Modulus (GPa) = 42.78242 15.07033 28.92638
#
# Velocity S-wave (km/s) = 4.72140 2.80220 3.88226
# Velocity P-wave (km/s) = 7.86001 6.52768 7.22462
#
# Compressibility (1/GPa) = 0.01625345
#
# Stress axis : x y z
#
# Youngs Moduli (GPa) = 55.16814 46.71311 72.73816
#
# Poissons Ratio (x) = 0.50818 0.15198
# Poissons Ratio (y) = 0.60016 0.40339
# Poissons Ratio (z) = 0.11527 0.25906
#
# Static dielectric constant tensor:
#      x y z
#    x 0.788230 0.000000 0.000000 
#    y 0.000000 1.643210 0.000000 
#    z 0.000000 0.000000 1.753120 
# 
# From -- ./inp_files/15679.got.cif
#   From: 2010.05.17/outbox.cif.g08.bks.cpg/sg69_8_cif.got.tgz:15679.got - 2010.06.03 19:29:58.
