data_PCOD9513523
_publ_section_title
;
Structure prediction by ZEFSAII (Michael W. Deem and Ramdas Pophale) SiO2 
 PCOD9513523
Probable space group: F M M M
;
_chemical_formula_sum "Si O2"
_cell_formula_units_Z 112
_cell_length_a 8.640981
_cell_length_b 28.679512
_cell_length_c 21.777645
_cell_angle_alpha 90.000000
_cell_angle_beta 90.000000
_cell_angle_gamma 90.000000
_cell_volume 5396.916782
_symmetry_space_group_name_H-M "F M M M"
_symmetry_group_IT_number 69
_symmetry_cell_setting 'orthorhombic'
loop_
_space_group_symop_operation_xyz
x,y,z
-x,-y,z
x,-y,-z
-x,y,-z
-x,-y,-z
x,y,-z
-x,y,z
x,-y,z
x,1/2+y,1/2+z
-x,1/2-y,1/2+z
x,1/2-y,1/2-z
-x,1/2+y,1/2-z
-x,1/2-y,1/2-z
x,1/2+y,1/2-z
-x,1/2+y,1/2+z
x,1/2-y,1/2+z
1/2+x,y,1/2+z
1/2-x,-y,1/2+z
1/2+x,-y,1/2-z
1/2-x,y,1/2-z
1/2-x,-y,1/2-z
1/2+x,y,1/2-z
1/2-x,y,1/2+z
1/2+x,-y,1/2+z
1/2+x,1/2+y,z
1/2-x,1/2-y,z
1/2+x,1/2-y,-z
1/2-x,1/2+y,-z
1/2-x,1/2-y,-z
1/2+x,1/2+y,-z
1/2-x,1/2+y,z
1/2+x,1/2-y,z
loop_
_atom_site_type_symbol
_atom_site_label
_atom_site_fract_x
_atom_site_fract_y
_atom_site_fract_z
Si Si1 0.814245 0.302568 0.931912
Si Si2 0.311934 0.053988 0.135491
Si Si3 0.183419 0.144719 0.813617
Si Si4 0.675529 0.943413 0.000000
O O1 0.750000 0.250000 0.929708
O O2 0.748382 0.329890 0.873932
O O3 0.000000 0.302124 0.928074
O O4 0.772343 0.321957 0.000000
O O5 0.500000 0.057364 0.135710
O O6 0.239377 0.091295 0.180336
O O7 0.272764 0.000000 0.147725
O O8 0.255682 0.067247 0.066327
O O9 0.250000 0.164553 0.750000
O O10 0.000000 0.147448 0.812726
O O11 0.500000 0.924274 0.000000
O O12 0.663420 0.000000 0.000000
#
# Coordination Sequence:
#
# PCOD9513523 Si02
#       4
#    32  32  32  16
#     4  10  22  43  71 100 129 161 200 249 308 372
#     4   9  18  35  59  87 121 163 210 258 311 369
#     4  12  26  42  61  89 127 168 214 260 310 369
#     4   7  12  26  51  81 110 145 192 243 297 357
#
# _framework density 20.752590999999999
#
# number of rings (size 3 to 8) (size 9 to 14) (size 15 to 20)
#    0.000    2.143    0.000    5.143    2.000    3.429 
#    0.000    2.857    0.000    2.571    0.000    0.000 
#    0.000    0.000    0.000    0.000    0.000    0.000 
#
# Total GULP energy -156371.809045 kJ/mol
# GULP energy per Si atom -5584.707466 kJ/mol
# Density = 2.070536 g / cm^3
# Si number density = 20.752591 Si / 1000 Ang^3
#
#
#
# Elastic Constant Matrix: (Units=GPa)
#
#
# Indices 1 2 3 4 5 6 
#
# 1 90.4040 39.4209 67.0048 0.0000 0.0000 0.0000
# 2 39.4209 73.1748 68.9176 0.0000 0.0000 0.0000
# 3 67.0048 68.9176 188.7428 0.0000 0.0000 0.0000
# 4 0.0000 0.0000 0.0000 20.1562 0.0000 0.0000
# 5 0.0000 0.0000 0.0000 0.0000 29.8014 0.0000
# 6 0.0000 0.0000 0.0000 0.0000 0.0000 33.1751
#
#
#
# Elastic Compliance Matrix: (Units=1/GPa)
#
#
# Indices 1 2 3 4 5 6 
#
# 1 0.016140 -0.005027 -0.003894 0.000000 0.000000 0.000000
# 2 -0.005027 0.022395 -0.006393 0.000000 0.000000 0.000000
# 3 -0.003894 -0.006393 0.009015 0.000000 0.000000 0.000000
# 4 0.000000 0.000000 0.000000 0.049612 0.000000 0.000000
# 5 0.000000 0.000000 0.000000 0.000000 0.033556 0.000000
# 6 0.000000 0.000000 0.000000 0.000000 0.000000 0.030143
#
#
# Mechanical properties :
#
#
# Convention : Reuss Voigt Hill
#
# Bulk Modulus (GPa) = 59.09609 78.11206 68.60407
# Shear Modulus (GPa) = 25.36409 28.42508 26.89459
#
# Velocity S-wave (km/s) = 3.49981 3.70498 3.60385
# Velocity P-wave (km/s) = 6.69850 7.48491 7.10260
#
# Compressibility (1/GPa) = 0.01692159
#
# Stress axis : x y z
#
# Youngs Moduli (GPa) = 61.95861 44.65295 110.92886
#
# Poissons Ratio (x) = 0.22449 0.43196
# Poissons Ratio (y) = 0.31149 0.70912
# Poissons Ratio (z) = 0.24127 0.28545
#
# Static dielectric constant tensor:
#      x y z
#    x 1.696000 0.000000 0.000000 
#    y 0.000000 1.758430 0.000000 
#    z 0.000000 0.000000 1.779060 
# 
# From -- ./inp_files/34496.got.cif
#   From: 2010.05.17/outbox.cif.g08.bks.cpg/sg69_18_cif.got.tgz:34496.got - 2010.06.03 19:29:58.
