data_PCOD9513215
_publ_section_title
;
Structure prediction by ZEFSAII (Michael W. Deem and Ramdas Pophale) SiO2 
 PCOD9513215
Probable space group: F M M M
;
_chemical_formula_sum "Si O2"
_cell_formula_units_Z 120
_cell_length_a 13.723696
_cell_length_b 32.360632
_cell_length_c 14.967566
_cell_angle_alpha 90.000000
_cell_angle_beta 90.000000
_cell_angle_gamma 90.000000
_cell_volume 6647.207957
_symmetry_space_group_name_H-M "F M M M"
_symmetry_group_IT_number 69
_symmetry_cell_setting 'orthorhombic'
loop_
_space_group_symop_operation_xyz
x,y,z
-x,-y,z
x,-y,-z
-x,y,-z
-x,-y,-z
x,y,-z
-x,y,z
x,-y,z
x,1/2+y,1/2+z
-x,1/2-y,1/2+z
x,1/2-y,1/2-z
-x,1/2+y,1/2-z
-x,1/2-y,1/2-z
x,1/2+y,1/2-z
-x,1/2+y,1/2+z
x,1/2-y,1/2+z
1/2+x,y,1/2+z
1/2-x,-y,1/2+z
1/2+x,-y,1/2-z
1/2-x,y,1/2-z
1/2-x,-y,1/2-z
1/2+x,y,1/2-z
1/2-x,y,1/2+z
1/2+x,-y,1/2+z
1/2+x,1/2+y,z
1/2-x,1/2-y,z
1/2+x,1/2-y,-z
1/2-x,1/2+y,-z
1/2-x,1/2-y,-z
1/2+x,1/2+y,-z
1/2-x,1/2+y,z
1/2+x,1/2-y,z
loop_
_atom_site_type_symbol
_atom_site_label
_atom_site_fract_x
_atom_site_fract_y
_atom_site_fract_z
Si Si1 0.000000 0.721155 0.159553
Si Si2 0.321561 0.911492 0.669225
Si Si3 0.000000 0.848539 0.196607
Si Si4 0.658167 0.719059 0.500000
Si Si5 0.000000 0.165640 0.000000
Si Si6 0.223580 0.365834 0.500000
Si Si7 0.115558 0.000000 0.099954
O O1 0.000000 0.750000 0.250000
O O2 0.000000 0.677056 0.211605
O O3 0.908373 0.724890 0.089809
O O4 0.250000 0.913984 0.750000
O O5 0.407731 0.878961 0.689516
O O6 0.262024 0.892987 0.586680
O O7 0.357833 0.957182 0.646441
O O8 0.000000 0.819339 0.105199
O O9 0.750000 0.750000 0.500000
O O10 0.708947 0.674228 0.500000
O O11 0.106305 0.144066 0.000000
O O12 0.000000 0.000000 0.092490
O O13 0.158435 0.000000 0.000000
#
# Coordination Sequence:
#
# PCOD9513215 Si02
#       7
#    16  32  16  16   8  16  16
#     4  11  27  46  66  92 127 165 210 264 317 376
#     4  11  21  36  63  89 123 163 207 258 306 371
#     4  10  21  39  61  93 121 163 204 256 315 372
#     4  11  27  46  66  92 127 165 210 264 317 376
#     4   8  20  32  64  89 128 152 196 252 312 365
#     4  10  21  39  61  93 121 163 204 256 315 372
#     4  11  21  36  58  90 125 157 200 254 316 365
#
# _framework density 18.052692
#
# number of rings (size 3 to 8) (size 9 to 14) (size 15 to 20)
#    0.000    1.467    2.667    2.000    7.467    0.533 
#    0.000    0.000    0.000    0.000    0.000    1.867 
#    0.000    0.000    0.000    0.000    0.000    0.000 
#
# Total GULP energy -167006.678280 kJ/mol
# GULP energy per Si atom -5566.889276 kJ/mol
# Density = 1.801160 g / cm^3
# Si number density = 18.052692 Si / 1000 Ang^3
#
#
#
# Elastic Constant Matrix: (Units=GPa)
#
#
# Indices 1 2 3 4 5 6 
#
# 1 91.0301 61.4267 80.6375 0.0000 0.0000 0.0000
# 2 61.4267 139.7597 80.0302 0.0000 0.0000 0.0000
# 3 80.6375 80.0302 188.3765 0.0000 0.0000 0.0000
# 4 0.0000 0.0000 0.0000 20.9473 0.0000 0.0000
# 5 0.0000 0.0000 0.0000 0.0000 224.6365 0.0000
# 6 0.0000 0.0000 0.0000 0.0000 0.0000 87.0102
#
#
#
# Elastic Compliance Matrix: (Units=1/GPa)
#
#
# Indices 1 2 3 4 5 6 
#
# 1 0.020189 -0.005186 -0.006439 0.000000 0.000000 0.000000
# 2 -0.005186 0.010788 -0.002363 0.000000 0.000000 0.000000
# 3 -0.006439 -0.002363 0.009069 0.000000 0.000000 0.000000
# 4 0.000000 0.000000 0.000000 0.047739 0.000000 0.000000
# 5 0.000000 0.000000 0.000000 0.000000 0.004452 0.000000
# 6 0.000000 0.000000 0.000000 0.000000 0.000000 0.011493
#
#
# Mechanical properties :
#
#
# Convention : Reuss Voigt Hill
#
# Bulk Modulus (GPa) = 82.85693 95.92835 89.39264
# Shear Modulus (GPa) = 36.83851 79.65692 58.24772
#
# Velocity S-wave (km/s) = 4.52221 6.64985 5.68643
# Velocity P-wave (km/s) = 8.55945 10.59311 9.63011
#
# Compressibility (1/GPa) = 0.01206900
#
# Stress axis : x y z
#
# Youngs Moduli (GPa) = 49.53260 92.69800 110.27022
#
# Poissons Ratio (x) = 0.48076 0.71000
# Poissons Ratio (y) = 0.25689 0.26057
# Poissons Ratio (z) = 0.31893 0.21905
#
# Static dielectric constant tensor:
#      x y z
#    x 1.538140 0.000000 0.000000 
#    y 0.000000 1.668200 0.000000 
#    z 0.000000 0.000000 1.658790 
# 
# From -- ./inp_files/14491.got.cif
#   From: 2010.05.17/outbox.cif.g08.bks.cpg/sg69_8_cif.got.tgz:14491.got - 2010.06.03 19:29:58.
