data_PCOD9513654
_publ_section_title
;
Structure prediction by ZEFSAII (Michael W. Deem and Ramdas Pophale) SiO2 
 PCOD9513654
Probable space group: F M M M
;
_chemical_formula_sum "Si O2"
_cell_formula_units_Z 152
_cell_length_a 24.224848
_cell_length_b 21.307077
_cell_length_c 15.118882
_cell_angle_alpha 90.000000
_cell_angle_beta 90.000000
_cell_angle_gamma 90.000000
_cell_volume 7803.772741
_symmetry_space_group_name_H-M "F M M M"
_symmetry_group_IT_number 69
_symmetry_cell_setting 'orthorhombic'
loop_
_space_group_symop_operation_xyz
x,y,z
-x,-y,z
x,-y,-z
-x,y,-z
-x,-y,-z
x,y,-z
-x,y,z
x,-y,z
x,1/2+y,1/2+z
-x,1/2-y,1/2+z
x,1/2-y,1/2-z
-x,1/2+y,1/2-z
-x,1/2-y,1/2-z
x,1/2+y,1/2-z
-x,1/2+y,1/2+z
x,1/2-y,1/2+z
1/2+x,y,1/2+z
1/2-x,-y,1/2+z
1/2+x,-y,1/2-z
1/2-x,y,1/2-z
1/2-x,-y,1/2-z
1/2+x,y,1/2-z
1/2-x,y,1/2+z
1/2+x,-y,1/2+z
1/2+x,1/2+y,z
1/2-x,1/2-y,z
1/2+x,1/2-y,-z
1/2-x,1/2+y,-z
1/2-x,1/2-y,-z
1/2+x,1/2+y,-z
1/2-x,1/2+y,z
1/2+x,1/2-y,z
loop_
_atom_site_type_symbol
_atom_site_label
_atom_site_fract_x
_atom_site_fract_y
_atom_site_fract_z
Si Si1 0.766865 0.930864 0.351766
Si Si2 0.500000 0.574724 0.601550
Si Si3 0.383619 0.381919 0.604792
Si Si4 0.207489 0.303575 0.397518
Si Si5 0.000000 0.279676 0.500000
Si Si6 0.094720 0.241119 0.849984
O O1 0.750000 0.931019 0.250000
O O2 0.832006 0.918132 0.356799
O O3 0.736627 0.871115 0.393786
O O4 0.754304 0.000000 0.389614
O O5 0.500000 0.500000 0.597500
O O6 0.500000 0.600737 0.500000
O O7 0.556960 0.597606 0.642463
O O8 0.383469 0.395778 0.500000
O O9 0.380277 0.307973 0.619236
O O10 0.195838 0.287899 0.500000
O O11 0.250000 0.250000 0.363580
O O12 0.148678 0.303510 0.348478
O O13 0.951413 0.277204 0.421479
O O14 0.073247 0.250000 0.750000
#
# Coordination Sequence:
#
# PCOD9513654 Si02
#       6
#    32  16  32  32   8  32
#     4  11  24  39  59  92 133 174 222 271 321 389
#     4   9  19  32  53  85 121 160 198 245 311 390
#     4  11  20  37  62  91 127 165 212 259 320 396
#     4  11  22  39  62  94 128 170 220 263 324 393
#     4  12  24  44  58  96 128 166 220 272 316 400
#     4  12  24  40  65  94 129 172 210 271 327 382
#
# _framework density 19.477757
#
# number of rings (size 3 to 8) (size 9 to 14) (size 15 to 20)
#    0.000    0.947    4.211    3.474    1.474    2.526 
#    0.000    0.000    0.000    0.000    0.000    1.474 
#    0.000    0.000    0.000    0.000    0.000    0.000 
#
# Total GULP energy -211688.689500 kJ/mol
# GULP energy per Si atom -5570.754987 kJ/mol
# Density = 1.943343 g / cm^3
# Si number density = 19.477757 Si / 1000 Ang^3
#
#
#
# Elastic Constant Matrix: (Units=GPa)
#
#
# Indices 1 2 3 4 5 6 
#
# 1 151.6732 47.7617 49.6341 0.0000 0.0000 0.0000
# 2 47.7617 98.3640 -6.6451 0.0000 0.0000 0.0000
# 3 49.6341 -6.6451 88.9523 0.0000 0.0000 0.0000
# 4 0.0000 0.0000 0.0000 2.5062 0.0000 0.0000
# 5 0.0000 0.0000 0.0000 0.0000 20.9093 0.0000
# 6 0.0000 0.0000 0.0000 0.0000 0.0000 40.8969
#
#
#
# Elastic Compliance Matrix: (Units=1/GPa)
#
#
# Indices 1 2 3 4 5 6 
#
# 1 0.010319 -0.005427 -0.006163 0.000000 0.000000 0.000000
# 2 -0.005427 0.013072 0.004005 0.000000 0.000000 0.000000
# 3 -0.006163 0.004005 0.014980 0.000000 0.000000 0.000000
# 4 0.000000 0.000000 0.000000 0.399014 0.000000 0.000000
# 5 0.000000 0.000000 0.000000 0.000000 0.047826 0.000000
# 6 0.000000 0.000000 0.000000 0.000000 0.000000 0.024452
#
#
# Mechanical properties :
#
#
# Convention : Reuss Voigt Hill
#
# Bulk Modulus (GPa) = 43.10327 57.83232 50.46780
# Shear Modulus (GPa) = 9.38850 29.41175 19.40013
#
# Velocity S-wave (km/s) = 2.19786 3.89011 3.15939
# Velocity P-wave (km/s) = 5.34961 7.06634 6.26704
#
# Compressibility (1/GPa) = 0.02320010
#
# Stress axis : x y z
#
# Youngs Moduli (GPa) = 96.90978 76.50001 66.75522
#
# Poissons Ratio (x) = 0.41515 0.41142
# Poissons Ratio (y) = 0.52591 -0.26733
# Poissons Ratio (z) = 0.59727 -0.30635
#
# Static dielectric constant tensor:
#      x y z
#    x 1.714260 0.000000 0.000000 
#    y 0.000000 1.753930 0.000000 
#    z 0.000000 0.000000 1.697800 
# 
# From -- ./inp_files/17790.got.cif
#   From: 2010.05.17/outbox.cif.g08.bks.cpg/sg69_9_cif.got.tgz:17790.got - 2010.06.03 19:29:58.
