data_PCOD9513255
_publ_section_title
;
Structure prediction by ZEFSAII (Michael W. Deem and Ramdas Pophale) SiO2 
 PCOD9513255
Probable space group: F M M M
;
_chemical_formula_sum "Si O2"
_cell_formula_units_Z 136
_cell_length_a 18.594627
_cell_length_b 25.526009
_cell_length_c 14.684945
_cell_angle_alpha 90.000000
_cell_angle_beta 90.000000
_cell_angle_gamma 90.000000
_cell_volume 6970.159453
_symmetry_space_group_name_H-M "F M M M"
_symmetry_group_IT_number 69
_symmetry_cell_setting 'orthorhombic'
loop_
_space_group_symop_operation_xyz
x,y,z
-x,-y,z
x,-y,-z
-x,y,-z
-x,-y,-z
x,y,-z
-x,y,z
x,-y,z
x,1/2+y,1/2+z
-x,1/2-y,1/2+z
x,1/2-y,1/2-z
-x,1/2+y,1/2-z
-x,1/2-y,1/2-z
x,1/2+y,1/2-z
-x,1/2+y,1/2+z
x,1/2-y,1/2+z
1/2+x,y,1/2+z
1/2-x,-y,1/2+z
1/2+x,-y,1/2-z
1/2-x,y,1/2-z
1/2-x,-y,1/2-z
1/2+x,y,1/2-z
1/2-x,y,1/2+z
1/2+x,-y,1/2+z
1/2+x,1/2+y,z
1/2-x,1/2-y,z
1/2+x,1/2-y,-z
1/2-x,1/2+y,-z
1/2-x,1/2-y,-z
1/2+x,1/2+y,-z
1/2-x,1/2+y,z
1/2+x,1/2-y,z
loop_
_atom_site_type_symbol
_atom_site_label
_atom_site_fract_x
_atom_site_fract_y
_atom_site_fract_z
Si Si1 0.250000 0.250000 0.250000
Si Si2 0.415661 0.191617 0.266045
Si Si3 0.727438 0.557517 0.355589
Si Si4 0.082126 0.608556 0.105431
Si Si5 0.206712 0.332520 0.397168
O O1 0.253536 0.296358 0.330459
O O2 0.500000 0.197501 0.288366
O O3 0.382549 0.250000 0.250000
O O4 0.410581 0.156790 0.175584
O O5 0.371035 0.167384 0.348179
O O6 0.747352 0.500000 0.391160
O O7 0.750000 0.559034 0.250000
O O8 0.642359 0.566745 0.368232
O O9 0.763549 0.608544 0.398254
O O10 0.000000 0.589173 0.113606
O O11 0.093146 0.624660 0.000000
O O12 0.203353 0.312432 0.500000
#
# Coordination Sequence:
#
# PCOD9513255 Si02
#       5
#     8  32  32  32  32
#     4  12  22  44  56  90 128 156 202 264 312 378
#     4  10  21  40  60  86 128 167 208 260 309 375
#     4  11  23  42  65  91 126 169 212 261 320 379
#     4  10  21  39  65  94 124 163 210 263 323 379
#     4  12  24  39  65  93 124 169 211 257 314 380
#
# _framework density 19.511748999999998
#
# number of rings (size 3 to 8) (size 9 to 14) (size 15 to 20)
#    0.000    1.176    4.706    1.059    0.000    3.765 
#    0.000    3.529    0.000    0.706    0.000    1.647 
#    0.000    0.000    0.000    0.000    0.000    0.000 
#
# Total GULP energy -189474.703936 kJ/mol
# GULP energy per Si atom -5572.785410 kJ/mol
# Density = 1.946734 g / cm^3
# Si number density = 19.511749 Si / 1000 Ang^3
#
#
#
# Elastic Constant Matrix: (Units=GPa)
#
#
# Indices 1 2 3 4 5 6 
#
# 1 100.4358 37.9495 53.6058 0.0000 0.0000 0.0000
# 2 37.9495 126.2727 40.1194 0.0000 0.0000 0.0000
# 3 53.6058 40.1194 150.9959 0.0000 0.0000 0.0000
# 4 0.0000 0.0000 0.0000 -11.3780 0.0000 0.0000
# 5 0.0000 0.0000 0.0000 0.0000 25.8547 0.0000
# 6 0.0000 0.0000 0.0000 0.0000 0.0000 -19.4870
#
#
#
# Elastic Compliance Matrix: (Units=1/GPa)
#
#
# Indices 1 2 3 4 5 6 
#
# 1 0.013064 -0.002679 -0.003926 0.000000 0.000000 0.000000
# 2 -0.002679 0.009199 -0.001493 0.000000 0.000000 0.000000
# 3 -0.003926 -0.001493 0.008413 0.000000 0.000000 0.000000
# 4 0.000000 0.000000 0.000000 -0.087889 0.000000 0.000000
# 5 0.000000 0.000000 0.000000 0.000000 0.038678 0.000000
# 6 0.000000 0.000000 0.000000 0.000000 0.000000 -0.051316
#
#
# Mechanical properties :
#
#
# Convention : Reuss Voigt Hill
#
# Bulk Modulus (GPa) = 69.06044 71.22822 70.14433
# Shear Modulus (GPa) = -102.40011 15.39992 -43.50009
#
# Velocity S-wave (km/s) = -7.25225 2.81243 -4.72681
# Velocity P-wave (km/s) = 5.88692 6.86520 2.49751
#
# Compressibility (1/GPa) = 0.01448007
#
# Stress axis : x y z
#
# Youngs Moduli (GPa) = 76.54390 108.70930 118.85939
#
# Poissons Ratio (x) = 0.29122 0.46668
# Poissons Ratio (y) = 0.20505 0.17747
# Poissons Ratio (z) = 0.30053 0.16231
#
# Static dielectric constant tensor:
#      x y z
#    x 0.839660 0.000000 0.000000 
#    y 0.000000 1.680160 0.000000 
#    z 0.000000 0.000000 1.646620 
# 
# From -- ./inp_files/16582.got.cif
#   From: 2010.05.17/outbox.cif.g08.bks.cpg/sg69_9_cif.got.tgz:16582.got - 2010.06.03 19:29:58.
