data_PCOD9513769
_publ_section_title
;
Structure prediction by ZEFSAII (Michael W. Deem and Ramdas Pophale) SiO2 
 PCOD9513769
Probable space group: F M M M
;
_chemical_formula_sum "Si O2"
_cell_formula_units_Z 168
_cell_length_a 27.980396
_cell_length_b 22.628507
_cell_length_c 13.951559
_cell_angle_alpha 90.000000
_cell_angle_beta 90.000000
_cell_angle_gamma 90.000000
_cell_volume 8833.493573
_symmetry_space_group_name_H-M "F M M M"
_symmetry_group_IT_number 69
_symmetry_cell_setting 'orthorhombic'
loop_
_space_group_symop_operation_xyz
x,y,z
-x,-y,z
x,-y,-z
-x,y,-z
-x,-y,-z
x,y,-z
-x,y,z
x,-y,z
x,1/2+y,1/2+z
-x,1/2-y,1/2+z
x,1/2-y,1/2-z
-x,1/2+y,1/2-z
-x,1/2-y,1/2-z
x,1/2+y,1/2-z
-x,1/2+y,1/2+z
x,1/2-y,1/2+z
1/2+x,y,1/2+z
1/2-x,-y,1/2+z
1/2+x,-y,1/2-z
1/2-x,y,1/2-z
1/2-x,-y,1/2-z
1/2+x,y,1/2-z
1/2-x,y,1/2+z
1/2+x,-y,1/2+z
1/2+x,1/2+y,z
1/2-x,1/2-y,z
1/2+x,1/2-y,-z
1/2-x,1/2+y,-z
1/2-x,1/2-y,-z
1/2+x,1/2+y,-z
1/2-x,1/2+y,z
1/2+x,1/2-y,z
loop_
_atom_site_type_symbol
_atom_site_label
_atom_site_fract_x
_atom_site_fract_y
_atom_site_fract_z
Si Si1 0.058063 0.722916 0.394904
Si Si2 0.557227 0.655943 0.297113
Si Si3 0.862552 0.931522 0.305079
Si Si4 0.250000 0.750000 0.750000
Si Si5 0.692011 0.432394 0.890891
Si Si6 0.717068 0.847496 0.889541
O O1 0.076026 0.706567 0.500000
O O2 0.071756 0.680283 0.308143
O O3 0.070755 0.790220 0.367912
O O4 0.000000 0.721633 0.396092
O O5 0.500000 0.648948 0.299953
O O6 0.585616 0.596850 0.317989
O O7 0.846183 0.926584 0.193655
O O8 0.825629 0.891553 0.363856
O O9 0.860066 0.000000 0.332362
O O10 0.281119 0.792213 0.818274
O O11 0.711355 0.500000 0.883601
O O12 0.734226 0.385421 0.876166
O O13 0.673602 0.425463 0.000000
O O14 0.714387 0.828553 0.000000
#
# Coordination Sequence:
#
# PCOD9513769 Si02
#       6
#    32  32  32   8  32  32
#     4   8  15  32  57  78 101 139 185 235 289 337
#     4   9  19  34  53  82 115 147 191 237 279 334
#     4  11  22  37  57  82 114 152 195 237 281 335
#     4  12  22  40  62  90 122 152 174 222 288 350
#     4   9  18  36  61  83 106 143 189 235 282 335
#     4  11  23  40  61  86 116 147 183 229 281 342
#
# _framework density 19.018522000000001
#
# number of rings (size 3 to 8) (size 9 to 14) (size 15 to 20)
#    0.000    2.286    1.905    2.000    0.000    6.095 
#    0.000    0.000    0.000    0.000    0.000    9.333 
#    0.000    0.000    0.000    0.000    0.000    0.000 
#
# Total GULP energy -234374.882130 kJ/mol
# GULP energy per Si atom -5580.354336 kJ/mol
# Density = 1.897524 g / cm^3
# Si number density = 19.018522 Si / 1000 Ang^3
#
#
#
# Elastic Constant Matrix: (Units=GPa)
#
#
# Indices 1 2 3 4 5 6 
#
# 1 40.9179 37.4813 -0.3440 0.0000 0.0000 0.0000
# 2 37.4813 112.0689 26.6939 0.0000 0.0000 0.0000
# 3 -0.3440 26.6939 47.6038 0.0000 0.0000 0.0000
# 4 0.0000 0.0000 0.0000 19.2704 0.0000 0.0000
# 5 0.0000 0.0000 0.0000 0.0000 8.7744 0.0000
# 6 0.0000 0.0000 0.0000 0.0000 0.0000 30.0609
#
#
#
# Elastic Compliance Matrix: (Units=1/GPa)
#
#
# Indices 1 2 3 4 5 6 
#
# 1 0.038026 -0.014754 0.008548 0.000000 0.000000 0.000000
# 2 -0.014754 0.016023 -0.009092 0.000000 0.000000 0.000000
# 3 0.008548 -0.009092 0.026167 0.000000 0.000000 0.000000
# 4 0.000000 0.000000 0.000000 0.051893 0.000000 0.000000
# 5 0.000000 0.000000 0.000000 0.000000 0.113968 0.000000
# 6 0.000000 0.000000 0.000000 0.000000 0.000000 0.033266
#
#
# Mechanical properties :
#
#
# Convention : Reuss Voigt Hill
#
# Bulk Modulus (GPa) = 20.15288 36.47252 28.31270
# Shear Modulus (GPa) = 15.31503 20.73843 18.02673
#
# Velocity S-wave (km/s) = 2.84081 3.30575 3.08206
# Velocity P-wave (km/s) = 4.62382 5.81289 5.25211
#
# Compressibility (1/GPa) = 0.04962071
#
# Stress axis : x y z
#
# Youngs Moduli (GPa) = 26.29807 62.41048 38.21664
#
# Poissons Ratio (x) = 0.92078 -0.32667
# Poissons Ratio (y) = 0.38799 0.34745
# Poissons Ratio (z) = -0.22479 0.56741
#
# Static dielectric constant tensor:
#      x y z
#    x 1.647460 0.000000 0.000000 
#    y 0.000000 1.643200 0.000000 
#    z 0.000000 0.000000 1.682210 
# 
# From -- ./inp_files/19701.got.cif
#   From: 2010.05.17/outbox.cif.g08.bks.cpg/sg69_10_cif.got.tgz:19701.got - 2010.06.03 19:29:58.
