data_PCOD9513551
_publ_section_title
;
Structure prediction by ZEFSAII (Michael W. Deem and Ramdas Pophale) SiO2 
 PCOD9513551
Probable space group: F M M M
;
_chemical_formula_sum "Si O2"
_cell_formula_units_Z 104
_cell_length_a 14.229345
_cell_length_b 10.652228
_cell_length_c 34.258825
_cell_angle_alpha 90.000000
_cell_angle_beta 90.000000
_cell_angle_gamma 90.000000
_cell_volume 5192.754925
_symmetry_space_group_name_H-M "F M M M"
_symmetry_group_IT_number 69
_symmetry_cell_setting 'orthorhombic'
loop_
_space_group_symop_operation_xyz
x,y,z
-x,-y,z
x,-y,-z
-x,y,-z
-x,-y,-z
x,y,-z
-x,y,z
x,-y,z
x,1/2+y,1/2+z
-x,1/2-y,1/2+z
x,1/2-y,1/2-z
-x,1/2+y,1/2-z
-x,1/2-y,1/2-z
x,1/2+y,1/2-z
-x,1/2+y,1/2+z
x,1/2-y,1/2+z
1/2+x,y,1/2+z
1/2-x,-y,1/2+z
1/2+x,-y,1/2-z
1/2-x,y,1/2-z
1/2-x,-y,1/2-z
1/2+x,y,1/2-z
1/2-x,y,1/2+z
1/2+x,-y,1/2+z
1/2+x,1/2+y,z
1/2-x,1/2-y,z
1/2+x,1/2-y,-z
1/2-x,1/2+y,-z
1/2-x,1/2-y,-z
1/2+x,1/2+y,-z
1/2-x,1/2+y,z
1/2+x,1/2-y,z
loop_
_atom_site_type_symbol
_atom_site_label
_atom_site_fract_x
_atom_site_fract_y
_atom_site_fract_z
Si Si1 0.609492 0.862875 0.370832
Si Si2 0.888202 0.356737 0.813151
Si Si3 0.328195 0.357093 0.957620
Si Si4 0.250000 0.750000 0.250000
O O1 0.500000 0.872390 0.361278
O O2 0.641462 0.743850 0.346061
O O3 0.616792 0.843169 0.417289
O O4 0.653241 0.000000 0.361407
O O5 0.879166 0.500000 0.826821
O O6 0.819828 0.331837 0.776808
O O7 0.000000 0.338649 0.803388
O O8 0.289188 0.500000 0.956569
O O9 0.250000 0.250000 0.957062
O O10 0.378063 0.346357 0.000000
#
# Coordination Sequence:
#
# PCOD9513551 Si02
#       4
#    32  32  32   8
#     4   9  19  36  57  81 111 148 187 231 282 333
#     4  10  23  42  62  87 119 152 190 239 291 347
#     4   9  18  32  51  78 111 147 187 230 273 322
#     4  12  24  40  64  92 112 148 194 238 290 354
#
# _framework density 20.027905000000001
#
# number of rings (size 3 to 8) (size 9 to 14) (size 15 to 20)
#    0.000    2.462    0.000    0.923    2.154    4.308 
#    0.000    6.154    0.000    0.000    0.000    8.615 
#    0.000    0.000    0.000    0.000    0.000    0.000 
#
# Total GULP energy -144785.544911 kJ/mol
# GULP energy per Si atom -5568.674804 kJ/mol
# Density = 1.998232 g / cm^3
# Si number density = 20.027905 Si / 1000 Ang^3
#
#
#
# Elastic Constant Matrix: (Units=GPa)
#
#
# Indices 1 2 3 4 5 6 
#
# 1 79.7344 46.8904 30.9983 0.0000 0.0000 0.0000
# 2 46.8904 157.6364 89.4939 0.0000 0.0000 0.0000
# 3 30.9983 89.4939 120.1314 0.0000 0.0000 0.0000
# 4 0.0000 0.0000 0.0000 -9.9269 0.0000 0.0000
# 5 0.0000 0.0000 0.0000 0.0000 -24.9604 0.0000
# 6 0.0000 0.0000 0.0000 0.0000 0.0000 1.1789
#
#
#
# Elastic Compliance Matrix: (Units=1/GPa)
#
#
# Indices 1 2 3 4 5 6 
#
# 1 0.015265 -0.003993 -0.000964 0.000000 0.000000 0.000000
# 2 -0.003993 0.012038 -0.007937 0.000000 0.000000 0.000000
# 3 -0.000964 -0.007937 0.014486 0.000000 0.000000 0.000000
# 4 0.000000 0.000000 0.000000 -0.100736 0.000000 0.000000
# 5 0.000000 0.000000 0.000000 0.000000 -0.040063 0.000000
# 6 0.000000 0.000000 0.000000 0.000000 0.000000 0.848224
#
#
# Mechanical properties :
#
#
# Convention : Reuss Voigt Hill
#
# Bulk Modulus (GPa) = 62.50273 76.91861 69.71067
# Shear Modulus (GPa) = 6.40750 5.93297 6.17023
#
# Velocity S-wave (km/s) = 1.79060 1.72302 1.75713
# Velocity P-wave (km/s) = 5.96243 6.51517 6.24492
#
# Compressibility (1/GPa) = 0.01599930
#
# Stress axis : x y z
#
# Youngs Moduli (GPa) = 65.50999 83.07179 69.03236
#
# Poissons Ratio (x) = 0.33174 0.06654
# Poissons Ratio (y) = 0.26161 0.54793
# Poissons Ratio (z) = 0.06315 0.65937
#
# Static dielectric constant tensor:
#      x y z
#    x 1.718960 0.000000 0.000000 
#    y 0.000000 1.731470 0.000000 
#    z 0.000000 0.000000 1.723110 
# 
# From -- ./inp_files/10924.got.cif
#   From: 2010.05.17/outbox.cif.g08.bks.cpg/sg69_6_cif.got.tgz:10924.got - 2010.06.03 19:29:58.
