data_PCOD9513871
_publ_section_title
;
Structure prediction by ZEFSAII (Michael W. Deem and Ramdas Pophale) SiO2 
 PCOD9513871
Probable space group: F M M M
;
_chemical_formula_sum "Si O2"
_cell_formula_units_Z 112
_cell_length_a 28.312183
_cell_length_b 22.037195
_cell_length_c 8.630670
_cell_angle_alpha 90.000000
_cell_angle_beta 90.000000
_cell_angle_gamma 90.000000
_cell_volume 5384.857100
_symmetry_space_group_name_H-M "F M M M"
_symmetry_group_IT_number 69
_symmetry_cell_setting 'orthorhombic'
loop_
_space_group_symop_operation_xyz
x,y,z
-x,-y,z
x,-y,-z
-x,y,-z
-x,-y,-z
x,y,-z
-x,y,z
x,-y,z
x,1/2+y,1/2+z
-x,1/2-y,1/2+z
x,1/2-y,1/2-z
-x,1/2+y,1/2-z
-x,1/2-y,1/2-z
x,1/2+y,1/2-z
-x,1/2+y,1/2+z
x,1/2-y,1/2+z
1/2+x,y,1/2+z
1/2-x,-y,1/2+z
1/2+x,-y,1/2-z
1/2-x,y,1/2-z
1/2-x,-y,1/2-z
1/2+x,y,1/2-z
1/2-x,y,1/2+z
1/2+x,-y,1/2+z
1/2+x,1/2+y,z
1/2-x,1/2-y,z
1/2+x,1/2-y,-z
1/2-x,1/2+y,-z
1/2-x,1/2-y,-z
1/2+x,1/2+y,-z
1/2-x,1/2+y,z
1/2+x,1/2-y,z
loop_
_atom_site_type_symbol
_atom_site_label
_atom_site_fract_x
_atom_site_fract_y
_atom_site_fract_z
Si Si1 0.302693 0.866300 0.312796
Si Si2 0.102319 0.687510 0.684416
Si Si3 0.443119 0.933279 0.817383
Si Si4 0.196693 0.500000 0.686618
O O1 0.299939 0.865391 0.500000
O O2 0.250000 0.856163 0.250000
O O3 0.343209 0.820459 0.261197
O O4 0.321006 0.933817 0.263871
O O5 0.102004 0.690782 0.500000
O O6 0.082019 0.750000 0.750000
O O7 0.076289 0.626188 0.734907
O O8 0.500000 0.932691 0.805591
O O9 0.426968 0.000000 0.757631
O O10 0.431174 0.930211 0.000000
O O11 0.196201 0.500000 0.500000
O O12 0.250000 0.500000 0.750000
#
# Coordination Sequence:
#
# PCOD9513871 Si02
#       4
#    32  32  32  16
#     4   9  19  34  54  79 111 152 195 242 290 342
#     4  11  24  39  58  86 121 160 201 245 293 348
#     4   9  20  41  67  93 120 150 188 238 296 357
#     4   8  14  28  48  72 101 132 177 231 282 331
#
# _framework density 20.799067000000001
#
# number of rings (size 3 to 8) (size 9 to 14) (size 15 to 20)
#    0.000    2.571    0.000    1.714    2.000    4.571 
#    0.000    4.286    0.000    0.000    0.000    0.000 
#    0.000    0.000    0.000    0.000    0.000    0.000 
#
# Total GULP energy -156140.718608 kJ/mol
# GULP energy per Si atom -5576.454236 kJ/mol
# Density = 2.075173 g / cm^3
# Si number density = 20.799067 Si / 1000 Ang^3
#
#
#
# Elastic Constant Matrix: (Units=GPa)
#
#
# Indices 1 2 3 4 5 6 
#
# 1 38.7127 40.9701 18.5958 -0.0001 0.0000 0.0000
# 2 40.9701 179.0420 43.8537 -0.0001 0.0001 0.0000
# 3 18.5958 43.8537 29.5459 -0.0005 0.0002 0.0000
# 4 -0.0001 -0.0001 -0.0005 23.4675 0.0001 0.0000
# 5 0.0000 0.0001 0.0002 0.0001 22.3259 0.0000
# 6 0.0000 0.0000 0.0000 0.0000 0.0000 18.1664
#
#
#
# Elastic Compliance Matrix: (Units=1/GPa)
#
#
# Indices 1 2 3 4 5 6 
#
# 1 0.039308 -0.004612 -0.017895 0.000000 0.000000 0.000000
# 2 -0.004612 0.009317 -0.010926 0.000000 0.000000 0.000000
# 3 -0.017895 -0.010926 0.061325 0.000001 0.000000 0.000000
# 4 0.000000 0.000000 0.000001 0.042612 0.000000 0.000000
# 5 0.000000 0.000000 0.000000 0.000000 0.044791 0.000000
# 6 0.000000 0.000000 0.000000 0.000000 0.000000 0.055047
#
#
# Mechanical properties :
#
#
# Convention : Reuss Voigt Hill
#
# Bulk Modulus (GPa) = 23.21001 50.46000 36.83500
# Shear Modulus (GPa) = 14.98686 22.38404 18.68545
#
# Velocity S-wave (km/s) = 2.68723 3.28411 3.00055
# Velocity P-wave (km/s) = 4.56198 6.22044 5.45461
#
# Compressibility (1/GPa) = 0.04308486
#
# Stress axis : x y z
#
# Youngs Moduli (GPa) = 25.44026 107.33420 16.30653
#
# Poissons Ratio (x) = 0.49499 0.29180
# Poissons Ratio (y) = 0.11732 0.17816
# Poissons Ratio (z) = 0.45525 1.17271
#
# Static dielectric constant tensor:
#      x y z
#    x 1.748640 0.000000 0.000000 
#    y 0.000000 1.782420 0.000000 
#    z 0.000000 0.000000 1.703380 
# 
# From -- ./inp_files/3718.got.cif
#   From: 2010.05.17/outbox.cif.g08.bks.cpg/sg69_2_cif.got.tgz:3718.got - 2010.06.03 19:29:58.
