data_PCOD9513762
_publ_section_title
;
Structure prediction by ZEFSAII (Michael W. Deem and Ramdas Pophale) SiO2 
 PCOD9513762
Probable space group: F M M M
;
_chemical_formula_sum "Si O2"
_cell_formula_units_Z 144
_cell_length_a 27.398663
_cell_length_b 14.875384
_cell_length_c 16.916604
_cell_angle_alpha 90.000000
_cell_angle_beta 90.000000
_cell_angle_gamma 90.000000
_cell_volume 6894.626421
_symmetry_space_group_name_H-M "F M M M"
_symmetry_group_IT_number 69
_symmetry_cell_setting 'orthorhombic'
loop_
_space_group_symop_operation_xyz
x,y,z
-x,-y,z
x,-y,-z
-x,y,-z
-x,-y,-z
x,y,-z
-x,y,z
x,-y,z
x,1/2+y,1/2+z
-x,1/2-y,1/2+z
x,1/2-y,1/2-z
-x,1/2+y,1/2-z
-x,1/2-y,1/2-z
x,1/2+y,1/2-z
-x,1/2+y,1/2+z
x,1/2-y,1/2+z
1/2+x,y,1/2+z
1/2-x,-y,1/2+z
1/2+x,-y,1/2-z
1/2-x,y,1/2-z
1/2-x,-y,1/2-z
1/2+x,y,1/2-z
1/2-x,y,1/2+z
1/2+x,-y,1/2+z
1/2+x,1/2+y,z
1/2-x,1/2-y,z
1/2+x,1/2-y,-z
1/2-x,1/2+y,-z
1/2-x,1/2-y,-z
1/2+x,1/2+y,-z
1/2-x,1/2+y,z
1/2+x,1/2-y,z
loop_
_atom_site_type_symbol
_atom_site_label
_atom_site_fract_x
_atom_site_fract_y
_atom_site_fract_z
Si Si1 0.339516 0.098093 0.854933
Si Si2 0.762993 0.855336 0.908100
Si Si3 0.500000 0.396524 0.596235
Si Si4 0.087342 0.765997 0.590625
Si Si5 0.133276 0.396819 0.672109
O O1 0.281369 0.099392 0.861491
O O2 0.362479 0.177510 0.905899
O O3 0.356157 0.113046 0.765106
O O4 0.357512 0.000000 0.881924
O O5 0.750000 0.750000 0.903426
O O6 0.815467 0.877590 0.872072
O O7 0.761859 0.882462 0.000000
O O8 0.500000 0.500000 0.624869
O O9 0.500000 0.400956 0.500000
O O10 0.546860 0.337151 0.619426
O O11 0.076406 0.741296 0.500000
O O12 0.095084 0.677172 0.642029
O O13 0.118598 0.500000 0.656835
#
# Coordination Sequence:
#
# PCOD9513762 Si02
#       5
#    32  32  16  32  32
#     4  11  23  38  59  87 119 159 204 249 299 355
#     4  11  22  36  57  87 120 160 209 255 298 346
#     4   9  20  40  66  95 123 149 187 248 312 360
#     4  11  22  39  64  91 117 151 196 248 304 359
#     4  11  24  40  58  85 125 168 202 242 298 358
#
# _framework density 20.885829999999999
#
# number of rings (size 3 to 8) (size 9 to 14) (size 15 to 20)
#    0.000    1.222    2.222    4.000    0.000    8.000 
#    0.000    2.778    0.000    4.667    0.000    0.000 
#    0.000    0.000    0.000    0.000    0.000    0.000 
#
# Total GULP energy -201268.251714 kJ/mol
# GULP energy per Si atom -5590.784770 kJ/mol
# Density = 2.083829 g / cm^3
# Si number density = 20.885830 Si / 1000 Ang^3
#
#
#
# Elastic Constant Matrix: (Units=GPa)
#
#
# Indices 1 2 3 4 5 6 
#
# 1 81.8755 42.8500 3.6972 0.0000 0.0000 0.0000
# 2 42.8500 153.3820 43.9533 0.0000 0.0000 0.0000
# 3 3.6972 43.9533 58.7628 0.0000 0.0000 0.0000
# 4 0.0000 0.0000 0.0000 47.6370 0.0000 0.0000
# 5 0.0000 0.0000 0.0000 0.0000 17.4741 0.0000
# 6 0.0000 0.0000 0.0000 0.0000 0.0000 20.0194
#
#
#
# Elastic Compliance Matrix: (Units=1/GPa)
#
#
# Indices 1 2 3 4 5 6 
#
# 1 0.014639 -0.004870 0.002721 0.000000 0.000000 0.000000
# 2 -0.004870 0.009918 -0.007112 0.000000 0.000000 0.000000
# 3 0.002721 -0.007112 0.022166 0.000000 0.000000 0.000000
# 4 0.000000 0.000000 0.000000 0.020992 0.000000 0.000000
# 5 0.000000 0.000000 0.000000 0.000000 0.057227 0.000000
# 6 0.000000 0.000000 0.000000 0.000000 0.000000 0.049951
#
#
# Mechanical properties :
#
#
# Convention : Reuss Voigt Hill
#
# Bulk Modulus (GPa) = 35.45772 52.78014 44.11893
# Shear Modulus (GPa) = 24.65284 30.59410 27.62347
#
# Velocity S-wave (km/s) = 3.43937 3.83146 3.64069
# Velocity P-wave (km/s) = 5.72592 6.70068 6.23238
#
# Compressibility (1/GPa) = 0.02820260
#
# Stress axis : x y z
#
# Youngs Moduli (GPa) = 68.30933 100.82535 45.11390
#
# Poissons Ratio (x) = 0.49097 -0.12277
# Poissons Ratio (y) = 0.33264 0.32086
# Poissons Ratio (z) = -0.18589 0.71709
#
# Static dielectric constant tensor:
#      x y z
#    x 1.766500 0.000000 0.000000 
#    y 0.000000 1.774670 0.000000 
#    z 0.000000 0.000000 1.726620 
# 
# From -- ./inp_files/27373.got.cif
#   From: 2010.05.17/outbox.cif.g08.bks.cpg/sg69_14_cif.got.tgz:27373.got - 2010.06.03 19:29:58.
