data_PCOD9513827
_publ_section_title
;
Structure prediction by ZEFSAII (Michael W. Deem and Ramdas Pophale) SiO2 
 PCOD9513827
Probable space group: F M M M
;
_chemical_formula_sum "Si O2"
_cell_formula_units_Z 160
_cell_length_a 14.518956
_cell_length_b 28.195224
_cell_length_c 19.483726
_cell_angle_alpha 90.000000
_cell_angle_beta 90.000000
_cell_angle_gamma 90.000000
_cell_volume 7975.959715
_symmetry_space_group_name_H-M "F M M M"
_symmetry_group_IT_number 69
_symmetry_cell_setting 'orthorhombic'
loop_
_space_group_symop_operation_xyz
x,y,z
-x,-y,z
x,-y,-z
-x,y,-z
-x,-y,-z
x,y,-z
-x,y,z
x,-y,z
x,1/2+y,1/2+z
-x,1/2-y,1/2+z
x,1/2-y,1/2-z
-x,1/2+y,1/2-z
-x,1/2-y,1/2-z
x,1/2+y,1/2-z
-x,1/2+y,1/2+z
x,1/2-y,1/2+z
1/2+x,y,1/2+z
1/2-x,-y,1/2+z
1/2+x,-y,1/2-z
1/2-x,y,1/2-z
1/2-x,-y,1/2-z
1/2+x,y,1/2-z
1/2-x,y,1/2+z
1/2+x,-y,1/2+z
1/2+x,1/2+y,z
1/2-x,1/2-y,z
1/2+x,1/2-y,-z
1/2-x,1/2+y,-z
1/2-x,1/2-y,-z
1/2+x,1/2+y,-z
1/2-x,1/2+y,z
1/2+x,1/2-y,z
loop_
_atom_site_type_symbol
_atom_site_label
_atom_site_fract_x
_atom_site_fract_y
_atom_site_fract_z
Si Si1 0.000000 0.558704 0.244149
Si Si2 0.827777 0.614903 0.806296
Si Si3 0.648393 0.274451 0.318475
Si Si4 0.500000 0.738870 0.916473
Si Si5 0.691161 0.404060 0.078965
Si Si6 0.607546 0.000000 0.583416
Si Si7 0.000000 0.866493 0.874293
O O1 0.090131 0.577589 0.203669
O O2 0.000000 0.500000 0.252309
O O3 0.000000 0.595536 0.310906
O O4 0.750000 0.604030 0.750000
O O5 0.853815 0.670038 0.798921
O O6 0.776220 0.614042 0.878663
O O7 0.609442 0.250000 0.250000
O O8 0.750000 0.250000 0.327440
O O9 0.589421 0.265897 0.386944
O O10 0.500000 0.690106 0.871829
O O11 0.500000 0.732628 0.000000
O O12 0.661249 0.454766 0.108592
O O13 0.595362 0.376144 0.086115
O O14 0.715166 0.408319 0.000000
O O15 0.500000 0.000000 0.601085
O O16 0.608682 0.000000 0.500000
#
# Coordination Sequence:
#
# PCOD9513827 Si02
#       7
#    16  32  32  16  32  16  16
#     4  12  29  45  67 101 139 180 230 287 337 398
#     4  12  24  45  69  98 133 175 230 278 336 404
#     4  11  22  43  71  97 131 175 226 276 334 405
#     4  12  26  41  67 102 140 180 216 276 350 409
#     4  11  23  38  65  96 133 172 216 274 337 397
#     4   9  18  34  57  89 127 167 206 256 327 392
#     4  12  22  40  65 100 142 168 222 286 345 398
#
# _framework density 20.060281
#
# number of rings (size 3 to 8) (size 9 to 14) (size 15 to 20)
#    0.000    0.700    5.000    4.200    2.800    1.600 
#    0.000    0.500    0.000    0.600    0.000    0.000 
#    0.000    0.000    0.000    0.000    0.000    0.000 
#
# Total GULP energy -223010.143169 kJ/mol
# GULP energy per Si atom -5575.253579 kJ/mol
# Density = 2.001462 g / cm^3
# Si number density = 20.060281 Si / 1000 Ang^3
#
#
#
# Elastic Constant Matrix: (Units=GPa)
#
#
# Indices 1 2 3 4 5 6 
#
# 1 105.3240 46.0737 49.0386 0.0000 0.0000 0.0000
# 2 46.0737 102.9112 15.3295 0.0000 0.0000 0.0000
# 3 49.0386 15.3295 101.7894 0.0000 0.0000 0.0000
# 4 0.0000 0.0000 0.0000 15.2508 0.0000 0.0000
# 5 0.0000 0.0000 0.0000 0.0000 85.8400 0.0000
# 6 0.0000 0.0000 0.0000 0.0000 0.0000 6.5355
#
#
#
# Elastic Compliance Matrix: (Units=1/GPa)
#
#
# Indices 1 2 3 4 5 6 
#
# 1 0.014965 -0.005755 -0.006343 0.000000 0.000000 0.000000
# 2 -0.005755 0.012153 0.000942 0.000000 0.000000 0.000000
# 3 -0.006343 0.000942 0.012738 0.000000 0.000000 0.000000
# 4 0.000000 0.000000 0.000000 0.065570 0.000000 0.000000
# 5 0.000000 0.000000 0.000000 0.000000 0.011650 0.000000
# 6 0.000000 0.000000 0.000000 0.000000 0.000000 0.153010
#
#
# Mechanical properties :
#
#
# Convention : Reuss Voigt Hill
#
# Bulk Modulus (GPa) = 56.99601 58.98980 57.99290
# Shear Modulus (GPa) = 16.76461 34.83079 25.79770
#
# Velocity S-wave (km/s) = 2.89400 4.17142 3.58999
# Velocity P-wave (km/s) = 6.29611 7.25749 6.79383
#
# Compressibility (1/GPa) = 0.01754509
#
# Stress axis : x y z
#
# Youngs Moduli (GPa) = 66.82051 82.28164 78.50423
#
# Poissons Ratio (x) = 0.47355 0.49796
# Poissons Ratio (y) = 0.38457 -0.07398
# Poissons Ratio (z) = 0.42385 -0.07754
#
# Static dielectric constant tensor:
#      x y z
#    x 1.555280 0.000000 0.000000 
#    y 0.000000 1.765030 0.000000 
#    z 0.000000 0.000000 1.721190 
# 
# From -- ./inp_files/21890.got.cif
#   From: 2010.05.17/outbox.cif.g08.bks.cpg/sg69_11_cif.got.tgz:21890.got - 2010.06.03 19:29:58.
