data_PCOD9513634
_publ_section_title
;
Structure prediction by ZEFSAII (Michael W. Deem and Ramdas Pophale) SiO2 
 PCOD9513634
Probable space group: F M M M
;
_chemical_formula_sum "Si O2"
_cell_formula_units_Z 112
_cell_length_a 18.850819
_cell_length_b 14.914862
_cell_length_c 19.147393
_cell_angle_alpha 90.000000
_cell_angle_beta 90.000000
_cell_angle_gamma 90.000000
_cell_volume 5383.430543
_symmetry_space_group_name_H-M "F M M M"
_symmetry_group_IT_number 69
_symmetry_cell_setting 'orthorhombic'
loop_
_space_group_symop_operation_xyz
x,y,z
-x,-y,z
x,-y,-z
-x,y,-z
-x,-y,-z
x,y,-z
-x,y,z
x,-y,z
x,1/2+y,1/2+z
-x,1/2-y,1/2+z
x,1/2-y,1/2-z
-x,1/2+y,1/2-z
-x,1/2-y,1/2-z
x,1/2+y,1/2-z
-x,1/2+y,1/2+z
x,1/2-y,1/2+z
1/2+x,y,1/2+z
1/2-x,-y,1/2+z
1/2+x,-y,1/2-z
1/2-x,y,1/2-z
1/2-x,-y,1/2-z
1/2+x,y,1/2-z
1/2-x,y,1/2+z
1/2+x,-y,1/2+z
1/2+x,1/2+y,z
1/2-x,1/2-y,z
1/2+x,1/2-y,-z
1/2-x,1/2+y,-z
1/2-x,1/2-y,-z
1/2+x,1/2+y,-z
1/2-x,1/2+y,z
1/2+x,1/2-y,z
loop_
_atom_site_type_symbol
_atom_site_label
_atom_site_fract_x
_atom_site_fract_y
_atom_site_fract_z
Si Si1 0.500000 0.104841 0.418819
Si Si2 0.111429 0.500000 0.079969
Si Si3 0.218924 0.500000 0.582412
Si Si4 0.363879 0.848076 0.663862
Si Si5 0.415778 0.342791 0.314592
O O1 0.500000 0.118757 0.500000
O O2 0.430936 0.144517 0.385923
O O3 0.500000 0.000000 0.403156
O O4 0.196748 0.500000 0.079473
O O5 0.087646 0.413426 0.123371
O O6 0.086650 0.500000 0.000000
O O7 0.192646 0.500000 0.500000
O O8 0.192924 0.587752 0.626088
O O9 0.361356 0.740098 0.671670
O O10 0.387577 0.881850 0.740747
O O11 0.500000 0.317393 0.306330
#
# Coordination Sequence:
#
# PCOD9513634 Si02
#       5
#    16  16  16  32  32
#     4  11  20  31  56  99 131 156 194 247 318 375
#     4  11  28  46  59  85 127 177 219 251 300 370
#     4  11  25  44  63  91 129 163 208 265 315 369
#     4  11  21  39  66  97 126 157 201 259 324 368
#     4  11  23  42  66  93 129 164 205 262 307 369
#
# _framework density 20.804577999999999
#
# number of rings (size 3 to 8) (size 9 to 14) (size 15 to 20)
#    0.000    1.000    4.286    3.000    0.000    6.857 
#    0.000    5.714    0.000    0.000    0.000    0.000 
#    0.000    0.000    0.000    0.000    0.000    0.000 
#
# Total GULP energy -156148.585053 kJ/mol
# GULP energy per Si atom -5576.735180 kJ/mol
# Density = 2.075723 g / cm^3
# Si number density = 20.804578 Si / 1000 Ang^3
#
#
#
# Elastic Constant Matrix: (Units=GPa)
#
#
# Indices 1 2 3 4 5 6 
#
# 1 70.8858 17.3024 31.1946 0.0000 0.0000 0.0000
# 2 17.3024 104.6035 67.5551 0.0000 0.0000 0.0000
# 3 31.1946 67.5551 211.8097 0.0000 0.0000 0.0000
# 4 0.0000 0.0000 0.0000 46.6902 0.0000 0.0000
# 5 0.0000 0.0000 0.0000 0.0000 39.9036 0.0000
# 6 0.0000 0.0000 0.0000 0.0000 0.0000 90.9643
#
#
#
# Elastic Compliance Matrix: (Units=1/GPa)
#
#
# Indices 1 2 3 4 5 6 
#
# 1 0.015234 -0.001349 -0.001814 0.000000 0.000000 0.000000
# 2 -0.001349 0.012159 -0.003679 0.000000 0.000000 0.000000
# 3 -0.001814 -0.003679 0.006162 0.000000 0.000000 0.000000
# 4 0.000000 0.000000 0.000000 0.021418 0.000000 0.000000
# 5 0.000000 0.000000 0.000000 0.000000 0.025060 0.000000
# 6 0.000000 0.000000 0.000000 0.000000 0.000000 0.010993
#
#
# Mechanical properties :
#
#
# Convention : Reuss Voigt Hill
#
# Bulk Modulus (GPa) = 50.32160 68.82258 59.57209
# Shear Modulus (GPa) = 44.90968 53.59476 49.25222
#
# Velocity S-wave (km/s) = 4.65116 5.08104 4.87085
# Velocity P-wave (km/s) = 7.28592 8.22040 7.76723
#
# Compressibility (1/GPa) = 0.01987218
#
# Stress axis : x y z
#
# Youngs Moduli (GPa) = 65.64054 82.24170 162.28895
#
# Poissons Ratio (x) = 0.11092 0.29431
# Poissons Ratio (y) = 0.08853 0.59714
# Poissons Ratio (z) = 0.11904 0.30261
#
# Static dielectric constant tensor:
#      x y z
#    x 1.693860 0.000000 0.000000 
#    y 0.000000 1.929140 0.000000 
#    z 0.000000 0.000000 1.727350 
# 
# From -- ./inp_files/22372.got.cif
#   From: 2010.05.17/outbox.cif.g08.bks.cpg/sg69_12_cif.got.tgz:22372.got - 2010.06.03 19:29:58.
