data_PCOD9513076
_publ_section_title
;
Structure prediction by ZEFSAII (Michael W. Deem and Ramdas Pophale) SiO2 
 PCOD9513076
Probable space group: F M M M
;
_chemical_formula_sum "Si O2"
_cell_formula_units_Z 96
_cell_length_a 13.133914
_cell_length_b 15.255027
_cell_length_c 22.049296
_cell_angle_alpha 90.000000
_cell_angle_beta 90.000000
_cell_angle_gamma 90.000000
_cell_volume 4417.757538
_symmetry_space_group_name_H-M "F M M M"
_symmetry_group_IT_number 69
_symmetry_cell_setting 'orthorhombic'
loop_
_space_group_symop_operation_xyz
x,y,z
-x,-y,z
x,-y,-z
-x,y,-z
-x,-y,-z
x,y,-z
-x,y,z
x,-y,z
x,1/2+y,1/2+z
-x,1/2-y,1/2+z
x,1/2-y,1/2-z
-x,1/2+y,1/2-z
-x,1/2-y,1/2-z
x,1/2+y,1/2-z
-x,1/2+y,1/2+z
x,1/2-y,1/2+z
1/2+x,y,1/2+z
1/2-x,-y,1/2+z
1/2+x,-y,1/2-z
1/2-x,y,1/2-z
1/2-x,-y,1/2-z
1/2+x,y,1/2-z
1/2-x,y,1/2+z
1/2+x,-y,1/2+z
1/2+x,1/2+y,z
1/2-x,1/2-y,z
1/2+x,1/2-y,-z
1/2-x,1/2+y,-z
1/2-x,1/2-y,-z
1/2+x,1/2+y,-z
1/2-x,1/2+y,z
1/2+x,1/2-y,z
loop_
_atom_site_type_symbol
_atom_site_label
_atom_site_fract_x
_atom_site_fract_y
_atom_site_fract_z
Si Si1 0.390255 0.100710 0.590722
Si Si2 0.500000 0.633600 0.202642
Si Si3 0.834512 0.893287 0.432132
Si Si4 0.000000 0.164282 0.663401
O O1 0.500000 0.139742 0.570372
O O2 0.403829 0.099589 0.663734
O O3 0.282515 0.138732 0.572733
O O4 0.389535 0.000000 0.569774
O O5 0.500000 0.736697 0.187335
O O6 0.500000 0.611966 0.273001
O O7 0.872158 0.872975 0.500000
O O8 0.903488 0.855006 0.379029
O O9 0.835418 0.000000 0.426058
#
# Coordination Sequence:
#
# PCOD9513076 Si02
#       4
#    32  16  32  16
#     4   8  17  37  59  80 107 144 192 239 280 326
#     4   9  21  39  55  80 111 150 191 234 283 334
#     4  10  21  37  59  86 116 150 187 232 284 340
#     4  11  22  36  55  81 118 154 181 232 291 340
#
# _framework density 21.730481999999999
#
# number of rings (size 3 to 8) (size 9 to 14) (size 15 to 20)
#    1.000    1.667    0.000    1.000    0.000    7.333 
#    0.000   15.000    0.000    0.000    0.000    0.000 
#    0.000    0.000    0.000    0.000    0.000    0.000 
#
# Total GULP energy -133634.518885 kJ/mol
# GULP energy per Si atom -5568.104954 kJ/mol
# Density = 2.168102 g / cm^3
# Si number density = 21.730482 Si / 1000 Ang^3
#
#
#
# Elastic Constant Matrix: (Units=GPa)
#
#
# Indices 1 2 3 4 5 6 
#
# 1 153.9436 16.6148 75.6360 0.0000 0.0000 0.0000
# 2 16.6148 48.9019 25.7445 0.0000 0.0000 0.0000
# 3 75.6360 25.7445 208.1503 0.0000 0.0000 0.0000
# 4 0.0000 0.0000 0.0000 15.7089 0.0000 0.0000
# 5 0.0000 0.0000 0.0000 0.0000 19.8716 0.0000
# 6 0.0000 0.0000 0.0000 0.0000 0.0000 5.2368
#
#
#
# Elastic Compliance Matrix: (Units=1/GPa)
#
#
# Indices 1 2 3 4 5 6 
#
# 1 0.007980 -0.001267 -0.002743 0.000000 0.000000 0.000000
# 2 -0.001267 0.022075 -0.002270 0.000000 0.000000 0.000000
# 3 -0.002743 -0.002270 0.006082 0.000000 0.000000 0.000000
# 4 0.000000 0.000000 0.000000 0.063658 0.000000 0.000000
# 5 0.000000 0.000000 0.000000 0.000000 0.050323 0.000000
# 6 0.000000 0.000000 0.000000 0.000000 0.000000 0.190955
#
#
# Mechanical properties :
#
#
# Convention : Reuss Voigt Hill
#
# Bulk Modulus (GPa) = 42.41522 71.88737 57.15130
# Shear Modulus (GPa) = 13.83155 27.69682 20.76418
#
# Velocity S-wave (km/s) = 2.52564 3.57397 3.09452
# Velocity P-wave (km/s) = 5.29776 7.08408 6.25502
#
# Compressibility (1/GPa) = 0.02357644
#
# Stress axis : x y z
#
# Youngs Moduli (GPa) = 125.30666 45.30093 164.42713
#
# Poissons Ratio (x) = 0.05741 0.45104
# Poissons Ratio (y) = 0.15880 0.37321
# Poissons Ratio (z) = 0.34373 0.10282
#
# Static dielectric constant tensor:
#      x y z
#    x 1.787940 0.000000 0.000000 
#    y 0.000000 1.866410 0.000000 
#    z 0.000000 0.000000 1.815230 
# 
# From -- ./inp_files/28833.got.cif
#   From: 2010.05.17/outbox.cif.g08.bks.cpg/sg69_15_cif.got.tgz:28833.got - 2010.06.03 19:29:58.
