data_PCOD9513869
_publ_section_title
;
Structure prediction by ZEFSAII (Michael W. Deem and Ramdas Pophale) SiO2 
 PCOD9513869
Probable space group: F M M M
;
_chemical_formula_sum "Si O2"
_cell_formula_units_Z 192
_cell_length_a 29.390703
_cell_length_b 17.204148
_cell_length_c 18.078945
_cell_angle_alpha 90.000000
_cell_angle_beta 90.000000
_cell_angle_gamma 90.000000
_cell_volume 9141.473984
_symmetry_space_group_name_H-M "F M M M"
_symmetry_group_IT_number 69
_symmetry_cell_setting 'orthorhombic'
loop_
_space_group_symop_operation_xyz
x,y,z
-x,-y,z
x,-y,-z
-x,y,-z
-x,-y,-z
x,y,-z
-x,y,z
x,-y,z
x,1/2+y,1/2+z
-x,1/2-y,1/2+z
x,1/2-y,1/2-z
-x,1/2+y,1/2-z
-x,1/2-y,1/2-z
x,1/2+y,1/2-z
-x,1/2+y,1/2+z
x,1/2-y,1/2+z
1/2+x,y,1/2+z
1/2-x,-y,1/2+z
1/2+x,-y,1/2-z
1/2-x,y,1/2-z
1/2-x,-y,1/2-z
1/2+x,y,1/2-z
1/2-x,y,1/2+z
1/2+x,-y,1/2+z
1/2+x,1/2+y,z
1/2-x,1/2-y,z
1/2+x,1/2-y,-z
1/2-x,1/2+y,-z
1/2-x,1/2-y,-z
1/2+x,1/2+y,-z
1/2-x,1/2+y,z
1/2+x,1/2-y,z
loop_
_atom_site_type_symbol
_atom_site_label
_atom_site_fract_x
_atom_site_fract_y
_atom_site_fract_z
Si Si1 0.738930 0.840820 0.000000
Si Si2 0.866002 0.678740 0.645683
Si Si3 0.840203 0.642315 0.882767
Si Si4 0.065184 0.410121 0.918559
Si Si5 0.450575 0.157131 0.753057
Si Si6 0.697365 0.584690 0.767750
Si Si7 0.158543 0.407461 0.500000
O O1 0.750000 0.750000 0.000000
O O2 0.705876 0.855505 0.069864
O O3 0.787168 0.885615 0.000000
O O4 0.861114 0.771209 0.633002
O O5 0.906318 0.647019 0.699756
O O6 0.818061 0.654118 0.681042
O O7 0.865910 0.632746 0.569474
O O8 0.880517 0.596667 0.921268
O O9 0.829224 0.598252 0.807661
O O10 0.051508 0.500000 0.913684
O O11 0.053538 0.370315 0.839092
O O12 0.049470 0.379340 0.000000
O O13 0.500000 0.125941 0.725968
O O14 0.453599 0.250000 0.750000
O O15 0.686181 0.500000 0.800683
O O16 0.750000 0.587022 0.750000
O O17 0.154295 0.500000 0.500000
#
# Coordination Sequence:
#
# PCOD9513869 Si02
#       7
#    16  32  32  32  32  32  16
#     4  12  24  42  64  98 136 179 232 278 330 410
#     4  12  23  43  68  94 136 179 232 284 342 411
#     4  12  22  38  64  94 128 174 229 272 327 403
#     4  11  24  43  69 102 139 179 221 280 357 426
#     4  11  24  45  74 105 135 177 233 292 355 423
#     4  11  24  38  57  90 130 171 218 273 336 402
#     4  12  28  44  67  99 140 189 233 288 348 405
#
# _framework density 21.003177000000001
#
# number of rings (size 3 to 8) (size 9 to 14) (size 15 to 20)
#    0.000    0.500    5.833    2.500    0.000    4.667 
#    0.000    1.250    0.000    0.500    0.000    0.000 
#    0.000    0.000    0.000    0.000    0.000    0.000 
#
# Total GULP energy -267736.362125 kJ/mol
# GULP energy per Si atom -5577.840878 kJ/mol
# Density = 2.095537 g / cm^3
# Si number density = 21.003177 Si / 1000 Ang^3
#
#
#
# Elastic Constant Matrix: (Units=GPa)
#
#
# Indices 1 2 3 4 5 6 
#
# 1 121.5564 26.7038 47.8247 0.0000 0.0000 0.0000
# 2 26.7038 91.5130 24.6970 0.0000 0.0000 0.0000
# 3 47.8247 24.6970 126.3850 0.0000 0.0000 0.0000
# 4 0.0000 0.0000 0.0000 22.4755 0.0000 0.0000
# 5 0.0000 0.0000 0.0000 0.0000 -42.1404 0.0000
# 6 0.0000 0.0000 0.0000 0.0000 0.0000 184.8484
#
#
#
# Elastic Compliance Matrix: (Units=1/GPa)
#
#
# Indices 1 2 3 4 5 6 
#
# 1 0.010002 -0.002003 -0.003393 0.000000 0.000000 0.000000
# 2 -0.002003 0.011937 -0.001575 0.000000 0.000000 0.000000
# 3 -0.003393 -0.001575 0.009504 0.000000 0.000000 0.000000
# 4 0.000000 0.000000 0.000000 0.044493 0.000000 0.000000
# 5 0.000000 0.000000 0.000000 0.000000 -0.023730 0.000000
# 6 0.000000 0.000000 0.000000 0.000000 0.000000 0.005410
#
#
# Mechanical properties :
#
#
# Convention : Reuss Voigt Hill
#
# Bulk Modulus (GPa) = 57.13972 59.76727 58.45349
# Shear Modulus (GPa) = 64.60746 49.05195 56.82971
#
# Velocity S-wave (km/s) = 5.55226 4.83790 5.20734
# Velocity P-wave (km/s) = 8.26848 7.72820 8.00290
#
# Compressibility (1/GPa) = 0.01750096
#
# Stress axis : x y z
#
# Youngs Moduli (GPa) = 99.98340 83.77455 105.21777
#
# Poissons Ratio (x) = 0.16778 0.35704
# Poissons Ratio (y) = 0.20024 0.16569
# Poissons Ratio (z) = 0.33928 0.13192
#
# Static dielectric constant tensor:
#      x y z
#    x 1.804630 0.000000 0.000000 
#    y 0.000000 1.732990 0.000000 
#    z 0.000000 0.000000 2.786970 
# 
# From -- ./inp_files/27805.got.cif
#   From: 2010.05.17/outbox.cif.g08.bks.cpg/sg69_14_cif.got.tgz:27805.got - 2010.06.03 19:29:58.
