data_PCOD9513624
_publ_section_title
;
Structure prediction by ZEFSAII (Michael W. Deem and Ramdas Pophale) SiO2 
 PCOD9513624
Probable space group: F M M M
;
_chemical_formula_sum "Si O2"
_cell_formula_units_Z 120
_cell_length_a 17.137797
_cell_length_b 20.901673
_cell_length_c 17.695646
_cell_angle_alpha 90.000000
_cell_angle_beta 90.000000
_cell_angle_gamma 90.000000
_cell_volume 6338.733090
_symmetry_space_group_name_H-M "F M M M"
_symmetry_group_IT_number 69
_symmetry_cell_setting 'orthorhombic'
loop_
_space_group_symop_operation_xyz
x,y,z
-x,-y,z
x,-y,-z
-x,y,-z
-x,-y,-z
x,y,-z
-x,y,z
x,-y,z
x,1/2+y,1/2+z
-x,1/2-y,1/2+z
x,1/2-y,1/2-z
-x,1/2+y,1/2-z
-x,1/2-y,1/2-z
x,1/2+y,1/2-z
-x,1/2+y,1/2+z
x,1/2-y,1/2+z
1/2+x,y,1/2+z
1/2-x,-y,1/2+z
1/2+x,-y,1/2-z
1/2-x,y,1/2-z
1/2-x,-y,1/2-z
1/2+x,y,1/2-z
1/2-x,y,1/2+z
1/2+x,-y,1/2+z
1/2+x,1/2+y,z
1/2-x,1/2-y,z
1/2+x,1/2-y,-z
1/2-x,1/2+y,-z
1/2-x,1/2-y,-z
1/2+x,1/2+y,-z
1/2-x,1/2+y,z
1/2+x,1/2-y,z
loop_
_atom_site_type_symbol
_atom_site_label
_atom_site_fract_x
_atom_site_fract_y
_atom_site_fract_z
Si Si1 0.000000 0.259871 0.342116
Si Si2 0.630185 0.930041 0.500000
Si Si3 0.764264 0.327436 0.000000
Si Si4 0.000000 0.908092 0.123573
Si Si5 0.250000 0.250000 0.750000
Si Si6 0.634927 0.831263 0.854735
Si Si7 0.500000 0.072383 0.799786
O O1 0.000000 0.250000 0.250000
O O2 0.000000 0.332462 0.364370
O O3 0.924784 0.225320 0.374933
O O4 0.685841 0.868932 0.500000
O O5 0.574433 0.926870 0.573441
O O6 0.670214 0.000000 0.500000
O O7 0.750000 0.250000 0.000000
O O8 0.813686 0.347558 0.073219
O O9 0.000000 0.932362 0.209024
O O10 0.306362 0.202085 0.795800
O O11 0.577399 0.887216 0.824292
O O12 0.500000 0.000000 0.830922
#
# Coordination Sequence:
#
# PCOD9513624 Si02
#       7
#    16  16  16  16   8  32  16
#     4  11  19  39  63  95 124 161 209 271 328 375
#     4  11  26  42  62  93 136 180 219 267 334 394
#     4  12  25  42  64  98 132 169 219 272 334 400
#     4  11  20  42  68  92 126 174 222 271 314 393
#     4  12  20  40  66  96 132 152 212 278 344 368
#     4  11  24  39  65  94 131 166 209 267 332 385
#     4  11  24  43  66  94 125 175 227 260 312 397
#
# _framework density 18.931228000000001
#
# number of rings (size 3 to 8) (size 9 to 14) (size 15 to 20)
#    0.000    0.800    5.333    3.200    3.733    4.267 
#    0.000    1.333    0.000    0.000    0.000    0.000 
#    0.000    0.000    0.000    0.000    0.000    0.000 
#
# Total GULP energy -167440.530418 kJ/mol
# GULP energy per Si atom -5581.351014 kJ/mol
# Density = 1.888814 g / cm^3
# Si number density = 18.931228 Si / 1000 Ang^3
#
#
#
# Elastic Constant Matrix: (Units=GPa)
#
#
# Indices 1 2 3 4 5 6 
#
# 1 139.4611 61.5255 55.5020 0.0000 0.0000 0.0000
# 2 61.5255 169.8662 36.4089 0.0000 0.0000 0.0000
# 3 55.5020 36.4089 112.9120 0.0000 0.0000 0.0000
# 4 0.0000 0.0000 0.0000 14.8132 0.0000 0.0000
# 5 0.0000 0.0000 0.0000 0.0000 11.6705 0.0000
# 6 0.0000 0.0000 0.0000 0.0000 0.0000 -35.2213
#
#
#
# Elastic Compliance Matrix: (Units=1/GPa)
#
#
# Indices 1 2 3 4 5 6 
#
# 1 0.009986 -0.002755 -0.004020 0.000000 0.000000 0.000000
# 2 -0.002755 0.007084 -0.000930 0.000000 0.000000 0.000000
# 3 -0.004020 -0.000930 0.011132 0.000000 0.000000 0.000000
# 4 0.000000 0.000000 0.000000 0.067508 0.000000 0.000000
# 5 0.000000 0.000000 0.000000 0.000000 0.085686 0.000000
# 6 0.000000 0.000000 0.000000 0.000000 0.000000 -0.028392
#
#
# Mechanical properties :
#
#
# Convention : Reuss Voigt Hill
#
# Bulk Modulus (GPa) = 78.17482 81.01247 79.59365
# Shear Modulus (GPa) = 28.95545 16.17265 22.56405
#
# Velocity S-wave (km/s) = 3.91513 2.92599 3.45613
# Velocity P-wave (km/s) = 7.86266 7.36893 7.61980
#
# Compressibility (1/GPa) = 0.01279184
#
# Stress axis : x y z
#
# Youngs Moduli (GPa) = 100.14145 141.15790 89.82749
#
# Poissons Ratio (x) = 0.38892 0.36112
# Poissons Ratio (y) = 0.27591 0.08354
# Poissons Ratio (z) = 0.40258 0.13128
#
# Static dielectric constant tensor:
#      x y z
#    x 1.590850 0.000000 0.000000 
#    y 0.000000 1.485000 0.000000 
#    z 0.000000 0.000000 1.664390 
# 
# From -- ./inp_files/22557.got.cif
#   From: 2010.05.17/outbox.cif.g08.bks.cpg/sg69_12_cif.got.tgz:22557.got - 2010.06.03 19:29:58.
