data_PCOD9513351
_publ_section_title
;
Structure prediction by ZEFSAII (Michael W. Deem and Ramdas Pophale) SiO2 
 PCOD9513351
Probable space group: F M M M
;
_chemical_formula_sum "Si O2"
_cell_formula_units_Z 96
_cell_length_a 14.525809
_cell_length_b 23.899624
_cell_length_c 15.719845
_cell_angle_alpha 90.000000
_cell_angle_beta 90.000000
_cell_angle_gamma 90.000000
_cell_volume 5457.322980
_symmetry_space_group_name_H-M "F M M M"
_symmetry_group_IT_number 69
_symmetry_cell_setting 'orthorhombic'
loop_
_space_group_symop_operation_xyz
x,y,z
-x,-y,z
x,-y,-z
-x,y,-z
-x,-y,-z
x,y,-z
-x,y,z
x,-y,z
x,1/2+y,1/2+z
-x,1/2-y,1/2+z
x,1/2-y,1/2-z
-x,1/2+y,1/2-z
-x,1/2-y,1/2-z
x,1/2+y,1/2-z
-x,1/2+y,1/2+z
x,1/2-y,1/2+z
1/2+x,y,1/2+z
1/2-x,-y,1/2+z
1/2+x,-y,1/2-z
1/2-x,y,1/2-z
1/2-x,-y,1/2-z
1/2+x,y,1/2-z
1/2-x,y,1/2+z
1/2+x,-y,1/2+z
1/2+x,1/2+y,z
1/2-x,1/2-y,z
1/2+x,1/2-y,-z
1/2-x,1/2+y,-z
1/2-x,1/2-y,-z
1/2+x,1/2+y,-z
1/2-x,1/2+y,z
1/2+x,1/2-y,z
loop_
_atom_site_type_symbol
_atom_site_label
_atom_site_fract_x
_atom_site_fract_y
_atom_site_fract_z
Si Si1 0.000000 0.238824 0.632071
Si Si2 0.841733 0.936088 0.808473
Si Si3 0.613439 0.904946 0.500000
Si Si4 0.500000 0.648290 0.755877
Si Si5 0.352576 0.728323 0.000000
O O1 0.000000 0.293699 0.691952
O O2 0.000000 0.175260 0.663536
O O3 0.907591 0.247601 0.579500
O O4 0.750000 0.929449 0.750000
O O5 0.912888 0.889472 0.777136
O O6 0.873514 0.000000 0.793689
O O7 0.842277 0.928379 0.912030
O O8 0.500000 0.913501 0.500000
O O9 0.632980 0.838474 0.500000
O O10 0.250000 0.750000 0.000000
#
# Coordination Sequence:
#
# PCOD9513351 Si02
#       5
#    16  32  16  16  16
#     4  10  22  38  55  89 120 154 204 252 301 379
#     4  11  24  40  63  95 125 162 214 263 312 371
#     4  12  21  43  67  92 123 164 219 266 308 369
#     4  11  21  38  60  84 126 160 198 253 315 365
#     4  11  21  37  58  86 117 162 206 253 307 371
#
# _framework density 17.591042999999999
#
# number of rings (size 3 to 8) (size 9 to 14) (size 15 to 20)
#    0.000    1.000    6.667    1.000    4.667    0.667 
#    0.000    3.333    0.000    0.000    0.000    9.333 
#    0.000    0.000    0.000    0.000    0.000    0.000 
#
# Total GULP energy -133604.282776 kJ/mol
# GULP energy per Si atom -5566.845116 kJ/mol
# Density = 1.755100 g / cm^3
# Si number density = 17.591043 Si / 1000 Ang^3
#
#
#
# Elastic Constant Matrix: (Units=GPa)
#
#
# Indices 1 2 3 4 5 6 
#
# 1 113.2206 48.9739 49.8199 0.0000 0.0000 0.0000
# 2 48.9739 136.7578 61.9635 0.0000 0.0000 0.0000
# 3 49.8199 61.9635 75.6297 0.0000 0.0000 0.0000
# 4 0.0000 0.0000 0.0000 8.6168 0.0000 0.0000
# 5 0.0000 0.0000 0.0000 0.0000 29.4216 0.0000
# 6 0.0000 0.0000 0.0000 0.0000 0.0000 12.6905
#
#
#
# Elastic Compliance Matrix: (Units=1/GPa)
#
#
# Indices 1 2 3 4 5 6 
#
# 1 0.012558 -0.001191 -0.007297 0.000000 0.000000 0.000000
# 2 -0.001191 0.011742 -0.008836 0.000000 0.000000 0.000000
# 3 -0.007297 -0.008836 0.025268 0.000000 0.000000 0.000000
# 4 0.000000 0.000000 0.000000 0.116052 0.000000 0.000000
# 5 0.000000 0.000000 0.000000 0.000000 0.033989 0.000000
# 6 0.000000 0.000000 0.000000 0.000000 0.000000 0.078799
#
#
# Mechanical properties :
#
#
# Convention : Reuss Voigt Hill
#
# Bulk Modulus (GPa) = 67.01795 71.90252 69.46023
# Shear Modulus (GPa) = 15.72186 21.13585 18.42886
#
# Velocity S-wave (km/s) = 2.99280 3.47004 3.24022
# Velocity P-wave (km/s) = 7.07975 7.55104 7.31919
#
# Compressibility (1/GPa) = 0.01492138
#
# Stress axis : x y z
#
# Youngs Moduli (GPa) = 79.62891 85.16358 39.57591
#
# Poissons Ratio (x) = 0.10145 0.28877
# Poissons Ratio (y) = 0.09485 0.34968
# Poissons Ratio (z) = 0.58102 0.75248
#
# Static dielectric constant tensor:
#      x y z
#    x 1.577610 0.000000 0.000000 
#    y 0.000000 1.569240 0.000000 
#    z 0.000000 0.000000 1.853360 
# 
# From -- ./inp_files/20718.got.cif
#   From: 2010.05.17/outbox.cif.g08.bks.cpg/sg69_11_cif.got.tgz:20718.got - 2010.06.03 19:29:58.
