data_PCOD9513823
_publ_section_title
;
Structure prediction by ZEFSAII (Michael W. Deem and Ramdas Pophale) SiO2 
 PCOD9513823
Probable space group: F M M M
;
_chemical_formula_sum "Si O2"
_cell_formula_units_Z 112
_cell_length_a 13.983273
_cell_length_b 15.483839
_cell_length_c 23.507061
_cell_angle_alpha 90.000000
_cell_angle_beta 90.000000
_cell_angle_gamma 90.000000
_cell_volume 5089.625385
_symmetry_space_group_name_H-M "F M M M"
_symmetry_group_IT_number 69
_symmetry_cell_setting 'orthorhombic'
loop_
_space_group_symop_operation_xyz
x,y,z
-x,-y,z
x,-y,-z
-x,y,-z
-x,-y,-z
x,y,-z
-x,y,z
x,-y,z
x,1/2+y,1/2+z
-x,1/2-y,1/2+z
x,1/2-y,1/2-z
-x,1/2+y,1/2-z
-x,1/2-y,1/2-z
x,1/2+y,1/2-z
-x,1/2+y,1/2+z
x,1/2-y,1/2+z
1/2+x,y,1/2+z
1/2-x,-y,1/2+z
1/2+x,-y,1/2-z
1/2-x,y,1/2-z
1/2-x,-y,1/2-z
1/2+x,y,1/2-z
1/2-x,y,1/2+z
1/2+x,-y,1/2+z
1/2+x,1/2+y,z
1/2-x,1/2-y,z
1/2+x,1/2-y,-z
1/2-x,1/2+y,-z
1/2-x,1/2-y,-z
1/2+x,1/2+y,-z
1/2-x,1/2+y,z
1/2+x,1/2-y,z
loop_
_atom_site_type_symbol
_atom_site_label
_atom_site_fract_x
_atom_site_fract_y
_atom_site_fract_z
Si Si1 0.000000 0.140958 0.799009
Si Si2 0.706266 0.000000 0.000000
Si Si3 0.000000 0.398596 0.426267
Si Si4 0.000000 0.500000 0.797985
Si Si5 0.289996 0.163445 0.313855
Si Si6 0.194130 0.000000 0.629665
Si Si7 0.669457 0.828301 0.500000
O O1 0.000000 0.081251 0.744118
O O2 0.899787 0.186929 0.802628
O O3 0.000000 0.092804 0.859128
O O4 0.768664 0.914248 0.000000
O O5 0.662174 0.000000 0.936469
O O6 0.907269 0.343704 0.448030
O O7 0.000000 0.500000 0.445204
O O8 0.903069 0.500000 0.833977
O O9 0.250000 0.147220 0.250000
O O10 0.250000 0.250000 0.341008
O O11 0.258858 0.082137 0.351787
O O12 0.750000 0.750000 0.500000
#
# Coordination Sequence:
#
# PCOD9513823 Si02
#       7
#    16   8  16   8  32  16  16
#     4  12  23  40  76 109 142 185 237 314 363 422
#     4  12  26  44  74  98 146 198 250 296 376 434
#     4  11  22  42  77 116 137 186 267 310 366 432
#     4  12  24  45  72  99 144 192 240 300 374 428
#     4  11  25  44  72 108 148 187 237 291 374 445
#     4  12  26  47  70 104 142 194 243 304 357 447
#     4  11  24  47  74 107 150 194 242 320 373 436
#
# _framework density 22.005548999999998
#
# number of rings (size 3 to 8) (size 9 to 14) (size 15 to 20)
#    0.000    0.571    5.000    3.429    0.000    8.286 
#    0.000    2.857    0.000    0.000    0.000    0.000 
#    0.000    0.000    0.000    0.000    0.000    0.000 
#
# Total GULP energy -156062.853455 kJ/mol
# GULP energy per Si atom -5573.673338 kJ/mol
# Density = 2.195546 g / cm^3
# Si number density = 22.005549 Si / 1000 Ang^3
#
#
#
# Elastic Constant Matrix: (Units=GPa)
#
#
# Indices 1 2 3 4 5 6 
#
# 1 188.1871 62.6264 30.2480 0.0000 0.0000 0.0000
# 2 62.6264 161.2007 25.4467 0.0000 0.0000 0.0000
# 3 30.2480 25.4467 145.9430 0.0000 0.0000 0.0000
# 4 0.0000 0.0000 0.0000 12.8718 0.0000 0.0000
# 5 0.0000 0.0000 0.0000 0.0000 -0.3166 0.0000
# 6 0.0000 0.0000 0.0000 0.0000 0.0000 26.7680
#
#
#
# Elastic Compliance Matrix: (Units=1/GPa)
#
#
# Indices 1 2 3 4 5 6 
#
# 1 0.006214 -0.002273 -0.000891 0.000000 0.000000 0.000000
# 2 -0.002273 0.007211 -0.000786 0.000000 0.000000 0.000000
# 3 -0.000891 -0.000786 0.007174 0.000000 0.000000 0.000000
# 4 0.000000 0.000000 0.000000 0.077689 0.000000 0.000000
# 5 0.000000 0.000000 0.000000 0.000000 -3.158967 0.000000
# 6 0.000000 0.000000 0.000000 0.000000 0.000000 0.037358
#
#
# Mechanical properties :
#
#
# Convention : Reuss Voigt Hill
#
# Bulk Modulus (GPa) = 78.76195 81.33034 80.04614
# Shear Modulus (GPa) = -1.66047 32.99860 15.66906
#
# Velocity S-wave (km/s) = -0.86960 3.87661 2.67132
# Velocity P-wave (km/s) = 5.90434 7.55492 6.78005
#
# Compressibility (1/GPa) = 0.01269649
#
# Stress axis : x y z
#
# Youngs Moduli (GPa) = 160.93542 138.68260 139.39570
#
# Poissons Ratio (x) = 0.31526 0.12427
# Poissons Ratio (y) = 0.36585 0.10958
# Poissons Ratio (z) = 0.14347 0.10902
#
# Static dielectric constant tensor:
#      x y z
#    x 1.861500 0.000000 0.000000 
#    y 0.000000 1.782720 0.000000 
#    z 0.000000 0.000000 1.881530 
# 
# From -- ./inp_files/40744.got.cif
#   From: 2010.05.17/outbox.cif.g08.bks.cpg/sg69_21_cif.got.tgz:40744.got - 2010.06.03 19:29:58.
