data_PCOD9513425
_publ_section_title
;
Structure prediction by ZEFSAII (Michael W. Deem and Ramdas Pophale) SiO2 
 PCOD9513425
Probable space group: F M M M
;
_chemical_formula_sum "Si O2"
_cell_formula_units_Z 104
_cell_length_a 13.624852
_cell_length_b 14.424220
_cell_length_c 25.419327
_cell_angle_alpha 90.000000
_cell_angle_beta 90.000000
_cell_angle_gamma 90.000000
_cell_volume 4995.606007
_symmetry_space_group_name_H-M "F M M M"
_symmetry_group_IT_number 69
_symmetry_cell_setting 'orthorhombic'
loop_
_space_group_symop_operation_xyz
x,y,z
-x,-y,z
x,-y,-z
-x,y,-z
-x,-y,-z
x,y,-z
-x,y,z
x,-y,z
x,1/2+y,1/2+z
-x,1/2-y,1/2+z
x,1/2-y,1/2-z
-x,1/2+y,1/2-z
-x,1/2-y,1/2-z
x,1/2+y,1/2-z
-x,1/2+y,1/2+z
x,1/2-y,1/2+z
1/2+x,y,1/2+z
1/2-x,-y,1/2+z
1/2+x,-y,1/2-z
1/2-x,y,1/2-z
1/2-x,-y,1/2-z
1/2+x,y,1/2-z
1/2-x,y,1/2+z
1/2+x,-y,1/2+z
1/2+x,1/2+y,z
1/2-x,1/2-y,z
1/2+x,1/2-y,-z
1/2-x,1/2+y,-z
1/2-x,1/2-y,-z
1/2+x,1/2+y,-z
1/2-x,1/2+y,z
1/2+x,1/2-y,z
loop_
_atom_site_type_symbol
_atom_site_label
_atom_site_fract_x
_atom_site_fract_y
_atom_site_fract_z
Si Si1 0.500000 0.275616 0.810902
Si Si2 0.284865 0.392963 0.416046
Si Si3 0.750000 0.250000 0.000000
Si Si4 0.500000 0.108402 0.893322
Si Si5 0.197606 0.110349 0.195499
O O1 0.500000 0.250000 0.750000
O O2 0.500000 0.184201 0.847118
O O3 0.598262 0.335861 0.817974
O O4 0.260480 0.500000 0.425447
O O5 0.226395 0.326424 0.453734
O O6 0.400864 0.379043 0.426540
O O7 0.268547 0.375131 0.354247
O O8 0.500000 0.000000 0.874257
O O9 0.250000 0.139164 0.250000
O O10 0.177443 0.000000 0.200165
#
# Coordination Sequence:
#
# PCOD9513425 Si02
#       5
#    16  32   8  16  32
#     4  12  23  33  57  91 124 161 201 244 298 365
#     4  10  22  40  63  89 119 158 201 246 300 360
#     4  12  22  38  60  86 122 154 194 246 294 344
#     4  10  22  40  60  86 120 158 202 251 302 357
#     4  10  22  41  63  89 123 160 200 249 304 362
#
# _framework density 20.818294999999999
#
# number of rings (size 3 to 8) (size 9 to 14) (size 15 to 20)
#    0.000    1.538    0.000    4.615    0.000    7.385 
#    0.000    3.846    0.000    0.923    0.000   10.769 
#    0.000    0.000    0.000    0.000    0.000    0.000 
#
# Total GULP energy -144798.292576 kJ/mol
# GULP energy per Si atom -5569.165099 kJ/mol
# Density = 2.077091 g / cm^3
# Si number density = 20.818295 Si / 1000 Ang^3
#
#
#
# Elastic Constant Matrix: (Units=GPa)
#
#
# Indices 1 2 3 4 5 6 
#
# 1 67.8650 13.6160 -20.4935 0.0000 0.0000 0.0000
# 2 13.6160 87.3523 32.0174 0.0000 0.0000 0.0000
# 3 -20.4935 32.0174 91.5220 0.0000 0.0000 0.0000
# 4 0.0000 0.0000 0.0000 45.3732 0.0000 0.0000
# 5 0.0000 0.0000 0.0000 0.0000 -64.2761 0.0000
# 6 0.0000 0.0000 0.0000 0.0000 0.0000 18.6327
#
#
#
# Elastic Compliance Matrix: (Units=1/GPa)
#
#
# Indices 1 2 3 4 5 6 
#
# 1 0.017360 -0.004738 0.005545 0.000000 0.000000 0.000000
# 2 -0.004738 0.014425 -0.006107 0.000000 0.000000 0.000000
# 3 0.005545 -0.006107 0.014305 0.000000 0.000000 0.000000
# 4 0.000000 0.000000 0.000000 0.022039 0.000000 0.000000
# 5 0.000000 0.000000 0.000000 0.000000 -0.015558 0.000000
# 6 0.000000 0.000000 0.000000 0.000000 0.000000 0.053669
#
#
# Mechanical properties :
#
#
# Convention : Reuss Voigt Hill
#
# Bulk Modulus (GPa) = 28.17846 33.00212 30.59029
# Shear Modulus (GPa) = 38.85860 14.71923 26.78892
#
# Velocity S-wave (km/s) = 4.32506 2.66189 3.59109
# Velocity P-wave (km/s) = 6.20535 5.03333 5.64981
#
# Compressibility (1/GPa) = 0.03548810
#
# Stress axis : x y z
#
# Youngs Moduli (GPa) = 57.60281 69.32394 69.90805
#
# Poissons Ratio (x) = 0.32849 -0.38764
# Poissons Ratio (y) = 0.27295 0.42695
# Poissons Ratio (z) = -0.31940 0.42339
#
# Static dielectric constant tensor:
#      x y z
#    x 1.850050 0.000000 0.000000 
#    y 0.000000 1.795180 0.000000 
#    z 0.000000 0.000000 1.705060 
# 
# From -- ./inp_files/35522.got.cif
#   From: 2010.05.17/outbox.cif.g08.bks.cpg/sg69_18_cif.got.tgz:35522.got - 2010.06.03 19:29:58.
