data_PCOD9513968
_publ_section_title
;
Structure prediction by ZEFSAII (Michael W. Deem and Ramdas Pophale) SiO2 
 PCOD9513968
Probable space group: F M M M
;
_chemical_formula_sum "Si O2"
_cell_formula_units_Z 52
_cell_length_a 27.000000
_cell_length_b 27.000000
_cell_length_c 18.000000
_cell_angle_alpha 90.000000
_cell_angle_beta 90.000000
_cell_angle_gamma 90.000000
_cell_volume 13122.000000
_symmetry_space_group_name_H-M "F M M M"
_symmetry_group_IT_number 69
_symmetry_cell_setting 'orthorhombic'
loop_
_space_group_symop_operation_xyz
x,y,z
-x,-y,z
x,-y,-z
-x,y,-z
-x,-y,-z
x,y,-z
-x,y,z
x,-y,z
x,1/2+y,1/2+z
-x,1/2-y,1/2+z
x,1/2-y,1/2-z
-x,1/2+y,1/2-z
-x,1/2-y,1/2-z
x,1/2+y,1/2-z
-x,1/2+y,1/2+z
x,1/2-y,1/2+z
1/2+x,y,1/2+z
1/2-x,-y,1/2+z
1/2+x,-y,1/2-z
1/2-x,y,1/2-z
1/2-x,-y,1/2-z
1/2+x,y,1/2-z
1/2-x,y,1/2+z
1/2+x,-y,1/2+z
1/2+x,1/2+y,z
1/2-x,1/2-y,z
1/2+x,1/2-y,-z
1/2-x,1/2+y,-z
1/2-x,1/2-y,-z
1/2+x,1/2+y,-z
1/2-x,1/2+y,z
1/2+x,1/2-y,z
loop_
_atom_site_type_symbol
_atom_site_label
_atom_site_fract_x
_atom_site_fract_y
_atom_site_fract_z
Si Si1 0.500000 0.559429 0.087779
Si Si2 0.441080 0.147050 0.918428
Si Si3 0.604425 0.057956 0.157886
Si Si4 0.059674 0.192897 0.264623
Si Si5 0.592606 0.099863 0.679545
Si Si6 0.705269 0.940030 0.084772
Si Si7 0.682654 0.058986 0.588883
O O1 0.500000 0.500000 0.096436
O O2 0.547995 0.581763 0.127644
O O3 0.500000 0.570389 0.000000
O O4 0.500000 0.153936 0.921445
O O5 0.429256 0.090753 0.895917
O O6 0.423149 0.178292 0.847622
O O7 0.420579 0.158959 0.000000
O O8 0.591868 0.069598 0.242997
O O9 0.660957 0.073709 0.139317
O O10 0.599298 0.000000 0.143063
O O11 0.069261 0.250000 0.250000
O O12 0.084395 0.156173 0.205550
O O13 0.000000 0.184434 0.260553
O O14 0.642962 0.088650 0.636203
O O15 0.760906 0.925186 0.105694
O O16 0.706663 0.000000 0.082915
O O17 0.694626 0.923646 0.000000
O O18 0.675161 0.064597 0.500000
O O19 0.677300 0.000000 0.605057
#
# Coordination Sequence:
#
# PCOD9513968 Si02
#       7
#    16  32  32  32  32  32  32
#     4  11  22  34  47  66 101 139 162 187 230 290
#     4   9  18  31  46  68  95 123 156 189 234 298
#     4  10  19  28  44  69  98 131 162 198 232 275
#     4   9  18  35  54  67  90 123 155 203 258 285
#     4  11  20  32  47  71  93 124 167 200 237 291
#     4   8  15  28  44  64  93 130 166 196 233 278
#     4   9  17  30  47  67  98 134 162 196 240 285
#
# _framework density 3.9628109999999999
#
# number of rings (size 3 to 8) (size 9 to 14) (size 15 to 20)
#    0.000    2.538    0.769    3.231    1.077    3.077 
#    0.000    4.615    0.000    0.000    0.000    8.615 
#    0.000   11.077    0.000    0.000    0.000    0.000 
#
# Total GULP energy -289682.756859 kJ/mol
# GULP energy per Si atom -5570.822247 kJ/mol
# Density = 0.395379 g / cm^3
# Si number density = 3.962811 Si / 1000 Ang^3
#
#
#
# Elastic Constant Matrix: (Units=GPa)
#
#
# Indices 1 2 3 4 5 6 
#
# 1 27.8393 8.2195 32.7291 0.0000 0.0000 0.0000
# 2 8.2195 69.9827 37.2377 0.0000 0.0000 0.0000
# 3 32.7291 37.2377 93.4465 0.0000 0.0000 0.0000
# 4 0.0000 0.0000 0.0000 9.9528 0.0000 0.0000
# 5 0.0000 0.0000 0.0000 0.0000 37.9816 0.0000
# 6 0.0000 0.0000 0.0000 0.0000 0.0000 -5.9149
#
#
#
# Elastic Compliance Matrix: (Units=1/GPa)
#
#
# Indices 1 2 3 4 5 6 
#
# 1 0.062679 0.005482 -0.024137 0.000000 0.000000 0.000000
# 2 0.005482 0.018614 -0.009337 0.000000 0.000000 0.000000
# 3 -0.024137 -0.009337 0.022876 0.000000 0.000000 0.000000
# 4 0.000000 0.000000 0.000000 0.100474 0.000000 0.000000
# 5 0.000000 0.000000 0.000000 0.000000 0.026329 0.000000
# 6 0.000000 0.000000 0.000000 0.000000 0.000000 -0.169064
#
#
# Mechanical properties :
#
#
# Convention : Reuss Voigt Hill
#
# Bulk Modulus (GPa) = 20.75423 38.62677 29.69050
# Shear Modulus (GPa) = 37.32619 15.94272 26.63445
#
# Velocity S-wave (km/s) = 4.85787 3.17483 4.10356
# Velocity P-wave (km/s) = 6.67733 6.15310 6.42057
#
# Compressibility (1/GPa) = 0.04818295
#
# Stress axis : x y z
#
# Youngs Moduli (GPa) = 15.95432 53.72349 43.71363
#
# Poissons Ratio (x) = -0.29450 1.05513
# Poissons Ratio (y) = -0.08746 0.40817
# Poissons Ratio (z) = 0.38510 0.50164
#
# Static dielectric constant tensor:
#      x y z
#    x 1.543970 0.000000 0.000000 
#    y 0.000000 1.506460 0.000000 
#    z 0.000000 0.000000 1.539810 
# 
# From -- ./inp_files/27062.got.cif
#   From: 2010.05.17/outbox.ucp.g08.bks.cvg/sg69_14_cif.got.tgz:27062.got - 2010.06.11 16:51:34.
