data_PCOD9513302
_publ_section_title
;
Structure prediction by ZEFSAII (Michael W. Deem and Ramdas Pophale) SiO2 
 PCOD9513302
Probable space group: F M M M
;
_chemical_formula_sum "Si O2"
_cell_formula_units_Z 160
_cell_length_a 30.054008
_cell_length_b 26.980545
_cell_length_c 10.085051
_cell_angle_alpha 90.000000
_cell_angle_beta 90.000000
_cell_angle_gamma 90.000000
_cell_volume 8177.700756
_symmetry_space_group_name_H-M "F M M M"
_symmetry_group_IT_number 69
_symmetry_cell_setting 'orthorhombic'
loop_
_space_group_symop_operation_xyz
x,y,z
-x,-y,z
x,-y,-z
-x,y,-z
-x,-y,-z
x,y,-z
-x,y,z
x,-y,z
x,1/2+y,1/2+z
-x,1/2-y,1/2+z
x,1/2-y,1/2-z
-x,1/2+y,1/2-z
-x,1/2-y,1/2-z
x,1/2+y,1/2-z
-x,1/2+y,1/2+z
x,1/2-y,1/2+z
1/2+x,y,1/2+z
1/2-x,-y,1/2+z
1/2+x,-y,1/2-z
1/2-x,y,1/2-z
1/2-x,-y,1/2-z
1/2+x,y,1/2-z
1/2-x,y,1/2+z
1/2+x,-y,1/2+z
1/2+x,1/2+y,z
1/2-x,1/2-y,z
1/2+x,1/2-y,-z
1/2-x,1/2+y,-z
1/2-x,1/2-y,-z
1/2+x,1/2+y,-z
1/2-x,1/2+y,z
1/2+x,1/2-y,z
loop_
_atom_site_type_symbol
_atom_site_label
_atom_site_fract_x
_atom_site_fract_y
_atom_site_fract_z
Si Si1 0.500000 0.607695 0.155518
Si Si2 0.500000 0.310176 0.649926
Si Si3 0.063863 0.056529 0.354176
Si Si4 0.785118 0.940711 0.500000
Si Si5 0.394058 0.793204 0.152272
Si Si6 0.652028 0.399594 0.716974
Si Si7 0.178326 0.558818 0.500000
O O1 0.500000 0.663298 0.206730
O O2 0.541547 0.583956 0.231899
O O3 0.500000 0.600949 0.000000
O O4 0.500000 0.332471 0.500000
O O5 0.448526 0.291017 0.652468
O O6 0.051986 0.076567 0.500000
O O7 0.115969 0.061786 0.338756
O O8 0.050040 0.000000 0.349929
O O9 0.805058 0.911496 0.372917
O O10 0.731838 0.939212 0.500000
O O11 0.796992 0.000000 0.500000
O O12 0.378416 0.750000 0.250000
O O13 0.372178 0.846147 0.195106
O O14 0.380538 0.784944 0.000000
O O15 0.660966 0.413468 0.868835
O O16 0.165354 0.500000 0.500000
#
# Coordination Sequence:
#
# PCOD9513302 Si02
#       7
#    16  16  32  16  32  32  16
#     4  12  25  36  55  86 131 171 210 265 317 374
#     4  10  21  42  64  91 124 170 220 267 323 384
#     4  11  22  38  60  84 120 173 220 259 313 387
#     4  11  22  44  71 100 135 174 219 260 324 410
#     4  11  24  42  69  96 128 172 223 278 329 384
#     4  12  23  41  67 100 132 171 221 271 327 391
#     4  11  26  42  67 104 141 174 207 270 336 390
#
# _framework density 19.565401999999999
#
# number of rings (size 3 to 8) (size 9 to 14) (size 15 to 20)
#    0.000    0.800    4.000    3.900    2.800    4.000 
#    0.000    0.000    0.000    3.600    0.000    0.000 
#    0.000    0.000    0.000    0.000    0.000    0.000 
#
# Total GULP energy -222814.625682 kJ/mol
# GULP energy per Si atom -5570.365642 kJ/mol
# Density = 1.952087 g / cm^3
# Si number density = 19.565402 Si / 1000 Ang^3
#
#
#
# Elastic Constant Matrix: (Units=GPa)
#
#
# Indices 1 2 3 4 5 6 
#
# 1 69.8074 32.7012 38.1620 0.0000 -0.0001 0.0000
# 2 32.7012 97.6364 64.7055 -0.0003 0.0001 0.0000
# 3 38.1620 64.7055 223.3672 0.0001 -0.0002 -0.0005
# 4 0.0000 -0.0003 0.0001 27.5482 0.0000 -0.0002
# 5 -0.0001 0.0001 -0.0002 0.0000 33.1208 0.0002
# 6 0.0000 0.0000 -0.0005 -0.0002 0.0002 8.1998
#
#
#
# Elastic Compliance Matrix: (Units=1/GPa)
#
#
# Indices 1 2 3 4 5 6 
#
# 1 0.017437 -0.004784 -0.001593 0.000000 0.000000 0.000000
# 2 -0.004784 0.013988 -0.003235 0.000000 0.000000 0.000000
# 3 -0.001593 -0.003235 0.005686 0.000000 0.000000 0.000000
# 4 0.000000 0.000000 0.000000 0.036300 0.000000 0.000001
# 5 0.000000 0.000000 0.000000 0.000000 0.030193 -0.000001
# 6 0.000000 0.000000 0.000000 0.000001 -0.000001 0.121954
#
#
# Mechanical properties :
#
#
# Convention : Reuss Voigt Hill
#
# Bulk Modulus (GPa) = 55.90632 73.54981 64.72807
# Shear Modulus (GPa) = 19.94058 30.78993 25.36525
#
# Velocity S-wave (km/s) = 3.19592 3.97128 3.60451
# Velocity P-wave (km/s) = 6.50035 7.66169 7.10479
#
# Compressibility (1/GPa) = 0.01788707
#
# Stress axis : x y z
#
# Youngs Moduli (GPa) = 57.34815 71.48859 175.86536
#
# Poissons Ratio (x) = 0.34203 0.28019
# Poissons Ratio (y) = 0.27438 0.56888
# Poissons Ratio (z) = 0.09137 0.23125
#
# Static dielectric constant tensor:
#      x y z
#    x 1.715470 0.000000 0.000000 
#    y 0.000000 1.732470 0.000000 
#    z 0.000000 0.000000 1.667940 
# 
# From -- ./inp_files/5822.got.cif
#   From: 2010.05.17/outbox.cif.g08.bks.cpg/sg69_3_cif.got.tgz:5822.got - 2010.06.03 19:29:58.
