data_PCOD9513238
_publ_section_title
;
Structure prediction by ZEFSAII (Michael W. Deem and Ramdas Pophale) SiO2 
 PCOD9513238
Probable space group: F M M M
;
_chemical_formula_sum "Si O2"
_cell_formula_units_Z 160
_cell_length_a 27.608608
_cell_length_b 9.856633
_cell_length_c 29.025589
_cell_angle_alpha 90.000000
_cell_angle_beta 90.000000
_cell_angle_gamma 90.000000
_cell_volume 7898.673065
_symmetry_space_group_name_H-M "F M M M"
_symmetry_group_IT_number 69
_symmetry_cell_setting 'orthorhombic'
loop_
_space_group_symop_operation_xyz
x,y,z
-x,-y,z
x,-y,-z
-x,y,-z
-x,-y,-z
x,y,-z
-x,y,z
x,-y,z
x,1/2+y,1/2+z
-x,1/2-y,1/2+z
x,1/2-y,1/2-z
-x,1/2+y,1/2-z
-x,1/2-y,1/2-z
x,1/2+y,1/2-z
-x,1/2+y,1/2+z
x,1/2-y,1/2+z
1/2+x,y,1/2+z
1/2-x,-y,1/2+z
1/2+x,-y,1/2-z
1/2-x,y,1/2-z
1/2-x,-y,1/2-z
1/2+x,y,1/2-z
1/2-x,y,1/2+z
1/2+x,-y,1/2+z
1/2+x,1/2+y,z
1/2-x,1/2-y,z
1/2+x,1/2-y,-z
1/2-x,1/2+y,-z
1/2-x,1/2-y,-z
1/2+x,1/2+y,-z
1/2-x,1/2+y,z
1/2+x,1/2-y,z
loop_
_atom_site_type_symbol
_atom_site_label
_atom_site_fract_x
_atom_site_fract_y
_atom_site_fract_z
Si Si1 0.310798 0.000000 0.446648
Si Si2 0.058181 0.340055 0.347453
Si Si3 0.191649 0.745030 0.885076
Si Si4 0.632104 0.334407 0.295495
Si Si5 0.306662 0.000000 0.948876
Si Si6 0.441672 0.162440 0.450497
O O1 0.323920 0.875425 0.414147
O O2 0.328226 0.000000 0.500000
O O3 0.252143 0.000000 0.450820
O O4 0.073040 0.500000 0.340675
O O5 0.081799 0.235245 0.311976
O O6 0.072767 0.292470 0.399288
O O7 0.000000 0.338810 0.344692
O O8 0.250000 0.750000 0.879545
O O9 0.168296 0.710808 0.836342
O O10 0.178366 0.627322 0.919980
O O11 0.630681 0.500000 0.290477
O O12 0.646394 0.250000 0.250000
O O13 0.325701 0.000000 0.000000
O O14 0.422573 0.215866 0.500000
O O15 0.500000 0.180951 0.451640
O O16 0.433402 0.000000 0.450342
#
# Coordination Sequence:
#
# PCOD9513238 Si02
#       6
#    16  32  32  32  16  32
#     4   9  18  32  61  97 128 167 207 245 293 359
#     4   9  19  38  65  93 122 158 203 257 313 370
#     4  10  21  39  63  94 129 166 207 250 303 370
#     4  12  27  45  64  87 119 163 211 267 323 370
#     4   9  16  34  61  91 130 169 203 243 299 365
#     4   7  10  21  47  82 116 149 184 226 280 343
#
# _framework density 20.256567
#
# number of rings (size 3 to 8) (size 9 to 14) (size 15 to 20)
#    0.000    2.600    1.000    3.000    2.800    3.600 
#    0.000    3.000    0.000    0.000    0.000    2.800 
#    0.000    0.000    0.000    0.000    0.000    0.000 
#
# Total GULP energy -222901.619621 kJ/mol
# GULP energy per Si atom -5572.540491 kJ/mol
# Density = 2.021046 g / cm^3
# Si number density = 20.256567 Si / 1000 Ang^3
#
#
#
# Elastic Constant Matrix: (Units=GPa)
#
#
# Indices 1 2 3 4 5 6 
#
# 1 60.6808 34.1619 34.4153 0.0000 0.0000 0.0000
# 2 34.1619 175.7608 96.3659 0.0000 0.0000 0.0000
# 3 34.4153 96.3659 196.7264 0.0000 0.0000 0.0000
# 4 0.0000 0.0000 0.0000 49.4452 0.0000 0.0000
# 5 0.0000 0.0000 0.0000 0.0000 38.2863 0.0000
# 6 0.0000 0.0000 0.0000 0.0000 0.0000 -4.6765
#
#
#
# Elastic Compliance Matrix: (Units=1/GPa)
#
#
# Indices 1 2 3 4 5 6 
#
# 1 0.019109 -0.002572 -0.002083 0.000000 0.000000 0.000000
# 2 -0.002572 0.008125 -0.003530 0.000000 0.000000 0.000000
# 3 -0.002083 -0.003530 0.007177 0.000000 0.000000 0.000000
# 4 0.000000 0.000000 0.000000 0.020224 0.000000 0.000000
# 5 0.000000 0.000000 0.000000 0.000000 0.026119 0.000000
# 6 0.000000 0.000000 0.000000 0.000000 0.000000 -0.213836
#
#
# Mechanical properties :
#
#
# Convention : Reuss Voigt Hill
#
# Bulk Modulus (GPa) = 55.43068 84.78381 70.10724
# Shear Modulus (GPa) = -45.16777 34.49267 -5.33755
#
# Velocity S-wave (km/s) = -4.72718 4.13096 -1.62502
# Velocity P-wave (km/s) = 1.53990 8.04357 5.58246
#
# Compressibility (1/GPa) = 0.01804055
#
# Stress axis : x y z
#
# Youngs Moduli (GPa) = 52.33112 123.07844 139.33859
#
# Poissons Ratio (x) = 0.31657 0.29024
# Poissons Ratio (y) = 0.13460 0.49186
# Poissons Ratio (z) = 0.10901 0.43447
#
# Static dielectric constant tensor:
#      x y z
#    x 1.784340 0.000000 0.000000 
#    y 0.000000 1.766310 0.000000 
#    z 0.000000 0.000000 1.736210 
# 
# From -- ./inp_files/47457.got.cif
#   From: 2010.05.17/outbox.cif.g08.bks.cpg/sg69_24_cif.got.tgz:47457.got - 2010.06.03 19:29:58.
