data_PCOD9513110
_publ_section_title
;
Structure prediction by ZEFSAII (Michael W. Deem and Ramdas Pophale) SiO2 
 PCOD9513110
Probable space group: F M M M
;
_chemical_formula_sum "Si O2"
_cell_formula_units_Z 192
_cell_length_a 17.215175
_cell_length_b 29.891506
_cell_length_c 19.163882
_cell_angle_alpha 90.000000
_cell_angle_beta 90.000000
_cell_angle_gamma 90.000000
_cell_volume 9861.494259
_symmetry_space_group_name_H-M "F M M M"
_symmetry_group_IT_number 69
_symmetry_cell_setting 'orthorhombic'
loop_
_space_group_symop_operation_xyz
x,y,z
-x,-y,z
x,-y,-z
-x,y,-z
-x,-y,-z
x,y,-z
-x,y,z
x,-y,z
x,1/2+y,1/2+z
-x,1/2-y,1/2+z
x,1/2-y,1/2-z
-x,1/2+y,1/2-z
-x,1/2-y,1/2-z
x,1/2+y,1/2-z
-x,1/2+y,1/2+z
x,1/2-y,1/2+z
1/2+x,y,1/2+z
1/2-x,-y,1/2+z
1/2+x,-y,1/2-z
1/2-x,y,1/2-z
1/2-x,-y,1/2-z
1/2+x,y,1/2-z
1/2-x,y,1/2+z
1/2+x,-y,1/2+z
1/2+x,1/2+y,z
1/2-x,1/2-y,z
1/2+x,1/2-y,-z
1/2-x,1/2+y,-z
1/2-x,1/2-y,-z
1/2+x,1/2+y,-z
1/2-x,1/2+y,z
1/2+x,1/2-y,z
loop_
_atom_site_type_symbol
_atom_site_label
_atom_site_fract_x
_atom_site_fract_y
_atom_site_fract_z
Si Si1 0.163744 0.413813 0.859233
Si Si2 0.316290 0.448039 0.078737
Si Si3 0.407943 0.054403 0.284901
Si Si4 0.000000 0.714164 0.917464
Si Si5 0.629703 0.255627 0.171463
Si Si6 0.748960 0.673450 0.671279
Si Si7 0.500000 0.388374 0.417286
O O1 0.227399 0.445665 0.894329
O O2 0.142815 0.426364 0.779250
O O3 0.207111 0.365885 0.869995
O O4 0.079103 0.411980 0.893777
O O5 0.338447 0.500000 0.073517
O O6 0.370283 0.429590 0.141615
O O7 0.323333 0.428669 0.000000
O O8 0.500000 0.066217 0.279324
O O9 0.403092 0.000000 0.281706
O O10 0.927943 0.741238 0.888039
O O11 0.000000 0.662974 0.889536
O O12 0.000000 0.712107 0.000000
O O13 0.596126 0.250000 0.250000
O O14 0.694360 0.216812 0.170821
O O15 0.667202 0.304327 0.157689
O O16 0.750000 0.656071 0.750000
O O17 0.500000 0.386145 0.500000
#
# Coordination Sequence:
#
# PCOD9513110 Si02
#       7
#    32  32  32  16  32  32  16
#     4  12  20  38  61  86 120 155 203 247 294 346
#     4  10  22  39  60  87 121 163 202 240 296 356
#     4  10  21  37  61  93 123 154 196 248 297 348
#     4  11  21  37  55  80 115 149 187 236 295 350
#     4   9  18  35  56  81 107 143 189 236 286 343
#     4   9  18  32  56  84 108 139 190 242 285 334
#     4  11  24  37  54  87 123 155 194 241 299 363
#
# _framework density 19.469666
#
# number of rings (size 3 to 8) (size 9 to 14) (size 15 to 20)
#    0.000    1.833    2.500    3.750    0.000    1.667 
#    0.000    5.000    1.833    2.000    0.000    0.000 
#    0.000    0.000    0.000    0.000    0.000    0.000 
#
# Total GULP energy -267322.298925 kJ/mol
# GULP energy per Si atom -5569.214561 kJ/mol
# Density = 1.942535 g / cm^3
# Si number density = 19.469666 Si / 1000 Ang^3
#
#
#
# Elastic Constant Matrix: (Units=GPa)
#
#
# Indices 1 2 3 4 5 6 
#
# 1 78.0969 9.8450 36.3425 0.0000 0.0000 0.0000
# 2 9.8450 39.0118 11.8596 0.0000 0.0000 0.0000
# 3 36.3425 11.8596 112.1642 0.0000 0.0000 0.0000
# 4 0.0000 0.0000 0.0000 9.6989 0.0000 0.0000
# 5 0.0000 0.0000 0.0000 0.0000 -96.5129 0.0000
# 6 0.0000 0.0000 0.0000 0.0000 0.0000 24.9081
#
#
#
# Elastic Compliance Matrix: (Units=1/GPa)
#
#
# Indices 1 2 3 4 5 6 
#
# 1 0.015298 -0.002432 -0.004700 0.000000 0.000000 0.000000
# 2 -0.002432 0.026871 -0.002053 0.000000 0.000000 0.000000
# 3 -0.004700 -0.002053 0.010655 0.000000 0.000000 0.000000
# 4 0.000000 0.000000 0.000000 0.103105 0.000000 0.000000
# 5 0.000000 0.000000 0.000000 0.000000 -0.010361 0.000000
# 6 0.000000 0.000000 0.000000 0.000000 0.000000 0.040148
#
#
# Mechanical properties :
#
#
# Convention : Reuss Voigt Hill
#
# Bulk Modulus (GPa) = 29.02329 38.37411 33.69870
# Shear Modulus (GPa) = 23.19429 -0.96614 11.11408
#
# Velocity S-wave (km/s) = 3.45527 -0.70520 2.39182
# Velocity P-wave (km/s) = 5.55498 4.36914 4.99736
#
# Compressibility (1/GPa) = 0.03445509
#
# Stress axis : x y z
#
# Youngs Moduli (GPa) = 65.36730 37.21457 93.84972
#
# Poissons Ratio (x) = 0.09050 0.44106
# Poissons Ratio (y) = 0.15897 0.19270
# Poissons Ratio (z) = 0.30720 0.07641
#
# Static dielectric constant tensor:
#      x y z
#    x 1.695820 0.000000 0.000000 
#    y 0.000000 1.700710 0.000000 
#    z 0.000000 0.000000 1.713670 
# 
# From -- ./inp_files/23732.got.cif
#   From: 2010.05.17/outbox.cif.g08.bks.cpg/sg69_12_cif.got.tgz:23732.got - 2010.06.03 19:29:58.
