data_PCOD9513969
_publ_section_title
;
Structure prediction by ZEFSAII (Michael W. Deem and Ramdas Pophale) SiO2 
 PCOD9513969
Probable space group: F M M M
;
_chemical_formula_sum "Si O2"
_cell_formula_units_Z 60
_cell_length_a 30.000000
_cell_length_b 30.000000
_cell_length_c 15.000000
_cell_angle_alpha 90.000000
_cell_angle_beta 90.000000
_cell_angle_gamma 90.000000
_cell_volume 13500.000000
_symmetry_space_group_name_H-M "F M M M"
_symmetry_group_IT_number 69
_symmetry_cell_setting 'orthorhombic'
loop_
_space_group_symop_operation_xyz
x,y,z
-x,-y,z
x,-y,-z
-x,y,-z
-x,-y,-z
x,y,-z
-x,y,z
x,-y,z
x,1/2+y,1/2+z
-x,1/2-y,1/2+z
x,1/2-y,1/2-z
-x,1/2+y,1/2-z
-x,1/2-y,1/2-z
x,1/2+y,1/2-z
-x,1/2+y,1/2+z
x,1/2-y,1/2+z
1/2+x,y,1/2+z
1/2-x,-y,1/2+z
1/2+x,-y,1/2-z
1/2-x,y,1/2-z
1/2-x,-y,1/2-z
1/2+x,y,1/2-z
1/2-x,y,1/2+z
1/2+x,-y,1/2+z
1/2+x,1/2+y,z
1/2-x,1/2-y,z
1/2+x,1/2-y,-z
1/2-x,1/2+y,-z
1/2-x,1/2-y,-z
1/2+x,1/2+y,-z
1/2-x,1/2+y,z
1/2+x,1/2-y,z
loop_
_atom_site_type_symbol
_atom_site_label
_atom_site_fract_x
_atom_site_fract_y
_atom_site_fract_z
Si Si1 0.803778 0.612579 0.140533
Si Si2 0.202786 0.623556 0.354495
Si Si3 0.627826 0.552033 0.866410
Si Si4 0.866109 0.695964 0.103368
Si Si5 0.798173 0.729428 0.607730
Si Si6 0.550542 0.946369 0.500000
Si Si7 0.115320 0.551618 0.153070
Si Si8 0.052373 0.134509 0.607438
O O1 0.800130 0.616688 0.247766
O O2 0.752360 0.610929 0.110978
O O3 0.829084 0.656758 0.107395
O O4 0.837509 0.572080 0.118408
O O5 0.165503 0.588784 0.389721
O O6 0.196732 0.676800 0.370310
O O7 0.639259 0.500000 0.890199
O O8 0.581764 0.564586 0.915641
O O9 0.619887 0.552255 0.760425
O O10 0.839603 0.739426 0.140227
O O11 0.912036 0.672957 0.140342
O O12 0.876049 0.706178 0.000000
O O13 0.797853 0.732732 0.500000
O O14 0.750000 0.750000 0.638053
O O15 0.500000 0.928251 0.500000
O O16 0.546597 0.000000 0.500000
O O17 0.108125 0.500000 0.125260
O O18 0.076328 0.586941 0.128660
O O19 0.051535 0.138066 0.500000
O O20 0.000000 0.137361 0.637450
#
# Coordination Sequence:
#
# PCOD9513969 Si02
#       8
#    32  32  32  32  32  16  32  32
#     4   9  18  31  45  70  99 133 168 194 245 295
#     4  10  19  30  48  73 102 129 164 206 242 292
#     4   9  19  34  51  74  99 130 168 205 251 302
#     4   9  17  32  48  66  97 129 163 202 241 290
#     4  10  19  30  47  73  98 127 164 203 245 289
#     4   9  18  34  54  72  91 120 164 214 260 301
#     4   9  18  32  49  71 104 136 168 208 248 295
#     4   9  18  32  52  75  99 132 168 205 248 293
#
# _framework density 4.4444439999999998
#
# number of rings (size 3 to 8) (size 9 to 14) (size 15 to 20)
#    0.000    2.733    1.333    0.000    0.933    2.133 
#    0.000    4.667    0.000    0.800    0.000    8.400 
#    0.000    0.000    0.000    0.000    0.000    0.000 
#
# Total GULP energy -334128.225397 kJ/mol
# GULP energy per Si atom -5568.803757 kJ/mol
# Density = 0.443433 g / cm^3
# Si number density = 4.444444 Si / 1000 Ang^3
#
#
#
# Elastic Constant Matrix: (Units=GPa)
#
#
# Indices 1 2 3 4 5 6 
#
# 1 183.4191 84.0131 11.7069 0.0000 0.0000 0.0000
# 2 84.0131 128.0164 7.2425 0.0000 0.0000 0.0000
# 3 11.7069 7.2425 34.6290 0.0000 0.0000 0.0000
# 4 0.0000 0.0000 0.0000 16.4119 0.0000 0.0000
# 5 0.0000 0.0000 0.0000 0.0000 17.4584 0.0000
# 6 0.0000 0.0000 0.0000 0.0000 0.0000 29.4775
#
#
#
# Elastic Compliance Matrix: (Units=1/GPa)
#
#
# Indices 1 2 3 4 5 6 
#
# 1 0.007882 -0.005082 -0.001602 0.000000 0.000000 0.000000
# 2 -0.005082 0.011182 -0.000621 0.000000 0.000000 0.000000
# 3 -0.001602 -0.000621 0.029549 0.000000 0.000000 0.000000
# 4 0.000000 0.000000 0.000000 0.060931 0.000000 0.000000
# 5 0.000000 0.000000 0.000000 0.000000 0.057279 0.000000
# 6 0.000000 0.000000 0.000000 0.000000 0.000000 0.033924
#
#
# Mechanical properties :
#
#
# Convention : Reuss Voigt Hill
#
# Bulk Modulus (GPa) = 29.40842 61.33216 45.37029
# Shear Modulus (GPa) = 22.05650 28.87637 25.46644
#
# Velocity S-wave (km/s) = 3.52615 4.03463 3.78893
# Velocity P-wave (km/s) = 5.75816 7.50190 6.68711
#
# Compressibility (1/GPa) = 0.03400387
#
# Stress axis : x y z
#
# Youngs Moduli (GPa) = 126.87094 89.43085 33.84233
#
# Poissons Ratio (x) = 0.45450 0.05421
# Poissons Ratio (y) = 0.64477 0.02100
# Poissons Ratio (z) = 0.20321 0.05550
#
# Static dielectric constant tensor:
#      x y z
#    x 1.620450 0.000000 0.000000 
#    y 0.000000 1.609910 0.000000 
#    z 0.000000 0.000000 1.656000 
# 
# From -- ./inp_files/19976.got.cif
#   From: 2010.05.17/outbox.ucp.g08.bks.cvg/sg69_10_cif.got.tgz:19976.got - 2010.06.11 16:51:34.
