data_PCOD9513004
_publ_section_title
;
Structure prediction by ZEFSAII (Michael W. Deem and Ramdas Pophale) SiO2 
 PCOD9513004
Probable space group: F M M M
;
_chemical_formula_sum "Si O2"
_cell_formula_units_Z 168
_cell_length_a 21.219963
_cell_length_b 27.985038
_cell_length_c 14.817625
_cell_angle_alpha 90.000000
_cell_angle_beta 90.000000
_cell_angle_gamma 90.000000
_cell_volume 8799.320225
_symmetry_space_group_name_H-M "F M M M"
_symmetry_group_IT_number 69
_symmetry_cell_setting 'orthorhombic'
loop_
_space_group_symop_operation_xyz
x,y,z
-x,-y,z
x,-y,-z
-x,y,-z
-x,-y,-z
x,y,-z
-x,y,z
x,-y,z
x,1/2+y,1/2+z
-x,1/2-y,1/2+z
x,1/2-y,1/2-z
-x,1/2+y,1/2-z
-x,1/2-y,1/2-z
x,1/2+y,1/2-z
-x,1/2+y,1/2+z
x,1/2-y,1/2+z
1/2+x,y,1/2+z
1/2-x,-y,1/2+z
1/2+x,-y,1/2-z
1/2-x,y,1/2-z
1/2-x,-y,1/2-z
1/2+x,y,1/2-z
1/2-x,y,1/2+z
1/2+x,-y,1/2+z
1/2+x,1/2+y,z
1/2-x,1/2-y,z
1/2+x,1/2-y,-z
1/2-x,1/2+y,-z
1/2-x,1/2-y,-z
1/2+x,1/2+y,-z
1/2-x,1/2+y,z
1/2+x,1/2-y,z
loop_
_atom_site_type_symbol
_atom_site_label
_atom_site_fract_x
_atom_site_fract_y
_atom_site_fract_z
Si Si1 0.172306 0.553975 0.147511
Si Si2 0.814927 0.074657 0.856915
Si Si3 0.838110 0.785167 0.389618
Si Si4 0.570433 0.134415 0.892260
Si Si5 0.361078 0.000000 0.500000
Si Si6 0.801117 0.818399 0.890642
O O1 0.158829 0.500000 0.118035
O O2 0.178665 0.556150 0.255534
O O3 0.241745 0.568341 0.112329
O O4 0.117839 0.590552 0.122037
O O5 0.827147 0.131289 0.857314
O O6 0.856129 0.042120 0.921884
O O7 0.837990 0.784852 0.500000
O O8 0.895243 0.817785 0.357379
O O9 0.836675 0.729872 0.361417
O O10 0.771857 0.809932 0.363050
O O11 0.500000 0.126992 0.855730
O O12 0.565400 0.140188 0.000000
O O13 0.802062 0.820228 0.000000
#
# Coordination Sequence:
#
# PCOD9513004 Si02
#       6
#    32  32  32  32   8  32
#     4  11  22  35  48  75 117 148 180 227 275 321
#     4  11  20  32  51  82 110 145 179 225 285 329
#     4   8  15  28  48  77 106 136 178 227 263 315
#     4  10  21  36  57  80 107 150 187 214 261 324
#     4  12  20  30  56  82 108 142 184 220 286 340
#     4   9  15  26  51  78 104 138 178 220 274 321
#
# _framework density 19.092383000000002
#
# number of rings (size 3 to 8) (size 9 to 14) (size 15 to 20)
#    0.000    2.095    4.762    1.714    1.333    0.762 
#    0.000    1.905    0.000    2.286    0.000    1.333 
#    0.000    0.000    0.000    0.000    0.000    0.000 
#
# Total GULP energy -233867.684980 kJ/mol
# GULP energy per Si atom -5568.278214 kJ/mol
# Density = 1.904893 g / cm^3
# Si number density = 19.092383 Si / 1000 Ang^3
#
#
#
# Elastic Constant Matrix: (Units=GPa)
#
#
# Indices 1 2 3 4 5 6 
#
# 1 71.9132 34.9935 -8.8700 0.0000 0.0000 0.0000
# 2 34.9935 164.4125 -5.1176 0.0000 0.0000 0.0000
# 3 -8.8700 -5.1176 36.8861 0.0000 0.0000 0.0000
# 4 0.0000 0.0000 0.0000 23.8988 0.0000 0.0000
# 5 0.0000 0.0000 0.0000 0.0000 10.8509 0.0000
# 6 0.0000 0.0000 0.0000 0.0000 0.0000 2.9669
#
#
#
# Elastic Compliance Matrix: (Units=1/GPa)
#
#
# Indices 1 2 3 4 5 6 
#
# 1 0.015919 -0.003283 0.003373 0.000000 0.000000 0.000000
# 2 -0.003283 0.006786 0.000152 0.000000 0.000000 0.000000
# 3 0.003373 0.000152 0.027943 0.000000 0.000000 0.000000
# 4 0.000000 0.000000 0.000000 0.041843 0.000000 0.000000
# 5 0.000000 0.000000 0.000000 0.000000 0.092158 0.000000
# 6 0.000000 0.000000 0.000000 0.000000 0.000000 0.337054
#
#
# Mechanical properties :
#
#
# Convention : Reuss Voigt Hill
#
# Bulk Modulus (GPa) = 19.55790 35.02482 27.29136
# Shear Modulus (GPa) = 9.28912 24.35704 16.82308
#
# Velocity S-wave (km/s) = 2.20815 3.57563 2.97162
# Velocity P-wave (km/s) = 4.09479 5.95245 5.10876
#
# Compressibility (1/GPa) = 0.05113025
#
# Stress axis : x y z
#
# Youngs Moduli (GPa) = 62.81684 147.36645 35.78764
#
# Poissons Ratio (x) = 0.48385 -0.12070
# Poissons Ratio (y) = 0.20625 -0.00544
# Poissons Ratio (z) = -0.21186 -0.02239
#
# Static dielectric constant tensor:
#      x y z
#    x 1.660660 0.000000 0.000000 
#    y 0.000000 1.676250 0.000000 
#    z 0.000000 0.000000 1.708260 
# 
# From -- ./inp_files/16895.got.cif
#   From: 2010.05.17/outbox.cif.g08.bks.cpg/sg69_9_cif.got.tgz:16895.got - 2010.06.03 19:29:58.
