data_PCOD9513671
_publ_section_title
;
Structure prediction by ZEFSAII (Michael W. Deem and Ramdas Pophale) SiO2 
 PCOD9513671
Probable space group: F M M M
;
_chemical_formula_sum "Si O2"
_cell_formula_units_Z 192
_cell_length_a 26.266917
_cell_length_b 16.511050
_cell_length_c 24.720949
_cell_angle_alpha 90.000000
_cell_angle_beta 90.000000
_cell_angle_gamma 90.000000
_cell_volume 10721.336648
_symmetry_space_group_name_H-M "F M M M"
_symmetry_group_IT_number 69
_symmetry_cell_setting 'orthorhombic'
loop_
_space_group_symop_operation_xyz
x,y,z
-x,-y,z
x,-y,-z
-x,y,-z
-x,-y,-z
x,y,-z
-x,y,z
x,-y,z
x,1/2+y,1/2+z
-x,1/2-y,1/2+z
x,1/2-y,1/2-z
-x,1/2+y,1/2-z
-x,1/2-y,1/2-z
x,1/2+y,1/2-z
-x,1/2+y,1/2+z
x,1/2-y,1/2+z
1/2+x,y,1/2+z
1/2-x,-y,1/2+z
1/2+x,-y,1/2-z
1/2-x,y,1/2-z
1/2-x,-y,1/2-z
1/2+x,y,1/2-z
1/2-x,y,1/2+z
1/2+x,-y,1/2+z
1/2+x,1/2+y,z
1/2-x,1/2-y,z
1/2+x,1/2-y,-z
1/2-x,1/2+y,-z
1/2-x,1/2-y,-z
1/2+x,1/2+y,-z
1/2-x,1/2+y,z
1/2+x,1/2-y,z
loop_
_atom_site_type_symbol
_atom_site_label
_atom_site_fract_x
_atom_site_fract_y
_atom_site_fract_z
Si Si1 0.733411 0.663941 0.563514
Si Si2 0.887739 0.677467 0.061876
Si Si3 0.061969 0.594252 0.719703
Si Si4 0.405856 0.500000 0.935746
Si Si5 0.059500 0.331213 0.608860
Si Si6 0.057886 0.902944 0.661660
Si Si7 0.712488 0.000000 0.433790
O O1 0.749107 0.666169 0.500000
O O2 0.750000 0.750000 0.588189
O O3 0.672504 0.662864 0.564924
O O4 0.759233 0.582022 0.585177
O O5 0.904940 0.768506 0.077221
O O6 0.913232 0.624803 0.108652
O O7 0.903964 0.659848 0.000000
O O8 0.077775 0.500000 0.709330
O O9 0.075214 0.655091 0.671434
O O10 0.079325 0.621103 0.779423
O O11 0.000000 0.592122 0.721308
O O12 0.433902 0.420040 0.915846
O O13 0.346692 0.500000 0.917598
O O14 0.405260 0.500000 0.000000
O O15 0.000000 0.307048 0.605580
O O16 0.000000 0.872106 0.658173
O O17 0.056267 0.000000 0.663316
O O18 0.714651 0.000000 0.500000
#
# Coordination Sequence:
#
# PCOD9513671 Si02
#       7
#    32  32  32  16  32  32  16
#     4   9  18  34  53  73 101 137 179 230 272 310
#     4  11  23  34  49  77 112 142 177 215 262 326
#     4   8  15  32  54  74  99 135 185 229 253 291
#     4  11  21  32  51  81 110 140 176 209 267 346
#     4  11  21  33  51  77 113 150 176 210 259 318
#     4   9  19  35  54  75 103 140 180 223 262 301
#     4   9  18  33  54  74  97 135 184 231 274 314
#
# _framework density 17.908214999999998
#
# number of rings (size 3 to 8) (size 9 to 14) (size 15 to 20)
#    0.000    2.333    0.833    3.250    1.167    6.333 
#    0.000    3.333    0.000    0.000    0.000    9.333 
#    0.000    0.000    0.000    0.000    0.000    0.000 
#
# Total GULP energy -267527.333691 kJ/mol
# GULP energy per Si atom -5573.486119 kJ/mol
# Density = 1.786745 g / cm^3
# Si number density = 17.908215 Si / 1000 Ang^3
#
#
#
# Elastic Constant Matrix: (Units=GPa)
#
#
# Indices 1 2 3 4 5 6 
#
# 1 28.3800 15.8478 12.0154 0.0000 0.0000 0.0000
# 2 15.8478 61.1891 4.6131 0.0000 0.0000 0.0000
# 3 12.0154 4.6131 87.1848 0.0000 0.0000 0.0000
# 4 0.0000 0.0000 0.0000 24.4780 0.0000 0.0000
# 5 0.0000 0.0000 0.0000 0.0000 -9.6278 0.0000
# 6 0.0000 0.0000 0.0000 0.0000 0.0000 24.5555
#
#
#
# Elastic Compliance Matrix: (Units=1/GPa)
#
#
# Indices 1 2 3 4 5 6 
#
# 1 0.043616 -0.010887 -0.005435 0.000000 0.000000 0.000000
# 2 -0.010887 0.019126 0.000488 0.000000 0.000000 0.000000
# 3 -0.005435 0.000488 0.012193 0.000000 0.000000 0.000000
# 4 0.000000 0.000000 0.000000 0.040853 0.000000 0.000000
# 5 0.000000 0.000000 0.000000 0.000000 -0.103866 0.000000
# 6 0.000000 0.000000 0.000000 0.000000 0.000000 0.040724
#
#
# Mechanical properties :
#
#
# Convention : Reuss Voigt Hill
#
# Bulk Modulus (GPa) = 23.11156 26.85628 24.98392
# Shear Modulus (GPa) = 50.64012 17.49964 34.06988
#
# Velocity S-wave (km/s) = 5.32344 3.12939 4.36647
# Velocity P-wave (km/s) = 7.12172 5.29968 6.27716
#
# Compressibility (1/GPa) = 0.04326838
#
# Stress axis : x y z
#
# Youngs Moduli (GPa) = 22.92711 52.28588 82.01382
#
# Poissons Ratio (x) = 0.56923 0.44574
# Poissons Ratio (y) = 0.24960 -0.04006
# Poissons Ratio (z) = 0.12461 -0.02554
#
# Static dielectric constant tensor:
#      x y z
#    x 1.605350 0.000000 0.000000 
#    y 0.000000 1.650740 0.000000 
#    z 0.000000 0.000000 1.630560 
# 
# From -- ./inp_files/43225.got.cif
#   From: 2010.05.17/outbox.cif.g08.bks.cpg/sg69_22_cif.got.tgz:43225.got - 2010.06.03 19:29:58.
