data_PCOD9513548
_publ_section_title
;
Structure prediction by ZEFSAII (Michael W. Deem and Ramdas Pophale) SiO2 
 PCOD9513548
Probable space group: F M M M
;
_chemical_formula_sum "Si O2"
_cell_formula_units_Z 112
_cell_length_a 14.317738
_cell_length_b 14.505216
_cell_length_c 28.429544
_cell_angle_alpha 90.000000
_cell_angle_beta 90.000000
_cell_angle_gamma 90.000000
_cell_volume 5904.301211
_symmetry_space_group_name_H-M "F M M M"
_symmetry_group_IT_number 69
_symmetry_cell_setting 'orthorhombic'
loop_
_space_group_symop_operation_xyz
x,y,z
-x,-y,z
x,-y,-z
-x,y,-z
-x,-y,-z
x,y,-z
-x,y,z
x,-y,z
x,1/2+y,1/2+z
-x,1/2-y,1/2+z
x,1/2-y,1/2-z
-x,1/2+y,1/2-z
-x,1/2-y,1/2-z
x,1/2+y,1/2-z
-x,1/2+y,1/2+z
x,1/2-y,1/2+z
1/2+x,y,1/2+z
1/2-x,-y,1/2+z
1/2+x,-y,1/2-z
1/2-x,y,1/2-z
1/2-x,-y,1/2-z
1/2+x,y,1/2-z
1/2-x,y,1/2+z
1/2+x,-y,1/2+z
1/2+x,1/2+y,z
1/2-x,1/2-y,z
1/2+x,1/2-y,-z
1/2-x,1/2+y,-z
1/2-x,1/2-y,-z
1/2+x,1/2+y,-z
1/2-x,1/2+y,z
1/2+x,1/2-y,z
loop_
_atom_site_type_symbol
_atom_site_label
_atom_site_fract_x
_atom_site_fract_y
_atom_site_fract_z
Si Si1 0.794701 0.387822 0.053670
Si Si2 0.000000 0.395160 0.056547
Si Si3 0.110681 0.500000 0.813422
Si Si4 0.758537 0.645011 0.652996
Si Si5 0.610062 0.500000 0.201349
O O1 0.799133 0.500000 0.053631
O O2 0.729168 0.358790 0.096398
O O3 0.899289 0.352490 0.066682
O O4 0.771122 0.360627 0.000000
O O5 0.000000 0.500000 0.075426
O O6 0.000000 0.402927 0.000000
O O7 0.164474 0.412250 0.834919
O O8 0.126237 0.500000 0.757305
O O9 0.000000 0.500000 0.821358
O O10 0.750000 0.750000 0.668480
O O11 0.840015 0.588646 0.678572
O O12 0.500000 0.500000 0.192580
#
# Coordination Sequence:
#
# PCOD9513548 Si02
#       5
#    32  16  16  32  16
#     4   9  16  29  52  80 117 156 191 229 283 335
#     4   7  12  22  42  74 106 140 176 226 276 319
#     4  10  23  41  64  86 112 147 194 248 296 349
#     4  11  22  36  60  92 119 150 191 243 287 346
#     4  10  23  45  60  78 117 160 192 234 297 354
#
# _framework density 18.969221999999998
#
# number of rings (size 3 to 8) (size 9 to 14) (size 15 to 20)
#    0.000    2.429    2.857    3.429    2.000    4.000 
#    0.000    2.857    0.000    1.714    0.000    0.000 
#    0.000    0.000    0.000    0.000    0.000    0.000 
#
# Total GULP energy -156091.554860 kJ/mol
# GULP energy per Si atom -5574.698388 kJ/mol
# Density = 1.892605 g / cm^3
# Si number density = 18.969222 Si / 1000 Ang^3
#
#
#
# Elastic Constant Matrix: (Units=GPa)
#
#
# Indices 1 2 3 4 5 6 
#
# 1 80.1112 41.4129 47.6666 0.0000 0.0000 0.0000
# 2 41.4129 132.1052 33.4254 0.0000 0.0000 0.0000
# 3 47.6666 33.4254 146.6687 0.0000 0.0000 0.0000
# 4 0.0000 0.0000 0.0000 -13.4877 0.0000 0.0000
# 5 0.0000 0.0000 0.0000 0.0000 20.1716 0.0000
# 6 0.0000 0.0000 0.0000 0.0000 0.0000 1.8507
#
#
#
# Elastic Compliance Matrix: (Units=1/GPa)
#
#
# Indices 1 2 3 4 5 6 
#
# 1 0.017506 -0.004296 -0.004710 0.000000 0.000000 0.000000
# 2 -0.004296 0.009087 -0.000675 0.000000 0.000000 0.000000
# 3 -0.004710 -0.000675 0.008503 0.000000 0.000000 0.000000
# 4 0.000000 0.000000 0.000000 -0.074141 0.000000 0.000000
# 5 0.000000 0.000000 0.000000 0.000000 0.049575 0.000000
# 6 0.000000 0.000000 0.000000 0.000000 0.000000 0.540325
#
#
# Mechanical properties :
#
#
# Convention : Reuss Voigt Hill
#
# Bulk Modulus (GPa) = 63.55780 67.09944 65.32862
# Shear Modulus (GPa) = 8.68868 17.46561 13.07715
#
# Velocity S-wave (km/s) = 2.14251 3.03765 2.62847
# Velocity P-wave (km/s) = 6.30071 6.91033 6.61255
#
# Compressibility (1/GPa) = 0.01573371
#
# Stress axis : x y z
#
# Youngs Moduli (GPa) = 57.12273 110.04485 117.60974
#
# Poissons Ratio (x) = 0.47276 0.55398
# Poissons Ratio (y) = 0.24540 0.07936
# Poissons Ratio (z) = 0.26907 0.07425
#
# Static dielectric constant tensor:
#      x y z
#    x 1.685770 0.000000 0.000000 
#    y 0.000000 1.658140 0.000000 
#    z 0.000000 0.000000 1.691930 
# 
# From -- ./inp_files/14107.got.cif
#   From: 2010.05.17/outbox.cif.g08.bks.cpg/sg69_8_cif.got.tgz:14107.got - 2010.06.03 19:29:58.
