data_PCOD9513205
_publ_section_title
;
Structure prediction by ZEFSAII (Michael W. Deem and Ramdas Pophale) SiO2 
 PCOD9513205
Probable space group: F M M M
;
_chemical_formula_sum "Si O2"
_cell_formula_units_Z 136
_cell_length_a 24.703065
_cell_length_b 18.013547
_cell_length_c 13.612557
_cell_angle_alpha 90.000000
_cell_angle_beta 90.000000
_cell_angle_gamma 90.000000
_cell_volume 6057.449322
_symmetry_space_group_name_H-M "F M M M"
_symmetry_group_IT_number 69
_symmetry_cell_setting 'orthorhombic'
loop_
_space_group_symop_operation_xyz
x,y,z
-x,-y,z
x,-y,-z
-x,y,-z
-x,-y,-z
x,y,-z
-x,y,z
x,-y,z
x,1/2+y,1/2+z
-x,1/2-y,1/2+z
x,1/2-y,1/2-z
-x,1/2+y,1/2-z
-x,1/2-y,1/2-z
x,1/2+y,1/2-z
-x,1/2+y,1/2+z
x,1/2-y,1/2+z
1/2+x,y,1/2+z
1/2-x,-y,1/2+z
1/2+x,-y,1/2-z
1/2-x,y,1/2-z
1/2-x,-y,1/2-z
1/2+x,y,1/2-z
1/2-x,y,1/2+z
1/2+x,-y,1/2+z
1/2+x,1/2+y,z
1/2-x,1/2-y,z
1/2+x,1/2-y,-z
1/2-x,1/2+y,-z
1/2-x,1/2-y,-z
1/2+x,1/2+y,-z
1/2-x,1/2+y,z
1/2+x,1/2-y,z
loop_
_atom_site_type_symbol
_atom_site_label
_atom_site_fract_x
_atom_site_fract_y
_atom_site_fract_z
Si Si1 0.000000 0.295293 0.879937
Si Si2 0.084698 0.918468 0.618742
Si Si3 0.206139 0.873484 0.617144
Si Si4 0.000000 0.123912 0.880571
Si Si5 0.085400 0.000000 0.119984
Si Si6 0.750000 0.750000 0.250000
Si Si7 0.708509 0.000000 0.381911
O O1 0.948997 0.346377 0.849984
O O2 0.000000 0.209466 0.847343
O O3 0.000000 0.291769 0.000000
O O4 0.078826 0.920071 0.500000
O O5 0.148177 0.909388 0.638570
O O6 0.066017 0.000000 0.653659
O O7 0.208114 0.858976 0.500000
O O8 0.213608 0.800190 0.679750
O O9 0.255545 0.928438 0.642168
O O10 0.052060 0.074035 0.852316
O O11 0.000000 0.125866 0.000000
O O12 0.147229 0.000000 0.155094
O O13 0.086106 0.000000 0.000000
O O14 0.704795 0.000000 0.500000
#
# Coordination Sequence:
#
# PCOD9513205 Si02
#       7
#    16  32  32  16  16   8  16
#     4   9  16  24  46  82 117 152 190 238 303 363
#     4   9  16  30  52  80 115 154 198 249 298 351
#     4  10  21  39  60  85 121 159 201 251 299 353
#     4   8  14  24  36  66 109 144 186 242 293 348
#     4   8  14  25  45  69 103 150 195 236 288 350
#     4  12  26  38  56  88 124 158 202 244 308 366
#     4   9  17  33  58  82 107 154 204 242 288 348
#
# _framework density 22.451692999999999
#
# number of rings (size 3 to 8) (size 9 to 14) (size 15 to 20)
#    0.000    2.824    1.176    1.412    0.000    3.765 
#    0.000    7.059    0.000    0.706    0.000    3.294 
#    0.000    0.000    0.000    0.000    0.000    0.000 
#
# Total GULP energy -190113.562939 kJ/mol
# GULP energy per Si atom -5591.575381 kJ/mol
# Density = 2.240059 g / cm^3
# Si number density = 22.451693 Si / 1000 Ang^3
#
#
#
# Elastic Constant Matrix: (Units=GPa)
#
#
# Indices 1 2 3 4 5 6 
#
# 1 187.1932 110.0394 27.5445 0.0000 0.0000 0.0000
# 2 110.0394 233.9602 56.9739 0.0000 0.0000 0.0000
# 3 27.5445 56.9739 109.0987 0.0000 0.0000 0.0000
# 4 0.0000 0.0000 0.0000 41.3967 0.0000 0.0000
# 5 0.0000 0.0000 0.0000 0.0000 -0.7069 0.0000
# 6 0.0000 0.0000 0.0000 0.0000 0.0000 -20.4316
#
#
#
# Elastic Compliance Matrix: (Units=1/GPa)
#
#
# Indices 1 2 3 4 5 6 
#
# 1 0.007384 -0.003459 -0.000058 0.000000 0.000000 0.000000
# 2 -0.003459 0.006517 -0.002530 0.000000 0.000000 0.000000
# 3 -0.000058 -0.002530 0.010502 0.000000 0.000000 0.000000
# 4 0.000000 0.000000 0.000000 0.024157 0.000000 0.000000
# 5 0.000000 0.000000 0.000000 0.000000 -1.414649 0.000000
# 6 0.000000 0.000000 0.000000 0.000000 0.000000 -0.048944
#
#
# Mechanical properties :
#
#
# Convention : Reuss Voigt Hill
#
# Bulk Modulus (GPa) = 81.24044 102.15196 91.69620
# Shear Modulus (GPa) = -3.57440 26.43126 11.42843
#
# Velocity S-wave (km/s) = -1.26313 3.43483 2.25860
# Velocity P-wave (km/s) = 5.84258 7.83122 6.90883
#
# Compressibility (1/GPa) = 0.01230914
#
# Stress axis : x y z
#
# Youngs Moduli (GPa) = 135.43210 153.44179 95.22029
#
# Poissons Ratio (x) = 0.53071 0.00552
# Poissons Ratio (y) = 0.46842 0.24092
# Poissons Ratio (z) = 0.00785 0.38823
#
# Static dielectric constant tensor:
#      x y z
#    x 1.795680 0.000000 0.000000 
#    y 0.000000 1.793200 0.000000 
#    z 0.000000 0.000000 1.872030 
# 
# From -- ./inp_files/25663.got.cif
#   From: 2010.05.17/outbox.cif.g08.bks.cpg/sg69_13_cif.got.tgz:25663.got - 2010.06.03 19:29:58.
