data_PCOD9513157
_publ_section_title
;
Structure prediction by ZEFSAII (Michael W. Deem and Ramdas Pophale) SiO2 
 PCOD9513157
Probable space group: F M M M
;
_chemical_formula_sum "Si O2"
_cell_formula_units_Z 160
_cell_length_a 15.267372
_cell_length_b 32.528954
_cell_length_c 16.559567
_cell_angle_alpha 90.000000
_cell_angle_beta 90.000000
_cell_angle_gamma 90.000000
_cell_volume 8224.004942
_symmetry_space_group_name_H-M "F M M M"
_symmetry_group_IT_number 69
_symmetry_cell_setting 'orthorhombic'
loop_
_space_group_symop_operation_xyz
x,y,z
-x,-y,z
x,-y,-z
-x,y,-z
-x,-y,-z
x,y,-z
-x,y,z
x,-y,z
x,1/2+y,1/2+z
-x,1/2-y,1/2+z
x,1/2-y,1/2-z
-x,1/2+y,1/2-z
-x,1/2-y,1/2-z
x,1/2+y,1/2-z
-x,1/2+y,1/2+z
x,1/2-y,1/2+z
1/2+x,y,1/2+z
1/2-x,-y,1/2+z
1/2+x,-y,1/2-z
1/2-x,y,1/2-z
1/2-x,-y,1/2-z
1/2+x,y,1/2-z
1/2-x,y,1/2+z
1/2+x,-y,1/2+z
1/2+x,1/2+y,z
1/2-x,1/2-y,z
1/2+x,1/2-y,-z
1/2-x,1/2+y,-z
1/2-x,1/2-y,-z
1/2+x,1/2+y,-z
1/2-x,1/2+y,z
1/2+x,1/2-y,z
loop_
_atom_site_type_symbol
_atom_site_label
_atom_site_fract_x
_atom_site_fract_y
_atom_site_fract_z
Si Si1 0.835672 0.101793 0.902419
Si Si2 0.500000 0.452752 0.657420
Si Si3 0.821783 0.453187 0.903065
Si Si4 0.895221 0.762839 0.655819
Si Si5 0.000000 0.952019 0.849439
Si Si6 0.270832 0.809410 0.596093
O O1 0.755609 0.074415 0.872784
O O2 0.918809 0.075589 0.876460
O O3 0.816399 0.148243 0.875779
O O4 0.836975 0.103041 0.000000
O O5 0.500000 0.500000 0.625004
O O6 0.587577 0.433685 0.624095
O O7 0.500000 0.454298 0.752903
O O8 0.814286 0.500000 0.872383
O O9 0.818971 0.454788 0.000000
O O10 0.894175 0.750000 0.750000
O O11 0.822683 0.798932 0.639098
O O12 0.844513 0.725687 0.610116
O O13 0.000000 0.768984 0.634142
O O14 0.000000 0.000000 0.879296
O O15 0.252529 0.811801 0.500000
#
# Coordination Sequence:
#
# PCOD9513157 Si02
#       6
#    32  16  32  32  16  32
#     4  10  22  38  56  84 114 149 197 246 289 341
#     4   9  19  35  53  81 110 143 193 236 284 345
#     4   9  17  34  58  80 109 150 193 237 286 337
#     4  10  21  40  63  88 118 155 190 233 288 359
#     4  11  23  39  57  83 121 158 197 243 295 353
#     4  10  21  38  60  88 119 150 194 243 286 339
#
# _framework density 19.455241000000001
#
# number of rings (size 3 to 8) (size 9 to 14) (size 15 to 20)
#    0.000    2.200    0.000    3.600    1.400    5.200 
#    9.000    3.000    0.000    0.000    0.000    0.000 
#    0.000    0.000    0.000    0.000    0.000    0.000 
#
# Total GULP energy -222735.983142 kJ/mol
# GULP energy per Si atom -5568.399579 kJ/mol
# Density = 1.941096 g / cm^3
# Si number density = 19.455241 Si / 1000 Ang^3
#
#
#
# Elastic Constant Matrix: (Units=GPa)
#
#
# Indices 1 2 3 4 5 6 
#
# 1 192.4935 73.2347 10.6305 0.0000 0.0000 0.0000
# 2 73.2347 117.7309 6.2961 0.0000 0.0000 0.0000
# 3 10.6305 6.2961 14.3701 0.0000 0.0000 0.0000
# 4 0.0000 0.0000 0.0000 13.4828 0.0000 0.0000
# 5 0.0000 0.0000 0.0000 0.0000 40.0214 0.0000
# 6 0.0000 0.0000 0.0000 0.0000 0.0000 21.0574
#
#
#
# Elastic Compliance Matrix: (Units=1/GPa)
#
#
# Indices 1 2 3 4 5 6 
#
# 1 0.006958 -0.004150 -0.003329 0.000000 0.000000 0.000000
# 2 -0.004150 0.011173 -0.001825 0.000000 0.000000 0.000000
# 3 -0.003329 -0.001825 0.072851 0.000000 0.000000 0.000000
# 4 0.000000 0.000000 0.000000 0.074169 0.000000 0.000000
# 5 0.000000 0.000000 0.000000 0.000000 0.024987 0.000000
# 6 0.000000 0.000000 0.000000 0.000000 0.000000 0.047489
#
#
# Mechanical properties :
#
#
# Convention : Reuss Voigt Hill
#
# Bulk Modulus (GPa) = 13.81715 56.10189 34.95952
# Shear Modulus (GPa) = 17.83423 30.54118 24.18771
#
# Velocity S-wave (km/s) = 3.03096 3.96639 3.52980
# Velocity P-wave (km/s) = 4.40072 7.06225 5.88395
#
# Compressibility (1/GPa) = 0.07237384
#
# Stress axis : x y z
#
# Youngs Moduli (GPa) = 143.72554 89.50068 13.72660
#
# Poissons Ratio (x) = 0.37143 0.04569
# Poissons Ratio (y) = 0.59647 0.02506
# Poissons Ratio (z) = 0.47843 0.16336
#
# Static dielectric constant tensor:
#      x y z
#    x 1.559680 0.000000 0.000000 
#    y 0.000000 1.726010 0.000000 
#    z 0.000000 0.000000 1.680380 
# 
# From -- ./inp_files/21869.got.cif
#   From: 2010.05.17/outbox.cif.g08.bks.cpg/sg69_11_cif.got.tgz:21869.got - 2010.06.03 19:29:58.
