data_PCOD9513131
_publ_section_title
;
Structure prediction by ZEFSAII (Michael W. Deem and Ramdas Pophale) SiO2 
 PCOD9513131
Probable space group: F M M M
;
_chemical_formula_sum "Si O2"
_cell_formula_units_Z 176
_cell_length_a 13.777744
_cell_length_b 23.546037
_cell_length_c 28.132364
_cell_angle_alpha 90.000000
_cell_angle_beta 90.000000
_cell_angle_gamma 90.000000
_cell_volume 9126.455933
_symmetry_space_group_name_H-M "F M M M"
_symmetry_group_IT_number 69
_symmetry_cell_setting 'orthorhombic'
loop_
_space_group_symop_operation_xyz
x,y,z
-x,-y,z
x,-y,-z
-x,y,-z
-x,-y,-z
x,y,-z
-x,y,z
x,-y,z
x,1/2+y,1/2+z
-x,1/2-y,1/2+z
x,1/2-y,1/2-z
-x,1/2+y,1/2-z
-x,1/2-y,1/2-z
x,1/2+y,1/2-z
-x,1/2+y,1/2+z
x,1/2-y,1/2+z
1/2+x,y,1/2+z
1/2-x,-y,1/2+z
1/2+x,-y,1/2-z
1/2-x,y,1/2-z
1/2-x,-y,1/2-z
1/2+x,y,1/2-z
1/2-x,y,1/2+z
1/2+x,-y,1/2+z
1/2+x,1/2+y,z
1/2-x,1/2-y,z
1/2+x,1/2-y,-z
1/2-x,1/2+y,-z
1/2-x,1/2-y,-z
1/2+x,1/2+y,-z
1/2-x,1/2+y,z
1/2+x,1/2-y,z
loop_
_atom_site_type_symbol
_atom_site_label
_atom_site_fract_x
_atom_site_fract_y
_atom_site_fract_z
Si Si1 0.725598 0.932188 0.094872
Si Si2 0.383669 0.355336 0.055539
Si Si3 0.882496 0.771176 0.134089
Si Si4 0.881339 0.855059 0.331822
Si Si5 0.609004 0.568848 0.500000
Si Si6 0.113406 0.315233 0.268419
O O1 0.830375 0.905897 0.083346
O O2 0.672769 0.903885 0.139568
O O3 0.728721 0.000000 0.098764
O O4 0.663215 0.915308 0.048177
O O5 0.500000 0.361289 0.058271
O O6 0.354817 0.298357 0.084077
O O7 0.357105 0.354343 0.000000
O O8 0.857315 0.705910 0.143845
O O9 0.847241 0.810571 0.178187
O O10 0.000000 0.772302 0.136660
O O11 0.850511 0.851240 0.276342
O O12 0.000000 0.861154 0.333645
O O13 0.605611 0.500000 0.500000
O O14 0.500000 0.591304 0.500000
O O15 0.118626 0.250000 0.250000
O O16 0.000000 0.330326 0.272755
#
# Coordination Sequence:
#
# PCOD9513131 Si02
#       6
#    32  32  32  32  16  32
#     4  11  22  36  53  78 108 142 188 230 265 319
#     4  10  21  38  58  77 101 136 183 242 294 328
#     4   8  15  31  55  83 112 141 178 224 275 330
#     4   9  17  31  54  85 117 147 177 212 266 336
#     4   9  18  34  53  72 101 139 176 214 256 309
#     4   7  11  24  50  80 109 141 175 211 253 315
#
# _framework density 19.284593999999998
#
# number of rings (size 3 to 8) (size 9 to 14) (size 15 to 20)
#    0.000    3.000    0.909    2.727    0.000    2.182 
#    1.636    2.727    0.000    5.455    0.000    5.091 
#    0.000    0.000    0.000    0.000    0.000    0.000 
#
# Total GULP energy -245324.982975 kJ/mol
# GULP energy per Si atom -5575.567795 kJ/mol
# Density = 1.924070 g / cm^3
# Si number density = 19.284594 Si / 1000 Ang^3
#
#
#
# Elastic Constant Matrix: (Units=GPa)
#
#
# Indices 1 2 3 4 5 6 
#
# 1 72.4717 24.6251 40.9814 0.0000 0.0000 0.0000
# 2 24.6251 72.8011 48.6093 0.0000 0.0000 0.0000
# 3 40.9814 48.6093 99.1773 0.0000 0.0000 0.0000
# 4 0.0000 0.0000 0.0000 31.3696 0.0000 0.0000
# 5 0.0000 0.0000 0.0000 0.0000 29.3786 0.0000
# 6 0.0000 0.0000 0.0000 0.0000 0.0000 21.0813
#
#
#
# Elastic Compliance Matrix: (Units=1/GPa)
#
#
# Indices 1 2 3 4 5 6 
#
# 1 0.018143 -0.001681 -0.006673 0.000000 0.000000 0.000000
# 2 -0.001681 0.020574 -0.009389 0.000000 0.000000 0.000000
# 3 -0.006673 -0.009389 0.017442 0.000000 0.000000 0.000000
# 4 0.000000 0.000000 0.000000 0.031878 0.000000 0.000000
# 5 0.000000 0.000000 0.000000 0.000000 0.034038 0.000000
# 6 0.000000 0.000000 0.000000 0.000000 0.000000 0.047435
#
#
# Mechanical properties :
#
#
# Convention : Reuss Voigt Hill
#
# Bulk Modulus (GPa) = 48.37353 52.54241 50.45797
# Shear Modulus (GPa) = 23.59734 25.04818 24.32276
#
# Velocity S-wave (km/s) = 3.50185 3.60789 3.55527
# Velocity P-wave (km/s) = 6.44120 6.68287 6.56315
#
# Compressibility (1/GPa) = 0.02067246
#
# Stress axis : x y z
#
# Youngs Moduli (GPa) = 55.11690 48.60553 57.33271
#
# Poissons Ratio (x) = 0.08173 0.38258
# Poissons Ratio (y) = 0.09268 0.53829
# Poissons Ratio (z) = 0.36779 0.45635
#
# Static dielectric constant tensor:
#      x y z
#    x 1.752260 0.000000 0.000000 
#    y 0.000000 1.628780 0.000000 
#    z 0.000000 0.000000 1.698880 
# 
# From -- ./inp_files/41132.got.cif
#   From: 2010.05.17/outbox.cif.g08.bks.cpg/sg69_21_cif.got.tgz:41132.got - 2010.06.03 19:29:58.
