data_PCOD9513686
_publ_section_title
;
Structure prediction by ZEFSAII (Michael W. Deem and Ramdas Pophale) SiO2 
 PCOD9513686
Probable space group: F M M M
;
_chemical_formula_sum "Si O2"
_cell_formula_units_Z 192
_cell_length_a 26.123022
_cell_length_b 16.616650
_cell_length_c 23.907621
_cell_angle_alpha 90.000000
_cell_angle_beta 90.000000
_cell_angle_gamma 90.000000
_cell_volume 10377.751115
_symmetry_space_group_name_H-M "F M M M"
_symmetry_group_IT_number 69
_symmetry_cell_setting 'orthorhombic'
loop_
_space_group_symop_operation_xyz
x,y,z
-x,-y,z
x,-y,-z
-x,y,-z
-x,-y,-z
x,y,-z
-x,y,z
x,-y,z
x,1/2+y,1/2+z
-x,1/2-y,1/2+z
x,1/2-y,1/2-z
-x,1/2+y,1/2-z
-x,1/2-y,1/2-z
x,1/2+y,1/2-z
-x,1/2+y,1/2+z
x,1/2-y,1/2+z
1/2+x,y,1/2+z
1/2-x,-y,1/2+z
1/2+x,-y,1/2-z
1/2-x,y,1/2-z
1/2-x,-y,1/2-z
1/2+x,y,1/2-z
1/2-x,y,1/2+z
1/2+x,-y,1/2+z
1/2+x,1/2+y,z
1/2-x,1/2-y,z
1/2+x,1/2-y,-z
1/2-x,1/2+y,-z
1/2-x,1/2-y,-z
1/2+x,1/2+y,-z
1/2-x,1/2+y,z
1/2+x,1/2-y,z
loop_
_atom_site_type_symbol
_atom_site_label
_atom_site_fract_x
_atom_site_fract_y
_atom_site_fract_z
Si Si1 0.655453 0.626962 0.866129
Si Si2 0.742417 0.406510 0.434803
Si Si3 0.808838 0.907278 0.256766
Si Si4 0.942143 0.875382 0.064257
Si Si5 0.345195 0.179711 0.135145
Si Si6 0.442052 0.820509 0.064129
O O1 0.702899 0.601600 0.904863
O O2 0.664920 0.596636 0.803575
O O3 0.602554 0.598986 0.894182
O O4 0.655430 0.723928 0.863717
O O5 0.746079 0.383952 0.500000
O O6 0.726440 0.500000 0.431172
O O7 0.701561 0.352267 0.402477
O O8 0.750000 0.878827 0.250000
O O9 0.837160 0.855015 0.303125
O O10 0.806468 0.000000 0.276255
O O11 0.941978 0.777363 0.064516
O O12 0.000000 0.900688 0.078841
O O13 0.931697 0.899796 0.000000
O O14 0.398147 0.152503 0.106300
O O15 0.500000 0.846248 0.078026
O O16 0.430653 0.844889 0.000000
#
# Coordination Sequence:
#
# PCOD9513686 Si02
#       6
#    32  32  32  32  32  32
#     4  11  21  34  57  84 107 136 183 232 268 310
#     4  11  23  36  51  76 113 149 175 211 270 331
#     4  11  23  39  56  73 105 151 186 217 273 334
#     4   8  15  30  53  82 114 142 169 212 272 325
#     4  11  21  34  57  84 107 136 183 232 268 310
#     4   8  15  30  53  82 114 142 169 212 272 325
#
# _framework density 18.501118000000002
#
# number of rings (size 3 to 8) (size 9 to 14) (size 15 to 20)
#    0.000    2.000    1.667    4.000    0.000    3.333 
#    0.000    0.833    0.000    9.000    0.000   11.667 
#    0.000    0.000    0.000    0.000    0.000    0.000 
#
# Total GULP energy -268088.608346 kJ/mol
# GULP energy per Si atom -5585.179341 kJ/mol
# Density = 1.845901 g / cm^3
# Si number density = 18.501118 Si / 1000 Ang^3
#
#
#
# Elastic Constant Matrix: (Units=GPa)
#
#
# Indices 1 2 3 4 5 6 
#
# 1 136.4154 19.7254 73.9623 0.0000 0.0000 0.0000
# 2 19.7254 45.5191 22.2151 0.0000 0.0000 0.0000
# 3 73.9623 22.2151 126.3620 0.0000 0.0000 0.0000
# 4 0.0000 0.0000 0.0000 22.8641 0.0000 0.0000
# 5 0.0000 0.0000 0.0000 0.0000 11.3245 0.0000
# 6 0.0000 0.0000 0.0000 0.0000 0.0000 -15.3265
#
#
#
# Elastic Compliance Matrix: (Units=1/GPa)
#
#
# Indices 1 2 3 4 5 6 
#
# 1 0.010865 -0.001755 -0.006051 0.000000 0.000000 0.000000
# 2 -0.001755 0.024314 -0.003247 0.000000 0.000000 0.000000
# 3 -0.006051 -0.003247 0.012026 0.000000 0.000000 0.000000
# 4 0.000000 0.000000 0.000000 0.043737 0.000000 0.000000
# 5 0.000000 0.000000 0.000000 0.000000 0.088304 0.000000
# 6 0.000000 0.000000 0.000000 0.000000 0.000000 -0.065247
#
#
# Mechanical properties :
#
#
# Convention : Reuss Voigt Hill
#
# Bulk Modulus (GPa) = 39.84239 60.01134 49.92686
# Shear Modulus (GPa) = 34.60861 16.59868 25.60365
#
# Velocity S-wave (km/s) = 4.32976 2.99853 3.72411
# Velocity P-wave (km/s) = 6.82478 6.67048 6.74807
#
# Compressibility (1/GPa) = 0.02509890
#
# Stress axis : x y z
#
# Youngs Moduli (GPa) = 92.03785 41.12828 83.15032
#
# Poissons Ratio (x) = 0.07219 0.50314
# Poissons Ratio (y) = 0.16155 0.27001
# Poissons Ratio (z) = 0.55692 0.13355
#
# Static dielectric constant tensor:
#      x y z
#    x 1.624470 0.000000 0.000000 
#    y 0.000000 1.648390 0.000000 
#    z 0.000000 0.000000 1.609030 
# 
# From -- ./inp_files/32812.got.cif
#   From: 2010.05.17/outbox.cif.g08.bks.cpg/sg69_17_cif.got.tgz:32812.got - 2010.06.03 19:29:58.
