data_PCOD9513688
_publ_section_title
;
Structure prediction by ZEFSAII (Michael W. Deem and Ramdas Pophale) SiO2 
 PCOD9513688
Probable space group: F M M M
;
_chemical_formula_sum "Si O2"
_cell_formula_units_Z 128
_cell_length_a 8.443299
_cell_length_b 25.879785
_cell_length_c 37.298086
_cell_angle_alpha 90.000000
_cell_angle_beta 90.000000
_cell_angle_gamma 90.000000
_cell_volume 8150.033223
_symmetry_space_group_name_H-M "F M M M"
_symmetry_group_IT_number 69
_symmetry_cell_setting 'orthorhombic'
loop_
_space_group_symop_operation_xyz
x,y,z
-x,-y,z
x,-y,-z
-x,y,-z
-x,-y,-z
x,y,-z
-x,y,z
x,-y,z
x,1/2+y,1/2+z
-x,1/2-y,1/2+z
x,1/2-y,1/2-z
-x,1/2+y,1/2-z
-x,1/2-y,1/2-z
x,1/2+y,1/2-z
-x,1/2+y,1/2+z
x,1/2-y,1/2+z
1/2+x,y,1/2+z
1/2-x,-y,1/2+z
1/2+x,-y,1/2-z
1/2-x,y,1/2-z
1/2-x,-y,1/2-z
1/2+x,y,1/2-z
1/2-x,y,1/2+z
1/2+x,-y,1/2+z
1/2+x,1/2+y,z
1/2-x,1/2-y,z
1/2+x,1/2-y,-z
1/2-x,1/2+y,-z
1/2-x,1/2-y,-z
1/2+x,1/2+y,-z
1/2-x,1/2+y,z
1/2+x,1/2-y,z
loop_
_atom_site_type_symbol
_atom_site_label
_atom_site_fract_x
_atom_site_fract_y
_atom_site_fract_z
Si Si1 0.816409 0.562547 0.085380
Si Si2 0.312695 0.807619 0.289306
Si Si3 0.000000 0.937287 0.958740
Si Si4 0.312313 0.500000 0.209608
Si Si5 0.313200 0.598619 0.333563
O O1 0.811393 0.500000 0.089191
O O2 0.666213 0.577675 0.060557
O O3 0.789813 0.587529 0.124380
O O4 0.000000 0.574729 0.073740
O O5 0.500000 0.805441 0.287237
O O6 0.250000 0.823874 0.250000
O O7 0.250000 0.750000 0.296554
O O8 0.260970 0.848789 0.318865
O O9 0.000000 0.000000 0.958593
O O10 0.000000 0.919916 0.000000
O O11 0.500000 0.500000 0.210389
O O12 0.250000 0.500000 0.250000
O O13 0.254510 0.550535 0.188621
O O14 0.500000 0.600862 0.326992
#
# Coordination Sequence:
#
# PCOD9513688 Si02
#       5
#    32  32  16  16  32
#     4   9  18  31  49  72 102 138 172 206 255 302
#     4  11  22  37  54  72  96 132 173 219 267 311
#     4   9  18  30  48  72 104 137 172 208 242 304
#     4  12  24  34  48  70  98 133 174 217 257 307
#     4  11  21  35  52  72 100 134 171 217 259 307
#
# _framework density 15.705458999999999
#
# number of rings (size 3 to 8) (size 9 to 14) (size 15 to 20)
#    0.000    1.625    1.250    5.625    3.500    0.500 
#    0.000    2.500    0.000    0.000    0.000    0.000 
#    0.000    1.000    0.500    0.000    0.000    0.000 
#
# Total GULP energy -178545.651479 kJ/mol
# GULP energy per Si atom -5579.551609 kJ/mol
# Density = 1.566971 g / cm^3
# Si number density = 15.705459 Si / 1000 Ang^3
#
#
#
# Elastic Constant Matrix: (Units=GPa)
#
#
# Indices 1 2 3 4 5 6 
#
# 1 181.1068 43.1258 92.2866 0.0000 0.0000 0.0000
# 2 43.1258 48.0761 37.0512 0.0000 0.0000 0.0000
# 3 92.2866 37.0512 95.1256 0.0000 0.0000 0.0000
# 4 0.0000 0.0000 0.0000 8.2675 0.0000 0.0000
# 5 0.0000 0.0000 0.0000 0.0000 30.1875 0.0000
# 6 0.0000 0.0000 0.0000 0.0000 0.0000 23.9911
#
#
#
# Elastic Compliance Matrix: (Units=1/GPa)
#
#
# Indices 1 2 3 4 5 6 
#
# 1 0.011106 -0.002370 -0.009851 0.000000 0.000000 0.000000
# 2 -0.002370 0.030228 -0.009474 0.000000 0.000000 0.000000
# 3 -0.009851 -0.009474 0.023760 0.000000 0.000000 0.000000
# 4 0.000000 0.000000 0.000000 0.120956 0.000000 0.000000
# 5 0.000000 0.000000 0.000000 0.000000 0.033126 0.000000
# 6 0.000000 0.000000 0.000000 0.000000 0.000000 0.041682
#
#
# Mechanical properties :
#
#
# Convention : Reuss Voigt Hill
#
# Bulk Modulus (GPa) = 46.07796 74.35953 60.21874
# Shear Modulus (GPa) = 16.05220 22.61222 19.33221
#
# Velocity S-wave (km/s) = 3.20046 3.79854 3.51226
# Velocity P-wave (km/s) = 6.56200 8.16625 7.40768
#
# Compressibility (1/GPa) = 0.02170235
#
# Stress axis : x y z
#
# Youngs Moduli (GPa) = 90.04219 33.08174 42.08771
#
# Poissons Ratio (x) = 0.07841 0.41462
# Poissons Ratio (y) = 0.21342 0.39875
# Poissons Ratio (z) = 0.88703 0.31343
#
# Static dielectric constant tensor:
#      x y z
#    x 1.542350 0.000000 0.000000 
#    y 0.000000 1.488560 0.000000 
#    z 0.000000 0.000000 1.510520 
# 
# From -- ./inp_files/5378.got.cif
#   From: 2010.05.17/outbox.cif.g08.bks.cpg/sg69_3_cif.got.tgz:5378.got - 2010.06.03 19:29:58.
