data_PCOD9513112
_publ_section_title
;
Structure prediction by ZEFSAII (Michael W. Deem and Ramdas Pophale) SiO2 
 PCOD9513112
Probable space group: F M M M
;
_chemical_formula_sum "Si O2"
_cell_formula_units_Z 176
_cell_length_a 18.443260
_cell_length_b 28.586077
_cell_length_c 15.686911
_cell_angle_alpha 90.000000
_cell_angle_beta 90.000000
_cell_angle_gamma 90.000000
_cell_volume 8270.460284
_symmetry_space_group_name_H-M "F M M M"
_symmetry_group_IT_number 69
_symmetry_cell_setting 'orthorhombic'
loop_
_space_group_symop_operation_xyz
x,y,z
-x,-y,z
x,-y,-z
-x,y,-z
-x,-y,-z
x,y,-z
-x,y,z
x,-y,z
x,1/2+y,1/2+z
-x,1/2-y,1/2+z
x,1/2-y,1/2-z
-x,1/2+y,1/2-z
-x,1/2-y,1/2-z
x,1/2+y,1/2-z
-x,1/2+y,1/2+z
x,1/2-y,1/2+z
1/2+x,y,1/2+z
1/2-x,-y,1/2+z
1/2+x,-y,1/2-z
1/2-x,y,1/2-z
1/2-x,-y,1/2-z
1/2+x,y,1/2-z
1/2-x,y,1/2+z
1/2+x,-y,1/2+z
1/2+x,1/2+y,z
1/2-x,1/2-y,z
1/2+x,1/2-y,-z
1/2-x,1/2+y,-z
1/2-x,1/2-y,-z
1/2+x,1/2+y,-z
1/2-x,1/2+y,z
1/2+x,1/2-y,z
loop_
_atom_site_type_symbol
_atom_site_label
_atom_site_fract_x
_atom_site_fract_y
_atom_site_fract_z
Si Si1 0.413625 0.794826 0.645151
Si Si2 0.721562 0.947086 0.597562
Si Si3 0.913522 0.694116 0.149468
Si Si4 0.586797 0.396881 0.857678
Si Si5 0.080773 0.500000 0.898713
Si Si6 0.647230 0.902990 0.834278
O O1 0.500000 0.792272 0.631430
O O2 0.385580 0.744294 0.614995
O O3 0.404185 0.800060 0.747730
O O4 0.390982 0.844998 0.609274
O O5 0.747846 0.944338 0.500000
O O6 0.636922 0.934919 0.598382
O O7 0.766938 0.910892 0.654554
O O8 0.731831 0.000000 0.629154
O O9 0.875800 0.646008 0.122523
O O10 0.000000 0.689622 0.133586
O O11 0.500000 0.402142 0.865163
O O12 0.611317 0.400164 0.758942
O O13 0.117396 0.451461 0.872378
O O14 0.000000 0.500000 0.861383
O O15 0.077380 0.500000 0.000000
#
# Coordination Sequence:
#
# PCOD9513112 Si02
#       6
#    32  32  32  32  16  32
#     4   7  12  26  49  81 117 144 173 225 290 339
#     4  11  25  43  58  75 111 162 198 228 284 351
#     4   8  13  25  50  83 116 148 182 224 278 340
#     4  10  21  37  62  92 114 140 188 248 293 331
#     4  11  22  34  51  78 118 162 195 229 280 344
#     4  11  20  35  58  85 115 147 189 237 287 337
#
# _framework density 21.280557000000002
#
# number of rings (size 3 to 8) (size 9 to 14) (size 15 to 20)
#    0.000    2.455    0.909    4.909    1.273    1.455 
#    0.000    1.818    0.000    7.636    0.000    5.091 
#    0.000    0.000    0.000    0.000    0.000    0.000 
#
# Total GULP energy -245119.729450 kJ/mol
# GULP energy per Si atom -5570.902942 kJ/mol
# Density = 2.123212 g / cm^3
# Si number density = 21.280557 Si / 1000 Ang^3
#
#
#
# Elastic Constant Matrix: (Units=GPa)
#
#
# Indices 1 2 3 4 5 6 
#
# 1 97.9949 54.6598 8.2423 0.0000 0.0000 0.0000
# 2 54.6598 187.6747 20.9444 0.0000 0.0000 0.0000
# 3 8.2423 20.9444 33.8473 0.0000 0.0000 0.0000
# 4 0.0000 0.0000 0.0000 1858.8392 0.0000 0.0000
# 5 0.0000 0.0000 0.0000 0.0000 11.0021 0.0000
# 6 0.0000 0.0000 0.0000 0.0000 0.0000 31.5375
#
#
#
# Elastic Compliance Matrix: (Units=1/GPa)
#
#
# Indices 1 2 3 4 5 6 
#
# 1 0.012206 -0.003462 -0.000830 0.000000 0.000000 0.000000
# 2 -0.003462 0.006706 -0.003306 0.000000 0.000000 0.000000
# 3 -0.000830 -0.003306 0.031792 0.000000 0.000000 0.000000
# 4 0.000000 0.000000 0.000000 0.000538 0.000000 0.000000
# 5 0.000000 0.000000 0.000000 0.000000 0.090891 0.000000
# 6 0.000000 0.000000 0.000000 0.000000 0.000000 0.031708
#
#
# Mechanical properties :
#
#
# Convention : Reuss Voigt Hill
#
# Bulk Modulus (GPa) = 28.16351 54.13443 41.14897
# Shear Modulus (GPa) = 24.89124 395.98713 210.43918
#
# Velocity S-wave (km/s) = 3.42375 13.65589 9.95503
# Velocity P-wave (km/s) = 5.37518 16.55711 12.30916
#
# Compressibility (1/GPa) = 0.03550694
#
# Stress axis : x y z
#
# Youngs Moduli (GPa) = 81.92972 149.12641 31.45399
#
# Poissons Ratio (x) = 0.51631 0.02610
# Poissons Ratio (y) = 0.28366 0.10400
# Poissons Ratio (z) = 0.06799 0.49306
#
# Static dielectric constant tensor:
#      x y z
#    x 1.794980 0.000000 0.000000 
#    y 0.000000 1.809050 0.000000 
#    z 0.000000 0.000000 1.817650 
# 
# From -- ./inp_files/23579.got.cif
#   From: 2010.05.17/outbox.cif.g08.bks.cpg/sg69_12_cif.got.tgz:23579.got - 2010.06.03 19:29:58.
