data_PCOD9513348
_publ_section_title
;
Structure prediction by ZEFSAII (Michael W. Deem and Ramdas Pophale) SiO2 
 PCOD9513348
Probable space group: F M M M
;
_chemical_formula_sum "Si O2"
_cell_formula_units_Z 144
_cell_length_a 9.129914
_cell_length_b 27.669560
_cell_length_c 27.087838
_cell_angle_alpha 90.000000
_cell_angle_beta 90.000000
_cell_angle_gamma 90.000000
_cell_volume 6842.948684
_symmetry_space_group_name_H-M "F M M M"
_symmetry_group_IT_number 69
_symmetry_cell_setting 'orthorhombic'
loop_
_space_group_symop_operation_xyz
x,y,z
-x,-y,z
x,-y,-z
-x,y,-z
-x,-y,-z
x,y,-z
-x,y,z
x,-y,z
x,1/2+y,1/2+z
-x,1/2-y,1/2+z
x,1/2-y,1/2-z
-x,1/2+y,1/2-z
-x,1/2-y,1/2-z
x,1/2+y,1/2-z
-x,1/2+y,1/2+z
x,1/2-y,1/2+z
1/2+x,y,1/2+z
1/2-x,-y,1/2+z
1/2+x,-y,1/2-z
1/2-x,y,1/2-z
1/2-x,-y,1/2-z
1/2+x,y,1/2-z
1/2-x,y,1/2+z
1/2+x,-y,1/2+z
1/2+x,1/2+y,z
1/2-x,1/2-y,z
1/2+x,1/2-y,-z
1/2-x,1/2+y,-z
1/2-x,1/2-y,-z
1/2+x,1/2+y,-z
1/2-x,1/2+y,z
1/2+x,1/2-y,z
loop_
_atom_site_type_symbol
_atom_site_label
_atom_site_fract_x
_atom_site_fract_y
_atom_site_fract_z
Si Si1 0.823626 0.051805 0.196022
Si Si2 0.324069 0.701700 0.095560
Si Si3 0.667199 0.000000 0.939433
Si Si4 0.675178 0.840980 0.697238
Si Si5 0.833462 0.597241 0.440766
O O1 0.750000 0.051611 0.250000
O O2 0.784775 0.105134 0.176925
O O3 0.000000 0.051442 0.200442
O O4 0.780829 0.000000 0.172867
O O5 0.500000 0.704911 0.089922
O O6 0.250000 0.750000 0.075643
O O7 0.287979 0.695639 0.153650
O O8 0.276838 0.650741 0.071732
O O9 0.745541 0.950076 0.924578
O O10 0.500000 0.000000 0.922704
O O11 0.667812 0.000000 0.000000
O O12 0.500000 0.839928 0.704386
O O13 0.750000 0.832788 0.750000
O O14 0.841096 0.594559 0.500000
O O15 0.000000 0.593460 0.420716
#
# Coordination Sequence:
#
# PCOD9513348 Si02
#       5
#    32  32  16  32  32
#     4   8  13  23  41  64  89 118 152 195 246 301
#     4  10  22  38  54  77 107 142 185 232 276 323
#     4   9  17  31  55  87 118 145 176 217 266 321
#     4   9  18  33  51  73 100 133 177 222 270 321
#     4   9  18  35  58  83 112 146 182 219 266 326
#
# _framework density 21.043558999999998
#
# number of rings (size 3 to 8) (size 9 to 14) (size 15 to 20)
#    0.000    3.000    0.000    0.333    0.000    4.000 
#    2.000    2.222    0.000    0.000    0.000    0.000 
#    0.000    0.000    0.000    0.000    0.000    0.000 
#
# Total GULP energy -200712.188833 kJ/mol
# GULP energy per Si atom -5575.338579 kJ/mol
# Density = 2.099566 g / cm^3
# Si number density = 21.043559 Si / 1000 Ang^3
#
#
#
# Elastic Constant Matrix: (Units=GPa)
#
#
# Indices 1 2 3 4 5 6 
#
# 1 40.3253 69.5456 18.5329 0.0000 0.0000 0.0000
# 2 69.5456 198.3693 25.9815 0.0000 0.0000 0.0000
# 3 18.5329 25.9815 46.6260 0.0000 0.0000 0.0000
# 4 0.0000 0.0000 0.0000 26.6583 0.0000 0.0000
# 5 0.0000 0.0000 0.0000 0.0000 13.1064 0.0000
# 6 0.0000 0.0000 0.0000 0.0000 0.0000 24.3597
#
#
#
# Elastic Compliance Matrix: (Units=1/GPa)
#
#
# Indices 1 2 3 4 5 6 
#
# 1 0.072001 -0.023186 -0.015699 0.000000 0.000000 0.000000
# 2 -0.023186 0.012905 0.002025 0.000000 0.000000 0.000000
# 3 -0.015699 0.002025 0.026559 0.000000 0.000000 0.000000
# 4 0.000000 0.000000 0.000000 0.037512 0.000000 0.000000
# 5 0.000000 0.000000 0.000000 0.000000 0.076299 0.000000
# 6 0.000000 0.000000 0.000000 0.000000 0.000000 0.041051
#
#
# Mechanical properties :
#
#
# Convention : Reuss Voigt Hill
#
# Bulk Modulus (GPa) = 26.49398 57.04895 41.77146
# Shear Modulus (GPa) = 14.17926 24.24224 19.21075
#
# Velocity S-wave (km/s) = 2.59859 3.39780 3.02471
# Velocity P-wave (km/s) = 4.64984 6.52397 5.66494
#
# Compressibility (1/GPa) = 0.03774443
#
# Stress axis : x y z
#
# Youngs Moduli (GPa) = 13.88871 77.49124 37.65242
#
# Poissons Ratio (x) = 1.79674 0.59110
# Poissons Ratio (y) = 0.32203 -0.07626
# Poissons Ratio (z) = 0.21804 -0.15694
#
# Static dielectric constant tensor:
#      x y z
#    x 1.716360 0.000000 0.000000 
#    y 0.000000 1.781810 0.000000 
#    z 0.000000 0.000000 1.797610 
# 
# From -- ./inp_files/44543.got.cif
#   From: 2010.05.17/outbox.cif.g08.bks.cpg/sg69_23_cif.got.tgz:44543.got - 2010.06.03 19:29:58.
