data_PCOD9513091
_publ_section_title
;
Structure prediction by ZEFSAII (Michael W. Deem and Ramdas Pophale) SiO2 
 PCOD9513091
Probable space group: F M M M
;
_chemical_formula_sum "Si O2"
_cell_formula_units_Z 176
_cell_length_a 11.144415
_cell_length_b 31.292892
_cell_length_c 25.249535
_cell_angle_alpha 90.000000
_cell_angle_beta 90.000000
_cell_angle_gamma 90.000000
_cell_volume 8805.547454
_symmetry_space_group_name_H-M "F M M M"
_symmetry_group_IT_number 69
_symmetry_cell_setting 'orthorhombic'
loop_
_space_group_symop_operation_xyz
x,y,z
-x,-y,z
x,-y,-z
-x,y,-z
-x,-y,-z
x,y,-z
-x,y,z
x,-y,z
x,1/2+y,1/2+z
-x,1/2-y,1/2+z
x,1/2-y,1/2-z
-x,1/2+y,1/2-z
-x,1/2-y,1/2-z
x,1/2+y,1/2-z
-x,1/2+y,1/2+z
x,1/2-y,1/2+z
1/2+x,y,1/2+z
1/2-x,-y,1/2+z
1/2+x,-y,1/2-z
1/2-x,y,1/2-z
1/2-x,-y,1/2-z
1/2+x,y,1/2-z
1/2-x,y,1/2+z
1/2+x,-y,1/2+z
1/2+x,1/2+y,z
1/2-x,1/2-y,z
1/2+x,1/2-y,-z
1/2-x,1/2+y,-z
1/2-x,1/2-y,-z
1/2+x,1/2+y,-z
1/2-x,1/2+y,z
1/2+x,1/2-y,z
loop_
_atom_site_type_symbol
_atom_site_label
_atom_site_fract_x
_atom_site_fract_y
_atom_site_fract_z
Si Si1 0.360553 0.885897 0.000000
Si Si2 0.132971 0.173221 0.113501
Si Si3 0.138194 0.551413 0.212979
Si Si4 0.000000 0.551078 0.438335
Si Si5 0.749914 0.914509 0.393557
Si Si6 0.368801 0.202499 0.273803
Si Si7 0.791761 0.201227 0.000000
O O1 0.320466 0.911957 0.051469
O O2 0.300884 0.838682 0.000000
O O3 0.500000 0.879428 0.000000
O O4 0.225589 0.134957 0.120976
O O5 0.145254 0.204777 0.162892
O O6 0.000000 0.154030 0.117053
O O7 0.142591 0.194022 0.055919
O O8 0.134736 0.500000 0.218295
O O9 0.250000 0.566658 0.250000
O O10 0.178476 0.563178 0.153419
O O11 0.000000 0.566474 0.224226
O O12 0.120449 0.565294 0.407895
O O13 0.000000 0.500000 0.441207
O O14 0.000000 0.567996 0.500000
O O15 0.500000 0.182447 0.262598
O O16 0.372782 0.250000 0.250000
O O17 0.250000 0.180873 0.250000
O O18 0.750000 0.250000 0.000000
#
# Coordination Sequence:
#
# PCOD9513091 Si02
#       7
#    16  32  32  16  32  32  16
#     4  10  22  40  61  88 128 168 203 250 318 383
#     4  10  21  37  60  88 117 160 201 251 316 372
#     4  10  23  42  64  92 127 169 215 265 321 377
#     4  11  22  36  62  98 127 160 208 261 318 381
#     4  11  21  39  63  90 128 162 209 258 317 380
#     4   9  19  36  58  81 112 151 197 245 299 355
#     4  10  23  37  60  88 119 157 208 260 310 380
#
# _framework density 19.987400000000001
#
# number of rings (size 3 to 8) (size 9 to 14) (size 15 to 20)
#    0.000    1.909    1.818    1.364    3.818    1.455 
#    0.000    6.364    0.000    2.182    0.000    0.000 
#    0.000    0.000    0.000    0.000    0.000    0.000 
#
# Total GULP energy -245214.592294 kJ/mol
# GULP energy per Si atom -5573.058916 kJ/mol
# Density = 1.994191 g / cm^3
# Si number density = 19.987400 Si / 1000 Ang^3
#
#
#
# Elastic Constant Matrix: (Units=GPa)
#
#
# Indices 1 2 3 4 5 6 
#
# 1 160.2180 7.0548 74.3743 0.0000 0.0000 0.0000
# 2 7.0548 36.7545 23.0922 0.0000 0.0000 0.0000
# 3 74.3743 23.0922 136.7619 0.0000 0.0000 0.0000
# 4 0.0000 0.0000 0.0000 4.1765 0.0000 0.0000
# 5 0.0000 0.0000 0.0000 0.0000 30.6074 0.0000
# 6 0.0000 0.0000 0.0000 0.0000 0.0000 10.8060
#
#
#
# Elastic Compliance Matrix: (Units=1/GPa)
#
#
# Indices 1 2 3 4 5 6 
#
# 1 0.008414 0.001409 -0.004814 0.000000 0.000000 0.000000
# 2 0.001409 0.030672 -0.005945 0.000000 0.000000 0.000000
# 3 -0.004814 -0.005945 0.010934 0.000000 0.000000 0.000000
# 4 0.000000 0.000000 0.000000 0.239433 0.000000 0.000000
# 5 0.000000 0.000000 0.000000 0.000000 0.032672 0.000000
# 6 0.000000 0.000000 0.000000 0.000000 0.000000 0.092541
#
#
# Mechanical properties :
#
#
# Convention : Reuss Voigt Hill
#
# Bulk Modulus (GPa) = 31.92798 60.30857 46.11828
# Shear Modulus (GPa) = 11.26618 24.39886 17.83252
#
# Velocity S-wave (km/s) = 2.37674 3.49766 2.99019
# Velocity P-wave (km/s) = 4.85186 6.82278 5.91992
#
# Compressibility (1/GPa) = 0.03132049
#
# Stress axis : x y z
#
# Youngs Moduli (GPa) = 118.84967 32.60252 91.46060
#
# Poissons Ratio (x) = -0.04595 0.44026
# Poissons Ratio (y) = -0.16750 0.54378
# Poissons Ratio (z) = 0.57211 0.19384
#
# Static dielectric constant tensor:
#      x y z
#    x 1.749890 0.000000 0.000000 
#    y 0.000000 1.690630 0.000000 
#    z 0.000000 0.000000 1.709630 
# 
# From -- ./inp_files/35286.got.cif
#   From: 2010.05.17/outbox.cif.g08.bks.cpg/sg69_18_cif.got.tgz:35286.got - 2010.06.03 19:29:58.
