data_PCOD9513175
_publ_section_title
;
Structure prediction by ZEFSAII (Michael W. Deem and Ramdas Pophale) SiO2 
 PCOD9513175
Probable space group: F M M M
;
_chemical_formula_sum "Si O2"
_cell_formula_units_Z 192
_cell_length_a 15.519670
_cell_length_b 22.945378
_cell_length_c 28.196866
_cell_angle_alpha 90.000000
_cell_angle_beta 90.000000
_cell_angle_gamma 90.000000
_cell_volume 10041.036355
_symmetry_space_group_name_H-M "F M M M"
_symmetry_group_IT_number 69
_symmetry_cell_setting 'orthorhombic'
loop_
_space_group_symop_operation_xyz
x,y,z
-x,-y,z
x,-y,-z
-x,y,-z
-x,-y,-z
x,y,-z
-x,y,z
x,-y,z
x,1/2+y,1/2+z
-x,1/2-y,1/2+z
x,1/2-y,1/2-z
-x,1/2+y,1/2-z
-x,1/2-y,1/2-z
x,1/2+y,1/2-z
-x,1/2+y,1/2+z
x,1/2-y,1/2+z
1/2+x,y,1/2+z
1/2-x,-y,1/2+z
1/2+x,-y,1/2-z
1/2-x,y,1/2-z
1/2-x,-y,1/2-z
1/2+x,y,1/2-z
1/2-x,y,1/2+z
1/2+x,-y,1/2+z
1/2+x,1/2+y,z
1/2-x,1/2-y,z
1/2+x,1/2-y,-z
1/2-x,1/2+y,-z
1/2-x,1/2-y,-z
1/2+x,1/2+y,-z
1/2-x,1/2+y,z
1/2+x,1/2-y,z
loop_
_atom_site_type_symbol
_atom_site_label
_atom_site_fract_x
_atom_site_fract_y
_atom_site_fract_z
Si Si1 0.822342 0.146276 0.648573
Si Si2 0.851540 0.066685 0.733920
Si Si3 0.594721 0.250677 0.806951
Si Si4 0.227729 0.500000 0.054604
Si Si5 0.601554 0.109586 0.945345
Si Si6 0.874748 0.381364 0.332355
Si Si7 0.907391 0.500000 0.610545
O O1 0.865228 0.099492 0.684554
O O2 0.833093 0.208688 0.672535
O O3 0.867049 0.149945 0.597480
O O4 0.723657 0.125748 0.649711
O O5 0.750000 0.066333 0.750000
O O6 0.890608 0.101060 0.777716
O O7 0.879748 0.000000 0.731265
O O8 0.500000 0.224288 0.816268
O O9 0.605871 0.250000 0.750000
O O10 0.594862 0.314196 0.831427
O O11 0.164753 0.445293 0.061814
O O12 0.315427 0.500000 0.084160
O O13 0.254877 0.500000 0.000000
O O14 0.500000 0.095299 0.940298
O O15 0.613138 0.130265 0.000000
O O16 0.906929 0.438958 0.360115
O O17 0.000000 0.500000 0.583775
#
# Coordination Sequence:
#
# PCOD9513175 Si02
#       7
#    32  32  32  16  32  32  16
#     4  11  21  35  63  87 118 161 210 254 312 371
#     4   9  18  30  52  83 119 159 202 245 295 362
#     4  11  23  38  55  84 125 167 215 262 303 365
#     4  10  21  41  65  90 121 160 205 256 313 369
#     4  10  21  38  62  93 126 159 201 256 316 375
#     4  11  21  38  59  85 123 164 206 252 303 369
#     4  12  24  40  63  92 125 166 206 252 310 364
#
# _framework density 19.121531999999998
#
# number of rings (size 3 to 8) (size 9 to 14) (size 15 to 20)
#    0.000    1.500    4.167    1.750    2.333    1.833 
#    0.000    0.000    0.000    3.000    0.000    0.000 
#    0.000    0.000    0.000    0.000    0.000    0.000 
#
# Total GULP energy -267294.262311 kJ/mol
# GULP energy per Si atom -5568.630465 kJ/mol
# Density = 1.907801 g / cm^3
# Si number density = 19.121532 Si / 1000 Ang^3
#
#
#
# Elastic Constant Matrix: (Units=GPa)
#
#
# Indices 1 2 3 4 5 6 
#
# 1 109.9903 27.5129 47.2991 0.0000 0.0000 0.0000
# 2 27.5129 100.0917 14.3182 0.0000 0.0000 0.0000
# 3 47.2991 14.3182 77.8070 0.0000 0.0000 0.0000
# 4 0.0000 0.0000 0.0000 13.2841 0.0000 0.0000
# 5 0.0000 0.0000 0.0000 0.0000 7.0639 0.0000
# 6 0.0000 0.0000 0.0000 0.0000 0.0000 -19.7538
#
#
#
# Elastic Compliance Matrix: (Units=1/GPa)
#
#
# Indices 1 2 3 4 5 6 
#
# 1 0.012885 -0.002487 -0.007375 0.000000 0.000000 0.000000
# 2 -0.002487 0.010741 -0.000465 0.000000 0.000000 0.000000
# 3 -0.007375 -0.000465 0.017421 0.000000 0.000000 0.000000
# 4 0.000000 0.000000 0.000000 0.075278 0.000000 0.000000
# 5 0.000000 0.000000 0.000000 0.000000 0.141565 0.000000
# 6 0.000000 0.000000 0.000000 0.000000 0.000000 -0.050623
#
#
# Mechanical properties :
#
#
# Convention : Reuss Voigt Hill
#
# Bulk Modulus (GPa) = 49.03512 51.79436 50.41474
# Shear Modulus (GPa) = 21.30206 13.36944 17.33575
#
# Velocity S-wave (km/s) = 3.34134 2.64707 3.01426
# Velocity P-wave (km/s) = 6.37069 6.04056 6.20782
#
# Compressibility (1/GPa) = 0.02039355
#
# Stress axis : x y z
#
# Youngs Moduli (GPa) = 77.60708 93.10207 57.40066
#
# Poissons Ratio (x) = 0.23153 0.42336
# Poissons Ratio (y) = 0.19300 0.02668
# Poissons Ratio (z) = 0.57239 0.04327
#
# Static dielectric constant tensor:
#      x y z
#    x 1.712580 0.000000 0.000000 
#    y 0.000000 1.697280 0.000000 
#    z 0.000000 0.000000 1.659790 
# 
# From -- ./inp_files/41178.got.cif
#   From: 2010.05.17/outbox.cif.g08.bks.cpg/sg69_21_cif.got.tgz:41178.got - 2010.06.03 19:29:58.
