data_PCOD9513961
_publ_section_title
;
Structure prediction by ZEFSAII (Michael W. Deem and Ramdas Pophale) SiO2 
 PCOD9513961
Probable space group: F M M M
;
_chemical_formula_sum "Si O2"
_cell_formula_units_Z 80
_cell_length_a 10.539968
_cell_length_b 23.995795
_cell_length_c 14.195779
_cell_angle_alpha 90.000000
_cell_angle_beta 90.000000
_cell_angle_gamma 90.000000
_cell_volume 3590.324189
_symmetry_space_group_name_H-M "F M M M"
_symmetry_group_IT_number 69
_symmetry_cell_setting 'orthorhombic'
loop_
_space_group_symop_operation_xyz
x,y,z
-x,-y,z
x,-y,-z
-x,y,-z
-x,-y,-z
x,y,-z
-x,y,z
x,-y,z
x,1/2+y,1/2+z
-x,1/2-y,1/2+z
x,1/2-y,1/2-z
-x,1/2+y,1/2-z
-x,1/2-y,1/2-z
x,1/2+y,1/2-z
-x,1/2+y,1/2+z
x,1/2-y,1/2+z
1/2+x,y,1/2+z
1/2-x,-y,1/2+z
1/2+x,-y,1/2-z
1/2-x,y,1/2-z
1/2-x,-y,1/2-z
1/2+x,y,1/2-z
1/2-x,y,1/2+z
1/2+x,-y,1/2+z
1/2+x,1/2+y,z
1/2-x,1/2-y,z
1/2+x,1/2-y,-z
1/2-x,1/2+y,-z
1/2-x,1/2-y,-z
1/2+x,1/2+y,-z
1/2-x,1/2+y,z
1/2+x,1/2-y,z
loop_
_atom_site_type_symbol
_atom_site_label
_atom_site_fract_x
_atom_site_fract_y
_atom_site_fract_z
Si Si1 0.636110 0.719144 0.649045
Si Si2 0.355348 0.091631 0.114375
Si Si3 0.147953 0.000000 0.114509
O O1 0.500000 0.725834 0.603107
O O2 0.627552 0.750000 0.750000
O O3 0.750000 0.750000 0.599476
O O4 0.659325 0.653391 0.655838
O O5 0.500000 0.071683 0.138025
O O6 0.237209 0.052478 0.141377
O O7 0.352518 0.095904 0.000000
O O8 0.000000 0.000000 0.146833
O O9 0.142327 0.000000 0.000000
#
# Coordination Sequence:
#
# PCOD9513961 Si02
#       3
#    32  32  16
#     4   9  18  32  49  69  96 131 168 205 246 291
#     4   9  17  30  49  73 101 133 166 199 241 295
#     4   9  17  29  47  74 105 132 160 200 248 294
#
# _framework density 22.282108999999998
#
# number of rings (size 3 to 8) (size 9 to 14) (size 15 to 20)
#    0.000    3.000    0.000    0.600    0.000    4.800 
#    0.000    0.000    0.000    4.800    0.000    2.800 
#    0.000    0.000    0.000    0.000    0.000    4.000 
#
# Total GULP energy -111471.693998 kJ/mol
# GULP energy per Si atom -5573.584700 kJ/mol
# Density = 2.223139 g / cm^3
# Si number density = 22.282109 Si / 1000 Ang^3
#
#
#
# Elastic Constant Matrix: (Units=GPa)
#
#
# Indices 1 2 3 4 5 6 
#
# 1 285.8635 134.5252 23.5522 0.0000 0.0000 0.0000
# 2 134.5252 171.7768 34.2007 0.0000 0.0000 0.0000
# 3 23.5522 34.2007 101.4512 0.0000 0.0000 0.0000
# 4 0.0000 0.0000 0.0000 30.2657 0.0000 0.0000
# 5 0.0000 0.0000 0.0000 0.0000 -31.4916 0.0000
# 6 0.0000 0.0000 0.0000 0.0000 0.0000 42.4021
#
#
#
# Elastic Compliance Matrix: (Units=1/GPa)
#
#
# Indices 1 2 3 4 5 6 
#
# 1 0.005543 -0.004379 0.000189 0.000000 0.000000 0.000000
# 2 -0.004379 0.009699 -0.002253 0.000000 0.000000 0.000000
# 3 0.000189 -0.002253 0.010573 0.000000 0.000000 0.000000
# 4 0.000000 0.000000 0.000000 0.033041 0.000000 0.000000
# 5 0.000000 0.000000 0.000000 0.000000 -0.031755 0.000000
# 6 0.000000 0.000000 0.000000 0.000000 0.000000 0.023584
#
#
# Mechanical properties :
#
#
# Convention : Reuss Voigt Hill
#
# Bulk Modulus (GPa) = 77.34154 104.84973 91.09563
# Shear Modulus (GPa) = 73.65892 32.68947 53.17419
#
# Velocity S-wave (km/s) = 5.75580 3.83439 4.89039
# Velocity P-wave (km/s) = 8.88582 8.17075 8.53578
#
# Compressibility (1/GPa) = 0.01292966
#
# Stress axis : x y z
#
# Youngs Moduli (GPa) = 180.40111 103.09994 94.58396
#
# Poissons Ratio (x) = 0.45145 -0.01790
# Poissons Ratio (y) = 0.78994 0.21312
# Poissons Ratio (z) = -0.03415 0.23231
#
# Static dielectric constant tensor:
#      x y z
#    x 1.913500 0.000000 0.000000 
#    y 0.000000 1.783890 0.000000 
#    z 0.000000 0.000000 1.820570 
# 
# From -- ./inp_files/7829.got.cif
#   From: 2010.05.17/outbox.cif.g08.bks.cpg/sg69_4_cif.got.tgz:7829.got - 2010.06.03 19:29:58.
