data_PCOD9513038
_publ_section_title
;
Structure prediction by ZEFSAII (Michael W. Deem and Ramdas Pophale) SiO2 
 PCOD9513038
Probable space group: F M M M
;
_chemical_formula_sum "Si O2"
_cell_formula_units_Z 112
_cell_length_a 26.154961
_cell_length_b 8.810697
_cell_length_c 29.433712
_cell_angle_alpha 90.000000
_cell_angle_beta 90.000000
_cell_angle_gamma 90.000000
_cell_volume 6782.805740
_symmetry_space_group_name_H-M "F M M M"
_symmetry_group_IT_number 69
_symmetry_cell_setting 'orthorhombic'
loop_
_space_group_symop_operation_xyz
x,y,z
-x,-y,z
x,-y,-z
-x,y,-z
-x,-y,-z
x,y,-z
-x,y,z
x,-y,z
x,1/2+y,1/2+z
-x,1/2-y,1/2+z
x,1/2-y,1/2-z
-x,1/2+y,1/2-z
-x,1/2-y,1/2-z
x,1/2+y,1/2-z
-x,1/2+y,1/2+z
x,1/2-y,1/2+z
1/2+x,y,1/2+z
1/2-x,-y,1/2+z
1/2+x,-y,1/2-z
1/2-x,y,1/2-z
1/2-x,-y,1/2-z
1/2+x,y,1/2-z
1/2-x,y,1/2+z
1/2+x,-y,1/2+z
1/2+x,1/2+y,z
1/2-x,1/2-y,z
1/2+x,1/2-y,-z
1/2-x,1/2+y,-z
1/2-x,1/2-y,-z
1/2+x,1/2+y,-z
1/2-x,1/2+y,z
1/2+x,1/2-y,z
loop_
_atom_site_type_symbol
_atom_site_label
_atom_site_fract_x
_atom_site_fract_y
_atom_site_fract_z
Si Si1 0.401735 0.182672 0.104666
Si Si2 0.500000 0.181641 0.446139
Si Si3 0.559608 0.182330 0.797690
Si Si4 0.194543 0.681425 0.446605
O O1 0.449857 0.247672 0.076858
O O2 0.409636 0.227348 0.157389
O O3 0.349986 0.246844 0.083417
O O4 0.402415 0.000000 0.101980
O O5 0.500000 0.212342 0.500000
O O6 0.500000 0.000000 0.439711
O O7 0.500000 0.228676 0.803900
O O8 0.577818 0.250000 0.750000
O O9 0.560535 0.000000 0.794664
O O10 0.184378 0.714892 0.500000
O O11 0.195391 0.500000 0.441287
O O12 0.250000 0.750000 0.435542
#
# Coordination Sequence:
#
# PCOD9513038 Si02
#       4
#    32  16  32  32
#     4  11  21  35  54  78 108 140 175 217 266 317
#     4  11  23  35  48  73 108 143 178 215 258 313
#     4   9  18  33  51  75 105 137 175 215 258 313
#     4  10  21  37  56  79 106 139 181 222 261 310
#
# _framework density 16.512340999999999
#
# number of rings (size 3 to 8) (size 9 to 14) (size 15 to 20)
#    0.000    1.857    1.429    3.000    0.000    8.571 
#    0.000    0.000    0.000    0.857    0.000    6.000 
#    0.000    0.000    0.000    0.000    0.000    0.000 
#
# Total GULP energy -156346.213507 kJ/mol
# GULP energy per Si atom -5583.793340 kJ/mol
# Density = 1.647476 g / cm^3
# Si number density = 16.512341 Si / 1000 Ang^3
#
#
#
# Elastic Constant Matrix: (Units=GPa)
#
#
# Indices 1 2 3 4 5 6 
#
# 1 137.2308 54.6832 107.5151 0.0000 0.0000 0.0000
# 2 54.6832 56.3050 69.1694 0.0000 0.0000 -0.0001
# 3 107.5151 69.1694 162.7453 0.0000 0.0000 0.0000
# 4 0.0000 0.0000 0.0000 29.8887 0.0000 0.0000
# 5 0.0000 0.0000 0.0000 0.0000 13.3346 0.0000
# 6 0.0000 -0.0001 0.0000 0.0000 0.0000 32.6747
#
#
#
# Elastic Compliance Matrix: (Units=1/GPa)
#
#
# Indices 1 2 3 4 5 6 
#
# 1 0.015823 -0.005285 -0.008207 0.000000 0.000000 0.000000
# 2 -0.005285 0.038931 -0.013055 0.000000 0.000000 0.000000
# 3 -0.008207 -0.013055 0.017115 0.000000 0.000000 0.000000
# 4 0.000000 0.000000 0.000000 0.033457 0.000000 0.000000
# 5 0.000000 0.000000 0.000000 0.000000 0.074993 0.000000
# 6 0.000000 0.000000 0.000000 0.000000 0.000000 0.030605
#
#
# Mechanical properties :
#
#
# Convention : Reuss Voigt Hill
#
# Bulk Modulus (GPa) = 53.26245 91.00183 72.13214
# Shear Modulus (GPa) = 18.49977 23.50718 21.00348
#
# Velocity S-wave (km/s) = 3.35081 3.77717 3.57036
# Velocity P-wave (km/s) = 6.87726 8.61706 7.79585
#
# Compressibility (1/GPa) = 0.01877495
#
# Stress axis : x y z
#
# Youngs Moduli (GPa) = 63.20070 25.68678 58.42966
#
# Poissons Ratio (x) = 0.13576 0.47951
# Poissons Ratio (y) = 0.33402 0.76277
# Poissons Ratio (z) = 0.51867 0.33533
#
# Static dielectric constant tensor:
#      x y z
#    x 1.520480 0.000000 0.000000 
#    y 0.000000 1.552520 0.000000 
#    z 0.000000 0.000000 1.551070 
# 
# From -- ./inp_files/3685.got.cif
#   From: 2010.05.17/outbox.cif.g08.bks.cpg/sg69_2_cif.got.tgz:3685.got - 2010.06.03 19:29:58.
