data_PCOD9513764
_publ_section_title
;
Structure prediction by ZEFSAII (Michael W. Deem and Ramdas Pophale) SiO2 
 PCOD9513764
Probable space group: F M M M
;
_chemical_formula_sum "Si O2"
_cell_formula_units_Z 160
_cell_length_a 22.189240
_cell_length_b 21.871277
_cell_length_c 17.091639
_cell_angle_alpha 90.000000
_cell_angle_beta 90.000000
_cell_angle_gamma 90.000000
_cell_volume 8294.692295
_symmetry_space_group_name_H-M "F M M M"
_symmetry_group_IT_number 69
_symmetry_cell_setting 'orthorhombic'
loop_
_space_group_symop_operation_xyz
x,y,z
-x,-y,z
x,-y,-z
-x,y,-z
-x,-y,-z
x,y,-z
-x,y,z
x,-y,z
x,1/2+y,1/2+z
-x,1/2-y,1/2+z
x,1/2-y,1/2-z
-x,1/2+y,1/2-z
-x,1/2-y,1/2-z
x,1/2+y,1/2-z
-x,1/2+y,1/2+z
x,1/2-y,1/2+z
1/2+x,y,1/2+z
1/2-x,-y,1/2+z
1/2+x,-y,1/2-z
1/2-x,y,1/2-z
1/2-x,-y,1/2-z
1/2+x,y,1/2-z
1/2-x,y,1/2+z
1/2+x,-y,1/2+z
1/2+x,1/2+y,z
1/2-x,1/2-y,z
1/2+x,1/2-y,-z
1/2-x,1/2+y,-z
1/2-x,1/2-y,-z
1/2+x,1/2+y,-z
1/2-x,1/2+y,z
1/2+x,1/2-y,z
loop_
_atom_site_type_symbol
_atom_site_label
_atom_site_fract_x
_atom_site_fract_y
_atom_site_fract_z
Si Si1 0.124339 0.375401 0.851574
Si Si2 0.500000 0.070250 0.906541
Si Si3 0.757014 0.928503 0.413568
Si Si4 0.179586 0.253355 0.654863
Si Si5 0.571742 0.500000 0.093883
Si Si6 0.355980 0.114790 0.333161
O O1 0.058892 0.394807 0.878043
O O2 0.174082 0.417368 0.892978
O O3 0.143947 0.306464 0.872028
O O4 0.129425 0.383741 0.758283
O O5 0.500000 0.000000 0.877237
O O6 0.500000 0.068379 0.000000
O O7 0.742792 0.902801 0.500000
O O8 0.714012 0.901221 0.347886
O O9 0.744475 0.000000 0.415869
O O10 0.181767 0.250000 0.750000
O O11 0.250000 0.250000 0.628491
O O12 0.143632 0.315539 0.634794
O O13 0.500000 0.500000 0.112860
O O14 0.604244 0.561497 0.126772
O O15 0.578266 0.500000 0.000000
#
# Coordination Sequence:
#
# PCOD9513764 Si02
#       6
#    32  16  32  32  16  32
#     4  11  23  39  66  93 123 166 221 257 305 384
#     4  11  26  46  63  88 134 171 200 257 323 375
#     4  11  22  36  57  90 131 163 202 264 330 376
#     4   9  18  38  61  94 130 159 197 267 323 365
#     4  11  26  46  63  88 132 171 212 271 331 381
#     4  11  22  38  67  92 122 161 212 265 317 369
#
# _framework density 19.289442999999999
#
# number of rings (size 3 to 8) (size 9 to 14) (size 15 to 20)
#    0.000    1.400    3.000    2.400    4.200    2.400 
#    1.800    6.500    0.000    0.000    0.000    0.000 
#    0.000    0.000    0.000    0.000    0.000    0.000 
#
# Total GULP energy -223303.279384 kJ/mol
# GULP energy per Si atom -5582.581985 kJ/mol
# Density = 1.924554 g / cm^3
# Si number density = 19.289443 Si / 1000 Ang^3
#
#
#
# Elastic Constant Matrix: (Units=GPa)
#
#
# Indices 1 2 3 4 5 6 
#
# 1 150.1330 55.8550 36.7585 0.0000 0.0000 0.0000
# 2 55.8550 127.0987 34.9403 0.0000 0.0000 0.0000
# 3 36.7585 34.9403 55.5381 0.0000 0.0000 0.0000
# 4 0.0000 0.0000 0.0000 1090.7601 0.0000 0.0000
# 5 0.0000 0.0000 0.0000 0.0000 17.2687 0.0000
# 6 0.0000 0.0000 0.0000 0.0000 0.0000 27.4925
#
#
#
# Elastic Compliance Matrix: (Units=1/GPa)
#
#
# Indices 1 2 3 4 5 6 
#
# 1 0.008650 -0.002693 -0.004030 0.000000 0.000000 0.000000
# 2 -0.002693 0.010352 -0.004730 0.000000 0.000000 0.000000
# 3 -0.004030 -0.004730 0.023649 0.000000 0.000000 0.000000
# 4 0.000000 0.000000 0.000000 0.000917 0.000000 0.000000
# 5 0.000000 0.000000 0.000000 0.000000 0.057908 0.000000
# 6 0.000000 0.000000 0.000000 0.000000 0.000000 0.036374
#
#
# Mechanical properties :
#
#
# Convention : Reuss Voigt Hill
#
# Bulk Modulus (GPa) = 50.65076 65.31970 57.98523
# Shear Modulus (GPa) = 29.87977 240.78532 135.33254
#
# Velocity S-wave (km/s) = 3.94003 11.18474 8.38518
# Velocity P-wave (km/s) = 6.85666 14.16808 11.12987
#
# Compressibility (1/GPa) = 0.01974304
#
# Stress axis : x y z
#
# Youngs Moduli (GPa) = 115.61324 96.60207 42.28496
#
# Poissons Ratio (x) = 0.26016 0.17043
# Poissons Ratio (y) = 0.31136 0.20001
# Poissons Ratio (z) = 0.46598 0.45693
#
# Static dielectric constant tensor:
#      x y z
#    x 1.635730 0.000000 0.000000 
#    y 0.000000 1.703930 0.000000 
#    z 0.000000 0.000000 1.686060 
# 
# From -- ./inp_files/24643.got.cif
#   From: 2010.05.17/outbox.cif.g08.bks.cpg/sg69_13_cif.got.tgz:24643.got - 2010.06.03 19:29:58.
