data_PCOD9513213
_publ_section_title
;
Structure prediction by ZEFSAII (Michael W. Deem and Ramdas Pophale) SiO2 
 PCOD9513213
Probable space group: F M M M
;
_chemical_formula_sum "Si O2"
_cell_formula_units_Z 176
_cell_length_a 27.578654
_cell_length_b 18.586116
_cell_length_c 17.100015
_cell_angle_alpha 90.000000
_cell_angle_beta 90.000000
_cell_angle_gamma 90.000000
_cell_volume 8765.126755
_symmetry_space_group_name_H-M "F M M M"
_symmetry_group_IT_number 69
_symmetry_cell_setting 'orthorhombic'
loop_
_space_group_symop_operation_xyz
x,y,z
-x,-y,z
x,-y,-z
-x,y,-z
-x,-y,-z
x,y,-z
-x,y,z
x,-y,z
x,1/2+y,1/2+z
-x,1/2-y,1/2+z
x,1/2-y,1/2-z
-x,1/2+y,1/2-z
-x,1/2-y,1/2-z
x,1/2+y,1/2-z
-x,1/2+y,1/2+z
x,1/2-y,1/2+z
1/2+x,y,1/2+z
1/2-x,-y,1/2+z
1/2+x,-y,1/2-z
1/2-x,y,1/2-z
1/2-x,-y,1/2-z
1/2+x,y,1/2-z
1/2-x,y,1/2+z
1/2+x,-y,1/2+z
1/2+x,1/2+y,z
1/2-x,1/2-y,z
1/2+x,1/2-y,-z
1/2-x,1/2+y,-z
1/2-x,1/2-y,-z
1/2+x,1/2+y,-z
1/2-x,1/2+y,z
1/2+x,1/2-y,z
loop_
_atom_site_type_symbol
_atom_site_label
_atom_site_fract_x
_atom_site_fract_y
_atom_site_fract_z
Si Si1 0.057716 0.582742 0.192707
Si Si2 0.556691 0.413887 0.000000
Si Si3 0.894426 0.649500 0.344440
Si Si4 0.276402 0.320739 0.408095
Si Si5 0.385831 0.191423 0.093914
Si Si6 0.711884 0.585096 0.180463
O O1 0.075263 0.500000 0.193930
O O2 0.074211 0.622620 0.271605
O O3 0.079651 0.627721 0.121413
O O4 0.000000 0.582133 0.188401
O O5 0.585114 0.387639 0.923070
O O6 0.555912 0.500000 0.000000
O O7 0.500000 0.388910 0.000000
O O8 0.897531 0.734200 0.362237
O O9 0.839177 0.626192 0.324629
O O10 0.281145 0.308186 0.500000
O O11 0.250000 0.250000 0.373551
O O12 0.331188 0.328960 0.380067
O O13 0.242824 0.389004 0.393653
O O14 0.388112 0.202264 0.000000
O O15 0.702771 0.500000 0.183629
O O16 0.750000 0.603935 0.250000
#
# Coordination Sequence:
#
# PCOD9513213 Si02
#       6
#    32  16  32  32  32  32
#     4  11  26  47  69  95 133 181 231 283 341 404
#     4  11  24  40  64  99 137 177 221 276 347 420
#     4  12  23  43  69  99 137 176 223 286 346 413
#     4  10  21  39  61  87 127 168 208 256 313 384
#     4  11  24  44  69 101 135 174 225 282 340 406
#     4  11  24  39  61  96 133 172 220 270 326 397
#
# _framework density 20.079571999999999
#
# number of rings (size 3 to 8) (size 9 to 14) (size 15 to 20)
#    0.000    1.000    2.727    3.818    1.273    7.273 
#    0.000    2.727    0.000    0.000    0.000    0.000 
#    0.000    0.000    0.000    0.000    0.000    0.000 
#
# Total GULP energy -245803.393869 kJ/mol
# GULP energy per Si atom -5586.440770 kJ/mol
# Density = 2.003387 g / cm^3
# Si number density = 20.079572 Si / 1000 Ang^3
#
#
#
# Elastic Constant Matrix: (Units=GPa)
#
#
# Indices 1 2 3 4 5 6 
#
# 1 110.5332 51.1301 35.2859 0.0000 0.0000 0.0000
# 2 51.1301 74.7250 46.8753 0.0000 0.0000 0.0000
# 3 35.2859 46.8753 62.1107 0.0000 0.0000 0.0000
# 4 0.0000 0.0000 0.0000 15.9497 0.0000 0.0000
# 5 0.0000 0.0000 0.0000 0.0000 53.7431 0.0000
# 6 0.0000 0.0000 0.0000 0.0000 0.0000 29.1412
#
#
#
# Elastic Compliance Matrix: (Units=1/GPa)
#
#
# Indices 1 2 3 4 5 6 
#
# 1 0.013292 -0.008276 -0.001305 0.000000 0.000000 0.000000
# 2 -0.008276 0.030567 -0.018368 0.000000 0.000000 0.000000
# 3 -0.001305 -0.018368 0.030704 0.000000 0.000000 0.000000
# 4 0.000000 0.000000 0.000000 0.062697 0.000000 0.000000
# 5 0.000000 0.000000 0.000000 0.000000 0.018607 0.000000
# 6 0.000000 0.000000 0.000000 0.000000 0.000000 0.034316
#
#
# Mechanical properties :
#
#
# Convention : Reuss Voigt Hill
#
# Bulk Modulus (GPa) = 53.57540 57.10573 55.34057
# Shear Modulus (GPa) = 19.81741 27.37197 23.59469
#
# Velocity S-wave (km/s) = 3.14497 3.69613 3.43163
# Velocity P-wave (km/s) = 6.31880 6.83495 6.58194
#
# Compressibility (1/GPa) = 0.01866528
#
# Stress axis : x y z
#
# Youngs Moduli (GPa) = 75.23242 32.71461 32.56903
#
# Poissons Ratio (x) = 0.27075 0.04251
# Poissons Ratio (y) = 0.62264 0.59821
# Poissons Ratio (z) = 0.09820 0.60089
#
# Static dielectric constant tensor:
#      x y z
#    x 1.707260 0.000000 0.000000 
#    y 0.000000 1.691170 0.000000 
#    z 0.000000 0.000000 1.732410 
# 
# From -- ./inp_files/26780.got.cif
#   From: 2010.05.17/outbox.cif.g08.bks.cpg/sg69_14_cif.got.tgz:26780.got - 2010.06.03 19:29:58.
