data_PCOD9513414
_publ_section_title
;
Structure prediction by ZEFSAII (Michael W. Deem and Ramdas Pophale) SiO2 
 PCOD9513414
Probable space group: F M M M
;
_chemical_formula_sum "Si O2"
_cell_formula_units_Z 120
_cell_length_a 18.160835
_cell_length_b 22.413803
_cell_length_c 13.149279
_cell_angle_alpha 90.000000
_cell_angle_beta 90.000000
_cell_angle_gamma 90.000000
_cell_volume 5352.458435
_symmetry_space_group_name_H-M "F M M M"
_symmetry_group_IT_number 69
_symmetry_cell_setting 'orthorhombic'
loop_
_space_group_symop_operation_xyz
x,y,z
-x,-y,z
x,-y,-z
-x,y,-z
-x,-y,-z
x,y,-z
-x,y,z
x,-y,z
x,1/2+y,1/2+z
-x,1/2-y,1/2+z
x,1/2-y,1/2-z
-x,1/2+y,1/2-z
-x,1/2-y,1/2-z
x,1/2+y,1/2-z
-x,1/2+y,1/2+z
x,1/2-y,1/2+z
1/2+x,y,1/2+z
1/2-x,-y,1/2+z
1/2+x,-y,1/2-z
1/2-x,y,1/2-z
1/2-x,-y,1/2-z
1/2+x,y,1/2-z
1/2-x,y,1/2+z
1/2+x,-y,1/2+z
1/2+x,1/2+y,z
1/2-x,1/2-y,z
1/2+x,1/2-y,-z
1/2-x,1/2+y,-z
1/2-x,1/2-y,-z
1/2+x,1/2+y,-z
1/2-x,1/2+y,z
1/2+x,1/2-y,z
loop_
_atom_site_type_symbol
_atom_site_label
_atom_site_fract_x
_atom_site_fract_y
_atom_site_fract_z
Si Si1 0.000000 0.568331 0.124140
Si Si2 0.082957 0.208524 0.123925
Si Si3 0.250000 0.000000 0.250000
Si Si4 0.208142 0.885174 0.877974
Si Si5 0.127282 0.657913 0.877369
O O1 0.072403 0.605039 0.156000
O O2 0.000000 0.500000 0.160283
O O3 0.000000 0.565840 0.000000
O O4 0.143253 0.159685 0.154313
O O5 0.101896 0.276379 0.154182
O O6 0.000000 0.193276 0.155181
O O7 0.084383 0.208654 0.000000
O O8 0.211416 0.052572 0.179782
O O9 0.287248 0.854233 0.858796
O O10 0.202482 0.894585 0.000000
O O11 0.119560 0.657627 0.000000
#
# Coordination Sequence:
#
# PCOD9513414 Si02
#       5
#    16  32   8  32  32
#     4   9  16  24  44  84 127 162 194 240 298 362
#     4   9  16  32  61  95 125 157 205 260 310 365
#     4  12  26  44  60  84 126 160 206 264 316 366
#     4  10  22  39  65  92 119 163 209 251 312 380
#     4   9  16  30  55  90 125 156 200 251 303 365
#
# _framework density 22.419606000000002
#
# number of rings (size 3 to 8) (size 9 to 14) (size 15 to 20)
#    0.000    2.533    1.333    1.200    1.867    3.200 
#    0.000    3.333    5.867    4.800    0.000    0.000 
#    0.000    0.000    0.000    0.000    0.000    0.000 
#
# Total GULP energy -167355.704919 kJ/mol
# GULP energy per Si atom -5578.523497 kJ/mol
# Density = 2.236858 g / cm^3
# Si number density = 22.419606 Si / 1000 Ang^3
#
#
#
# Elastic Constant Matrix: (Units=GPa)
#
#
# Indices 1 2 3 4 5 6 
#
# 1 214.1416 159.5494 38.5568 0.0000 0.0000 0.0000
# 2 159.5494 250.7954 65.4727 0.0000 0.0000 0.0000
# 3 38.5568 65.4727 80.0403 0.0000 0.0000 0.0000
# 4 0.0000 0.0000 0.0000 39.9743 0.0000 0.0000
# 5 0.0000 0.0000 0.0000 0.0000 31.3539 0.0000
# 6 0.0000 0.0000 0.0000 0.0000 0.0000 22.1459
#
#
#
# Elastic Compliance Matrix: (Units=1/GPa)
#
#
# Indices 1 2 3 4 5 6 
#
# 1 0.008890 -0.005770 0.000437 0.000000 0.000000 0.000000
# 2 -0.005770 0.008815 -0.004431 0.000000 0.000000 0.000000
# 3 0.000437 -0.004431 0.015908 0.000000 0.000000 0.000000
# 4 0.000000 0.000000 0.000000 0.025016 0.000000 0.000000
# 5 0.000000 0.000000 0.000000 0.000000 0.031894 0.000000
# 6 0.000000 0.000000 0.000000 0.000000 0.000000 0.045155
#
#
# Mechanical properties :
#
#
# Convention : Reuss Voigt Hill
#
# Bulk Modulus (GPa) = 70.99667 119.12614 95.06141
# Shear Modulus (GPa) = 31.26977 37.45472 34.36224
#
# Velocity S-wave (km/s) = 3.73869 4.09176 3.91920
# Velocity P-wave (km/s) = 7.09740 8.69330 7.93557
#
# Compressibility (1/GPa) = 0.01408517
#
# Stress axis : x y z
#
# Youngs Moduli (GPa) = 112.48826 113.44924 62.86290
#
# Poissons Ratio (x) = 0.65455 -0.02748
# Poissons Ratio (y) = 0.64901 0.27854
# Poissons Ratio (z) = -0.04917 0.50269
#
# Static dielectric constant tensor:
#      x y z
#    x 1.780720 0.000000 0.000000 
#    y 0.000000 1.731800 0.000000 
#    z 0.000000 0.000000 1.938840 
# 
# From -- ./inp_files/22526.got.cif
#   From: 2010.05.17/outbox.cif.g08.bks.cpg/sg69_12_cif.got.tgz:22526.got - 2010.06.03 19:29:58.
