data_PCOD9513596
_publ_section_title
;
Structure prediction by ZEFSAII (Michael W. Deem and Ramdas Pophale) SiO2 
 PCOD9513596
Probable space group: F M M M
;
_chemical_formula_sum "Si O2"
_cell_formula_units_Z 132
_cell_length_a 17.573641
_cell_length_b 18.220517
_cell_length_c 21.825225
_cell_angle_alpha 90.000000
_cell_angle_beta 90.000000
_cell_angle_gamma 90.000000
_cell_volume 6988.455042
_symmetry_space_group_name_H-M "F M M M"
_symmetry_group_IT_number 69
_symmetry_cell_setting 'orthorhombic'
loop_
_space_group_symop_operation_xyz
x,y,z
-x,-y,z
x,-y,-z
-x,y,-z
-x,-y,-z
x,y,-z
-x,y,z
x,-y,z
x,1/2+y,1/2+z
-x,1/2-y,1/2+z
x,1/2-y,1/2-z
-x,1/2+y,1/2-z
-x,1/2-y,1/2-z
x,1/2+y,1/2-z
-x,1/2+y,1/2+z
x,1/2-y,1/2+z
1/2+x,y,1/2+z
1/2-x,-y,1/2+z
1/2+x,-y,1/2-z
1/2-x,y,1/2-z
1/2-x,-y,1/2-z
1/2+x,y,1/2-z
1/2-x,y,1/2+z
1/2+x,-y,1/2+z
1/2+x,1/2+y,z
1/2-x,1/2-y,z
1/2+x,1/2-y,-z
1/2-x,1/2+y,-z
1/2-x,1/2-y,-z
1/2+x,1/2+y,-z
1/2-x,1/2+y,z
1/2+x,1/2-y,z
loop_
_atom_site_type_symbol
_atom_site_label
_atom_site_fract_x
_atom_site_fract_y
_atom_site_fract_z
Si Si1 0.584947 0.170726 0.717854
Si Si2 0.500000 0.000000 0.500000
Si Si3 0.783068 0.669211 0.617740
Si Si4 0.500000 0.910757 0.929468
Si Si5 0.659159 0.918407 0.500000
Si Si6 0.366018 0.587588 0.662323
O O1 0.500000 0.155751 0.693663
O O2 0.584917 0.250000 0.750000
O O3 0.648221 0.172743 0.665935
O O4 0.604539 0.113423 0.771523
O O5 0.569055 0.937053 0.500000
O O6 0.750000 0.750000 0.603692
O O7 0.813678 0.626560 0.558770
O O8 0.714327 0.624144 0.648222
O O9 0.426344 0.888332 0.890044
O O10 0.500000 0.000000 0.930937
O O11 0.500000 0.885144 0.000000
O O12 0.696493 0.000000 0.500000
O O13 0.360499 0.500000 0.660607
#
# Coordination Sequence:
#
# PCOD9513596 Si02
#       6
#    32   4  32  16  16  32
#     4  11  24  43  67  95 135 181 224 278 342 411
#     4   8  24  52  72  96 148 174 250 292 330 412
#     4  12  25  43  71 100 139 181 225 291 355 420
#     4   9  20  40  65  94 134 173 213 280 347 409
#     4  10  25  47  72 101 135 180 235 294 338 421
#     4  11  23  41  66 101 133 175 233 285 344 419
#
# _framework density 18.888294999999999
#
# number of rings (size 3 to 8) (size 9 to 14) (size 15 to 20)
#    0.364    0.848    3.636    1.818    3.394    2.909 
#    0.000    0.000    0.000    0.000    0.000    0.000 
#    0.000    0.000    0.000    0.000    0.000    0.000 
#
# Total GULP energy -184072.833464 kJ/mol
# GULP energy per Si atom -5577.964650 kJ/mol
# Density = 1.884530 g / cm^3
# Si number density = 18.888295 Si / 1000 Ang^3
#
#
#
# Elastic Constant Matrix: (Units=GPa)
#
#
# Indices 1 2 3 4 5 6 
#
# 1 185.2499 61.9055 74.2481 0.0000 0.0000 0.0000
# 2 61.9055 113.4088 51.2900 0.0000 0.0000 0.0000
# 3 74.2481 51.2900 119.3598 0.0000 0.0000 0.0000
# 4 0.0000 0.0000 0.0000 28.2163 0.0000 0.0000
# 5 0.0000 0.0000 0.0000 0.0000 43.2945 0.0000
# 6 0.0000 0.0000 0.0000 0.0000 0.0000 18.9720
#
#
#
# Elastic Compliance Matrix: (Units=1/GPa)
#
#
# Indices 1 2 3 4 5 6 
#
# 1 0.007739 -0.002541 -0.003722 0.000000 0.000000 0.000000
# 2 -0.002541 0.011779 -0.003481 0.000000 0.000000 0.000000
# 3 -0.003722 -0.003481 0.012189 0.000000 0.000000 0.000000
# 4 0.000000 0.000000 0.000000 0.035440 0.000000 0.000000
# 5 0.000000 0.000000 0.000000 0.000000 0.023098 0.000000
# 6 0.000000 0.000000 0.000000 0.000000 0.000000 0.052709
#
#
# Mechanical properties :
#
#
# Convention : Reuss Voigt Hill
#
# Bulk Modulus (GPa) = 81.83974 88.10063 84.97018
# Shear Modulus (GPa) = 30.02714 33.46822 31.74768
#
# Velocity S-wave (km/s) = 3.99146 4.21396 4.10422
# Velocity P-wave (km/s) = 8.04143 8.39172 8.21844
#
# Compressibility (1/GPa) = 0.01221900
#
# Stress axis : x y z
#
# Youngs Moduli (GPa) = 129.21322 84.89696 82.03992
#
# Poissons Ratio (x) = 0.21573 0.30537
# Poissons Ratio (y) = 0.32834 0.28557
# Poissons Ratio (z) = 0.48096 0.29551
#
# Static dielectric constant tensor:
#      x y z
#    x 1.646740 0.000000 0.000000 
#    y 0.000000 1.650600 0.000000 
#    z 0.000000 0.000000 1.647580 
# 
# From -- ./inp_files/29674.got.cif
#   From: 2010.05.17/outbox.cif.g08.bks.cpg/sg69_15_cif.got.tgz:29674.got - 2010.06.03 19:29:58.
