data_PCOD9513035
_publ_section_title
;
Structure prediction by ZEFSAII (Michael W. Deem and Ramdas Pophale) SiO2 
 PCOD9513035
Probable space group: F M M M
;
_chemical_formula_sum "Si O2"
_cell_formula_units_Z 176
_cell_length_a 32.263421
_cell_length_b 7.291660
_cell_length_c 31.405734
_cell_angle_alpha 90.000000
_cell_angle_beta 90.000000
_cell_angle_gamma 90.000000
_cell_volume 7388.321292
_symmetry_space_group_name_H-M "F M M M"
_symmetry_group_IT_number 69
_symmetry_cell_setting 'orthorhombic'
loop_
_space_group_symop_operation_xyz
x,y,z
-x,-y,z
x,-y,-z
-x,y,-z
-x,-y,-z
x,y,-z
-x,y,z
x,-y,z
x,1/2+y,1/2+z
-x,1/2-y,1/2+z
x,1/2-y,1/2-z
-x,1/2+y,1/2-z
-x,1/2-y,1/2-z
x,1/2+y,1/2-z
-x,1/2+y,1/2+z
x,1/2-y,1/2+z
1/2+x,y,1/2+z
1/2-x,-y,1/2+z
1/2+x,-y,1/2-z
1/2-x,y,1/2-z
1/2-x,-y,1/2-z
1/2+x,y,1/2-z
1/2-x,y,1/2+z
1/2+x,-y,1/2+z
1/2+x,1/2+y,z
1/2-x,1/2-y,z
1/2+x,1/2-y,-z
1/2-x,1/2+y,-z
1/2-x,1/2-y,-z
1/2+x,1/2+y,-z
1/2-x,1/2+y,z
1/2+x,1/2-y,z
loop_
_atom_site_type_symbol
_atom_site_label
_atom_site_fract_x
_atom_site_fract_y
_atom_site_fract_z
Si Si1 0.204297 0.218549 0.635548
Si Si2 0.047952 0.796264 0.500000
Si Si3 0.172352 0.721660 0.049364
Si Si4 0.363841 0.782064 0.797129
Si Si5 0.046910 0.276572 0.823385
Si Si6 0.582144 0.222545 0.914322
O O1 0.250000 0.250000 0.653876
O O2 0.203455 0.286339 0.586403
O O3 0.167223 0.288247 0.666140
O O4 0.198072 0.000000 0.633090
O O5 0.059079 0.708386 0.544099
O O6 0.000000 0.822542 0.500000
O O7 0.069303 0.000000 0.500000
O O8 0.174653 0.500000 0.046066
O O9 0.129203 0.766810 0.073381
O O10 0.174848 0.787391 0.000000
O O11 0.346774 0.750000 0.750000
O O12 0.411638 0.714327 0.798560
O O13 0.366694 0.000000 0.804193
O O14 0.045437 0.500000 0.821304
O O15 0.059813 0.219345 0.871328
O O16 0.000000 0.215138 0.812116
O O17 0.580093 0.000000 0.911767
#
# Coordination Sequence:
#
# PCOD9513035 Si02
#       6
#    32  16  32  32  32  32
#     4  10  21  37  56  78 105 136 171 213 261 310
#     4   9  14  16  24  52  91 126 163 203 239 283
#     4   9  15  26  46  70  99 135 171 206 249 302
#     4  10  21  37  56  78 105 136 171 213 261 310
#     4   9  16  27  45  69  99 135 171 206 249 302
#     4   9  13  20  35  58  90 130 169 203 242 291
#
# _framework density 23.821379
#
# number of rings (size 3 to 8) (size 9 to 14) (size 15 to 20)
#    0.000    2.636    2.727    0.545    0.000    4.000 
#    0.000    1.818    0.000    0.000    0.000    0.000 
#    0.000    0.000    0.000    0.000    0.000    9.455 
#
# Total GULP energy -245186.735436 kJ/mol
# GULP energy per Si atom -5572.425805 kJ/mol
# Density = 2.376716 g / cm^3
# Si number density = 23.821379 Si / 1000 Ang^3
#
#
#
# Elastic Constant Matrix: (Units=GPa)
#
#
# Indices 1 2 3 4 5 6 
#
# 1 150.6111 2.6201 58.1849 -0.0007 -0.0003 0.0034
# 2 2.6201 99.0015 -0.3084 -0.0001 0.0036 0.0122
# 3 58.1849 -0.3084 142.1810 0.0001 0.0002 -0.0011
# 4 -0.0007 -0.0001 0.0001 -5.9339 0.0001 0.0017
# 5 -0.0003 0.0036 0.0002 0.0001 63.8673 0.0007
# 6 0.0034 0.0122 -0.0011 0.0017 0.0007 -3.2392
#
#
#
# Elastic Compliance Matrix: (Units=1/GPa)
#
#
# Indices 1 2 3 4 5 6 
#
# 1 0.007891 -0.000219 -0.003230 -0.000001 0.000000 0.000009
# 2 -0.000219 0.010107 0.000112 0.000000 -0.000001 0.000038
# 3 -0.003230 0.000112 0.008355 0.000001 0.000000 -0.000006
# 4 -0.000001 0.000000 0.000001 -0.168523 0.000000 -0.000087
# 5 0.000000 -0.000001 0.000000 0.000000 0.015657 0.000003
# 6 0.000009 0.000038 -0.000006 -0.000087 0.000003 -0.308719
#
#
# Mechanical properties :
#
#
# Convention : Reuss Voigt Hill
#
# Bulk Modulus (GPa) = 50.81545 56.97631 53.89588
# Shear Modulus (GPa) = -11.84841 33.02530 10.58845
#
# Velocity S-wave (km/s) = -2.23263 3.72744 2.11059
# Velocity P-wave (km/s) = 3.83822 6.51883 5.34916
#
# Compressibility (1/GPa) = 0.01967905
#
# Stress axis : x y z
#
# Youngs Moduli (GPa) = 126.72384 98.94139 119.68508
#
# Poissons Ratio (x) = 0.02166 0.38656
# Poissons Ratio (y) = 0.02774 -0.01335
# Poissons Ratio (z) = 0.40929 -0.01103
#
# Static dielectric constant tensor:
#      x y z
#    x 1.925620 0.000000 0.000000 
#    y 0.000000 2.061950 0.000000 
#    z 0.000000 0.000000 1.894840 
# 
# From -- ./inp_files/47538.got.cif
#   From: 2010.05.17/outbox.cif.g08.bks.cpg/sg69_24_cif.got.tgz:47538.got - 2010.06.03 19:29:58.
