data_PCOD9513556
_publ_section_title
;
Structure prediction by ZEFSAII (Michael W. Deem and Ramdas Pophale) SiO2 
 PCOD9513556
Probable space group: F M M M
;
_chemical_formula_sum "Si O2"
_cell_formula_units_Z 96
_cell_length_a 27.615378
_cell_length_b 10.387123
_cell_length_c 15.862153
_cell_angle_alpha 90.000000
_cell_angle_beta 90.000000
_cell_angle_gamma 90.000000
_cell_volume 4549.968618
_symmetry_space_group_name_H-M "F M M M"
_symmetry_group_IT_number 69
_symmetry_cell_setting 'orthorhombic'
loop_
_space_group_symop_operation_xyz
x,y,z
-x,-y,z
x,-y,-z
-x,y,-z
-x,-y,-z
x,y,-z
-x,y,z
x,-y,z
x,1/2+y,1/2+z
-x,1/2-y,1/2+z
x,1/2-y,1/2-z
-x,1/2+y,1/2-z
-x,1/2-y,1/2-z
x,1/2+y,1/2-z
-x,1/2+y,1/2+z
x,1/2-y,1/2+z
1/2+x,y,1/2+z
1/2-x,-y,1/2+z
1/2+x,-y,1/2-z
1/2-x,y,1/2-z
1/2-x,-y,1/2-z
1/2+x,y,1/2-z
1/2-x,y,1/2+z
1/2+x,-y,1/2+z
1/2+x,1/2+y,z
1/2-x,1/2-y,z
1/2+x,1/2-y,-z
1/2-x,1/2+y,-z
1/2-x,1/2-y,-z
1/2+x,1/2+y,-z
1/2-x,1/2+y,z
1/2+x,1/2-y,z
loop_
_atom_site_type_symbol
_atom_site_label
_atom_site_fract_x
_atom_site_fract_y
_atom_site_fract_z
Si Si1 0.653038 0.219675 0.400494
Si Si2 0.277034 0.000000 0.339145
Si Si3 0.445780 0.352661 0.825182
Si Si4 0.825627 0.500000 0.904346
O O1 0.665621 0.219181 0.500000
O O2 0.598390 0.172414 0.387760
O O3 0.657733 0.365066 0.365754
O O4 0.689579 0.124094 0.353720
O O5 0.250000 0.000000 0.250000
O O6 0.232419 0.000000 0.403862
O O7 0.500000 0.338136 0.861976
O O8 0.441851 0.500000 0.793775
O O9 0.441456 0.250000 0.750000
O O10 0.844686 0.500000 0.000000
#
# Coordination Sequence:
#
# PCOD9513556 Si02
#       4
#    32  16  32  16
#     4  11  24  43  67  95 132 173 218 272 327 392
#     4  12  26  40  63  96 126 171 221 276 325 384
#     4  10  23  42  67  97 130 168 213 269 328 390
#     4  10  24  42  61  90 132 174 213 266 327 383
#
# _framework density 21.099045
#
# number of rings (size 3 to 8) (size 9 to 14) (size 15 to 20)
#    0.000    1.333    1.667    2.500    7.000    4.667 
#    0.000    1.667    0.000    3.000    0.000    0.000 
#    0.000    0.000    0.000    0.000    0.000    0.000 
#
# Total GULP energy -134128.738897 kJ/mol
# GULP energy per Si atom -5588.697454 kJ/mol
# Density = 2.105102 g / cm^3
# Si number density = 21.099045 Si / 1000 Ang^3
#
#
#
# Elastic Constant Matrix: (Units=GPa)
#
#
# Indices 1 2 3 4 5 6 
#
# 1 130.3376 69.5332 26.6450 0.0000 0.0000 0.0000
# 2 69.5332 207.0423 34.6851 0.0000 0.0000 0.0000
# 3 26.6450 34.6851 66.6221 0.0000 0.0000 0.0000
# 4 0.0000 0.0000 0.0000 10.7497 0.0000 0.0000
# 5 0.0000 0.0000 0.0000 0.0000 32.0541 0.0000
# 6 0.0000 0.0000 0.0000 0.0000 0.0000 30.3491
#
#
#
# Elastic Compliance Matrix: (Units=1/GPa)
#
#
# Indices 1 2 3 4 5 6 
#
# 1 0.009682 -0.002852 -0.002388 0.000000 0.000000 0.000000
# 2 -0.002852 0.006131 -0.002052 0.000000 0.000000 0.000000
# 3 -0.002388 -0.002052 0.017033 0.000000 0.000000 0.000000
# 4 0.000000 0.000000 0.000000 0.093026 0.000000 0.000000
# 5 0.000000 0.000000 0.000000 0.000000 0.031197 0.000000
# 6 0.000000 0.000000 0.000000 0.000000 0.000000 0.032950
#
#
# Mechanical properties :
#
#
# Convention : Reuss Voigt Hill
#
# Bulk Modulus (GPa) = 54.75071 73.96982 64.36026
# Shear Modulus (GPa) = 23.73168 32.83983 28.28575
#
# Velocity S-wave (km/s) = 3.35740 3.94948 3.66542
# Velocity P-wave (km/s) = 6.40588 7.47879 6.96303
#
# Compressibility (1/GPa) = 0.01826460
#
# Stress axis : x y z
#
# Youngs Moduli (GPa) = 103.28741 163.09766 58.70935
#
# Poissons Ratio (x) = 0.46508 0.14017
# Poissons Ratio (y) = 0.29453 0.12045
# Poissons Ratio (z) = 0.24660 0.33462
#
# Static dielectric constant tensor:
#      x y z
#    x 1.732130 0.000000 0.000000 
#    y 0.000000 1.776370 0.000000 
#    z 0.000000 0.000000 1.774020 
# 
# From -- ./inp_files/13297.got.cif
#   From: 2010.05.17/outbox.cif.g08.bks.cpg/sg69_7_cif.got.tgz:13297.got - 2010.06.03 19:29:58.
