data_PCOD9513662
_publ_section_title
;
Structure prediction by ZEFSAII (Michael W. Deem and Ramdas Pophale) SiO2 
 PCOD9513662
Probable space group: F M M M
;
_chemical_formula_sum "Si O2"
_cell_formula_units_Z 144
_cell_length_a 19.298925
_cell_length_b 16.734342
_cell_length_c 23.515933
_cell_angle_alpha 90.000000
_cell_angle_beta 90.000000
_cell_angle_gamma 90.000000
_cell_volume 7594.583702
_symmetry_space_group_name_H-M "F M M M"
_symmetry_group_IT_number 69
_symmetry_cell_setting 'orthorhombic'
loop_
_space_group_symop_operation_xyz
x,y,z
-x,-y,z
x,-y,-z
-x,y,-z
-x,-y,-z
x,y,-z
-x,y,z
x,-y,z
x,1/2+y,1/2+z
-x,1/2-y,1/2+z
x,1/2-y,1/2-z
-x,1/2+y,1/2-z
-x,1/2-y,1/2-z
x,1/2+y,1/2-z
-x,1/2+y,1/2+z
x,1/2-y,1/2+z
1/2+x,y,1/2+z
1/2-x,-y,1/2+z
1/2+x,-y,1/2-z
1/2-x,y,1/2-z
1/2-x,-y,1/2-z
1/2+x,y,1/2-z
1/2-x,y,1/2+z
1/2+x,-y,1/2+z
1/2+x,1/2+y,z
1/2-x,1/2-y,z
1/2+x,1/2-y,-z
1/2-x,1/2+y,-z
1/2-x,1/2-y,-z
1/2+x,1/2+y,-z
1/2-x,1/2+y,z
1/2+x,1/2-y,z
loop_
_atom_site_type_symbol
_atom_site_label
_atom_site_fract_x
_atom_site_fract_y
_atom_site_fract_z
Si Si1 0.578728 0.500000 0.067078
Si Si2 0.674946 0.656941 0.233509
Si Si3 0.665710 0.334009 0.434520
Si Si4 0.421581 0.094989 0.169086
Si Si5 0.824804 0.850088 0.901989
O O1 0.500000 0.500000 0.092352
O O2 0.623797 0.421088 0.080787
O O3 0.570710 0.500000 0.000000
O O4 0.674470 0.750000 0.250000
O O5 0.750000 0.622572 0.250000
O O6 0.617453 0.616551 0.272568
O O7 0.668971 0.653083 0.166100
O O8 0.649481 0.355096 0.500000
O O9 0.617786 0.370540 0.385682
O O10 0.744561 0.361783 0.420444
O O11 0.659678 0.237767 0.427359
O O12 0.500000 0.126135 0.170822
O O13 0.422788 0.000000 0.163712
#
# Coordination Sequence:
#
# PCOD9513662 Si02
#       5
#    16  32  32  32  32
#     4  11  26  44  61  94 139 173 209 266 332 394
#     4  11  20  41  68  93 123 159 207 265 322 380
#     4  11  22  42  69  95 124 169 222 266 314 379
#     4  11  26  43  60  92 132 167 211 267 321 378
#     4  11  22  41  68  97 128 162 217 267 319 383
#
# _framework density 18.960881000000001
#
# number of rings (size 3 to 8) (size 9 to 14) (size 15 to 20)
#    0.000    1.000    4.444    4.000    3.111    3.556 
#    0.000    1.111    0.000    0.000    0.000    0.000 
#    0.000    0.000    0.000    0.000    0.000    0.000 
#
# Total GULP energy -201003.096514 kJ/mol
# GULP energy per Si atom -5583.419348 kJ/mol
# Density = 1.891773 g / cm^3
# Si number density = 18.960881 Si / 1000 Ang^3
#
#
#
# Elastic Constant Matrix: (Units=GPa)
#
#
# Indices 1 2 3 4 5 6 
#
# 1 121.7422 49.6565 24.6326 0.0000 0.0000 0.0000
# 2 49.6565 63.9764 9.5903 0.0000 0.0000 0.0000
# 3 24.6326 9.5903 132.3650 0.0000 0.0000 0.0000
# 4 0.0000 0.0000 0.0000 -11.7799 0.0000 0.0000
# 5 0.0000 0.0000 0.0000 0.0000 -129.2178 0.0000
# 6 0.0000 0.0000 0.0000 0.0000 0.0000 34.4604
#
#
#
# Elastic Compliance Matrix: (Units=1/GPa)
#
#
# Indices 1 2 3 4 5 6 
#
# 1 0.012354 -0.009346 -0.001622 0.000000 0.000000 0.000000
# 2 -0.009346 0.022872 0.000082 0.000000 0.000000 0.000000
# 3 -0.001622 0.000082 0.007851 0.000000 0.000000 0.000000
# 4 0.000000 0.000000 0.000000 -0.084890 0.000000 0.000000
# 5 0.000000 0.000000 0.000000 0.000000 -0.007739 0.000000
# 6 0.000000 0.000000 0.000000 0.000000 0.000000 0.029019
#
#
# Mechanical properties :
#
#
# Convention : Reuss Voigt Hill
#
# Bulk Modulus (GPa) = 46.93525 53.98249 50.45887
# Shear Modulus (GPa) = 599.47442 -5.69386 296.89028
#
# Velocity S-wave (km/s) = 17.80029 -1.73478 12.52679
# Velocity P-wave (km/s) = 21.14886 4.95173 15.35894
#
# Compressibility (1/GPa) = 0.02130595
#
# Stress axis : x y z
#
# Youngs Moduli (GPa) = 80.94373 43.72071 127.37624
#
# Poissons Ratio (x) = 0.40861 0.20660
# Poissons Ratio (y) = 0.75649 -0.01045
# Poissons Ratio (z) = 0.13129 -0.00359
#
# Static dielectric constant tensor:
#      x y z
#    x 1.678410 0.000000 0.000000 
#    y 0.000000 1.647180 0.000000 
#    z 0.000000 0.000000 1.599200 
# 
# From -- ./inp_files/31689.got.cif
#   From: 2010.05.17/outbox.cif.g08.bks.cpg/sg69_16_cif.got.tgz:31689.got - 2010.06.03 19:29:58.
