data_PCOD9513532
_publ_section_title
;
Structure prediction by ZEFSAII (Michael W. Deem and Ramdas Pophale) SiO2 
 PCOD9513532
Probable space group: F M M M
;
_chemical_formula_sum "Si O2"
_cell_formula_units_Z 160
_cell_length_a 9.808433
_cell_length_b 30.343325
_cell_length_c 29.269768
_cell_angle_alpha 90.000000
_cell_angle_beta 90.000000
_cell_angle_gamma 90.000000
_cell_volume 8711.282117
_symmetry_space_group_name_H-M "F M M M"
_symmetry_group_IT_number 69
_symmetry_cell_setting 'orthorhombic'
loop_
_space_group_symop_operation_xyz
x,y,z
-x,-y,z
x,-y,-z
-x,y,-z
-x,-y,-z
x,y,-z
-x,y,z
x,-y,z
x,1/2+y,1/2+z
-x,1/2-y,1/2+z
x,1/2-y,1/2-z
-x,1/2+y,1/2-z
-x,1/2-y,1/2-z
x,1/2+y,1/2-z
-x,1/2+y,1/2+z
x,1/2-y,1/2+z
1/2+x,y,1/2+z
1/2-x,-y,1/2+z
1/2+x,-y,1/2-z
1/2-x,y,1/2-z
1/2-x,-y,1/2-z
1/2+x,y,1/2-z
1/2-x,y,1/2+z
1/2+x,-y,1/2+z
1/2+x,1/2+y,z
1/2-x,1/2-y,z
1/2+x,1/2-y,-z
1/2-x,1/2+y,-z
1/2-x,1/2-y,-z
1/2+x,1/2+y,-z
1/2-x,1/2+y,z
1/2+x,1/2-y,z
loop_
_atom_site_type_symbol
_atom_site_label
_atom_site_fract_x
_atom_site_fract_y
_atom_site_fract_z
Si Si1 0.500000 0.446853 0.715140
Si Si2 0.345582 0.331312 0.580325
Si Si3 0.263955 0.896723 0.160505
Si Si4 0.666849 0.297333 0.000000
Si Si5 0.500000 0.052264 0.324647
Si Si6 0.250000 0.250000 0.862937
Si Si7 0.150370 0.312039 0.711202
O O1 0.500000 0.500000 0.710171
O O2 0.372233 0.424973 0.689254
O O3 0.500000 0.437465 0.769702
O O4 0.500000 0.334798 0.561453
O O5 0.320122 0.371852 0.615370
O O6 0.225831 0.324596 0.543270
O O7 0.333618 0.285469 0.608224
O O8 0.209754 0.857383 0.192306
O O9 0.133350 0.927156 0.152354
O O10 0.750000 0.250000 0.000000
O O11 0.500000 0.291972 0.000000
O O12 0.500000 0.000000 0.328429
O O13 0.152825 0.221692 0.830498
O O14 0.250000 0.296336 0.750000
O O15 0.000000 0.318015 0.729962
#
# Coordination Sequence:
#
# PCOD9513532 Si02
#       7
#    16  32  32  16  16  16  32
#     4  11  22  40  62  92 127 166 214 262 313 366
#     4  11  23  42  64  89 124 162 203 255 311 370
#     4  11  23  38  60  88 124 164 210 256 310 366
#     4  12  26  42  70  98 127 158 201 256 317 374
#     4  11  22  38  62  92 129 170 210 260 315 370
#     4  10  23  35  58  80 116 156 208 243 301 352
#     4  11  23  36  52  76 113 161 213 257 295 349
#
# _framework density 18.366987000000002
#
# number of rings (size 3 to 8) (size 9 to 14) (size 15 to 20)
#    0.000    1.000    3.000    4.200    2.800    4.800 
#    0.000    0.000    0.000    0.000    0.000    4.200 
#    0.000    0.000    0.000    0.000    0.000    0.000 
#
# Total GULP energy -223335.650098 kJ/mol
# GULP energy per Si atom -5583.391252 kJ/mol
# Density = 1.832518 g / cm^3
# Si number density = 18.366987 Si / 1000 Ang^3
#
#
#
# Elastic Constant Matrix: (Units=GPa)
#
#
# Indices 1 2 3 4 5 6 
#
# 1 156.5852 37.1691 34.0467 0.0000 0.0000 0.0000
# 2 37.1691 106.5792 31.7096 0.0000 0.0000 0.0000
# 3 34.0467 31.7096 67.5142 0.0000 0.0000 0.0000
# 4 0.0000 0.0000 0.0000 23.0851 0.0000 0.0000
# 5 0.0000 0.0000 0.0000 0.0000 24.8366 0.0000
# 6 0.0000 0.0000 0.0000 0.0000 0.0000 -0.3672
#
#
#
# Elastic Compliance Matrix: (Units=1/GPa)
#
#
# Indices 1 2 3 4 5 6 
#
# 1 0.007434 -0.001717 -0.002942 0.000000 0.000000 0.000000
# 2 -0.001717 0.011303 -0.004443 0.000000 0.000000 0.000000
# 3 -0.002942 -0.004443 0.018382 0.000000 0.000000 0.000000
# 4 0.000000 0.000000 0.000000 0.043318 0.000000 0.000000
# 5 0.000000 0.000000 0.000000 0.000000 0.040263 0.000000
# 6 0.000000 0.000000 0.000000 0.000000 0.000000 -2.723287
#
#
# Mechanical properties :
#
#
# Convention : Reuss Voigt Hill
#
# Bulk Modulus (GPa) = 52.86917 59.61434 56.24175
# Shear Modulus (GPa) = -1.93943 24.69446 11.37752
#
# Velocity S-wave (km/s) = -1.02870 3.67072 2.49158
# Velocity P-wave (km/s) = 5.23798 7.10587 6.24219
#
# Compressibility (1/GPa) = 0.01891462
#
# Stress axis : x y z
#
# Youngs Moduli (GPa) = 134.52391 88.46893 54.40048
#
# Poissons Ratio (x) = 0.15191 0.16006
# Poissons Ratio (y) = 0.23099 0.24170
# Poissons Ratio (z) = 0.39580 0.39307
#
# Static dielectric constant tensor:
#      x y z
#    x 1.674640 0.000000 0.000000 
#    y 0.000000 1.626790 0.000000 
#    z 0.000000 0.000000 1.479640 
# 
# From -- ./inp_files/5830.got.cif
#   From: 2010.05.17/outbox.cif.g08.bks.cpg/sg69_3_cif.got.tgz:5830.got - 2010.06.03 19:29:58.
