data_PCOD9513206
_publ_section_title
;
Structure prediction by ZEFSAII (Michael W. Deem and Ramdas Pophale) SiO2 
 PCOD9513206
Probable space group: F M M M
;
_chemical_formula_sum "Si O2"
_cell_formula_units_Z 176
_cell_length_a 27.500710
_cell_length_b 16.720225
_cell_length_c 19.030551
_cell_angle_alpha 90.000000
_cell_angle_beta 90.000000
_cell_angle_gamma 90.000000
_cell_volume 8750.591020
_symmetry_space_group_name_H-M "F M M M"
_symmetry_group_IT_number 69
_symmetry_cell_setting 'orthorhombic'
loop_
_space_group_symop_operation_xyz
x,y,z
-x,-y,z
x,-y,-z
-x,y,-z
-x,-y,-z
x,y,-z
-x,y,z
x,-y,z
x,1/2+y,1/2+z
-x,1/2-y,1/2+z
x,1/2-y,1/2-z
-x,1/2+y,1/2-z
-x,1/2-y,1/2-z
x,1/2+y,1/2-z
-x,1/2+y,1/2+z
x,1/2-y,1/2+z
1/2+x,y,1/2+z
1/2-x,-y,1/2+z
1/2+x,-y,1/2-z
1/2-x,y,1/2-z
1/2-x,-y,1/2-z
1/2+x,y,1/2-z
1/2-x,y,1/2+z
1/2+x,-y,1/2+z
1/2+x,1/2+y,z
1/2-x,1/2-y,z
1/2+x,1/2-y,-z
1/2-x,1/2+y,-z
1/2-x,1/2-y,-z
1/2+x,1/2+y,-z
1/2-x,1/2+y,z
1/2+x,1/2-y,z
loop_
_atom_site_type_symbol
_atom_site_label
_atom_site_fract_x
_atom_site_fract_y
_atom_site_fract_z
Si Si1 0.787805 0.908196 0.807275
Si Si2 0.057738 0.000000 0.084510
Si Si3 0.557828 0.092127 0.200139
Si Si4 0.226585 0.334852 0.083142
Si Si5 0.894762 0.349148 0.337181
Si Si6 0.112617 0.817393 0.584172
O O1 0.750000 0.874330 0.750000
O O2 0.757084 0.902466 0.878458
O O3 0.838285 0.863308 0.818044
O O4 0.798873 0.000000 0.788020
O O5 0.083884 0.077558 0.117067
O O6 0.000000 0.000000 0.103097
O O7 0.061660 0.000000 0.000000
O O8 0.500000 0.097389 0.196614
O O9 0.577249 0.147360 0.263176
O O10 0.581057 0.118827 0.126776
O O11 0.571356 0.000000 0.216555
O O12 0.250000 0.250000 0.105266
O O13 0.169478 0.335086 0.098763
O O14 0.232482 0.341376 0.000000
O O15 0.899524 0.268624 0.381956
O O16 0.105310 0.817444 0.500000
#
# Coordination Sequence:
#
# PCOD9513206 Si02
#       6
#    32  16  32  32  32  32
#     4  11  23  38  60  95 131 168 214 262 310 378
#     4  11  24  40  63  96 133 171 212 267 335 400
#     4  11  25  46  70  94 128 174 222 272 330 393
#     4  10  21  39  60  87 126 168 205 248 306 373
#     4  12  22  42  68  97 131 173 217 272 330 395
#     4  11  25  43  67 100 134 169 219 274 327 389
#
# _framework density 20.112926999999999
#
# number of rings (size 3 to 8) (size 9 to 14) (size 15 to 20)
#    0.000    1.000    3.636    2.727    0.000    6.545 
#    0.000    2.727    0.000    0.000    0.000    0.000 
#    0.000    0.000    0.000    0.000    0.000    0.000 
#
# Total GULP energy -245999.592584 kJ/mol
# GULP energy per Si atom -5590.899831 kJ/mol
# Density = 2.006715 g / cm^3
# Si number density = 20.112927 Si / 1000 Ang^3
#
#
#
# Elastic Constant Matrix: (Units=GPa)
#
#
# Indices 1 2 3 4 5 6 
#
# 1 106.5423 32.1476 62.3040 0.0000 0.0000 0.0000
# 2 32.1476 30.5166 17.1450 0.0000 0.0000 0.0000
# 3 62.3040 17.1450 76.1278 0.0000 0.0000 0.0000
# 4 0.0000 0.0000 0.0000 20.9411 0.0000 0.0000
# 5 0.0000 0.0000 0.0000 0.0000 29.8843 0.0000
# 6 0.0000 0.0000 0.0000 0.0000 0.0000 24.9035
#
#
#
# Elastic Compliance Matrix: (Units=1/GPa)
#
#
# Indices 1 2 3 4 5 6 
#
# 1 0.023127 -0.015718 -0.015387 0.000000 0.000000 0.000000
# 2 -0.015718 0.048198 0.002009 0.000000 0.000000 0.000000
# 3 -0.015387 0.002009 0.025277 0.000000 0.000000 0.000000
# 4 0.000000 0.000000 0.000000 0.047753 0.000000 0.000000
# 5 0.000000 0.000000 0.000000 0.000000 0.033462 0.000000
# 6 0.000000 0.000000 0.000000 0.000000 0.000000 0.040155
#
#
# Mechanical properties :
#
#
# Convention : Reuss Voigt Hill
#
# Bulk Modulus (GPa) = 26.03565 48.48664 37.26114
# Shear Modulus (GPa) = 17.30293 21.91845 19.61069
#
# Velocity S-wave (km/s) = 2.93625 3.30475 3.12593
# Velocity P-wave (km/s) = 4.94654 6.22265 5.62092
#
# Compressibility (1/GPa) = 0.03840888
#
# Stress axis : x y z
#
# Youngs Moduli (GPa) = 43.23977 20.74756 39.56218
#
# Poissons Ratio (x) = 0.32611 0.60876
# Poissons Ratio (y) = 0.67964 -0.07947
# Poissons Ratio (z) = 0.66535 -0.04168
#
# Static dielectric constant tensor:
#      x y z
#    x 1.679450 0.000000 0.000000 
#    y 0.000000 1.725330 0.000000 
#    z 0.000000 0.000000 1.713430 
# 
# From -- ./inp_files/26758.got.cif
#   From: 2010.05.17/outbox.cif.g08.bks.cpg/sg69_14_cif.got.tgz:26758.got - 2010.06.03 19:29:58.
