data_PCOD9513921
_publ_section_title
;
Structure prediction by ZEFSAII (Michael W. Deem and Ramdas Pophale) SiO2 
 PCOD9513921
Probable space group: F M M M
;
_chemical_formula_sum "Si O2"
_cell_formula_units_Z 160
_cell_length_a 16.004154
_cell_length_b 32.504812
_cell_length_c 16.261311
_cell_angle_alpha 90.000000
_cell_angle_beta 90.000000
_cell_angle_gamma 90.000000
_cell_volume 8459.329394
_symmetry_space_group_name_H-M "F M M M"
_symmetry_group_IT_number 69
_symmetry_cell_setting 'orthorhombic'
loop_
_space_group_symop_operation_xyz
x,y,z
-x,-y,z
x,-y,-z
-x,y,-z
-x,-y,-z
x,y,-z
-x,y,z
x,-y,z
x,1/2+y,1/2+z
-x,1/2-y,1/2+z
x,1/2-y,1/2-z
-x,1/2+y,1/2-z
-x,1/2-y,1/2-z
x,1/2+y,1/2-z
-x,1/2+y,1/2+z
x,1/2-y,1/2+z
1/2+x,y,1/2+z
1/2-x,-y,1/2+z
1/2+x,-y,1/2-z
1/2-x,y,1/2-z
1/2-x,-y,1/2-z
1/2+x,y,1/2-z
1/2-x,y,1/2+z
1/2+x,-y,1/2+z
1/2+x,1/2+y,z
1/2-x,1/2-y,z
1/2+x,1/2-y,-z
1/2-x,1/2+y,-z
1/2-x,1/2-y,-z
1/2+x,1/2+y,-z
1/2-x,1/2+y,z
1/2+x,1/2-y,z
loop_
_atom_site_type_symbol
_atom_site_label
_atom_site_fract_x
_atom_site_fract_y
_atom_site_fract_z
Si Si1 0.593701 0.786515 0.865640
Si Si2 0.332305 0.000000 0.593182
Si Si3 0.744580 0.844179 0.907375
Si Si4 0.287053 0.930880 0.840530
Si Si5 0.595824 0.500000 0.723685
Si Si6 0.406173 0.692499 0.171499
O O1 0.500000 0.797487 0.896243
O O2 0.673073 0.809530 0.902374
O O3 0.602427 0.737216 0.871353
O O4 0.595281 0.798287 0.768831
O O5 0.275062 0.040554 0.605989
O O6 0.386344 0.000000 0.677646
O O7 0.367866 0.000000 0.500000
O O8 0.702016 0.887065 0.881889
O O9 0.825839 0.834231 0.852237
O O10 0.776034 0.847100 0.000000
O O11 0.250000 0.923078 0.750000
O O12 0.364334 0.960144 0.819359
O O13 0.500000 0.500000 0.709909
O O14 0.500000 0.676153 0.151922
#
# Coordination Sequence:
#
# PCOD9513921 Si02
#       6
#    32  16  32  32  16  32
#     4   9  19  36  56  77 104 143 190 232 272 327
#     4   9  17  34  58  82 111 139 164 208 268 319
#     4  12  23  33  52  82 113 145 181 228 282 325
#     4   9  19  36  56  76 104 145 184 213 249 312
#     4   9  19  36  60  86 107 137 178 214 258 319
#     4   9  19  37  58  77 102 142 189 233 276 328
#
# _framework density 18.914028999999999
#
# number of rings (size 3 to 8) (size 9 to 14) (size 15 to 20)
#    0.000    2.400    0.000    5.400    0.000    5.000 
#    0.000    8.000    0.000   15.000    0.000    0.000 
#    0.000    0.000    0.000    0.000    0.000    0.000 
#
# Total GULP energy -222929.078147 kJ/mol
# GULP energy per Si atom -5573.226954 kJ/mol
# Density = 1.887098 g / cm^3
# Si number density = 18.914029 Si / 1000 Ang^3
#
#
#
# Elastic Constant Matrix: (Units=GPa)
#
#
# Indices 1 2 3 4 5 6 
#
# 1 97.9699 28.3651 10.6366 0.0000 0.0000 0.0000
# 2 28.3651 58.9379 15.8191 0.0000 0.0000 0.0000
# 3 10.6366 15.8191 43.9458 0.0000 0.0000 0.0000
# 4 0.0000 0.0000 0.0000 241.3775 0.0000 0.0000
# 5 0.0000 0.0000 0.0000 0.0000 -3.6219 0.0000
# 6 0.0000 0.0000 0.0000 0.0000 0.0000 -4.3978
#
#
#
# Elastic Compliance Matrix: (Units=1/GPa)
#
#
# Indices 1 2 3 4 5 6 
#
# 1 0.011892 -0.005480 -0.000906 0.000000 0.000000 0.000000
# 2 -0.005480 0.021307 -0.006343 0.000000 0.000000 0.000000
# 3 -0.000906 -0.006343 0.025258 0.000000 0.000000 0.000000
# 4 0.000000 0.000000 0.000000 0.004143 0.000000 0.000000
# 5 0.000000 0.000000 0.000000 0.000000 -0.276096 0.000000
# 6 0.000000 0.000000 0.000000 0.000000 0.000000 -0.227387
#
#
# Mechanical properties :
#
#
# Convention : Reuss Voigt Hill
#
# Bulk Modulus (GPa) = 30.30441 34.49948 32.40194
# Shear Modulus (GPa) = -12.36325 56.40707 22.02191
#
# Velocity S-wave (km/s) = -2.55944 5.46696 3.41591
# Velocity P-wave (km/s) = 2.70604 7.62430 5.72069
#
# Compressibility (1/GPa) = 0.03299850
#
# Stress axis : x y z
#
# Youngs Moduli (GPa) = 84.08831 46.93265 39.59150
#
# Poissons Ratio (x) = 0.25721 0.03586
# Poissons Ratio (y) = 0.46083 0.25115
# Poissons Ratio (z) = 0.07615 0.29772
#
# Static dielectric constant tensor:
#      x y z
#    x 1.648800 0.000000 0.000000 
#    y 0.000000 1.597830 0.000000 
#    z 0.000000 0.000000 1.730030 
# 
# From -- ./inp_files/21838.got.cif
#   From: 2010.05.17/outbox.cif.g08.bks.cpg/sg69_11_cif.got.tgz:21838.got - 2010.06.03 19:29:58.
