data_PCOD9513432
_publ_section_title
;
Structure prediction by ZEFSAII (Michael W. Deem and Ramdas Pophale) SiO2 
 PCOD9513432
Probable space group: F M M M
;
_chemical_formula_sum "Si O2"
_cell_formula_units_Z 104
_cell_length_a 19.678984
_cell_length_b 9.902456
_cell_length_c 24.570441
_cell_angle_alpha 90.000000
_cell_angle_beta 90.000000
_cell_angle_gamma 90.000000
_cell_volume 4788.048550
_symmetry_space_group_name_H-M "F M M M"
_symmetry_group_IT_number 69
_symmetry_cell_setting 'orthorhombic'
loop_
_space_group_symop_operation_xyz
x,y,z
-x,-y,z
x,-y,-z
-x,y,-z
-x,-y,-z
x,y,-z
-x,y,z
x,-y,z
x,1/2+y,1/2+z
-x,1/2-y,1/2+z
x,1/2-y,1/2-z
-x,1/2+y,1/2-z
-x,1/2-y,1/2-z
x,1/2+y,1/2-z
-x,1/2+y,1/2+z
x,1/2-y,1/2+z
1/2+x,y,1/2+z
1/2-x,-y,1/2+z
1/2+x,-y,1/2-z
1/2-x,y,1/2-z
1/2-x,-y,1/2-z
1/2+x,y,1/2-z
1/2-x,y,1/2+z
1/2+x,-y,1/2+z
1/2+x,1/2+y,z
1/2-x,1/2-y,z
1/2+x,1/2-y,-z
1/2-x,1/2+y,-z
1/2-x,1/2-y,-z
1/2+x,1/2+y,-z
1/2-x,1/2+y,z
1/2+x,1/2-y,z
loop_
_atom_site_type_symbol
_atom_site_label
_atom_site_fract_x
_atom_site_fract_y
_atom_site_fract_z
Si Si1 0.000000 0.349732 0.325695
Si Si2 0.852568 0.343421 0.662602
Si Si3 0.848885 0.846493 0.437865
Si Si4 0.000000 0.753627 0.441412
Si Si5 0.750000 0.250000 0.750000
O O1 0.925715 0.288329 0.314997
O O2 0.000000 0.347984 0.391497
O O3 0.000000 0.500000 0.301861
O O4 0.862859 0.500000 0.647048
O O5 0.830479 0.256826 0.610026
O O6 0.798018 0.334149 0.710084
O O7 0.828105 0.810636 0.500000
O O8 0.931414 0.840155 0.437978
O O9 0.826502 0.000000 0.426465
O O10 0.000000 0.684152 0.500000
#
# Coordination Sequence:
#
# PCOD9513432 Si02
#       5
#    16  32  32  16   8
#     4   8  16  33  56  84 116 147 187 240 292 342
#     4  10  22  40  62  88 118 154 196 242 293 348
#     4   9  17  31  55  88 123 156 190 231 283 345
#     4   8  13  23  45  81 122 157 186 221 273 341
#     4  12  26  42  62  82 110 154 204 252 298 350
#
# _framework density 21.720749999999999
#
# number of rings (size 3 to 8) (size 9 to 14) (size 15 to 20)
#    0.000    2.769    0.000    0.923    0.000    5.846 
#    0.000    6.923    0.000    3.692    0.000    0.000 
#    0.000    0.000    0.000    0.000    0.000    0.615 
#
# Total GULP energy -144857.922185 kJ/mol
# GULP energy per Si atom -5571.458546 kJ/mol
# Density = 2.167131 g / cm^3
# Si number density = 21.720750 Si / 1000 Ang^3
#
#
#
# Elastic Constant Matrix: (Units=GPa)
#
#
# Indices 1 2 3 4 5 6 
#
# 1 110.7519 21.7961 41.2542 0.0000 0.0000 0.0000
# 2 21.7961 85.2462 59.1359 0.0000 0.0000 0.0000
# 3 41.2542 59.1359 139.9003 0.0000 0.0000 0.0000
# 4 0.0000 0.0000 0.0000 6.4909 0.0000 0.0000
# 5 0.0000 0.0000 0.0000 0.0000 40.0214 0.0000
# 6 0.0000 0.0000 0.0000 0.0000 0.0000 -1.2336
#
#
#
# Elastic Compliance Matrix: (Units=1/GPa)
#
#
# Indices 1 2 3 4 5 6 
#
# 1 0.010176 -0.000736 -0.002690 0.000000 0.000000 0.000000
# 2 -0.000736 0.016651 -0.006821 0.000000 0.000000 0.000000
# 3 -0.002690 -0.006821 0.010824 0.000000 0.000000 0.000000
# 4 0.000000 0.000000 0.000000 0.154063 0.000000 0.000000
# 5 0.000000 0.000000 0.000000 0.000000 0.024987 0.000000
# 6 0.000000 0.000000 0.000000 0.000000 0.000000 -0.810615
#
#
# Mechanical properties :
#
#
# Convention : Reuss Voigt Hill
#
# Bulk Modulus (GPa) = 58.28392 64.47455 61.37923
# Shear Modulus (GPa) = -8.80745 23.30319 7.24787
#
# Velocity S-wave (km/s) = -2.01585 3.27900 1.82868
# Velocity P-wave (km/s) = 4.63393 6.63955 5.72525
#
# Compressibility (1/GPa) = 0.01715739
#
# Stress axis : x y z
#
# Youngs Moduli (GPa) = 98.27156 60.05675 92.38365
#
# Poissons Ratio (x) = 0.04420 0.24847
# Poissons Ratio (y) = 0.07233 0.63018
# Poissons Ratio (z) = 0.26431 0.40967
#
# Static dielectric constant tensor:
#      x y z
#    x 1.890900 0.000000 0.000000 
#    y 0.000000 1.784870 0.000000 
#    z 0.000000 0.000000 1.778140 
# 
# From -- ./inp_files/42357.got.cif
#   From: 2010.05.17/outbox.cif.g08.bks.cpg/sg69_22_cif.got.tgz:42357.got - 2010.06.03 19:29:58.
