data_PCOD9513709
_publ_section_title
;
Structure prediction by ZEFSAII (Michael W. Deem and Ramdas Pophale) SiO2 
 PCOD9513709
Probable space group: F M M M
;
_chemical_formula_sum "Si O2"
_cell_formula_units_Z 160
_cell_length_a 15.632517
_cell_length_b 23.525540
_cell_length_c 22.869426
_cell_angle_alpha 90.000000
_cell_angle_beta 90.000000
_cell_angle_gamma 90.000000
_cell_volume 8410.537953
_symmetry_space_group_name_H-M "F M M M"
_symmetry_group_IT_number 69
_symmetry_cell_setting 'orthorhombic'
loop_
_space_group_symop_operation_xyz
x,y,z
-x,-y,z
x,-y,-z
-x,y,-z
-x,-y,-z
x,y,-z
-x,y,z
x,-y,z
x,1/2+y,1/2+z
-x,1/2-y,1/2+z
x,1/2-y,1/2-z
-x,1/2+y,1/2-z
-x,1/2-y,1/2-z
x,1/2+y,1/2-z
-x,1/2+y,1/2+z
x,1/2-y,1/2+z
1/2+x,y,1/2+z
1/2-x,-y,1/2+z
1/2+x,-y,1/2-z
1/2-x,y,1/2-z
1/2-x,-y,1/2-z
1/2+x,y,1/2-z
1/2-x,y,1/2+z
1/2+x,-y,1/2+z
1/2+x,1/2+y,z
1/2-x,1/2-y,z
1/2+x,1/2-y,-z
1/2-x,1/2+y,-z
1/2-x,1/2-y,-z
1/2+x,1/2+y,-z
1/2-x,1/2+y,z
1/2+x,1/2-y,z
loop_
_atom_site_type_symbol
_atom_site_label
_atom_site_fract_x
_atom_site_fract_y
_atom_site_fract_z
Si Si1 0.651052 0.255066 0.431704
Si Si2 0.904554 0.366289 0.865921
Si Si3 0.903079 0.362356 0.617194
Si Si4 0.647114 0.683624 0.755365
Si Si5 0.245407 0.067920 0.431453
O O1 0.652081 0.269262 0.500000
O O2 0.750000 0.250000 0.411116
O O3 0.606236 0.304938 0.396541
O O4 0.607472 0.194844 0.420906
O O5 0.889202 0.353441 0.797795
O O6 0.832349 0.405593 0.894535
O O7 0.000000 0.388463 0.875846
O O8 0.881386 0.342108 0.682958
O O9 0.832819 0.406281 0.594158
O O10 0.000000 0.383578 0.613766
O O11 0.620127 0.750000 0.750000
O O12 0.750000 0.682669 0.750000
O O13 0.237386 0.084398 0.500000
O O14 0.245136 0.000000 0.427672
#
# Coordination Sequence:
#
# PCOD9513709 Si02
#       5
#    32  32  32  32  32
#     4  11  21  36  59  91 133 171 205 255 320 387
#     4  12  24  40  65  98 131 166 213 263 320 385
#     4  12  24  40  65  98 131 166 213 263 320 385
#     4  11  21  39  65  95 135 176 207 250 318 391
#     4  11  26  48  69  90 124 172 222 271 322 375
#
# _framework density 19.023754
#
# number of rings (size 3 to 8) (size 9 to 14) (size 15 to 20)
#    0.000    0.600    6.000    2.400    0.000    5.600 
#    0.000    4.000    0.000    2.400    0.000    0.000 
#    0.000    0.000    0.000    0.000    0.000    0.000 
#
# Total GULP energy -223800.639832 kJ/mol
# GULP energy per Si atom -5595.015996 kJ/mol
# Density = 1.898046 g / cm^3
# Si number density = 19.023754 Si / 1000 Ang^3
#
#
#
# Elastic Constant Matrix: (Units=GPa)
#
#
# Indices 1 2 3 4 5 6 
#
# 1 153.2738 37.8524 30.9273 0.0000 0.0000 0.0000
# 2 37.8524 74.8489 34.0130 0.0000 0.0000 0.0000
# 3 30.9273 34.0130 78.4577 0.0000 0.0000 0.0000
# 4 0.0000 0.0000 0.0000 61.1627 0.0000 0.0000
# 5 0.0000 0.0000 0.0000 0.0000 -57.1526 0.0000
# 6 0.0000 0.0000 0.0000 0.0000 0.0000 -1.1915
#
#
#
# Elastic Compliance Matrix: (Units=1/GPa)
#
#
# Indices 1 2 3 4 5 6 
#
# 1 0.007625 -0.003101 -0.001661 0.000000 0.000000 0.000000
# 2 -0.003101 0.017899 -0.006537 0.000000 0.000000 0.000000
# 3 -0.001661 -0.006537 0.016235 0.000000 0.000000 0.000000
# 4 0.000000 0.000000 0.000000 0.016350 0.000000 0.000000
# 5 0.000000 0.000000 0.000000 0.000000 -0.017497 0.000000
# 6 0.000000 0.000000 0.000000 0.000000 0.000000 -0.839296
#
#
# Mechanical properties :
#
#
# Convention : Reuss Voigt Hill
#
# Bulk Modulus (GPa) = 52.19336 56.90732 54.55034
# Shear Modulus (GPa) = -6.49606 14.14957 3.82675
#
# Velocity S-wave (km/s) = -1.84990 2.73020 1.41984
# Velocity P-wave (km/s) = 4.78880 6.31802 5.60580
#
# Compressibility (1/GPa) = 0.01915952
#
# Stress axis : x y z
#
# Youngs Moduli (GPa) = 131.14064 55.86810 61.59673
#
# Poissons Ratio (x) = 0.17327 0.10233
# Poissons Ratio (y) = 0.40671 0.40267
# Poissons Ratio (z) = 0.21787 0.36522
#
# Static dielectric constant tensor:
#      x y z
#    x 1.678050 0.000000 0.000000 
#    y 0.000000 1.617370 0.000000 
#    z 0.000000 0.000000 1.653940 
# 
# From -- ./inp_files/17679.got.cif
#   From: 2010.05.17/outbox.cif.g08.bks.cpg/sg69_9_cif.got.tgz:17679.got - 2010.06.03 19:29:58.
