data_PCOD9513681
_publ_section_title
;
Structure prediction by ZEFSAII (Michael W. Deem and Ramdas Pophale) SiO2 
 PCOD9513681
Probable space group: F M M M
;
_chemical_formula_sum "Si O2"
_cell_formula_units_Z 152
_cell_length_a 23.866665
_cell_length_b 27.253800
_cell_length_c 13.875858
_cell_angle_alpha 90.000000
_cell_angle_beta 90.000000
_cell_angle_gamma 90.000000
_cell_volume 9025.653332
_symmetry_space_group_name_H-M "F M M M"
_symmetry_group_IT_number 69
_symmetry_cell_setting 'orthorhombic'
loop_
_space_group_symop_operation_xyz
x,y,z
-x,-y,z
x,-y,-z
-x,y,-z
-x,-y,-z
x,y,-z
-x,y,z
x,-y,z
x,1/2+y,1/2+z
-x,1/2-y,1/2+z
x,1/2-y,1/2-z
-x,1/2+y,1/2-z
-x,1/2-y,1/2-z
x,1/2+y,1/2-z
-x,1/2+y,1/2+z
x,1/2-y,1/2+z
1/2+x,y,1/2+z
1/2-x,-y,1/2+z
1/2+x,-y,1/2-z
1/2-x,y,1/2-z
1/2-x,-y,1/2-z
1/2+x,y,1/2-z
1/2-x,y,1/2+z
1/2+x,-y,1/2+z
1/2+x,1/2+y,z
1/2-x,1/2-y,z
1/2+x,1/2-y,-z
1/2-x,1/2+y,-z
1/2-x,1/2-y,-z
1/2+x,1/2+y,-z
1/2-x,1/2+y,z
1/2+x,1/2-y,z
loop_
_atom_site_type_symbol
_atom_site_label
_atom_site_fract_x
_atom_site_fract_y
_atom_site_fract_z
Si Si1 0.000000 0.939896 0.616565
Si Si2 0.289002 0.831844 0.888172
Si Si3 0.325845 0.106196 0.610792
Si Si4 0.655634 0.500000 0.394083
Si Si5 0.616425 0.399818 0.693630
Si Si6 0.222103 0.500000 0.355401
Si Si7 0.750000 0.250000 0.250000
O O1 0.946748 0.910620 0.660281
O O2 0.000000 0.936724 0.500000
O O3 0.000000 0.000000 0.639596
O O4 0.232702 0.864682 0.869222
O O5 0.345217 0.862528 0.867657
O O6 0.285822 0.785268 0.818728
O O7 0.286979 0.817752 0.000000
O O8 0.342399 0.117171 0.500000
O O9 0.371059 0.115032 0.695418
O O10 0.311443 0.048815 0.620620
O O11 0.626223 0.500000 0.500000
O O12 0.642179 0.547295 0.331895
O O13 0.720660 0.500000 0.412144
O O14 0.250000 0.500000 0.250000
#
# Coordination Sequence:
#
# PCOD9513681 Si02
#       7
#    16  32  32  16  32  16   8
#     4  11  24  38  57  84 117 157 196 234 276 327
#     4  11  22  37  60  87 118 151 186 236 299 354
#     4  11  21  34  54  83 114 150 188 228 286 352
#     4  12  20  28  51  78 113 150 181 224 276 336
#     4  12  21  38  55  82 118 153 191 235 278 337
#     4  12  18  29  47  79 116 147 178 220 276 342
#     4  12  22  40  56  90 124 140 190 240 302 356
#
# _framework density 16.840886000000001
#
# number of rings (size 3 to 8) (size 9 to 14) (size 15 to 20)
#    0.000    0.526    7.368    3.158    0.000    0.000 
#    0.000    0.526    0.000    1.263    0.000    0.000 
#    0.000    0.000    0.000    0.000    0.000    0.000 
#
# Total GULP energy -211755.303399 kJ/mol
# GULP energy per Si atom -5572.507984 kJ/mol
# Density = 1.680256 g / cm^3
# Si number density = 16.840886 Si / 1000 Ang^3
#
#
#
# Elastic Constant Matrix: (Units=GPa)
#
#
# Indices 1 2 3 4 5 6 
#
# 1 115.1709 29.7659 51.8747 0.0000 0.0000 0.0000
# 2 29.7659 86.2759 31.7039 0.0000 0.0000 0.0000
# 3 51.8747 31.7039 153.6530 0.0000 0.0000 0.0000
# 4 0.0000 0.0000 0.0000 24.6874 0.0000 0.0000
# 5 0.0000 0.0000 0.0000 0.0000 17.7279 0.0000
# 6 0.0000 0.0000 0.0000 0.0000 0.0000 14.9543
#
#
#
# Elastic Compliance Matrix: (Units=1/GPa)
#
#
# Indices 1 2 3 4 5 6 
#
# 1 0.010741 -0.002568 -0.003096 0.000000 0.000000 0.000000
# 2 -0.002568 0.013156 -0.001847 0.000000 0.000000 0.000000
# 3 -0.003096 -0.001847 0.007935 0.000000 0.000000 0.000000
# 4 0.000000 0.000000 0.000000 0.040507 0.000000 0.000000
# 5 0.000000 0.000000 0.000000 0.000000 0.056408 0.000000
# 6 0.000000 0.000000 0.000000 0.000000 0.000000 0.066871
#
#
# Mechanical properties :
#
#
# Convention : Reuss Voigt Hill
#
# Bulk Modulus (GPa) = 59.49645 64.64320 62.06983
# Shear Modulus (GPa) = 23.12212 27.59093 25.35652
#
# Velocity S-wave (km/s) = 3.70939 4.05202 3.88448
# Velocity P-wave (km/s) = 7.33153 7.76916 7.55351
#
# Compressibility (1/GPa) = 0.01680772
#
# Stress axis : x y z
#
# Youngs Moduli (GPa) = 93.10026 76.01338 126.02770
#
# Poissons Ratio (x) = 0.19520 0.39024
# Poissons Ratio (y) = 0.23907 0.23284
# Poissons Ratio (z) = 0.28828 0.14043
#
# Static dielectric constant tensor:
#      x y z
#    x 1.598740 0.000000 0.000000 
#    y 0.000000 1.569050 0.000000 
#    z 0.000000 0.000000 1.662530 
# 
# From -- ./inp_files/18940.got.cif
#   From: 2010.05.17/outbox.cif.g08.bks.cpg/sg69_10_cif.got.tgz:18940.got - 2010.06.03 19:29:58.
