data_PCOD9513979
_publ_section_title
;
Structure prediction by ZEFSAII (Michael W. Deem and Ramdas Pophale) SiO2 
 PCOD9513979
Probable space group: F M M M
;
_chemical_formula_sum "Si O2"
_cell_formula_units_Z 32
_cell_length_a 15.000000
_cell_length_b 30.000000
_cell_length_c 18.000000
_cell_angle_alpha 90.000000
_cell_angle_beta 90.000000
_cell_angle_gamma 90.000000
_cell_volume 8100.000000
_symmetry_space_group_name_H-M "F M M M"
_symmetry_group_IT_number 69
_symmetry_cell_setting 'orthorhombic'
loop_
_space_group_symop_operation_xyz
x,y,z
-x,-y,z
x,-y,-z
-x,y,-z
-x,-y,-z
x,y,-z
-x,y,z
x,-y,z
x,1/2+y,1/2+z
-x,1/2-y,1/2+z
x,1/2-y,1/2-z
-x,1/2+y,1/2-z
-x,1/2-y,1/2-z
x,1/2+y,1/2-z
-x,1/2+y,1/2+z
x,1/2-y,1/2+z
1/2+x,y,1/2+z
1/2-x,-y,1/2+z
1/2+x,-y,1/2-z
1/2-x,y,1/2-z
1/2-x,-y,1/2-z
1/2+x,y,1/2-z
1/2-x,y,1/2+z
1/2+x,-y,1/2+z
1/2+x,1/2+y,z
1/2-x,1/2-y,z
1/2+x,1/2-y,-z
1/2-x,1/2+y,-z
1/2-x,1/2-y,-z
1/2+x,1/2+y,-z
1/2-x,1/2+y,z
1/2+x,1/2-y,z
loop_
_atom_site_type_symbol
_atom_site_label
_atom_site_fract_x
_atom_site_fract_y
_atom_site_fract_z
Si Si1 0.000000 0.325386 0.763803
Si Si2 0.831818 0.871854 0.803880
Si Si3 0.000000 0.246243 0.870128
Si Si4 0.685793 0.789273 0.415100
Si Si5 0.892386 0.051700 0.914932
O O1 0.086074 0.355309 0.747164
O O2 0.000000 0.296845 0.839671
O O3 0.000000 0.287218 0.700400
O O4 0.750000 0.880832 0.750000
O O5 0.811572 0.831194 0.860556
O O6 0.855792 0.914138 0.854624
O O7 0.088071 0.232530 0.913577
O O8 0.709350 0.801286 0.500000
O O9 0.750000 0.750000 0.387729
O O10 0.000000 0.054237 0.912643
O O11 0.867614 0.000000 0.901470
O O12 0.865794 0.063289 0.000000
#
# Coordination Sequence:
#
# PCOD9513979 Si02
#       5
#    16  32  16  32  32
#     4   9  18  30  43  67  96 127 167 201 244 300
#     4  11  20  31  50  74 103 135 166 207 259 310
#     4   9  17  30  46  62  89 129 168 208 247 284
#     4  10  20  32  46  68  96 131 175 215 249 291
#     4   9  18  34  55  77 102 130 164 212 263 308
#
# _framework density 3.9506169999999998
#
# number of rings (size 3 to 8) (size 9 to 14) (size 15 to 20)
#    0.000    2.250    1.250    3.375    0.000    3.000 
#    0.000    0.000    0.000    0.000    0.000    0.000 
#    0.000    2.000    0.000    0.000    0.000    0.000 
#
# Total GULP energy -178338.155644 kJ/mol
# GULP energy per Si atom -5573.067364 kJ/mol
# Density = 0.394163 g / cm^3
# Si number density = 3.950617 Si / 1000 Ang^3
#
#
#
# Elastic Constant Matrix: (Units=GPa)
#
#
# Indices 1 2 3 4 5 6 
#
# 1 70.2973 44.4371 22.2577 0.0000 0.0000 0.0000
# 2 44.4371 104.7699 60.1319 0.0000 0.0000 0.0000
# 3 22.2577 60.1319 72.9504 0.0000 0.0000 0.0000
# 4 0.0000 0.0000 0.0000 25.3014 0.0000 0.0000
# 5 0.0000 0.0000 0.0000 0.0000 27.3414 0.0000
# 6 0.0000 0.0000 0.0000 0.0000 0.0000 17.1007
#
#
#
# Elastic Compliance Matrix: (Units=1/GPa)
#
#
# Indices 1 2 3 4 5 6 
#
# 1 0.019541 -0.009235 0.001650 0.000000 0.000000 0.000000
# 2 -0.009235 0.022479 -0.015712 0.000000 0.000000 0.000000
# 3 0.001650 -0.015712 0.026155 0.000000 0.000000 0.000000
# 4 0.000000 0.000000 0.000000 0.039523 0.000000 0.000000
# 5 0.000000 0.000000 0.000000 0.000000 0.036575 0.000000
# 6 0.000000 0.000000 0.000000 0.000000 0.000000 0.058477
#
#
# Mechanical properties :
#
#
# Convention : Reuss Voigt Hill
#
# Bulk Modulus (GPa) = 46.33408 55.74124 51.03766
# Shear Modulus (GPa) = 19.49036 22.02811 20.75923
#
# Velocity S-wave (km/s) = 3.51575 3.73764 3.62839
# Velocity P-wave (km/s) = 6.77238 7.34690 7.06548
#
# Compressibility (1/GPa) = 0.02158238
#
# Stress axis : x y z
#
# Youngs Moduli (GPa) = 51.17548 44.48532 38.23328
#
# Poissons Ratio (x) = 0.41083 -0.06310
# Poissons Ratio (y) = 0.47262 0.60071
# Poissons Ratio (z) = -0.08446 0.69894
#
# Static dielectric constant tensor:
#      x y z
#    x 1.556340 0.000000 0.000000 
#    y 0.000000 1.509580 0.000000 
#    z 0.000000 0.000000 1.517980 
# 
# From -- ./inp_files/15343.got.cif
#   From: 2010.05.17/outbox.ucp.g08.bks.cvg/sg69_8_cif.got.tgz:15343.got - 2010.06.11 16:51:34.
