data_PCOD9513850
_publ_section_title
;
Structure prediction by ZEFSAII (Michael W. Deem and Ramdas Pophale) SiO2 
 PCOD9513850
Probable space group: F M M M
;
_chemical_formula_sum "Si O2"
_cell_formula_units_Z 136
_cell_length_a 16.166859
_cell_length_b 23.475458
_cell_length_c 17.503538
_cell_angle_alpha 90.000000
_cell_angle_beta 90.000000
_cell_angle_gamma 90.000000
_cell_volume 6643.020098
_symmetry_space_group_name_H-M "F M M M"
_symmetry_group_IT_number 69
_symmetry_cell_setting 'orthorhombic'
loop_
_space_group_symop_operation_xyz
x,y,z
-x,-y,z
x,-y,-z
-x,y,-z
-x,-y,-z
x,y,-z
-x,y,z
x,-y,z
x,1/2+y,1/2+z
-x,1/2-y,1/2+z
x,1/2-y,1/2-z
-x,1/2+y,1/2-z
-x,1/2-y,1/2-z
x,1/2+y,1/2-z
-x,1/2+y,1/2+z
x,1/2-y,1/2+z
1/2+x,y,1/2+z
1/2-x,-y,1/2+z
1/2+x,-y,1/2-z
1/2-x,y,1/2-z
1/2-x,-y,1/2-z
1/2+x,y,1/2-z
1/2-x,y,1/2+z
1/2+x,-y,1/2+z
1/2+x,1/2+y,z
1/2-x,1/2-y,z
1/2+x,1/2-y,-z
1/2-x,1/2+y,-z
1/2-x,1/2-y,-z
1/2+x,1/2+y,-z
1/2-x,1/2+y,z
1/2+x,1/2-y,z
loop_
_atom_site_type_symbol
_atom_site_label
_atom_site_fract_x
_atom_site_fract_y
_atom_site_fract_z
Si Si1 0.327677 0.864524 0.413272
Si Si2 0.900860 0.065982 0.775642
Si Si3 0.500000 0.409974 0.500000
Si Si4 0.636459 0.373211 0.619698
Si Si5 0.903119 0.745583 0.660539
O O1 0.357355 0.870530 0.500000
O O2 0.369946 0.907942 0.354808
O O3 0.229604 0.873980 0.409982
O O4 0.349590 0.801652 0.382036
O O5 0.865388 0.101756 0.705047
O O6 0.000000 0.070599 0.771910
O O7 0.877265 0.000000 0.768503
O O8 0.572546 0.406807 0.566595
O O9 0.607024 0.307532 0.623421
O O10 0.879746 0.750000 0.750000
O O11 0.000000 0.728689 0.657469
#
# Coordination Sequence:
#
# PCOD9513850 Si02
#       5
#    32  32   8  32  32
#     4  12  27  41  67 107 139 176 225 277 335 405
#     4  11  25  48  73  96 130 179 229 278 340 406
#     4  12  24  44  73 100 136 176 221 290 334 394
#     4  12  24  45  69 100 137 179 225 279 343 397
#     4  11  23  40  66  99 140 181 224 271 332 406
#
# _framework density 20.472615999999999
#
# number of rings (size 3 to 8) (size 9 to 14) (size 15 to 20)
#    0.000    0.471    5.882    2.118    1.647    6.118 
#    0.000    2.353    0.000    0.000    0.000    0.000 
#    0.000    0.000    0.000    0.000    0.000    0.000 
#
# Total GULP energy -189806.800884 kJ/mol
# GULP energy per Si atom -5582.552967 kJ/mol
# Density = 2.042602 g / cm^3
# Si number density = 20.472616 Si / 1000 Ang^3
#
#
#
# Elastic Constant Matrix: (Units=GPa)
#
#
# Indices 1 2 3 4 5 6 
#
# 1 39.4813 30.6682 40.6408 0.0000 0.0000 0.0000
# 2 30.6682 83.8436 27.8261 0.0000 0.0000 0.0000
# 3 40.6408 27.8261 142.3427 0.0000 0.0000 0.0000
# 4 0.0000 0.0000 0.0000 -15.9581 0.0000 0.0000
# 5 0.0000 0.0000 0.0000 0.0000 798.7452 0.0000
# 6 0.0000 0.0000 0.0000 0.0000 0.0000 46.6730
#
#
#
# Elastic Compliance Matrix: (Units=1/GPa)
#
#
# Indices 1 2 3 4 5 6 
#
# 1 0.046966 -0.013612 -0.010749 0.000000 0.000000 0.000000
# 2 -0.013612 0.016700 0.000622 0.000000 0.000000 0.000000
# 3 -0.010749 0.000622 0.009973 0.000000 0.000000 0.000000
# 4 0.000000 0.000000 0.000000 -0.062664 0.000000 0.000000
# 5 0.000000 0.000000 0.000000 0.000000 0.001252 0.000000
# 6 0.000000 0.000000 0.000000 0.000000 0.000000 0.021426
#
#
# Mechanical properties :
#
#
# Convention : Reuss Voigt Hill
#
# Bulk Modulus (GPa) = 38.22480 51.54865 44.88673
# Shear Modulus (GPa) = 55.64863 176.99419 116.32141
#
# Velocity S-wave (km/s) = 5.21929 9.30816 7.54595
# Velocity P-wave (km/s) = 7.41843 11.86408 9.89418
#
# Compressibility (1/GPa) = 0.02616102
#
# Stress axis : x y z
#
# Youngs Moduli (GPa) = 21.29189 59.88185 100.27478
#
# Poissons Ratio (x) = 0.81511 1.07781
# Poissons Ratio (y) = 0.28983 -0.06236
# Poissons Ratio (z) = 0.22886 -0.03724
#
# Static dielectric constant tensor:
#      x y z
#    x 1.713120 0.000000 0.000000 
#    y 0.000000 1.720730 0.000000 
#    z 0.000000 0.000000 1.714620 
# 
# From -- ./inp_files/23053.got.cif
#   From: 2010.05.17/outbox.cif.g08.bks.cpg/sg69_12_cif.got.tgz:23053.got - 2010.06.03 19:29:58.
