data_PCOD9513169
_publ_section_title
;
Structure prediction by ZEFSAII (Michael W. Deem and Ramdas Pophale) SiO2 
 PCOD9513169
Probable space group: F M M M
;
_chemical_formula_sum "Si O2"
_cell_formula_units_Z 112
_cell_length_a 26.654549
_cell_length_b 17.470185
_cell_length_c 10.338207
_cell_angle_alpha 90.000000
_cell_angle_beta 90.000000
_cell_angle_gamma 90.000000
_cell_volume 4814.088460
_symmetry_space_group_name_H-M "F M M M"
_symmetry_group_IT_number 69
_symmetry_cell_setting 'orthorhombic'
loop_
_space_group_symop_operation_xyz
x,y,z
-x,-y,z
x,-y,-z
-x,y,-z
-x,-y,-z
x,y,-z
-x,y,z
x,-y,z
x,1/2+y,1/2+z
-x,1/2-y,1/2+z
x,1/2-y,1/2-z
-x,1/2+y,1/2-z
-x,1/2-y,1/2-z
x,1/2+y,1/2-z
-x,1/2+y,1/2+z
x,1/2-y,1/2+z
1/2+x,y,1/2+z
1/2-x,-y,1/2+z
1/2+x,-y,1/2-z
1/2-x,y,1/2-z
1/2-x,-y,1/2-z
1/2+x,y,1/2-z
1/2-x,y,1/2+z
1/2+x,-y,1/2+z
1/2+x,1/2+y,z
1/2-x,1/2-y,z
1/2+x,1/2-y,-z
1/2-x,1/2+y,-z
1/2-x,1/2-y,-z
1/2+x,1/2+y,-z
1/2-x,1/2+y,z
1/2+x,1/2-y,z
loop_
_atom_site_type_symbol
_atom_site_label
_atom_site_fract_x
_atom_site_fract_y
_atom_site_fract_z
Si Si1 0.557410 0.121185 0.000000
Si Si2 0.806510 0.084588 0.701845
Si Si3 0.086038 0.704047 0.500000
Si Si4 0.807196 0.218774 0.500000
Si Si5 0.589604 0.084091 0.710312
O O1 0.581076 0.093683 0.864419
O O2 0.500000 0.096198 0.000000
O O3 0.561542 0.212858 0.000000
O O4 0.750000 0.087646 0.750000
O O5 0.813690 0.160774 0.619292
O O6 0.850137 0.085156 0.807854
O O7 0.812273 0.000000 0.639092
O O8 0.146276 0.722738 0.500000
O O9 0.070684 0.653953 0.624694
O O10 0.750000 0.250000 0.500000
O O11 0.570413 0.000000 0.672234
#
# Coordination Sequence:
#
# PCOD9513169 Si02
#       5
#    16  32  16  16  32
#     4  12  27  48  76 101 134 185 241 296 352 415
#     4  10  21  38  61  91 133 184 233 280 339 414
#     4  12  25  42  69 104 144 177 225 292 360 413
#     4  12  23  35  60  94 138 181 233 281 342 412
#     4  11  24  45  70 100 139 183 232 286 347 422
#
# _framework density 23.265049000000001
#
# number of rings (size 3 to 8) (size 9 to 14) (size 15 to 20)
#    0.000    0.857    2.857    3.857    0.000    8.571 
#    0.000    5.714    0.000    2.571    0.000    0.000 
#    0.000    0.000    0.000    0.000    0.000    0.000 
#
# Total GULP energy -156397.531639 kJ/mol
# GULP energy per Si atom -5585.626130 kJ/mol
# Density = 2.321210 g / cm^3
# Si number density = 23.265049 Si / 1000 Ang^3
#
#
#
# Elastic Constant Matrix: (Units=GPa)
#
#
# Indices 1 2 3 4 5 6 
#
# 1 88.8782 0.0383 -0.0807 0.0000 0.0000 0.0000
# 2 0.0383 173.6536 48.3853 0.0000 0.0000 0.0000
# 3 -0.0807 48.3853 77.7405 0.0000 0.0000 0.0000
# 4 0.0000 0.0000 0.0000 47.6943 0.0000 0.0000
# 5 0.0000 0.0000 0.0000 0.0000 6.1978 0.0000
# 6 0.0000 0.0000 0.0000 0.0000 0.0000 -2.4229
#
#
#
# Elastic Compliance Matrix: (Units=1/GPa)
#
#
# Indices 1 2 3 4 5 6 
#
# 1 0.011251 -0.000007 0.000016 0.000000 0.000000 0.000000
# 2 -0.000007 0.006967 -0.004336 0.000000 0.000000 0.000000
# 3 0.000016 -0.004336 0.015562 0.000000 0.000000 0.000000
# 4 0.000000 0.000000 0.000000 0.020967 0.000000 0.000000
# 5 0.000000 0.000000 0.000000 0.000000 0.161347 0.000000
# 6 0.000000 0.000000 0.000000 0.000000 0.000000 -0.412724
#
#
# Mechanical properties :
#
#
# Convention : Reuss Voigt Hill
#
# Bulk Modulus (GPa) = 39.79914 48.55089 44.17502
# Shear Modulus (GPa) = -27.83951 29.75581 0.95815
#
# Velocity S-wave (km/s) = -3.46298 3.58018 0.64244
# Velocity P-wave (km/s) = 1.07441 6.16475 4.42484
#
# Compressibility (1/GPa) = 0.02512617
#
# Stress axis : x y z
#
# Youngs Moduli (GPa) = 88.87810 143.53874 64.25877
#
# Poissons Ratio (x) = 0.00100 -0.00103
# Poissons Ratio (y) = 0.00062 0.27863
# Poissons Ratio (z) = -0.00142 0.62240
#
# Static dielectric constant tensor:
#      x y z
#    x 1.892960 0.000000 0.000000 
#    y 0.000000 1.860500 0.000000 
#    z 0.000000 0.000000 1.921740 
# 
# From -- ./inp_files/7417.got.cif
#   From: 2010.05.17/outbox.cif.g08.bks.cpg/sg69_4_cif.got.tgz:7417.got - 2010.06.03 19:29:58.
