data_PCOD9513002
_publ_section_title
;
Structure prediction by ZEFSAII (Michael W. Deem and Ramdas Pophale) SiO2 
 PCOD9513002
Probable space group: F M M M
;
_chemical_formula_sum "Si O2"
_cell_formula_units_Z 208
_cell_length_a 19.543133
_cell_length_b 17.194431
_cell_length_c 30.136694
_cell_angle_alpha 90.000000
_cell_angle_beta 90.000000
_cell_angle_gamma 90.000000
_cell_volume 10126.925259
_symmetry_space_group_name_H-M "F M M M"
_symmetry_group_IT_number 69
_symmetry_cell_setting 'orthorhombic'
loop_
_space_group_symop_operation_xyz
x,y,z
-x,-y,z
x,-y,-z
-x,y,-z
-x,-y,-z
x,y,-z
-x,y,z
x,-y,z
x,1/2+y,1/2+z
-x,1/2-y,1/2+z
x,1/2-y,1/2-z
-x,1/2+y,1/2-z
-x,1/2-y,1/2-z
x,1/2+y,1/2-z
-x,1/2+y,1/2+z
x,1/2-y,1/2+z
1/2+x,y,1/2+z
1/2-x,-y,1/2+z
1/2+x,-y,1/2-z
1/2-x,y,1/2-z
1/2-x,-y,1/2-z
1/2+x,y,1/2-z
1/2-x,y,1/2+z
1/2+x,-y,1/2+z
1/2+x,1/2+y,z
1/2-x,1/2-y,z
1/2+x,1/2-y,-z
1/2-x,1/2+y,-z
1/2-x,1/2-y,-z
1/2+x,1/2+y,-z
1/2-x,1/2+y,z
1/2+x,1/2-y,z
loop_
_atom_site_type_symbol
_atom_site_label
_atom_site_fract_x
_atom_site_fract_y
_atom_site_fract_z
Si Si1 0.578186 0.861459 0.904733
Si Si2 0.286024 0.165381 0.449357
Si Si3 0.918723 0.407114 0.303206
Si Si4 0.678640 0.410987 0.274659
Si Si5 0.580043 0.818672 0.605417
Si Si6 0.790590 0.414625 0.867483
Si Si7 0.582388 0.911208 0.000000
O O1 0.500000 0.887276 0.901326
O O2 0.583459 0.774114 0.886872
O O3 0.630522 0.917395 0.881529
O O4 0.599962 0.864032 0.956255
O O5 0.279417 0.134497 0.500000
O O6 0.250000 0.250000 0.449475
O O7 0.365372 0.166378 0.433633
O O8 0.248552 0.121346 0.409000
O O9 0.905417 0.500000 0.307941
O O10 0.876378 0.378507 0.260251
O O11 0.900930 0.364317 0.349423
O O12 0.000000 0.396552 0.296219
O O13 0.654678 0.500000 0.285295
O O14 0.750000 0.417159 0.250000
O O15 0.700888 0.370702 0.320701
O O16 0.500000 0.836934 0.594621
O O17 0.760422 0.500000 0.859146
O O18 0.500000 0.917404 0.000000
O O19 0.609458 0.000000 0.000000
#
# Coordination Sequence:
#
# PCOD9513002 Si02
#       7
#    32  32  32  32  32  32  16
#     4  10  21  36  56  86 123 158 197 243 295 363
#     4  11  24  41  60  85 121 162 204 250 300 362
#     4   9  18  35  61  91 121 157 204 254 303 360
#     4   9  18  34  57  83 111 148 196 248 301 359
#     4  10  21  38  63  89 119 161 205 250 306 365
#     4  11  23  38  61  89 119 158 199 249 309 364
#     4   9  18  32  52  79 113 155 200 243 285 341
#
# _framework density 20.539304999999999
#
# number of rings (size 3 to 8) (size 9 to 14) (size 15 to 20)
#    0.000    2.077    1.538    1.385    2.154    4.000 
#    0.000    2.308    0.000    2.769    0.000    3.231 
#    0.000    0.000    0.000    0.000    0.000    0.000 
#
# Total GULP energy -289694.920283 kJ/mol
# GULP energy per Si atom -5571.056159 kJ/mol
# Density = 2.049256 g / cm^3
# Si number density = 20.539305 Si / 1000 Ang^3
#
#
#
# Elastic Constant Matrix: (Units=GPa)
#
#
# Indices 1 2 3 4 5 6 
#
# 1 87.9975 14.1707 60.2941 0.0000 0.0000 0.0000
# 2 14.1707 44.5337 37.1285 0.0000 0.0000 0.0000
# 3 60.2941 37.1285 167.6802 0.0000 0.0000 0.0000
# 4 0.0000 0.0000 0.0000 -55.8939 0.0000 0.0000
# 5 0.0000 0.0000 0.0000 0.0000 37.9224 0.0000
# 6 0.0000 0.0000 0.0000 0.0000 0.0000 19.3102
#
#
#
# Elastic Compliance Matrix: (Units=1/GPa)
#
#
# Indices 1 2 3 4 5 6 
#
# 1 0.015083 -0.000341 -0.005348 0.000000 0.000000 0.000000
# 2 -0.000341 0.027546 -0.005977 0.000000 0.000000 0.000000
# 3 -0.005348 -0.005977 0.009210 0.000000 0.000000 0.000000
# 4 0.000000 0.000000 0.000000 -0.017891 0.000000 0.000000
# 5 0.000000 0.000000 0.000000 0.000000 0.026370 0.000000
# 6 0.000000 0.000000 0.000000 0.000000 0.000000 0.051786
#
#
# Mechanical properties :
#
#
# Convention : Reuss Voigt Hill
#
# Bulk Modulus (GPa) = 35.07746 58.15535 46.61641
# Shear Modulus (GPa) = 34.49726 12.84228 23.66977
#
# Velocity S-wave (km/s) = 4.10271 2.50322 3.39840
# Velocity P-wave (km/s) = 6.28953 6.06057 6.17611
#
# Compressibility (1/GPa) = 0.02850834
#
# Stress axis : x y z
#
# Youngs Moduli (GPa) = 66.29861 36.30238 108.57446
#
# Poissons Ratio (x) = 0.01237 0.58068
# Poissons Ratio (y) = 0.02259 0.64895
# Poissons Ratio (z) = 0.35458 0.21698
#
# Static dielectric constant tensor:
#      x y z
#    x 1.747870 0.000000 0.000000 
#    y 0.000000 1.756370 0.000000 
#    z 0.000000 0.000000 1.812820 
# 
# From -- ./inp_files/42743.got.cif
#   From: 2010.05.17/outbox.cif.g08.bks.cpg/sg69_22_cif.got.tgz:42743.got - 2010.06.03 19:29:58.
