data_PCOD9513476
_publ_section_title
;
Structure prediction by ZEFSAII (Michael W. Deem and Ramdas Pophale) SiO2 
 PCOD9513476
Probable space group: F M M M
;
_chemical_formula_sum "Si O2"
_cell_formula_units_Z 176
_cell_length_a 13.990486
_cell_length_b 27.445663
_cell_length_c 23.738561
_cell_angle_alpha 90.000000
_cell_angle_beta 90.000000
_cell_angle_gamma 90.000000
_cell_volume 9115.089068
_symmetry_space_group_name_H-M "F M M M"
_symmetry_group_IT_number 69
_symmetry_cell_setting 'orthorhombic'
loop_
_space_group_symop_operation_xyz
x,y,z
-x,-y,z
x,-y,-z
-x,y,-z
-x,-y,-z
x,y,-z
-x,y,z
x,-y,z
x,1/2+y,1/2+z
-x,1/2-y,1/2+z
x,1/2-y,1/2-z
-x,1/2+y,1/2-z
-x,1/2-y,1/2-z
x,1/2+y,1/2-z
-x,1/2+y,1/2+z
x,1/2-y,1/2+z
1/2+x,y,1/2+z
1/2-x,-y,1/2+z
1/2+x,-y,1/2-z
1/2-x,y,1/2-z
1/2-x,-y,1/2-z
1/2+x,y,1/2-z
1/2-x,y,1/2+z
1/2+x,-y,1/2+z
1/2+x,1/2+y,z
1/2-x,1/2-y,z
1/2+x,1/2-y,-z
1/2-x,1/2+y,-z
1/2-x,1/2-y,-z
1/2+x,1/2+y,-z
1/2-x,1/2+y,z
1/2+x,1/2-y,z
loop_
_atom_site_type_symbol
_atom_site_label
_atom_site_fract_x
_atom_site_fract_y
_atom_site_fract_z
Si Si1 0.775744 0.801393 0.593677
Si Si2 0.750000 0.119608 0.250000
Si Si3 0.113294 0.297063 0.210283
Si Si4 0.771023 0.557367 0.637348
Si Si5 0.389646 0.894771 0.063801
Si Si6 0.611828 0.127745 0.567229
O O1 0.750000 0.750000 0.566096
O O2 0.827024 0.790368 0.652910
O O3 0.846480 0.840136 0.564887
O O4 0.676514 0.831025 0.596656
O O5 0.839618 0.155333 0.261592
O O6 0.770619 0.086278 0.196028
O O7 0.125577 0.250000 0.250000
O O8 0.000000 0.303249 0.199561
O O9 0.777077 0.500000 0.645320
O O10 0.673971 0.573219 0.605339
O O11 0.854361 0.578143 0.596911
O O12 0.500000 0.893770 0.080388
O O13 0.381703 0.913445 0.000000
O O14 0.633206 0.127237 0.500000
O O15 0.500000 0.136473 0.574423
#
# Coordination Sequence:
#
# PCOD9513476 Si02
#       6
#    32  16  32  32  32  32
#     4  11  21  38  62  92 128 164 208 256 313 371
#     4  12  22  42  64  92 130 172 208 254 314 380
#     4  11  24  40  63  95 128 168 213 255 306 372
#     4  11  24  41  65  93 125 163 213 269 322 381
#     4  10  22  41  65  94 127 165 210 261 320 381
#     4  10  23  43  66  93 127 168 215 266 319 378
#
# _framework density 19.308643
#
# number of rings (size 3 to 8) (size 9 to 14) (size 15 to 20)
#    0.000    1.273    3.636    4.364    0.000    5.818 
#    0.000    3.636    0.000    3.818    0.000    0.000 
#    0.000    0.000    0.000    0.000    0.000    0.000 
#
# Total GULP energy -245772.854304 kJ/mol
# GULP energy per Si atom -5585.746689 kJ/mol
# Density = 1.926470 g / cm^3
# Si number density = 19.308643 Si / 1000 Ang^3
#
#
#
# Elastic Constant Matrix: (Units=GPa)
#
#
# Indices 1 2 3 4 5 6 
#
# 1 143.9125 37.2851 57.7481 0.0000 0.0000 0.0000
# 2 37.2851 129.2477 41.2062 0.0000 0.0000 0.0000
# 3 57.7481 41.2062 113.2110 0.0000 0.0000 0.0000
# 4 0.0000 0.0000 0.0000 2.4347 0.0000 0.0000
# 5 0.0000 0.0000 0.0000 0.0000 41.0711 0.0000
# 6 0.0000 0.0000 0.0000 0.0000 0.0000 3.8358
#
#
#
# Elastic Compliance Matrix: (Units=1/GPa)
#
#
# Indices 1 2 3 4 5 6 
#
# 1 0.008917 -0.001270 -0.004087 0.000000 0.000000 0.000000
# 2 -0.001270 0.008934 -0.002604 0.000000 0.000000 0.000000
# 3 -0.004087 -0.002604 0.011865 0.000000 0.000000 0.000000
# 4 0.000000 0.000000 0.000000 0.410724 0.000000 0.000000
# 5 0.000000 0.000000 0.000000 0.000000 0.024348 0.000000
# 6 0.000000 0.000000 0.000000 0.000000 0.000000 0.260700
#
#
# Mechanical properties :
#
#
# Convention : Reuss Voigt Hill
#
# Bulk Modulus (GPa) = 72.48494 73.20555 72.84525
# Shear Modulus (GPa) = 6.70235 26.14380 16.42307
#
# Velocity S-wave (km/s) = 1.86513 3.68366 2.91959
# Velocity P-wave (km/s) = 6.50076 7.48920 7.01242
#
# Compressibility (1/GPa) = 0.01379597
#
# Stress axis : x y z
#
# Youngs Moduli (GPa) = 112.13976 111.93793 84.27866
#
# Poissons Ratio (x) = 0.14212 0.34441
# Poissons Ratio (y) = 0.14237 0.21946
# Poissons Ratio (z) = 0.45827 0.29148
#
# Static dielectric constant tensor:
#      x y z
#    x 1.660990 0.000000 0.000000 
#    y 0.000000 1.665370 0.000000 
#    z 0.000000 0.000000 1.691240 
# 
# From -- ./inp_files/36025.got.cif
#   From: 2010.05.17/outbox.cif.g08.bks.cpg/sg69_19_cif.got.tgz:36025.got - 2010.06.03 19:29:58.
