data_PCOD9513724
_publ_section_title
;
Structure prediction by ZEFSAII (Michael W. Deem and Ramdas Pophale) SiO2 
 PCOD9513724
Probable space group: F M M M
;
_chemical_formula_sum "Si O2"
_cell_formula_units_Z 136
_cell_length_a 19.163126
_cell_length_b 27.260027
_cell_length_c 14.088009
_cell_angle_alpha 90.000000
_cell_angle_beta 90.000000
_cell_angle_gamma 90.000000
_cell_volume 7359.397437
_symmetry_space_group_name_H-M "F M M M"
_symmetry_group_IT_number 69
_symmetry_cell_setting 'orthorhombic'
loop_
_space_group_symop_operation_xyz
x,y,z
-x,-y,z
x,-y,-z
-x,y,-z
-x,-y,-z
x,y,-z
-x,y,z
x,-y,z
x,1/2+y,1/2+z
-x,1/2-y,1/2+z
x,1/2-y,1/2-z
-x,1/2+y,1/2-z
-x,1/2-y,1/2-z
x,1/2+y,1/2-z
-x,1/2+y,1/2+z
x,1/2-y,1/2+z
1/2+x,y,1/2+z
1/2-x,-y,1/2+z
1/2+x,-y,1/2-z
1/2-x,y,1/2-z
1/2-x,-y,1/2-z
1/2+x,y,1/2-z
1/2-x,y,1/2+z
1/2+x,-y,1/2+z
1/2+x,1/2+y,z
1/2-x,1/2-y,z
1/2+x,1/2-y,-z
1/2-x,1/2+y,-z
1/2-x,1/2-y,-z
1/2+x,1/2+y,-z
1/2-x,1/2+y,z
1/2+x,1/2-y,z
loop_
_atom_site_type_symbol
_atom_site_label
_atom_site_fract_x
_atom_site_fract_y
_atom_site_fract_z
Si Si1 0.735109 0.000000 0.361641
Si Si2 0.896129 0.000000 0.607330
Si Si3 0.801055 0.829864 0.389666
Si Si4 0.250000 0.250000 0.750000
Si Si5 0.162906 0.103527 0.106691
Si Si6 0.079753 0.395029 0.799163
O O1 0.750000 0.000000 0.250000
O O2 0.812546 0.000000 0.401912
O O3 0.693287 0.951509 0.388557
O O4 0.916384 0.048844 0.664339
O O5 0.924074 0.000000 0.500000
O O6 0.804937 0.815335 0.500000
O O7 0.795709 0.784297 0.318671
O O8 0.729642 0.861171 0.376589
O O9 0.866218 0.863935 0.362274
O O10 0.108022 0.108718 0.191458
O O11 0.136115 0.112866 0.000000
O O12 0.000000 0.378203 0.806826
#
# Coordination Sequence:
#
# PCOD9513724 Si02
#       6
#    16  16  32   8  32  32
#     4  12  18  33  62  88 121 156 206 261 297 347
#     4  12  23  36  57  90 126 167 206 241 298 365
#     4  11  23  41  68  94 118 157 204 255 311 362
#     4  12  22  44  70  96 120 144 208 276 312 356
#     4  11  21  38  63  90 120 161 209 253 299 359
#     4  12  24  40  60  91 134 167 197 246 304 370
#
# _framework density 18.479773000000002
#
# number of rings (size 3 to 8) (size 9 to 14) (size 15 to 20)
#    0.000    0.471    7.059    2.471    0.000    2.824 
#    0.000    0.588    0.000    2.824    0.000    0.000 
#    0.000    0.000    0.000    0.000    0.000    0.000 
#
# Total GULP energy -190061.242895 kJ/mol
# GULP energy per Si atom -5590.036556 kJ/mol
# Density = 1.843771 g / cm^3
# Si number density = 18.479773 Si / 1000 Ang^3
#
#
#
# Elastic Constant Matrix: (Units=GPa)
#
#
# Indices 1 2 3 4 5 6 
#
# 1 83.8370 22.8348 46.9242 0.0000 0.0000 0.0000
# 2 22.8348 96.9592 47.4283 0.0000 0.0000 0.0000
# 3 46.9242 47.4283 172.2032 0.0000 0.0000 0.0000
# 4 0.0000 0.0000 0.0000 116.4586 0.0000 0.0000
# 5 0.0000 0.0000 0.0000 0.0000 -15.6945 0.0000
# 6 0.0000 0.0000 0.0000 0.0000 0.0000 -1.5458
#
#
#
# Elastic Compliance Matrix: (Units=1/GPa)
#
#
# Indices 1 2 3 4 5 6 
#
# 1 0.014310 -0.001691 -0.003434 0.000000 0.000000 0.000000
# 2 -0.001691 0.012119 -0.002877 0.000000 0.000000 0.000000
# 3 -0.003434 -0.002877 0.007535 0.000000 0.000000 0.000000
# 4 0.000000 0.000000 0.000000 0.008587 0.000000 0.000000
# 5 0.000000 0.000000 0.000000 0.000000 -0.063717 0.000000
# 6 0.000000 0.000000 0.000000 0.000000 0.000000 -0.646929
#
#
# Mechanical properties :
#
#
# Convention : Reuss Voigt Hill
#
# Bulk Modulus (GPa) = 55.67455 65.26379 60.46917
# Shear Modulus (GPa) = -7.73870 35.56447 13.91289
#
# Velocity S-wave (km/s) = -2.04860 4.39168 2.74683
# Velocity P-wave (km/s) = 4.95954 7.81721 6.54621
#
# Compressibility (1/GPa) = 0.01796153
#
# Stress axis : x y z
#
# Youngs Moduli (GPa) = 69.87971 82.51399 132.70979
#
# Poissons Ratio (x) = 0.13949 0.45571
# Poissons Ratio (y) = 0.11813 0.38183
# Poissons Ratio (z) = 0.23996 0.23741
#
# Static dielectric constant tensor:
#      x y z
#    x 1.609340 0.000000 0.000000 
#    y 0.000000 1.622950 0.000000 
#    z 0.000000 0.000000 1.664070 
# 
# From -- ./inp_files/16637.got.cif
#   From: 2010.05.17/outbox.cif.g08.bks.cpg/sg69_9_cif.got.tgz:16637.got - 2010.06.03 19:29:58.
