data_PCOD9513188
_publ_section_title
;
Structure prediction by ZEFSAII (Michael W. Deem and Ramdas Pophale) SiO2 
 PCOD9513188
Probable space group: F M M M
;
_chemical_formula_sum "Si O2"
_cell_formula_units_Z 120
_cell_length_a 19.976352
_cell_length_b 10.789574
_cell_length_c 27.766974
_cell_angle_alpha 90.000000
_cell_angle_beta 90.000000
_cell_angle_gamma 90.000000
_cell_volume 5984.791620
_symmetry_space_group_name_H-M "F M M M"
_symmetry_group_IT_number 69
_symmetry_cell_setting 'orthorhombic'
loop_
_space_group_symop_operation_xyz
x,y,z
-x,-y,z
x,-y,-z
-x,y,-z
-x,-y,-z
x,y,-z
-x,y,z
x,-y,z
x,1/2+y,1/2+z
-x,1/2-y,1/2+z
x,1/2-y,1/2-z
-x,1/2+y,1/2-z
-x,1/2-y,1/2-z
x,1/2+y,1/2-z
-x,1/2+y,1/2+z
x,1/2-y,1/2+z
1/2+x,y,1/2+z
1/2-x,-y,1/2+z
1/2+x,-y,1/2-z
1/2-x,y,1/2-z
1/2-x,-y,1/2-z
1/2+x,y,1/2-z
1/2-x,y,1/2+z
1/2+x,-y,1/2+z
1/2+x,1/2+y,z
1/2-x,1/2-y,z
1/2+x,1/2-y,-z
1/2-x,1/2+y,-z
1/2-x,1/2-y,-z
1/2+x,1/2+y,-z
1/2-x,1/2+y,z
1/2+x,1/2-y,z
loop_
_atom_site_type_symbol
_atom_site_label
_atom_site_fract_x
_atom_site_fract_y
_atom_site_fract_z
Si Si1 0.500000 0.649879 0.444673
Si Si2 0.000000 0.360063 0.711803
Si Si3 0.651600 0.641161 0.828433
Si Si4 0.137645 0.640243 0.101349
Si Si5 0.288063 0.873991 0.000000
Si Si6 0.250000 0.250000 0.250000
O O1 0.500000 0.500000 0.448577
O O2 0.500000 0.696880 0.500000
O O3 0.436387 0.682697 0.413172
O O4 0.000000 0.250000 0.750000
O O5 0.928074 0.350260 0.684535
O O6 0.000000 0.500000 0.733198
O O7 0.663907 0.500000 0.845994
O O8 0.667138 0.752231 0.865626
O O9 0.699911 0.668205 0.783010
O O10 0.138022 0.500000 0.123046
O O11 0.170465 0.627486 0.048968
O O12 0.250000 0.750000 0.000000
O O13 0.245835 0.000000 0.000000
#
# Coordination Sequence:
#
# PCOD9513188 Si02
#       6
#    16  16  32  32  16   8
#     4   9  15  32  63  95 125 158 202 252 298 358
#     4  10  21  42  66  90 122 161 204 258 316 379
#     4  11  25  43  66  94 125 163 209 262 320 377
#     4  10  21  38  64  93 123 161 205 251 306 367
#     4  10  22  39  57  85 123 166 207 248 296 361
#     4  12  26  46  68  88 126 166 216 266 322 376
#
# _framework density 20.050823000000001
#
# number of rings (size 3 to 8) (size 9 to 14) (size 15 to 20)
#    0.000    1.733    2.667    1.200    1.867    4.267 
#    0.000    0.000    0.000    0.800    0.000    0.000 
#    0.000    0.000    0.000    0.000    0.000    0.000 
#
# Total GULP energy -167165.268082 kJ/mol
# GULP energy per Si atom -5572.175603 kJ/mol
# Density = 2.000519 g / cm^3
# Si number density = 20.050823 Si / 1000 Ang^3
#
#
#
# Elastic Constant Matrix: (Units=GPa)
#
#
# Indices 1 2 3 4 5 6 
#
# 1 89.2252 39.3938 22.1050 0.0000 0.0000 0.0000
# 2 39.3938 173.2525 73.2003 0.0000 0.0000 0.0000
# 3 22.1050 73.2003 87.7277 0.0000 0.0000 0.0000
# 4 0.0000 0.0000 0.0000 44.3156 0.0000 0.0000
# 5 0.0000 0.0000 0.0000 0.0000 57.9977 0.0000
# 6 0.0000 0.0000 0.0000 0.0000 0.0000 20.5996
#
#
#
# Elastic Compliance Matrix: (Units=1/GPa)
#
#
# Indices 1 2 3 4 5 6 
#
# 1 0.012540 -0.002342 -0.001206 0.000000 0.000000 0.000000
# 2 -0.002342 0.009352 -0.007213 0.000000 0.000000 0.000000
# 3 -0.001206 -0.007213 0.017721 0.000000 0.000000 0.000000
# 4 0.000000 0.000000 0.000000 0.022565 0.000000 0.000000
# 5 0.000000 0.000000 0.000000 0.000000 0.017242 0.000000
# 6 0.000000 0.000000 0.000000 0.000000 0.000000 0.048545
#
#
# Mechanical properties :
#
#
# Convention : Reuss Voigt Hill
#
# Bulk Modulus (GPa) = 55.27298 68.84483 62.05890
# Shear Modulus (GPa) = 32.15048 38.94966 35.55007
#
# Velocity S-wave (km/s) = 4.00865 4.41221 4.21527
# Velocity P-wave (km/s) = 7.00371 7.76959 7.39657
#
# Compressibility (1/GPa) = 0.01809202
#
# Stress axis : x y z
#
# Youngs Moduli (GPa) = 79.74286 106.92778 56.42863
#
# Poissons Ratio (x) = 0.25042 0.06803
# Poissons Ratio (y) = 0.18676 0.40704
# Poissons Ratio (z) = 0.09614 0.77130
#
# Static dielectric constant tensor:
#      x y z
#    x 1.737660 0.000000 0.000000 
#    y 0.000000 1.673860 0.000000 
#    z 0.000000 0.000000 3.492160 
# 
# From -- ./inp_files/37021.got.cif
#   From: 2010.05.17/outbox.cif.g08.bks.cpg/sg69_19_cif.got.tgz:37021.got - 2010.06.03 19:29:58.
