data_PCOD9513868
_publ_section_title
;
Structure prediction by ZEFSAII (Michael W. Deem and Ramdas Pophale) SiO2 
 PCOD9513868
Probable space group: F M M M
;
_chemical_formula_sum "Si O2"
_cell_formula_units_Z 192
_cell_length_a 30.892643
_cell_length_b 18.341007
_cell_length_c 19.212580
_cell_angle_alpha 90.000000
_cell_angle_beta 90.000000
_cell_angle_gamma 90.000000
_cell_volume 10885.889740
_symmetry_space_group_name_H-M "F M M M"
_symmetry_group_IT_number 69
_symmetry_cell_setting 'orthorhombic'
loop_
_space_group_symop_operation_xyz
x,y,z
-x,-y,z
x,-y,-z
-x,y,-z
-x,-y,-z
x,y,-z
-x,y,z
x,-y,z
x,1/2+y,1/2+z
-x,1/2-y,1/2+z
x,1/2-y,1/2-z
-x,1/2+y,1/2-z
-x,1/2-y,1/2-z
x,1/2+y,1/2-z
-x,1/2+y,1/2+z
x,1/2-y,1/2+z
1/2+x,y,1/2+z
1/2-x,-y,1/2+z
1/2+x,-y,1/2-z
1/2-x,y,1/2-z
1/2-x,-y,1/2-z
1/2+x,y,1/2-z
1/2-x,y,1/2+z
1/2+x,-y,1/2+z
1/2+x,1/2+y,z
1/2-x,1/2-y,z
1/2+x,1/2-y,-z
1/2-x,1/2+y,-z
1/2-x,1/2-y,-z
1/2+x,1/2+y,-z
1/2-x,1/2+y,z
1/2+x,1/2-y,z
loop_
_atom_site_type_symbol
_atom_site_label
_atom_site_fract_x
_atom_site_fract_y
_atom_site_fract_z
Si Si1 0.000000 0.696663 0.317748
Si Si2 0.582076 0.583003 0.366381
Si Si3 0.759402 0.835774 0.081623
Si Si4 0.424800 0.918240 0.301060
Si Si5 0.324130 0.913283 0.313369
Si Si6 0.678490 0.588016 0.350060
Si Si7 0.500000 0.672446 0.418684
O O1 0.000000 0.750000 0.250000
O O2 0.958393 0.644353 0.319192
O O3 0.000000 0.750092 0.382200
O O4 0.579226 0.500000 0.393138
O O5 0.576942 0.580080 0.282918
O O6 0.630914 0.611401 0.376633
O O7 0.543028 0.629570 0.395628
O O8 0.750000 0.750000 0.091503
O O9 0.796483 0.866046 0.132975
O O10 0.716181 0.878421 0.104258
O O11 0.769501 0.848197 0.000000
O O12 0.375620 0.904805 0.325216
O O13 0.438010 0.000000 0.323994
O O14 0.315804 0.893175 0.232094
O O15 0.313770 0.000000 0.320698
O O16 0.679071 0.500000 0.352866
O O17 0.500000 0.679562 0.500000
#
# Coordination Sequence:
#
# PCOD9513868 Si02
#       7
#    16  32  32  32  32  32  16
#     4  12  21  35  59  87 113 150 190 226 268 339
#     4   9  18  35  57  83 111 145 184 224 277 343
#     4  11  24  38  51  77 115 152 187 230 289 348
#     4   9  18  36  62  87 109 139 188 243 282 320
#     4   9  19  37  60  85 109 139 187 241 283 329
#     4   9  19  36  60  84 107 138 186 237 278 329
#     4  12  25  36  49  80 125 158 182 225 279 333
#
# _framework density 17.637511
#
# number of rings (size 3 to 8) (size 9 to 14) (size 15 to 20)
#    0.000    2.167    1.667    3.500    0.000    8.000 
#    0.000    4.167    0.000    2.000    0.000    0.000 
#    0.000    0.000    0.000    0.000    0.000    0.000 
#
# Total GULP energy -267809.822406 kJ/mol
# GULP energy per Si atom -5579.371300 kJ/mol
# Density = 1.759737 g / cm^3
# Si number density = 17.637511 Si / 1000 Ang^3
#
#
#
# Elastic Constant Matrix: (Units=GPa)
#
#
# Indices 1 2 3 4 5 6 
#
# 1 109.4088 67.6107 64.2880 0.0000 0.0000 0.0000
# 2 67.6107 79.1208 45.8203 0.0000 0.0000 0.0000
# 3 64.2880 45.8203 69.6023 0.0000 0.0000 0.0000
# 4 0.0000 0.0000 0.0000 -92.7872 0.0000 0.0000
# 5 0.0000 0.0000 0.0000 0.0000 -4.5273 0.0000
# 6 0.0000 0.0000 0.0000 0.0000 0.0000 -27.8610
#
#
#
# Elastic Compliance Matrix: (Units=1/GPa)
#
#
# Indices 1 2 3 4 5 6 
#
# 1 0.027052 -0.013974 -0.015787 0.000000 0.000000 0.000000
# 2 -0.013974 0.027644 -0.005292 0.000000 0.000000 0.000000
# 3 -0.015787 -0.005292 0.032433 0.000000 0.000000 0.000000
# 4 0.000000 0.000000 0.000000 -0.010777 0.000000 0.000000
# 5 0.000000 0.000000 0.000000 0.000000 -0.220880 0.000000
# 6 0.000000 0.000000 0.000000 0.000000 0.000000 -0.035892
#
#
# Mechanical properties :
#
#
# Convention : Reuss Voigt Hill
#
# Bulk Modulus (GPa) = 58.74277 68.17442 63.45859
# Shear Modulus (GPa) = -47.78262 -19.67424 -33.72843
#
# Velocity S-wave (km/s) = -5.21059 -3.34350 -4.37774
# Velocity P-wave (km/s) = 1.68003 4.88177 3.24108
#
# Compressibility (1/GPa) = 0.01702337
#
# Stress axis : x y z
#
# Youngs Moduli (GPa) = 36.96625 36.17356 30.83296
#
# Poissons Ratio (x) = 0.50548 0.48676
# Poissons Ratio (y) = 0.51656 0.16317
# Poissons Ratio (z) = 0.58359 0.19143
#
# Static dielectric constant tensor:
#      x y z
#    x 1.620750 0.000000 0.000000 
#    y 0.000000 1.608730 0.000000 
#    z 0.000000 0.000000 1.578090 
# 
# From -- ./inp_files/27802.got.cif
#   From: 2010.05.17/outbox.cif.g08.bks.cpg/sg69_14_cif.got.tgz:27802.got - 2010.06.03 19:29:58.
