data_PCOD9513553
_publ_section_title
;
Structure prediction by ZEFSAII (Michael W. Deem and Ramdas Pophale) SiO2 
 PCOD9513553
Probable space group: F M M M
;
_chemical_formula_sum "Si O2"
_cell_formula_units_Z 160
_cell_length_a 11.004344
_cell_length_b 30.775871
_cell_length_c 25.696152
_cell_angle_alpha 90.000000
_cell_angle_beta 90.000000
_cell_angle_gamma 90.000000
_cell_volume 8702.471379
_symmetry_space_group_name_H-M "F M M M"
_symmetry_group_IT_number 69
_symmetry_cell_setting 'orthorhombic'
loop_
_space_group_symop_operation_xyz
x,y,z
-x,-y,z
x,-y,-z
-x,y,-z
-x,-y,-z
x,y,-z
-x,y,z
x,-y,z
x,1/2+y,1/2+z
-x,1/2-y,1/2+z
x,1/2-y,1/2-z
-x,1/2+y,1/2-z
-x,1/2-y,1/2-z
x,1/2+y,1/2-z
-x,1/2+y,1/2+z
x,1/2-y,1/2+z
1/2+x,y,1/2+z
1/2-x,-y,1/2+z
1/2+x,-y,1/2-z
1/2-x,y,1/2-z
1/2-x,-y,1/2-z
1/2+x,y,1/2-z
1/2-x,y,1/2+z
1/2+x,-y,1/2+z
1/2+x,1/2+y,z
1/2-x,1/2-y,z
1/2+x,1/2-y,-z
1/2-x,1/2+y,-z
1/2-x,1/2-y,-z
1/2+x,1/2+y,-z
1/2-x,1/2+y,z
1/2+x,1/2-y,z
loop_
_atom_site_type_symbol
_atom_site_label
_atom_site_fract_x
_atom_site_fract_y
_atom_site_fract_z
Si Si1 0.748206 0.910692 0.900708
Si Si2 0.500000 0.447037 0.063488
Si Si3 0.356959 0.176307 0.057358
Si Si4 0.856770 0.377910 0.791488
Si Si5 0.637273 0.500000 0.438448
Si Si6 0.138738 0.280268 0.167590
O O1 0.716165 0.868114 0.934244
O O2 0.692328 0.899745 0.844429
O O3 0.887529 0.923163 0.909153
O O4 0.689174 0.955099 0.919188
O O5 0.500000 0.500000 0.071671
O O6 0.500000 0.441274 0.000000
O O7 0.500000 0.164467 0.059303
O O8 0.338883 0.207508 0.106701
O O9 0.331292 0.194820 0.000000
O O10 0.750000 0.387328 0.750000
O O11 0.858079 0.326073 0.802337
O O12 0.000000 0.389853 0.780448
O O13 0.500000 0.500000 0.422338
O O14 0.651281 0.500000 0.500000
O O15 0.250000 0.250000 0.184520
O O16 0.000000 0.262437 0.172732
#
# Coordination Sequence:
#
# PCOD9513553 Si02
#       6
#    32  16  32  32  16  32
#     4  11  21  36  56  80 117 152 194 239 290 341
#     4  11  22  36  56  86 126 161 190 234 292 349
#     4   9  17  32  54  78 110 150 189 231 285 345
#     4  10  23  42  64  86 114 149 197 249 300 347
#     4  11  20  31  56  87 113 145 188 235 284 341
#     4   9  19  36  56  83 114 146 184 235 286 344
#
# _framework density 18.385581999999999
#
# number of rings (size 3 to 8) (size 9 to 14) (size 15 to 20)
#    0.000    2.000    1.000    4.800    1.400    3.200 
#    5.400    2.500    0.000    0.000    0.000    0.000 
#    0.000    0.000    0.000    0.000    0.000    0.000 
#
# Total GULP energy -222815.024006 kJ/mol
# GULP energy per Si atom -5570.375600 kJ/mol
# Density = 1.834374 g / cm^3
# Si number density = 18.385582 Si / 1000 Ang^3
#
#
#
# Elastic Constant Matrix: (Units=GPa)
#
#
# Indices 1 2 3 4 5 6 
#
# 1 167.8153 56.1986 38.8698 0.0000 0.0000 0.0000
# 2 56.1986 66.4885 14.7082 0.0000 0.0000 0.0000
# 3 38.8698 14.7082 86.2414 0.0000 0.0000 0.0000
# 4 0.0000 0.0000 0.0000 4.4417 0.0000 0.0000
# 5 0.0000 0.0000 0.0000 0.0000 27.4710 0.0000
# 6 0.0000 0.0000 0.0000 0.0000 0.0000 30.3437
#
#
#
# Elastic Compliance Matrix: (Units=1/GPa)
#
#
# Indices 1 2 3 4 5 6 
#
# 1 0.008937 -0.006924 -0.002847 0.000000 0.000000 0.000000
# 2 -0.006924 0.020995 -0.000460 0.000000 0.000000 0.000000
# 3 -0.002847 -0.000460 0.012957 0.000000 0.000000 0.000000
# 4 0.000000 0.000000 0.000000 0.225139 0.000000 0.000000
# 5 0.000000 0.000000 0.000000 0.000000 0.036402 0.000000
# 6 0.000000 0.000000 0.000000 0.000000 0.000000 0.032956
#
#
# Mechanical properties :
#
#
# Convention : Reuss Voigt Hill
#
# Bulk Modulus (GPa) = 44.59020 60.01093 52.30057
# Shear Modulus (GPa) = 13.68652 26.50254 20.09453
#
# Velocity S-wave (km/s) = 2.73136 3.80081 3.30957
# Velocity P-wave (km/s) = 5.85257 7.20920 6.56602
#
# Compressibility (1/GPa) = 0.02242645
#
# Stress axis : x y z
#
# Youngs Moduli (GPa) = 111.89166 47.63150 77.17827
#
# Poissons Ratio (x) = 0.32981 0.21974
# Poissons Ratio (y) = 0.77476 0.03548
# Poissons Ratio (z) = 0.31858 0.02190
#
# Static dielectric constant tensor:
#      x y z
#    x 1.558670 0.000000 0.000000 
#    y 0.000000 1.572200 0.000000 
#    z 0.000000 0.000000 1.621570 
# 
# From -- ./inp_files/40283.got.cif
#   From: 2010.05.17/outbox.cif.g08.bks.cpg/sg69_21_cif.got.tgz:40283.got - 2010.06.03 19:29:58.
