data_PCOD9513029
_publ_section_title
;
Structure prediction by ZEFSAII (Michael W. Deem and Ramdas Pophale) SiO2 
 PCOD9513029
Probable space group: F M M M
;
_chemical_formula_sum "Si O2"
_cell_formula_units_Z 176
_cell_length_a 18.669601
_cell_length_b 31.818164
_cell_length_c 14.701931
_cell_angle_alpha 90.000000
_cell_angle_beta 90.000000
_cell_angle_gamma 90.000000
_cell_volume 8733.423745
_symmetry_space_group_name_H-M "F M M M"
_symmetry_group_IT_number 69
_symmetry_cell_setting 'orthorhombic'
loop_
_space_group_symop_operation_xyz
x,y,z
-x,-y,z
x,-y,-z
-x,y,-z
-x,-y,-z
x,y,-z
-x,y,z
x,-y,z
x,1/2+y,1/2+z
-x,1/2-y,1/2+z
x,1/2-y,1/2-z
-x,1/2+y,1/2-z
-x,1/2-y,1/2-z
x,1/2+y,1/2-z
-x,1/2+y,1/2+z
x,1/2-y,1/2+z
1/2+x,y,1/2+z
1/2-x,-y,1/2+z
1/2+x,-y,1/2-z
1/2-x,y,1/2-z
1/2-x,-y,1/2-z
1/2+x,y,1/2-z
1/2-x,y,1/2+z
1/2+x,-y,1/2+z
1/2+x,1/2+y,z
1/2-x,1/2-y,z
1/2+x,1/2-y,-z
1/2-x,1/2+y,-z
1/2-x,1/2-y,-z
1/2+x,1/2+y,-z
1/2-x,1/2+y,z
1/2+x,1/2-y,z
loop_
_atom_site_type_symbol
_atom_site_label
_atom_site_fract_x
_atom_site_fract_y
_atom_site_fract_z
Si Si1 0.736637 0.703922 0.356247
Si Si2 0.082809 0.048226 0.111419
Si Si3 0.299189 0.385227 0.107549
Si Si4 0.644116 0.087076 0.111566
Si Si5 0.081858 0.500000 0.111371
Si Si6 0.077278 0.327886 0.890707
O O1 0.750000 0.706475 0.250000
O O2 0.750000 0.750000 0.396928
O O3 0.788741 0.665404 0.385570
O O4 0.652663 0.693667 0.368600
O O5 0.134985 0.086293 0.143102
O O6 0.000000 0.054566 0.139659
O O7 0.104554 0.000000 0.136754
O O8 0.082835 0.048764 0.000000
O O9 0.223358 0.401905 0.144375
O O10 0.299472 0.393565 0.000000
O O11 0.589620 0.123815 0.137803
O O12 0.619790 0.041924 0.142869
O O13 0.645342 0.087086 0.000000
O O14 0.000000 0.500000 0.139573
O O15 0.083146 0.500000 0.000000
O O16 0.000000 0.312094 0.855844
O O17 0.073815 0.326911 0.000000
#
# Coordination Sequence:
#
# PCOD9513029 Si02
#       6
#    32  32  32  32  16  32
#     4  10  21  37  53  72 101 135 172 216 267 321
#     4   8  14  25  43  70 103 133 162 205 257 302
#     4   9  17  29  48  72  96 127 168 210 253 306
#     4   8  14  22  36  62  94 124 153 191 238 290
#     4   9  14  18  28  54  92 123 145 179 230 282
#     4   9  17  32  54  77 100 129 168 211 259 313
#
# _framework density 20.152463000000001
#
# number of rings (size 3 to 8) (size 9 to 14) (size 15 to 20)
#    0.000    3.182    0.000    2.727    1.273    3.636 
#    0.000    3.636    0.000    2.727    0.000    0.000 
#    0.000    0.000    0.000    0.000    0.000    0.000 
#
# Total GULP energy -244988.491771 kJ/mol
# GULP energy per Si atom -5567.920268 kJ/mol
# Density = 2.010660 g / cm^3
# Si number density = 20.152463 Si / 1000 Ang^3
#
#
#
# Elastic Constant Matrix: (Units=GPa)
#
#
# Indices 1 2 3 4 5 6 
#
# 1 136.9436 91.6309 15.2343 0.0000 0.0000 0.0000
# 2 91.6309 161.7893 -0.1918 0.0000 0.0000 0.0000
# 3 15.2343 -0.1918 34.9317 0.0000 0.0000 0.0000
# 4 0.0000 0.0000 0.0000 27.6717 0.0000 0.0000
# 5 0.0000 0.0000 0.0000 0.0000 3.5106 0.0000
# 6 0.0000 0.0000 0.0000 0.0000 0.0000 15.3487
#
#
#
# Elastic Compliance Matrix: (Units=1/GPa)
#
#
# Indices 1 2 3 4 5 6 
#
# 1 0.012770 -0.007239 -0.005609 0.000000 0.000000 0.000000
# 2 -0.007239 0.010285 0.003214 0.000000 0.000000 0.000000
# 3 -0.005609 0.003214 0.031091 0.000000 0.000000 0.000000
# 4 0.000000 0.000000 0.000000 0.036138 0.000000 0.000000
# 5 0.000000 0.000000 0.000000 0.000000 0.284849 0.000000
# 6 0.000000 0.000000 0.000000 0.000000 0.000000 0.065152
#
#
# Mechanical properties :
#
#
# Convention : Reuss Voigt Hill
#
# Bulk Modulus (GPa) = 28.67241 60.77904 44.72573
# Shear Modulus (GPa) = 10.61166 24.43894 17.52530
#
# Velocity S-wave (km/s) = 2.29720 3.48617 2.95216
# Velocity P-wave (km/s) = 4.61463 6.81392 5.81912
#
# Compressibility (1/GPa) = 0.03487673
#
# Stress axis : x y z
#
# Youngs Moduli (GPa) = 78.30855 97.23275 32.16358
#
# Poissons Ratio (x) = 0.70387 0.18040
# Poissons Ratio (y) = 0.56688 -0.10336
# Poissons Ratio (z) = 0.43923 -0.31246
#
# Static dielectric constant tensor:
#      x y z
#    x 1.677100 0.000000 0.000000 
#    y 0.000000 1.741360 0.000000 
#    z 0.000000 0.000000 1.767050 
# 
# From -- ./inp_files/23575.got.cif
#   From: 2010.05.17/outbox.cif.g08.bks.cpg/sg69_12_cif.got.tgz:23575.got - 2010.06.03 19:29:58.
