data_PCOD9513729
_publ_section_title
;
Structure prediction by ZEFSAII (Michael W. Deem and Ramdas Pophale) SiO2 
 PCOD9513729
Probable space group: F M M M
;
_chemical_formula_sum "Si O2"
_cell_formula_units_Z 176
_cell_length_a 27.889781
_cell_length_b 20.375047
_cell_length_c 16.430089
_cell_angle_alpha 90.000000
_cell_angle_beta 90.000000
_cell_angle_gamma 90.000000
_cell_volume 9336.490061
_symmetry_space_group_name_H-M "F M M M"
_symmetry_group_IT_number 69
_symmetry_cell_setting 'orthorhombic'
loop_
_space_group_symop_operation_xyz
x,y,z
-x,-y,z
x,-y,-z
-x,y,-z
-x,-y,-z
x,y,-z
-x,y,z
x,-y,z
x,1/2+y,1/2+z
-x,1/2-y,1/2+z
x,1/2-y,1/2-z
-x,1/2+y,1/2-z
-x,1/2-y,1/2-z
x,1/2+y,1/2-z
-x,1/2+y,1/2+z
x,1/2-y,1/2+z
1/2+x,y,1/2+z
1/2-x,-y,1/2+z
1/2+x,-y,1/2-z
1/2-x,y,1/2-z
1/2-x,-y,1/2-z
1/2+x,y,1/2-z
1/2-x,y,1/2+z
1/2+x,-y,1/2+z
1/2+x,1/2+y,z
1/2-x,1/2-y,z
1/2+x,1/2-y,-z
1/2-x,1/2+y,-z
1/2-x,1/2-y,-z
1/2+x,1/2+y,-z
1/2-x,1/2+y,z
1/2+x,1/2-y,z
loop_
_atom_site_type_symbol
_atom_site_label
_atom_site_fract_x
_atom_site_fract_y
_atom_site_fract_z
Si Si1 0.860622 0.370505 0.822294
Si Si2 0.693039 0.256360 0.406712
Si Si3 0.187358 0.500000 0.900122
Si Si4 0.945805 0.425685 0.097413
Si Si5 0.557823 0.079797 0.500000
Si Si6 0.135287 0.124054 0.131962
Si Si7 0.799797 0.000000 0.096695
O O1 0.828533 0.308745 0.844993
O O2 0.834220 0.435346 0.857567
O O3 0.910352 0.371368 0.870607
O O4 0.873764 0.371025 0.727846
O O5 0.687021 0.280351 0.500000
O O6 0.750000 0.250000 0.392870
O O7 0.663752 0.188683 0.397650
O O8 0.244005 0.500000 0.882726
O O9 0.179368 0.500000 0.000000
O O10 0.931903 0.500000 0.124111
O O11 0.000000 0.414850 0.124435
O O12 0.944809 0.426347 0.000000
O O13 0.500000 0.094680 0.500000
O O14 0.588283 0.107775 0.577383
O O15 0.562211 0.000000 0.500000
O O16 0.172232 0.063908 0.124862
O O17 0.802560 0.000000 0.000000
#
# Coordination Sequence:
#
# PCOD9513729 Si02
#       7
#    32  32  16  32  16  32  16
#     4  12  24  36  61  97 130 162 212 264 317 382
#     4  11  24  43  66  91 129 178 217 256 318 394
#     4  11  23  37  58  92 133 172 203 253 307 381
#     4   9  18  35  59  85 120 163 200 246 307 371
#     4  11  24  46  75  98 122 167 224 273 333 387
#     4  12  23  42  64  92 127 163 211 275 324 371
#     4  11  21  39  63  84 122 169 216 253 308 377
#
# _framework density 18.850767999999999
#
# number of rings (size 3 to 8) (size 9 to 14) (size 15 to 20)
#    0.000    1.000    3.636    4.364    0.000    8.000 
#    0.000    2.727    0.000    2.182    0.000    0.000 
#    0.000    0.000    0.000    0.000    0.000    0.000 
#
# Total GULP energy -245674.645016 kJ/mol
# GULP energy per Si atom -5583.514659 kJ/mol
# Density = 1.880786 g / cm^3
# Si number density = 18.850768 Si / 1000 Ang^3
#
#
#
# Elastic Constant Matrix: (Units=GPa)
#
#
# Indices 1 2 3 4 5 6 
#
# 1 117.2860 41.6403 62.0063 0.0000 0.0000 0.0000
# 2 41.6403 88.1562 34.9145 0.0000 0.0000 0.0000
# 3 62.0063 34.9145 103.1629 0.0000 0.0000 0.0000
# 4 0.0000 0.0000 0.0000 419.8681 0.0000 0.0000
# 5 0.0000 0.0000 0.0000 0.0000 3.1698 0.0000
# 6 0.0000 0.0000 0.0000 0.0000 0.0000 14.8186
#
#
#
# Elastic Compliance Matrix: (Units=1/GPa)
#
#
# Indices 1 2 3 4 5 6 
#
# 1 0.013436 -0.003635 -0.006845 0.000000 0.000000 0.000000
# 2 -0.003635 0.014083 -0.002581 0.000000 0.000000 0.000000
# 3 -0.006845 -0.002581 0.014681 0.000000 0.000000 0.000000
# 4 0.000000 0.000000 0.000000 0.002382 0.000000 0.000000
# 5 0.000000 0.000000 0.000000 0.000000 0.315473 0.000000
# 6 0.000000 0.000000 0.000000 0.000000 0.000000 0.067483
#
#
# Mechanical properties :
#
#
# Convention : Reuss Voigt Hill
#
# Bulk Modulus (GPa) = 62.20262 65.08080 63.64171
# Shear Modulus (GPa) = 10.89278 98.90759 54.90019
#
# Velocity S-wave (km/s) = 2.40644 7.25139 5.40248
# Velocity P-wave (km/s) = 6.38673 10.23276 8.52935
#
# Compressibility (1/GPa) = 0.01607649
#
# Stress axis : x y z
#
# Youngs Moduli (GPa) = 74.42851 71.00802 68.11359
#
# Poissons Ratio (x) = 0.25813 0.46625
# Poissons Ratio (y) = 0.27057 0.17582
# Poissons Ratio (z) = 0.50948 0.18329
#
# Static dielectric constant tensor:
#      x y z
#    x 1.767270 0.000000 0.000000 
#    y 0.000000 1.656480 0.000000 
#    z 0.000000 0.000000 1.665100 
# 
# From -- ./inp_files/26796.got.cif
#   From: 2010.05.17/outbox.cif.g08.bks.cpg/sg69_14_cif.got.tgz:26796.got - 2010.06.03 19:29:58.
