data_PCOD9513522
_publ_section_title
;
Structure prediction by ZEFSAII (Michael W. Deem and Ramdas Pophale) SiO2 
 PCOD9513522
Probable space group: F M M M
;
_chemical_formula_sum "Si O2"
_cell_formula_units_Z 112
_cell_length_a 15.651320
_cell_length_b 25.131351
_cell_length_c 14.391843
_cell_angle_alpha 90.000000
_cell_angle_beta 90.000000
_cell_angle_gamma 90.000000
_cell_volume 5660.870493
_symmetry_space_group_name_H-M "F M M M"
_symmetry_group_IT_number 69
_symmetry_cell_setting 'orthorhombic'
loop_
_space_group_symop_operation_xyz
x,y,z
-x,-y,z
x,-y,-z
-x,y,-z
-x,-y,-z
x,y,-z
-x,y,z
x,-y,z
x,1/2+y,1/2+z
-x,1/2-y,1/2+z
x,1/2-y,1/2-z
-x,1/2+y,1/2-z
-x,1/2-y,1/2-z
x,1/2+y,1/2-z
-x,1/2+y,1/2+z
x,1/2-y,1/2+z
1/2+x,y,1/2+z
1/2-x,-y,1/2+z
1/2+x,-y,1/2-z
1/2-x,y,1/2-z
1/2-x,-y,1/2-z
1/2+x,y,1/2-z
1/2-x,y,1/2+z
1/2+x,-y,1/2+z
1/2+x,1/2+y,z
1/2-x,1/2-y,z
1/2+x,1/2-y,-z
1/2-x,1/2+y,-z
1/2-x,1/2-y,-z
1/2+x,1/2+y,-z
1/2-x,1/2+y,z
1/2+x,1/2-y,z
loop_
_atom_site_type_symbol
_atom_site_label
_atom_site_fract_x
_atom_site_fract_y
_atom_site_fract_z
Si Si1 0.775156 0.934995 0.500000
Si Si2 0.321376 0.406126 0.814743
Si Si3 0.000000 0.061842 0.894947
Si Si4 0.601716 0.842776 0.000000
Si Si5 0.896934 0.807851 0.706104
O O1 0.724048 0.911420 0.586853
O O2 0.864549 0.903508 0.500000
O O3 0.777908 0.000000 0.500000
O O4 0.250000 0.433834 0.750000
O O5 0.415756 0.427309 0.835325
O O6 0.343314 0.350325 0.765321
O O7 0.000000 0.000000 0.911072
O O8 0.000000 0.087660 0.000000
O O9 0.627378 0.814322 0.902951
O O10 0.500000 0.843036 0.000000
O O11 0.882335 0.750000 0.750000
O O12 0.000000 0.818394 0.713420
#
# Coordination Sequence:
#
# PCOD9513522 Si02
#       5
#    16  32  16  16  32
#     4  12  26  43  65  99 136 176 228 285 338 403
#     4  12  24  43  67  99 136 172 231 285 334 412
#     4  11  24  44  67  93 135 187 231 284 347 405
#     4  10  22  46  66  94 137 175 222 283 338 408
#     4  10  22  43  70  98 131 176 223 276 342 409
#
# _framework density 19.784942000000001
#
# number of rings (size 3 to 8) (size 9 to 14) (size 15 to 20)
#    0.000    1.000    5.714    0.857    0.000    4.286 
#    0.000    2.857    0.000    0.000    0.000    0.000 
#    0.000    0.000    0.000    0.000    0.000    0.000 
#
# Total GULP energy -155909.188063 kJ/mol
# GULP energy per Si atom -5568.185288 kJ/mol
# Density = 1.973991 g / cm^3
# Si number density = 19.784942 Si / 1000 Ang^3
#
#
#
# Elastic Constant Matrix: (Units=GPa)
#
#
# Indices 1 2 3 4 5 6 
#
# 1 98.4121 36.2724 60.4844 0.0000 0.0000 0.0000
# 2 36.2724 115.1157 81.5209 0.0000 0.0000 0.0000
# 3 60.4844 81.5209 194.9848 0.0000 0.0000 0.0000
# 4 0.0000 0.0000 0.0000 46.7742 0.0000 0.0000
# 5 0.0000 0.0000 0.0000 0.0000 30.6084 0.0000
# 6 0.0000 0.0000 0.0000 0.0000 0.0000 4421.7851
#
#
#
# Elastic Compliance Matrix: (Units=1/GPa)
#
#
# Indices 1 2 3 4 5 6 
#
# 1 0.012794 -0.001734 -0.003244 0.000000 0.000000 0.000000
# 2 -0.001734 0.012576 -0.004720 0.000000 0.000000 0.000000
# 3 -0.003244 -0.004720 0.008108 0.000000 0.000000 0.000000
# 4 0.000000 0.000000 0.000000 0.021379 0.000000 0.000000
# 5 0.000000 0.000000 0.000000 0.000000 0.032671 0.000000
# 6 0.000000 0.000000 0.000000 0.000000 0.000000 0.000226
#
#
# Mechanical properties :
#
#
# Convention : Reuss Voigt Hill
#
# Bulk Modulus (GPa) = 71.01035 85.00754 78.00895
# Shear Modulus (GPa) = 44.70516 915.18254 479.94385
#
# Velocity S-wave (km/s) = 4.75863 21.53066 15.59189
# Velocity P-wave (km/s) = 8.13399 25.71287 19.06978
#
# Compressibility (1/GPa) = 0.01408245
#
# Stress axis : x y z
#
# Youngs Moduli (GPa) = 78.16075 79.51785 123.33372
#
# Poissons Ratio (x) = 0.13791 0.40005
# Poissons Ratio (y) = 0.13556 0.58211
# Poissons Ratio (z) = 0.25353 0.37531
#
# Static dielectric constant tensor:
#      x y z
#    x 1.653580 0.000000 0.000000 
#    y 0.000000 1.666690 0.000000 
#    z 0.000000 0.000000 1.686630 
# 
# From -- ./inp_files/14328.got.cif
#   From: 2010.05.17/outbox.cif.g08.bks.cpg/sg69_8_cif.got.tgz:14328.got - 2010.06.03 19:29:58.
