data_PCOD9513535
_publ_section_title
;
Structure prediction by ZEFSAII (Michael W. Deem and Ramdas Pophale) SiO2 
 PCOD9513535
Probable space group: F M M M
;
_chemical_formula_sum "Si O2"
_cell_formula_units_Z 160
_cell_length_a 14.121639
_cell_length_b 20.409244
_cell_length_c 26.279836
_cell_angle_alpha 90.000000
_cell_angle_beta 90.000000
_cell_angle_gamma 90.000000
_cell_volume 7574.163463
_symmetry_space_group_name_H-M "F M M M"
_symmetry_group_IT_number 69
_symmetry_cell_setting 'orthorhombic'
loop_
_space_group_symop_operation_xyz
x,y,z
-x,-y,z
x,-y,-z
-x,y,-z
-x,-y,-z
x,y,-z
-x,y,z
x,-y,z
x,1/2+y,1/2+z
-x,1/2-y,1/2+z
x,1/2-y,1/2-z
-x,1/2+y,1/2-z
-x,1/2-y,1/2-z
x,1/2+y,1/2-z
-x,1/2+y,1/2+z
x,1/2-y,1/2+z
1/2+x,y,1/2+z
1/2-x,-y,1/2+z
1/2+x,-y,1/2-z
1/2-x,y,1/2-z
1/2-x,-y,1/2-z
1/2+x,y,1/2-z
1/2-x,y,1/2+z
1/2+x,-y,1/2+z
1/2+x,1/2+y,z
1/2-x,1/2-y,z
1/2+x,1/2-y,-z
1/2-x,1/2+y,-z
1/2-x,1/2-y,-z
1/2+x,1/2+y,-z
1/2-x,1/2+y,z
1/2+x,1/2-y,z
loop_
_atom_site_type_symbol
_atom_site_label
_atom_site_fract_x
_atom_site_fract_y
_atom_site_fract_z
Si Si1 0.648197 0.572512 0.277234
Si Si2 0.395612 0.307363 0.209903
Si Si3 0.609319 0.775373 0.058017
Si Si4 0.758970 0.357601 0.867955
Si Si5 0.107493 0.883521 0.058716
O O1 0.606732 0.500000 0.278573
O O2 0.750000 0.567516 0.250000
O O3 0.598177 0.626754 0.243083
O O4 0.670325 0.601238 0.332690
O O5 0.500000 0.293766 0.186745
O O6 0.373523 0.250000 0.250000
O O7 0.313163 0.318413 0.169226
O O8 0.500000 0.794607 0.066819
O O9 0.679155 0.810381 0.096692
O O10 0.611622 0.696264 0.060170
O O11 0.635813 0.793490 0.000000
O O12 0.689982 0.402668 0.902576
O O13 0.000000 0.902815 0.073390
O O14 0.122587 0.903370 0.000000
#
# Coordination Sequence:
#
# PCOD9513535 Si02
#       5
#    32  32  32  32  32
#     4   9  21  39  56  77 110 153 200 239 279 342
#     4  10  23  38  54  84 120 149 186 241 297 347
#     4   9  19  33  50  80 118 151 187 233 287 350
#     4  11  20  32  58  80 109 147 193 233 293 343
#     4   9  18  31  49  80 117 149 186 233 291 357
#
# _framework density 21.124445000000001
#
# number of rings (size 3 to 8) (size 9 to 14) (size 15 to 20)
#    0.000    2.400    0.000    3.000    5.600    5.600 
#    0.000    0.000    0.000    4.800    0.000    2.800 
#    0.000    0.000    0.000    0.000    0.000    0.000 
#
# Total GULP energy -223500.312415 kJ/mol
# GULP energy per Si atom -5587.507810 kJ/mol
# Density = 2.107636 g / cm^3
# Si number density = 21.124445 Si / 1000 Ang^3
#
#
#
# Elastic Constant Matrix: (Units=GPa)
#
#
# Indices 1 2 3 4 5 6 
#
# 1 98.4264 19.6559 46.2658 0.0000 0.0000 0.0000
# 2 19.6559 61.6062 29.5141 0.0000 0.0000 0.0000
# 3 46.2658 29.5141 110.9247 0.0000 0.0000 0.0000
# 4 0.0000 0.0000 0.0000 9.8495 0.0000 0.0000
# 5 0.0000 0.0000 0.0000 0.0000 -0.7856 0.0000
# 6 0.0000 0.0000 0.0000 0.0000 0.0000 117.7246
#
#
#
# Elastic Compliance Matrix: (Units=1/GPa)
#
#
# Indices 1 2 3 4 5 6 
#
# 1 0.012800 -0.001749 -0.004873 0.000000 0.000000 0.000000
# 2 -0.001749 0.018843 -0.004284 0.000000 0.000000 0.000000
# 3 -0.004873 -0.004284 0.012188 0.000000 0.000000 0.000000
# 4 0.000000 0.000000 0.000000 0.101528 0.000000 0.000000
# 5 0.000000 0.000000 0.000000 0.000000 -1.272990 0.000000
# 6 0.000000 0.000000 0.000000 0.000000 0.000000 0.008494
#
#
# Mechanical properties :
#
#
# Convention : Reuss Voigt Hill
#
# Bulk Modulus (GPa) = 45.41912 51.31432 48.36672
# Shear Modulus (GPa) = -4.58722 37.05913 16.23595
#
# Velocity S-wave (km/s) = -1.47521 4.19301 2.77535
# Velocity P-wave (km/s) = 4.31807 6.91274 5.76332
#
# Compressibility (1/GPa) = 0.02201716
#
# Stress axis : x y z
#
# Youngs Moduli (GPa) = 78.12541 53.07133 82.05064
#
# Poissons Ratio (x) = 0.09283 0.39986
# Poissons Ratio (y) = 0.13666 0.35150
# Poissons Ratio (z) = 0.38073 0.22735
#
# Static dielectric constant tensor:
#      x y z
#    x 1.808320 0.000000 0.000000 
#    y 0.000000 1.754610 0.000000 
#    z 0.000000 0.000000 1.789630 
# 
# From -- ./inp_files/41051.got.cif
#   From: 2010.05.17/outbox.cif.g08.bks.cpg/sg69_21_cif.got.tgz:41051.got - 2010.06.03 19:29:58.
