data_PCOD9513847
_publ_section_title
;
Structure prediction by ZEFSAII (Michael W. Deem and Ramdas Pophale) SiO2 
 PCOD9513847
Probable space group: F M M M
;
_chemical_formula_sum "Si O2"
_cell_formula_units_Z 128
_cell_length_a 23.989631
_cell_length_b 18.081870
_cell_length_c 15.369257
_cell_angle_alpha 90.000000
_cell_angle_beta 90.000000
_cell_angle_gamma 90.000000
_cell_volume 6666.836174
_symmetry_space_group_name_H-M "F M M M"
_symmetry_group_IT_number 69
_symmetry_cell_setting 'orthorhombic'
loop_
_space_group_symop_operation_xyz
x,y,z
-x,-y,z
x,-y,-z
-x,y,-z
-x,-y,-z
x,y,-z
-x,y,z
x,-y,z
x,1/2+y,1/2+z
-x,1/2-y,1/2+z
x,1/2-y,1/2-z
-x,1/2+y,1/2-z
-x,1/2-y,1/2-z
x,1/2+y,1/2-z
-x,1/2+y,1/2+z
x,1/2-y,1/2+z
1/2+x,y,1/2+z
1/2-x,-y,1/2+z
1/2+x,-y,1/2-z
1/2-x,y,1/2-z
1/2-x,-y,1/2-z
1/2+x,y,1/2-z
1/2-x,y,1/2+z
1/2+x,-y,1/2+z
1/2+x,1/2+y,z
1/2-x,1/2-y,z
1/2+x,1/2-y,-z
1/2-x,1/2+y,-z
1/2-x,1/2-y,-z
1/2+x,1/2+y,-z
1/2-x,1/2+y,z
1/2+x,1/2-y,z
loop_
_atom_site_type_symbol
_atom_site_label
_atom_site_fract_x
_atom_site_fract_y
_atom_site_fract_z
Si Si1 0.000000 0.087438 0.357081
Si Si2 0.119317 0.187423 0.898933
Si Si3 0.000000 0.323211 0.688634
Si Si4 0.685240 0.414584 0.765605
Si Si5 0.377727 0.362213 0.402809
O O1 0.943755 0.122161 0.395534
O O2 0.000000 0.108223 0.255078
O O3 0.000000 0.000000 0.371503
O O4 0.157896 0.139279 0.836149
O O5 0.131836 0.274743 0.890000
O O6 0.055618 0.176978 0.868133
O O7 0.125821 0.167350 0.000000
O O8 0.000000 0.250000 0.750000
O O9 0.680535 0.500000 0.793581
O O10 0.750000 0.397206 0.750000
O O11 0.652731 0.404246 0.674718
O O12 0.359058 0.383282 0.500000
#
# Coordination Sequence:
#
# PCOD9513847 Si02
#       5
#    16  32  16  32  32
#     4  12  23  36  61  95 129 162 201 250 312 373
#     4  11  23  40  65  96 128 164 209 259 314 378
#     4  12  19  37  65  92 128 171 204 249 308 378
#     4  11  25  44  64  88 123 167 212 261 318 378
#     4  11  23  40  64  94 125 161 206 259 315 371
#
# _framework density 19.199511999999999
#
# number of rings (size 3 to 8) (size 9 to 14) (size 15 to 20)
#    0.000    0.750    5.000    2.250    0.000    8.000 
#    0.000    5.000    0.000    2.250    0.000    0.000 
#    0.000    0.000    0.000    0.000    0.000    0.000 
#
# Total GULP energy -178990.226442 kJ/mol
# GULP energy per Si atom -5593.444576 kJ/mol
# Density = 1.915581 g / cm^3
# Si number density = 19.199512 Si / 1000 Ang^3
#
#
#
# Elastic Constant Matrix: (Units=GPa)
#
#
# Indices 1 2 3 4 5 6 
#
# 1 113.8015 50.8799 42.7886 0.0000 0.0000 0.0000
# 2 50.8799 98.4432 54.2522 0.0000 0.0000 0.0000
# 3 42.7886 54.2522 110.4151 0.0000 0.0000 0.0000
# 4 0.0000 0.0000 0.0000 -1.8757 0.0000 0.0000
# 5 0.0000 0.0000 0.0000 0.0000 -6.7037 0.0000
# 6 0.0000 0.0000 0.0000 0.0000 0.0000 27.1504
#
#
#
# Elastic Compliance Matrix: (Units=1/GPa)
#
#
# Indices 1 2 3 4 5 6 
#
# 1 0.011792 -0.004904 -0.002160 0.000000 0.000000 0.000000
# 2 -0.004904 0.015970 -0.005946 0.000000 0.000000 0.000000
# 3 -0.002160 -0.005946 0.012815 0.000000 0.000000 0.000000
# 4 0.000000 0.000000 0.000000 -0.533124 0.000000 0.000000
# 5 0.000000 0.000000 0.000000 0.000000 -0.149172 0.000000
# 6 0.000000 0.000000 0.000000 0.000000 0.000000 0.036832
#
#
# Mechanical properties :
#
#
# Convention : Reuss Voigt Hill
#
# Bulk Modulus (GPa) = 68.69855 68.72234 68.71044
# Shear Modulus (GPa) = -8.71060 15.36348 3.32644
#
# Velocity S-wave (km/s) = -2.13231 2.83185 1.31770
# Velocity P-wave (km/s) = 5.45864 6.82378 6.17903
#
# Compressibility (1/GPa) = 0.01455635
#
# Stress axis : x y z
#
# Youngs Moduli (GPa) = 84.80289 62.61788 78.03083
#
# Poissons Ratio (x) = 0.30710 0.16855
# Poissons Ratio (y) = 0.41590 0.46399
# Poissons Ratio (z) = 0.18317 0.37234
#
# Static dielectric constant tensor:
#      x y z
#    x 1.648820 0.000000 0.000000 
#    y 0.000000 1.659430 0.000000 
#    z 0.000000 0.000000 1.660660 
# 
# From -- ./inp_files/18654.got.cif
#   From: 2010.05.17/outbox.cif.g08.bks.cpg/sg69_10_cif.got.tgz:18654.got - 2010.06.03 19:29:58.
