data_PCOD9513047
_publ_section_title
;
Structure prediction by ZEFSAII (Michael W. Deem and Ramdas Pophale) SiO2 
 PCOD9513047
Probable space group: F M M M
;
_chemical_formula_sum "Si O2"
_cell_formula_units_Z 160
_cell_length_a 13.960755
_cell_length_b 30.337690
_cell_length_c 19.067227
_cell_angle_alpha 90.000000
_cell_angle_beta 90.000000
_cell_angle_gamma 90.000000
_cell_volume 8075.677216
_symmetry_space_group_name_H-M "F M M M"
_symmetry_group_IT_number 69
_symmetry_cell_setting 'orthorhombic'
loop_
_space_group_symop_operation_xyz
x,y,z
-x,-y,z
x,-y,-z
-x,y,-z
-x,-y,-z
x,y,-z
-x,y,z
x,-y,z
x,1/2+y,1/2+z
-x,1/2-y,1/2+z
x,1/2-y,1/2-z
-x,1/2+y,1/2-z
-x,1/2-y,1/2-z
x,1/2+y,1/2-z
-x,1/2+y,1/2+z
x,1/2-y,1/2+z
1/2+x,y,1/2+z
1/2-x,-y,1/2+z
1/2+x,-y,1/2-z
1/2-x,y,1/2-z
1/2-x,-y,1/2-z
1/2+x,y,1/2-z
1/2-x,y,1/2+z
1/2+x,-y,1/2+z
1/2+x,1/2+y,z
1/2-x,1/2-y,z
1/2+x,1/2-y,-z
1/2-x,1/2+y,-z
1/2-x,1/2-y,-z
1/2+x,1/2+y,-z
1/2-x,1/2+y,z
1/2+x,1/2-y,z
loop_
_atom_site_type_symbol
_atom_site_label
_atom_site_fract_x
_atom_site_fract_y
_atom_site_fract_z
Si Si1 0.829807 0.644253 0.189112
Si Si2 0.000000 0.787143 0.690468
Si Si3 0.841101 0.952637 0.084183
Si Si4 0.671051 0.547327 0.312508
Si Si5 0.500000 0.287975 0.084264
Si Si6 0.837903 0.143972 0.084347
O O1 0.750000 0.646922 0.250000
O O2 0.907630 0.681880 0.195734
O O3 0.876130 0.595189 0.191794
O O4 0.765902 0.648519 0.118935
O O5 0.000000 0.750000 0.750000
O O6 0.000000 0.759585 0.618585
O O7 0.734572 0.952633 0.116540
O O8 0.879561 0.904492 0.105505
O O9 0.884437 0.000000 0.107262
O O10 0.841429 0.953017 0.000000
O O11 0.619375 0.500000 0.308253
O O12 0.750000 0.547127 0.250000
O O13 0.592008 0.316880 0.106555
O O14 0.500000 0.285546 0.000000
O O15 0.832100 0.144588 0.000000
#
# Coordination Sequence:
#
# PCOD9513047 Si02
#       6
#    32  16  32  32  16  32
#     4  10  21  37  57  80 106 137 172 211 259 313
#     4  12  26  40  55  78 105 134 176 226 266 305
#     4   8  13  23  43  72 103 134 167 203 247 301
#     4   8  14  27  49  75 102 131 162 199 246 302
#     4  10  22  38  55  77 105 137 178 226 267 305
#     4   9  18  34  55  78 106 140 175 213 260 311
#
# _framework density 19.812581000000002
#
# number of rings (size 3 to 8) (size 9 to 14) (size 15 to 20)
#    0.000    2.800    0.000    1.200    0.000    3.600 
#    0.000    3.000    0.000    3.000    0.000   15.400 
#    0.000   16.800    0.000    0.000    0.000    0.000 
#
# Total GULP energy -222716.282984 kJ/mol
# GULP energy per Si atom -5567.907075 kJ/mol
# Density = 1.976749 g / cm^3
# Si number density = 19.812581 Si / 1000 Ang^3
#
#
#
# Elastic Constant Matrix: (Units=GPa)
#
#
# Indices 1 2 3 4 5 6 
#
# 1 75.9339 72.3886 16.2885 0.0000 0.0000 0.0000
# 2 72.3886 213.0170 28.9221 0.0000 0.0000 0.0000
# 3 16.2885 28.9221 25.0648 0.0000 0.0000 0.0000
# 4 0.0000 0.0000 0.0000 31.5962 0.0000 0.0000
# 5 0.0000 0.0000 0.0000 0.0000 10.7078 0.0000
# 6 0.0000 0.0000 0.0000 0.0000 0.0000 95.5875
#
#
#
# Elastic Compliance Matrix: (Units=1/GPa)
#
#
# Indices 1 2 3 4 5 6 
#
# 1 0.020259 -0.006044 -0.006192 0.000000 0.000000 0.000000
# 2 -0.006044 0.007370 -0.004576 0.000000 0.000000 0.000000
# 3 -0.006192 -0.004576 0.049200 0.000000 0.000000 0.000000
# 4 0.000000 0.000000 0.000000 0.031649 0.000000 0.000000
# 5 0.000000 0.000000 0.000000 0.000000 0.093390 0.000000
# 6 0.000000 0.000000 0.000000 0.000000 0.000000 0.010462
#
#
# Mechanical properties :
#
#
# Convention : Reuss Voigt Hill
#
# Bulk Modulus (GPa) = 23.14481 61.02378 42.08430
# Shear Modulus (GPa) = 19.20453 40.67275 29.93864
#
# Velocity S-wave (km/s) = 3.11675 4.53578 3.89149
# Velocity P-wave (km/s) = 4.96583 7.63534 6.44042
#
# Compressibility (1/GPa) = 0.04320622
#
# Stress axis : x y z
#
# Youngs Moduli (GPa) = 49.36015 135.69143 20.32502
#
# Poissons Ratio (x) = 0.82011 0.12584
# Poissons Ratio (y) = 0.29833 0.09301
# Poissons Ratio (z) = 0.30561 0.62093
#
# Static dielectric constant tensor:
#      x y z
#    x 1.728550 0.000000 0.000000 
#    y 0.000000 1.757490 0.000000 
#    z 0.000000 0.000000 1.731110 
# 
# From -- ./inp_files/21843.got.cif
#   From: 2010.05.17/outbox.cif.g08.bks.cpg/sg69_11_cif.got.tgz:21843.got - 2010.06.03 19:29:58.
