data_PCOD9513325
_publ_section_title
;
Structure prediction by ZEFSAII (Michael W. Deem and Ramdas Pophale) SiO2 
 PCOD9513325
Probable space group: F M M M
;
_chemical_formula_sum "Si O2"
_cell_formula_units_Z 160
_cell_length_a 22.237381
_cell_length_b 22.314983
_cell_length_c 17.971482
_cell_angle_alpha 90.000000
_cell_angle_beta 90.000000
_cell_angle_gamma 90.000000
_cell_volume 8917.930626
_symmetry_space_group_name_H-M "F M M M"
_symmetry_group_IT_number 69
_symmetry_cell_setting 'orthorhombic'
loop_
_space_group_symop_operation_xyz
x,y,z
-x,-y,z
x,-y,-z
-x,y,-z
-x,-y,-z
x,y,-z
-x,y,z
x,-y,z
x,1/2+y,1/2+z
-x,1/2-y,1/2+z
x,1/2-y,1/2-z
-x,1/2+y,1/2-z
-x,1/2-y,1/2-z
x,1/2+y,1/2-z
-x,1/2+y,1/2+z
x,1/2-y,1/2+z
1/2+x,y,1/2+z
1/2-x,-y,1/2+z
1/2+x,-y,1/2-z
1/2-x,y,1/2-z
1/2-x,-y,1/2-z
1/2+x,y,1/2-z
1/2-x,y,1/2+z
1/2+x,-y,1/2+z
1/2+x,1/2+y,z
1/2-x,1/2-y,z
1/2+x,1/2-y,-z
1/2-x,1/2+y,-z
1/2-x,1/2-y,-z
1/2+x,1/2+y,-z
1/2-x,1/2+y,z
1/2+x,1/2-y,z
loop_
_atom_site_type_symbol
_atom_site_label
_atom_site_fract_x
_atom_site_fract_y
_atom_site_fract_z
Si Si1 0.754596 0.865571 0.417511
Si Si2 0.146231 0.500000 0.736743
Si Si3 0.880761 0.183317 0.913962
Si Si4 0.344859 0.707120 0.317433
Si Si5 0.261658 0.000000 0.870336
Si Si6 0.430354 0.379476 0.225465
O O1 0.773462 0.844262 0.500000
O O2 0.684865 0.848167 0.408499
O O3 0.792961 0.833148 0.353722
O O4 0.762422 0.937033 0.412899
O O5 0.199708 0.500000 0.676488
O O6 0.181732 0.500000 0.814647
O O7 0.105344 0.558365 0.728538
O O8 0.871239 0.249682 0.881046
O O9 0.923419 0.148341 0.857051
O O10 0.899334 0.183063 0.000000
O O11 0.323261 0.750000 0.250000
O O12 0.395978 0.665673 0.281040
O O13 0.500000 0.386362 0.244674
#
# Coordination Sequence:
#
# PCOD9513325 Si02
#       6
#    32  16  32  32  16  32
#     4  11  21  37  59  89 123 151 183 236 302 354
#     4  11  21  38  62  87 115 145 191 240 301 335
#     4  10  22  38  58  86 120 152 187 234 289 350
#     4  10  22  36  59  87 117 152 193 238 285 342
#     4  11  21  36  64  90 112 150 185 241 299 350
#     4  11  23  40  60  83 113 155 198 239 280 332
#
# _framework density 17.941382000000001
#
# number of rings (size 3 to 8) (size 9 to 14) (size 15 to 20)
#    0.000    1.400    4.000    1.800    0.000   11.200 
#    0.000    0.500    0.000    3.000    0.000    1.400 
#    0.000    0.000    0.000    0.000    0.000    0.000 
#
# Total GULP energy -223434.358245 kJ/mol
# GULP energy per Si atom -5585.858956 kJ/mol
# Density = 1.790055 g / cm^3
# Si number density = 17.941382 Si / 1000 Ang^3
#
#
#
# Elastic Constant Matrix: (Units=GPa)
#
#
# Indices 1 2 3 4 5 6 
#
# 1 80.9623 29.3337 30.5285 0.0000 0.0000 0.0000
# 2 29.3337 116.0743 29.9295 0.0000 0.0000 0.0000
# 3 30.5285 29.9295 87.0684 0.0000 0.0000 0.0000
# 4 0.0000 0.0000 0.0000 17.3641 0.0000 0.0000
# 5 0.0000 0.0000 0.0000 0.0000 15.2666 0.0000
# 6 0.0000 0.0000 0.0000 0.0000 0.0000 -1.0918
#
#
#
# Elastic Compliance Matrix: (Units=1/GPa)
#
#
# Indices 1 2 3 4 5 6 
#
# 1 0.014947 -0.002662 -0.004326 0.000000 0.000000 0.000000
# 2 -0.002662 0.009927 -0.002479 0.000000 0.000000 0.000000
# 3 -0.004326 -0.002479 0.013854 0.000000 0.000000 0.000000
# 4 0.000000 0.000000 0.000000 0.057590 0.000000 0.000000
# 5 0.000000 0.000000 0.000000 0.000000 0.065503 0.000000
# 6 0.000000 0.000000 0.000000 0.000000 0.000000 -0.915910
#
#
# Mechanical properties :
#
#
# Convention : Reuss Voigt Hill
#
# Bulk Modulus (GPa) = 50.51867 51.52095 51.01981
# Shear Modulus (GPa) = -6.86288 19.26200 6.19956
#
# Velocity S-wave (km/s) = -1.95793 3.28015 1.86090
# Velocity P-wave (km/s) = 4.80702 6.56692 5.75465
#
# Compressibility (1/GPa) = 0.01979466
#
# Stress axis : x y z
#
# Youngs Moduli (GPa) = 66.90300 100.73430 72.18066
#
# Poissons Ratio (x) = 0.26815 0.31224
# Poissons Ratio (y) = 0.17809 0.17894
# Poissons Ratio (z) = 0.28941 0.24973
#
# Static dielectric constant tensor:
#      x y z
#    x 1.572170 0.000000 0.000000 
#    y 0.000000 1.610080 0.000000 
#    z 0.000000 0.000000 1.622620 
# 
# From -- ./inp_files/24611.got.cif
#   From: 2010.05.17/outbox.cif.g08.bks.cpg/sg69_13_cif.got.tgz:24611.got - 2010.06.03 19:29:58.
