data_PCOD9513754
_publ_section_title
;
Structure prediction by ZEFSAII (Michael W. Deem and Ramdas Pophale) SiO2 
 PCOD9513754
Probable space group: F M M M
;
_chemical_formula_sum "Si O2"
_cell_formula_units_Z 144
_cell_length_a 8.469243
_cell_length_b 32.004420
_cell_length_c 29.357547
_cell_angle_alpha 90.000000
_cell_angle_beta 90.000000
_cell_angle_gamma 90.000000
_cell_volume 7957.457354
_symmetry_space_group_name_H-M "F M M M"
_symmetry_group_IT_number 69
_symmetry_cell_setting 'orthorhombic'
loop_
_space_group_symop_operation_xyz
x,y,z
-x,-y,z
x,-y,-z
-x,y,-z
-x,-y,-z
x,y,-z
-x,y,z
x,-y,z
x,1/2+y,1/2+z
-x,1/2-y,1/2+z
x,1/2-y,1/2-z
-x,1/2+y,1/2-z
-x,1/2-y,1/2-z
x,1/2+y,1/2-z
-x,1/2+y,1/2+z
x,1/2-y,1/2+z
1/2+x,y,1/2+z
1/2-x,-y,1/2+z
1/2+x,-y,1/2-z
1/2-x,y,1/2-z
1/2-x,-y,1/2-z
1/2+x,y,1/2-z
1/2-x,y,1/2+z
1/2+x,-y,1/2+z
1/2+x,1/2+y,z
1/2-x,1/2-y,z
1/2+x,1/2-y,-z
1/2-x,1/2+y,-z
1/2-x,1/2-y,-z
1/2+x,1/2+y,-z
1/2-x,1/2+y,z
1/2+x,1/2-y,z
loop_
_atom_site_type_symbol
_atom_site_label
_atom_site_fract_x
_atom_site_fract_y
_atom_site_fract_z
Si Si1 0.309142 0.046588 0.801785
Si Si2 0.191476 0.591062 0.552380
Si Si3 0.680511 0.000000 0.444596
Si Si4 0.189119 0.627142 0.140923
Si Si5 0.687908 0.295816 0.198935
O O1 0.500000 0.047115 0.801424
O O2 0.250000 0.051687 0.750000
O O3 0.254285 0.085370 0.832286
O O4 0.258592 0.000000 0.817682
O O5 0.237993 0.599059 0.500000
O O6 0.253642 0.544727 0.566761
O O7 0.252432 0.623324 0.589249
O O8 0.000000 0.589369 0.553191
O O9 0.500000 0.000000 0.427398
O O10 0.671756 0.000000 0.500000
O O11 0.253037 0.667867 0.166027
O O12 0.000000 0.627620 0.142167
O O13 0.500000 0.294973 0.200095
O O14 0.750000 0.304210 0.250000
O O15 0.750000 0.250000 0.185456
#
# Coordination Sequence:
#
# PCOD9513754 Si02
#       5
#    32  32  16  32  32
#     4   9  19  34  49  69 102 142 181 220 261 312
#     4   9  18  33  52  75 105 143 188 236 281 325
#     4   7  12  26  47  69  96 133 180 231 277 319
#     4  11  22  34  53  80 111 145 185 227 273 328
#     4  11  22  39  62  87 115 142 177 221 274 329
#
# _framework density 18.096232000000001
#
# number of rings (size 3 to 8) (size 9 to 14) (size 15 to 20)
#    0.000    2.333    0.000    5.333    1.556    4.000 
#    0.000    0.000    0.000    2.667    0.000    0.000 
#    0.000    0.000    0.000    0.000    0.000    0.000 
#
# Total GULP energy -200902.098090 kJ/mol
# GULP energy per Si atom -5580.613836 kJ/mol
# Density = 1.805504 g / cm^3
# Si number density = 18.096232 Si / 1000 Ang^3
#
#
#
# Elastic Constant Matrix: (Units=GPa)
#
#
# Indices 1 2 3 4 5 6 
#
# 1 55.4664 41.2320 33.8432 0.0000 0.0000 0.0000
# 2 41.2320 140.3180 100.5279 0.0000 0.0000 0.0000
# 3 33.8432 100.5279 108.5844 0.0000 0.0000 0.0000
# 4 0.0000 0.0000 0.0000 27.5292 0.0000 0.0000
# 5 0.0000 0.0000 0.0000 0.0000 22.6209 0.0000
# 6 0.0000 0.0000 0.0000 0.0000 0.0000 15.1312
#
#
#
# Elastic Compliance Matrix: (Units=1/GPa)
#
#
# Indices 1 2 3 4 5 6 
#
# 1 0.023340 -0.004890 -0.002747 0.000000 0.000000 0.000000
# 2 -0.004890 0.022189 -0.019019 0.000000 0.000000 0.000000
# 3 -0.002747 -0.019019 0.027673 0.000000 0.000000 0.000000
# 4 0.000000 0.000000 0.000000 0.036325 0.000000 0.000000
# 5 0.000000 0.000000 0.000000 0.000000 0.044207 0.000000
# 6 0.000000 0.000000 0.000000 0.000000 0.000000 0.066088
#
#
# Mechanical properties :
#
#
# Convention : Reuss Voigt Hill
#
# Bulk Modulus (GPa) = 50.27522 72.84167 61.55844
# Shear Modulus (GPa) = 17.87209 21.64065 19.75637
#
# Velocity S-wave (km/s) = 3.14604 3.46188 3.30773
# Velocity P-wave (km/s) = 6.40619 7.50462 6.97705
#
# Compressibility (1/GPa) = 0.01989052
#
# Stress axis : x y z
#
# Youngs Moduli (GPa) = 42.84406 45.06698 36.13608
#
# Poissons Ratio (x) = 0.22039 0.09927
# Poissons Ratio (y) = 0.20952 0.68726
# Poissons Ratio (z) = 0.11770 0.85711
#
# Static dielectric constant tensor:
#      x y z
#    x 1.623720 0.000000 0.000000 
#    y 0.000000 1.630910 0.000000 
#    z 0.000000 0.000000 1.613060 
# 
# From -- ./inp_files/5547.got.cif
#   From: 2010.05.17/outbox.cif.g08.bks.cpg/sg69_3_cif.got.tgz:5547.got - 2010.06.03 19:29:58.
