data_PCOD9513316
_publ_section_title
;
Structure prediction by ZEFSAII (Michael W. Deem and Ramdas Pophale) SiO2 
 PCOD9513316
Probable space group: F M M M
;
_chemical_formula_sum "Si O2"
_cell_formula_units_Z 116
_cell_length_a 24.972905
_cell_length_b 27.604220
_cell_length_c 9.817700
_cell_angle_alpha 90.000000
_cell_angle_beta 90.000000
_cell_angle_gamma 90.000000
_cell_volume 6767.905753
_symmetry_space_group_name_H-M "F M M M"
_symmetry_group_IT_number 69
_symmetry_cell_setting 'orthorhombic'
loop_
_space_group_symop_operation_xyz
x,y,z
-x,-y,z
x,-y,-z
-x,y,-z
-x,-y,-z
x,y,-z
-x,y,z
x,-y,z
x,1/2+y,1/2+z
-x,1/2-y,1/2+z
x,1/2-y,1/2-z
-x,1/2+y,1/2-z
-x,1/2-y,1/2-z
x,1/2+y,1/2-z
-x,1/2+y,1/2+z
x,1/2-y,1/2+z
1/2+x,y,1/2+z
1/2-x,-y,1/2+z
1/2+x,-y,1/2-z
1/2-x,y,1/2-z
1/2-x,-y,1/2-z
1/2+x,y,1/2-z
1/2-x,y,1/2+z
1/2+x,-y,1/2+z
1/2+x,1/2+y,z
1/2-x,1/2-y,z
1/2+x,1/2-y,-z
1/2-x,1/2+y,-z
1/2-x,1/2-y,-z
1/2+x,1/2+y,-z
1/2-x,1/2+y,z
1/2+x,1/2-y,z
loop_
_atom_site_type_symbol
_atom_site_label
_atom_site_fract_x
_atom_site_fract_y
_atom_site_fract_z
Si Si1 0.060023 0.600944 0.500000
Si Si2 0.000000 0.500000 0.500000
Si Si3 0.435446 0.443261 0.500000
Si Si4 0.804650 0.296463 0.164503
Si Si5 0.000000 0.296087 0.154484
Si Si6 0.099160 0.633111 0.785796
O O1 0.091774 0.618297 0.630720
O O2 0.000000 0.624185 0.500000
O O3 0.045854 0.543739 0.500000
O O4 0.423998 0.500000 0.500000
O O5 0.500000 0.437427 0.500000
O O6 0.411688 0.415155 0.371888
O O7 0.827206 0.250000 0.250000
O O8 0.750000 0.306352 0.250000
O O9 0.845631 0.340604 0.179687
O O10 0.797157 0.287388 0.000000
O O11 0.000000 0.250000 0.250000
O O12 0.051852 0.329454 0.177121
O O13 0.000000 0.278783 0.000000
#
# Coordination Sequence:
#
# PCOD9513316 Si02
#       6
#    16   4  16  32  16  32
#     4  10  22  34  61  84 128 153 202 241 308 358
#     4   8  20  40  52  94 128 156 200 250 296 378
#     4  11  22  38  65  90 125 163 204 254 304 362
#     4  11  24  42  65  90 122 161 212 254 308 371
#     4  12  23  36  55  82 125 159 194 239 304 370
#     4  12  22  40  57  91 122 159 205 251 304 370
#
# _framework density 17.139718999999999
#
# number of rings (size 3 to 8) (size 9 to 14) (size 15 to 20)
#    0.414    0.414    5.517    2.483    7.724    0.000 
#    0.000    0.000    0.000    0.828    3.586    0.000 
#    0.000    0.000    0.000    0.000    0.000    0.000 
#
# Total GULP energy -161498.962929 kJ/mol
# GULP energy per Si atom -5568.929756 kJ/mol
# Density = 1.710071 g / cm^3
# Si number density = 17.139719 Si / 1000 Ang^3
#
#
#
# Elastic Constant Matrix: (Units=GPa)
#
#
# Indices 1 2 3 4 5 6 
#
# 1 62.4872 51.3325 37.1395 -0.0002 0.0002 0.0000
# 2 51.3325 130.2985 69.4507 -0.0011 -0.0002 0.0003
# 3 37.1395 69.4507 202.2142 -0.0041 -0.0005 0.0000
# 4 -0.0002 -0.0011 -0.0041 6.6069 -0.0084 -0.0042
# 5 0.0002 -0.0002 -0.0005 -0.0084 44.6656 0.0002
# 6 0.0000 0.0003 0.0000 -0.0042 0.0002 54.3590
#
#
#
# Elastic Compliance Matrix: (Units=1/GPa)
#
#
# Indices 1 2 3 4 5 6 
#
# 1 0.023989 -0.008694 -0.001420 -0.000002 0.000000 0.000000
# 2 -0.008694 0.012545 -0.002712 0.000000 0.000000 0.000000
# 3 -0.001420 -0.002712 0.006137 0.000003 0.000000 0.000000
# 4 -0.000002 0.000000 0.000003 0.151357 0.000029 0.000012
# 5 0.000000 0.000000 0.000000 0.000029 0.022389 0.000000
# 6 0.000000 0.000000 0.000000 0.000012 0.000000 0.018396
#
#
# Mechanical properties :
#
#
# Convention : Reuss Voigt Hill
#
# Bulk Modulus (GPa) = 58.75370 78.98280 68.86825
# Shear Modulus (GPa) = 18.78720 36.93145 27.85932
#
# Velocity S-wave (km/s) = 3.31436 4.64694 4.03603
# Velocity P-wave (km/s) = 7.00003 8.65874 7.87319
#
# Compressibility (1/GPa) = 0.01702020
#
# Stress axis : x y z
#
# Youngs Moduli (GPa) = 41.68542 79.71160 162.93360
#
# Poissons Ratio (x) = 0.69301 0.23137
# Poissons Ratio (y) = 0.36241 0.44186
# Poissons Ratio (z) = 0.05919 0.21617
#
# Static dielectric constant tensor:
#      x y z
#    x 1.576500 0.000000 0.000000 
#    y 0.000000 1.558900 0.000000 
#    z 0.000000 0.000000 1.558160 
# 
# From -- ./inp_files/4065.got.cif
#   From: 2010.05.17/outbox.cif.g08.bks.cpg/sg69_3_cif.got.tgz:4065.got - 2010.06.03 19:29:58.
