data_PCOD9513295
_publ_section_title
;
Structure prediction by ZEFSAII (Michael W. Deem and Ramdas Pophale) SiO2 
 PCOD9513295
Probable space group: F M M M
;
_chemical_formula_sum "Si O2"
_cell_formula_units_Z 176
_cell_length_a 20.383911
_cell_length_b 24.316358
_cell_length_c 18.835797
_cell_angle_alpha 90.000000
_cell_angle_beta 90.000000
_cell_angle_gamma 90.000000
_cell_volume 9336.197803
_symmetry_space_group_name_H-M "F M M M"
_symmetry_group_IT_number 69
_symmetry_cell_setting 'orthorhombic'
loop_
_space_group_symop_operation_xyz
x,y,z
-x,-y,z
x,-y,-z
-x,y,-z
-x,-y,-z
x,y,-z
-x,y,z
x,-y,z
x,1/2+y,1/2+z
-x,1/2-y,1/2+z
x,1/2-y,1/2-z
-x,1/2+y,1/2-z
-x,1/2-y,1/2-z
x,1/2+y,1/2-z
-x,1/2+y,1/2+z
x,1/2-y,1/2+z
1/2+x,y,1/2+z
1/2-x,-y,1/2+z
1/2+x,-y,1/2-z
1/2-x,y,1/2-z
1/2-x,-y,1/2-z
1/2+x,y,1/2-z
1/2-x,y,1/2+z
1/2+x,-y,1/2+z
1/2+x,1/2+y,z
1/2-x,1/2-y,z
1/2+x,1/2-y,-z
1/2-x,1/2+y,-z
1/2-x,1/2-y,-z
1/2+x,1/2+y,-z
1/2-x,1/2+y,z
1/2+x,1/2-y,z
loop_
_atom_site_type_symbol
_atom_site_label
_atom_site_fract_x
_atom_site_fract_y
_atom_site_fract_z
Si Si1 0.000000 0.197572 0.585532
Si Si2 0.877590 0.622503 0.082522
Si Si3 0.421404 0.936722 0.212863
Si Si4 0.876228 0.614572 0.353375
Si Si5 0.240061 0.185819 0.916408
Si Si6 0.000000 0.178328 0.914441
Si Si7 0.077846 0.500000 0.585085
O O1 0.065073 0.164783 0.604556
O O2 0.000000 0.200996 0.500000
O O3 0.000000 0.259254 0.611963
O O4 0.887725 0.573150 0.137021
O O5 0.808948 0.653926 0.088027
O O6 0.887405 0.606808 0.000000
O O7 0.500000 0.927007 0.209300
O O8 0.388381 0.896884 0.270400
O O9 0.412662 0.000000 0.235296
O O10 0.812338 0.650030 0.372629
O O11 0.936620 0.648236 0.385337
O O12 0.884121 0.554376 0.389147
O O13 0.250000 0.250000 0.895215
O O14 0.219266 0.186723 0.000000
O O15 0.000000 0.176483 0.000000
O O16 0.075654 0.500000 0.500000
O O17 0.000000 0.500000 0.609451
#
# Coordination Sequence:
#
# PCOD9513295 Si02
#       7
#    16  32  32  32  32  16  16
#     4   9  18  35  60  89 117 151 204 272 320 358
#     4  10  21  41  66  91 118 158 219 271 317 381
#     4  11  23  42  64  89 126 166 205 266 333 385
#     4  12  22  38  59  93 130 170 209 253 320 390
#     4  10  22  42  66  93 130 172 212 259 315 378
#     4  11  20  32  58  91 124 163 207 253 310 383
#     4  11  20  34  58  89 127 168 218 261 301 372
#
# _framework density 18.851358000000001
#
# number of rings (size 3 to 8) (size 9 to 14) (size 15 to 20)
#    0.000    1.364    3.636    2.727    0.000    4.000 
#    1.636    7.273    0.000    0.000    0.000    0.000 
#    0.000    0.000    0.000    0.000    0.000    0.000 
#
# Total GULP energy -245623.393808 kJ/mol
# GULP energy per Si atom -5582.349859 kJ/mol
# Density = 1.880845 g / cm^3
# Si number density = 18.851358 Si / 1000 Ang^3
#
#
#
# Elastic Constant Matrix: (Units=GPa)
#
#
# Indices 1 2 3 4 5 6 
#
# 1 109.1238 48.5938 44.9471 0.0000 0.0000 0.0000
# 2 48.5938 100.7135 40.7418 0.0000 0.0000 0.0000
# 3 44.9471 40.7418 96.4940 0.0000 0.0000 0.0000
# 4 0.0000 0.0000 0.0000 17.0134 0.0000 0.0000
# 5 0.0000 0.0000 0.0000 0.0000 22.5475 0.0000
# 6 0.0000 0.0000 0.0000 0.0000 0.0000 32.1185
#
#
#
# Elastic Compliance Matrix: (Units=1/GPa)
#
#
# Indices 1 2 3 4 5 6 
#
# 1 0.012873 -0.004565 -0.004069 0.000000 0.000000 0.000000
# 2 -0.004565 0.013593 -0.003613 0.000000 0.000000 0.000000
# 3 -0.004069 -0.003613 0.013784 0.000000 0.000000 0.000000
# 4 0.000000 0.000000 0.000000 0.058777 0.000000 0.000000
# 5 0.000000 0.000000 0.000000 0.000000 0.044351 0.000000
# 6 0.000000 0.000000 0.000000 0.000000 0.000000 0.031135
#
#
# Mechanical properties :
#
#
# Convention : Reuss Voigt Hill
#
# Bulk Modulus (GPa) = 63.46549 63.87740 63.67145
# Shear Modulus (GPa) = 24.47883 25.80579 25.14231
#
# Velocity S-wave (km/s) = 3.60741 3.70389 3.65597
# Velocity P-wave (km/s) = 7.14776 7.22842 7.18821
#
# Compressibility (1/GPa) = 0.01575659
#
# Stress axis : x y z
#
# Youngs Moduli (GPa) = 77.68436 73.56539 72.54794
#
# Poissons Ratio (x) = 0.33583 0.29517
# Poissons Ratio (y) = 0.35464 0.26211
# Poissons Ratio (z) = 0.31607 0.26579
#
# Static dielectric constant tensor:
#      x y z
#    x 1.630830 0.000000 0.000000 
#    y 0.000000 1.665590 0.000000 
#    z 0.000000 0.000000 1.679810 
# 
# From -- ./inp_files/23328.got.cif
#   From: 2010.05.17/outbox.cif.g08.bks.cpg/sg69_12_cif.got.tgz:23328.got - 2010.06.03 19:29:58.
