data_PCOD9513985
_publ_section_title
;
Structure prediction by ZEFSAII (Michael W. Deem and Ramdas Pophale) SiO2 
 PCOD9513985
Probable space group: F M M M
;
_chemical_formula_sum "Si O2"
_cell_formula_units_Z 40
_cell_length_a 30.000000
_cell_length_b 9.000000
_cell_length_c 30.000000
_cell_angle_alpha 90.000000
_cell_angle_beta 90.000000
_cell_angle_gamma 90.000000
_cell_volume 8100.000000
_symmetry_space_group_name_H-M "F M M M"
_symmetry_group_IT_number 69
_symmetry_cell_setting 'orthorhombic'
loop_
_space_group_symop_operation_xyz
x,y,z
-x,-y,z
x,-y,-z
-x,y,-z
-x,-y,-z
x,y,-z
-x,y,z
x,-y,z
x,1/2+y,1/2+z
-x,1/2-y,1/2+z
x,1/2-y,1/2-z
-x,1/2+y,1/2-z
-x,1/2-y,1/2-z
x,1/2+y,1/2-z
-x,1/2+y,1/2+z
x,1/2-y,1/2+z
1/2+x,y,1/2+z
1/2-x,-y,1/2+z
1/2+x,-y,1/2-z
1/2-x,y,1/2-z
1/2-x,-y,1/2-z
1/2+x,y,1/2-z
1/2-x,y,1/2+z
1/2+x,-y,1/2+z
1/2+x,1/2+y,z
1/2-x,1/2-y,z
1/2+x,1/2-y,-z
1/2-x,1/2+y,-z
1/2-x,1/2-y,-z
1/2+x,1/2+y,-z
1/2-x,1/2+y,z
1/2+x,1/2-y,z
loop_
_atom_site_type_symbol
_atom_site_label
_atom_site_fract_x
_atom_site_fract_y
_atom_site_fract_z
Si Si1 0.892000 0.178802 0.203711
Si Si2 0.500000 0.679120 0.947017
Si Si3 0.428345 0.829056 0.883089
Si Si4 0.796350 0.676084 0.818780
Si Si5 0.796912 0.829180 0.000000
Si Si6 0.327467 0.336744 0.582757
O O1 0.907928 0.250000 0.250000
O O2 0.922298 0.239584 0.163083
O O3 0.841140 0.240369 0.197240
O O4 0.891554 0.000000 0.204668
O O5 0.500000 0.500000 0.944089
O O6 0.458471 0.747324 0.919682
O O7 0.500000 0.718316 0.000000
O O8 0.378302 0.837467 0.901721
O O9 0.443363 0.000000 0.875596
O O10 0.798611 0.500000 0.807316
O O11 0.750000 0.750000 0.803685
O O12 0.798985 0.687378 0.872656
O O13 0.750000 0.750000 0.000000
O O14 0.821631 0.781495 0.044619
O O15 0.789398 0.000000 0.000000
O O16 0.315855 0.500000 0.564518
#
# Coordination Sequence:
#
# PCOD9513985 Si02
#       6
#    32  16  32  32  16  32
#     4  11  22  39  63  90 123 162 204 253 307 366
#     4  11  25  43  66  99 134 163 199 247 299 361
#     4  10  22  42  66  92 122 160 202 247 302 365
#     4  10  20  35  55  82 115 156 204 255 307 361
#     4  12  24  34  50  75 108 149 198 248 295 350
#     4   9  20  37  56  78 110 150 195 245 298 357
#
# _framework density 4.9382720000000004
#
# number of rings (size 3 to 8) (size 9 to 14) (size 15 to 20)
#    0.000    1.700    0.000    6.000    1.400    7.600 
#    0.000    2.500    0.000    0.000    0.000    0.000 
#    0.000    0.000    0.000    0.000    0.000    0.000 
#
# Total GULP energy -223388.256459 kJ/mol
# GULP energy per Si atom -5584.706411 kJ/mol
# Density = 0.492703 g / cm^3
# Si number density = 4.938272 Si / 1000 Ang^3
#
#
#
# Elastic Constant Matrix: (Units=GPa)
#
#
# Indices 1 2 3 4 5 6 
#
# 1 71.3658 34.6547 43.4236 0.0000 0.0000 0.0000
# 2 34.6547 182.8553 93.0518 0.0000 0.0000 0.0000
# 3 43.4236 93.0518 140.3762 0.0000 0.0000 0.0000
# 4 0.0000 0.0000 0.0000 31.3809 0.0000 0.0000
# 5 0.0000 0.0000 0.0000 0.0000 -23.7479 0.0000
# 6 0.0000 0.0000 0.0000 0.0000 0.0000 27.3895
#
#
#
# Elastic Compliance Matrix: (Units=1/GPa)
#
#
# Indices 1 2 3 4 5 6 
#
# 1 0.017346 -0.000840 -0.004809 0.000000 0.000000 0.000000
# 2 -0.000840 0.008293 -0.005237 0.000000 0.000000 0.000000
# 3 -0.004809 -0.005237 0.012083 0.000000 0.000000 0.000000
# 4 0.000000 0.000000 0.000000 0.031867 0.000000 0.000000
# 5 0.000000 0.000000 0.000000 0.000000 -0.042109 0.000000
# 6 0.000000 0.000000 0.000000 0.000000 0.000000 0.036510
#
#
# Mechanical properties :
#
#
# Convention : Reuss Voigt Hill
#
# Bulk Modulus (GPa) = 62.69816 81.87306 72.28561
# Shear Modulus (GPa) = 54.89643 21.90229 38.39936
#
# Velocity S-wave (km/s) = 5.27747 3.33348 4.41383
# Velocity P-wave (km/s) = 8.30334 7.50695 7.91517
#
# Compressibility (1/GPa) = 0.01594943
#
# Stress axis : x y z
#
# Youngs Moduli (GPa) = 57.64884 120.57878 82.76043
#
# Poissons Ratio (x) = 0.10133 0.39798
# Poissons Ratio (y) = 0.04845 0.43346
# Poissons Ratio (z) = 0.27722 0.63153
#
# Static dielectric constant tensor:
#      x y z
#    x 1.692180 0.000000 0.000000 
#    y 0.000000 1.681620 0.000000 
#    z 0.000000 0.000000 1.670220 
# 
# From -- ./inp_files/5776.got.cif
#   From: 2010.05.17/outbox.ucp.g08.bks.cvg/sg69_3_cif.got.tgz:5776.got - 2010.06.11 16:51:34.
