data_PCOD9513141
_publ_section_title
;
Structure prediction by ZEFSAII (Michael W. Deem and Ramdas Pophale) SiO2 
 PCOD9513141
Probable space group: F M M M
;
_chemical_formula_sum "Si O2"
_cell_formula_units_Z 168
_cell_length_a 23.953963
_cell_length_b 17.831033
_cell_length_c 21.415589
_cell_angle_alpha 90.000000
_cell_angle_beta 90.000000
_cell_angle_gamma 90.000000
_cell_volume 9147.109996
_symmetry_space_group_name_H-M "F M M M"
_symmetry_group_IT_number 69
_symmetry_cell_setting 'orthorhombic'
loop_
_space_group_symop_operation_xyz
x,y,z
-x,-y,z
x,-y,-z
-x,y,-z
-x,-y,-z
x,y,-z
-x,y,z
x,-y,z
x,1/2+y,1/2+z
-x,1/2-y,1/2+z
x,1/2-y,1/2-z
-x,1/2+y,1/2-z
-x,1/2-y,1/2-z
x,1/2+y,1/2-z
-x,1/2+y,1/2+z
x,1/2-y,1/2+z
1/2+x,y,1/2+z
1/2-x,-y,1/2+z
1/2+x,-y,1/2-z
1/2-x,y,1/2-z
1/2-x,-y,1/2-z
1/2+x,y,1/2-z
1/2-x,y,1/2+z
1/2+x,-y,1/2+z
1/2+x,1/2+y,z
1/2-x,1/2-y,z
1/2+x,1/2-y,-z
1/2-x,1/2+y,-z
1/2-x,1/2-y,-z
1/2+x,1/2+y,-z
1/2-x,1/2+y,z
1/2+x,1/2-y,z
loop_
_atom_site_type_symbol
_atom_site_label
_atom_site_fract_x
_atom_site_fract_y
_atom_site_fract_z
Si Si1 0.657786 0.802914 0.429523
Si Si2 0.250000 0.250000 0.250000
Si Si3 0.240651 0.915082 0.426382
Si Si4 0.564633 0.589196 0.259975
Si Si5 0.837705 0.166026 0.336980
Si Si6 0.434950 0.587279 0.888960
O O1 0.665514 0.774439 0.500000
O O2 0.712107 0.852834 0.413318
O O3 0.648861 0.735718 0.381930
O O4 0.605775 0.858706 0.425488
O O5 0.209751 0.197088 0.290601
O O6 0.226374 0.909239 0.500000
O O7 0.189285 0.897180 0.381300
O O8 0.261473 0.000000 0.415680
O O9 0.500000 0.609155 0.273970
O O10 0.571198 0.500000 0.272027
O O11 0.609396 0.635893 0.298939
O O12 0.573110 0.599623 0.185536
O O13 0.500000 0.600481 0.902936
O O14 0.422837 0.500000 0.902073
#
# Coordination Sequence:
#
# PCOD9513141 Si02
#       6
#    32   8  32  32  32  32
#     4  11  22  37  56  80 115 153 188 230 282 338
#     4  12  24  36  54  88 124 148 190 228 284 348
#     4  10  21  38  59  81 108 148 192 233 285 339
#     4   9  20  39  62  86 113 150 193 237 287 337
#     4  12  22  38  57  84 118 150 186 238 281 336
#     4   9  19  37  58  82 113 147 187 235 284 335
#
# _framework density 18.366457
#
# number of rings (size 3 to 8) (size 9 to 14) (size 15 to 20)
#    0.000    1.714    1.905    4.000    0.000    3.810 
#    0.000    4.286    0.000    1.714    0.000    6.667 
#    0.000    0.000    0.000    0.000    0.000    0.000 
#
# Total GULP energy -234635.809125 kJ/mol
# GULP energy per Si atom -5586.566884 kJ/mol
# Density = 1.832465 g / cm^3
# Si number density = 18.366457 Si / 1000 Ang^3
#
#
#
# Elastic Constant Matrix: (Units=GPa)
#
#
# Indices 1 2 3 4 5 6 
#
# 1 74.5429 31.8404 32.5453 0.0000 0.0000 0.0000
# 2 31.8404 53.6299 27.1721 0.0000 0.0000 0.0000
# 3 32.5453 27.1721 43.9982 0.0000 0.0000 0.0000
# 4 0.0000 0.0000 0.0000 45.8185 0.0000 0.0000
# 5 0.0000 0.0000 0.0000 0.0000 13.7085 0.0000
# 6 0.0000 0.0000 0.0000 0.0000 0.0000 14.5955
#
#
#
# Elastic Compliance Matrix: (Units=1/GPa)
#
#
# Indices 1 2 3 4 5 6 
#
# 1 0.021400 -0.006819 -0.011619 0.000000 0.000000 0.000000
# 2 -0.006819 0.029310 -0.013058 0.000000 0.000000 0.000000
# 3 -0.011619 -0.013058 0.039386 0.000000 0.000000 0.000000
# 4 0.000000 0.000000 0.000000 0.021825 0.000000 0.000000
# 5 0.000000 0.000000 0.000000 0.000000 0.072947 0.000000
# 6 0.000000 0.000000 0.000000 0.000000 0.000000 0.068514
#
#
# Mechanical properties :
#
#
# Convention : Reuss Voigt Hill
#
# Bulk Modulus (GPa) = 36.89041 39.47628 38.18335
# Shear Modulus (GPa) = 15.36525 20.19872 17.78198
#
# Velocity S-wave (km/s) = 2.89553 3.31986 3.11493
# Velocity P-wave (km/s) = 5.59537 6.01961 5.81136
#
# Compressibility (1/GPa) = 0.02710732
#
# Stress axis : x y z
#
# Youngs Moduli (GPa) = 46.72816 34.11753 25.38944
#
# Poissons Ratio (x) = 0.23264 0.29499
# Poissons Ratio (y) = 0.31863 0.33152
# Poissons Ratio (z) = 0.54292 0.44549
#
# Static dielectric constant tensor:
#      x y z
#    x 1.611680 0.000000 0.000000 
#    y 0.000000 1.625950 0.000000 
#    z 0.000000 0.000000 1.631030 
# 
# From -- ./inp_files/33410.got.cif
#   From: 2010.05.17/outbox.cif.g08.bks.cpg/sg69_17_cif.got.tgz:33410.got - 2010.06.03 19:29:58.
