data_PCOD9513322
_publ_section_title
;
Structure prediction by ZEFSAII (Michael W. Deem and Ramdas Pophale) SiO2 
 PCOD9513322
Probable space group: F M M M
;
_chemical_formula_sum "Si O2"
_cell_formula_units_Z 168
_cell_length_a 19.779375
_cell_length_b 14.102788
_cell_length_c 27.708878
_cell_angle_alpha 90.000000
_cell_angle_beta 90.000000
_cell_angle_gamma 90.000000
_cell_volume 7729.234475
_symmetry_space_group_name_H-M "F M M M"
_symmetry_group_IT_number 69
_symmetry_cell_setting 'orthorhombic'
loop_
_space_group_symop_operation_xyz
x,y,z
-x,-y,z
x,-y,-z
-x,y,-z
-x,-y,-z
x,y,-z
-x,y,z
x,-y,z
x,1/2+y,1/2+z
-x,1/2-y,1/2+z
x,1/2-y,1/2-z
-x,1/2+y,1/2-z
-x,1/2-y,1/2-z
x,1/2+y,1/2-z
-x,1/2+y,1/2+z
x,1/2-y,1/2+z
1/2+x,y,1/2+z
1/2-x,-y,1/2+z
1/2+x,-y,1/2-z
1/2-x,y,1/2-z
1/2-x,-y,1/2-z
1/2+x,y,1/2-z
1/2-x,y,1/2+z
1/2+x,-y,1/2+z
1/2+x,1/2+y,z
1/2-x,1/2-y,z
1/2+x,1/2-y,-z
1/2-x,1/2+y,-z
1/2-x,1/2-y,-z
1/2+x,1/2+y,-z
1/2-x,1/2+y,z
1/2+x,1/2-y,z
loop_
_atom_site_type_symbol
_atom_site_label
_atom_site_fract_x
_atom_site_fract_y
_atom_site_fract_z
Si Si1 0.709681 0.390448 0.814523
Si Si2 0.643803 0.302195 0.552060
Si Si3 0.789557 0.390232 0.429420
Si Si4 0.080109 0.107573 0.353970
Si Si5 0.250000 0.250000 0.750000
Si Si6 0.924024 0.384855 0.742695
O O1 0.718115 0.500000 0.802261
O O2 0.709623 0.382125 0.871453
O O3 0.768413 0.329139 0.790411
O O4 0.638860 0.355237 0.790791
O O5 0.610946 0.326005 0.500000
O O6 0.715841 0.356575 0.553560
O O7 0.658817 0.189806 0.552999
O O8 0.608824 0.332159 0.601876
O O9 0.802728 0.500000 0.442091
O O10 0.085859 0.142178 0.298654
O O11 0.000000 0.100632 0.361819
O O12 0.109610 0.000000 0.356300
O O13 0.924518 0.500000 0.741646
O O14 0.000000 0.354630 0.727146
#
# Coordination Sequence:
#
# PCOD9513322 Si02
#       6
#    32  32  32  32   8  32
#     4  10  22  36  55  83 114 152 189 226 275 334
#     4  11  23  38  60  86 110 145 193 243 294 345
#     4  10  22  39  57  82 115 149 188 234 286 341
#     4   9  19  36  59  87 119 151 183 231 291 343
#     4  12  22  32  50  78 118 156 186 218 268 322
#     4   8  16  34  58  82 112 149 186 224 270 327
#
# _framework density 21.735658999999998
#
# number of rings (size 3 to 8) (size 9 to 14) (size 15 to 20)
#    0.000    2.286    0.000    4.286    5.333    3.048 
#    0.000    2.381    0.000    1.714    0.000    1.333 
#    0.000    0.000    0.000    0.000    0.000    0.000 
#
# Total GULP energy -234208.146500 kJ/mol
# GULP energy per Si atom -5576.384440 kJ/mol
# Density = 2.168619 g / cm^3
# Si number density = 21.735659 Si / 1000 Ang^3
#
#
#
# Elastic Constant Matrix: (Units=GPa)
#
#
# Indices 1 2 3 4 5 6 
#
# 1 86.8385 14.1639 29.0310 0.0000 0.0000 0.0000
# 2 14.1639 122.0001 26.3072 0.0000 0.0000 0.0000
# 3 29.0310 26.3072 136.3126 0.0000 0.0000 0.0000
# 4 0.0000 0.0000 0.0000 1.6468 0.0000 0.0000
# 5 0.0000 0.0000 0.0000 0.0000 -53.0681 0.0000
# 6 0.0000 0.0000 0.0000 0.0000 0.0000 19.6419
#
#
#
# Elastic Compliance Matrix: (Units=1/GPa)
#
#
# Indices 1 2 3 4 5 6 
#
# 1 0.012495 -0.000915 -0.002485 0.000000 0.000000 0.000000
# 2 -0.000915 0.008620 -0.001469 0.000000 0.000000 0.000000
# 3 -0.002485 -0.001469 0.008149 0.000000 0.000000 0.000000
# 4 0.000000 0.000000 0.000000 0.607237 0.000000 0.000000
# 5 0.000000 0.000000 0.000000 0.000000 -0.018844 0.000000
# 6 0.000000 0.000000 0.000000 0.000000 0.000000 0.050912
#
#
# Mechanical properties :
#
#
# Convention : Reuss Voigt Hill
#
# Bulk Modulus (GPa) = 51.21023 53.79505 52.50264
# Shear Modulus (GPa) = 7.30125 12.02074 9.66100
#
# Velocity S-wave (km/s) = 1.83478 2.35424 2.11055
# Velocity P-wave (km/s) = 5.30096 5.67392 5.49060
#
# Compressibility (1/GPa) = 0.01952735
#
# Stress axis : x y z
#
# Youngs Moduli (GPa) = 80.02885 116.01434 122.71924
#
# Poissons Ratio (x) = 0.10614 0.30491
# Poissons Ratio (y) = 0.07322 0.18023
# Poissons Ratio (z) = 0.19884 0.17039
#
# Static dielectric constant tensor:
#      x y z
#    x 1.917670 0.000000 0.000000 
#    y 0.000000 1.822740 0.000000 
#    z 0.000000 0.000000 1.798210 
# 
# From -- ./inp_files/42595.got.cif
#   From: 2010.05.17/outbox.cif.g08.bks.cpg/sg69_22_cif.got.tgz:42595.got - 2010.06.03 19:29:58.
