data_PCOD9513016
_publ_section_title
;
Structure prediction by ZEFSAII (Michael W. Deem and Ramdas Pophale) SiO2 
 PCOD9513016
Probable space group: F M M M
;
_chemical_formula_sum "Si O2"
_cell_formula_units_Z 176
_cell_length_a 19.422405
_cell_length_b 19.657392
_cell_length_c 24.962984
_cell_angle_alpha 90.000000
_cell_angle_beta 90.000000
_cell_angle_gamma 90.000000
_cell_volume 9530.713236
_symmetry_space_group_name_H-M "F M M M"
_symmetry_group_IT_number 69
_symmetry_cell_setting 'orthorhombic'
loop_
_space_group_symop_operation_xyz
x,y,z
-x,-y,z
x,-y,-z
-x,y,-z
-x,-y,-z
x,y,-z
-x,y,z
x,-y,z
x,1/2+y,1/2+z
-x,1/2-y,1/2+z
x,1/2-y,1/2-z
-x,1/2+y,1/2-z
-x,1/2-y,1/2-z
x,1/2+y,1/2-z
-x,1/2+y,1/2+z
x,1/2-y,1/2+z
1/2+x,y,1/2+z
1/2-x,-y,1/2+z
1/2+x,-y,1/2-z
1/2-x,y,1/2-z
1/2-x,-y,1/2-z
1/2+x,y,1/2-z
1/2-x,y,1/2+z
1/2+x,-y,1/2+z
1/2+x,1/2+y,z
1/2-x,1/2-y,z
1/2+x,1/2-y,-z
1/2-x,1/2+y,-z
1/2-x,1/2-y,-z
1/2+x,1/2+y,-z
1/2-x,1/2+y,z
1/2+x,1/2-y,z
loop_
_atom_site_type_symbol
_atom_site_label
_atom_site_fract_x
_atom_site_fract_y
_atom_site_fract_z
Si Si1 0.582045 0.137241 0.373063
Si Si2 0.190682 0.919533 0.438162
Si Si3 0.916590 0.671735 0.746846
Si Si4 0.081263 0.919283 0.652742
Si Si5 0.582843 0.500000 0.061180
Si Si6 0.803106 0.188782 0.937467
O O1 0.500000 0.149757 0.377704
O O2 0.600312 0.138048 0.310321
O O3 0.628953 0.193119 0.402013
O O4 0.598275 0.067317 0.404518
O O5 0.174181 0.901865 0.500000
O O6 0.127715 0.904061 0.398796
O O7 0.258229 0.877522 0.423130
O O8 0.204198 0.000000 0.435484
O O9 0.892183 0.750000 0.750000
O O10 0.895029 0.626159 0.797144
O O11 0.000000 0.673779 0.749103
O O12 0.000000 0.906614 0.642769
O O13 0.088171 0.000000 0.664944
O O14 0.500000 0.500000 0.055817
O O15 0.611646 0.500000 0.000000
O O16 0.750000 0.250000 0.930479
O O17 0.822671 0.184732 0.000000
#
# Coordination Sequence:
#
# PCOD9513016 Si02
#       6
#    32  32  32  32  16  32
#     4  10  21  36  59  85 113 150 190 235 284 343
#     4   9  19  36  57  80 109 148 187 228 284 338
#     4   9  19  34  54  80 110 148 190 232 282 335
#     4   9  18  33  57  84 111 143 186 237 279 326
#     4   9  18  32  54  88 119 142 180 236 289 340
#     4  10  22  38  56  80 113 149 186 230 283 343
#
# _framework density 18.466614
#
# number of rings (size 3 to 8) (size 9 to 14) (size 15 to 20)
#    0.000    2.636    0.000    0.545    5.091    1.455 
#    0.000    2.727    0.000    5.455    0.000    0.000 
#    0.000    0.000    0.000    0.000    0.000    0.000 
#
# Total GULP energy -245332.725202 kJ/mol
# GULP energy per Si atom -5575.743755 kJ/mol
# Density = 1.842458 g / cm^3
# Si number density = 18.466614 Si / 1000 Ang^3
#
#
#
# Elastic Constant Matrix: (Units=GPa)
#
#
# Indices 1 2 3 4 5 6 
#
# 1 68.4818 28.3690 52.8113 0.0000 0.0000 0.0000
# 2 28.3690 39.6341 49.2537 0.0000 0.0000 0.0000
# 3 52.8113 49.2537 113.2095 0.0000 0.0000 0.0000
# 4 0.0000 0.0000 0.0000 19.0700 0.0000 0.0000
# 5 0.0000 0.0000 0.0000 0.0000 16.9271 0.0000
# 6 0.0000 0.0000 0.0000 0.0000 0.0000 11.0487
#
#
#
# Elastic Compliance Matrix: (Units=1/GPa)
#
#
# Indices 1 2 3 4 5 6 
#
# 1 0.023670 -0.007011 -0.007991 0.000000 0.000000 0.000000
# 2 -0.007011 0.057005 -0.021531 0.000000 0.000000 0.000000
# 3 -0.007991 -0.021531 0.021928 0.000000 0.000000 0.000000
# 4 0.000000 0.000000 0.000000 0.052438 0.000000 0.000000
# 5 0.000000 0.000000 0.000000 0.000000 0.059077 0.000000
# 6 0.000000 0.000000 0.000000 0.000000 0.000000 0.090508
#
#
# Mechanical properties :
#
#
# Convention : Reuss Voigt Hill
#
# Bulk Modulus (GPa) = 33.85550 53.57705 43.71628
# Shear Modulus (GPa) = 12.90195 15.46859 14.18527
#
# Velocity S-wave (km/s) = 2.64609 2.89736 2.77457
# Velocity P-wave (km/s) = 5.26392 6.34577 5.83000
#
# Compressibility (1/GPa) = 0.02953729
#
# Stress axis : x y z
#
# Youngs Moduli (GPa) = 42.24845 17.54223 45.60309
#
# Poissons Ratio (x) = 0.12299 0.36443
# Poissons Ratio (y) = 0.29620 0.98186
# Poissons Ratio (z) = 0.33762 0.37769
#
# Static dielectric constant tensor:
#      x y z
#    x 1.618780 0.000000 0.000000 
#    y 0.000000 1.760820 0.000000 
#    z 0.000000 0.000000 1.625680 
# 
# From -- ./inp_files/41802.got.cif
#   From: 2010.05.17/outbox.cif.g08.bks.cpg/sg69_21_cif.got.tgz:41802.got - 2010.06.03 19:29:58.
