data_PCOD9513978
_publ_section_title
;
Structure prediction by ZEFSAII (Michael W. Deem and Ramdas Pophale) SiO2 
 PCOD9513978
Probable space group: F M M M
;
_chemical_formula_sum "Si O2"
_cell_formula_units_Z 38
_cell_length_a 21.000000
_cell_length_b 15.000000
_cell_length_c 30.000000
_cell_angle_alpha 90.000000
_cell_angle_beta 90.000000
_cell_angle_gamma 90.000000
_cell_volume 9450.000000
_symmetry_space_group_name_H-M "F M M M"
_symmetry_group_IT_number 69
_symmetry_cell_setting 'orthorhombic'
loop_
_space_group_symop_operation_xyz
x,y,z
-x,-y,z
x,-y,-z
-x,y,-z
-x,-y,-z
x,y,-z
-x,y,z
x,-y,z
x,1/2+y,1/2+z
-x,1/2-y,1/2+z
x,1/2-y,1/2-z
-x,1/2+y,1/2-z
-x,1/2-y,1/2-z
x,1/2+y,1/2-z
-x,1/2+y,1/2+z
x,1/2-y,1/2+z
1/2+x,y,1/2+z
1/2-x,-y,1/2+z
1/2+x,-y,1/2-z
1/2-x,y,1/2-z
1/2-x,-y,1/2-z
1/2+x,y,1/2-z
1/2-x,y,1/2+z
1/2+x,-y,1/2+z
1/2+x,1/2+y,z
1/2-x,1/2-y,z
1/2+x,1/2-y,-z
1/2-x,1/2+y,-z
1/2-x,1/2-y,-z
1/2+x,1/2+y,-z
1/2-x,1/2+y,z
1/2+x,1/2-y,z
loop_
_atom_site_type_symbol
_atom_site_label
_atom_site_fract_x
_atom_site_fract_y
_atom_site_fract_z
Si Si1 0.422724 0.789979 0.908204
Si Si2 0.422449 0.106353 0.000000
Si Si3 0.250000 0.250000 0.750000
Si Si4 0.423329 0.397854 0.867922
Si Si5 0.425208 0.893744 0.817707
Si Si6 0.650541 0.605568 0.225265
O O1 0.500000 0.792522 0.909424
O O2 0.404477 0.685629 0.899847
O O3 0.403821 0.842180 0.862537
O O4 0.402474 0.840336 0.954315
O O5 0.500000 0.106431 0.000000
O O6 0.403844 0.000000 0.000000
O O7 0.294379 0.319784 0.777080
O O8 0.500000 0.394434 0.863915
O O9 0.406789 0.500000 0.882592
O O10 0.393401 0.385324 0.818619
O O11 0.500000 0.871917 0.810204
O O12 0.386632 0.876263 0.771996
O O13 0.421004 0.000000 0.826204
O O14 0.670985 0.500000 0.226621
#
# Coordination Sequence:
#
# PCOD9513978 Si02
#       6
#    32  16   8  32  32  32
#     4   9  16  25  39  61  88 118 150 179 213 260
#     4   9  16  26  39  57  87 124 152 175 209 256
#     4  12  22  32  42  58  88 126 158 182 212 258
#     4   9  17  30  47  66  88 115 149 188 224 257
#     4   9  16  27  45  68  90 113 146 187 225 261
#     4  10  20  32  46  64  89 120 151 183 221 263
#
# _framework density 4.0211639999999997
#
# number of rings (size 3 to 8) (size 9 to 14) (size 15 to 20)
#    0.000    2.632    0.000    2.842    0.000    5.053 
#    0.000    4.737    0.000    3.158    0.000    0.000 
#    0.000   13.474    0.000   39.579    0.000    9.263 
#
# Total GULP energy -211561.107683 kJ/mol
# GULP energy per Si atom -5567.397571 kJ/mol
# Density = 0.401201 g / cm^3
# Si number density = 4.021164 Si / 1000 Ang^3
#
#
#
# Elastic Constant Matrix: (Units=GPa)
#
#
# Indices 1 2 3 4 5 6 
#
# 1 24.6136 28.3724 12.7440 0.0000 0.0000 0.0000
# 2 28.3724 140.5247 71.5530 0.0000 0.0000 0.0000
# 3 12.7440 71.5530 111.1447 0.0000 0.0000 0.0000
# 4 0.0000 0.0000 0.0000 35.2669 0.0000 0.0000
# 5 0.0000 0.0000 0.0000 0.0000 6.9743 0.0000
# 6 0.0000 0.0000 0.0000 0.0000 0.0000 28.0431
#
#
#
# Elastic Compliance Matrix: (Units=1/GPa)
#
#
# Indices 1 2 3 4 5 6 
#
# 1 0.053061 -0.011329 0.001209 0.000000 0.000000 0.000000
# 2 -0.011329 0.013005 -0.007074 0.000000 0.000000 0.000000
# 3 0.001209 -0.007074 0.013412 0.000000 0.000000 0.000000
# 4 0.000000 0.000000 0.000000 0.028355 0.000000 0.000000
# 5 0.000000 0.000000 0.000000 0.000000 0.143383 0.000000
# 6 0.000000 0.000000 0.000000 0.000000 0.000000 0.035659
#
#
# Mechanical properties :
#
#
# Convention : Reuss Voigt Hill
#
# Bulk Modulus (GPa) = 22.17680 55.73577 38.95629
# Shear Modulus (GPa) = 14.86797 24.96443 19.91620
#
# Velocity S-wave (km/s) = 3.04362 3.94390 3.52264
# Velocity P-wave (km/s) = 5.11556 7.44754 6.38885
#
# Compressibility (1/GPa) = 0.04509217
#
# Stress axis : x y z
#
# Youngs Moduli (GPa) = 18.84631 76.89175 74.55750
#
# Poissons Ratio (x) = 0.87110 -0.09017
# Poissons Ratio (y) = 0.21351 0.52739
# Poissons Ratio (z) = -0.02279 0.54390
#
# Static dielectric constant tensor:
#      x y z
#    x 1.536640 0.000000 0.000000 
#    y 0.000000 1.588410 0.000000 
#    z 0.000000 0.000000 1.522880 
# 
# From -- ./inp_files/46719.got.cif
#   From: 2010.05.17/outbox.ucp.g08.bks.cvg/sg69_24_cif.got.tgz:46719.got - 2010.06.11 16:51:34.
