data_PCOD9513971
_publ_section_title
;
Structure prediction by ZEFSAII (Michael W. Deem and Ramdas Pophale) SiO2 
 PCOD9513971
Probable space group: F M M M
;
_chemical_formula_sum "Si O2"
_cell_formula_units_Z 44
_cell_length_a 24.000000
_cell_length_b 24.000000
_cell_length_c 15.000000
_cell_angle_alpha 90.000000
_cell_angle_beta 90.000000
_cell_angle_gamma 90.000000
_cell_volume 8640.000000
_symmetry_space_group_name_H-M "F M M M"
_symmetry_group_IT_number 69
_symmetry_cell_setting 'orthorhombic'
loop_
_space_group_symop_operation_xyz
x,y,z
-x,-y,z
x,-y,-z
-x,y,-z
-x,-y,-z
x,y,-z
-x,y,z
x,-y,z
x,1/2+y,1/2+z
-x,1/2-y,1/2+z
x,1/2-y,1/2-z
-x,1/2+y,1/2-z
-x,1/2-y,1/2-z
x,1/2+y,1/2-z
-x,1/2+y,1/2+z
x,1/2-y,1/2+z
1/2+x,y,1/2+z
1/2-x,-y,1/2+z
1/2+x,-y,1/2-z
1/2-x,y,1/2-z
1/2-x,-y,1/2-z
1/2+x,y,1/2-z
1/2-x,y,1/2+z
1/2+x,-y,1/2+z
1/2+x,1/2+y,z
1/2-x,1/2-y,z
1/2+x,1/2-y,-z
1/2-x,1/2+y,-z
1/2-x,1/2-y,-z
1/2+x,1/2+y,-z
1/2-x,1/2+y,z
1/2+x,1/2-y,z
loop_
_atom_site_type_symbol
_atom_site_label
_atom_site_fract_x
_atom_site_fract_y
_atom_site_fract_z
Si Si1 0.230646 0.675383 0.152236
Si Si2 0.065165 0.355613 0.335985
Si Si3 0.156097 0.276775 0.599054
Si Si4 0.938553 0.563522 0.831733
Si Si5 0.432586 0.936050 0.500000
Si Si6 0.682373 0.561270 0.602658
O O1 0.250000 0.690717 0.250000
O O2 0.180528 0.716145 0.123691
O O3 0.287174 0.686514 0.097754
O O4 0.210752 0.612416 0.150684
O O5 0.109285 0.305217 0.339570
O O6 0.067074 0.390667 0.245134
O O7 0.082217 0.399334 0.413714
O O8 0.000000 0.338853 0.350542
O O9 0.131729 0.274499 0.500000
O O10 0.937396 0.500000 0.793626
O O11 0.884503 0.567737 0.892706
O O12 0.000000 0.569938 0.873825
O O13 0.500000 0.939728 0.500000
O O14 0.411483 0.000000 0.500000
O O15 0.699824 0.563518 0.500000
O O16 0.695858 0.500000 0.639381
#
# Coordination Sequence:
#
# PCOD9513971 Si02
#       6
#    32  32  32  32  16  32
#     4  11  23  40  61  82 109 149 197 239 290 357
#     4  10  19  33  54  84 120 156 196 243 294 344
#     4  11  21  36  58  82 114 155 197 236 281 347
#     4   9  18  33  55  83 116 156 198 239 288 351
#     4   9  16  28  48  75 114 160 197 232 282 346
#     4  10  21  39  62  87 116 147 187 245 305 353
#
# _framework density 5.0925929999999999
#
# number of rings (size 3 to 8) (size 9 to 14) (size 15 to 20)
#    0.000    1.909    0.909    4.909    0.000    2.909 
#    0.000    4.545    0.000    6.545    0.000    0.000 
#    0.000    0.000    0.000    0.000    0.000    0.000 
#
# Total GULP energy -245396.540741 kJ/mol
# GULP energy per Si atom -5577.194108 kJ/mol
# Density = 0.508100 g / cm^3
# Si number density = 5.092593 Si / 1000 Ang^3
#
#
#
# Elastic Constant Matrix: (Units=GPa)
#
#
# Indices 1 2 3 4 5 6 
#
# 1 68.0302 59.2223 5.5223 0.0000 0.0000 0.0000
# 2 59.2223 127.1860 15.1382 0.0000 0.0000 0.0000
# 3 5.5223 15.1382 44.6059 0.0000 0.0000 0.0000
# 4 0.0000 0.0000 0.0000 22.0814 0.0000 0.0000
# 5 0.0000 0.0000 0.0000 0.0000 12.2097 0.0000
# 6 0.0000 0.0000 0.0000 0.0000 0.0000 36.2369
#
#
#
# Elastic Compliance Matrix: (Units=1/GPa)
#
#
# Indices 1 2 3 4 5 6 
#
# 1 0.024753 -0.011631 0.000883 0.000000 0.000000 0.000000
# 2 -0.011631 0.013659 -0.003195 0.000000 0.000000 0.000000
# 3 0.000883 -0.003195 0.023394 0.000000 0.000000 0.000000
# 4 0.000000 0.000000 0.000000 0.045287 0.000000 0.000000
# 5 0.000000 0.000000 0.000000 0.000000 0.081902 0.000000
# 6 0.000000 0.000000 0.000000 0.000000 0.000000 0.027596
#
#
# Mechanical properties :
#
#
# Convention : Reuss Voigt Hill
#
# Bulk Modulus (GPa) = 29.48285 44.39862 36.94073
# Shear Modulus (GPa) = 19.54781 24.76821 22.15801
#
# Velocity S-wave (km/s) = 3.10113 3.49075 3.30169
# Velocity P-wave (km/s) = 5.22757 6.17172 5.71916
#
# Compressibility (1/GPa) = 0.03391802
#
# Stress axis : x y z
#
# Youngs Moduli (GPa) = 40.39975 73.21425 42.74645
#
# Poissons Ratio (x) = 0.85154 -0.03774
# Poissons Ratio (y) = 0.46988 0.13660
# Poissons Ratio (z) = -0.03567 0.23396
#
# Static dielectric constant tensor:
#      x y z
#    x 1.708240 0.000000 0.000000 
#    y 0.000000 1.730050 0.000000 
#    z 0.000000 0.000000 2.075320 
# 
# From -- ./inp_files/17858.got.cif
#   From: 2010.05.17/outbox.ucp.g08.bks.cvg/sg69_9_cif.got.tgz:17858.got - 2010.06.11 16:51:34.
