data_PCOD9513874
_publ_section_title
;
Structure prediction by ZEFSAII (Michael W. Deem and Ramdas Pophale) SiO2 
 PCOD9513874
Probable space group: F M M M
;
_chemical_formula_sum "Si O2"
_cell_formula_units_Z 120
_cell_length_a 22.905560
_cell_length_b 10.881967
_cell_length_c 21.203878
_cell_angle_alpha 90.000000
_cell_angle_beta 90.000000
_cell_angle_gamma 90.000000
_cell_volume 5285.226639
_symmetry_space_group_name_H-M "F M M M"
_symmetry_group_IT_number 69
_symmetry_cell_setting 'orthorhombic'
loop_
_space_group_symop_operation_xyz
x,y,z
-x,-y,z
x,-y,-z
-x,y,-z
-x,-y,-z
x,y,-z
-x,y,z
x,-y,z
x,1/2+y,1/2+z
-x,1/2-y,1/2+z
x,1/2-y,1/2-z
-x,1/2+y,1/2-z
-x,1/2-y,1/2-z
x,1/2+y,1/2-z
-x,1/2+y,1/2+z
x,1/2-y,1/2+z
1/2+x,y,1/2+z
1/2-x,-y,1/2+z
1/2+x,-y,1/2-z
1/2-x,y,1/2-z
1/2-x,-y,1/2-z
1/2+x,y,1/2-z
1/2-x,y,1/2+z
1/2+x,-y,1/2+z
1/2+x,1/2+y,z
1/2-x,1/2-y,z
1/2+x,1/2-y,-z
1/2-x,1/2+y,-z
1/2-x,1/2-y,-z
1/2+x,1/2+y,-z
1/2-x,1/2+y,z
1/2+x,1/2-y,z
loop_
_atom_site_type_symbol
_atom_site_label
_atom_site_fract_x
_atom_site_fract_y
_atom_site_fract_z
Si Si1 0.500000 0.852402 0.070922
Si Si2 0.682036 0.365729 0.863403
Si Si3 0.250000 0.750000 0.250000
Si Si4 0.066439 0.868628 0.208255
Si Si5 0.368619 0.639588 0.424011
O O1 0.435308 0.829231 0.098520
O O2 0.500000 0.000000 0.065326
O O3 0.500000 0.797668 0.000000
O O4 0.701319 0.500000 0.888803
O O5 0.713421 0.335179 0.797451
O O6 0.614268 0.377700 0.845099
O O7 0.679301 0.240285 0.903716
O O8 0.078796 0.750000 0.250000
O O9 0.000000 0.858980 0.185147
O O10 0.070014 0.000000 0.244600
O O11 0.371585 0.638374 0.500000
O O12 0.354784 0.500000 0.402684
#
# Coordination Sequence:
#
# PCOD9513874 Si02
#       5
#    16  32   8  32  32
#     4   7  12  28  55  88 127 166 201 234 278 355
#     4  11  24  40  63  90 120 159 204 259 309 360
#     4  12  26  48  64  82 114 164 216 258 310 372
#     4   9  18  34  55  83 118 153 193 243 302 366
#     4   9  19  37  62  93 128 166 204 242 294 362
#
# _framework density 22.704796999999999
#
# number of rings (size 3 to 8) (size 9 to 14) (size 15 to 20)
#    0.000    2.533    1.333    2.000    1.867    3.733 
#    0.000    0.667    0.000    2.400    0.000    0.000 
#    0.000    0.000    0.000    0.000    0.000    0.000 
#
# Total GULP energy -167079.741186 kJ/mol
# GULP energy per Si atom -5569.324706 kJ/mol
# Density = 2.265312 g / cm^3
# Si number density = 22.704797 Si / 1000 Ang^3
#
#
#
# Elastic Constant Matrix: (Units=GPa)
#
#
# Indices 1 2 3 4 5 6 
#
# 1 52.1100 39.2582 10.1002 0.0000 0.0000 0.0000
# 2 39.2582 195.2074 34.5888 0.0000 0.0000 0.0000
# 3 10.1002 34.5888 30.2227 0.0000 0.0000 0.0000
# 4 0.0000 0.0000 0.0000 12.3524 0.0000 0.0000
# 5 0.0000 0.0000 0.0000 0.0000 29.0994 0.0000
# 6 0.0000 0.0000 0.0000 0.0000 0.0000 -64.3150
#
#
#
# Elastic Compliance Matrix: (Units=1/GPa)
#
#
# Indices 1 2 3 4 5 6 
#
# 1 0.022829 -0.004063 -0.002979 0.000000 0.000000 0.000000
# 2 -0.004063 0.007149 -0.006824 0.000000 0.000000 0.000000
# 3 -0.002979 -0.006824 0.041893 0.000000 0.000000 0.000000
# 4 0.000000 0.000000 0.000000 0.080956 0.000000 0.000000
# 5 0.000000 0.000000 0.000000 0.000000 0.034365 0.000000
# 6 0.000000 0.000000 0.000000 0.000000 0.000000 -0.015548
#
#
# Mechanical properties :
#
#
# Convention : Reuss Voigt Hill
#
# Bulk Modulus (GPa) = 22.65592 49.49274 36.07433
# Shear Modulus (GPa) = 23.35482 8.33354 15.84418
#
# Velocity S-wave (km/s) = 3.21070 1.91790 2.64452
# Velocity P-wave (km/s) = 4.87288 5.17206 5.02470
#
# Compressibility (1/GPa) = 0.04413857
#
# Stress axis : x y z
#
# Youngs Moduli (GPa) = 43.80454 139.87860 23.87028
#
# Poissons Ratio (x) = 0.56836 0.07111
# Poissons Ratio (y) = 0.17799 0.16289
# Poissons Ratio (z) = 0.13049 0.95453
#
# Static dielectric constant tensor:
#      x y z
#    x 1.896850 0.000000 0.000000 
#    y 0.000000 1.958260 0.000000 
#    z 0.000000 0.000000 1.832500 
# 
# From -- ./inp_files/32398.got.cif
#   From: 2010.05.17/outbox.cif.g08.bks.cpg/sg69_17_cif.got.tgz:32398.got - 2010.06.03 19:29:58.
