data_PCOD9513815
_publ_section_title
;
Structure prediction by ZEFSAII (Michael W. Deem and Ramdas Pophale) SiO2 
 PCOD9513815
Probable space group: F M M M
;
_chemical_formula_sum "Si O2"
_cell_formula_units_Z 160
_cell_length_a 16.138666
_cell_length_b 24.930561
_cell_length_c 20.821147
_cell_angle_alpha 90.000000
_cell_angle_beta 90.000000
_cell_angle_gamma 90.000000
_cell_volume 8377.305152
_symmetry_space_group_name_H-M "F M M M"
_symmetry_group_IT_number 69
_symmetry_cell_setting 'orthorhombic'
loop_
_space_group_symop_operation_xyz
x,y,z
-x,-y,z
x,-y,-z
-x,y,-z
-x,-y,-z
x,y,-z
-x,y,z
x,-y,z
x,1/2+y,1/2+z
-x,1/2-y,1/2+z
x,1/2-y,1/2-z
-x,1/2+y,1/2-z
-x,1/2-y,1/2-z
x,1/2+y,1/2-z
-x,1/2+y,1/2+z
x,1/2-y,1/2+z
1/2+x,y,1/2+z
1/2-x,-y,1/2+z
1/2+x,-y,1/2-z
1/2-x,y,1/2-z
1/2-x,-y,1/2-z
1/2+x,y,1/2-z
1/2-x,y,1/2+z
1/2+x,-y,1/2+z
1/2+x,1/2+y,z
1/2-x,1/2-y,z
1/2+x,1/2-y,-z
1/2-x,1/2+y,-z
1/2-x,1/2-y,-z
1/2+x,1/2+y,-z
1/2-x,1/2+y,z
1/2+x,1/2-y,z
loop_
_atom_site_type_symbol
_atom_site_label
_atom_site_fract_x
_atom_site_fract_y
_atom_site_fract_z
Si Si1 0.352628 0.198460 0.000000
Si Si2 0.400901 0.687684 0.242507
Si Si3 0.141741 0.630607 0.875372
Si Si4 0.500000 0.562835 0.426390
Si Si5 0.400392 0.000000 0.576637
Si Si6 0.347404 0.181486 0.500000
Si Si7 0.162447 0.885411 0.875658
O O1 0.378117 0.170418 0.065718
O O2 0.382922 0.259160 0.000000
O O3 0.252192 0.191900 0.000000
O O4 0.500000 0.689193 0.233269
O O5 0.371872 0.750000 0.250000
O O6 0.378656 0.659128 0.309025
O O7 0.363877 0.650191 0.185986
O O8 0.237622 0.614235 0.877478
O O9 0.080710 0.581816 0.888551
O O10 0.500000 0.500000 0.430705
O O11 0.500000 0.583930 0.500000
O O12 0.369491 0.946136 0.613297
O O13 0.500000 0.000000 0.576886
O O14 0.374064 0.000000 0.500000
O O15 0.368691 0.147959 0.437287
#
# Coordination Sequence:
#
# PCOD9513815 Si02
#       7
#    16  32  32  16  16  16  32
#     4   9  18  33  62  91 127 158 200 271 323 381
#     4  11  24  43  66  96 136 174 213 267 329 391
#     4  11  22  41  64  95 129 164 220 265 324 389
#     4  11  24  42  65  92 130 169 210 269 333 387
#     4  11  24  44  69  93 135 172 215 274 324 382
#     4   9  18  35  58  95 123 156 212 266 318 378
#     4  11  23  41  66  97 125 173 221 266 323 389
#
# _framework density 19.099221
#
# number of rings (size 3 to 8) (size 9 to 14) (size 15 to 20)
#    0.000    1.400    3.000    2.400    1.400    3.200 
#    1.800    1.000    2.200    0.000    0.000    0.000 
#    0.000    0.000    0.000    0.000    0.000    0.000 
#
# Total GULP energy -223243.205953 kJ/mol
# GULP energy per Si atom -5581.080149 kJ/mol
# Density = 1.905575 g / cm^3
# Si number density = 19.099221 Si / 1000 Ang^3
#
#
#
# Elastic Constant Matrix: (Units=GPa)
#
#
# Indices 1 2 3 4 5 6 
#
# 1 84.6240 55.9560 38.0981 0.0000 0.0000 0.0000
# 2 55.9560 183.9716 92.1703 0.0000 0.0000 0.0000
# 3 38.0981 92.1703 177.5380 0.0000 0.0000 0.0000
# 4 0.0000 0.0000 0.0000 2.0679 0.0000 0.0000
# 5 0.0000 0.0000 0.0000 0.0000 23.6462 0.0000
# 6 0.0000 0.0000 0.0000 0.0000 0.0000 10.6022
#
#
#
# Elastic Compliance Matrix: (Units=1/GPa)
#
#
# Indices 1 2 3 4 5 6 
#
# 1 0.014963 -0.003977 -0.001146 0.000000 0.000000 0.000000
# 2 -0.003977 0.008403 -0.003509 0.000000 0.000000 0.000000
# 3 -0.001146 -0.003509 0.007700 0.000000 0.000000 0.000000
# 4 0.000000 0.000000 0.000000 0.483586 0.000000 0.000000
# 5 0.000000 0.000000 0.000000 0.000000 0.042290 0.000000
# 6 0.000000 0.000000 0.000000 0.000000 0.000000 0.094320
#
#
# Mechanical properties :
#
#
# Convention : Reuss Voigt Hill
#
# Bulk Modulus (GPa) = 72.45431 90.95361 81.70396
# Shear Modulus (GPa) = 7.42801 24.59052 16.00927
#
# Velocity S-wave (km/s) = 1.97424 3.59209 2.89834
# Velocity P-wave (km/s) = 6.57381 8.05786 7.35337
#
# Compressibility (1/GPa) = 0.01380180
#
# Stress axis : x y z
#
# Youngs Moduli (GPa) = 66.83361 119.00080 129.86223
#
# Poissons Ratio (x) = 0.47322 0.14886
# Poissons Ratio (y) = 0.26577 0.45573
# Poissons Ratio (z) = 0.07661 0.41761
#
# Static dielectric constant tensor:
#      x y z
#    x 1.663510 0.000000 0.000000 
#    y 0.000000 1.660090 0.000000 
#    z 0.000000 0.000000 1.649680 
# 
# From -- ./inp_files/24720.got.cif
#   From: 2010.05.17/outbox.cif.g08.bks.cpg/sg69_13_cif.got.tgz:24720.got - 2010.06.03 19:29:58.
