data_PCOD9513324
_publ_section_title
;
Structure prediction by ZEFSAII (Michael W. Deem and Ramdas Pophale) SiO2 
 PCOD9513324
Probable space group: F M M M
;
_chemical_formula_sum "Si O2"
_cell_formula_units_Z 168
_cell_length_a 14.282010
_cell_length_b 15.250073
_cell_length_c 33.438120
_cell_angle_alpha 90.000000
_cell_angle_beta 90.000000
_cell_angle_gamma 90.000000
_cell_volume 7282.879217
_symmetry_space_group_name_H-M "F M M M"
_symmetry_group_IT_number 69
_symmetry_cell_setting 'orthorhombic'
loop_
_space_group_symop_operation_xyz
x,y,z
-x,-y,z
x,-y,-z
-x,y,-z
-x,-y,-z
x,y,-z
-x,y,z
x,-y,z
x,1/2+y,1/2+z
-x,1/2-y,1/2+z
x,1/2-y,1/2-z
-x,1/2+y,1/2-z
-x,1/2-y,1/2-z
x,1/2+y,1/2-z
-x,1/2+y,1/2+z
x,1/2-y,1/2+z
1/2+x,y,1/2+z
1/2-x,-y,1/2+z
1/2+x,-y,1/2-z
1/2-x,y,1/2-z
1/2-x,-y,1/2-z
1/2+x,y,1/2-z
1/2-x,y,1/2+z
1/2+x,-y,1/2+z
1/2+x,1/2+y,z
1/2-x,1/2-y,z
1/2+x,1/2-y,-z
1/2-x,1/2+y,-z
1/2-x,1/2-y,-z
1/2+x,1/2+y,-z
1/2-x,1/2+y,z
1/2+x,1/2-y,z
loop_
_atom_site_type_symbol
_atom_site_label
_atom_site_fract_x
_atom_site_fract_y
_atom_site_fract_z
Si Si1 0.863453 0.902161 0.545349
Si Si2 0.321115 0.671478 0.058079
Si Si3 0.894643 0.606000 0.271864
Si Si4 0.395010 0.219751 0.120907
Si Si5 0.500000 0.167119 0.500000
Si Si6 0.793511 0.393816 0.812675
O O1 0.887518 0.872842 0.500000
O O2 0.750871 0.905934 0.550451
O O3 0.898917 0.838708 0.580011
O O4 0.899243 0.000000 0.550466
O O5 0.250000 0.750000 0.044918
O O6 0.345647 0.692923 0.104024
O O7 0.416547 0.665467 0.034254
O O8 0.898119 0.500000 0.275397
O O9 0.855053 0.622717 0.227367
O O10 0.812745 0.634470 0.302055
O O11 0.000000 0.640122 0.277544
O O12 0.500000 0.236737 0.134881
O O13 0.338666 0.162144 0.152281
O O14 0.795657 0.500000 0.820164
#
# Coordination Sequence:
#
# PCOD9513324 Si02
#       6
#    32  32  32  32   8  32
#     4  10  22  39  57  80 115 151 188 241 294 337
#     4  10  22  36  59  84 112 149 193 237 285 342
#     4   8  14  27  50  75 108 156 199 235 285 347
#     4  11  22  32  55  85 119 154 190 235 286 343
#     4  12  18  36  65  82 105 150 204 234 282 350
#     4   9  17  29  47  79 119 155 194 240 285 335
#
# _framework density 23.067799999999998
#
# number of rings (size 3 to 8) (size 9 to 14) (size 15 to 20)
#    0.000    2.286    1.905    2.571    4.000    2.667 
#    0.000    1.905    8.381    0.000    0.000   24.000 
#    0.000   68.571    0.000    3.810    0.000    0.381 
#
# Total GULP energy -234077.170378 kJ/mol
# GULP energy per Si atom -5573.265961 kJ/mol
# Density = 2.301530 g / cm^3
# Si number density = 23.067800 Si / 1000 Ang^3
#
#
#
# Elastic Constant Matrix: (Units=GPa)
#
#
# Indices 1 2 3 4 5 6 
#
# 1 249.0400 19.8339 60.2069 0.0000 0.0000 0.0000
# 2 19.8339 45.7388 22.1051 0.0000 0.0000 0.0000
# 3 60.2069 22.1051 132.7734 0.0000 0.0000 0.0000
# 4 0.0000 0.0000 0.0000 20.0035 0.0000 0.0000
# 5 0.0000 0.0000 0.0000 0.0000 26.9720 0.0000
# 6 0.0000 0.0000 0.0000 0.0000 0.0000 1.2053
#
#
#
# Elastic Compliance Matrix: (Units=1/GPa)
#
#
# Indices 1 2 3 4 5 6 
#
# 1 0.004557 -0.001063 -0.001889 0.000000 0.000000 0.000000
# 2 -0.001063 0.024024 -0.003518 0.000000 0.000000 0.000000
# 3 -0.001889 -0.003518 0.008974 0.000000 0.000000 0.000000
# 4 0.000000 0.000000 0.000000 0.049991 0.000000 0.000000
# 5 0.000000 0.000000 0.000000 0.000000 0.037075 0.000000
# 6 0.000000 0.000000 0.000000 0.000000 0.000000 0.829700
#
#
# Mechanical properties :
#
#
# Convention : Reuss Voigt Hill
#
# Bulk Modulus (GPa) = 40.62543 70.20487 55.41515
# Shear Modulus (GPa) = 5.12575 31.32991 18.22783
#
# Velocity S-wave (km/s) = 1.49227 3.68933 2.81407
# Velocity P-wave (km/s) = 4.54078 6.97484 5.88503
#
# Compressibility (1/GPa) = 0.02461512
#
# Stress axis : x y z
#
# Youngs Moduli (GPa) = 219.45062 41.62452 111.43257
#
# Poissons Ratio (x) = 0.04424 0.21054
# Poissons Ratio (y) = 0.23325 0.39199
# Poissons Ratio (z) = 0.41462 0.14643
#
# Static dielectric constant tensor:
#      x y z
#    x 1.903420 0.000000 0.000000 
#    y 0.000000 1.932330 0.000000 
#    z 0.000000 0.000000 1.860070 
# 
# From -- ./inp_files/45772.got.cif
#   From: 2010.05.17/outbox.cif.g08.bks.cpg/sg69_23_cif.got.tgz:45772.got - 2010.06.03 19:29:58.
