data_PCOD9513746
_publ_section_title
;
Structure prediction by ZEFSAII (Michael W. Deem and Ramdas Pophale) SiO2 
 PCOD9513746
Probable space group: F M M M
;
_chemical_formula_sum "Si O2"
_cell_formula_units_Z 112
_cell_length_a 14.419090
_cell_length_b 15.682431
_cell_length_c 23.723746
_cell_angle_alpha 90.000000
_cell_angle_beta 90.000000
_cell_angle_gamma 90.000000
_cell_volume 5364.564898
_symmetry_space_group_name_H-M "F M M M"
_symmetry_group_IT_number 69
_symmetry_cell_setting 'orthorhombic'
loop_
_space_group_symop_operation_xyz
x,y,z
-x,-y,z
x,-y,-z
-x,y,-z
-x,-y,-z
x,y,-z
-x,y,z
x,-y,z
x,1/2+y,1/2+z
-x,1/2-y,1/2+z
x,1/2-y,1/2-z
-x,1/2+y,1/2-z
-x,1/2-y,1/2-z
x,1/2+y,1/2-z
-x,1/2+y,1/2+z
x,1/2-y,1/2+z
1/2+x,y,1/2+z
1/2-x,-y,1/2+z
1/2+x,-y,1/2-z
1/2-x,y,1/2-z
1/2-x,-y,1/2-z
1/2+x,y,1/2-z
1/2-x,y,1/2+z
1/2+x,-y,1/2+z
1/2+x,1/2+y,z
1/2-x,1/2-y,z
1/2+x,1/2-y,-z
1/2-x,1/2+y,-z
1/2-x,1/2-y,-z
1/2+x,1/2+y,-z
1/2-x,1/2+y,z
1/2+x,1/2-y,z
loop_
_atom_site_type_symbol
_atom_site_label
_atom_site_fract_x
_atom_site_fract_y
_atom_site_fract_z
Si Si1 0.611525 0.500000 0.566686
Si Si2 0.351319 0.350127 0.738281
Si Si3 0.500000 0.284237 0.936588
Si Si4 0.333976 0.821623 0.110127
Si Si5 0.500000 0.905404 0.328066
O O1 0.500000 0.500000 0.587739
O O2 0.602294 0.500000 0.500000
O O3 0.671753 0.584025 0.583299
O O4 0.351779 0.250000 0.750000
O O5 0.250000 0.385955 0.750000
O O6 0.371923 0.348794 0.672070
O O7 0.416056 0.390691 0.784942
O O8 0.409926 0.226217 0.927325
O O9 0.500000 0.345467 0.882231
O O10 0.500000 0.320875 0.000000
O O11 0.250000 0.750000 0.116568
O O12 0.500000 0.000000 0.350209
#
# Coordination Sequence:
#
# PCOD9513746 Si02
#       5
#    16  32  16  32  16
#     4  11  26  46  71 105 143 187 246 300 340 409
#     4  11  21  43  69  98 131 172 221 286 354 415
#     4  12  25  45  70  92 136 194 239 290 348 415
#     4  12  24  45  75 106 139 183 234 297 363 420
#     4  12  26  41  66 102 138 182 231 285 352 423
#
# _framework density 20.877742000000001
#
# number of rings (size 3 to 8) (size 9 to 14) (size 15 to 20)
#    0.000    0.429    7.143    2.143    2.000    3.143 
#    7.714    0.000    0.000    0.000    0.000    0.000 
#    0.000    0.000    0.000    0.000    0.000    0.000 
#
# Total GULP energy -155934.215338 kJ/mol
# GULP energy per Si atom -5569.079119 kJ/mol
# Density = 2.083022 g / cm^3
# Si number density = 20.877742 Si / 1000 Ang^3
#
#
#
# Elastic Constant Matrix: (Units=GPa)
#
#
# Indices 1 2 3 4 5 6 
#
# 1 73.1522 32.2108 26.1719 0.0000 0.0000 0.0000
# 2 32.2108 148.1569 35.7388 0.0000 0.0000 0.0000
# 3 26.1719 35.7388 150.3085 0.0000 0.0000 0.0000
# 4 0.0000 0.0000 0.0000 -65.6406 0.0000 0.0000
# 5 0.0000 0.0000 0.0000 0.0000 2.3221 0.0000
# 6 0.0000 0.0000 0.0000 0.0000 0.0000 5.9245
#
#
#
# Elastic Compliance Matrix: (Units=1/GPa)
#
#
# Indices 1 2 3 4 5 6 
#
# 1 0.015684 -0.002918 -0.002037 0.000000 0.000000 0.000000
# 2 -0.002918 0.007703 -0.001323 0.000000 0.000000 0.000000
# 3 -0.002037 -0.001323 0.007322 0.000000 0.000000 0.000000
# 4 0.000000 0.000000 0.000000 -0.015234 0.000000 0.000000
# 5 0.000000 0.000000 0.000000 0.000000 0.430648 0.000000
# 6 0.000000 0.000000 0.000000 0.000000 0.000000 0.168792
#
#
# Mechanical properties :
#
#
# Convention : Reuss Voigt Hill
#
# Bulk Modulus (GPa) = 55.09088 62.20675 58.64881
# Shear Modulus (GPa) = 7.89237 7.02091 7.45664
#
# Velocity S-wave (km/s) = 1.94640 1.83580 1.89191
# Velocity P-wave (km/s) = 5.61213 5.86123 5.73803
#
# Compressibility (1/GPa) = 0.01815183
#
# Stress axis : x y z
#
# Youngs Moduli (GPa) = 63.75928 129.81344 136.56826
#
# Poissons Ratio (x) = 0.37886 0.27819
# Poissons Ratio (y) = 0.18608 0.18074
# Poissons Ratio (z) = 0.12988 0.17180
#
# Static dielectric constant tensor:
#      x y z
#    x 1.881900 0.000000 0.000000 
#    y 0.000000 1.755980 0.000000 
#    z 0.000000 0.000000 1.998090 
# 
# From -- ./inp_files/14134.got.cif
#   From: 2010.05.17/outbox.cif.g08.bks.cpg/sg69_8_cif.got.tgz:14134.got - 2010.06.03 19:29:58.
