data_PCOD9513956
_publ_section_title
;
Structure prediction by ZEFSAII (Michael W. Deem and Ramdas Pophale) SiO2 
 PCOD9513956
Probable space group: F M M M
;
_chemical_formula_sum "Si O2"
_cell_formula_units_Z 112
_cell_length_a 10.088097
_cell_length_b 34.732324
_cell_length_c 14.035457
_cell_angle_alpha 90.000000
_cell_angle_beta 90.000000
_cell_angle_gamma 90.000000
_cell_volume 4917.786282
_symmetry_space_group_name_H-M "F M M M"
_symmetry_group_IT_number 69
_symmetry_cell_setting 'orthorhombic'
loop_
_space_group_symop_operation_xyz
x,y,z
-x,-y,z
x,-y,-z
-x,y,-z
-x,-y,-z
x,y,-z
-x,y,z
x,-y,z
x,1/2+y,1/2+z
-x,1/2-y,1/2+z
x,1/2-y,1/2-z
-x,1/2+y,1/2-z
-x,1/2-y,1/2-z
x,1/2+y,1/2-z
-x,1/2+y,1/2+z
x,1/2-y,1/2+z
1/2+x,y,1/2+z
1/2-x,-y,1/2+z
1/2+x,-y,1/2-z
1/2-x,y,1/2-z
1/2-x,-y,1/2-z
1/2+x,y,1/2-z
1/2-x,y,1/2+z
1/2+x,-y,1/2+z
1/2+x,1/2+y,z
1/2-x,1/2-y,z
1/2+x,1/2-y,-z
1/2-x,1/2+y,-z
1/2-x,1/2-y,-z
1/2+x,1/2+y,-z
1/2-x,1/2+y,z
1/2+x,1/2-y,z
loop_
_atom_site_type_symbol
_atom_site_label
_atom_site_fract_x
_atom_site_fract_y
_atom_site_fract_z
Si Si1 0.640925 0.773816 0.349201
Si Si2 0.848311 0.639078 0.615480
Si Si3 0.653650 0.429157 0.615864
Si Si4 0.345437 0.000000 0.384056
O O1 0.500000 0.772450 0.396689
O O2 0.628290 0.750000 0.250000
O O3 0.750000 0.750000 0.402342
O O4 0.672398 0.818712 0.341064
O O5 0.844523 0.642683 0.500000
O O6 0.731144 0.609891 0.642123
O O7 0.000000 0.625962 0.639146
O O8 0.646629 0.430196 0.500000
O O9 0.500000 0.432286 0.649499
O O10 0.755092 0.463330 0.642732
O O11 0.500000 0.000000 0.350379
O O12 0.353697 0.000000 0.500000
#
# Coordination Sequence:
#
# PCOD9513956 Si02
#       4
#    32  32  32  16
#     4   9  18  32  48  65  87 116 151 192 237 285
#     4   9  17  29  44  63  89 121 156 194 237 283
#     4   9  16  25  38  59  88 121 157 196 235 274
#     4   9  15  23  37  57  85 124 163 194 228 273
#
# _framework density 22.774474000000001
#
# number of rings (size 3 to 8) (size 9 to 14) (size 15 to 20)
#    0.000    3.000    0.000    1.286    0.000    6.857 
#    0.000    0.000    0.000    0.000    0.000    0.000 
#    0.000    4.571    0.000   16.286    0.000   23.143 
#
# Total GULP energy -156061.496892 kJ/mol
# GULP energy per Si atom -5573.624889 kJ/mol
# Density = 2.272264 g / cm^3
# Si number density = 22.774474 Si / 1000 Ang^3
#
#
#
# Elastic Constant Matrix: (Units=GPa)
#
#
# Indices 1 2 3 4 5 6 
#
# 1 275.1049 141.1479 19.8213 0.0000 0.0000 0.0000
# 2 141.1479 186.3026 18.9444 0.0000 0.0000 0.0000
# 3 19.8213 18.9444 98.1592 0.0000 0.0000 0.0000
# 4 0.0000 0.0000 0.0000 21.5180 0.0000 0.0000
# 5 0.0000 0.0000 0.0000 0.0000 69.5285 0.0000
# 6 0.0000 0.0000 0.0000 0.0000 0.0000 38.4811
#
#
#
# Elastic Compliance Matrix: (Units=1/GPa)
#
#
# Indices 1 2 3 4 5 6 
#
# 1 0.005957 -0.004479 -0.000339 0.000000 0.000000 0.000000
# 2 -0.004479 0.008843 -0.000802 0.000000 0.000000 0.000000
# 3 -0.000339 -0.000802 0.010411 0.000000 0.000000 0.000000
# 4 0.000000 0.000000 0.000000 0.046473 0.000000 0.000000
# 5 0.000000 0.000000 0.000000 0.000000 0.014383 0.000000
# 6 0.000000 0.000000 0.000000 0.000000 0.000000 0.025987
#
#
# Mechanical properties :
#
#
# Convention : Reuss Voigt Hill
#
# Bulk Modulus (GPa) = 71.57549 102.15488 86.86519
# Shear Modulus (GPa) = 39.07790 51.21574 45.14682
#
# Velocity S-wave (km/s) = 4.14679 4.74732 4.45718
# Velocity P-wave (km/s) = 7.37726 8.66036 8.04443
#
# Compressibility (1/GPa) = 0.01397126
#
# Stress axis : x y z
#
# Youngs Moduli (GPa) = 167.85669 113.08797 96.05500
#
# Poissons Ratio (x) = 0.50653 0.03252
# Poissons Ratio (y) = 0.75185 0.07705
# Poissons Ratio (z) = 0.05683 0.09071
#
# Static dielectric constant tensor:
#      x y z
#    x 1.980780 0.000000 0.000000 
#    y 0.000000 1.842280 0.000000 
#    z 0.000000 0.000000 1.895670 
# 
# From -- ./inp_files/20941.got.cif
#   From: 2010.05.17/outbox.cif.g08.bks.cpg/sg69_11_cif.got.tgz:20941.got - 2010.06.03 19:29:58.
