data_PCOD9513948
_publ_section_title
;
Structure prediction by ZEFSAII (Michael W. Deem and Ramdas Pophale) SiO2 
 PCOD9513948
Probable space group: F M M M
;
_chemical_formula_sum "Si O2"
_cell_formula_units_Z 176
_cell_length_a 14.271550
_cell_length_b 14.773900
_cell_length_c 36.063625
_cell_angle_alpha 90.000000
_cell_angle_beta 90.000000
_cell_angle_gamma 90.000000
_cell_volume 7603.887397
_symmetry_space_group_name_H-M "F M M M"
_symmetry_group_IT_number 69
_symmetry_cell_setting 'orthorhombic'
loop_
_space_group_symop_operation_xyz
x,y,z
-x,-y,z
x,-y,-z
-x,y,-z
-x,-y,-z
x,y,-z
-x,y,z
x,-y,z
x,1/2+y,1/2+z
-x,1/2-y,1/2+z
x,1/2-y,1/2-z
-x,1/2+y,1/2-z
-x,1/2-y,1/2-z
x,1/2+y,1/2-z
-x,1/2+y,1/2+z
x,1/2-y,1/2+z
1/2+x,y,1/2+z
1/2-x,-y,1/2+z
1/2+x,-y,1/2-z
1/2-x,y,1/2-z
1/2-x,-y,1/2-z
1/2+x,y,1/2-z
1/2-x,y,1/2+z
1/2+x,-y,1/2+z
1/2+x,1/2+y,z
1/2-x,1/2-y,z
1/2+x,1/2-y,-z
1/2-x,1/2+y,-z
1/2-x,1/2-y,-z
1/2+x,1/2+y,-z
1/2-x,1/2+y,z
1/2+x,1/2-y,z
loop_
_atom_site_type_symbol
_atom_site_label
_atom_site_fract_x
_atom_site_fract_y
_atom_site_fract_z
Si Si1 0.719849 0.889052 0.073445
Si Si2 0.607180 0.390189 0.117485
Si Si3 0.889133 0.865515 0.721592
Si Si4 0.109943 0.654131 0.300212
Si Si5 0.109531 0.889295 0.500000
Si Si6 0.104463 0.896040 0.642393
O O1 0.825928 0.862909 0.083595
O O2 0.667456 0.859933 0.036312
O O3 0.662447 0.854552 0.109274
O O4 0.720009 0.000000 0.072420
O O5 0.500000 0.359875 0.112896
O O6 0.607486 0.500000 0.119333
O O7 0.644496 0.359217 0.158077
O O8 0.884596 0.758678 0.712076
O O9 0.851323 0.890171 0.762261
O O10 0.849992 0.901303 0.683012
O O11 0.000000 0.890458 0.722773
O O12 0.000000 0.627893 0.302614
O O13 0.000000 0.861003 0.500000
O O14 0.107865 0.000000 0.500000
O O15 0.000000 0.854800 0.645562
O O16 0.092895 0.000000 0.631165
#
# Coordination Sequence:
#
# PCOD9513948 Si02
#       6
#    32  32  32  32  16  32
#     4   9  17  29  44  66  94 118 145 184 226 273
#     4   9  17  29  45  64  88 121 159 196 233 270
#     4   8  14  25  42  64  89 119 156 195 232 270
#     4   8  14  26  43  62  87 121 160 197 229 265
#     4   9  16  28  49  73  96 123 148 174 224 289
#     4   9  16  26  42  65  92 118 144 181 231 280
#
# _framework density 23.146055
#
# number of rings (size 3 to 8) (size 9 to 14) (size 15 to 20)
#    0.000    3.364    0.000    1.636    0.000    2.909 
#    0.000    5.909    0.000    8.182    0.000    2.545 
#    0.000    5.818    0.000    0.000    0.000    0.000 
#
# Total GULP energy -245113.829253 kJ/mol
# GULP energy per Si atom -5570.768847 kJ/mol
# Density = 2.309337 g / cm^3
# Si number density = 23.146055 Si / 1000 Ang^3
#
#
#
# Elastic Constant Matrix: (Units=GPa)
#
#
# Indices 1 2 3 4 5 6 
#
# 1 127.5118 3.6492 99.3754 0.0000 0.0000 0.0000
# 2 3.6492 42.5542 5.4701 0.0000 0.0000 0.0000
# 3 99.3754 5.4701 209.9581 0.0000 0.0000 0.0000
# 4 0.0000 0.0000 0.0000 26.2087 0.0000 0.0000
# 5 0.0000 0.0000 0.0000 0.0000 15.7230 0.0000
# 6 0.0000 0.0000 0.0000 0.0000 0.0000 -5.2588
#
#
#
# Elastic Compliance Matrix: (Units=1/GPa)
#
#
# Indices 1 2 3 4 5 6 
#
# 1 0.012430 -0.000311 -0.005875 0.000000 0.000000 0.000000
# 2 -0.000311 0.023586 -0.000467 0.000000 0.000000 0.000000
# 3 -0.005875 -0.000467 0.007556 0.000000 0.000000 0.000000
# 4 0.000000 0.000000 0.000000 0.038155 0.000000 0.000000
# 5 0.000000 0.000000 0.000000 0.000000 0.063601 0.000000
# 6 0.000000 0.000000 0.000000 0.000000 0.000000 -0.190156
#
#
# Mechanical properties :
#
#
# Convention : Reuss Voigt Hill
#
# Bulk Modulus (GPa) = 33.04106 66.33484 49.68795
# Shear Modulus (GPa) = -233.29313 25.43652 -103.92830
#
# Velocity S-wave (km/s) = -10.05040 3.31865 -6.70810
# Velocity P-wave (km/s) = 10.97154 6.58833 6.20358
#
# Compressibility (1/GPa) = 0.03026537
#
# Stress axis : x y z
#
# Youngs Moduli (GPa) = 80.44981 42.39776 132.34804
#
# Poissons Ratio (x) = 0.01317 0.77757
# Poissons Ratio (y) = 0.02500 0.06186
# Poissons Ratio (z) = 0.47266 0.01982
#
# Static dielectric constant tensor:
#      x y z
#    x 1.936640 0.000000 0.000000 
#    y 0.000000 1.920390 0.000000 
#    z 0.000000 0.000000 1.862830 
# 
# From -- ./inp_files/45842.got.cif
#   From: 2010.05.17/outbox.cif.g08.bks.cpg/sg69_23_cif.got.tgz:45842.got - 2010.06.03 19:29:58.
