data_PCOD9513338
_publ_section_title
;
Structure prediction by ZEFSAII (Michael W. Deem and Ramdas Pophale) SiO2 
 PCOD9513338
Probable space group: F M M M
;
_chemical_formula_sum "Si O2"
_cell_formula_units_Z 160
_cell_length_a 24.635040
_cell_length_b 15.784164
_cell_length_c 21.287899
_cell_angle_alpha 90.000000
_cell_angle_beta 90.000000
_cell_angle_gamma 90.000000
_cell_volume 8277.661400
_symmetry_space_group_name_H-M "F M M M"
_symmetry_group_IT_number 69
_symmetry_cell_setting 'orthorhombic'
loop_
_space_group_symop_operation_xyz
x,y,z
-x,-y,z
x,-y,-z
-x,y,-z
-x,-y,-z
x,y,-z
-x,y,z
x,-y,z
x,1/2+y,1/2+z
-x,1/2-y,1/2+z
x,1/2-y,1/2-z
-x,1/2+y,1/2-z
-x,1/2-y,1/2-z
x,1/2+y,1/2-z
-x,1/2+y,1/2+z
x,1/2-y,1/2+z
1/2+x,y,1/2+z
1/2-x,-y,1/2+z
1/2+x,-y,1/2-z
1/2-x,y,1/2-z
1/2-x,-y,1/2-z
1/2+x,y,1/2-z
1/2-x,y,1/2+z
1/2+x,-y,1/2+z
1/2+x,1/2+y,z
1/2-x,1/2-y,z
1/2+x,1/2-y,-z
1/2-x,1/2+y,-z
1/2-x,1/2-y,-z
1/2+x,1/2+y,-z
1/2-x,1/2+y,z
1/2+x,1/2-y,z
loop_
_atom_site_type_symbol
_atom_site_label
_atom_site_fract_x
_atom_site_fract_y
_atom_site_fract_z
Si Si1 0.064303 0.688670 0.572746
Si Si2 0.587257 0.000000 0.570909
Si Si3 0.562628 0.809385 0.811765
Si Si4 0.763024 0.655412 0.654174
Si Si5 0.216514 0.500000 0.568123
Si Si6 0.163746 0.099259 0.742329
O O1 0.086783 0.694764 0.500000
O O2 0.071980 0.591954 0.597713
O O3 0.081075 0.756750 0.625926
O O4 0.000000 0.700816 0.567194
O O5 0.651616 0.000000 0.566576
O O6 0.563685 0.000000 0.500000
O O7 0.500000 0.839252 0.821828
O O8 0.560844 0.750000 0.750000
O O9 0.607585 0.877691 0.791293
O O10 0.750000 0.750000 0.633770
O O11 0.767784 0.586169 0.601313
O O12 0.818315 0.651463 0.695695
O O13 0.712896 0.623054 0.696165
O O14 0.241025 0.500000 0.500000
O O15 0.165721 0.000000 0.758827
#
# Coordination Sequence:
#
# PCOD9513338 Si02
#       6
#    32  16  32  32  16  32
#     4   9  18  35  58  84 120 164 205 243 293 365
#     4   9  19  32  54  85 118 157 195 235 290 360
#     4  10  22  37  56  89 125 154 194 252 306 356
#     4  11  22  40  65  89 116 160 203 246 302 362
#     4  11  24  40  57  92 129 153 196 251 304 368
#     4  11  21  39  64  87 114 153 202 252 300 362
#
# _framework density 19.329131
#
# number of rings (size 3 to 8) (size 9 to 14) (size 15 to 20)
#    0.000    1.800    2.000    3.300    5.600    2.000 
#    0.000    1.000    0.000    0.000    0.000    2.800 
#    0.000    0.000    0.000    0.000    0.000    0.000 
#
# Total GULP energy -222960.423328 kJ/mol
# GULP energy per Si atom -5574.010583 kJ/mol
# Density = 1.928514 g / cm^3
# Si number density = 19.329131 Si / 1000 Ang^3
#
#
#
# Elastic Constant Matrix: (Units=GPa)
#
#
# Indices 1 2 3 4 5 6 
#
# 1 77.4224 37.5473 21.0729 0.0000 0.0000 0.0000
# 2 37.5473 125.0323 54.3338 0.0000 0.0000 0.0000
# 3 21.0729 54.3338 104.6844 0.0000 0.0000 0.0000
# 4 0.0000 0.0000 0.0000 1.9751 0.0000 0.0000
# 5 0.0000 0.0000 0.0000 0.0000 14.9802 0.0000
# 6 0.0000 0.0000 0.0000 0.0000 0.0000 4.8024
#
#
#
# Elastic Compliance Matrix: (Units=1/GPa)
#
#
# Indices 1 2 3 4 5 6 
#
# 1 0.015182 -0.004172 -0.000891 0.000000 0.000000 0.000000
# 2 -0.004172 0.011474 -0.005115 0.000000 0.000000 0.000000
# 3 -0.000891 -0.005115 0.012387 0.000000 0.000000 0.000000
# 4 0.000000 0.000000 0.000000 0.506312 0.000000 0.000000
# 5 0.000000 0.000000 0.000000 0.000000 0.066755 0.000000
# 6 0.000000 0.000000 0.000000 0.000000 0.000000 0.208228
#
#
# Mechanical properties :
#
#
# Convention : Reuss Voigt Hill
#
# Bulk Modulus (GPa) = 53.51528 59.22745 56.37136
# Shear Modulus (GPa) = 5.90373 17.29722 11.60048
#
# Velocity S-wave (km/s) = 1.74956 2.99470 2.45246
# Velocity P-wave (km/s) = 5.64160 6.53190 6.10301
#
# Compressibility (1/GPa) = 0.01868625
#
# Stress axis : x y z
#
# Youngs Moduli (GPa) = 65.86788 87.15584 80.73124
#
# Poissons Ratio (x) = 0.36362 0.07191
# Poissons Ratio (y) = 0.27481 0.41296
# Poissons Ratio (z) = 0.05867 0.44583
#
# Static dielectric constant tensor:
#      x y z
#    x 1.695880 0.000000 0.000000 
#    y 0.000000 1.871240 0.000000 
#    z 0.000000 0.000000 1.727990 
# 
# From -- ./inp_files/37791.got.cif
#   From: 2010.05.17/outbox.cif.g08.bks.cpg/sg69_19_cif.got.tgz:37791.got - 2010.06.03 19:29:58.
