data_PCOD9513021
_publ_section_title
;
Structure prediction by ZEFSAII (Michael W. Deem and Ramdas Pophale) SiO2 
 PCOD9513021
Probable space group: F M M M
;
_chemical_formula_sum "Si O2"
_cell_formula_units_Z 120
_cell_length_a 21.328547
_cell_length_b 13.864180
_cell_length_c 21.869280
_cell_angle_alpha 90.000000
_cell_angle_beta 90.000000
_cell_angle_gamma 90.000000
_cell_volume 6466.807652
_symmetry_space_group_name_H-M "F M M M"
_symmetry_group_IT_number 69
_symmetry_cell_setting 'orthorhombic'
loop_
_space_group_symop_operation_xyz
x,y,z
-x,-y,z
x,-y,-z
-x,y,-z
-x,-y,-z
x,y,-z
-x,y,z
x,-y,z
x,1/2+y,1/2+z
-x,1/2-y,1/2+z
x,1/2-y,1/2-z
-x,1/2+y,1/2-z
-x,1/2-y,1/2-z
x,1/2+y,1/2-z
-x,1/2+y,1/2+z
x,1/2-y,1/2+z
1/2+x,y,1/2+z
1/2-x,-y,1/2+z
1/2+x,-y,1/2-z
1/2-x,y,1/2-z
1/2-x,-y,1/2-z
1/2+x,y,1/2-z
1/2-x,y,1/2+z
1/2+x,-y,1/2+z
1/2+x,1/2+y,z
1/2-x,1/2-y,z
1/2+x,1/2-y,-z
1/2-x,1/2+y,-z
1/2-x,1/2-y,-z
1/2+x,1/2+y,-z
1/2-x,1/2+y,z
1/2+x,1/2-y,z
loop_
_atom_site_type_symbol
_atom_site_label
_atom_site_fract_x
_atom_site_fract_y
_atom_site_fract_z
Si Si1 0.066203 0.833825 0.000000
Si Si2 0.640854 0.000000 0.925482
Si Si3 0.834685 0.000000 0.000000
Si Si4 0.071386 0.694413 0.115097
Si Si5 0.776372 0.000000 0.134791
Si Si6 0.187214 0.708323 0.681359
O O1 0.123115 0.905494 0.000000
O O2 0.067617 0.764935 0.942300
O O3 0.000000 0.887928 0.000000
O O4 0.600183 0.093825 0.908222
O O5 0.701442 0.000000 0.879526
O O6 0.654859 0.000000 0.000000
O O7 0.799974 0.000000 0.935300
O O8 0.122585 0.748068 0.156740
O O9 0.000000 0.682439 0.139681
O O10 0.802716 0.094073 0.170627
O O11 0.189106 0.750000 0.750000
O O12 0.250000 0.750000 0.648691
#
# Coordination Sequence:
#
# PCOD9513021 Si02
#       6
#    16  16   8  32  16  32
#     4  10  21  36  60  92 132 172 207 260 326 398
#     4  12  23  37  63  98 135 169 209 263 324 395
#     4  12  21  36  66  98 135 162 212 270 330 400
#     4  11  23  40  63  95 134 171 213 264 323 391
#     4  12  24  40  67 104 126 167 222 268 334 379
#     4  11  25  44  67  92 126 173 219 274 315 381
#
# _framework density 18.556297000000001
#
# number of rings (size 3 to 8) (size 9 to 14) (size 15 to 20)
#    0.000    0.800    7.333    0.600    0.000    4.267 
#    0.000    4.667    0.000    0.000    0.000    0.000 
#    0.000    0.000    0.000    0.000    0.000    0.000 
#
# Total GULP energy -167084.320830 kJ/mol
# GULP energy per Si atom -5569.477361 kJ/mol
# Density = 1.851406 g / cm^3
# Si number density = 18.556297 Si / 1000 Ang^3
#
#
#
# Elastic Constant Matrix: (Units=GPa)
#
#
# Indices 1 2 3 4 5 6 
#
# 1 159.9620 62.7621 53.7384 0.0000 0.0000 0.0000
# 2 62.7621 166.7673 39.8791 0.0000 0.0000 0.0000
# 3 53.7384 39.8791 84.2740 0.0000 0.0000 0.0000
# 4 0.0000 0.0000 0.0000 22.6567 0.0000 0.0000
# 5 0.0000 0.0000 0.0000 0.0000 39.8444 0.0000
# 6 0.0000 0.0000 0.0000 0.0000 0.0000 6.2309
#
#
#
# Elastic Compliance Matrix: (Units=1/GPa)
#
#
# Indices 1 2 3 4 5 6 
#
# 1 0.008601 -0.002171 -0.004457 0.000000 0.000000 0.000000
# 2 -0.002171 0.007310 -0.002075 0.000000 0.000000 0.000000
# 3 -0.004457 -0.002075 0.015690 0.000000 0.000000 0.000000
# 4 0.000000 0.000000 0.000000 0.044137 0.000000 0.000000
# 5 0.000000 0.000000 0.000000 0.000000 0.025098 0.000000
# 6 0.000000 0.000000 0.000000 0.000000 0.000000 0.160490
#
#
# Mechanical properties :
#
#
# Convention : Reuss Voigt Hill
#
# Bulk Modulus (GPa) = 70.44789 80.41804 75.43297
# Shear Modulus (GPa) = 17.63912 30.72133 24.18023
#
# Velocity S-wave (km/s) = 3.08648 4.07329 3.61373
# Velocity P-wave (km/s) = 7.12381 8.09652 7.62569
#
# Compressibility (1/GPa) = 0.01419489
#
# Stress axis : x y z
#
# Youngs Moduli (GPa) = 116.27138 136.80801 63.73585
#
# Poissons Ratio (x) = 0.29701 0.28407
# Poissons Ratio (y) = 0.25243 0.13222
# Poissons Ratio (z) = 0.51821 0.28381
#
# Static dielectric constant tensor:
#      x y z
#    x 1.722700 0.000000 0.000000 
#    y 0.000000 1.627640 0.000000 
#    z 0.000000 0.000000 1.615690 
# 
# From -- ./inp_files/9191.got.cif
#   From: 2010.05.17/outbox.cif.g08.bks.cpg/sg69_5_cif.got.tgz:9191.got - 2010.06.03 19:29:58.
