data_PCOD9513050
_publ_section_title
;
Structure prediction by ZEFSAII (Michael W. Deem and Ramdas Pophale) SiO2 
 PCOD9513050
Probable space group: F M M M
;
_chemical_formula_sum "Si O2"
_cell_formula_units_Z 176
_cell_length_a 15.358051
_cell_length_b 24.718495
_cell_length_c 24.214593
_cell_angle_alpha 90.000000
_cell_angle_beta 90.000000
_cell_angle_gamma 90.000000
_cell_volume 9192.535256
_symmetry_space_group_name_H-M "F M M M"
_symmetry_group_IT_number 69
_symmetry_cell_setting 'orthorhombic'
loop_
_space_group_symop_operation_xyz
x,y,z
-x,-y,z
x,-y,-z
-x,y,-z
-x,-y,-z
x,y,-z
-x,y,z
x,-y,z
x,1/2+y,1/2+z
-x,1/2-y,1/2+z
x,1/2-y,1/2-z
-x,1/2+y,1/2-z
-x,1/2-y,1/2-z
x,1/2+y,1/2-z
-x,1/2+y,1/2+z
x,1/2-y,1/2+z
1/2+x,y,1/2+z
1/2-x,-y,1/2+z
1/2+x,-y,1/2-z
1/2-x,y,1/2-z
1/2-x,-y,1/2-z
1/2+x,y,1/2-z
1/2-x,y,1/2+z
1/2+x,-y,1/2+z
1/2+x,1/2+y,z
1/2-x,1/2-y,z
1/2+x,1/2-y,-z
1/2-x,1/2+y,-z
1/2-x,1/2-y,-z
1/2+x,1/2+y,-z
1/2-x,1/2+y,z
1/2+x,1/2-y,z
loop_
_atom_site_type_symbol
_atom_site_label
_atom_site_fract_x
_atom_site_fract_y
_atom_site_fract_z
Si Si1 0.151920 0.632617 0.110929
Si Si2 0.000000 0.939902 0.435229
Si Si3 0.855025 0.257563 0.937173
Si Si4 0.153503 0.364142 0.435367
Si Si5 0.396853 0.940424 0.663118
Si Si6 0.394116 0.435202 0.713313
O O1 0.084150 0.593649 0.081204
O O2 0.120595 0.694990 0.105043
O O3 0.243585 0.633731 0.079063
O O4 0.154211 0.605112 0.171187
O O5 0.000000 0.945459 0.500000
O O6 0.000000 0.000000 0.409690
O O7 0.750000 0.250000 0.936961
O O8 0.884621 0.196300 0.926578
O O9 0.880189 0.273501 0.000000
O O10 0.140491 0.377773 0.500000
O O11 0.115700 0.403693 0.389794
O O12 0.500000 0.945769 0.670836
O O13 0.366637 0.921945 0.723733
O O14 0.358584 0.000000 0.652569
O O15 0.500000 0.427534 0.706660
O O16 0.377582 0.500000 0.704744
#
# Coordination Sequence:
#
# PCOD9513050 Si02
#       6
#    32  16  32  32  32  32
#     4  11  19  33  56  80 111 149 182 216 268 328
#     4  11  22  32  46  78 121 154 180 216 265 330
#     4   8  16  33  53  73 104 145 184 222 263 313
#     4  10  21  37  57  81 109 143 185 232 277 326
#     4   9  20  39  59  77 103 141 184 234 285 327
#     4   9  18  35  56  78 109 148 184 218 266 330
#
# _framework density 19.145969000000001
#
# number of rings (size 3 to 8) (size 9 to 14) (size 15 to 20)
#    0.000    2.455    0.909    4.364    0.000    2.909 
#    1.636    3.636    0.000    5.455    0.000    0.000 
#    0.000    0.000    0.000    0.000    0.000    0.000 
#
# Total GULP energy -245141.082761 kJ/mol
# GULP energy per Si atom -5571.388245 kJ/mol
# Density = 1.910239 g / cm^3
# Si number density = 19.145969 Si / 1000 Ang^3
#
#
#
# Elastic Constant Matrix: (Units=GPa)
#
#
# Indices 1 2 3 4 5 6 
#
# 1 31.1405 16.7498 7.5593 0.0000 0.0000 0.0000
# 2 16.7498 128.4468 99.0166 0.0000 0.0000 0.0000
# 3 7.5593 99.0166 170.6937 0.0000 0.0000 0.0000
# 4 0.0000 0.0000 0.0000 -46.4202 0.0000 0.0000
# 5 0.0000 0.0000 0.0000 0.0000 34.0927 0.0000
# 6 0.0000 0.0000 0.0000 0.0000 0.0000 26.6476
#
#
#
# Elastic Compliance Matrix: (Units=1/GPa)
#
#
# Indices 1 2 3 4 5 6 
#
# 1 0.034901 -0.006077 0.001980 0.000000 0.000000 0.000000
# 2 -0.006077 0.015141 -0.008514 0.000000 0.000000 0.000000
# 3 0.001980 -0.008514 0.010710 0.000000 0.000000 0.000000
# 4 0.000000 0.000000 0.000000 -0.021542 0.000000 0.000000
# 5 0.000000 0.000000 0.000000 0.000000 0.029332 0.000000
# 6 0.000000 0.000000 0.000000 0.000000 0.000000 0.037527
#
#
# Mechanical properties :
#
#
# Convention : Reuss Voigt Hill
#
# Bulk Modulus (GPa) = 28.14649 64.10359 46.12504
# Shear Modulus (GPa) = 34.93250 16.66106 25.79678
#
# Velocity S-wave (km/s) = 4.27609 2.95314 3.67464
# Velocity P-wave (km/s) = 6.25403 6.72177 6.49211
#
# Compressibility (1/GPa) = 0.03552841
#
# Stress axis : x y z
#
# Youngs Moduli (GPa) = 28.65267 66.04601 93.37471
#
# Poissons Ratio (x) = 0.40138 -0.18485
# Poissons Ratio (y) = 0.17413 0.79498
# Poissons Ratio (z) = -0.05672 0.56231
#
# Static dielectric constant tensor:
#      x y z
#    x 1.734860 0.000000 0.000000 
#    y 0.000000 1.696110 0.000000 
#    z 0.000000 0.000000 1.674120 
# 
# From -- ./inp_files/35931.got.cif
#   From: 2010.05.17/outbox.cif.g08.bks.cpg/sg69_18_cif.got.tgz:35931.got - 2010.06.03 19:29:58.
