data_PCOD9513160
_publ_section_title
;
Structure prediction by ZEFSAII (Michael W. Deem and Ramdas Pophale) SiO2 
 PCOD9513160
Probable space group: F M M M
;
_chemical_formula_sum "Si O2"
_cell_formula_units_Z 152
_cell_length_a 25.594732
_cell_length_b 14.348690
_cell_length_c 23.718392
_cell_angle_alpha 90.000000
_cell_angle_beta 90.000000
_cell_angle_gamma 90.000000
_cell_volume 8710.600218
_symmetry_space_group_name_H-M "F M M M"
_symmetry_group_IT_number 69
_symmetry_cell_setting 'orthorhombic'
loop_
_space_group_symop_operation_xyz
x,y,z
-x,-y,z
x,-y,-z
-x,y,-z
-x,-y,-z
x,y,-z
-x,y,z
x,-y,z
x,1/2+y,1/2+z
-x,1/2-y,1/2+z
x,1/2-y,1/2-z
-x,1/2+y,1/2-z
-x,1/2-y,1/2-z
x,1/2+y,1/2-z
-x,1/2+y,1/2+z
x,1/2-y,1/2+z
1/2+x,y,1/2+z
1/2-x,-y,1/2+z
1/2+x,-y,1/2-z
1/2-x,y,1/2-z
1/2-x,-y,1/2-z
1/2+x,y,1/2-z
1/2-x,y,1/2+z
1/2+x,-y,1/2+z
1/2+x,1/2+y,z
1/2-x,1/2-y,z
1/2+x,1/2-y,-z
1/2-x,1/2+y,-z
1/2-x,1/2-y,-z
1/2+x,1/2+y,-z
1/2-x,1/2+y,z
1/2+x,1/2-y,z
loop_
_atom_site_type_symbol
_atom_site_label
_atom_site_fract_x
_atom_site_fract_y
_atom_site_fract_z
Si Si1 0.061716 0.273078 0.564699
Si Si2 0.250000 0.000000 0.250000
Si Si3 0.288702 0.663339 0.667599
Si Si4 0.062737 0.107402 0.826808
Si Si5 0.641967 0.106442 0.065651
Si Si6 0.874547 0.250000 0.750000
O O1 0.071080 0.303662 0.500000
O O2 0.074364 0.350841 0.611225
O O3 0.095993 0.181232 0.575315
O O4 0.000000 0.251754 0.569885
O O5 0.261296 0.918370 0.202382
O O6 0.250000 0.750000 0.660380
O O7 0.311512 0.628916 0.608304
O O8 0.337551 0.698975 0.704975
O O9 0.090595 0.173403 0.781747
O O10 0.000000 0.110622 0.819281
O O11 0.079810 0.000000 0.821787
O O12 0.624097 0.000000 0.075208
O O13 0.657580 0.114491 0.000000
#
# Coordination Sequence:
#
# PCOD9513160 Si02
#       6
#    32   8  32  32  32  16
#     4   9  18  35  59  87 118 150 190 238 283 340
#     4  12  22  40  58  86 118 134 190 244 280 342
#     4  12  24  39  60  87 110 148 191 238 290 342
#     4  10  22  37  56  84 117 152 190 234 286 344
#     4  10  21  38  61  86 115 153 191 232 288 343
#     4  12  22  38  58  84 112 154 190 232 288 346
#
# _framework density 17.450004
#
# number of rings (size 3 to 8) (size 9 to 14) (size 15 to 20)
#    0.000    1.474    5.263    0.316    1.474    1.263 
#    0.000    4.211    0.000    0.000    0.000    0.000 
#    0.000    0.000    0.000    0.000    0.000    0.000 
#
# Total GULP energy -211548.227596 kJ/mol
# GULP energy per Si atom -5567.058621 kJ/mol
# Density = 1.741029 g / cm^3
# Si number density = 17.450004 Si / 1000 Ang^3
#
#
#
# Elastic Constant Matrix: (Units=GPa)
#
#
# Indices 1 2 3 4 5 6 
#
# 1 34.2998 42.6751 41.5824 0.0000 0.0000 0.0000
# 2 42.6751 154.3963 68.5245 0.0000 0.0000 0.0000
# 3 41.5824 68.5245 98.0957 0.0000 0.0000 0.0000
# 4 0.0000 0.0000 0.0000 27.8924 0.0000 0.0000
# 5 0.0000 0.0000 0.0000 0.0000 17.6928 0.0000
# 6 0.0000 0.0000 0.0000 0.0000 0.0000 10.6383
#
#
#
# Elastic Compliance Matrix: (Units=1/GPa)
#
#
# Indices 1 2 3 4 5 6 
#
# 1 0.066980 -0.008569 -0.022407 0.000000 0.000000 0.000000
# 2 -0.008569 0.010483 -0.003691 0.000000 0.000000 0.000000
# 3 -0.022407 -0.003691 0.022271 0.000000 0.000000 0.000000
# 4 0.000000 0.000000 0.000000 0.035852 0.000000 0.000000
# 5 0.000000 0.000000 0.000000 0.000000 0.056520 0.000000
# 6 0.000000 0.000000 0.000000 0.000000 0.000000 0.094000
#
#
# Mechanical properties :
#
#
# Convention : Reuss Voigt Hill
#
# Bulk Modulus (GPa) = 32.89360 65.81731 49.35545
# Shear Modulus (GPa) = 13.67715 20.17868 16.92792
#
# Velocity S-wave (km/s) = 2.80266 3.40424 3.11799
# Velocity P-wave (km/s) = 5.41889 7.29735 6.42712
#
# Compressibility (1/GPa) = 0.03040105
#
# Stress axis : x y z
#
# Youngs Moduli (GPa) = 14.92980 95.39000 44.90209
#
# Poissons Ratio (x) = 0.81735 1.00613
# Poissons Ratio (y) = 0.12793 0.16573
# Poissons Ratio (z) = 0.33453 0.35208
#
# Static dielectric constant tensor:
#      x y z
#    x 1.582710 0.000000 0.000000 
#    y 0.000000 1.571010 0.000000 
#    z 0.000000 0.000000 1.594290 
# 
# From -- ./inp_files/38885.got.cif
#   From: 2010.05.17/outbox.cif.g08.bks.cpg/sg69_20_cif.got.tgz:38885.got - 2010.06.03 19:29:58.
