data_PCOD9513226
_publ_section_title
;
Structure prediction by ZEFSAII (Michael W. Deem and Ramdas Pophale) SiO2 
 PCOD9513226
Probable space group: F M M M
;
_chemical_formula_sum "Si O2"
_cell_formula_units_Z 160
_cell_length_a 19.218085
_cell_length_b 20.993777
_cell_length_c 19.076604
_cell_angle_alpha 90.000000
_cell_angle_beta 90.000000
_cell_angle_gamma 90.000000
_cell_volume 7696.650291
_symmetry_space_group_name_H-M "F M M M"
_symmetry_group_IT_number 69
_symmetry_cell_setting 'orthorhombic'
loop_
_space_group_symop_operation_xyz
x,y,z
-x,-y,z
x,-y,-z
-x,y,-z
-x,-y,-z
x,y,-z
-x,y,z
x,-y,z
x,1/2+y,1/2+z
-x,1/2-y,1/2+z
x,1/2-y,1/2-z
-x,1/2+y,1/2-z
-x,1/2-y,1/2-z
x,1/2+y,1/2-z
-x,1/2+y,1/2+z
x,1/2-y,1/2+z
1/2+x,y,1/2+z
1/2-x,-y,1/2+z
1/2+x,-y,1/2-z
1/2-x,y,1/2-z
1/2-x,-y,1/2-z
1/2+x,y,1/2-z
1/2-x,y,1/2+z
1/2+x,-y,1/2+z
1/2+x,1/2+y,z
1/2-x,1/2-y,z
1/2+x,1/2-y,-z
1/2-x,1/2+y,-z
1/2-x,1/2-y,-z
1/2+x,1/2+y,-z
1/2-x,1/2+y,z
1/2+x,1/2-y,z
loop_
_atom_site_type_symbol
_atom_site_label
_atom_site_fract_x
_atom_site_fract_y
_atom_site_fract_z
Si Si1 0.683997 0.799321 0.115064
Si Si2 0.081851 0.091850 0.000000
Si Si3 0.576560 0.675611 0.268080
Si Si4 0.251726 0.570308 0.578161
Si Si5 0.083873 0.759252 0.000000
Si Si6 0.380253 0.569411 0.159671
O O1 0.750000 0.750000 0.122947
O O2 0.645286 0.824224 0.184433
O O3 0.707095 0.864446 0.078284
O O4 0.623655 0.767624 0.067982
O O5 0.099770 0.166303 0.000000
O O6 0.098137 0.067935 0.078345
O O7 0.000000 0.086208 0.000000
O O8 0.500000 0.658143 0.299142
O O9 0.571453 0.750000 0.250000
O O10 0.589270 0.628154 0.202768
O O11 0.216384 0.569162 0.500000
O O12 0.286250 0.500000 0.582675
O O13 0.202213 0.575489 0.645925
O O14 0.000000 0.748709 0.000000
O O15 0.396716 0.500000 0.191597
#
# Coordination Sequence:
#
# PCOD9513226 Si02
#       6
#    32  16  32  32  16  32
#     4  12  24  40  69  99 128 170 230 277 320 393
#     4  11  21  35  59  92 127 164 209 269 337 395
#     4  11  25  44  62  90 135 179 216 267 334 396
#     4  10  21  39  62  91 129 164 205 274 341 385
#     4  11  23  40  65 100 136 171 215 276 346 402
#     4  11  23  40  65  94 129 172 221 274 334 400
#
# _framework density 20.788264000000002
#
# number of rings (size 3 to 8) (size 9 to 14) (size 15 to 20)
#    0.000    1.000    2.000    5.400    0.000    8.800 
#    0.000    2.000    0.000    2.400    0.000    0.000 
#    0.000    0.000    0.000    0.000    0.000    0.000 
#
# Total GULP energy -222669.538589 kJ/mol
# GULP energy per Si atom -5566.738465 kJ/mol
# Density = 2.074095 g / cm^3
# Si number density = 20.788264 Si / 1000 Ang^3
#
#
#
# Elastic Constant Matrix: (Units=GPa)
#
#
# Indices 1 2 3 4 5 6 
#
# 1 120.5178 33.3367 54.3714 0.0000 0.0000 0.0000
# 2 33.3367 190.3920 40.0376 0.0000 0.0000 0.0000
# 3 54.3714 40.0376 88.6627 0.0000 0.0000 0.0000
# 4 0.0000 0.0000 0.0000 47.3983 0.0000 0.0000
# 5 0.0000 0.0000 0.0000 0.0000 23.8692 0.0000
# 6 0.0000 0.0000 0.0000 0.0000 0.0000 -180.6621
#
#
#
# Elastic Compliance Matrix: (Units=1/GPa)
#
#
# Indices 1 2 3 4 5 6 
#
# 1 0.011530 -0.000588 -0.006805 0.000000 0.000000 0.000000
# 2 -0.000588 0.005833 -0.002274 0.000000 0.000000 0.000000
# 3 -0.006805 -0.002274 0.016479 0.000000 0.000000 0.000000
# 4 0.000000 0.000000 0.000000 0.021098 0.000000 0.000000
# 5 0.000000 0.000000 0.000000 0.000000 0.041895 0.000000
# 6 0.000000 0.000000 0.000000 0.000000 0.000000 -0.005535
#
#
# Mechanical properties :
#
#
# Convention : Reuss Voigt Hill
#
# Bulk Modulus (GPa) = 68.92446 72.78487 70.85466
# Shear Modulus (GPa) = 43.30115 -3.75714 19.77201
#
# Velocity S-wave (km/s) = 4.56890 -1.34583 3.08736
# Velocity P-wave (km/s) = 7.81413 5.71607 6.84595
#
# Compressibility (1/GPa) = 0.01450864
#
# Stress axis : x y z
#
# Youngs Moduli (GPa) = 86.72732 171.42699 60.68395
#
# Poissons Ratio (x) = 0.10076 0.41298
# Poissons Ratio (y) = 0.05098 0.13798
# Poissons Ratio (z) = 0.59022 0.38978
#
# Static dielectric constant tensor:
#      x y z
#    x 1.886530 0.000000 0.000000 
#    y 0.000000 1.715560 0.000000 
#    z 0.000000 0.000000 1.684500 
# 
# From -- ./inp_files/30826.got.cif
#   From: 2010.05.17/outbox.cif.g08.bks.cpg/sg69_16_cif.got.tgz:30826.got - 2010.06.03 19:29:58.
