data_PCOD9513333
_publ_section_title
;
Structure prediction by ZEFSAII (Michael W. Deem and Ramdas Pophale) SiO2 
 PCOD9513333
Probable space group: F M M M
;
_chemical_formula_sum "Si O2"
_cell_formula_units_Z 176
_cell_length_a 28.873584
_cell_length_b 10.888847
_cell_length_c 29.470211
_cell_angle_alpha 90.000000
_cell_angle_beta 90.000000
_cell_angle_gamma 90.000000
_cell_volume 9265.435474
_symmetry_space_group_name_H-M "F M M M"
_symmetry_group_IT_number 69
_symmetry_cell_setting 'orthorhombic'
loop_
_space_group_symop_operation_xyz
x,y,z
-x,-y,z
x,-y,-z
-x,y,-z
-x,-y,-z
x,y,-z
-x,y,z
x,-y,z
x,1/2+y,1/2+z
-x,1/2-y,1/2+z
x,1/2-y,1/2-z
-x,1/2+y,1/2-z
-x,1/2-y,1/2-z
x,1/2+y,1/2-z
-x,1/2+y,1/2+z
x,1/2-y,1/2+z
1/2+x,y,1/2+z
1/2-x,-y,1/2+z
1/2+x,-y,1/2-z
1/2-x,y,1/2-z
1/2-x,-y,1/2-z
1/2+x,y,1/2-z
1/2-x,y,1/2+z
1/2+x,-y,1/2+z
1/2+x,1/2+y,z
1/2-x,1/2-y,z
1/2+x,1/2-y,-z
1/2-x,1/2+y,-z
1/2-x,1/2-y,-z
1/2+x,1/2+y,-z
1/2-x,1/2+y,z
1/2+x,1/2-y,z
loop_
_atom_site_type_symbol
_atom_site_label
_atom_site_fract_x
_atom_site_fract_y
_atom_site_fract_z
Si Si1 0.801752 0.000000 0.206419
Si Si2 0.304706 0.257989 0.852356
Si Si3 0.447800 0.354917 0.450361
Si Si4 0.309373 0.500000 0.305466
Si Si5 0.444271 0.145579 0.288268
Si Si6 0.898639 0.294190 0.614432
Si Si7 0.554857 0.500000 0.053681
O O1 0.811513 0.870462 0.182571
O O2 0.745801 0.000000 0.204405
O O3 0.827558 0.000000 0.254367
O O4 0.250000 0.250000 0.864473
O O5 0.318952 0.126344 0.831378
O O6 0.343215 0.291238 0.889156
O O7 0.429864 0.310996 0.500000
O O8 0.500000 0.303894 0.445306
O O9 0.451549 0.500000 0.453991
O O10 0.418448 0.330732 0.405640
O O11 0.500000 0.155931 0.296619
O O12 0.432915 0.250000 0.250000
O O13 0.416759 0.175086 0.335018
O O14 0.436028 0.000000 0.276370
O O15 0.921581 0.386910 0.579067
O O16 0.500000 0.500000 0.062073
O O17 0.562425 0.500000 0.000000
#
# Coordination Sequence:
#
# PCOD9513333 Si02
#       7
#    16  32  32  16  32  32  16
#     4   9  17  34  56  78 107 151 204 268 320 345
#     4  10  22  37  55  84 118 159 207 254 309 363
#     4   9  19  36  59  87 116 144 183 242 306 365
#     4   9  18  34  56  78 108 151 206 262 312 357
#     4  10  22  40  59  84 123 168 209 250 299 370
#     4  12  22  36  61  89 119 161 200 249 308 368
#     4  11  23  40  68 102 127 151 198 266 332 387
#
# _framework density 18.995329999999999
#
# number of rings (size 3 to 8) (size 9 to 14) (size 15 to 20)
#    0.000    1.909    0.909    3.818    1.273    5.818 
#    0.000    1.818    0.000    2.182    0.000    0.000 
#    0.000    0.000    0.000    0.000    0.000    0.000 
#
# Total GULP energy -244998.051051 kJ/mol
# GULP energy per Si atom -5568.137524 kJ/mol
# Density = 1.895210 g / cm^3
# Si number density = 18.995330 Si / 1000 Ang^3
#
#
#
# Elastic Constant Matrix: (Units=GPa)
#
#
# Indices 1 2 3 4 5 6 
#
# 1 109.3150 35.2569 64.1215 0.0000 0.0000 0.0000
# 2 35.2569 117.7866 42.3829 0.0000 0.0000 0.0000
# 3 64.1215 42.3829 87.8918 0.0000 0.0000 0.0000
# 4 0.0000 0.0000 0.0000 15.7335 0.0000 0.0000
# 5 0.0000 0.0000 0.0000 0.0000 8.1424 0.0000
# 6 0.0000 0.0000 0.0000 0.0000 0.0000 -53.1722
#
#
#
# Elastic Compliance Matrix: (Units=1/GPa)
#
#
# Indices 1 2 3 4 5 6 
#
# 1 0.016041 -0.000715 -0.011358 0.000000 0.000000 0.000000
# 2 -0.000715 0.010304 -0.004448 0.000000 0.000000 0.000000
# 3 -0.011358 -0.004448 0.021808 0.000000 0.000000 0.000000
# 4 0.000000 0.000000 0.000000 0.063559 0.000000 0.000000
# 5 0.000000 0.000000 0.000000 0.000000 0.122814 0.000000
# 6 0.000000 0.000000 0.000000 0.000000 0.000000 -0.018807
#
#
# Mechanical properties :
#
#
# Convention : Reuss Voigt Hill
#
# Bulk Modulus (GPa) = 66.16689 66.50180 66.33434
# Shear Modulus (GPa) = 19.70083 5.68954 12.69518
#
# Velocity S-wave (km/s) = 3.22396 1.73255 2.58802
# Velocity P-wave (km/s) = 6.98337 6.25203 6.62779
#
# Compressibility (1/GPa) = 0.01511330
#
# Stress axis : x y z
#
# Youngs Moduli (GPa) = 62.34192 97.04814 45.85382
#
# Poissons Ratio (x) = 0.06934 0.52080
# Poissons Ratio (y) = 0.04455 0.20394
# Poissons Ratio (z) = 0.70807 0.43163
#
# Static dielectric constant tensor:
#      x y z
#    x 2.108770 0.000000 0.000000 
#    y 0.000000 1.838890 0.000000 
#    z 0.000000 0.000000 1.669090 
# 
# From -- ./inp_files/43900.got.cif
#   From: 2010.05.17/outbox.cif.g08.bks.cpg/sg69_22_cif.got.tgz:43900.got - 2010.06.03 19:29:58.
