data_PCOD9513418
_publ_section_title
;
Structure prediction by ZEFSAII (Michael W. Deem and Ramdas Pophale) SiO2 
 PCOD9513418
Probable space group: F M M M
;
_chemical_formula_sum "Si O2"
_cell_formula_units_Z 160
_cell_length_a 16.948186
_cell_length_b 29.355088
_cell_length_c 16.103589
_cell_angle_alpha 90.000000
_cell_angle_beta 90.000000
_cell_angle_gamma 90.000000
_cell_volume 8011.784996
_symmetry_space_group_name_H-M "F M M M"
_symmetry_group_IT_number 69
_symmetry_cell_setting 'orthorhombic'
loop_
_space_group_symop_operation_xyz
x,y,z
-x,-y,z
x,-y,-z
-x,y,-z
-x,-y,-z
x,y,-z
-x,y,z
x,-y,z
x,1/2+y,1/2+z
-x,1/2-y,1/2+z
x,1/2-y,1/2-z
-x,1/2+y,1/2-z
-x,1/2-y,1/2-z
x,1/2+y,1/2-z
-x,1/2+y,1/2+z
x,1/2-y,1/2+z
1/2+x,y,1/2+z
1/2-x,-y,1/2+z
1/2+x,-y,1/2-z
1/2-x,y,1/2-z
1/2-x,-y,1/2-z
1/2+x,y,1/2-z
1/2-x,y,1/2+z
1/2+x,-y,1/2+z
1/2+x,1/2+y,z
1/2-x,1/2-y,z
1/2+x,1/2-y,-z
1/2-x,1/2+y,-z
1/2-x,1/2-y,-z
1/2+x,1/2+y,-z
1/2-x,1/2+y,z
1/2+x,1/2-y,z
loop_
_atom_site_type_symbol
_atom_site_label
_atom_site_fract_x
_atom_site_fract_y
_atom_site_fract_z
Si Si1 0.093428 0.287088 0.314458
Si Si2 0.596093 0.687227 0.000000
Si Si3 0.874347 0.552173 0.097300
Si Si4 0.087543 0.111660 0.745196
Si Si5 0.906807 0.420334 0.500000
Si Si6 0.193468 0.050034 0.150884
O O1 0.127737 0.250000 0.250000
O O2 0.123188 0.292093 0.410445
O O3 0.097776 0.335517 0.267100
O O4 0.000000 0.276340 0.324277
O O5 0.616199 0.633364 0.000000
O O6 0.500000 0.689485 0.000000
O O7 0.898162 0.500000 0.121284
O O8 0.911855 0.592115 0.152073
O O9 0.780058 0.555253 0.112843
O O10 0.890753 0.557268 0.000000
O O11 0.162366 0.086590 0.784654
O O12 0.000000 0.099495 0.780699
O O13 0.869082 0.444570 0.578055
O O14 0.000000 0.422742 0.500000
O O15 0.186961 0.000000 0.188778
#
# Coordination Sequence:
#
# PCOD9513418 Si02
#       6
#    32  16  32  32  16  32
#     4   9  18  34  55  82 114 145 183 234 292 350
#     4   9  16  31  54  80 112 144 172 222 295 347
#     4  10  22  40  57  76 111 160 203 232 275 343
#     4  11  22  36  57  86 115 144 188 243 290 335
#     4  11  19  30  53  87 119 145 181 234 289 339
#     4  11  21  35  55  82 115 152 191 229 280 345
#
# _framework density 19.970580000000002
#
# number of rings (size 3 to 8) (size 9 to 14) (size 15 to 20)
#    0.000    1.800    3.000    2.100    0.000    5.200 
#    1.800    1.000    0.000    2.400    0.000    2.800 
#    0.000    0.000    0.000    0.000    0.000    0.000 
#
# Total GULP energy -222956.606514 kJ/mol
# GULP energy per Si atom -5573.915163 kJ/mol
# Density = 1.992513 g / cm^3
# Si number density = 19.970580 Si / 1000 Ang^3
#
#
#
# Elastic Constant Matrix: (Units=GPa)
#
#
# Indices 1 2 3 4 5 6 
#
# 1 55.0007 23.2713 13.9812 0.0000 0.0000 0.0000
# 2 23.2713 82.9273 64.3851 0.0000 0.0000 0.0000
# 3 13.9812 64.3851 148.1613 0.0000 0.0000 0.0000
# 4 0.0000 0.0000 0.0000 26.0614 0.0000 0.0000
# 5 0.0000 0.0000 0.0000 0.0000 28.7882 0.0000
# 6 0.0000 0.0000 0.0000 0.0000 0.0000 5.8831
#
#
#
# Elastic Compliance Matrix: (Units=1/GPa)
#
#
# Indices 1 2 3 4 5 6 
#
# 1 0.020704 -0.006479 0.000862 0.000000 0.000000 0.000000
# 2 -0.006479 0.020227 -0.008178 0.000000 0.000000 0.000000
# 3 0.000862 -0.008178 0.010222 0.000000 0.000000 0.000000
# 4 0.000000 0.000000 0.000000 0.038371 0.000000 0.000000
# 5 0.000000 0.000000 0.000000 0.000000 0.034736 0.000000
# 6 0.000000 0.000000 0.000000 0.000000 0.000000 0.169978
#
#
# Mechanical properties :
#
#
# Convention : Reuss Voigt Hill
#
# Bulk Modulus (GPa) = 42.44228 54.37383 48.40805
# Shear Modulus (GPa) = 15.16611 24.44334 19.80473
#
# Velocity S-wave (km/s) = 2.75875 3.50232 3.15254
# Velocity P-wave (km/s) = 5.60769 6.60614 6.12728
#
# Compressibility (1/GPa) = 0.02356141
#
# Stress axis : x y z
#
# Youngs Moduli (GPa) = 48.30009 49.43987 97.82792
#
# Poissons Ratio (x) = 0.32033 -0.08431
# Poissons Ratio (y) = 0.31294 0.80006
# Poissons Ratio (z) = -0.04163 0.40433
#
# Static dielectric constant tensor:
#      x y z
#    x 1.701670 0.000000 0.000000 
#    y 0.000000 1.682710 0.000000 
#    z 0.000000 0.000000 1.849890 
# 
# From -- ./inp_files/15701.got.cif
#   From: 2010.05.17/outbox.cif.g08.bks.cpg/sg69_8_cif.got.tgz:15701.got - 2010.06.03 19:29:58.
