data_PCOD9513858
_publ_section_title
;
Structure prediction by ZEFSAII (Michael W. Deem and Ramdas Pophale) SiO2 
 PCOD9513858
Probable space group: F M M M
;
_chemical_formula_sum "Si O2"
_cell_formula_units_Z 88
_cell_length_a 25.914613
_cell_length_b 19.911912
_cell_length_c 7.540531
_cell_angle_alpha 90.000000
_cell_angle_beta 90.000000
_cell_angle_gamma 90.000000
_cell_volume 3890.985583
_symmetry_space_group_name_H-M "F M M M"
_symmetry_group_IT_number 69
_symmetry_cell_setting 'orthorhombic'
loop_
_space_group_symop_operation_xyz
x,y,z
-x,-y,z
x,-y,-z
-x,y,-z
-x,-y,-z
x,y,-z
-x,y,z
x,-y,z
x,1/2+y,1/2+z
-x,1/2-y,1/2+z
x,1/2-y,1/2-z
-x,1/2+y,1/2-z
-x,1/2-y,1/2-z
x,1/2+y,1/2-z
-x,1/2+y,1/2+z
x,1/2-y,1/2+z
1/2+x,y,1/2+z
1/2-x,-y,1/2+z
1/2+x,-y,1/2-z
1/2-x,y,1/2-z
1/2-x,-y,1/2-z
1/2+x,y,1/2-z
1/2-x,y,1/2+z
1/2+x,-y,1/2+z
1/2+x,1/2+y,z
1/2-x,1/2-y,z
1/2+x,1/2-y,-z
1/2-x,1/2+y,-z
1/2-x,1/2-y,-z
1/2+x,1/2+y,-z
1/2-x,1/2+y,z
1/2+x,1/2-y,z
loop_
_atom_site_type_symbol
_atom_site_label
_atom_site_fract_x
_atom_site_fract_y
_atom_site_fract_z
Si Si1 0.804731 0.116546 0.700047
Si Si2 0.312923 0.500000 0.000000
Si Si3 0.410012 0.675632 0.210850
Si Si4 0.500000 0.077110 0.717016
O O1 0.800069 0.088825 0.500000
O O2 0.750000 0.149439 0.750000
O O3 0.853769 0.164881 0.708087
O O4 0.813370 0.058317 0.843665
O O5 0.430135 0.750000 0.250000
O O6 0.449608 0.618454 0.273644
O O7 0.405319 0.668377 0.000000
O O8 0.500000 0.076679 0.500000
O O9 0.500000 0.000000 0.775048
#
# Coordination Sequence:
#
# PCOD9513858 Si02
#       4
#    32   8  32  16
#     4  12  25  42  68 105 138 186 229 283 343 413
#     4  12  24  44  66 101 150 175 234 280 352 404
#     4  11  23  43  69  99 138 186 233 284 345 414
#     4   9  21  40  69 101 136 179 229 289 349 405
#
# _framework density 22.616377
#
# number of rings (size 3 to 8) (size 9 to 14) (size 15 to 20)
#    0.000    0.909    3.636    2.727    2.545    0.727 
#    0.000    6.364    0.000    4.364    0.000    0.000 
#    0.000    0.000    0.000    0.000    0.000    0.000 
#
# Total GULP energy -122556.424480 kJ/mol
# GULP energy per Si atom -5570.746567 kJ/mol
# Density = 2.256490 g / cm^3
# Si number density = 22.616377 Si / 1000 Ang^3
#
#
#
# Elastic Constant Matrix: (Units=GPa)
#
#
# Indices 1 2 3 4 5 6 
#
# 1 133.9566 76.1142 14.2786 -0.0001 0.0000 0.0000
# 2 76.1142 149.8429 14.4060 0.0005 -0.0002 -0.0001
# 3 14.2786 14.4060 172.6805 0.0018 -0.0007 -0.0001
# 4 -0.0001 0.0005 0.0018 34.0747 -0.0003 -0.0001
# 5 0.0000 -0.0002 -0.0007 -0.0003 4.0991 0.0001
# 6 0.0000 -0.0001 -0.0001 -0.0001 0.0001 -23.2409
#
#
#
# Elastic Compliance Matrix: (Units=1/GPa)
#
#
# Indices 1 2 3 4 5 6 
#
# 1 0.010525 -0.005305 -0.000428 0.000000 0.000000 0.000000
# 2 -0.005305 0.009402 -0.000346 0.000000 0.000000 0.000000
# 3 -0.000428 -0.000346 0.005855 0.000000 0.000001 0.000000
# 4 0.000000 0.000000 0.000000 0.029347 0.000002 0.000000
# 5 0.000000 0.000000 0.000001 0.000002 0.243959 0.000001
# 6 0.000000 0.000000 0.000000 0.000000 0.000001 -0.043028
#
#
# Mechanical properties :
#
#
# Convention : Reuss Voigt Hill
#
# Bulk Modulus (GPa) = 73.39502 74.00862 73.70182
# Shear Modulus (GPa) = 18.33117 26.43197 22.38157
#
# Velocity S-wave (km/s) = 2.85006 3.42235 3.14923
# Velocity P-wave (km/s) = 6.58431 6.95781 6.77363
#
# Compressibility (1/GPa) = 0.01362490
#
# Stress axis : x y z
#
# Youngs Moduli (GPa) = 95.01079 106.36343 170.78702
#
# Poissons Ratio (x) = 0.56428 0.07305
# Poissons Ratio (y) = 0.50405 0.05904
# Poissons Ratio (z) = 0.04064 0.03677
#
# Static dielectric constant tensor:
#      x y z
#    x 1.867250 0.000000 0.000000 
#    y 0.000000 1.778270 0.000000 
#    z 0.000000 0.000000 1.844040 
# 
# From -- ./inp_files/3370.got.cif
#   From: 2010.05.17/outbox.cif.g08.bks.cpg/sg69_2_cif.got.tgz:3370.got - 2010.06.03 19:29:58.
