data_PCOD9513022
_publ_section_title
;
Structure prediction by ZEFSAII (Michael W. Deem and Ramdas Pophale) SiO2 
 PCOD9513022
Probable space group: F M M M
;
_chemical_formula_sum "Si O2"
_cell_formula_units_Z 160
_cell_length_a 26.466299
_cell_length_b 17.152710
_cell_length_c 15.352017
_cell_angle_alpha 90.000000
_cell_angle_beta 90.000000
_cell_angle_gamma 90.000000
_cell_volume 6969.335991
_symmetry_space_group_name_H-M "F M M M"
_symmetry_group_IT_number 69
_symmetry_cell_setting 'orthorhombic'
loop_
_space_group_symop_operation_xyz
x,y,z
-x,-y,z
x,-y,-z
-x,y,-z
-x,-y,-z
x,y,-z
-x,y,z
x,-y,z
x,1/2+y,1/2+z
-x,1/2-y,1/2+z
x,1/2-y,1/2-z
-x,1/2+y,1/2-z
-x,1/2-y,1/2-z
x,1/2+y,1/2-z
-x,1/2+y,1/2+z
x,1/2-y,1/2+z
1/2+x,y,1/2+z
1/2-x,-y,1/2+z
1/2+x,-y,1/2-z
1/2-x,y,1/2-z
1/2-x,-y,1/2-z
1/2+x,y,1/2-z
1/2-x,y,1/2+z
1/2+x,-y,1/2+z
1/2+x,1/2+y,z
1/2-x,1/2-y,z
1/2+x,1/2-y,-z
1/2-x,1/2+y,-z
1/2-x,1/2-y,-z
1/2+x,1/2+y,-z
1/2-x,1/2+y,z
1/2+x,1/2-y,z
loop_
_atom_site_type_symbol
_atom_site_label
_atom_site_fract_x
_atom_site_fract_y
_atom_site_fract_z
Si Si1 0.622444 0.825944 0.659951
Si Si2 0.560235 0.228945 0.500000
Si Si3 0.074542 0.590868 0.000000
Si Si4 0.717707 0.087921 0.394669
Si Si5 0.815209 0.822865 0.396266
Si Si6 0.594638 0.413207 0.322220
O O1 0.581988 0.814912 0.583980
O O2 0.663073 0.894278 0.644226
O O3 0.659262 0.750668 0.650446
O O4 0.593479 0.848141 0.748107
O O5 0.500000 0.235923 0.500000
O O6 0.585649 0.314810 0.500000
O O7 0.054547 0.590552 0.099570
O O8 0.096180 0.500000 0.000000
O O9 0.713793 0.094482 0.500000
O O10 0.760372 0.149110 0.365362
O O11 0.733847 0.000000 0.373783
O O12 0.810109 0.807661 0.500000
O O13 0.853662 0.894048 0.376447
O O14 0.594936 0.500000 0.285210
#
# Coordination Sequence:
#
# PCOD9513022 Si02
#       6
#    32  16  16  32  32  32
#     4  12  22  41  64 100 138 180 226 278 341 397
#     4  12  26  47  75 102 132 176 227 280 341 411
#     4  10  22  45  71 100 134 170 215 285 352 403
#     4  10  21  36  60  95 140 186 231 276 330 402
#     4  11  20  37  65  96 134 181 226 274 330 399
#     4  11  22  38  67  99 138 182 225 271 334 404
#
# _framework density 22.957712000000001
#
# number of rings (size 3 to 8) (size 9 to 14) (size 15 to 20)
#    0.000    1.000    5.000    2.400    0.000    3.400 
#    0.000    6.000    0.000    6.000    0.000    0.000 
#    0.000    0.000    0.000    0.000    0.000    0.000 
#
# Total GULP energy -222823.200594 kJ/mol
# GULP energy per Si atom -5570.580015 kJ/mol
# Density = 2.290546 g / cm^3
# Si number density = 22.957712 Si / 1000 Ang^3
#
#
#
# Elastic Constant Matrix: (Units=GPa)
#
#
# Indices 1 2 3 4 5 6 
#
# 1 110.1200 18.7537 26.3386 0.0000 0.0000 0.0000
# 2 18.7537 95.0869 56.5938 0.0000 0.0000 0.0000
# 3 26.3386 56.5938 144.3175 0.0000 0.0000 0.0000
# 4 0.0000 0.0000 0.0000 41.2684 0.0000 0.0000
# 5 0.0000 0.0000 0.0000 0.0000 -75.3287 0.0000
# 6 0.0000 0.0000 0.0000 0.0000 0.0000 -10.7318
#
#
#
# Elastic Compliance Matrix: (Units=1/GPa)
#
#
# Indices 1 2 3 4 5 6 
#
# 1 0.009584 -0.001108 -0.001315 0.000000 0.000000 0.000000
# 2 -0.001108 0.013847 -0.005228 0.000000 0.000000 0.000000
# 3 -0.001315 -0.005228 0.009219 0.000000 0.000000 0.000000
# 4 0.000000 0.000000 0.000000 0.024232 0.000000 0.000000
# 5 0.000000 0.000000 0.000000 0.000000 -0.013275 0.000000
# 6 0.000000 0.000000 0.000000 0.000000 0.000000 -0.093181
#
#
# Mechanical properties :
#
#
# Convention : Reuss Voigt Hill
#
# Bulk Modulus (GPa) = 57.63880 61.43296 59.53588
# Shear Modulus (GPa) = -175.49466 7.56411 -83.96528
#
# Velocity S-wave (km/s) = -8.75263 1.81713 -6.05420
# Velocity P-wave (km/s) = 8.77404 5.58748 4.78350
#
# Compressibility (1/GPa) = 0.01734943
#
# Stress axis : x y z
#
# Youngs Moduli (GPa) = 104.33927 72.21975 108.46962
#
# Poissons Ratio (x) = 0.08000 0.14261
# Poissons Ratio (y) = 0.11558 0.56705
# Poissons Ratio (z) = 0.13718 0.37755
#
# Static dielectric constant tensor:
#      x y z
#    x 2.074180 0.000000 0.000000 
#    y 0.000000 1.887600 0.000000 
#    z 0.000000 0.000000 1.915080 
# 
# From -- ./inp_files/19568.got.cif
#   From: 2010.05.17/outbox.cif.g08.bks.cpg/sg69_10_cif.got.tgz:19568.got - 2010.06.03 19:29:58.
