data_PCOD9513367
_publ_section_title
;
Structure prediction by ZEFSAII (Michael W. Deem and Ramdas Pophale) SiO2 
 PCOD9513367
Probable space group: F M M M
;
_chemical_formula_sum "Si O2"
_cell_formula_units_Z 176
_cell_length_a 16.158967
_cell_length_b 20.168042
_cell_length_c 25.744671
_cell_angle_alpha 90.000000
_cell_angle_beta 90.000000
_cell_angle_gamma 90.000000
_cell_volume 8390.052479
_symmetry_space_group_name_H-M "F M M M"
_symmetry_group_IT_number 69
_symmetry_cell_setting 'orthorhombic'
loop_
_space_group_symop_operation_xyz
x,y,z
-x,-y,z
x,-y,-z
-x,y,-z
-x,-y,-z
x,y,-z
-x,y,z
x,-y,z
x,1/2+y,1/2+z
-x,1/2-y,1/2+z
x,1/2-y,1/2-z
-x,1/2+y,1/2-z
-x,1/2-y,1/2-z
x,1/2+y,1/2-z
-x,1/2+y,1/2+z
x,1/2-y,1/2+z
1/2+x,y,1/2+z
1/2-x,-y,1/2+z
1/2+x,-y,1/2-z
1/2-x,y,1/2-z
1/2-x,-y,1/2-z
1/2+x,y,1/2-z
1/2-x,y,1/2+z
1/2+x,-y,1/2+z
1/2+x,1/2+y,z
1/2-x,1/2-y,z
1/2+x,1/2-y,-z
1/2-x,1/2+y,-z
1/2-x,1/2-y,-z
1/2+x,1/2+y,-z
1/2-x,1/2+y,z
1/2+x,1/2-y,z
loop_
_atom_site_type_symbol
_atom_site_label
_atom_site_fract_x
_atom_site_fract_y
_atom_site_fract_z
Si Si1 0.900966 0.662715 0.703310
Si Si2 0.097054 0.073284 0.299384
Si Si3 0.678722 0.629600 0.394926
Si Si4 0.250000 0.750000 0.828854
Si Si5 0.851728 0.424216 0.396692
Si Si6 0.163046 0.707941 0.000000
Si Si7 0.093842 0.650586 0.500000
O O1 0.873399 0.623122 0.754904
O O2 0.833622 0.721297 0.697463
O O3 0.888510 0.613862 0.653527
O O4 0.000000 0.681147 0.705844
O O5 0.109518 0.100773 0.357134
O O6 0.000000 0.068042 0.289192
O O7 0.134868 0.000000 0.294122
O O8 0.718733 0.690846 0.364530
O O9 0.752212 0.576329 0.395536
O O10 0.655494 0.660282 0.450248
O O11 0.882306 0.500000 0.399931
O O12 0.869085 0.380574 0.447864
O O13 0.250000 0.750000 0.000000
O O14 0.100841 0.769852 0.000000
O O15 0.000000 0.629634 0.500000
#
# Coordination Sequence:
#
# PCOD9513367 Si02
#       7
#    32  32  32  16  32  16  16
#     4  10  22  41  65  92 130 177 217 264 326 386
#     4  10  23  43  64  91 127 166 214 269 320 375
#     4  11  22  39  65  89 124 166 210 264 319 377
#     4  10  22  38  60  96 130 159 216 267 312 384
#     4  11  22  37  61  94 129 171 219 262 317 389
#     4  12  20  44  66  86 123 167 210 255 315 387
#     4  12  25  39  60  94 131 163 205 269 330 382
#
# _framework density 20.977222000000001
#
# number of rings (size 3 to 8) (size 9 to 14) (size 15 to 20)
#    0.000    1.273    2.727    3.000    0.000    8.364 
#    0.000    7.727    0.000    1.091    0.000    0.000 
#    0.000    0.000    0.000    0.000    0.000    0.000 
#
# Total GULP energy -245564.671609 kJ/mol
# GULP energy per Si atom -5581.015264 kJ/mol
# Density = 2.092948 g / cm^3
# Si number density = 20.977222 Si / 1000 Ang^3
#
#
#
# Elastic Constant Matrix: (Units=GPa)
#
#
# Indices 1 2 3 4 5 6 
#
# 1 58.6912 34.7670 25.6010 0.0000 0.0000 0.0000
# 2 34.7670 115.2406 52.6951 0.0000 0.0000 0.0000
# 3 25.6010 52.6951 155.9897 0.0000 0.0000 0.0000
# 4 0.0000 0.0000 0.0000 46.2852 0.0000 0.0000
# 5 0.0000 0.0000 0.0000 0.0000 11.2595 0.0000
# 6 0.0000 0.0000 0.0000 0.0000 0.0000 23.9206
#
#
#
# Elastic Compliance Matrix: (Units=1/GPa)
#
#
# Indices 1 2 3 4 5 6 
#
# 1 0.021058 -0.005645 -0.001549 0.000000 0.000000 0.000000
# 2 -0.005645 0.011776 -0.003052 0.000000 0.000000 0.000000
# 3 -0.001549 -0.003052 0.007696 0.000000 0.000000 0.000000
# 4 0.000000 0.000000 0.000000 0.021605 0.000000 0.000000
# 5 0.000000 0.000000 0.000000 0.000000 0.088814 0.000000
# 6 0.000000 0.000000 0.000000 0.000000 0.000000 0.041805
#
#
# Mechanical properties :
#
#
# Convention : Reuss Voigt Hill
#
# Bulk Modulus (GPa) = 49.90360 61.78308 55.84334
# Shear Modulus (GPa) = 22.73517 30.75028 26.74272
#
# Velocity S-wave (km/s) = 3.29569 3.83285 3.57437
# Velocity P-wave (km/s) = 6.19057 7.00743 6.61162
#
# Compressibility (1/GPa) = 0.02003863
#
# Stress axis : x y z
#
# Youngs Moduli (GPa) = 47.48843 84.91990 129.94085
#
# Poissons Ratio (x) = 0.47933 0.20130
# Poissons Ratio (y) = 0.26805 0.39653
# Poissons Ratio (z) = 0.07357 0.25914
#
# Static dielectric constant tensor:
#      x y z
#    x 1.791180 0.000000 0.000000 
#    y 0.000000 1.817200 0.000000 
#    z 0.000000 0.000000 1.711980 
# 
# From -- ./inp_files/41880.got.cif
#   From: 2010.05.17/outbox.cif.g08.bks.cpg/sg69_21_cif.got.tgz:41880.got - 2010.06.03 19:29:58.
