data_PCOD9513803
_publ_section_title
;
Structure prediction by ZEFSAII (Michael W. Deem and Ramdas Pophale) SiO2 
 PCOD9513803
Probable space group: F M M M
;
_chemical_formula_sum "Si O2"
_cell_formula_units_Z 136
_cell_length_a 17.406137
_cell_length_b 21.655186
_cell_length_c 15.549456
_cell_angle_alpha 90.000000
_cell_angle_beta 90.000000
_cell_angle_gamma 90.000000
_cell_volume 5861.105186
_symmetry_space_group_name_H-M "F M M M"
_symmetry_group_IT_number 69
_symmetry_cell_setting 'orthorhombic'
loop_
_space_group_symop_operation_xyz
x,y,z
-x,-y,z
x,-y,-z
-x,y,-z
-x,-y,-z
x,y,-z
-x,y,z
x,-y,z
x,1/2+y,1/2+z
-x,1/2-y,1/2+z
x,1/2-y,1/2-z
-x,1/2+y,1/2-z
-x,1/2-y,1/2-z
x,1/2+y,1/2-z
-x,1/2+y,1/2+z
x,1/2-y,1/2+z
1/2+x,y,1/2+z
1/2-x,-y,1/2+z
1/2+x,-y,1/2-z
1/2-x,y,1/2-z
1/2-x,-y,1/2-z
1/2+x,y,1/2-z
1/2-x,y,1/2+z
1/2+x,-y,1/2+z
1/2+x,1/2+y,z
1/2-x,1/2-y,z
1/2+x,1/2-y,-z
1/2-x,1/2+y,-z
1/2-x,1/2-y,-z
1/2+x,1/2+y,-z
1/2-x,1/2+y,z
1/2+x,1/2-y,z
loop_
_atom_site_type_symbol
_atom_site_label
_atom_site_fract_x
_atom_site_fract_y
_atom_site_fract_z
Si Si1 0.840177 0.245138 0.854827
Si Si2 0.584791 0.126838 0.134920
Si Si3 0.000000 0.500000 0.380278
Si Si4 0.612000 0.613895 0.164165
Si Si5 0.257966 0.928053 0.906993
O O1 0.838987 0.250000 0.750000
O O2 0.750000 0.250000 0.882119
O O3 0.886499 0.304516 0.886447
O O4 0.886428 0.182413 0.876662
O O5 0.500000 0.113596 0.102335
O O6 0.583608 0.119500 0.238372
O O7 0.652564 0.083232 0.103974
O O8 0.066682 0.443886 0.377554
O O9 0.703150 0.600523 0.163939
O O10 0.243859 0.000000 0.906142
O O11 0.233476 0.902315 0.000000
#
# Coordination Sequence:
#
# PCOD9513803 Si02
#       5
#    32  32   8  32  32
#     4   9  18  35  61  95 126 165 205 258 326 377
#     4  11  23  38  66  97 128 161 210 271 317 377
#     4  12  24  36  65 104 131 162 216 278 322 374
#     4  11  22  40  63  97 129 163 213 262 324 378
#     4  11  25  43  62  87 126 174 214 255 317 387
#
# _framework density 23.203814000000001
#
# number of rings (size 3 to 8) (size 9 to 14) (size 15 to 20)
#    0.000    1.412    4.706    0.706    3.294    3.294 
#    0.000    4.706    0.000    0.000    0.000    0.000 
#    0.000    0.000    0.000    0.000    0.000    0.000 
#
# Total GULP energy -189293.315951 kJ/mol
# GULP energy per Si atom -5567.450469 kJ/mol
# Density = 2.315100 g / cm^3
# Si number density = 23.203814 Si / 1000 Ang^3
#
#
#
# Elastic Constant Matrix: (Units=GPa)
#
#
# Indices 1 2 3 4 5 6 
#
# 1 165.2871 23.4431 29.4986 0.0000 0.0000 0.0000
# 2 23.4431 87.0718 7.9955 0.0000 0.0000 0.0000
# 3 29.4986 7.9955 35.5042 0.0000 0.0000 0.0000
# 4 0.0000 0.0000 0.0000 8.8889 0.0000 0.0000
# 5 0.0000 0.0000 0.0000 0.0000 -1.5978 0.0000
# 6 0.0000 0.0000 0.0000 0.0000 0.0000 47.1362
#
#
#
# Elastic Compliance Matrix: (Units=1/GPa)
#
#
# Indices 1 2 3 4 5 6 
#
# 1 0.007274 -0.001433 -0.005721 0.000000 0.000000 0.000000
# 2 -0.001433 0.012010 -0.001514 0.000000 0.000000 0.000000
# 3 -0.005721 -0.001514 0.033260 0.000000 0.000000 0.000000
# 4 0.000000 0.000000 0.000000 0.112500 0.000000 0.000000
# 5 0.000000 0.000000 0.000000 0.000000 -0.625877 0.000000
# 6 0.000000 0.000000 0.000000 0.000000 0.000000 0.021215
#
#
# Mechanical properties :
#
#
# Convention : Reuss Voigt Hill
#
# Bulk Modulus (GPa) = 28.40284 45.52637 36.96461
# Shear Modulus (GPa) = -12.17893 26.01386 6.91746
#
# Velocity S-wave (km/s) = -2.29348 3.35192 1.72848
# Velocity P-wave (km/s) = 2.29210 5.88586 4.46638
#
# Compressibility (1/GPa) = 0.03520775
#
# Stress axis : x y z
#
# Youngs Moduli (GPa) = 137.46836 83.26638 30.06618
#
# Poissons Ratio (x) = 0.11934 0.17201
# Poissons Ratio (y) = 0.19702 0.04551
# Poissons Ratio (z) = 0.78648 0.12605
#
# Static dielectric constant tensor:
#      x y z
#    x 1.852190 0.000000 0.000000 
#    y 0.000000 1.859320 0.000000 
#    z 0.000000 0.000000 1.975210 
# 
# From -- ./inp_files/22586.got.cif
#   From: 2010.05.17/outbox.cif.g08.bks.cpg/sg69_12_cif.got.tgz:22586.got - 2010.06.03 19:29:58.
