data_PCOD9513691
_publ_section_title
;
Structure prediction by ZEFSAII (Michael W. Deem and Ramdas Pophale) SiO2 
 PCOD9513691
Probable space group: F M M M
;
_chemical_formula_sum "Si O2"
_cell_formula_units_Z 128
_cell_length_a 19.062857
_cell_length_b 22.382327
_cell_length_c 15.357594
_cell_angle_alpha 90.000000
_cell_angle_beta 90.000000
_cell_angle_gamma 90.000000
_cell_volume 6552.641509
_symmetry_space_group_name_H-M "F M M M"
_symmetry_group_IT_number 69
_symmetry_cell_setting 'orthorhombic'
loop_
_space_group_symop_operation_xyz
x,y,z
-x,-y,z
x,-y,-z
-x,y,-z
-x,-y,-z
x,y,-z
-x,y,z
x,-y,z
x,1/2+y,1/2+z
-x,1/2-y,1/2+z
x,1/2-y,1/2-z
-x,1/2+y,1/2-z
-x,1/2-y,1/2-z
x,1/2+y,1/2-z
-x,1/2+y,1/2+z
x,1/2-y,1/2+z
1/2+x,y,1/2+z
1/2-x,-y,1/2+z
1/2+x,-y,1/2-z
1/2-x,y,1/2-z
1/2-x,-y,1/2-z
1/2+x,y,1/2-z
1/2-x,y,1/2+z
1/2+x,-y,1/2+z
1/2+x,1/2+y,z
1/2-x,1/2-y,z
1/2+x,1/2-y,-z
1/2-x,1/2+y,-z
1/2-x,1/2-y,-z
1/2+x,1/2+y,-z
1/2-x,1/2+y,z
1/2+x,1/2-y,z
loop_
_atom_site_type_symbol
_atom_site_label
_atom_site_fract_x
_atom_site_fract_y
_atom_site_fract_z
Si Si1 0.890254 0.929577 0.500000
Si Si2 0.500000 0.071322 0.150961
Si Si3 0.853811 0.238038 0.601949
Si Si4 0.274804 0.846871 0.343753
Si Si5 0.500000 0.198997 0.822104
Si Si6 0.728927 0.428460 0.000000
O O1 0.934134 0.917445 0.586687
O O2 0.811055 0.909690 0.500000
O O3 0.884775 0.000000 0.500000
O O4 0.500000 0.129918 0.211959
O O5 0.500000 0.000000 0.177301
O O6 0.849162 0.254717 0.500000
O O7 0.792281 0.190708 0.621589
O O8 0.835579 0.296627 0.659376
O O9 0.929580 0.211547 0.622801
O O10 0.250000 0.870242 0.250000
O O11 0.297693 0.897538 0.411684
O O12 0.500000 0.250000 0.750000
O O13 0.720958 0.500000 0.000000
#
# Coordination Sequence:
#
# PCOD9513691 Si02
#       6
#    16  16  32  32  16  16
#     4   8  16  29  50  79 106 144 190 233 286 359
#     4   9  18  32  52  78 116 153 180 222 299 361
#     4  11  21  38  59  84 115 157 191 241 301 358
#     4  11  21  38  60  84 117 156 195 239 301 358
#     4  12  24  34  54  92 123 147 198 254 284 344
#     4  11  21  35  55  82 115 151 201 246 288 349
#
# _framework density 19.534108
#
# number of rings (size 3 to 8) (size 9 to 14) (size 15 to 20)
#    0.000    1.500    2.500    6.375    3.500    0.500 
#    0.000    0.000    0.000    4.500    0.000    0.875 
#    0.000    0.000    0.000    0.000    0.000    0.000 
#
# Total GULP energy -178394.163785 kJ/mol
# GULP energy per Si atom -5574.817618 kJ/mol
# Density = 1.948965 g / cm^3
# Si number density = 19.534108 Si / 1000 Ang^3
#
#
#
# Elastic Constant Matrix: (Units=GPa)
#
#
# Indices 1 2 3 4 5 6 
#
# 1 71.1864 13.6473 -22.7666 0.0000 0.0000 0.0000
# 2 13.6473 150.9923 45.7249 0.0000 0.0000 0.0000
# 3 -22.7666 45.7249 80.5492 0.0000 0.0000 0.0000
# 4 0.0000 0.0000 0.0000 24.4733 0.0000 0.0000
# 5 0.0000 0.0000 0.0000 0.0000 9.2704 0.0000
# 6 0.0000 0.0000 0.0000 0.0000 0.0000 18.4960
#
#
#
# Elastic Compliance Matrix: (Units=1/GPa)
#
#
# Indices 1 2 3 4 5 6 
#
# 1 0.016919 -0.003595 0.006823 0.000000 0.000000 0.000000
# 2 -0.003595 0.008762 -0.005990 0.000000 0.000000 0.000000
# 3 0.006823 -0.005990 0.017744 0.000000 0.000000 0.000000
# 4 0.000000 0.000000 0.000000 0.040861 0.000000 0.000000
# 5 0.000000 0.000000 0.000000 0.000000 0.107871 0.000000
# 6 0.000000 0.000000 0.000000 0.000000 0.000000 0.054066
#
#
# Mechanical properties :
#
#
# Convention : Reuss Voigt Hill
#
# Bulk Modulus (GPa) = 26.38551 41.77102 34.07826
# Shear Modulus (GPa) = 18.91220 28.18941 23.55081
#
# Velocity S-wave (km/s) = 3.11491 3.80292 3.47598
# Velocity P-wave (km/s) = 5.14525 6.38067 5.79597
#
# Compressibility (1/GPa) = 0.03789959
#
# Stress axis : x y z
#
# Youngs Moduli (GPa) = 59.10505 114.13236 56.35861
#
# Poissons Ratio (x) = 0.41035 -0.38454
# Poissons Ratio (y) = 0.21251 0.33759
# Poissons Ratio (z) = -0.40327 0.68365
#
# Static dielectric constant tensor:
#      x y z
#    x 1.993560 0.000000 0.000000 
#    y 0.000000 1.703850 0.000000 
#    z 0.000000 0.000000 1.798070 
# 
# From -- ./inp_files/16426.got.cif
#   From: 2010.05.17/outbox.cif.g08.bks.cpg/sg69_9_cif.got.tgz:16426.got - 2010.06.03 19:29:58.
