data_PCOD9513525
_publ_section_title
;
Structure prediction by ZEFSAII (Michael W. Deem and Ramdas Pophale) SiO2 
 PCOD9513525
Probable space group: F M M M
;
_chemical_formula_sum "Si O2"
_cell_formula_units_Z 112
_cell_length_a 19.869352
_cell_length_b 10.378940
_cell_length_c 25.299110
_cell_angle_alpha 90.000000
_cell_angle_beta 90.000000
_cell_angle_gamma 90.000000
_cell_volume 5217.253612
_symmetry_space_group_name_H-M "F M M M"
_symmetry_group_IT_number 69
_symmetry_cell_setting 'orthorhombic'
loop_
_space_group_symop_operation_xyz
x,y,z
-x,-y,z
x,-y,-z
-x,y,-z
-x,-y,-z
x,y,-z
-x,y,z
x,-y,z
x,1/2+y,1/2+z
-x,1/2-y,1/2+z
x,1/2-y,1/2-z
-x,1/2+y,1/2-z
-x,1/2-y,1/2-z
x,1/2+y,1/2-z
-x,1/2+y,1/2+z
x,1/2-y,1/2+z
1/2+x,y,1/2+z
1/2-x,-y,1/2+z
1/2+x,-y,1/2-z
1/2-x,y,1/2-z
1/2-x,-y,1/2-z
1/2+x,y,1/2-z
1/2-x,y,1/2+z
1/2+x,-y,1/2+z
1/2+x,1/2+y,z
1/2-x,1/2-y,z
1/2+x,1/2-y,-z
1/2-x,1/2+y,-z
1/2-x,1/2-y,-z
1/2+x,1/2+y,-z
1/2-x,1/2+y,z
1/2+x,1/2-y,z
loop_
_atom_site_type_symbol
_atom_site_label
_atom_site_fract_x
_atom_site_fract_y
_atom_site_fract_z
Si Si1 0.579661 0.000000 0.798180
Si Si2 0.803246 0.352394 0.638602
Si Si3 0.081206 0.500000 0.917484
Si Si4 0.919630 0.210474 0.059214
Si Si5 0.645572 0.750000 0.750000
O O1 0.607312 0.000000 0.857662
O O2 0.603140 0.128907 0.769982
O O3 0.500000 0.000000 0.801242
O O4 0.778894 0.500000 0.638829
O O5 0.750000 0.250000 0.615623
O O6 0.871986 0.346448 0.604442
O O7 0.816412 0.305513 0.698648
O O8 0.098156 0.362892 0.942059
O O9 0.000000 0.500000 0.916876
O O10 0.000000 0.197313 0.071058
O O11 0.908368 0.158119 0.000000
#
# Coordination Sequence:
#
# PCOD9513525 Si02
#       5
#    16  32  16  32  16
#     4  11  22  37  66 106 143 180 225 282 343 407
#     4  12  29  47  70 101 138 184 232 281 342 409
#     4   9  17  34  64 102 137 172 219 272 337 403
#     4  10  22  43  72 104 138 177 226 285 346 408
#     4  12  24  44  68  98 139 186 233 278 337 408
#
# _framework density 21.467233
#
# number of rings (size 3 to 8) (size 9 to 14) (size 15 to 20)
#    0.000    1.143    4.286    1.286    4.000    5.714 
#    0.000    1.429    0.000    0.000    0.000    0.000 
#    0.000    0.000    0.000    0.000    0.000    0.000 
#
# Total GULP energy -156417.903764 kJ/mol
# GULP energy per Si atom -5586.353706 kJ/mol
# Density = 2.141837 g / cm^3
# Si number density = 21.467233 Si / 1000 Ang^3
#
#
#
# Elastic Constant Matrix: (Units=GPa)
#
#
# Indices 1 2 3 4 5 6 
#
# 1 92.7853 43.3460 55.9096 0.0000 0.0000 0.0000
# 2 43.3460 172.4797 37.1567 0.0000 0.0000 0.0000
# 3 55.9096 37.1567 128.9350 0.0000 0.0000 0.0000
# 4 0.0000 0.0000 0.0000 -4.4559 0.0000 0.0000
# 5 0.0000 0.0000 0.0000 0.0000 47.8418 0.0000
# 6 0.0000 0.0000 0.0000 0.0000 0.0000 11.9150
#
#
#
# Elastic Compliance Matrix: (Units=1/GPa)
#
#
# Indices 1 2 3 4 5 6 
#
# 1 0.015636 -0.002632 -0.006021 0.000000 0.000000 0.000000
# 2 -0.002632 0.006625 -0.000768 0.000000 0.000000 0.000000
# 3 -0.006021 -0.000768 0.010588 0.000000 0.000000 0.000000
# 4 0.000000 0.000000 0.000000 -0.224423 0.000000 0.000000
# 5 0.000000 0.000000 0.000000 0.000000 0.020902 0.000000
# 6 0.000000 0.000000 0.000000 0.000000 0.000000 0.083928
#
#
# Mechanical properties :
#
#
# Convention : Reuss Voigt Hill
#
# Bulk Modulus (GPa) = 71.39968 74.11383 72.75676
# Shear Modulus (GPa) = -79.07248 28.24603 -25.41323
#
# Velocity S-wave (km/s) = -6.07569 3.63130 -3.44439
# Velocity P-wave (km/s) = 3.98580 7.22363 4.25994
#
# Compressibility (1/GPa) = 0.01400566
#
# Stress axis : x y z
#
# Youngs Moduli (GPa) = 63.95665 150.95086 94.44527
#
# Poissons Ratio (x) = 0.39733 0.56870
# Poissons Ratio (y) = 0.16835 0.07251
# Poissons Ratio (z) = 0.38511 0.11589
#
# Static dielectric constant tensor:
#      x y z
#    x 1.773860 0.000000 0.000000 
#    y 0.000000 1.782630 0.000000 
#    z 0.000000 0.000000 1.767210 
# 
# From -- ./inp_files/41545.got.cif
#   From: 2010.05.17/outbox.cif.g08.bks.cpg/sg69_21_cif.got.tgz:41545.got - 2010.06.03 19:29:58.
