data_PCOD9513354
_publ_section_title
;
Structure prediction by ZEFSAII (Michael W. Deem and Ramdas Pophale) SiO2 
 PCOD9513354
Probable space group: F M M M
;
_chemical_formula_sum "Si O2"
_cell_formula_units_Z 104
_cell_length_a 11.361360
_cell_length_b 14.430298
_cell_length_c 31.663070
_cell_angle_alpha 90.000000
_cell_angle_beta 90.000000
_cell_angle_gamma 90.000000
_cell_volume 5191.091000
_symmetry_space_group_name_H-M "F M M M"
_symmetry_group_IT_number 69
_symmetry_cell_setting 'orthorhombic'
loop_
_space_group_symop_operation_xyz
x,y,z
-x,-y,z
x,-y,-z
-x,y,-z
-x,-y,-z
x,y,-z
-x,y,z
x,-y,z
x,1/2+y,1/2+z
-x,1/2-y,1/2+z
x,1/2-y,1/2-z
-x,1/2+y,1/2-z
-x,1/2-y,1/2-z
x,1/2+y,1/2-z
-x,1/2+y,1/2+z
x,1/2-y,1/2+z
1/2+x,y,1/2+z
1/2-x,-y,1/2+z
1/2+x,-y,1/2-z
1/2-x,y,1/2-z
1/2-x,-y,1/2-z
1/2+x,y,1/2-z
1/2-x,y,1/2+z
1/2+x,-y,1/2+z
1/2+x,1/2+y,z
1/2-x,1/2-y,z
1/2+x,1/2-y,-z
1/2-x,1/2+y,-z
1/2-x,1/2-y,-z
1/2+x,1/2+y,-z
1/2-x,1/2+y,z
1/2+x,1/2-y,z
loop_
_atom_site_type_symbol
_atom_site_label
_atom_site_fract_x
_atom_site_fract_y
_atom_site_fract_z
Si Si1 0.129071 0.850543 0.550320
Si Si2 0.866745 0.643744 0.588323
Si Si3 0.250000 0.750000 0.750000
Si Si4 0.639503 0.896299 0.313511
O O1 0.135110 0.836758 0.500000
O O2 0.127118 0.750544 0.573279
O O3 0.251754 0.895832 0.564756
O O4 0.000000 0.893610 0.559424
O O5 0.840579 0.633535 0.637984
O O6 0.000000 0.606348 0.580610
O O7 0.318482 0.819250 0.718981
O O8 0.500000 0.903039 0.308712
O O9 0.690392 0.000000 0.306652
#
# Coordination Sequence:
#
# PCOD9513354 Si02
#       4
#    32  32   8  32
#     4   9  16  26  45  76 109 141 184 235 280 325
#     4   9  16  28  47  70 101 141 181 222 271 327
#     4  12  20  36  64  84 106 148 188 224 284 360
#     4  10  22  38  56  83 116 146 184 237 288 337
#
# _framework density 20.034324000000002
#
# number of rings (size 3 to 8) (size 9 to 14) (size 15 to 20)
#    0.000    2.462    0.000    4.615    0.000    1.846 
#    0.000    1.538    0.000    8.308    0.000   21.538 
#    0.000    0.000    0.000    0.000    0.000    0.000 
#
# Total GULP energy -144772.757638 kJ/mol
# GULP energy per Si atom -5568.182986 kJ/mol
# Density = 1.998873 g / cm^3
# Si number density = 20.034324 Si / 1000 Ang^3
#
#
#
# Elastic Constant Matrix: (Units=GPa)
#
#
# Indices 1 2 3 4 5 6 
#
# 1 164.0095 34.2801 69.1403 0.0000 0.0000 0.0000
# 2 34.2801 130.0676 71.5555 0.0000 0.0000 0.0000
# 3 69.1403 71.5555 125.4724 0.0000 0.0000 0.0000
# 4 0.0000 0.0000 0.0000 7.7320 0.0000 0.0000
# 5 0.0000 0.0000 0.0000 0.0000 65.0942 0.0000
# 6 0.0000 0.0000 0.0000 0.0000 0.0000 1.4414
#
#
#
# Elastic Compliance Matrix: (Units=1/GPa)
#
#
# Indices 1 2 3 4 5 6 
#
# 1 0.007961 0.000459 -0.004649 0.000000 0.000000 0.000000
# 2 0.000459 0.011230 -0.006657 0.000000 0.000000 0.000000
# 3 -0.004649 -0.006657 0.014328 0.000000 0.000000 0.000000
# 4 0.000000 0.000000 0.000000 0.129333 0.000000 0.000000
# 5 0.000000 0.000000 0.000000 0.000000 0.015362 0.000000
# 6 0.000000 0.000000 0.000000 0.000000 0.000000 0.693778
#
#
# Mechanical properties :
#
#
# Convention : Reuss Voigt Hill
#
# Bulk Modulus (GPa) = 84.56423 85.50014 85.03219
# Shear Modulus (GPa) = 5.57024 31.15843 18.36434
#
# Velocity S-wave (km/s) = 1.66925 3.94795 3.03090
# Velocity P-wave (km/s) = 6.78355 7.97190 7.40161
#
# Compressibility (1/GPa) = 0.01182533
#
# Stress axis : x y z
#
# Youngs Moduli (GPa) = 125.61330 89.04970 69.79308
#
# Poissons Ratio (x) = -0.04090 0.32445
# Poissons Ratio (y) = -0.05769 0.46463
# Poissons Ratio (z) = 0.58394 0.59283
#
# Static dielectric constant tensor:
#      x y z
#    x 1.778860 0.000000 0.000000 
#    y 0.000000 1.712160 0.000000 
#    z 0.000000 0.000000 1.661760 
# 
# From -- ./inp_files/7318.got.cif
#   From: 2010.05.17/outbox.cif.g08.bks.cpg/sg69_4_cif.got.tgz:7318.got - 2010.06.03 19:29:58.
