data_PCOD9513009
_publ_section_title
;
Structure prediction by ZEFSAII (Michael W. Deem and Ramdas Pophale) SiO2 
 PCOD9513009
Probable space group: F M M M
;
_chemical_formula_sum "Si O2"
_cell_formula_units_Z 192
_cell_length_a 27.572034
_cell_length_b 15.657772
_cell_length_c 23.627863
_cell_angle_alpha 90.000000
_cell_angle_beta 90.000000
_cell_angle_gamma 90.000000
_cell_volume 10200.541198
_symmetry_space_group_name_H-M "F M M M"
_symmetry_group_IT_number 69
_symmetry_cell_setting 'orthorhombic'
loop_
_space_group_symop_operation_xyz
x,y,z
-x,-y,z
x,-y,-z
-x,y,-z
-x,-y,-z
x,y,-z
-x,y,z
x,-y,z
x,1/2+y,1/2+z
-x,1/2-y,1/2+z
x,1/2-y,1/2-z
-x,1/2+y,1/2-z
-x,1/2-y,1/2-z
x,1/2+y,1/2-z
-x,1/2+y,1/2+z
x,1/2-y,1/2+z
1/2+x,y,1/2+z
1/2-x,-y,1/2+z
1/2+x,-y,1/2-z
1/2-x,y,1/2-z
1/2-x,-y,1/2-z
1/2+x,y,1/2-z
1/2-x,y,1/2+z
1/2+x,-y,1/2+z
1/2+x,1/2+y,z
1/2-x,1/2-y,z
1/2+x,1/2-y,-z
1/2-x,1/2+y,-z
1/2-x,1/2-y,-z
1/2+x,1/2+y,-z
1/2-x,1/2+y,z
1/2+x,1/2-y,z
loop_
_atom_site_type_symbol
_atom_site_label
_atom_site_fract_x
_atom_site_fract_y
_atom_site_fract_z
Si Si1 0.443254 0.306436 0.500000
Si Si2 0.282190 0.403438 0.197799
Si Si3 0.116140 0.165269 0.787309
Si Si4 0.714803 0.665524 0.613773
Si Si5 0.620568 0.902276 0.829163
Si Si6 0.555942 0.744385 0.624181
Si Si7 0.161331 0.896872 0.500000
O O1 0.500000 0.341485 0.500000
O O2 0.438876 0.250784 0.556808
O O3 0.395848 0.368814 0.500000
O O4 0.295486 0.500000 0.213529
O O5 0.250000 0.369329 0.250000
O O6 0.329879 0.348636 0.190988
O O7 0.251820 0.402264 0.140516
O O8 0.111066 0.250000 0.750000
O O9 0.108980 0.096318 0.737743
O O10 0.081938 0.180985 0.840589
O O11 0.750000 0.750000 0.612053
O O12 0.669099 0.653322 0.657204
O O13 0.689573 0.641942 0.554499
O O14 0.579015 0.847385 0.859392
O O15 0.626379 0.000000 0.849579
O O16 0.500000 0.744182 0.639863
O O17 0.164268 0.000000 0.500000
#
# Coordination Sequence:
#
# PCOD9513009 Si02
#       7
#    16  32  32  32  32  32  16
#     4  10  22  40  64  87 114 154 204 252 304 367
#     4  11  22  35  56  85 120 157 197 245 295 352
#     4  10  21  36  57  86 117 159 199 248 295 363
#     4  12  24  39  58  86 121 165 206 244 297 366
#     4  11  21  37  61  90 125 163 201 248 305 370
#     4  10  22  40  60  87 119 156 202 254 312 372
#     4  12  25  42  62  85 124 161 199 256 306 363
#
# _framework density 18.822531000000001
#
# number of rings (size 3 to 8) (size 9 to 14) (size 15 to 20)
#    0.000    1.167    3.333    4.250    0.000    3.500 
#    0.000    1.667    0.000    1.500    0.000    1.750 
#    0.000    8.000    0.000    0.000    0.000    0.000 
#
# Total GULP energy -267262.832015 kJ/mol
# GULP energy per Si atom -5567.975667 kJ/mol
# Density = 1.877969 g / cm^3
# Si number density = 18.822531 Si / 1000 Ang^3
#
#
#
# Elastic Constant Matrix: (Units=GPa)
#
#
# Indices 1 2 3 4 5 6 
#
# 1 132.8752 39.1679 63.2694 0.0000 0.0000 0.0000
# 2 39.1679 77.5969 31.0807 0.0000 0.0000 0.0000
# 3 63.2694 31.0807 119.7707 0.0000 0.0000 0.0000
# 4 0.0000 0.0000 0.0000 12.3902 0.0000 0.0000
# 5 0.0000 0.0000 0.0000 0.0000 36.4279 0.0000
# 6 0.0000 0.0000 0.0000 0.0000 0.0000 5.5659
#
#
#
# Elastic Compliance Matrix: (Units=1/GPa)
#
#
# Indices 1 2 3 4 5 6 
#
# 1 0.010868 -0.003556 -0.004819 0.000000 0.000000 0.000000
# 2 -0.003556 0.015545 -0.002156 0.000000 0.000000 0.000000
# 3 -0.004819 -0.002156 0.011454 0.000000 0.000000 0.000000
# 4 0.000000 0.000000 0.000000 0.080709 0.000000 0.000000
# 5 0.000000 0.000000 0.000000 0.000000 0.027451 0.000000
# 6 0.000000 0.000000 0.000000 0.000000 0.000000 0.179667
#
#
# Mechanical properties :
#
#
# Convention : Reuss Voigt Hill
#
# Bulk Modulus (GPa) = 59.49632 66.36431 62.93032
# Shear Modulus (GPa) = 14.19010 23.99176 19.09093
#
# Velocity S-wave (km/s) = 2.74868 3.57407 3.18820
# Velocity P-wave (km/s) = 6.46153 7.23646 6.85995
#
# Compressibility (1/GPa) = 0.01680776
#
# Stress axis : x y z
#
# Youngs Moduli (GPa) = 92.00964 64.32758 87.30507
#
# Poissons Ratio (x) = 0.22875 0.42068
# Poissons Ratio (y) = 0.32718 0.18820
# Poissons Ratio (z) = 0.44335 0.13867
#
# Static dielectric constant tensor:
#      x y z
#    x 1.675530 0.000000 0.000000 
#    y 0.000000 1.671210 0.000000 
#    z 0.000000 0.000000 1.720110 
# 
# From -- ./inp_files/38368.got.cif
#   From: 2010.05.17/outbox.cif.g08.bks.cpg/sg69_20_cif.got.tgz:38368.got - 2010.06.03 19:29:58.
