data_PCOD9513800
_publ_section_title
;
Structure prediction by ZEFSAII (Michael W. Deem and Ramdas Pophale) SiO2 
 PCOD9513800
Probable space group: F M M M
;
_chemical_formula_sum "Si O2"
_cell_formula_units_Z 176
_cell_length_a 17.099261
_cell_length_b 26.290981
_cell_length_c 20.550985
_cell_angle_alpha 90.000000
_cell_angle_beta 90.000000
_cell_angle_gamma 90.000000
_cell_volume 9238.825725
_symmetry_space_group_name_H-M "F M M M"
_symmetry_group_IT_number 69
_symmetry_cell_setting 'orthorhombic'
loop_
_space_group_symop_operation_xyz
x,y,z
-x,-y,z
x,-y,-z
-x,y,-z
-x,-y,-z
x,y,-z
-x,y,z
x,-y,z
x,1/2+y,1/2+z
-x,1/2-y,1/2+z
x,1/2-y,1/2-z
-x,1/2+y,1/2-z
-x,1/2-y,1/2-z
x,1/2+y,1/2-z
-x,1/2+y,1/2+z
x,1/2-y,1/2+z
1/2+x,y,1/2+z
1/2-x,-y,1/2+z
1/2+x,-y,1/2-z
1/2-x,y,1/2-z
1/2-x,-y,1/2-z
1/2+x,y,1/2-z
1/2-x,y,1/2+z
1/2+x,-y,1/2+z
1/2+x,1/2+y,z
1/2-x,1/2-y,z
1/2+x,1/2-y,-z
1/2-x,1/2+y,-z
1/2-x,1/2-y,-z
1/2+x,1/2+y,-z
1/2-x,1/2+y,z
1/2+x,1/2-y,z
loop_
_atom_site_type_symbol
_atom_site_label
_atom_site_fract_x
_atom_site_fract_y
_atom_site_fract_z
Si Si1 0.000000 0.060058 0.077217
Si Si2 0.272529 0.440611 0.672942
Si Si3 0.655176 0.309345 0.748668
Si Si4 0.136529 0.628602 0.375842
Si Si5 0.593052 0.872675 0.129222
Si Si6 0.841286 0.197463 0.000000
Si Si7 0.153057 0.184352 0.500000
O O1 0.926050 0.085349 0.110777
O O2 0.000000 0.000000 0.084922
O O3 0.000000 0.071529 0.000000
O O4 0.259715 0.500000 0.657445
O O5 0.250000 0.434440 0.750000
O O6 0.217633 0.401636 0.633494
O O7 0.359397 0.422903 0.652472
O O8 0.637797 0.250000 0.750000
O O9 0.750000 0.314715 0.750000
O O10 0.623339 0.339449 0.810676
O O11 0.617913 0.332939 0.684807
O O12 0.133407 0.667516 0.435630
O O13 0.500000 0.880382 0.126309
O O14 0.623610 0.847337 0.062313
O O15 0.871293 0.255754 0.000000
O O16 0.746923 0.191389 0.000000
#
# Coordination Sequence:
#
# PCOD9513800 Si02
#       7
#    16  32  32  32  32  16  16
#     4  11  26  44  63  94 134 171 208 265 327 377
#     4  11  23  43  69  95 125 168 220 272 325 383
#     4  11  22  41  67  92 126 167 214 264 318 385
#     4  12  21  43  65  97 127 165 215 268 321 387
#     4  12  24  42  62  95 134 169 214 269 321 382
#     4  11  22  39  73  92 125 171 220 257 322 388
#     4  11  23  44  63  96 128 174 216 262 318 389
#
# _framework density 19.050039999999999
#
# number of rings (size 3 to 8) (size 9 to 14) (size 15 to 20)
#    0.000    0.636    6.364    1.909    1.273    3.636 
#    6.545    1.364    0.000    1.091    0.000    0.000 
#    0.000    0.000    0.000    0.000    0.000    0.000 
#
# Total GULP energy -245750.606744 kJ/mol
# GULP energy per Si atom -5585.241062 kJ/mol
# Density = 1.900668 g / cm^3
# Si number density = 19.050040 Si / 1000 Ang^3
#
#
#
# Elastic Constant Matrix: (Units=GPa)
#
#
# Indices 1 2 3 4 5 6 
#
# 1 89.0021 18.6923 31.1385 0.0000 0.0000 0.0000
# 2 18.6923 122.2980 57.1988 0.0000 0.0000 0.0000
# 3 31.1385 57.1988 158.9877 0.0000 0.0000 0.0000
# 4 0.0000 0.0000 0.0000 87.0833 0.0000 0.0000
# 5 0.0000 0.0000 0.0000 0.0000 3.2042 0.0000
# 6 0.0000 0.0000 0.0000 0.0000 0.0000 38.6587
#
#
#
# Elastic Compliance Matrix: (Units=1/GPa)
#
#
# Indices 1 2 3 4 5 6 
#
# 1 0.012143 -0.000894 -0.002057 0.000000 0.000000 0.000000
# 2 -0.000894 0.009897 -0.003385 0.000000 0.000000 0.000000
# 3 -0.002057 -0.003385 0.007911 0.000000 0.000000 0.000000
# 4 0.000000 0.000000 0.000000 0.011483 0.000000 0.000000
# 5 0.000000 0.000000 0.000000 0.000000 0.312087 0.000000
# 6 0.000000 0.000000 0.000000 0.000000 0.000000 0.025867
#
#
# Mechanical properties :
#
#
# Convention : Reuss Voigt Hill
#
# Bulk Modulus (GPa) = 57.87680 64.92744 61.40212
# Shear Modulus (GPa) = 12.56851 43.33981 27.95416
#
# Velocity S-wave (km/s) = 2.57137 4.77492 3.83483
# Velocity P-wave (km/s) = 6.26605 8.03470 7.20485
#
# Compressibility (1/GPa) = 0.01727808
#
# Stress axis : x y z
#
# Youngs Moduli (GPa) = 82.35203 101.04308 126.41332
#
# Poissons Ratio (x) = 0.09034 0.25998
# Poissons Ratio (y) = 0.07363 0.42796
# Poissons Ratio (z) = 0.16936 0.34207
#
# Static dielectric constant tensor:
#      x y z
#    x 1.670690 0.000000 0.000000 
#    y 0.000000 1.648340 0.000000 
#    z 0.000000 0.000000 1.633910 
# 
# From -- ./inp_files/23320.got.cif
#   From: 2010.05.17/outbox.cif.g08.bks.cpg/sg69_12_cif.got.tgz:23320.got - 2010.06.03 19:29:58.
