data_PCOD9513943
_publ_section_title
;
Structure prediction by ZEFSAII (Michael W. Deem and Ramdas Pophale) SiO2 
 PCOD9513943
Probable space group: F M M M
;
_chemical_formula_sum "Si O2"
_cell_formula_units_Z 144
_cell_length_a 33.138592
_cell_length_b 28.064785
_cell_length_c 7.454296
_cell_angle_alpha 90.000000
_cell_angle_beta 90.000000
_cell_angle_gamma 90.000000
_cell_volume 6932.699973
_symmetry_space_group_name_H-M "F M M M"
_symmetry_group_IT_number 69
_symmetry_cell_setting 'orthorhombic'
loop_
_space_group_symop_operation_xyz
x,y,z
-x,-y,z
x,-y,-z
-x,y,-z
-x,-y,-z
x,y,-z
-x,y,z
x,-y,z
x,1/2+y,1/2+z
-x,1/2-y,1/2+z
x,1/2-y,1/2-z
-x,1/2+y,1/2-z
-x,1/2-y,1/2-z
x,1/2+y,1/2-z
-x,1/2+y,1/2+z
x,1/2-y,1/2+z
1/2+x,y,1/2+z
1/2-x,-y,1/2+z
1/2+x,-y,1/2-z
1/2-x,y,1/2-z
1/2-x,-y,1/2-z
1/2+x,y,1/2-z
1/2-x,y,1/2+z
1/2+x,-y,1/2+z
1/2+x,1/2+y,z
1/2-x,1/2-y,z
1/2+x,1/2-y,-z
1/2-x,1/2+y,-z
1/2-x,1/2-y,-z
1/2+x,1/2+y,-z
1/2-x,1/2+y,z
1/2+x,1/2-y,z
loop_
_atom_site_type_symbol
_atom_site_label
_atom_site_fract_x
_atom_site_fract_y
_atom_site_fract_z
Si Si1 0.122991 0.803824 0.285845
Si Si2 0.415985 0.400308 0.281337
Si Si3 0.500000 0.555053 0.719396
Si Si4 0.204753 0.651194 0.214087
Si Si5 0.831641 0.946970 0.718535
O O1 0.123985 0.808563 0.500000
O O2 0.110686 0.750000 0.250000
O O3 0.094423 0.846621 0.221439
O O4 0.168351 0.815550 0.218335
O O5 0.416824 0.400721 0.500000
O O6 0.458908 0.419684 0.220326
O O7 0.377574 0.432913 0.231236
O O8 0.500000 0.500000 0.772870
O O9 0.500000 0.556073 0.500000
O O10 0.250000 0.667147 0.250000
O O11 0.196130 0.597125 0.279442
O O12 0.200728 0.649429 0.000000
O O13 0.830369 0.947622 0.500000
O O14 0.820928 0.000000 0.780641
#
# Coordination Sequence:
#
# PCOD9513943 Si02
#       5
#    32  32  16  32  32
#     4   9  18  32  47  62  84 115 146 177 216 257
#     4   8  14  24  38  60  89 115 141 175 212 250
#     4   9  14  20  37  66  95 119 141 169 208 251
#     4   9  18  30  43  62  86 110 140 179 218 255
#     4   8  13  23  39  57  81 114 144 169 206 257
#
# _framework density 20.771127
#
# number of rings (size 3 to 8) (size 9 to 14) (size 15 to 20)
#    0.000    3.444    0.000    3.333    0.000    4.444 
#    0.000    2.778    0.000    0.000    0.000    0.000 
#    0.000    3.556    0.000    0.000    0.000    0.444 
#
# Total GULP energy -200745.191088 kJ/mol
# GULP energy per Si atom -5576.255308 kJ/mol
# Density = 2.072385 g / cm^3
# Si number density = 20.771127 Si / 1000 Ang^3
#
#
#
# Elastic Constant Matrix: (Units=GPa)
#
#
# Indices 1 2 3 4 5 6 
#
# 1 104.5320 28.4444 0.1558 0.0059 0.0065 0.0092
# 2 28.4444 111.4044 1.3854 0.0218 -0.0126 -0.0027
# 3 0.1558 1.3854 58.9523 0.0842 -0.0383 -0.0184
# 4 0.0059 0.0218 0.0842 7.4743 -0.0305 -0.0189
# 5 0.0065 -0.0126 -0.0383 -0.0305 0.6299 0.0011
# 6 0.0092 -0.0027 -0.0184 -0.0189 0.0011 10.6792
#
#
#
# Elastic Compliance Matrix: (Units=1/GPa)
#
#
# Indices 1 2 3 4 5 6 
#
# 1 0.010281 -0.002625 0.000034 -0.000002 -0.000157 -0.000009
# 2 -0.002625 0.009649 -0.000220 -0.000023 0.000206 0.000004
# 3 0.000034 -0.000220 0.016969 -0.000186 0.001017 0.000029
# 4 -0.000002 -0.000023 -0.000186 0.133820 0.006467 0.000236
# 5 -0.000157 0.000206 0.001017 0.006467 1.587950 -0.000157
# 6 -0.000009 0.000004 0.000029 0.000236 -0.000157 0.093640
#
#
# Mechanical properties :
#
#
# Convention : Reuss Voigt Hill
#
# Bulk Modulus (GPa) = 31.97154 37.20666 34.58910
# Shear Modulus (GPa) = 2.67615 20.08357 11.37986
#
# Velocity S-wave (km/s) = 1.13631 3.11287 2.34320
# Velocity P-wave (km/s) = 4.14093 5.55622 4.89994
#
# Compressibility (1/GPa) = 0.03127782
#
# Stress axis : x y z
#
# Youngs Moduli (GPa) = 97.26861 103.63340 58.93143
#
# Poissons Ratio (x) = 0.27208 -0.00203
# Poissons Ratio (y) = 0.25537 0.01294
# Poissons Ratio (z) = -0.00335 0.02276
#
# Static dielectric constant tensor:
#      x y z
#    x 1.720180 0.000000 0.000030 
#    y 0.000000 1.739130 -0.000020 
#    z 0.000030 -0.000020 1.845250 
# 
# From -- ./inp_files/5557.got.cif
#   From: 2010.05.17/outbox.cif.g08.bks.cpg/sg69_3_cif.got.tgz:5557.got - 2010.06.03 19:29:58.
