data_PCOD9513604
_publ_section_title
;
Structure prediction by ZEFSAII (Michael W. Deem and Ramdas Pophale) SiO2 
 PCOD9513604
Probable space group: F M M M
;
_chemical_formula_sum "Si O2"
_cell_formula_units_Z 160
_cell_length_a 16.981985
_cell_length_b 22.741999
_cell_length_c 24.158352
_cell_angle_alpha 90.000000
_cell_angle_beta 90.000000
_cell_angle_gamma 90.000000
_cell_volume 9330.059082
_symmetry_space_group_name_H-M "F M M M"
_symmetry_group_IT_number 69
_symmetry_cell_setting 'orthorhombic'
loop_
_space_group_symop_operation_xyz
x,y,z
-x,-y,z
x,-y,-z
-x,y,-z
-x,-y,-z
x,y,-z
-x,y,z
x,-y,z
x,1/2+y,1/2+z
-x,1/2-y,1/2+z
x,1/2-y,1/2-z
-x,1/2+y,1/2-z
-x,1/2-y,1/2-z
x,1/2+y,1/2-z
-x,1/2+y,1/2+z
x,1/2-y,1/2+z
1/2+x,y,1/2+z
1/2-x,-y,1/2+z
1/2+x,-y,1/2-z
1/2-x,y,1/2-z
1/2-x,-y,1/2-z
1/2+x,y,1/2-z
1/2-x,y,1/2+z
1/2+x,-y,1/2+z
1/2+x,1/2+y,z
1/2-x,1/2-y,z
1/2+x,1/2-y,-z
1/2-x,1/2+y,-z
1/2-x,1/2-y,-z
1/2+x,1/2+y,-z
1/2-x,1/2+y,z
1/2+x,1/2-y,z
loop_
_atom_site_type_symbol
_atom_site_label
_atom_site_fract_x
_atom_site_fract_y
_atom_site_fract_z
Si Si1 0.088735 0.432090 0.066918
Si Si2 0.500000 0.333307 0.275885
Si Si3 0.631063 0.206879 0.561182
Si Si4 0.199470 0.673152 0.905871
Si Si5 0.000000 0.716750 0.652452
Si Si6 0.328548 0.314278 0.279295
O O1 0.101738 0.500000 0.083001
O O2 0.153507 0.387466 0.088337
O O3 0.000000 0.414940 0.085070
O O4 0.089659 0.429891 0.000000
O O5 0.500000 0.315132 0.211155
O O6 0.500000 0.284114 0.325371
O O7 0.408265 0.353497 0.279699
O O8 0.599703 0.191703 0.500000
O O9 0.711283 0.171630 0.573072
O O10 0.655376 0.275562 0.560821
O O11 0.573076 0.201576 0.613054
O O12 0.195596 0.694163 0.842615
O O13 0.345449 0.250000 0.250000
O O14 0.250000 0.338467 0.250000
#
# Coordination Sequence:
#
# PCOD9513604 Si02
#       6
#    32  16  32  32  16  32
#     4   9  19  35  54  76 102 135 177 220 261 314
#     4  11  18  32  46  62  94 135 181 212 248 292
#     4  11  21  31  44  73 109 142 168 201 263 329
#     4  11  20  32  50  73 104 138 174 211 263 316
#     4  11  19  32  44  66  96 141 170 210 242 310
#     4  11  19  30  47  70 100 136 174 219 252 308
#
# _framework density 17.148872999999998
#
# number of rings (size 3 to 8) (size 9 to 14) (size 15 to 20)
#    0.000    1.400    4.000    6.900    2.800    0.000 
#    0.000    0.000    0.000    0.600    0.000    0.700 
#    0.000    3.200    0.000    0.000    0.000    0.000 
#
# Total GULP energy -222687.900244 kJ/mol
# GULP energy per Si atom -5567.197506 kJ/mol
# Density = 1.710984 g / cm^3
# Si number density = 17.148873 Si / 1000 Ang^3
#
#
#
# Elastic Constant Matrix: (Units=GPa)
#
#
# Indices 1 2 3 4 5 6 
#
# 1 120.1674 33.1547 24.2411 0.0000 0.0000 0.0000
# 2 33.1547 52.5069 13.7667 0.0000 0.0000 0.0000
# 3 24.2411 13.7667 110.9086 0.0000 0.0000 0.0000
# 4 0.0000 0.0000 0.0000 6.4833 0.0000 0.0000
# 5 0.0000 0.0000 0.0000 0.0000 125.3158 0.0000
# 6 0.0000 0.0000 0.0000 0.0000 0.0000 11.1100
#
#
#
# Elastic Compliance Matrix: (Units=1/GPa)
#
#
# Indices 1 2 3 4 5 6 
#
# 1 0.010311 -0.006119 -0.001494 0.000000 0.000000 0.000000
# 2 -0.006119 0.023317 -0.001557 0.000000 0.000000 0.000000
# 3 -0.001494 -0.001557 0.009536 0.000000 0.000000 0.000000
# 4 0.000000 0.000000 0.000000 0.154243 0.000000 0.000000
# 5 0.000000 0.000000 0.000000 0.000000 0.007980 0.000000
# 6 0.000000 0.000000 0.000000 0.000000 0.000000 0.090009
#
#
# Mechanical properties :
#
#
# Convention : Reuss Voigt Hill
#
# Bulk Modulus (GPa) = 40.28294 47.32308 43.80301
# Shear Modulus (GPa) = 15.52739 42.74318 29.13529
#
# Velocity S-wave (km/s) = 3.01233 4.99789 4.12632
# Velocity P-wave (km/s) = 5.96992 7.80772 6.94984
#
# Compressibility (1/GPa) = 0.02482440
#
# Stress axis : x y z
#
# Youngs Moduli (GPa) = 96.97937 42.88681 104.86296
#
# Poissons Ratio (x) = 0.26244 0.15669
# Poissons Ratio (y) = 0.59344 0.16325
# Poissons Ratio (z) = 0.14491 0.06677
#
# Static dielectric constant tensor:
#      x y z
#    x 1.653700 0.000000 0.000000 
#    y 0.000000 1.555020 0.000000 
#    z 0.000000 0.000000 1.602650 
# 
# From -- ./inp_files/36625.got.cif
#   From: 2010.05.17/outbox.cif.g08.bks.cpg/sg69_19_cif.got.tgz:36625.got - 2010.06.03 19:29:58.
