data_PCOD9513794
_publ_section_title
;
Structure prediction by ZEFSAII (Michael W. Deem and Ramdas Pophale) SiO2 
 PCOD9513794
Probable space group: F M M M
;
_chemical_formula_sum "Si O2"
_cell_formula_units_Z 88
_cell_length_a 7.858657
_cell_length_b 33.627206
_cell_length_c 14.892793
_cell_angle_alpha 90.000000
_cell_angle_beta 90.000000
_cell_angle_gamma 90.000000
_cell_volume 3935.639144
_symmetry_space_group_name_H-M "F M M M"
_symmetry_group_IT_number 69
_symmetry_cell_setting 'orthorhombic'
loop_
_space_group_symop_operation_xyz
x,y,z
-x,-y,z
x,-y,-z
-x,y,-z
-x,-y,-z
x,y,-z
-x,y,z
x,-y,z
x,1/2+y,1/2+z
-x,1/2-y,1/2+z
x,1/2-y,1/2-z
-x,1/2+y,1/2-z
-x,1/2-y,1/2-z
x,1/2+y,1/2-z
-x,1/2+y,1/2+z
x,1/2-y,1/2+z
1/2+x,y,1/2+z
1/2-x,-y,1/2+z
1/2+x,-y,1/2-z
1/2-x,y,1/2-z
1/2-x,-y,1/2-z
1/2+x,y,1/2-z
1/2-x,y,1/2+z
1/2+x,-y,1/2+z
1/2+x,1/2+y,z
1/2-x,1/2-y,z
1/2+x,1/2-y,-z
1/2-x,1/2+y,-z
1/2-x,1/2-y,-z
1/2+x,1/2+y,-z
1/2-x,1/2+y,z
1/2+x,1/2-y,z
loop_
_atom_site_type_symbol
_atom_site_label
_atom_site_fract_x
_atom_site_fract_y
_atom_site_fract_z
Si Si1 0.500000 0.500000 0.333877
Si Si2 0.690919 0.444314 0.893444
Si Si3 0.802167 0.357355 0.149036
Si Si4 0.298571 0.703996 0.000000
O O1 0.346909 0.465812 0.344472
O O2 0.500000 0.456576 0.863081
O O3 0.704818 0.396984 0.881874
O O4 0.706221 0.453441 0.000000
O O5 0.750000 0.348008 0.250000
O O6 0.000000 0.367502 0.144564
O O7 0.768798 0.320081 0.085580
O O8 0.250000 0.750000 0.000000
O O9 0.500000 0.700762 0.000000
#
# Coordination Sequence:
#
# PCOD9513794 Si02
#       4
#     8  32  32  16
#     4  12  23  38  66 102 138 187 248 299 368 422
#     4  11  22  39  65  99 139 187 241 298 360 428
#     4  12  25  45  73 105 144 194 241 292 360 434
#     4  12  26  48  76 112 145 184 235 297 361 433
#
# _framework density 22.359772
#
# number of rings (size 3 to 8) (size 9 to 14) (size 15 to 20)
#    0.000    0.364    3.636    7.091    0.000    2.182 
#    0.000    4.545    0.000    0.000    0.000    0.000 
#    0.000    0.000    0.000    0.000    0.000    0.000 
#
# Total GULP energy -122807.816401 kJ/mol
# GULP energy per Si atom -5582.173473 kJ/mol
# Density = 2.230888 g / cm^3
# Si number density = 22.359772 Si / 1000 Ang^3
#
#
#
# Elastic Constant Matrix: (Units=GPa)
#
#
# Indices 1 2 3 4 5 6 
#
# 1 213.2091 37.5566 23.9510 0.0000 0.0000 0.0000
# 2 37.5566 202.3889 54.1875 0.0000 0.0000 0.0000
# 3 23.9510 54.1875 108.9332 0.0000 0.0000 0.0000
# 4 0.0000 0.0000 0.0000 -65.1967 0.0000 0.0000
# 5 0.0000 0.0000 0.0000 0.0000 26.2946 0.0000
# 6 0.0000 0.0000 0.0000 0.0000 0.0000 47.3098
#
#
#
# Elastic Compliance Matrix: (Units=1/GPa)
#
#
# Indices 1 2 3 4 5 6 
#
# 1 0.004897 -0.000716 -0.000721 0.000000 0.000000 0.000000
# 2 -0.000716 0.005805 -0.002730 0.000000 0.000000 0.000000
# 3 -0.000721 -0.002730 0.010696 0.000000 0.000000 0.000000
# 4 0.000000 0.000000 0.000000 -0.015338 0.000000 0.000000
# 5 0.000000 0.000000 0.000000 0.000000 0.038031 0.000000
# 6 0.000000 0.000000 0.000000 0.000000 0.000000 0.021137
#
#
# Mechanical properties :
#
#
# Convention : Reuss Voigt Hill
#
# Bulk Modulus (GPa) = 76.53886 83.99126 80.26506
# Shear Modulus (GPa) = 64.17121 28.93726 46.55424
#
# Velocity S-wave (km/s) = 5.36299 3.60135 4.56790
# Velocity P-wave (km/s) = 8.52372 7.41203 7.98724
#
# Compressibility (1/GPa) = 0.01306526
#
# Stress axis : x y z
#
# Youngs Moduli (GPa) = 204.19493 172.27183 93.48880
#
# Poissons Ratio (x) = 0.12331 0.06738
# Poissons Ratio (y) = 0.14617 0.25524
# Poissons Ratio (z) = 0.14716 0.47033
#
# Static dielectric constant tensor:
#      x y z
#    x 1.810550 0.000000 0.000000 
#    y 0.000000 1.679050 0.000000 
#    z 0.000000 0.000000 1.862140 
# 
# From -- ./inp_files/20311.got.cif
#   From: 2010.05.17/outbox.cif.g08.bks.cpg/sg69_11_cif.got.tgz:20311.got - 2010.06.03 19:29:58.
