data_PCOD9513825
_publ_section_title
;
Structure prediction by ZEFSAII (Michael W. Deem and Ramdas Pophale) SiO2 
 PCOD9513825
Probable space group: F M M M
;
_chemical_formula_sum "Si O2"
_cell_formula_units_Z 168
_cell_length_a 21.684832
_cell_length_b 26.277923
_cell_length_c 14.826956
_cell_angle_alpha 90.000000
_cell_angle_beta 90.000000
_cell_angle_gamma 90.000000
_cell_volume 8448.879115
_symmetry_space_group_name_H-M "F M M M"
_symmetry_group_IT_number 69
_symmetry_cell_setting 'orthorhombic'
loop_
_space_group_symop_operation_xyz
x,y,z
-x,-y,z
x,-y,-z
-x,y,-z
-x,-y,-z
x,y,-z
-x,y,z
x,-y,z
x,1/2+y,1/2+z
-x,1/2-y,1/2+z
x,1/2-y,1/2-z
-x,1/2+y,1/2-z
-x,1/2-y,1/2-z
x,1/2+y,1/2-z
-x,1/2+y,1/2+z
x,1/2-y,1/2+z
1/2+x,y,1/2+z
1/2-x,-y,1/2+z
1/2+x,-y,1/2-z
1/2-x,y,1/2-z
1/2-x,-y,1/2-z
1/2+x,y,1/2-z
1/2-x,y,1/2+z
1/2+x,-y,1/2+z
1/2+x,1/2+y,z
1/2-x,1/2-y,z
1/2+x,1/2-y,-z
1/2-x,1/2+y,-z
1/2-x,1/2-y,-z
1/2+x,1/2+y,-z
1/2-x,1/2+y,z
1/2+x,1/2-y,z
loop_
_atom_site_type_symbol
_atom_site_label
_atom_site_fract_x
_atom_site_fract_y
_atom_site_fract_z
Si Si1 0.099057 0.591497 0.210722
Si Si2 0.500000 0.000000 0.803990
Si Si3 0.319276 0.738202 0.856653
Si Si4 0.154573 0.879331 0.899705
Si Si5 0.932123 0.189044 0.600741
Si Si6 0.771516 0.057474 0.645886
O O1 0.053352 0.544882 0.197294
O O2 0.116466 0.596910 0.316586
O O3 0.073769 0.644897 0.174274
O O4 0.160872 0.581029 0.152641
O O5 0.318181 0.750000 0.750000
O O6 0.250000 0.750000 0.890787
O O7 0.334253 0.679703 0.876904
O O8 0.374771 0.772853 0.892852
O O9 0.220837 0.907205 0.899703
O O10 0.126964 0.884589 0.000000
O O11 0.930805 0.166014 0.500000
O O12 0.000000 0.214073 0.611377
O O13 0.750000 0.054526 0.750000
O O14 0.772435 0.000000 0.609763
#
# Coordination Sequence:
#
# PCOD9513825 Si02
#       6
#    32   8  32  32  32  32
#     4  11  22  43  66  96 129 173 219 266 334 391
#     4  12  24  44  72  90 132 182 216 274 324 390
#     4  11  23  41  68 101 133 176 221 273 337 401
#     4  11  24  41  65  99 135 172 219 273 329 399
#     4  11  24  43  68  96 130 171 221 277 335 399
#     4   9  19  36  62  90 123 163 211 267 321 377
#
# _framework density 19.884295000000002
#
# number of rings (size 3 to 8) (size 9 to 14) (size 15 to 20)
#    0.000    1.333    3.810    1.714    6.667    4.571 
#    1.714    1.905    0.000    0.000    0.000    0.000 
#    0.000    0.000    0.000    0.000    0.000    0.000 
#
# Total GULP energy -233955.342921 kJ/mol
# GULP energy per Si atom -5570.365308 kJ/mol
# Density = 1.983904 g / cm^3
# Si number density = 19.884295 Si / 1000 Ang^3
#
#
#
# Elastic Constant Matrix: (Units=GPa)
#
#
# Indices 1 2 3 4 5 6 
#
# 1 135.2520 38.2287 21.8090 0.0000 0.0000 0.0000
# 2 38.2287 99.6380 11.6475 0.0000 0.0000 0.0000
# 3 21.8090 11.6475 99.6111 0.0000 0.0000 0.0000
# 4 0.0000 0.0000 0.0000 -176.9480 0.0000 0.0000
# 5 0.0000 0.0000 0.0000 0.0000 19.3684 0.0000
# 6 0.0000 0.0000 0.0000 0.0000 0.0000 13.8421
#
#
#
# Elastic Compliance Matrix: (Units=1/GPa)
#
#
# Indices 1 2 3 4 5 6 
#
# 1 0.008509 -0.003089 -0.001502 0.000000 0.000000 0.000000
# 2 -0.003089 0.011297 -0.000645 0.000000 0.000000 0.000000
# 3 -0.001502 -0.000645 0.010443 0.000000 0.000000 0.000000
# 4 0.000000 0.000000 0.000000 -0.005651 0.000000 0.000000
# 5 0.000000 0.000000 0.000000 0.000000 0.051630 0.000000
# 6 0.000000 0.000000 0.000000 0.000000 0.000000 0.072243
#
#
# Mechanical properties :
#
#
# Convention : Reuss Voigt Hill
#
# Bulk Modulus (GPa) = 50.56099 53.09683 51.82891
# Shear Modulus (GPa) = 30.20512 -11.22644 9.48934
#
# Velocity S-wave (km/s) = 3.90172 -2.37868 2.18692
# Velocity P-wave (km/s) = 6.76614 4.38368 5.70076
#
# Compressibility (1/GPa) = 0.01977809
#
# Stress axis : x y z
#
# Youngs Moduli (GPa) = 117.52409 88.51979 95.75596
#
# Poissons Ratio (x) = 0.27345 0.14380
# Poissons Ratio (y) = 0.36305 0.06172
# Poissons Ratio (z) = 0.17649 0.05706
#
# Static dielectric constant tensor:
#      x y z
#    x 1.714700 0.000000 0.000000 
#    y 0.000000 1.662470 0.000000 
#    z 0.000000 0.000000 1.738000 
# 
# From -- ./inp_files/16911.got.cif
#   From: 2010.05.17/outbox.cif.g08.bks.cpg/sg69_9_cif.got.tgz:16911.got - 2010.06.03 19:29:58.
