data_PCOD9513657
_publ_section_title
;
Structure prediction by ZEFSAII (Michael W. Deem and Ramdas Pophale) SiO2 
 PCOD9513657
Probable space group: F M M M
;
_chemical_formula_sum "Si O2"
_cell_formula_units_Z 84
_cell_length_a 19.240450
_cell_length_b 15.348370
_cell_length_c 14.107876
_cell_angle_alpha 90.000000
_cell_angle_beta 90.000000
_cell_angle_gamma 90.000000
_cell_volume 4166.190450
_symmetry_space_group_name_H-M "F M M M"
_symmetry_group_IT_number 69
_symmetry_cell_setting 'orthorhombic'
loop_
_space_group_symop_operation_xyz
x,y,z
-x,-y,z
x,-y,-z
-x,y,-z
-x,-y,-z
x,y,-z
-x,y,z
x,-y,z
x,1/2+y,1/2+z
-x,1/2-y,1/2+z
x,1/2-y,1/2-z
-x,1/2+y,1/2-z
-x,1/2-y,1/2-z
x,1/2+y,1/2-z
-x,1/2+y,1/2+z
x,1/2-y,1/2+z
1/2+x,y,1/2+z
1/2-x,-y,1/2+z
1/2+x,-y,1/2-z
1/2-x,y,1/2-z
1/2-x,-y,1/2-z
1/2+x,y,1/2-z
1/2-x,y,1/2+z
1/2+x,-y,1/2+z
1/2+x,1/2+y,z
1/2-x,1/2-y,z
1/2+x,1/2-y,-z
1/2-x,1/2+y,-z
1/2-x,1/2-y,-z
1/2+x,1/2+y,-z
1/2-x,1/2+y,z
1/2+x,1/2-y,z
loop_
_atom_site_type_symbol
_atom_site_label
_atom_site_fract_x
_atom_site_fract_y
_atom_site_fract_z
Si Si1 0.500000 0.000000 0.500000
Si Si2 0.500000 0.103879 0.114796
Si Si3 0.881456 0.646330 0.500000
Si Si4 0.864076 0.708188 0.847772
Si Si5 0.221292 0.601174 0.000000
O O1 0.560365 0.925009 0.500000
O O2 0.568428 0.146434 0.160351
O O3 0.500000 0.000000 0.126962
O O4 0.500000 0.121048 0.000000
O O5 0.887196 0.710038 0.589306
O O6 0.803986 0.607053 0.500000
O O7 0.839172 0.750000 0.750000
O O8 0.808629 0.652821 0.908831
O O9 0.198116 0.500000 0.000000
#
# Coordination Sequence:
#
# PCOD9513657 Si02
#       5
#     4  16  16  32  16
#     4  12  24  48  64  92 138 176 236 268 360 408
#     4  11  20  38  67 101 137 183 234 287 337 398
#     4  11  24  44  69  92 137 184 218 290 348 418
#     4  11  23  42  68 101 139 181 230 282 349 409
#     4  11  23  45  70 100 133 184 234 288 345 405
#
# _framework density 20.162305
#
# number of rings (size 3 to 8) (size 9 to 14) (size 15 to 20)
#    0.000    0.952    4.762    5.143    0.000    3.048 
#   10.286    1.905    0.000    0.000    0.000    0.000 
#    0.000    0.000    0.000    0.000    0.000    0.000 
#
# Total GULP energy -117170.266609 kJ/mol
# GULP energy per Si atom -5579.536505 kJ/mol
# Density = 2.011641 g / cm^3
# Si number density = 20.162305 Si / 1000 Ang^3
#
#
#
# Elastic Constant Matrix: (Units=GPa)
#
#
# Indices 1 2 3 4 5 6 
#
# 1 178.4841 74.1876 33.9157 0.0000 0.0000 0.0000
# 2 74.1876 189.7639 71.0084 0.0000 0.0000 0.0000
# 3 33.9157 71.0084 121.1227 0.0000 0.0000 0.0000
# 4 0.0000 0.0000 0.0000 -12.6851 0.0000 0.0000
# 5 0.0000 0.0000 0.0000 0.0000 7.0048 0.0000
# 6 0.0000 0.0000 0.0000 0.0000 0.0000 40.0171
#
#
#
# Elastic Compliance Matrix: (Units=1/GPa)
#
#
# Indices 1 2 3 4 5 6 
#
# 1 0.006708 -0.002459 -0.000437 0.000000 0.000000 0.000000
# 2 -0.002459 0.007652 -0.003797 0.000000 0.000000 0.000000
# 3 -0.000437 -0.003797 0.010605 0.000000 0.000000 0.000000
# 4 0.000000 0.000000 0.000000 -0.078833 0.000000 0.000000
# 5 0.000000 0.000000 0.000000 0.000000 0.142759 0.000000
# 6 0.000000 0.000000 0.000000 0.000000 0.000000 0.024989
#
#
# Mechanical properties :
#
#
# Convention : Reuss Voigt Hill
#
# Bulk Modulus (GPa) = 86.36919 94.17712 90.27316
# Shear Modulus (GPa) = 38.13145 27.55129 32.84137
#
# Velocity S-wave (km/s) = 4.35354 3.70060 4.04028
# Velocity P-wave (km/s) = 8.25839 8.06661 8.16306
#
# Compressibility (1/GPa) = 0.01157820
#
# Stress axis : x y z
#
# Youngs Moduli (GPa) = 149.07995 130.68422 94.29834
#
# Poissons Ratio (x) = 0.32135 0.04118
# Poissons Ratio (y) = 0.36659 0.35810
# Poissons Ratio (z) = 0.06510 0.49627
#
# Static dielectric constant tensor:
#      x y z
#    x 1.711950 0.000000 0.000000 
#    y 0.000000 1.679210 0.000000 
#    z 0.000000 0.000000 1.805150 
# 
# From -- ./inp_files/15902.got.cif
#   From: 2010.05.17/outbox.cif.g08.bks.cpg/sg69_8_cif.got.tgz:15902.got - 2010.06.03 19:29:58.
