data_PCOD9513796
_publ_section_title
;
Structure prediction by ZEFSAII (Michael W. Deem and Ramdas Pophale) SiO2 
 PCOD9513796
Probable space group: F M M M
;
_chemical_formula_sum "Si O2"
_cell_formula_units_Z 132
_cell_length_a 15.338882
_cell_length_b 19.610379
_cell_length_c 22.889273
_cell_angle_alpha 90.000000
_cell_angle_beta 90.000000
_cell_angle_gamma 90.000000
_cell_volume 6885.122833
_symmetry_space_group_name_H-M "F M M M"
_symmetry_group_IT_number 69
_symmetry_cell_setting 'orthorhombic'
loop_
_space_group_symop_operation_xyz
x,y,z
-x,-y,z
x,-y,-z
-x,y,-z
-x,-y,-z
x,y,-z
-x,y,z
x,-y,z
x,1/2+y,1/2+z
-x,1/2-y,1/2+z
x,1/2-y,1/2-z
-x,1/2+y,1/2-z
-x,1/2-y,1/2-z
x,1/2+y,1/2-z
-x,1/2+y,1/2+z
x,1/2-y,1/2+z
1/2+x,y,1/2+z
1/2-x,-y,1/2+z
1/2+x,-y,1/2-z
1/2-x,y,1/2-z
1/2-x,-y,1/2-z
1/2+x,y,1/2-z
1/2-x,y,1/2+z
1/2+x,-y,1/2+z
1/2+x,1/2+y,z
1/2-x,1/2-y,z
1/2+x,1/2-y,-z
1/2-x,1/2+y,-z
1/2-x,1/2-y,-z
1/2+x,1/2+y,-z
1/2-x,1/2+y,z
1/2+x,1/2-y,z
loop_
_atom_site_type_symbol
_atom_site_label
_atom_site_fract_x
_atom_site_fract_y
_atom_site_fract_z
Si Si1 0.396975 0.326904 0.124589
Si Si2 0.807033 0.820290 0.000000
Si Si3 0.247093 0.579088 0.319978
Si Si4 0.599051 0.328157 0.369680
Si Si5 0.872482 0.871104 0.500000
Si Si6 0.500000 0.000000 0.000000
O O1 0.500000 0.340030 0.128054
O O2 0.338610 0.381545 0.158151
O O3 0.380997 0.249740 0.147695
O O4 0.363992 0.325964 0.057833
O O5 0.750000 0.750000 0.000000
O O6 0.731861 0.877626 0.000000
O O7 0.248216 0.500000 0.338803
O O8 0.250000 0.581010 0.250000
O O9 0.330250 0.619669 0.345232
O O10 0.500000 0.345209 0.351813
O O11 0.603143 0.332406 0.440252
O O12 0.924719 0.940632 0.500000
#
# Coordination Sequence:
#
# PCOD9513796 Si02
#       6
#    32  16  32  32  16   4
#     4  11  23  40  66  97 131 167 213 264 318 386
#     4  12  19  37  66  95 129 173 204 252 311 384
#     4  11  26  45  64  87 122 170 219 268 325 385
#     4  11  22  39  66  98 127 161 206 264 324 383
#     4  12  22  35  62  95 139 163 199 252 321 379
#     4  12  28  36  56 108 142 172 198 272 316 394
#
# _framework density 19.171771
#
# number of rings (size 3 to 8) (size 9 to 14) (size 15 to 20)
#    0.000    0.727    6.061    1.091    1.697    5.818 
#    0.000    4.848    0.000    1.455    0.000    0.000 
#    0.000    0.000    0.000    0.000    0.000    0.000 
#
# Total GULP energy -184151.473471 kJ/mol
# GULP energy per Si atom -5580.347681 kJ/mol
# Density = 1.912814 g / cm^3
# Si number density = 19.171771 Si / 1000 Ang^3
#
#
#
# Elastic Constant Matrix: (Units=GPa)
#
#
# Indices 1 2 3 4 5 6 
#
# 1 178.1447 121.3399 41.6997 0.0000 0.0000 0.0000
# 2 121.3399 163.4424 49.5662 0.0000 0.0000 0.0000
# 3 41.6997 49.5662 63.4042 0.0000 0.0000 0.0000
# 4 0.0000 0.0000 0.0000 12.4989 0.0000 0.0000
# 5 0.0000 0.0000 0.0000 0.0000 -8.5854 0.0000
# 6 0.0000 0.0000 0.0000 0.0000 0.0000 34.8943
#
#
#
# Elastic Compliance Matrix: (Units=1/GPa)
#
#
# Indices 1 2 3 4 5 6 
#
# 1 0.011420 -0.008127 -0.001157 0.000000 0.000000 0.000000
# 2 -0.008127 0.013804 -0.005446 0.000000 0.000000 0.000000
# 3 -0.001157 -0.005446 0.020790 0.000000 0.000000 0.000000
# 4 0.000000 0.000000 0.000000 0.080007 0.000000 0.000000
# 5 0.000000 0.000000 0.000000 0.000000 -0.116476 0.000000
# 6 0.000000 0.000000 0.000000 0.000000 0.000000 0.028658
#
#
# Mechanical properties :
#
#
# Convention : Reuss Voigt Hill
#
# Bulk Modulus (GPa) = 60.41138 92.24477 76.32807
# Shear Modulus (GPa) = 68.32344 20.58725 44.45535
#
# Velocity S-wave (km/s) = 5.97619 3.28049 4.82061
# Velocity P-wave (km/s) = 8.89937 7.91000 8.41923
#
# Compressibility (1/GPa) = 0.01655317
#
# Stress axis : x y z
#
# Youngs Moduli (GPa) = 87.56498 72.44460 48.09967
#
# Poissons Ratio (x) = 0.58878 0.05566
# Poissons Ratio (y) = 0.71167 0.26194
# Poissons Ratio (z) = 0.10133 0.39452
#
# Static dielectric constant tensor:
#      x y z
#    x 1.667060 0.000000 0.000000 
#    y 0.000000 1.667540 0.000000 
#    z 0.000000 0.000000 1.671640 
# 
# From -- ./inp_files/16404.got.cif
#   From: 2010.05.17/outbox.cif.g08.bks.cpg/sg69_9_cif.got.tgz:16404.got - 2010.06.03 19:29:58.
