data_PCOD9513716
_publ_section_title
;
Structure prediction by ZEFSAII (Michael W. Deem and Ramdas Pophale) SiO2 
 PCOD9513716
Probable space group: F M M M
;
_chemical_formula_sum "Si O2"
_cell_formula_units_Z 184
_cell_length_a 23.898382
_cell_length_b 24.141753
_cell_length_c 16.164279
_cell_angle_alpha 90.000000
_cell_angle_beta 90.000000
_cell_angle_gamma 90.000000
_cell_volume 9325.961943
_symmetry_space_group_name_H-M "F M M M"
_symmetry_group_IT_number 69
_symmetry_cell_setting 'orthorhombic'
loop_
_space_group_symop_operation_xyz
x,y,z
-x,-y,z
x,-y,-z
-x,y,-z
-x,-y,-z
x,y,-z
-x,y,z
x,-y,z
x,1/2+y,1/2+z
-x,1/2-y,1/2+z
x,1/2-y,1/2-z
-x,1/2+y,1/2-z
-x,1/2-y,1/2-z
x,1/2+y,1/2-z
-x,1/2+y,1/2+z
x,1/2-y,1/2+z
1/2+x,y,1/2+z
1/2-x,-y,1/2+z
1/2+x,-y,1/2-z
1/2-x,y,1/2-z
1/2-x,-y,1/2-z
1/2+x,y,1/2-z
1/2-x,y,1/2+z
1/2+x,-y,1/2+z
1/2+x,1/2+y,z
1/2-x,1/2-y,z
1/2+x,1/2-y,-z
1/2-x,1/2+y,-z
1/2-x,1/2-y,-z
1/2+x,1/2+y,-z
1/2-x,1/2+y,z
1/2+x,1/2-y,z
loop_
_atom_site_type_symbol
_atom_site_label
_atom_site_fract_x
_atom_site_fract_y
_atom_site_fract_z
Si Si1 0.933127 0.831060 0.812775
Si Si2 0.276798 0.310838 0.405940
Si Si3 0.500000 0.185983 0.000000
Si Si4 0.250000 0.887835 0.750000
Si Si5 0.565115 0.066623 0.091045
Si Si6 0.904832 0.215361 0.630304
Si Si7 0.627766 0.564948 0.760566
O O1 0.918615 0.806679 0.722090
O O2 0.910759 0.782272 0.871742
O O3 0.902765 0.890354 0.819406
O O4 0.000000 0.836290 0.821148
O O5 0.265202 0.330699 0.500000
O O6 0.250000 0.250000 0.396662
O O7 0.255401 0.349937 0.332129
O O8 0.343026 0.302826 0.394115
O O9 0.548775 0.191205 0.928938
O O10 0.306319 0.923519 0.741717
O O11 0.500000 0.083959 0.099140
O O12 0.602544 0.079215 0.169646
O O13 0.563483 0.000000 0.089047
O O14 0.585279 0.084215 0.000000
O O15 0.616161 0.500000 0.777785
#
# Coordination Sequence:
#
# PCOD9513716 Si02
#       7
#    32  32   8  16  32  32  32
#     4  11  21  37  59  93 132 167 198 247 313 388
#     4  11  24  40  64  97 127 165 216 266 325 393
#     4  12  20  38  66 100 134 162 188 264 326 402
#     4  12  24  42  62  84 124 173 217 280 320 366
#     4   8  15  31  54  84 120 153 192 249 315 376
#     4  11  21  39  62  96 132 160 202 249 328 394
#     4  11  23  38  59  84 117 171 226 263 303 366
#
# _framework density 19.729868
#
# number of rings (size 3 to 8) (size 9 to 14) (size 15 to 20)
#    0.000    1.391    4.348    3.130    2.435    1.739 
#    1.565    0.000    0.000    1.565    0.000    0.609 
#    0.000    0.000    0.000    0.000    0.000    0.000 
#
# Total GULP energy -256561.479645 kJ/mol
# GULP energy per Si atom -5577.423471 kJ/mol
# Density = 1.968496 g / cm^3
# Si number density = 19.729868 Si / 1000 Ang^3
#
#
#
# Elastic Constant Matrix: (Units=GPa)
#
#
# Indices 1 2 3 4 5 6 
#
# 1 84.8054 20.7553 11.0607 0.0000 0.0000 0.0000
# 2 20.7553 144.3548 23.4586 0.0000 0.0000 0.0000
# 3 11.0607 23.4586 53.6149 0.0000 0.0000 0.0000
# 4 0.0000 0.0000 0.0000 16.5695 0.0000 0.0000
# 5 0.0000 0.0000 0.0000 0.0000 -569.8247 0.0000
# 6 0.0000 0.0000 0.0000 0.0000 0.0000 33.4762
#
#
#
# Elastic Compliance Matrix: (Units=1/GPa)
#
#
# Indices 1 2 3 4 5 6 
#
# 1 0.012402 -0.001472 -0.001914 0.000000 0.000000 0.000000
# 2 -0.001472 0.007632 -0.003036 0.000000 0.000000 0.000000
# 3 -0.001914 -0.003036 0.020375 0.000000 0.000000 0.000000
# 4 0.000000 0.000000 0.000000 0.060352 0.000000 0.000000
# 5 0.000000 0.000000 0.000000 0.000000 -0.001755 0.000000
# 6 0.000000 0.000000 0.000000 0.000000 0.000000 0.029872
#
#
# Mechanical properties :
#
#
# Convention : Reuss Voigt Hill
#
# Bulk Modulus (GPa) = 36.27867 43.70269 39.99068
# Shear Modulus (GPa) = 33.13228 -88.78910 -27.82841
#
# Velocity S-wave (km/s) = 4.10237 -6.71566 -3.75970
# Velocity P-wave (km/s) = 6.39272 6.15913 1.21078
#
# Compressibility (1/GPa) = 0.02756441
#
# Stress axis : x y z
#
# Youngs Moduli (GPa) = 80.63448 131.02119 49.08036
#
# Poissons Ratio (x) = 0.19286 0.09396
# Poissons Ratio (y) = 0.11869 0.14900
# Poissons Ratio (z) = 0.15437 0.39775
#
# Static dielectric constant tensor:
#      x y z
#    x 1.666870 0.000000 0.000000 
#    y 0.000000 1.794180 0.000000 
#    z 0.000000 0.000000 1.706130 
# 
# From -- ./inp_files/25992.got.cif
#   From: 2010.05.17/outbox.cif.g08.bks.cpg/sg69_13_cif.got.tgz:25992.got - 2010.06.03 19:29:58.
