data_PCOD9513104
_publ_section_title
;
Structure prediction by ZEFSAII (Michael W. Deem and Ramdas Pophale) SiO2 
 PCOD9513104
Probable space group: F M M M
;
_chemical_formula_sum "Si O2"
_cell_formula_units_Z 176
_cell_length_a 14.800810
_cell_length_b 25.492132
_cell_length_c 22.049821
_cell_angle_alpha 90.000000
_cell_angle_beta 90.000000
_cell_angle_gamma 90.000000
_cell_volume 8319.490122
_symmetry_space_group_name_H-M "F M M M"
_symmetry_group_IT_number 69
_symmetry_cell_setting 'orthorhombic'
loop_
_space_group_symop_operation_xyz
x,y,z
-x,-y,z
x,-y,-z
-x,y,-z
-x,-y,-z
x,y,-z
-x,y,z
x,-y,z
x,1/2+y,1/2+z
-x,1/2-y,1/2+z
x,1/2-y,1/2-z
-x,1/2+y,1/2-z
-x,1/2-y,1/2-z
x,1/2+y,1/2-z
-x,1/2+y,1/2+z
x,1/2-y,1/2+z
1/2+x,y,1/2+z
1/2-x,-y,1/2+z
1/2+x,-y,1/2-z
1/2-x,y,1/2-z
1/2-x,-y,1/2-z
1/2+x,y,1/2-z
1/2-x,y,1/2+z
1/2+x,-y,1/2+z
1/2+x,1/2+y,z
1/2-x,1/2-y,z
1/2+x,1/2-y,-z
1/2-x,1/2+y,-z
1/2-x,1/2-y,-z
1/2+x,1/2+y,-z
1/2-x,1/2+y,z
1/2+x,1/2-y,z
loop_
_atom_site_type_symbol
_atom_site_label
_atom_site_fract_x
_atom_site_fract_y
_atom_site_fract_z
Si Si1 0.605151 0.389573 0.349834
Si Si2 0.158485 0.284259 0.567850
Si Si3 0.604391 0.437835 0.219097
Si Si4 0.291554 0.398894 0.111671
Si Si5 0.899582 0.000000 0.929281
Si Si6 0.395307 0.225993 0.187894
O O1 0.500000 0.387614 0.370767
O O2 0.608856 0.425175 0.290093
O O3 0.684328 0.407847 0.394159
O O4 0.639019 0.331250 0.330899
O O5 0.116625 0.278388 0.500000
O O6 0.250000 0.250000 0.566433
O O7 0.180344 0.344980 0.580067
O O8 0.110219 0.262677 0.628548
O O9 0.500000 0.425685 0.201455
O O10 0.622752 0.500000 0.209770
O O11 0.673922 0.401904 0.181725
O O12 0.346303 0.447872 0.086667
O O13 0.000000 0.000000 0.902090
O O14 0.909576 0.000000 0.000000
O O15 0.500000 0.215432 0.201891
O O16 0.355769 0.250000 0.250000
#
# Coordination Sequence:
#
# PCOD9513104 Si02
#       6
#    32  32  32  32  16  32
#     4  10  22  38  58  93 133 173 218 271 332 399
#     4  11  24  42  63  94 133 175 229 280 338 413
#     4  10  21  37  60  95 136 171 216 277 340 408
#     4  12  22  40  68  93 128 175 221 276 341 407
#     4  11  26  46  68  95 125 159 212 282 348 409
#     4  10  21  40  64  94 132 173 224 282 340 402
#
# _framework density 21.155142999999999
#
# number of rings (size 3 to 8) (size 9 to 14) (size 15 to 20)
#    0.000    1.364    2.727    2.727    1.273    4.364 
#    0.000    0.000    0.000    2.727    0.000    0.000 
#    0.000    0.000    0.000    0.000    0.000    0.000 
#
# Total GULP energy -245493.437312 kJ/mol
# GULP energy per Si atom -5579.396303 kJ/mol
# Density = 2.110699 g / cm^3
# Si number density = 21.155143 Si / 1000 Ang^3
#
#
#
# Elastic Constant Matrix: (Units=GPa)
#
#
# Indices 1 2 3 4 5 6 
#
# 1 99.0741 41.1406 10.7325 0.0000 0.0000 0.0000
# 2 41.1406 127.2277 24.2185 0.0000 0.0000 0.0000
# 3 10.7325 24.2185 73.9727 0.0000 0.0000 0.0000
# 4 0.0000 0.0000 0.0000 -4.0790 0.0000 0.0000
# 5 0.0000 0.0000 0.0000 0.0000 73.2289 0.0000
# 6 0.0000 0.0000 0.0000 0.0000 0.0000 24.9196
#
#
#
# Elastic Compliance Matrix: (Units=1/GPa)
#
#
# Indices 1 2 3 4 5 6 
#
# 1 0.011676 -0.003682 -0.000488 0.000000 0.000000 0.000000
# 2 -0.003682 0.009544 -0.002590 0.000000 0.000000 0.000000
# 3 -0.000488 -0.002590 0.014437 0.000000 0.000000 0.000000
# 4 0.000000 0.000000 0.000000 -0.245159 0.000000 0.000000
# 5 0.000000 0.000000 0.000000 0.000000 0.013656 0.000000
# 6 0.000000 0.000000 0.000000 0.000000 0.000000 0.040129
#
#
# Mechanical properties :
#
#
# Convention : Reuss Voigt Hill
#
# Bulk Modulus (GPa) = 45.17847 50.27309 47.72578
# Shear Modulus (GPa) = -37.08729 33.75942 -1.66394
#
# Velocity S-wave (km/s) = -4.19156 3.99908 -0.88783
# Velocity P-wave (km/s) = 1.42246 6.71857 4.64305
#
# Compressibility (1/GPa) = 0.02213444
#
# Stress axis : x y z
#
# Youngs Moduli (GPa) = 85.64942 104.78035 69.26448
#
# Poissons Ratio (x) = 0.38585 0.03382
# Poissons Ratio (y) = 0.31540 0.17942
# Poissons Ratio (z) = 0.04183 0.27142
#
# Static dielectric constant tensor:
#      x y z
#    x 1.797050 0.000000 0.000000 
#    y 0.000000 1.759010 0.000000 
#    z 0.000000 0.000000 1.844220 
# 
# From -- ./inp_files/17935.got.cif
#   From: 2010.05.17/outbox.cif.g08.bks.cpg/sg69_9_cif.got.tgz:17935.got - 2010.06.03 19:29:58.
