data_PCOD9513389
_publ_section_title
;
Structure prediction by ZEFSAII (Michael W. Deem and Ramdas Pophale) SiO2 
 PCOD9513389
Probable space group: F M M M
;
_chemical_formula_sum "Si O2"
_cell_formula_units_Z 160
_cell_length_a 18.969022
_cell_length_b 22.318964
_cell_length_c 14.681205
_cell_angle_alpha 90.000000
_cell_angle_beta 90.000000
_cell_angle_gamma 90.000000
_cell_volume 6215.565892
_symmetry_space_group_name_H-M "F M M M"
_symmetry_group_IT_number 69
_symmetry_cell_setting 'orthorhombic'
loop_
_space_group_symop_operation_xyz
x,y,z
-x,-y,z
x,-y,-z
-x,y,-z
-x,-y,-z
x,y,-z
-x,y,z
x,-y,z
x,1/2+y,1/2+z
-x,1/2-y,1/2+z
x,1/2-y,1/2-z
-x,1/2+y,1/2-z
-x,1/2-y,1/2-z
x,1/2+y,1/2-z
-x,1/2+y,1/2+z
x,1/2-y,1/2+z
1/2+x,y,1/2+z
1/2-x,-y,1/2+z
1/2+x,-y,1/2-z
1/2-x,y,1/2-z
1/2-x,-y,1/2-z
1/2+x,y,1/2-z
1/2-x,y,1/2+z
1/2+x,-y,1/2+z
1/2+x,1/2+y,z
1/2-x,1/2-y,z
1/2+x,1/2-y,-z
1/2-x,1/2+y,-z
1/2-x,1/2-y,-z
1/2+x,1/2+y,-z
1/2-x,1/2+y,z
1/2+x,1/2-y,z
loop_
_atom_site_type_symbol
_atom_site_label
_atom_site_fract_x
_atom_site_fract_y
_atom_site_fract_z
Si Si1 0.078677 0.243791 0.140898
Si Si2 0.074995 0.602672 0.391685
Si Si3 0.281930 0.561265 0.893682
Si Si4 0.307301 0.166639 0.168652
Si Si5 0.583403 0.571365 0.391159
O O1 0.076810 0.250000 0.250000
O O2 0.084967 0.174102 0.117148
O O3 0.151307 0.278934 0.120471
O O4 0.000000 0.263749 0.107446
O O5 0.071701 0.590304 0.500000
O O6 0.140965 0.568219 0.352876
O O7 0.000000 0.586123 0.350262
O O8 0.247873 0.500000 0.857925
O O9 0.243637 0.623367 0.885113
O O10 0.289607 0.554791 0.000000
O O11 0.250000 0.183048 0.250000
O O12 0.373856 0.118532 0.172317
O O13 0.602475 0.580843 0.500000
O O14 0.500000 0.583264 0.383193
O O15 0.593826 0.500000 0.374053
#
# Coordination Sequence:
#
# PCOD9513389 Si02
#       5
#    32  32  32  32  32
#     4  10  22  41  61  81 111 152 195 241 296 355
#     4   9  19  37  61  87 112 143 193 251 297 346
#     4  10  22  39  58  83 118 158 196 238 294 359
#     4  12  24  36  56  87 123 158 196 243 301 365
#     4   9  19  38  63  88 117 158 207 256 305 358
#
# _framework density 25.741824000000001
#
# number of rings (size 3 to 8) (size 9 to 14) (size 15 to 20)
#    0.000    2.000    0.000    3.600    0.000    8.000 
#    0.000    7.000    0.000    0.000    0.000    0.000 
#    0.000    0.000    0.000    0.000    0.000    0.000 
#
# Total GULP energy -222835.715588 kJ/mol
# GULP energy per Si atom -5570.892890 kJ/mol
# Density = 2.568323 g / cm^3
# Si number density = 25.741824 Si / 1000 Ang^3
#
#
#
# Elastic Constant Matrix: (Units=GPa)
#
#
# Indices 1 2 3 4 5 6 
#
# 1 191.8818 57.8041 2.7393 0.0000 0.0000 0.0000
# 2 57.8041 86.2190 2.1968 0.0000 0.0000 0.0000
# 3 2.7393 2.1968 64.0327 0.0000 0.0000 0.0000
# 4 0.0000 0.0000 0.0000 12.9340 0.0000 0.0000
# 5 0.0000 0.0000 0.0000 0.0000 19.1656 0.0000
# 6 0.0000 0.0000 0.0000 0.0000 0.0000 76.9838
#
#
#
# Elastic Compliance Matrix: (Units=1/GPa)
#
#
# Indices 1 2 3 4 5 6 
#
# 1 0.006532 -0.004376 -0.000129 0.000000 0.000000 0.000000
# 2 -0.004376 0.014540 -0.000312 0.000000 0.000000 0.000000
# 3 -0.000129 -0.000312 0.015633 0.000000 0.000000 0.000000
# 4 0.000000 0.000000 0.000000 0.077316 0.000000 0.000000
# 5 0.000000 0.000000 0.000000 0.000000 0.052177 0.000000
# 6 0.000000 0.000000 0.000000 0.000000 0.000000 0.012990
#
#
# Mechanical properties :
#
#
# Convention : Reuss Voigt Hill
#
# Bulk Modulus (GPa) = 36.93927 51.95711 44.44819
# Shear Modulus (GPa) = 25.27243 40.44289 32.85766
#
# Velocity S-wave (km/s) = 3.13671 3.96801 3.57659
# Velocity P-wave (km/s) = 5.24401 6.42037 5.86178
#
# Compressibility (1/GPa) = 0.02707146
#
# Stress axis : x y z
#
# Youngs Moduli (GPa) = 153.10291 68.77624 63.96625
#
# Poissons Ratio (x) = 0.30094 0.00827
# Poissons Ratio (y) = 0.66993 0.01994
# Poissons Ratio (z) = 0.01980 0.02143
#
# Static dielectric constant tensor:
#      x y z
#    x 2.128260 0.000000 0.000000 
#    y 0.000000 1.934440 0.000000 
#    z 0.000000 0.000000 2.123290 
# 
# From -- ./inp_files/30807.got.cif
#   From: 2010.05.17/outbox.cif.g08.bks.cpg/sg69_16_cif.got.tgz:30807.got - 2010.06.03 19:29:58.
