data_PCOD9513916
_publ_section_title
;
Structure prediction by ZEFSAII (Michael W. Deem and Ramdas Pophale) SiO2 
 PCOD9513916
Probable space group: F M M M
;
_chemical_formula_sum "Si O2"
_cell_formula_units_Z 168
_cell_length_a 13.604359
_cell_length_b 19.649049
_cell_length_c 32.240970
_cell_angle_alpha 90.000000
_cell_angle_beta 90.000000
_cell_angle_gamma 90.000000
_cell_volume 8618.421277
_symmetry_space_group_name_H-M "F M M M"
_symmetry_group_IT_number 69
_symmetry_cell_setting 'orthorhombic'
loop_
_space_group_symop_operation_xyz
x,y,z
-x,-y,z
x,-y,-z
-x,y,-z
-x,-y,-z
x,y,-z
-x,y,z
x,-y,z
x,1/2+y,1/2+z
-x,1/2-y,1/2+z
x,1/2-y,1/2-z
-x,1/2+y,1/2-z
-x,1/2-y,1/2-z
x,1/2+y,1/2-z
-x,1/2+y,1/2+z
x,1/2-y,1/2+z
1/2+x,y,1/2+z
1/2-x,-y,1/2+z
1/2+x,-y,1/2-z
1/2-x,y,1/2-z
1/2-x,-y,1/2-z
1/2+x,y,1/2-z
1/2-x,y,1/2+z
1/2+x,-y,1/2+z
1/2+x,1/2+y,z
1/2-x,1/2-y,z
1/2+x,1/2-y,-z
1/2-x,1/2+y,-z
1/2-x,1/2-y,-z
1/2+x,1/2+y,-z
1/2-x,1/2+y,z
1/2+x,1/2-y,z
loop_
_atom_site_type_symbol
_atom_site_label
_atom_site_fract_x
_atom_site_fract_y
_atom_site_fract_z
Si Si1 0.380282 0.422791 0.548330
Si Si2 0.880810 0.574651 0.378292
Si Si3 0.380913 0.161214 0.546497
Si Si4 0.118800 0.295278 0.323021
Si Si5 0.750000 0.750000 0.250000
Si Si6 0.618632 0.207175 0.899963
O O1 0.355833 0.408258 0.500000
O O2 0.500000 0.422825 0.549816
O O3 0.348769 0.500000 0.558394
O O4 0.347697 0.363611 0.579970
O O5 0.842859 0.500000 0.367495
O O6 0.856170 0.596793 0.425121
O O7 0.853496 0.636424 0.348120
O O8 0.000000 0.572596 0.376471
O O9 0.343352 0.159246 0.500000
O O10 0.500000 0.162799 0.544639
O O11 0.352944 0.229879 0.570475
O O12 0.178141 0.291049 0.280619
O O13 0.143242 0.231065 0.353329
O O14 0.000000 0.295324 0.316947
O O15 0.500000 0.205145 0.900530
#
# Coordination Sequence:
#
# PCOD9513916 Si02
#       6
#    32  32  32  32   8  32
#     4   8  12  17  30  58  94 130 168 205 236 269
#     4   8  14  26  44  67  99 135 164 195 239 287
#     4   8  12  17  30  58  94 130 166 198 227 266
#     4   9  19  34  53  77 100 125 159 199 247 300
#     4  12  22  36  58  78  94 116 154 206 256 306
#     4   8  13  23  38  58  91 129 160 196 240 283
#
# _framework density 19.493129
#
# number of rings (size 3 to 8) (size 9 to 14) (size 15 to 20)
#    0.000    3.619    0.000    3.714    0.000    2.667 
#    0.000    2.381    0.000    2.286    0.000   22.000 
#    0.000    0.000    0.000    0.000    0.000    4.762 
#
# Total GULP energy -234272.745687 kJ/mol
# GULP energy per Si atom -5577.922516 kJ/mol
# Density = 1.944876 g / cm^3
# Si number density = 19.493129 Si / 1000 Ang^3
#
#
#
# Elastic Constant Matrix: (Units=GPa)
#
#
# Indices 1 2 3 4 5 6 
#
# 1 77.8113 21.0378 20.8348 0.0000 0.0000 0.0000
# 2 21.0378 137.1001 68.9211 0.0000 0.0000 0.0000
# 3 20.8348 68.9211 143.2506 0.0000 0.0000 0.0000
# 4 0.0000 0.0000 0.0000 -11.5917 0.0000 0.0000
# 5 0.0000 0.0000 0.0000 0.0000 -41.2351 0.0000
# 6 0.0000 0.0000 0.0000 0.0000 0.0000 12.9729
#
#
#
# Elastic Compliance Matrix: (Units=1/GPa)
#
#
# Indices 1 2 3 4 5 6 
#
# 1 0.013584 -0.001439 -0.001283 0.000000 0.000000 0.000000
# 2 -0.001439 0.009773 -0.004493 0.000000 0.000000 0.000000
# 3 -0.001283 -0.004493 0.009329 0.000000 0.000000 0.000000
# 4 0.000000 0.000000 0.000000 -0.086269 0.000000 0.000000
# 5 0.000000 0.000000 0.000000 0.000000 -0.024251 0.000000
# 6 0.000000 0.000000 0.000000 0.000000 0.000000 0.077084
#
#
# Mechanical properties :
#
#
# Convention : Reuss Voigt Hill
#
# Bulk Modulus (GPa) = 54.77705 64.41659 59.59682
# Shear Modulus (GPa) = 252.95352 8.52046 130.73699
#
# Velocity S-wave (km/s) = 11.40382 2.09296 8.19840
# Velocity P-wave (km/s) = 14.19711 6.24165 10.96622
#
# Compressibility (1/GPa) = 0.01825582
#
# Stress axis : x y z
#
# Youngs Moduli (GPa) = 73.61404 102.31852 107.19241
#
# Poissons Ratio (x) = 0.14728 0.13755
# Poissons Ratio (y) = 0.10596 0.48160
# Poissons Ratio (z) = 0.09446 0.45970
#
# Static dielectric constant tensor:
#      x y z
#    x 1.774330 0.000000 0.000000 
#    y 0.000000 1.677380 0.000000 
#    z 0.000000 0.000000 1.651530 
# 
# From -- ./inp_files/45783.got.cif
#   From: 2010.05.17/outbox.cif.g08.bks.cpg/sg69_23_cif.got.tgz:45783.got - 2010.06.03 19:29:58.
