data_PCOD9513336
_publ_section_title
;
Structure prediction by ZEFSAII (Michael W. Deem and Ramdas Pophale) SiO2 
 PCOD9513336
Probable space group: F M M M
;
_chemical_formula_sum "Si O2"
_cell_formula_units_Z 136
_cell_length_a 9.638944
_cell_length_b 24.980076
_cell_length_c 25.428044
_cell_angle_alpha 90.000000
_cell_angle_beta 90.000000
_cell_angle_gamma 90.000000
_cell_volume 6122.603941
_symmetry_space_group_name_H-M "F M M M"
_symmetry_group_IT_number 69
_symmetry_cell_setting 'orthorhombic'
loop_
_space_group_symop_operation_xyz
x,y,z
-x,-y,z
x,-y,-z
-x,y,-z
-x,-y,-z
x,y,-z
-x,y,z
x,-y,z
x,1/2+y,1/2+z
-x,1/2-y,1/2+z
x,1/2-y,1/2-z
-x,1/2+y,1/2-z
-x,1/2-y,1/2-z
x,1/2+y,1/2-z
-x,1/2+y,1/2+z
x,1/2-y,1/2+z
1/2+x,y,1/2+z
1/2-x,-y,1/2+z
1/2+x,-y,1/2-z
1/2-x,y,1/2-z
1/2-x,-y,1/2-z
1/2+x,y,1/2-z
1/2-x,y,1/2+z
1/2+x,-y,1/2+z
1/2+x,1/2+y,z
1/2-x,1/2-y,z
1/2+x,1/2-y,-z
1/2-x,1/2+y,-z
1/2-x,1/2-y,-z
1/2+x,1/2+y,-z
1/2-x,1/2+y,z
1/2+x,1/2-y,z
loop_
_atom_site_type_symbol
_atom_site_label
_atom_site_fract_x
_atom_site_fract_y
_atom_site_fract_z
Si Si1 0.837538 0.837915 0.298118
Si Si2 0.000000 0.500000 0.934917
Si Si3 0.656070 0.561125 0.827593
Si Si4 0.739385 0.918993 0.442603
Si Si5 0.837588 0.301093 0.083137
O O1 0.750000 0.814283 0.250000
O O2 0.768987 0.896393 0.308243
O O3 0.824932 0.807307 0.353368
O O4 0.000000 0.841461 0.285566
O O5 0.879248 0.453690 0.937138
O O6 0.500000 0.572385 0.807865
O O7 0.693272 0.500000 0.814329
O O8 0.653950 0.566664 0.890814
O O9 0.678010 0.930395 0.500000
O O10 0.778652 0.856501 0.439173
O O11 0.750000 0.250000 0.066011
O O12 0.000000 0.295752 0.070298
#
# Coordination Sequence:
#
# PCOD9513336 Si02
#       5
#    32   8  32  32  32
#     4  10  22  40  64  90 118 155 206 258 313 377
#     4  12  21  36  66  98 126 162 218 278 318 372
#     4  10  22  37  56  86 126 165 204 256 317 380
#     4  11  22  37  63  93 124 166 214 263 317 369
#     4  10  23  41  61  89 124 165 211 256 309 376
#
# _framework density 22.212771
#
# number of rings (size 3 to 8) (size 9 to 14) (size 15 to 20)
#    0.000    1.647    2.353    1.765    1.647    7.059 
#    0.000    3.529    0.000    0.000    0.000    0.000 
#    0.000    0.000    0.000    0.000    0.000    0.000 
#
# Total GULP energy -189566.810659 kJ/mol
# GULP energy per Si atom -5575.494431 kJ/mol
# Density = 2.216221 g / cm^3
# Si number density = 22.212771 Si / 1000 Ang^3
#
#
#
# Elastic Constant Matrix: (Units=GPa)
#
#
# Indices 1 2 3 4 5 6 
#
# 1 105.2497 41.6247 8.2768 0.0000 0.0000 0.0000
# 2 41.6247 155.0651 -11.0495 0.0000 0.0000 0.0000
# 3 8.2768 -11.0495 98.8863 0.0000 0.0000 0.0000
# 4 0.0000 0.0000 0.0000 -18.9723 0.0000 0.0000
# 5 0.0000 0.0000 0.0000 0.0000 -617.8996 0.0000
# 6 0.0000 0.0000 0.0000 0.0000 0.0000 5.4203
#
#
#
# Elastic Compliance Matrix: (Units=1/GPa)
#
#
# Indices 1 2 3 4 5 6 
#
# 1 0.010777 -0.002981 -0.001235 0.000000 0.000000 0.000000
# 2 -0.002981 0.007325 0.001068 0.000000 0.000000 0.000000
# 3 -0.001235 0.001068 0.010335 0.000000 0.000000 0.000000
# 4 0.000000 0.000000 0.000000 -0.052709 0.000000 0.000000
# 5 0.000000 0.000000 0.000000 0.000000 -0.001618 0.000000
# 6 0.000000 0.000000 0.000000 0.000000 0.000000 0.184491
#
#
# Mechanical properties :
#
#
# Convention : Reuss Voigt Hill
#
# Bulk Modulus (GPa) = 45.16387 48.54499 46.85443
# Shear Modulus (GPa) = 29.02268 -104.93369 -37.95551
#
# Velocity S-wave (km/s) = 3.61858 -6.88061 -4.13816
# Velocity P-wave (km/s) = 6.15105 6.42042 1.30123
#
# Compressibility (1/GPa) = 0.02214159
#
# Stress axis : x y z
#
# Youngs Moduli (GPa) = 92.78773 136.51491 96.75531
#
# Poissons Ratio (x) = 0.40695 0.11951
# Poissons Ratio (y) = 0.27660 -0.10334
# Poissons Ratio (z) = 0.11461 -0.14580
#
# Static dielectric constant tensor:
#      x y z
#    x 1.782250 0.000000 0.000000 
#    y 0.000000 1.780060 0.000000 
#    z 0.000000 0.000000 1.893340 
# 
# From -- ./inp_files/40054.got.cif
#   From: 2010.05.17/outbox.cif.g08.bks.cpg/sg69_21_cif.got.tgz:40054.got - 2010.06.03 19:29:58.
