data_PCOD9513012
_publ_section_title
;
Structure prediction by ZEFSAII (Michael W. Deem and Ramdas Pophale) SiO2 
 PCOD9513012
Probable space group: F M M M
;
_chemical_formula_sum "Si O2"
_cell_formula_units_Z 160
_cell_length_a 19.278963
_cell_length_b 17.058284
_cell_length_c 20.511242
_cell_angle_alpha 90.000000
_cell_angle_beta 90.000000
_cell_angle_gamma 90.000000
_cell_volume 6745.450646
_symmetry_space_group_name_H-M "F M M M"
_symmetry_group_IT_number 69
_symmetry_cell_setting 'orthorhombic'
loop_
_space_group_symop_operation_xyz
x,y,z
-x,-y,z
x,-y,-z
-x,y,-z
-x,-y,-z
x,y,-z
-x,y,z
x,-y,z
x,1/2+y,1/2+z
-x,1/2-y,1/2+z
x,1/2-y,1/2-z
-x,1/2+y,1/2-z
-x,1/2-y,1/2-z
x,1/2+y,1/2-z
-x,1/2+y,1/2+z
x,1/2-y,1/2+z
1/2+x,y,1/2+z
1/2-x,-y,1/2+z
1/2+x,-y,1/2-z
1/2-x,y,1/2-z
1/2-x,-y,1/2-z
1/2+x,y,1/2-z
1/2-x,y,1/2+z
1/2+x,-y,1/2+z
1/2+x,1/2+y,z
1/2-x,1/2-y,z
1/2+x,1/2-y,-z
1/2-x,1/2+y,-z
1/2-x,1/2-y,-z
1/2+x,1/2+y,-z
1/2-x,1/2+y,z
1/2+x,1/2-y,z
loop_
_atom_site_type_symbol
_atom_site_label
_atom_site_fract_x
_atom_site_fract_y
_atom_site_fract_z
Si Si1 0.285440 0.906714 0.575461
Si Si2 0.578875 0.682296 0.921464
Si Si3 0.211117 0.666499 0.192026
Si Si4 0.079755 0.913131 0.289943
Si Si5 0.417545 0.358896 0.571139
O O1 0.277528 0.880112 0.500000
O O2 0.360639 0.876103 0.600336
O O3 0.226634 0.873576 0.622916
O O4 0.284170 0.000000 0.576275
O O5 0.500000 0.671224 0.895570
O O6 0.606363 0.770767 0.910585
O O7 0.573778 0.673643 0.000000
O O8 0.250000 0.620519 0.250000
O O9 0.250000 0.750000 0.187074
O O10 0.133180 0.657879 0.219640
O O11 0.085330 0.916841 0.368806
O O12 0.000000 0.895994 0.272692
O O13 0.097929 0.000000 0.264010
O O14 0.390423 0.383570 0.500000
O O15 0.500000 0.345468 0.563483
#
# Coordination Sequence:
#
# PCOD9513012 Si02
#       5
#    32  32  32  32  32
#     4  10  21  36  57  88 123 160 203 252 310 373
#     4   8  14  27  49  78 116 162 208 254 302 354
#     4  11  25  45  66  90 120 161 210 255 310 371
#     4  10  21  37  59  87 120 159 201 250 308 368
#     4   8  14  26  47  78 115 154 197 245 298 353
#
# _framework density 23.71969
#
# number of rings (size 3 to 8) (size 9 to 14) (size 15 to 20)
#    0.000    2.600    0.000    3.000    0.000    3.600 
#    0.000    7.000    0.000    0.000    0.000    0.000 
#    0.000    0.000    0.000    0.000    0.000    0.000 
#
# Total GULP energy -222828.911255 kJ/mol
# GULP energy per Si atom -5570.722781 kJ/mol
# Density = 2.366570 g / cm^3
# Si number density = 23.719690 Si / 1000 Ang^3
#
#
#
# Elastic Constant Matrix: (Units=GPa)
#
#
# Indices 1 2 3 4 5 6 
#
# 1 156.8640 52.7038 -9.5781 0.0000 0.0000 0.0000
# 2 52.7038 73.9281 1.6439 0.0000 0.0000 0.0000
# 3 -9.5781 1.6439 36.3990 0.0000 0.0000 0.0000
# 4 0.0000 0.0000 0.0000 11.7753 0.0000 0.0000
# 5 0.0000 0.0000 0.0000 0.0000 16.9480 0.0000
# 6 0.0000 0.0000 0.0000 0.0000 0.0000 19.0638
#
#
#
# Elastic Compliance Matrix: (Units=1/GPa)
#
#
# Indices 1 2 3 4 5 6 
#
# 1 0.008612 -0.006196 0.002546 0.000000 0.000000 0.000000
# 2 -0.006196 0.017998 -0.002443 0.000000 0.000000 0.000000
# 3 0.002546 -0.002443 0.028254 0.000000 0.000000 0.000000
# 4 0.000000 0.000000 0.000000 0.084924 0.000000 0.000000
# 5 0.000000 0.000000 0.000000 0.000000 0.059004 0.000000
# 6 0.000000 0.000000 0.000000 0.000000 0.000000 0.052455
#
#
# Mechanical properties :
#
#
# Convention : Reuss Voigt Hill
#
# Bulk Modulus (GPa) = 23.43184 39.63671 31.53427
# Shear Modulus (GPa) = 18.00761 24.38552 21.19657
#
# Velocity S-wave (km/s) = 2.75832 3.20983 2.99260
# Velocity P-wave (km/s) = 4.47711 5.52124 5.02636
#
# Compressibility (1/GPa) = 0.04267698
#
# Stress axis : x y z
#
# Youngs Moduli (GPa) = 116.11302 55.56043 35.39375
#
# Poissons Ratio (x) = 0.34427 -0.09012
# Poissons Ratio (y) = 0.71948 0.08648
# Poissons Ratio (z) = -0.29563 0.13575
#
# Static dielectric constant tensor:
#      x y z
#    x 2.024590 0.000000 0.000000 
#    y 0.000000 1.890640 0.000000 
#    z 0.000000 0.000000 2.010280 
# 
# From -- ./inp_files/31737.got.cif
#   From: 2010.05.17/outbox.cif.g08.bks.cpg/sg69_16_cif.got.tgz:31737.got - 2010.06.03 19:29:58.
