data_PCOD9513451
_publ_section_title
;
Structure prediction by ZEFSAII (Michael W. Deem and Ramdas Pophale) SiO2 
 PCOD9513451
Probable space group: F M M M
;
_chemical_formula_sum "Si O2"
_cell_formula_units_Z 120
_cell_length_a 27.398987
_cell_length_b 14.790153
_cell_length_c 14.188929
_cell_angle_alpha 90.000000
_cell_angle_beta 90.000000
_cell_angle_gamma 90.000000
_cell_volume 5749.853620
_symmetry_space_group_name_H-M "F M M M"
_symmetry_group_IT_number 69
_symmetry_cell_setting 'orthorhombic'
loop_
_space_group_symop_operation_xyz
x,y,z
-x,-y,z
x,-y,-z
-x,y,-z
-x,-y,-z
x,y,-z
-x,y,z
x,-y,z
x,1/2+y,1/2+z
-x,1/2-y,1/2+z
x,1/2-y,1/2-z
-x,1/2+y,1/2-z
-x,1/2-y,1/2-z
x,1/2+y,1/2-z
-x,1/2+y,1/2+z
x,1/2-y,1/2+z
1/2+x,y,1/2+z
1/2-x,-y,1/2+z
1/2+x,-y,1/2-z
1/2-x,y,1/2-z
1/2-x,-y,1/2-z
1/2+x,y,1/2-z
1/2-x,y,1/2+z
1/2+x,-y,1/2+z
1/2+x,1/2+y,z
1/2-x,1/2-y,z
1/2+x,1/2-y,-z
1/2-x,1/2+y,-z
1/2-x,1/2-y,-z
1/2+x,1/2+y,-z
1/2-x,1/2+y,z
1/2+x,1/2-y,z
loop_
_atom_site_type_symbol
_atom_site_label
_atom_site_fract_x
_atom_site_fract_y
_atom_site_fract_z
Si Si1 0.000000 0.645333 0.282481
Si Si2 0.500000 0.324064 0.000000
Si Si3 0.171496 0.105463 0.000000
Si Si4 0.600439 0.275522 0.500000
Si Si5 0.603996 0.894606 0.812853
Si Si6 0.200929 0.892243 0.205223
O O1 0.000000 0.750000 0.250000
O O2 0.000000 0.628797 0.396157
O O3 0.051157 0.611058 0.238204
O O4 0.545811 0.259041 0.000000
O O5 0.202202 0.119139 0.906176
O O6 0.131182 0.183124 0.000000
O O7 0.153054 0.000000 0.000000
O O8 0.607446 0.334646 0.406424
O O9 0.648370 0.862872 0.745269
O O10 0.611263 0.000000 0.837387
O O11 0.250000 0.853699 0.250000
O O12 0.201143 0.000000 0.223356
#
# Coordination Sequence:
#
# PCOD9513451 Si02
#       6
#    16   8  16  16  32  32
#     4  12  23  42  67  92 134 173 219 273 329 391
#     4  12  24  38  64  94 122 176 212 264 334 382
#     4  10  22  40  65  94 127 172 220 270 339 401
#     4  12  23  41  67  93 132 170 220 276 330 396
#     4  11  24  42  66  96 130 175 222 270 332 397
#     4   9  20  40  65  93 130 172 216 272 332 393
#
# _framework density 20.870096
#
# number of rings (size 3 to 8) (size 9 to 14) (size 15 to 20)
#    0.000    1.333    2.667    2.400    0.000    1.067 
#    0.000   13.000    0.000    0.000    0.000    0.000 
#    0.000    0.000    0.000    0.000    0.000    0.000 
#
# Total GULP energy -167475.229147 kJ/mol
# GULP energy per Si atom -5582.507638 kJ/mol
# Density = 2.082260 g / cm^3
# Si number density = 20.870096 Si / 1000 Ang^3
#
#
#
# Elastic Constant Matrix: (Units=GPa)
#
#
# Indices 1 2 3 4 5 6 
#
# 1 164.5755 38.1992 87.6372 0.0000 0.0000 0.0000
# 2 38.1992 102.4412 57.1722 0.0000 0.0000 0.0000
# 3 87.6372 57.1722 187.4692 0.0000 0.0000 0.0000
# 4 0.0000 0.0000 0.0000 30.6460 0.0000 0.0000
# 5 0.0000 0.0000 0.0000 0.0000 53.2424 0.0000
# 6 0.0000 0.0000 0.0000 0.0000 0.0000 -0.5361
#
#
#
# Elastic Compliance Matrix: (Units=1/GPa)
#
#
# Indices 1 2 3 4 5 6 
#
# 1 0.008193 -0.001106 -0.003493 0.000000 0.000000 0.000000
# 2 -0.001106 0.011913 -0.003116 0.000000 0.000000 0.000000
# 3 -0.003493 -0.003116 0.007917 0.000000 0.000000 0.000000
# 4 0.000000 0.000000 0.000000 0.032631 0.000000 0.000000
# 5 0.000000 0.000000 0.000000 0.000000 0.018782 0.000000
# 6 0.000000 0.000000 0.000000 0.000000 0.000000 -1.865203
#
#
# Mechanical properties :
#
#
# Convention : Reuss Voigt Hill
#
# Bulk Modulus (GPa) = 79.40343 91.16702 85.28523
# Shear Modulus (GPa) = -2.83103 34.76895 15.96896
#
# Velocity S-wave (km/s) = -1.16595 4.08606 2.76915
# Velocity P-wave (km/s) = 6.02632 8.12644 7.15387
#
# Compressibility (1/GPa) = 0.01259391
#
# Stress axis : x y z
#
# Youngs Moduli (GPa) = 122.05897 83.94065 126.30545
#
# Poissons Ratio (x) = 0.09282 0.44115
# Poissons Ratio (y) = 0.13496 0.39360
# Poissons Ratio (z) = 0.42632 0.26158
#
# Static dielectric constant tensor:
#      x y z
#    x 1.720450 0.000000 0.000000 
#    y 0.000000 1.763090 0.000000 
#    z 0.000000 0.000000 1.775930 
# 
# From -- ./inp_files/17507.got.cif
#   From: 2010.05.17/outbox.cif.g08.bks.cpg/sg69_9_cif.got.tgz:17507.got - 2010.06.03 19:29:58.
