data_PCOD9513711
_publ_section_title
;
Structure prediction by ZEFSAII (Michael W. Deem and Ramdas Pophale) SiO2 
 PCOD9513711
Probable space group: F M M M
;
_chemical_formula_sum "Si O2"
_cell_formula_units_Z 144
_cell_length_a 28.338900
_cell_length_b 16.783704
_cell_length_c 13.946897
_cell_angle_alpha 90.000000
_cell_angle_beta 90.000000
_cell_angle_gamma 90.000000
_cell_volume 6633.586459
_symmetry_space_group_name_H-M "F M M M"
_symmetry_group_IT_number 69
_symmetry_cell_setting 'orthorhombic'
loop_
_space_group_symop_operation_xyz
x,y,z
-x,-y,z
x,-y,-z
-x,y,-z
-x,-y,-z
x,y,-z
-x,y,z
x,-y,z
x,1/2+y,1/2+z
-x,1/2-y,1/2+z
x,1/2-y,1/2-z
-x,1/2+y,1/2-z
-x,1/2-y,1/2-z
x,1/2+y,1/2-z
-x,1/2+y,1/2+z
x,1/2-y,1/2+z
1/2+x,y,1/2+z
1/2-x,-y,1/2+z
1/2+x,-y,1/2-z
1/2-x,y,1/2-z
1/2-x,-y,1/2-z
1/2+x,y,1/2-z
1/2-x,y,1/2+z
1/2+x,-y,1/2+z
1/2+x,1/2+y,z
1/2-x,1/2-y,z
1/2+x,1/2-y,-z
1/2-x,1/2+y,-z
1/2-x,1/2-y,-z
1/2+x,1/2+y,-z
1/2-x,1/2+y,z
1/2+x,1/2-y,z
loop_
_atom_site_type_symbol
_atom_site_label
_atom_site_fract_x
_atom_site_fract_y
_atom_site_fract_z
Si Si1 0.095679 0.591646 0.793964
Si Si2 0.234100 0.588230 0.640102
Si Si3 0.556424 0.592987 0.500000
Si Si4 0.866723 0.663229 0.611142
Si Si5 0.674258 0.662426 0.394136
O O1 0.081434 0.500000 0.779642
O O2 0.071054 0.623755 0.892368
O O3 0.095494 0.638056 0.692448
O O4 0.150725 0.599234 0.823580
O O5 0.244797 0.500000 0.602486
O O6 0.250000 0.587613 0.750000
O O7 0.179930 0.608082 0.619478
O O8 0.269811 0.655121 0.602357
O O9 0.572688 0.500000 0.500000
O O10 0.500000 0.595057 0.500000
O O11 0.883291 0.661119 0.500000
O O12 0.845786 0.751172 0.631652
O O13 0.656682 0.642501 0.500000
#
# Coordination Sequence:
#
# PCOD9513711 Si02
#       5
#    32  32  16  32  32
#     4  11  21  36  61  89 116 147 190 240 298 359
#     4  11  22  34  51  77 114 160 215 266 301 336
#     4   9  20  40  68 100 123 140 177 243 310 363
#     4  11  24  38  54  81 119 169 204 245 296 356
#     4  11  22  36  55  80 112 157 205 255 297 344
#
# _framework density 21.707715
#
# number of rings (size 3 to 8) (size 9 to 14) (size 15 to 20)
#    0.000    1.222    3.333    3.333    0.000    6.667 
#    0.000    0.000    0.000    3.333    0.000    3.111 
#    0.000    0.000    0.000    0.000    0.000    0.889 
#
# Total GULP energy -200596.340124 kJ/mol
# GULP energy per Si atom -5572.120559 kJ/mol
# Density = 2.165831 g / cm^3
# Si number density = 21.707715 Si / 1000 Ang^3
#
#
#
# Elastic Constant Matrix: (Units=GPa)
#
#
# Indices 1 2 3 4 5 6 
#
# 1 43.0558 6.3304 29.6854 0.0000 0.0000 0.0000
# 2 6.3304 77.9045 34.2105 0.0000 0.0000 0.0000
# 3 29.6854 34.2105 195.1631 0.0000 0.0000 0.0000
# 4 0.0000 0.0000 0.0000 25.9433 0.0000 0.0000
# 5 0.0000 0.0000 0.0000 0.0000 23.9488 0.0000
# 6 0.0000 0.0000 0.0000 0.0000 0.0000 12.5169
#
#
#
# Elastic Compliance Matrix: (Units=1/GPa)
#
#
# Indices 1 2 3 4 5 6 
#
# 1 0.025959 -0.000407 -0.003877 0.000000 0.000000 0.000000
# 2 -0.000407 0.013913 -0.002377 0.000000 0.000000 0.000000
# 3 -0.003877 -0.002377 0.006130 0.000000 0.000000 0.000000
# 4 0.000000 0.000000 0.000000 0.038546 0.000000 0.000000
# 5 0.000000 0.000000 0.000000 0.000000 0.041756 0.000000
# 6 0.000000 0.000000 0.000000 0.000000 0.000000 0.079892
#
#
# Mechanical properties :
#
#
# Convention : Reuss Voigt Hill
#
# Bulk Modulus (GPa) = 30.59955 50.73069 40.66512
# Shear Modulus (GPa) = 21.70041 28.87494 25.28768
#
# Velocity S-wave (km/s) = 3.16518 3.65111 3.41679
# Velocity P-wave (km/s) = 5.24257 6.41831 5.86000
#
# Compressibility (1/GPa) = 0.03268022
#
# Stress axis : x y z
#
# Youngs Moduli (GPa) = 38.52286 71.87468 163.12364
#
# Poissons Ratio (x) = 0.02924 0.63245
# Poissons Ratio (y) = 0.01567 0.38774
# Poissons Ratio (z) = 0.14936 0.17084
#
# Static dielectric constant tensor:
#      x y z
#    x 1.788630 0.000000 0.000000 
#    y 0.000000 1.825000 0.000000 
#    z 0.000000 0.000000 1.917090 
# 
# From -- ./inp_files/19438.got.cif
#   From: 2010.05.17/outbox.cif.g08.bks.cpg/sg69_10_cif.got.tgz:19438.got - 2010.06.03 19:29:58.
