data_PCOD9513251
_publ_section_title
;
Structure prediction by ZEFSAII (Michael W. Deem and Ramdas Pophale) SiO2 
 PCOD9513251
Probable space group: F M M M
;
_chemical_formula_sum "Si O2"
_cell_formula_units_Z 200
_cell_length_a 20.911167
_cell_length_b 30.804517
_cell_length_c 17.361269
_cell_angle_alpha 90.000000
_cell_angle_beta 90.000000
_cell_angle_gamma 90.000000
_cell_volume 11183.407250
_symmetry_space_group_name_H-M "F M M M"
_symmetry_group_IT_number 69
_symmetry_cell_setting 'orthorhombic'
loop_
_space_group_symop_operation_xyz
x,y,z
-x,-y,z
x,-y,-z
-x,y,-z
-x,-y,-z
x,y,-z
-x,y,z
x,-y,z
x,1/2+y,1/2+z
-x,1/2-y,1/2+z
x,1/2-y,1/2-z
-x,1/2+y,1/2-z
-x,1/2-y,1/2-z
x,1/2+y,1/2-z
-x,1/2+y,1/2+z
x,1/2-y,1/2+z
1/2+x,y,1/2+z
1/2-x,-y,1/2+z
1/2+x,-y,1/2-z
1/2-x,y,1/2-z
1/2-x,-y,1/2-z
1/2+x,y,1/2-z
1/2-x,y,1/2+z
1/2+x,-y,1/2+z
1/2+x,1/2+y,z
1/2-x,1/2-y,z
1/2+x,1/2-y,-z
1/2-x,1/2+y,-z
1/2-x,1/2-y,-z
1/2+x,1/2+y,-z
1/2-x,1/2+y,z
1/2+x,1/2-y,z
loop_
_atom_site_type_symbol
_atom_site_label
_atom_site_fract_x
_atom_site_fract_y
_atom_site_fract_z
Si Si1 0.500000 0.364656 0.500000
Si Si2 0.426121 0.238410 0.336469
Si Si3 0.313897 0.450289 0.698147
Si Si4 0.905868 0.334767 0.131233
Si Si5 0.867793 0.653669 0.407794
Si Si6 0.723452 0.127057 0.091402
Si Si7 0.572255 0.895892 0.272755
O O1 0.444263 0.361950 0.567674
O O2 0.500000 0.223364 0.331567
O O3 0.403588 0.250000 0.250000
O O4 0.425017 0.284834 0.378439
O O5 0.385630 0.201871 0.379094
O O6 0.327308 0.500000 0.676469
O O7 0.250000 0.449630 0.750000
O O8 0.297077 0.418725 0.627733
O O9 0.374064 0.429416 0.743109
O O10 0.830278 0.339714 0.120239
O O11 0.922719 0.354546 0.214708
O O12 0.876135 0.650201 0.500000
O O13 0.794743 0.641589 0.386754
O O14 0.911230 0.621083 0.357867
O O15 0.721357 0.124838 0.000000
O O16 0.500000 0.912869 0.268404
#
# Coordination Sequence:
#
# PCOD9513251 Si02
#       7
#     8  32  32  32  32  32  32
#     4  12  20  36  58  90 115 160 206 246 309 364
#     4  11  22  37  55  80 117 157 208 254 297 343
#     4  10  21  39  65  90 113 149 194 240 298 370
#     4  11  22  36  59  85 116 160 203 245 300 356
#     4  11  24  38  57  86 119 162 207 253 300 345
#     4  10  22  40  59  86 123 154 196 248 297 363
#     4  11  21  39  61  87 122 158 197 247 298 361
#
# _framework density 17.883638000000001
#
# number of rings (size 3 to 8) (size 9 to 14) (size 15 to 20)
#    0.000    1.280    5.600    0.480    1.120    2.560 
#    0.000    2.400    0.000    0.480    0.000    5.600 
#    0.000    0.000    0.000    0.000    0.000    0.000 
#
# Total GULP energy -278535.498751 kJ/mol
# GULP energy per Si atom -5570.709975 kJ/mol
# Density = 1.784293 g / cm^3
# Si number density = 17.883638 Si / 1000 Ang^3
#
#
#
# Elastic Constant Matrix: (Units=GPa)
#
#
# Indices 1 2 3 4 5 6 
#
# 1 128.9023 45.4027 37.5167 0.0000 0.0000 0.0000
# 2 45.4027 93.3464 17.4615 0.0000 0.0000 0.0000
# 3 37.5167 17.4615 75.0578 0.0000 0.0000 0.0000
# 4 0.0000 0.0000 0.0000 13.9456 0.0000 0.0000
# 5 0.0000 0.0000 0.0000 0.0000 30.5612 0.0000
# 6 0.0000 0.0000 0.0000 0.0000 0.0000 -0.1032
#
#
#
# Elastic Compliance Matrix: (Units=1/GPa)
#
#
# Indices 1 2 3 4 5 6 
#
# 1 0.010517 -0.004320 -0.004252 0.000000 0.000000 0.000000
# 2 -0.004320 0.012975 -0.000859 0.000000 0.000000 0.000000
# 3 -0.004252 -0.000859 0.015648 0.000000 0.000000 0.000000
# 4 0.000000 0.000000 0.000000 0.071707 0.000000 0.000000
# 5 0.000000 0.000000 0.000000 0.000000 0.032721 0.000000
# 6 0.000000 0.000000 0.000000 0.000000 0.000000 -9.693099
#
#
# Mechanical properties :
#
#
# Convention : Reuss Voigt Hill
#
# Bulk Modulus (GPa) = 49.31460 55.34093 52.32776
# Shear Modulus (GPa) = -0.52499 22.00911 10.74206
#
# Velocity S-wave (km/s) = -0.54240 3.51192 2.45350
# Velocity P-wave (km/s) = 5.21947 6.88890 6.11146
#
# Compressibility (1/GPa) = 0.02027797
#
# Stress axis : x y z
#
# Youngs Moduli (GPa) = 95.08538 77.07323 63.90547
#
# Poissons Ratio (x) = 0.33295 0.27171
# Poissons Ratio (y) = 0.41076 0.05491
# Poissons Ratio (z) = 0.40428 0.06622
#
# Static dielectric constant tensor:
#      x y z
#    x 1.568000 0.000000 0.000000 
#    y 0.000000 1.606020 0.000000 
#    z 0.000000 0.000000 1.615280 
# 
# From -- ./inp_files/25189.got.cif
#   From: 2010.05.17/outbox.cif.g08.bks.cpg/sg69_13_cif.got.tgz:25189.got - 2010.06.03 19:29:58.
