data_PCOD9513672
_publ_section_title
;
Structure prediction by ZEFSAII (Michael W. Deem and Ramdas Pophale) SiO2 
 PCOD9513672
Probable space group: F M M M
;
_chemical_formula_sum "Si O2"
_cell_formula_units_Z 176
_cell_length_a 14.529987
_cell_length_b 27.614487
_cell_length_c 22.995231
_cell_angle_alpha 90.000000
_cell_angle_beta 90.000000
_cell_angle_gamma 90.000000
_cell_volume 9226.563649
_symmetry_space_group_name_H-M "F M M M"
_symmetry_group_IT_number 69
_symmetry_cell_setting 'orthorhombic'
loop_
_space_group_symop_operation_xyz
x,y,z
-x,-y,z
x,-y,-z
-x,y,-z
-x,-y,-z
x,y,-z
-x,y,z
x,-y,z
x,1/2+y,1/2+z
-x,1/2-y,1/2+z
x,1/2-y,1/2-z
-x,1/2+y,1/2-z
-x,1/2-y,1/2-z
x,1/2+y,1/2-z
-x,1/2+y,1/2+z
x,1/2-y,1/2+z
1/2+x,y,1/2+z
1/2-x,-y,1/2+z
1/2+x,-y,1/2-z
1/2-x,y,1/2-z
1/2-x,-y,1/2-z
1/2+x,y,1/2-z
1/2-x,y,1/2+z
1/2+x,-y,1/2+z
1/2+x,1/2+y,z
1/2-x,1/2-y,z
1/2+x,1/2-y,-z
1/2-x,1/2+y,-z
1/2-x,1/2-y,-z
1/2+x,1/2+y,-z
1/2-x,1/2+y,z
1/2+x,1/2-y,z
loop_
_atom_site_type_symbol
_atom_site_label
_atom_site_fract_x
_atom_site_fract_y
_atom_site_fract_z
Si Si1 0.640903 0.259230 0.934995
Si Si2 0.888328 0.305754 0.255262
Si Si3 0.770415 0.407386 0.069279
Si Si4 0.607252 0.858579 0.374596
Si Si5 0.106565 0.000000 0.570555
Si Si6 0.603234 0.666812 0.369484
O O1 0.750000 0.250000 0.932527
O O2 0.617292 0.314207 0.920015
O O3 0.599474 0.222878 0.888088
O O4 0.609518 0.247045 0.000000
O O5 0.856298 0.250000 0.250000
O O6 0.862335 0.334066 0.313570
O O7 0.862071 0.333916 0.196600
O O8 0.000000 0.303874 0.255308
O O9 0.675062 0.400592 0.103713
O O10 0.833697 0.452924 0.086880
O O11 0.830262 0.360496 0.086611
O O12 0.754388 0.409181 0.000000
O O13 0.500000 0.872652 0.370594
O O14 0.101854 0.000000 0.500000
O O15 0.000000 0.000000 0.591280
O O16 0.500000 0.646494 0.372868
#
# Coordination Sequence:
#
# PCOD9513672 Si02
#       6
#    32  32  32  32  16  32
#     4  11  21  33  47  75 118 158 195 235 282 340
#     4   9  18  34  53  77 112 158 209 240 266 321
#     4  11  23  39  59  88 116 141 187 240 292 362
#     4  11  22  37  56  79 117 164 200 238 283 334
#     4   9  20  42  69  90 113 145 180 236 308 363
#     4  11  21  34  55  81 112 149 191 244 290 332
#
# _framework density 19.075355999999999
#
# number of rings (size 3 to 8) (size 9 to 14) (size 15 to 20)
#    0.000    1.545    3.636    2.182    0.000    5.091 
#    0.000    2.273    0.000    3.818    0.000    3.818 
#    0.000    0.000    0.000    0.000    0.000    0.000 
#
# Total GULP energy -245709.421110 kJ/mol
# GULP energy per Si atom -5584.305025 kJ/mol
# Density = 1.903194 g / cm^3
# Si number density = 19.075356 Si / 1000 Ang^3
#
#
#
# Elastic Constant Matrix: (Units=GPa)
#
#
# Indices 1 2 3 4 5 6 
#
# 1 137.2335 38.1854 31.8640 0.0000 0.0000 0.0000
# 2 38.1854 71.9958 12.2663 0.0000 0.0000 0.0000
# 3 31.8640 12.2663 100.6697 0.0000 0.0000 0.0000
# 4 0.0000 0.0000 0.0000 13.5618 0.0000 0.0000
# 5 0.0000 0.0000 0.0000 0.0000 23.0957 0.0000
# 6 0.0000 0.0000 0.0000 0.0000 0.0000 25.7162
#
#
#
# Elastic Compliance Matrix: (Units=1/GPa)
#
#
# Indices 1 2 3 4 5 6 
#
# 1 0.009053 -0.004405 -0.002329 0.000000 0.000000 0.000000
# 2 -0.004405 0.016327 -0.000595 0.000000 0.000000 0.000000
# 3 -0.002329 -0.000595 0.010743 0.000000 0.000000 0.000000
# 4 0.000000 0.000000 0.000000 0.073737 0.000000 0.000000
# 5 0.000000 0.000000 0.000000 0.000000 0.043298 0.000000
# 6 0.000000 0.000000 0.000000 0.000000 0.000000 0.038886
#
#
# Mechanical properties :
#
#
# Convention : Reuss Voigt Hill
#
# Bulk Modulus (GPa) = 46.58552 52.72560 49.65556
# Shear Modulus (GPa) = 23.38004 27.64696 25.51350
#
# Velocity S-wave (km/s) = 3.50475 3.81117 3.66117
# Velocity P-wave (km/s) = 6.39160 6.86057 6.63023
#
# Compressibility (1/GPa) = 0.02146590
#
# Stress axis : x y z
#
# Youngs Moduli (GPa) = 110.45764 61.24676 93.08295
#
# Poissons Ratio (x) = 0.26979 0.21677
# Poissons Ratio (y) = 0.48656 0.05540
# Poissons Ratio (z) = 0.25723 0.03645
#
# Static dielectric constant tensor:
#      x y z
#    x 1.729850 0.000000 0.000000 
#    y 0.000000 1.647930 0.000000 
#    z 0.000000 0.000000 1.684250 
# 
# From -- ./inp_files/18080.got.cif
#   From: 2010.05.17/outbox.cif.g08.bks.cpg/sg69_10_cif.got.tgz:18080.got - 2010.06.03 19:29:58.
