data_PCOD9513627
_publ_section_title
;
Structure prediction by ZEFSAII (Michael W. Deem and Ramdas Pophale) SiO2 
 PCOD9513627
Probable space group: F M M M
;
_chemical_formula_sum "Si O2"
_cell_formula_units_Z 144
_cell_length_a 14.712082
_cell_length_b 34.562073
_cell_length_c 16.386258
_cell_angle_alpha 90.000000
_cell_angle_beta 90.000000
_cell_angle_gamma 90.000000
_cell_volume 8332.085321
_symmetry_space_group_name_H-M "F M M M"
_symmetry_group_IT_number 69
_symmetry_cell_setting 'orthorhombic'
loop_
_space_group_symop_operation_xyz
x,y,z
-x,-y,z
x,-y,-z
-x,y,-z
-x,-y,-z
x,y,-z
-x,y,z
x,-y,z
x,1/2+y,1/2+z
-x,1/2-y,1/2+z
x,1/2-y,1/2-z
-x,1/2+y,1/2-z
-x,1/2-y,1/2-z
x,1/2+y,1/2-z
-x,1/2+y,1/2+z
x,1/2-y,1/2+z
1/2+x,y,1/2+z
1/2-x,-y,1/2+z
1/2+x,-y,1/2-z
1/2-x,y,1/2-z
1/2-x,-y,1/2-z
1/2+x,y,1/2-z
1/2-x,y,1/2+z
1/2+x,-y,1/2+z
1/2+x,1/2+y,z
1/2-x,1/2-y,z
1/2+x,1/2-y,-z
1/2-x,1/2+y,-z
1/2-x,1/2-y,-z
1/2+x,1/2+y,-z
1/2-x,1/2+y,z
1/2+x,1/2-y,z
loop_
_atom_site_type_symbol
_atom_site_label
_atom_site_fract_x
_atom_site_fract_y
_atom_site_fract_z
Si Si1 0.760941 0.847457 0.092383
Si Si2 0.104634 0.782135 0.133801
Si Si3 0.110227 0.000000 0.906689
Si Si4 0.604738 0.915058 0.599918
Si Si5 0.104533 0.695664 0.174901
O O1 0.825522 0.809814 0.089968
O O2 0.824595 0.882124 0.124141
O O3 0.675781 0.836260 0.147679
O O4 0.731241 0.856637 0.000000
O O5 0.124544 0.736462 0.129457
O O6 0.111091 0.794175 0.229364
O O7 0.000000 0.788284 0.108025
O O8 0.133142 0.041967 0.870845
O O9 0.000000 0.000000 0.910648
O O10 0.144625 0.000000 0.000000
O O11 0.603570 0.915891 0.500000
O O12 0.500000 0.906867 0.624780
O O13 0.000000 0.685192 0.157811
#
# Coordination Sequence:
#
# PCOD9513627 Si02
#       5
#    32  32  16  32  32
#     4  11  20  27  41  68  95 112 131 172 227 268
#     4   9  18  33  49  61  78 110 152 190 215 243
#     4   7  10  20  38  56  80 115 143 163 199 256
#     4   8  14  24  38  60  89 115 138 168 211 261
#     4   9  19  34  47  58  78 116 160 186 201 238
#
# _framework density 17.282589000000002
#
# number of rings (size 3 to 8) (size 9 to 14) (size 15 to 20)
#    0.000    3.000    0.000    4.667    0.000    5.333 
#    0.000    2.222    0.000    0.000    0.000    3.889 
#    0.000    8.000    0.000    0.000    0.000    0.000 
#
# Total GULP energy -200590.223341 kJ/mol
# GULP energy per Si atom -5571.950648 kJ/mol
# Density = 1.724325 g / cm^3
# Si number density = 17.282589 Si / 1000 Ang^3
#
#
#
# Elastic Constant Matrix: (Units=GPa)
#
#
# Indices 1 2 3 4 5 6 
#
# 1 91.2773 78.9092 19.9961 0.0000 0.0000 0.0000
# 2 78.9092 102.7201 17.1141 0.0000 0.0000 0.0000
# 3 19.9961 17.1141 16.0271 0.0000 0.0000 0.0000
# 4 0.0000 0.0000 0.0000 -1.9852 0.0000 0.0000
# 5 0.0000 0.0000 0.0000 0.0000 88.8631 0.0000
# 6 0.0000 0.0000 0.0000 0.0000 0.0000 22.1036
#
#
#
# Elastic Compliance Matrix: (Units=1/GPa)
#
#
# Indices 1 2 3 4 5 6 
#
# 1 0.036902 -0.025152 -0.019183 0.000000 0.000000 0.000000
# 2 -0.025152 0.028985 0.000429 0.000000 0.000000 0.000000
# 3 -0.019183 0.000429 0.085869 0.000000 0.000000 0.000000
# 4 0.000000 0.000000 0.000000 -0.503723 0.000000 0.000000
# 5 0.000000 0.000000 0.000000 0.000000 0.011253 0.000000
# 6 0.000000 0.000000 0.000000 0.000000 0.000000 0.045242
#
#
# Mechanical properties :
#
#
# Convention : Reuss Voigt Hill
#
# Bulk Modulus (GPa) = 15.63820 49.11815 32.37818
# Shear Modulus (GPa) = -26.83156 28.06329 0.61587
#
# Velocity S-wave (km/s) = -3.94448 4.03400 0.59760
# Velocity P-wave (km/s) = 3.41717 7.08377 4.38764
#
# Compressibility (1/GPa) = 0.06394596
#
# Stress axis : x y z
#
# Youngs Moduli (GPa) = 27.09912 34.50051 11.64565
#
# Poissons Ratio (x) = 0.86775 0.22339
# Poissons Ratio (y) = 0.68159 -0.00500
# Poissons Ratio (z) = 0.51983 -0.01481
#
# Static dielectric constant tensor:
#      x y z
#    x 1.579840 0.000000 0.000000 
#    y 0.000000 1.617000 0.000000 
#    z 0.000000 0.000000 1.635740 
# 
# From -- ./inp_files/21777.got.cif
#   From: 2010.05.17/outbox.cif.g08.bks.cpg/sg69_11_cif.got.tgz:21777.got - 2010.06.03 19:29:58.
