data_PCOD9513253
_publ_section_title
;
Structure prediction by ZEFSAII (Michael W. Deem and Ramdas Pophale) SiO2 
 PCOD9513253
Probable space group: F M M M
;
_chemical_formula_sum "Si O2"
_cell_formula_units_Z 160
_cell_length_a 18.040832
_cell_length_b 33.004945
_cell_length_c 14.203079
_cell_angle_alpha 90.000000
_cell_angle_beta 90.000000
_cell_angle_gamma 90.000000
_cell_volume 8457.034034
_symmetry_space_group_name_H-M "F M M M"
_symmetry_group_IT_number 69
_symmetry_cell_setting 'orthorhombic'
loop_
_space_group_symop_operation_xyz
x,y,z
-x,-y,z
x,-y,-z
-x,y,-z
-x,-y,-z
x,y,-z
-x,y,z
x,-y,z
x,1/2+y,1/2+z
-x,1/2-y,1/2+z
x,1/2-y,1/2-z
-x,1/2+y,1/2-z
-x,1/2-y,1/2-z
x,1/2+y,1/2-z
-x,1/2+y,1/2+z
x,1/2-y,1/2+z
1/2+x,y,1/2+z
1/2-x,-y,1/2+z
1/2+x,-y,1/2-z
1/2-x,y,1/2-z
1/2-x,-y,1/2-z
1/2+x,y,1/2-z
1/2-x,y,1/2+z
1/2+x,-y,1/2+z
1/2+x,1/2+y,z
1/2-x,1/2-y,z
1/2+x,1/2-y,-z
1/2-x,1/2+y,-z
1/2-x,1/2-y,-z
1/2+x,1/2+y,-z
1/2-x,1/2+y,z
1/2+x,1/2-y,z
loop_
_atom_site_type_symbol
_atom_site_label
_atom_site_fract_x
_atom_site_fract_y
_atom_site_fract_z
Si Si1 0.415656 0.627931 0.500000
Si Si2 0.415628 0.282647 0.170440
Si Si3 0.183560 0.425899 0.313353
Si Si4 0.913075 0.000000 0.886735
Si Si5 0.418531 0.863471 0.209280
Si Si6 0.249855 0.883468 0.000000
Si Si7 0.698226 0.289596 0.000000
O O1 0.500000 0.609338 0.500000
O O2 0.411038 0.650267 0.399498
O O3 0.337313 0.604377 0.500000
O O4 0.500000 0.273901 0.136249
O O5 0.396521 0.250000 0.250000
O O6 0.416857 0.325300 0.223433
O O7 0.355507 0.285726 0.089621
O O8 0.250000 0.443276 0.250000
O O9 0.127719 0.460514 0.346661
O O10 0.142702 0.394351 0.244332
O O11 0.212845 0.402244 0.406177
O O12 0.000000 0.000000 0.863057
O O13 0.906127 0.000000 0.000000
O O14 0.500000 0.882987 0.217623
O O15 0.238082 0.834166 0.000000
O O16 0.750000 0.250000 0.000000
#
# Coordination Sequence:
#
# PCOD9513253 Si02
#       7
#    16  32  32  16  32  16  16
#     4  10  22  40  62  91 125 164 212 261 306 376
#     4  10  23  42  62  88 122 166 218 270 327 389
#     4  12  23  42  69  95 134 170 217 270 326 393
#     4  11  25  44  66 101 138 172 214 268 335 401
#     4  10  21  39  65  93 124 167 214 267 328 389
#     4  12  24  42  65  99 126 167 221 270 327 385
#     4  12  27  41  61  92 130 168 212 272 328 390
#
# _framework density 18.919162
#
# number of rings (size 3 to 8) (size 9 to 14) (size 15 to 20)
#    0.000    1.100    5.000    1.200    2.800    0.400 
#    0.000    0.000    0.000    0.000    0.000    4.200 
#    0.000    0.000    0.000    0.000    0.000    0.000 
#
# Total GULP energy -223078.121390 kJ/mol
# GULP energy per Si atom -5576.953035 kJ/mol
# Density = 1.887610 g / cm^3
# Si number density = 18.919162 Si / 1000 Ang^3
#
#
#
# Elastic Constant Matrix: (Units=GPa)
#
#
# Indices 1 2 3 4 5 6 
#
# 1 133.7277 51.0198 76.0891 0.0000 0.0000 0.0000
# 2 51.0198 84.2068 37.0340 0.0000 0.0000 0.0000
# 3 76.0891 37.0340 134.4272 0.0000 0.0000 0.0000
# 4 0.0000 0.0000 0.0000 22.7552 0.0000 0.0000
# 5 0.0000 0.0000 0.0000 0.0000 22.5900 0.0000
# 6 0.0000 0.0000 0.0000 0.0000 0.0000 3.8305
#
#
#
# Elastic Compliance Matrix: (Units=1/GPa)
#
#
# Indices 1 2 3 4 5 6 
#
# 1 0.012747 -0.005177 -0.005789 0.000000 0.000000 0.000000
# 2 -0.005177 0.015616 -0.001372 0.000000 0.000000 0.000000
# 3 -0.005789 -0.001372 0.011093 0.000000 0.000000 0.000000
# 4 0.000000 0.000000 0.000000 0.043946 0.000000 0.000000
# 5 0.000000 0.000000 0.000000 0.000000 0.044267 0.000000
# 6 0.000000 0.000000 0.000000 0.000000 0.000000 0.261059
#
#
# Mechanical properties :
#
#
# Convention : Reuss Voigt Hill
#
# Bulk Modulus (GPa) = 67.65568 75.62749 71.64158
# Shear Modulus (GPa) = 11.95229 22.38308 17.16768
#
# Velocity S-wave (km/s) = 2.51620 3.44334 3.01561
# Velocity P-wave (km/s) = 6.65430 7.47460 7.07634
#
# Compressibility (1/GPa) = 0.01478073
#
# Stress axis : x y z
#
# Youngs Moduli (GPa) = 78.45120 64.03870 90.14403
#
# Poissons Ratio (x) = 0.33154 0.52182
# Poissons Ratio (y) = 0.40616 0.12364
# Poissons Ratio (z) = 0.45413 0.08783
#
# Static dielectric constant tensor:
#      x y z
#    x 1.704330 0.000000 0.000000 
#    y 0.000000 1.628680 0.000000 
#    z 0.000000 0.000000 1.644960 
# 
# From -- ./inp_files/15733.got.cif
#   From: 2010.05.17/outbox.cif.g08.bks.cpg/sg69_8_cif.got.tgz:15733.got - 2010.06.03 19:29:58.
