data_PCOD9513034
_publ_section_title
;
Structure prediction by ZEFSAII (Michael W. Deem and Ramdas Pophale) SiO2 
 PCOD9513034
Probable space group: F M M M
;
_chemical_formula_sum "Si O2"
_cell_formula_units_Z 160
_cell_length_a 17.085948
_cell_length_b 15.408773
_cell_length_c 27.444224
_cell_angle_alpha 90.000000
_cell_angle_beta 90.000000
_cell_angle_gamma 90.000000
_cell_volume 7225.336749
_symmetry_space_group_name_H-M "F M M M"
_symmetry_group_IT_number 69
_symmetry_cell_setting 'orthorhombic'
loop_
_space_group_symop_operation_xyz
x,y,z
-x,-y,z
x,-y,-z
-x,y,-z
-x,-y,-z
x,y,-z
-x,y,z
x,-y,z
x,1/2+y,1/2+z
-x,1/2-y,1/2+z
x,1/2-y,1/2-z
-x,1/2+y,1/2-z
-x,1/2-y,1/2-z
x,1/2+y,1/2-z
-x,1/2+y,1/2+z
x,1/2-y,1/2+z
1/2+x,y,1/2+z
1/2-x,-y,1/2+z
1/2+x,-y,1/2-z
1/2-x,y,1/2-z
1/2-x,-y,1/2-z
1/2+x,y,1/2-z
1/2-x,y,1/2+z
1/2+x,-y,1/2+z
1/2+x,1/2+y,z
1/2-x,1/2-y,z
1/2+x,1/2-y,-z
1/2-x,1/2+y,-z
1/2-x,1/2-y,-z
1/2+x,1/2+y,-z
1/2-x,1/2+y,z
1/2+x,1/2-y,z
loop_
_atom_site_type_symbol
_atom_site_label
_atom_site_fract_x
_atom_site_fract_y
_atom_site_fract_z
Si Si1 0.087880 0.605079 0.764116
Si Si2 0.291272 0.842381 0.155028
Si Si3 0.690515 0.103715 0.052618
Si Si4 0.620787 0.598599 0.842740
Si Si5 0.621582 0.604846 0.052422
O O1 0.098466 0.500000 0.763108
O O2 0.152358 0.642555 0.799938
O O3 0.096514 0.638654 0.708616
O O4 0.000000 0.623077 0.781149
O O5 0.250000 0.750000 0.156279
O O6 0.335206 0.855433 0.103512
O O7 0.215479 0.904645 0.157059
O O8 0.784507 0.118378 0.051606
O O9 0.678056 0.000000 0.054876
O O10 0.659797 0.135377 0.000000
O O11 0.590925 0.500000 0.842332
O O12 0.595290 0.638432 0.894661
O O13 0.609450 0.500000 0.053100
O O14 0.591164 0.636568 0.000000
#
# Coordination Sequence:
#
# PCOD9513034 Si02
#       5
#    32  32  32  32  32
#     4  10  21  37  56  76 103 143 188 232 274 319
#     4  11  21  32  50  79 110 140 177 222 276 331
#     4   8  14  27  49  76 105 136 171 216 268 318
#     4   9  17  31  51  72  96 133 184 231 267 315
#     4   7  10  19  39  67  94 119 154 207 266 314
#
# _framework density 22.144297000000002
#
# number of rings (size 3 to 8) (size 9 to 14) (size 15 to 20)
#    0.000    3.000    0.000    4.800    0.000    3.600 
#    0.000    2.000    0.000    1.200    0.000    7.000 
#    0.000    4.800    0.000    9.000    0.000    0.000 
#
# Total GULP energy -223019.484078 kJ/mol
# GULP energy per Si atom -5575.487102 kJ/mol
# Density = 2.209390 g / cm^3
# Si number density = 22.144297 Si / 1000 Ang^3
#
#
#
# Elastic Constant Matrix: (Units=GPa)
#
#
# Indices 1 2 3 4 5 6 
#
# 1 43.7559 9.1324 60.3417 0.0000 0.0000 0.0000
# 2 9.1324 43.4088 27.4976 0.0000 0.0000 0.0000
# 3 60.3417 27.4976 245.5474 0.0000 0.0000 0.0000
# 4 0.0000 0.0000 0.0000 -18.0972 0.0000 0.0000
# 5 0.0000 0.0000 0.0000 0.0000 10.6477 0.0000
# 6 0.0000 0.0000 0.0000 0.0000 0.0000 -12.1576
#
#
#
# Elastic Compliance Matrix: (Units=1/GPa)
#
#
# Indices 1 2 3 4 5 6 
#
# 1 0.034737 -0.002046 -0.008307 0.000000 0.000000 0.000000
# 2 -0.002046 0.024916 -0.002288 0.000000 0.000000 0.000000
# 3 -0.008307 -0.002288 0.006370 0.000000 0.000000 0.000000
# 4 0.000000 0.000000 0.000000 -0.055257 0.000000 0.000000
# 5 0.000000 0.000000 0.000000 0.000000 0.093917 0.000000
# 6 0.000000 0.000000 0.000000 0.000000 0.000000 -0.082253
#
#
# Mechanical properties :
#
#
# Convention : Reuss Voigt Hill
#
# Bulk Modulus (GPa) = 24.54438 58.51729 41.53084
# Shear Modulus (GPa) = 81.57586 11.79459 46.68522
#
# Velocity S-wave (km/s) = 6.07604 2.31037 4.59653
# Velocity P-wave (km/s) = 7.76739 5.79654 6.85318
#
# Compressibility (1/GPa) = 0.04074252
#
# Stress axis : x y z
#
# Youngs Moduli (GPa) = 28.78742 40.13442 156.98105
#
# Poissons Ratio (x) = 0.08210 1.30411
# Poissons Ratio (y) = 0.05889 0.35910
# Poissons Ratio (z) = 0.23915 0.09181
#
# Static dielectric constant tensor:
#      x y z
#    x 1.776620 0.000000 0.000000 
#    y 0.000000 1.862330 0.000000 
#    z 0.000000 0.000000 1.907360 
# 
# From -- ./inp_files/41743.got.cif
#   From: 2010.05.17/outbox.cif.g08.bks.cpg/sg69_21_cif.got.tgz:41743.got - 2010.06.03 19:29:58.
