data_PCOD9513198
_publ_section_title
;
Structure prediction by ZEFSAII (Michael W. Deem and Ramdas Pophale) SiO2 
 PCOD9513198
Probable space group: F M M M
;
_chemical_formula_sum "Si O2"
_cell_formula_units_Z 208
_cell_length_a 30.393946
_cell_length_b 18.027814
_cell_length_c 21.250800
_cell_angle_alpha 90.000000
_cell_angle_beta 90.000000
_cell_angle_gamma 90.000000
_cell_volume 11644.086960
_symmetry_space_group_name_H-M "F M M M"
_symmetry_group_IT_number 69
_symmetry_cell_setting 'orthorhombic'
loop_
_space_group_symop_operation_xyz
x,y,z
-x,-y,z
x,-y,-z
-x,y,-z
-x,-y,-z
x,y,-z
-x,y,z
x,-y,z
x,1/2+y,1/2+z
-x,1/2-y,1/2+z
x,1/2-y,1/2-z
-x,1/2+y,1/2-z
-x,1/2-y,1/2-z
x,1/2+y,1/2-z
-x,1/2+y,1/2+z
x,1/2-y,1/2+z
1/2+x,y,1/2+z
1/2-x,-y,1/2+z
1/2+x,-y,1/2-z
1/2-x,y,1/2-z
1/2-x,-y,1/2-z
1/2+x,y,1/2-z
1/2-x,y,1/2+z
1/2+x,-y,1/2+z
1/2+x,1/2+y,z
1/2-x,1/2-y,z
1/2+x,1/2-y,-z
1/2-x,1/2+y,-z
1/2-x,1/2-y,-z
1/2+x,1/2+y,-z
1/2-x,1/2+y,z
1/2+x,1/2-y,z
loop_
_atom_site_type_symbol
_atom_site_label
_atom_site_fract_x
_atom_site_fract_y
_atom_site_fract_z
Si Si1 0.304631 0.089235 0.427440
Si Si2 0.206162 0.585553 0.923328
Si Si3 0.875011 0.185047 0.572931
Si Si4 0.106340 0.346970 0.618518
Si Si5 0.949252 0.411790 0.875453
Si Si6 0.448930 0.338422 0.760032
Si Si7 0.947686 0.410837 0.500000
O O1 0.310283 0.115107 0.500000
O O2 0.255535 0.109618 0.405275
O O3 0.345305 0.118424 0.387952
O O4 0.305593 0.000000 0.428648
O O5 0.198248 0.500000 0.903131
O O6 0.168307 0.642007 0.903212
O O7 0.205757 0.584213 0.000000
O O8 0.867896 0.205495 0.500000
O O9 0.887445 0.258933 0.609940
O O10 0.915272 0.128224 0.579081
O O11 0.082638 0.363328 0.684035
O O12 0.076352 0.377563 0.561327
O O13 0.943997 0.500000 0.876951
O O14 0.940791 0.380715 0.805260
O O15 0.000000 0.393730 0.891070
O O16 0.500000 0.351655 0.777878
O O17 0.443928 0.250000 0.750000
O O18 0.942114 0.500000 0.500000
O O19 0.000000 0.394324 0.500000
#
# Coordination Sequence:
#
# PCOD9513198 Si02
#       7
#    32  32  32  32  32  32  16
#     4   9  17  32  53  79 114 149 180 221 273 329
#     4   8  16  31  52  77 110 151 184 216 266 329
#     4  11  21  34  54  86 117 145 180 224 281 335
#     4  12  21  34  56  85 111 145 186 228 281 331
#     4  10  22  39  58  81 108 143 188 233 276 327
#     4  10  21  39  59  77 105 147 191 234 273 321
#     4  11  24  38  52  79 119 153 181 224 281 342
#
# _framework density 17.863143000000001
#
# number of rings (size 3 to 8) (size 9 to 14) (size 15 to 20)
#    0.000    1.923    3.077    2.308    0.000    3.692 
#    0.000    4.615    0.000    0.923    0.000    3.231 
#    0.000    0.000    0.000    0.000    0.000    0.000 
#
# Total GULP energy -290204.206693 kJ/mol
# GULP energy per Si atom -5580.850129 kJ/mol
# Density = 1.782249 g / cm^3
# Si number density = 17.863143 Si / 1000 Ang^3
#
#
#
# Elastic Constant Matrix: (Units=GPa)
#
#
# Indices 1 2 3 4 5 6 
#
# 1 107.4322 43.7110 23.1644 0.0000 0.0000 0.0000
# 2 43.7110 50.2661 0.2009 0.0000 0.0000 0.0000
# 3 23.1644 0.2009 20.1610 0.0000 0.0000 0.0000
# 4 0.0000 0.0000 0.0000 19.3204 0.0000 0.0000
# 5 0.0000 0.0000 0.0000 0.0000 18.8828 0.0000
# 6 0.0000 0.0000 0.0000 0.0000 0.0000 30.9183
#
#
#
# Elastic Compliance Matrix: (Units=1/GPa)
#
#
# Indices 1 2 3 4 5 6 
#
# 1 0.023145 -0.020022 -0.026394 0.000000 0.000000 0.000000
# 2 -0.020022 0.037214 0.022633 0.000000 0.000000 0.000000
# 3 -0.026394 0.022633 0.079701 0.000000 0.000000 0.000000
# 4 0.000000 0.000000 0.000000 0.051759 0.000000 0.000000
# 5 0.000000 0.000000 0.000000 0.000000 0.052958 0.000000
# 6 0.000000 0.000000 0.000000 0.000000 0.000000 0.032343
#
#
# Mechanical properties :
#
#
# Convention : Reuss Voigt Hill
#
# Bulk Modulus (GPa) = 10.81120 34.66800 22.73960
# Shear Modulus (GPa) = 14.06399 21.20983 17.63691
#
# Velocity S-wave (km/s) = 2.80896 3.44954 3.14560
# Velocity P-wave (km/s) = 4.07256 5.94268 5.09417
#
# Compressibility (1/GPa) = 0.09249669
#
# Stress axis : x y z
#
# Youngs Moduli (GPa) = 43.20504 26.87140 12.54686
#
# Poissons Ratio (x) = 0.53801 0.33116
# Poissons Ratio (y) = 0.86503 -0.28398
# Poissons Ratio (z) = 1.14035 -0.60819
#
# Static dielectric constant tensor:
#      x y z
#    x 1.617440 0.000000 0.000000 
#    y 0.000000 1.608230 0.000000 
#    z 0.000000 0.000000 1.582970 
# 
# From -- ./inp_files/38497.got.cif
#   From: 2010.05.17/outbox.cif.g08.bks.cpg/sg69_20_cif.got.tgz:38497.got - 2010.06.03 19:29:58.
