data_PCOD9513720
_publ_section_title
;
Structure prediction by ZEFSAII (Michael W. Deem and Ramdas Pophale) SiO2 
 PCOD9513720
Probable space group: F M M M
;
_chemical_formula_sum "Si O2"
_cell_formula_units_Z 160
_cell_length_a 18.066972
_cell_length_b 21.955293
_cell_length_c 19.969473
_cell_angle_alpha 90.000000
_cell_angle_beta 90.000000
_cell_angle_gamma 90.000000
_cell_volume 7921.204265
_symmetry_space_group_name_H-M "F M M M"
_symmetry_group_IT_number 69
_symmetry_cell_setting 'orthorhombic'
loop_
_space_group_symop_operation_xyz
x,y,z
-x,-y,z
x,-y,-z
-x,y,-z
-x,-y,-z
x,y,-z
-x,y,z
x,-y,z
x,1/2+y,1/2+z
-x,1/2-y,1/2+z
x,1/2-y,1/2-z
-x,1/2+y,1/2-z
-x,1/2-y,1/2-z
x,1/2+y,1/2-z
-x,1/2+y,1/2+z
x,1/2-y,1/2+z
1/2+x,y,1/2+z
1/2-x,-y,1/2+z
1/2+x,-y,1/2-z
1/2-x,y,1/2-z
1/2-x,-y,1/2-z
1/2+x,y,1/2-z
1/2-x,y,1/2+z
1/2+x,-y,1/2+z
1/2+x,1/2+y,z
1/2-x,1/2-y,z
1/2+x,1/2-y,-z
1/2-x,1/2+y,-z
1/2-x,1/2-y,-z
1/2+x,1/2+y,-z
1/2-x,1/2+y,z
1/2+x,1/2-y,z
loop_
_atom_site_type_symbol
_atom_site_label
_atom_site_fract_x
_atom_site_fract_y
_atom_site_fract_z
Si Si1 0.683058 0.384869 0.421036
Si Si2 0.582292 0.926413 0.500000
Si Si3 0.667119 0.927440 0.635897
Si Si4 0.088204 0.335686 0.718256
Si Si5 0.417484 0.500000 0.581050
Si Si6 0.664344 0.728917 0.344081
O O1 0.701535 0.393112 0.500000
O O2 0.753522 0.396475 0.373713
O O3 0.625295 0.437881 0.402238
O O4 0.657293 0.316185 0.406905
O O5 0.500000 0.900881 0.500000
O O6 0.624380 0.911203 0.567568
O O7 0.577788 0.000000 0.500000
O O8 0.619556 0.900663 0.696328
O O9 0.676054 0.000000 0.639902
O O10 0.133704 0.311275 0.782049
O O11 0.113020 0.288619 0.659560
O O12 0.000000 0.334285 0.728649
O O13 0.500000 0.500000 0.608928
O O14 0.421558 0.500000 0.500000
O O15 0.750000 0.750000 0.336732
#
# Coordination Sequence:
#
# PCOD9513720 Si02
#       6
#    32  16  32  32  16  32
#     4  11  22  39  66  96 127 163 206 258 311 374
#     4   9  18  32  54  85 124 164 196 238 303 367
#     4  11  21  37  64  95 127 162 205 252 311 377
#     4  11  24  43  65  89 124 167 210 259 315 369
#     4   9  20  38  62  91 126 166 204 248 308 370
#     4  11  23  42  66  89 120 166 218 255 309 376
#
# _framework density 20.19895
#
# number of rings (size 3 to 8) (size 9 to 14) (size 15 to 20)
#    0.000    1.400    4.000    3.000    0.000    3.200 
#    3.600    1.000    0.000    0.000    0.000    0.000 
#    0.000    0.000    0.000    0.000    0.000    0.000 
#
# Total GULP energy -223223.638293 kJ/mol
# GULP energy per Si atom -5580.590957 kJ/mol
# Density = 2.015298 g / cm^3
# Si number density = 20.198950 Si / 1000 Ang^3
#
#
#
# Elastic Constant Matrix: (Units=GPa)
#
#
# Indices 1 2 3 4 5 6 
#
# 1 121.9663 16.2251 18.9105 0.0000 0.0000 0.0000
# 2 16.2251 65.1716 20.4492 0.0000 0.0000 0.0000
# 3 18.9105 20.4492 28.4815 0.0000 0.0000 0.0000
# 4 0.0000 0.0000 0.0000 34.0164 0.0000 0.0000
# 5 0.0000 0.0000 0.0000 0.0000 9.9554 0.0000
# 6 0.0000 0.0000 0.0000 0.0000 0.0000 24.5431
#
#
#
# Elastic Compliance Matrix: (Units=1/GPa)
#
#
# Indices 1 2 3 4 5 6 
#
# 1 0.009151 -0.000480 -0.005732 0.000000 0.000000 0.000000
# 2 -0.000480 0.019831 -0.013920 0.000000 0.000000 0.000000
# 3 -0.005732 -0.013920 0.048910 0.000000 0.000000 0.000000
# 4 0.000000 0.000000 0.000000 0.029398 0.000000 0.000000
# 5 0.000000 0.000000 0.000000 0.000000 0.100448 0.000000
# 6 0.000000 0.000000 0.000000 0.000000 0.000000 0.040745
#
#
# Mechanical properties :
#
#
# Convention : Reuss Voigt Hill
#
# Bulk Modulus (GPa) = 26.57440 36.30990 31.44215
# Shear Modulus (GPa) = 16.59534 24.37197 20.48366
#
# Velocity S-wave (km/s) = 2.86946 3.47738 3.18794
# Velocity P-wave (km/s) = 4.91561 5.84278 5.39913
#
# Compressibility (1/GPa) = 0.03763021
#
# Stress axis : x y z
#
# Youngs Moduli (GPa) = 109.27176 50.42533 20.44561
#
# Poissons Ratio (x) = 0.02420 0.11719
# Poissons Ratio (y) = 0.05244 0.28460
# Poissons Ratio (z) = 0.62630 0.70192
#
# Static dielectric constant tensor:
#      x y z
#    x 1.713140 0.000000 0.000000 
#    y 0.000000 1.740480 0.000000 
#    z 0.000000 0.000000 1.737210 
# 
# From -- ./inp_files/36617.got.cif
#   From: 2010.05.17/outbox.cif.g08.bks.cpg/sg69_19_cif.got.tgz:36617.got - 2010.06.03 19:29:58.
