data_PCOD9513784
_publ_section_title
;
Structure prediction by ZEFSAII (Michael W. Deem and Ramdas Pophale) SiO2 
 PCOD9513784
Probable space group: F M M M
;
_chemical_formula_sum "Si O2"
_cell_formula_units_Z 152
_cell_length_a 22.387053
_cell_length_b 23.077174
_cell_length_c 14.193744
_cell_angle_alpha 90.000000
_cell_angle_beta 90.000000
_cell_angle_gamma 90.000000
_cell_volume 7332.912791
_symmetry_space_group_name_H-M "F M M M"
_symmetry_group_IT_number 69
_symmetry_cell_setting 'orthorhombic'
loop_
_space_group_symop_operation_xyz
x,y,z
-x,-y,z
x,-y,-z
-x,y,-z
-x,-y,-z
x,y,-z
-x,y,z
x,-y,z
x,1/2+y,1/2+z
-x,1/2-y,1/2+z
x,1/2-y,1/2-z
-x,1/2+y,1/2-z
-x,1/2-y,1/2-z
x,1/2+y,1/2-z
-x,1/2+y,1/2+z
x,1/2-y,1/2+z
1/2+x,y,1/2+z
1/2-x,-y,1/2+z
1/2+x,-y,1/2-z
1/2-x,y,1/2-z
1/2-x,-y,1/2-z
1/2+x,y,1/2-z
1/2-x,y,1/2+z
1/2+x,-y,1/2+z
1/2+x,1/2+y,z
1/2-x,1/2-y,z
1/2+x,1/2-y,-z
1/2-x,1/2+y,-z
1/2-x,1/2-y,-z
1/2+x,1/2+y,-z
1/2-x,1/2+y,z
1/2+x,1/2-y,z
loop_
_atom_site_type_symbol
_atom_site_label
_atom_site_fract_x
_atom_site_fract_y
_atom_site_fract_z
Si Si1 0.000000 0.500000 0.747409
Si Si2 0.682378 0.604544 0.217005
Si Si3 0.000000 0.798191 0.167968
Si Si4 0.118060 0.000000 0.886052
Si Si5 0.135314 0.214701 0.891920
Si Si6 0.127979 0.847540 0.606126
Si Si7 0.000000 0.621985 0.835651
O O1 0.057390 0.500000 0.676915
O O2 0.000000 0.445997 0.819291
O O3 0.750000 0.596153 0.250000
O O4 0.655911 0.556011 0.147912
O O5 0.669145 0.666738 0.168859
O O6 0.648160 0.606934 0.316319
O O7 0.000000 0.750000 0.250000
O O8 0.063259 0.793965 0.115897
O O9 0.000000 0.856863 0.227246
O O10 0.108285 0.000000 0.000000
O O11 0.146341 0.281934 0.866222
O O12 0.153139 0.207369 0.000000
O O13 0.148937 0.858623 0.500000
O O14 0.056861 0.851998 0.612097
#
# Coordination Sequence:
#
# PCOD9513784 Si02
#       7
#     8  32  16  16  32  32  16
#     4  12  23  44  77 104 138 170 211 278 353 416
#     4  12  26  46  67  95 135 183 230 284 338 397
#     4  12  17  33  63  93 134 176 212 278 354 412
#     4  12  26  49  77 104 133 170 222 286 350 416
#     4  11  22  38  65 101 136 177 228 283 344 406
#     4  11  23  40  65  97 136 179 223 276 338 408
#     4  12  21  39  64  97 139 176 219 276 346 408
#
# _framework density 20.728462
#
# number of rings (size 3 to 8) (size 9 to 14) (size 15 to 20)
#    0.000    0.421    6.316    2.368    0.000    5.053 
#    0.000    7.895    0.000    0.000    0.000    0.000 
#    0.000    0.000    0.000    0.000    0.000    0.000 
#
# Total GULP energy -212252.844687 kJ/mol
# GULP energy per Si atom -5585.601176 kJ/mol
# Density = 2.068128 g / cm^3
# Si number density = 20.728462 Si / 1000 Ang^3
#
#
#
# Elastic Constant Matrix: (Units=GPa)
#
#
# Indices 1 2 3 4 5 6 
#
# 1 73.1833 0.1646 2.2656 0.0000 0.0000 0.0000
# 2 0.1646 104.5447 43.7487 0.0000 0.0000 0.0000
# 3 2.2656 43.7487 99.1399 0.0000 0.0000 0.0000
# 4 0.0000 0.0000 0.0000 29.2972 0.0000 0.0000
# 5 0.0000 0.0000 0.0000 0.0000 69.7987 0.0000
# 6 0.0000 0.0000 0.0000 0.0000 0.0000 74.8411
#
#
#
# Elastic Compliance Matrix: (Units=1/GPa)
#
#
# Indices 1 2 3 4 5 6 
#
# 1 0.013676 0.000134 -0.000372 0.000000 0.000000 0.000000
# 2 0.000134 0.011733 -0.005181 0.000000 0.000000 0.000000
# 3 -0.000372 -0.005181 0.012381 0.000000 0.000000 0.000000
# 4 0.000000 0.000000 0.000000 0.034133 0.000000 0.000000
# 5 0.000000 0.000000 0.000000 0.000000 0.014327 0.000000
# 6 0.000000 0.000000 0.000000 0.000000 0.000000 0.013362
#
#
# Mechanical properties :
#
#
# Convention : Reuss Voigt Hill
#
# Bulk Modulus (GPa) = 37.10117 41.02507 39.06312
# Shear Modulus (GPa) = 41.86467 50.16666 46.01566
#
# Velocity S-wave (km/s) = 4.49895 4.92487 4.71672
# Velocity P-wave (km/s) = 6.70261 7.22314 6.96774
#
# Compressibility (1/GPa) = 0.02695333
#
# Stress axis : x y z
#
# Youngs Moduli (GPa) = 73.12334 85.22968 80.76651
#
# Poissons Ratio (x) = -0.01142 0.03002
# Poissons Ratio (y) = -0.00980 0.41842
# Poissons Ratio (z) = 0.02718 0.44154
#
# Static dielectric constant tensor:
#      x y z
#    x 1.289370 0.000000 0.000000 
#    y 0.000000 1.778580 0.000000 
#    z 0.000000 0.000000 1.736740 
# 
# From -- ./inp_files/16839.got.cif
#   From: 2010.05.17/outbox.cif.g08.bks.cpg/sg69_9_cif.got.tgz:16839.got - 2010.06.03 19:29:58.
