data_PCOD9513177
_publ_section_title
;
Structure prediction by ZEFSAII (Michael W. Deem and Ramdas Pophale) SiO2 
 PCOD9513177
Probable space group: F M M M
;
_chemical_formula_sum "Si O2"
_cell_formula_units_Z 128
_cell_length_a 17.204789
_cell_length_b 15.579000
_cell_length_c 22.739706
_cell_angle_alpha 90.000000
_cell_angle_beta 90.000000
_cell_angle_gamma 90.000000
_cell_volume 6095.000892
_symmetry_space_group_name_H-M "F M M M"
_symmetry_group_IT_number 69
_symmetry_cell_setting 'orthorhombic'
loop_
_space_group_symop_operation_xyz
x,y,z
-x,-y,z
x,-y,-z
-x,y,-z
-x,-y,-z
x,y,-z
-x,y,z
x,-y,z
x,1/2+y,1/2+z
-x,1/2-y,1/2+z
x,1/2-y,1/2-z
-x,1/2+y,1/2-z
-x,1/2-y,1/2-z
x,1/2+y,1/2-z
-x,1/2+y,1/2+z
x,1/2-y,1/2+z
1/2+x,y,1/2+z
1/2-x,-y,1/2+z
1/2+x,-y,1/2-z
1/2-x,y,1/2-z
1/2-x,-y,1/2-z
1/2+x,y,1/2-z
1/2-x,y,1/2+z
1/2+x,-y,1/2+z
1/2+x,1/2+y,z
1/2-x,1/2-y,z
1/2+x,1/2-y,-z
1/2-x,1/2+y,-z
1/2-x,1/2-y,-z
1/2+x,1/2+y,-z
1/2-x,1/2+y,z
1/2+x,1/2-y,z
loop_
_atom_site_type_symbol
_atom_site_label
_atom_site_fract_x
_atom_site_fract_y
_atom_site_fract_z
Si Si1 0.087779 0.397273 0.000000
Si Si2 0.410309 0.645200 0.258122
Si Si3 0.000000 0.102428 0.066297
Si Si4 0.329645 0.147900 0.878572
Si Si5 0.156857 0.646931 0.636056
O O1 0.128871 0.369289 0.059971
O O2 0.086061 0.500000 0.000000
O O3 0.000000 0.363664 0.000000
O O4 0.500000 0.618077 0.253879
O O5 0.410345 0.750000 0.250000
O O6 0.374130 0.616327 0.320021
O O7 0.360935 0.616228 0.202112
O O8 0.079579 0.127838 0.098874
O O9 0.000000 0.000000 0.063816
O O10 0.000000 0.137487 0.000000
O O11 0.241450 0.113696 0.882720
O O12 0.332226 0.250393 0.867853
#
# Coordination Sequence:
#
# PCOD9513177 Si02
#       5
#    16  32  16  32  32
#     4  11  26  43  58  85 121 162 205 244 298 362
#     4   9  16  32  59  93 123 153 192 253 309 348
#     4  11  26  42  59  86 126 165 196 245 311 373
#     4  10  22  36  64  92 121 158 200 255 300 348
#     4  10  21  38  62  95 121 151 207 250 300 358
#
# _framework density 21.000817999999999
#
# number of rings (size 3 to 8) (size 9 to 14) (size 15 to 20)
#    0.000    2.000    1.250    1.500    7.000    5.000 
#    0.000    1.250    0.000    3.000    0.000    0.000 
#    0.000    0.000    0.000    0.000    0.000    0.000 
#
# Total GULP energy -178606.709751 kJ/mol
# GULP energy per Si atom -5581.459680 kJ/mol
# Density = 2.095302 g / cm^3
# Si number density = 21.000818 Si / 1000 Ang^3
#
#
#
# Elastic Constant Matrix: (Units=GPa)
#
#
# Indices 1 2 3 4 5 6 
#
# 1 229.1183 12.2730 127.5059 0.0000 0.0000 0.0000
# 2 12.2730 31.1356 6.6242 0.0000 0.0000 0.0000
# 3 127.5059 6.6242 223.4971 0.0000 0.0000 0.0000
# 4 0.0000 0.0000 0.0000 66.4246 0.0000 0.0000
# 5 0.0000 0.0000 0.0000 0.0000 56.5731 0.0000
# 6 0.0000 0.0000 0.0000 0.0000 0.0000 -3.6049
#
#
#
# Elastic Compliance Matrix: (Units=1/GPa)
#
#
# Indices 1 2 3 4 5 6 
#
# 1 0.006492 -0.001782 -0.003651 0.000000 0.000000 0.000000
# 2 -0.001782 0.032811 0.000044 0.000000 0.000000 0.000000
# 3 -0.003651 0.000044 0.006556 0.000000 0.000000 0.000000
# 4 0.000000 0.000000 0.000000 0.015055 0.000000 0.000000
# 5 0.000000 0.000000 0.000000 0.000000 0.017676 0.000000
# 6 0.000000 0.000000 0.000000 0.000000 0.000000 -0.277396
#
#
# Mechanical properties :
#
#
# Convention : Reuss Voigt Hill
#
# Bulk Modulus (GPa) = 28.50560 86.28413 57.39487
# Shear Modulus (GPa) = -28.35485 46.36840 9.00678
#
# Velocity S-wave (km/s) = -3.67846 4.70396 2.07318
# Velocity P-wave (km/s) = 2.10676 8.40704 5.75499
#
# Compressibility (1/GPa) = 0.03508082
#
# Stress axis : x y z
#
# Youngs Moduli (GPa) = 154.04382 30.47795 152.53777
#
# Poissons Ratio (x) = 0.05432 0.55687
# Poissons Ratio (y) = 0.27453 -0.00675
# Poissons Ratio (z) = 0.56237 -0.00135
#
# Static dielectric constant tensor:
#      x y z
#    x 1.776680 0.000000 0.000000 
#    y 0.000000 1.793820 0.000000 
#    z 0.000000 0.000000 1.737880 
# 
# From -- ./inp_files/29652.got.cif
#   From: 2010.05.17/outbox.cif.g08.bks.cpg/sg69_15_cif.got.tgz:29652.got - 2010.06.03 19:29:58.
