data_PCOD9513332
_publ_section_title
;
Structure prediction by ZEFSAII (Michael W. Deem and Ramdas Pophale) SiO2 
 PCOD9513332
Probable space group: F M M M
;
_chemical_formula_sum "Si O2"
_cell_formula_units_Z 208
_cell_length_a 18.005931
_cell_length_b 21.471147
_cell_length_c 29.699898
_cell_angle_alpha 90.000000
_cell_angle_beta 90.000000
_cell_angle_gamma 90.000000
_cell_volume 11482.217910
_symmetry_space_group_name_H-M "F M M M"
_symmetry_group_IT_number 69
_symmetry_cell_setting 'orthorhombic'
loop_
_space_group_symop_operation_xyz
x,y,z
-x,-y,z
x,-y,-z
-x,y,-z
-x,-y,-z
x,y,-z
-x,y,z
x,-y,z
x,1/2+y,1/2+z
-x,1/2-y,1/2+z
x,1/2-y,1/2-z
-x,1/2+y,1/2-z
-x,1/2-y,1/2-z
x,1/2+y,1/2-z
-x,1/2+y,1/2+z
x,1/2-y,1/2+z
1/2+x,y,1/2+z
1/2-x,-y,1/2+z
1/2+x,-y,1/2-z
1/2-x,y,1/2-z
1/2-x,-y,1/2-z
1/2+x,y,1/2-z
1/2-x,y,1/2+z
1/2+x,-y,1/2+z
1/2+x,1/2+y,z
1/2-x,1/2-y,z
1/2+x,1/2-y,-z
1/2-x,1/2+y,-z
1/2-x,1/2-y,-z
1/2+x,1/2+y,-z
1/2-x,1/2+y,z
1/2+x,1/2-y,z
loop_
_atom_site_type_symbol
_atom_site_label
_atom_site_fract_x
_atom_site_fract_y
_atom_site_fract_z
Si Si1 0.584683 0.253051 0.109876
Si Si2 0.910581 0.793079 0.709556
Si Si3 0.307887 0.172631 0.049354
Si Si4 0.914758 0.000000 0.054301
Si Si5 0.137293 0.136346 0.946484
Si Si6 0.588533 0.070211 0.183342
Si Si7 0.416889 0.927662 0.075194
O O1 0.500000 0.229962 0.102528
O O2 0.599895 0.243780 0.162652
O O3 0.647679 0.214046 0.084487
O O4 0.590448 0.320726 0.087207
O O5 0.881366 0.750000 0.750000
O O6 0.882546 0.864985 0.705107
O O7 0.000000 0.798718 0.715568
O O8 0.222524 0.157886 0.058491
O O9 0.353194 0.108762 0.050341
O O10 0.314495 0.202049 0.000000
O O11 0.874168 0.935801 0.066256
O O12 0.000000 0.000000 0.070844
O O13 0.917888 0.000000 0.000000
O O14 0.117160 0.143676 0.000000
O O15 0.500000 0.068082 0.192549
O O16 0.594748 0.078131 0.129199
O O17 0.617648 0.000000 0.194845
O O18 0.500000 0.904641 0.064431
O O19 0.414653 0.000000 0.064239
#
# Coordination Sequence:
#
# PCOD9513332 Si02
#       7
#    32  32  32  16  32  32  32
#     4  11  21  35  55  78 106 142 180 222 271 325
#     4   9  17  30  51  78 105 133 172 223 273 318
#     4  11  22  33  49  75 111 145 178 220 270 322
#     4   9  18  36  60  80  99 136 191 237 270 313
#     4  10  22  37  54  77 106 141 183 230 275 319
#     4   8  13  25  46  71 100 134 171 209 252 312
#     4   9  17  29  46  72 106 144 184 218 253 309
#
# _framework density 18.114967
#
# number of rings (size 3 to 8) (size 9 to 14) (size 15 to 20)
#    0.000    2.385    1.538    2.769    1.077    4.308 
#    0.000    0.769    1.692    1.846    0.000    0.000 
#    0.000    3.692    0.000    0.000    0.000    0.000 
#
# Total GULP energy -289661.227207 kJ/mol
# GULP energy per Si atom -5570.408216 kJ/mol
# Density = 1.807374 g / cm^3
# Si number density = 18.114967 Si / 1000 Ang^3
#
#
#
# Elastic Constant Matrix: (Units=GPa)
#
#
# Indices 1 2 3 4 5 6 
#
# 1 51.8980 25.6015 32.8889 0.0000 0.0000 0.0000
# 2 25.6015 137.1214 61.8387 0.0000 0.0000 0.0000
# 3 32.8889 61.8387 75.6399 0.0000 0.0000 0.0000
# 4 0.0000 0.0000 0.0000 28.3594 0.0000 0.0000
# 5 0.0000 0.0000 0.0000 0.0000 -41.4955 0.0000
# 6 0.0000 0.0000 0.0000 0.0000 0.0000 31.7715
#
#
#
# Elastic Compliance Matrix: (Units=1/GPa)
#
#
# Indices 1 2 3 4 5 6 
#
# 1 0.026611 0.000395 -0.011894 0.000000 0.000000 0.000000
# 2 0.000395 0.011558 -0.009621 0.000000 0.000000 0.000000
# 3 -0.011894 -0.009621 0.026258 0.000000 0.000000 0.000000
# 4 0.000000 0.000000 0.000000 0.035262 0.000000 0.000000
# 5 0.000000 0.000000 0.000000 0.000000 -0.024099 0.000000
# 6 0.000000 0.000000 0.000000 0.000000 0.000000 0.031475
#
#
# Mechanical properties :
#
#
# Convention : Reuss Voigt Hill
#
# Bulk Modulus (GPa) = 45.07043 56.14641 50.60842
# Shear Modulus (GPa) = 31.90837 13.34909 22.62873
#
# Velocity S-wave (km/s) = 4.20150 2.71755 3.53820
# Velocity P-wave (km/s) = 6.96211 6.39598 6.68504
#
# Compressibility (1/GPa) = 0.02218750
#
# Stress axis : x y z
#
# Youngs Moduli (GPa) = 37.57849 86.52171 38.08409
#
# Poissons Ratio (x) = -0.03422 0.45297
# Poissons Ratio (y) = -0.01486 0.36640
# Poissons Ratio (z) = 0.44696 0.83242
#
# Static dielectric constant tensor:
#      x y z
#    x 1.607430 0.000000 0.000000 
#    y 0.000000 1.692570 0.000000 
#    z 0.000000 0.000000 1.613970 
# 
# From -- ./inp_files/46522.got.cif
#   From: 2010.05.17/outbox.cif.g08.bks.cpg/sg69_24_cif.got.tgz:46522.got - 2010.06.03 19:29:58.
