data_PCOD9513439
_publ_section_title
;
Structure prediction by ZEFSAII (Michael W. Deem and Ramdas Pophale) SiO2 
 PCOD9513439
Probable space group: F M M M
;
_chemical_formula_sum "Si O2"
_cell_formula_units_Z 160
_cell_length_a 19.821654
_cell_length_b 21.778215
_cell_length_c 18.931594
_cell_angle_alpha 90.000000
_cell_angle_beta 90.000000
_cell_angle_gamma 90.000000
_cell_volume 8172.395088
_symmetry_space_group_name_H-M "F M M M"
_symmetry_group_IT_number 69
_symmetry_cell_setting 'orthorhombic'
loop_
_space_group_symop_operation_xyz
x,y,z
-x,-y,z
x,-y,-z
-x,y,-z
-x,-y,-z
x,y,-z
-x,y,z
x,-y,z
x,1/2+y,1/2+z
-x,1/2-y,1/2+z
x,1/2-y,1/2-z
-x,1/2+y,1/2-z
-x,1/2-y,1/2-z
x,1/2+y,1/2-z
-x,1/2+y,1/2+z
x,1/2-y,1/2+z
1/2+x,y,1/2+z
1/2-x,-y,1/2+z
1/2+x,-y,1/2-z
1/2-x,y,1/2-z
1/2-x,-y,1/2-z
1/2+x,y,1/2-z
1/2-x,y,1/2+z
1/2+x,-y,1/2+z
1/2+x,1/2+y,z
1/2-x,1/2-y,z
1/2+x,1/2-y,-z
1/2-x,1/2+y,-z
1/2-x,1/2-y,-z
1/2+x,1/2+y,-z
1/2-x,1/2+y,z
1/2+x,1/2-y,z
loop_
_atom_site_type_symbol
_atom_site_label
_atom_site_fract_x
_atom_site_fract_y
_atom_site_fract_z
Si Si1 0.104114 0.361108 0.419485
Si Si2 0.423846 0.263744 0.333852
Si Si3 0.744643 0.571349 0.078811
Si Si4 0.814047 0.141466 0.298173
Si Si5 0.927195 0.428278 0.712134
O O1 0.080602 0.358312 0.500000
O O2 0.090114 0.297498 0.379059
O O3 0.182193 0.381588 0.420800
O O4 0.072162 0.413355 0.370607
O O5 0.500000 0.286129 0.353070
O O6 0.426051 0.250000 0.250000
O O7 0.358711 0.307775 0.338911
O O8 0.722928 0.500000 0.087989
O O9 0.789656 0.592379 0.144048
O O10 0.775997 0.575207 0.000000
O O11 0.750000 0.162728 0.250000
O O12 0.866451 0.108968 0.245682
O O13 0.918837 0.500000 0.724762
O O14 0.000000 0.408131 0.741726
#
# Coordination Sequence:
#
# PCOD9513439 Si02
#       5
#    32  32  32  32  32
#     4  11  23  40  64  92 125 162 207 253 307 379
#     4  11  23  41  62  86 123 168 208 256 311 364
#     4  10  22  40  62  92 130 166 203 259 323 372
#     4  12  23  39  66  93 124 161 218 260 310 369
#     4  11  23  39  62  94 128 164 207 258 316 372
#
# _framework density 19.578102999999999
#
# number of rings (size 3 to 8) (size 9 to 14) (size 15 to 20)
#    0.000    1.000    4.000    2.400    0.000    7.200 
#    0.000    3.000    0.000    1.800    0.000    7.000 
#    0.000    0.000    0.000    0.000    0.000    0.000 
#
# Total GULP energy -223141.246928 kJ/mol
# GULP energy per Si atom -5578.531173 kJ/mol
# Density = 1.953354 g / cm^3
# Si number density = 19.578103 Si / 1000 Ang^3
#
#
#
# Elastic Constant Matrix: (Units=GPa)
#
#
# Indices 1 2 3 4 5 6 
#
# 1 121.0803 38.3316 29.5734 0.0000 0.0000 0.0000
# 2 38.3316 61.4293 12.4571 0.0000 0.0000 0.0000
# 3 29.5734 12.4571 81.2347 0.0000 0.0000 0.0000
# 4 0.0000 0.0000 0.0000 32.5353 0.0000 0.0000
# 5 0.0000 0.0000 0.0000 0.0000 5.0256 0.0000
# 6 0.0000 0.0000 0.0000 0.0000 0.0000 38.6928
#
#
#
# Elastic Compliance Matrix: (Units=1/GPa)
#
#
# Indices 1 2 3 4 5 6 
#
# 1 0.010974 -0.006231 -0.003040 0.000000 0.000000 0.000000
# 2 -0.006231 0.020340 -0.000850 0.000000 0.000000 0.000000
# 3 -0.003040 -0.000850 0.013547 0.000000 0.000000 0.000000
# 4 0.000000 0.000000 0.000000 0.030736 0.000000 0.000000
# 5 0.000000 0.000000 0.000000 0.000000 0.198980 0.000000
# 6 0.000000 0.000000 0.000000 0.000000 0.000000 0.025845
#
#
# Mechanical properties :
#
#
# Convention : Reuss Voigt Hill
#
# Bulk Modulus (GPa) = 40.62085 47.16318 43.89202
# Shear Modulus (GPa) = 15.20355 27.47622 21.33989
#
# Velocity S-wave (km/s) = 2.78970 3.75028 3.30508
# Velocity P-wave (km/s) = 5.58299 6.54942 6.08542
#
# Compressibility (1/GPa) = 0.02461790
#
# Stress axis : x y z
#
# Youngs Moduli (GPa) = 91.12343 49.16484 73.81725
#
# Poissons Ratio (x) = 0.30637 0.22437
# Poissons Ratio (y) = 0.56783 0.06278
# Poissons Ratio (z) = 0.27697 0.04181
#
# Static dielectric constant tensor:
#      x y z
#    x 1.757280 0.000000 0.000000 
#    y 0.000000 1.684850 0.000000 
#    z 0.000000 0.000000 1.682730 
# 
# From -- ./inp_files/24560.got.cif
#   From: 2010.05.17/outbox.cif.g08.bks.cpg/sg69_13_cif.got.tgz:24560.got - 2010.06.03 19:29:58.
