data_PCOD9513064
_publ_section_title
;
Structure prediction by ZEFSAII (Michael W. Deem and Ramdas Pophale) SiO2 
 PCOD9513064
Probable space group: F M M M
;
_chemical_formula_sum "Si O2"
_cell_formula_units_Z 160
_cell_length_a 14.657134
_cell_length_b 33.264127
_cell_length_c 18.638255
_cell_angle_alpha 90.000000
_cell_angle_beta 90.000000
_cell_angle_gamma 90.000000
_cell_volume 9087.207347
_symmetry_space_group_name_H-M "F M M M"
_symmetry_group_IT_number 69
_symmetry_cell_setting 'orthorhombic'
loop_
_space_group_symop_operation_xyz
x,y,z
-x,-y,z
x,-y,-z
-x,y,-z
-x,-y,-z
x,y,-z
-x,y,z
x,-y,z
x,1/2+y,1/2+z
-x,1/2-y,1/2+z
x,1/2-y,1/2-z
-x,1/2+y,1/2-z
-x,1/2-y,1/2-z
x,1/2+y,1/2-z
-x,1/2+y,1/2+z
x,1/2-y,1/2+z
1/2+x,y,1/2+z
1/2-x,-y,1/2+z
1/2+x,-y,1/2-z
1/2-x,y,1/2-z
1/2-x,-y,1/2-z
1/2+x,y,1/2-z
1/2-x,y,1/2+z
1/2+x,-y,1/2+z
1/2+x,1/2+y,z
1/2-x,1/2-y,z
1/2+x,1/2-y,-z
1/2-x,1/2+y,-z
1/2-x,1/2-y,-z
1/2+x,1/2+y,-z
1/2-x,1/2+y,z
1/2+x,1/2-y,z
loop_
_atom_site_type_symbol
_atom_site_label
_atom_site_fract_x
_atom_site_fract_y
_atom_site_fract_z
Si Si1 0.500000 0.190472 0.086150
Si Si2 0.849416 0.453395 0.084680
Si Si3 0.183355 0.952855 0.816564
Si Si4 0.000000 0.400999 0.682592
Si Si5 0.646658 0.254389 0.912734
Si Si6 0.000000 0.603266 0.151306
Si Si7 0.500000 0.321661 0.913267
O O1 0.412306 0.215914 0.110575
O O2 0.500000 0.145085 0.110254
O O3 0.500000 0.191545 0.000000
O O4 0.876286 0.500000 0.097943
O O5 0.746739 0.449119 0.113268
O O6 0.913812 0.423602 0.128211
O O7 0.857461 0.445704 0.000000
O O8 0.250000 0.941077 0.750000
O O9 0.091704 0.927534 0.824577
O O10 0.160604 0.000000 0.805237
O O11 0.000000 0.387183 0.765051
O O12 0.000000 0.363541 0.628416
O O13 0.750000 0.250000 0.886833
O O14 0.588612 0.294247 0.894123
O O15 0.648889 0.254215 0.000000
O O16 0.500000 0.327204 0.000000
#
# Coordination Sequence:
#
# PCOD9513064 Si02
#       7
#    16  32  32  16  32  16  16
#     4   9  18  31  51  80 108 135 181 234 277 332
#     4  10  21  37  58  84 114 150 196 245 290 339
#     4  10  21  39  59  79 110 155 200 236 281 341
#     4  12  24  37  58  86 118 155 192 234 293 356
#     4   8  15  33  58  79 103 144 190 230 280 339
#     4  12  22  34  54  85 122 153 184 237 295 344
#     4   9  20  37  57  85 116 145 189 243 287 344
#
# _framework density 17.60717
#
# number of rings (size 3 to 8) (size 9 to 14) (size 15 to 20)
#    0.000    2.200    2.000    2.700    0.000    4.000 
#    0.000    4.000    0.000    4.200    0.000    0.000 
#    0.000    0.000    0.000    0.000    0.000    0.000 
#
# Total GULP energy -223060.250860 kJ/mol
# GULP energy per Si atom -5576.506271 kJ/mol
# Density = 1.756709 g / cm^3
# Si number density = 17.607170 Si / 1000 Ang^3
#
#
#
# Elastic Constant Matrix: (Units=GPa)
#
#
# Indices 1 2 3 4 5 6 
#
# 1 153.8519 84.8985 28.8607 0.0000 0.0000 0.0000
# 2 84.8985 119.5649 39.7570 0.0000 0.0000 0.0000
# 3 28.8607 39.7570 52.3597 0.0000 0.0000 0.0000
# 4 0.0000 0.0000 0.0000 19.2147 0.0000 0.0000
# 5 0.0000 0.0000 0.0000 0.0000 17.0616 0.0000
# 6 0.0000 0.0000 0.0000 0.0000 0.0000 -231.5376
#
#
#
# Elastic Compliance Matrix: (Units=1/GPa)
#
#
# Indices 1 2 3 4 5 6 
#
# 1 0.010689 -0.007532 -0.000172 0.000000 0.000000 0.000000
# 2 -0.007532 0.016497 -0.008374 0.000000 0.000000 0.000000
# 3 -0.000172 -0.008374 0.025552 0.000000 0.000000 0.000000
# 4 0.000000 0.000000 0.000000 0.052043 0.000000 0.000000
# 5 0.000000 0.000000 0.000000 0.000000 0.058611 0.000000
# 6 0.000000 0.000000 0.000000 0.000000 0.000000 -0.004319
#
#
# Mechanical properties :
#
#
# Convention : Reuss Voigt Hill
#
# Bulk Modulus (GPa) = 48.59103 70.31209 59.45156
# Shear Modulus (GPa) = 25.24106 -27.56823 -1.16358
#
# Velocity S-wave (km/s) = 3.79036 -3.96123 -0.81381
# Velocity P-wave (km/s) = 6.84200 4.37020 5.74071
#
# Compressibility (1/GPa) = 0.02057993
#
# Stress axis : x y z
#
# Youngs Moduli (GPa) = 93.55847 60.61885 39.13576
#
# Poissons Ratio (x) = 0.45660 0.00674
# Poissons Ratio (y) = 0.70470 0.32773
# Poissons Ratio (z) = 0.01611 0.50763
#
# Static dielectric constant tensor:
#      x y z
#    x 1.607410 0.000000 0.000000 
#    y 0.000000 1.574020 0.000000 
#    z 0.000000 0.000000 1.599260 
# 
# From -- ./inp_files/21918.got.cif
#   From: 2010.05.17/outbox.cif.g08.bks.cpg/sg69_11_cif.got.tgz:21918.got - 2010.06.03 19:29:58.
