data_PCOD9513993
_publ_section_title
;
Structure prediction by ZEFSAII (Michael W. Deem and Ramdas Pophale) SiO2 
 PCOD9513993
Probable space group: F M M M
;
_chemical_formula_sum "Si O2"
_cell_formula_units_Z 32
_cell_length_a 15.000000
_cell_length_b 21.000000
_cell_length_c 21.000000
_cell_angle_alpha 90.000000
_cell_angle_beta 90.000000
_cell_angle_gamma 90.000000
_cell_volume 6615.000000
_symmetry_space_group_name_H-M "F M M M"
_symmetry_group_IT_number 69
_symmetry_cell_setting 'orthorhombic'
loop_
_space_group_symop_operation_xyz
x,y,z
-x,-y,z
x,-y,-z
-x,y,-z
-x,-y,-z
x,y,-z
-x,y,z
x,-y,z
x,1/2+y,1/2+z
-x,1/2-y,1/2+z
x,1/2-y,1/2-z
-x,1/2+y,1/2-z
-x,1/2-y,1/2-z
x,1/2+y,1/2-z
-x,1/2+y,1/2+z
x,1/2-y,1/2+z
1/2+x,y,1/2+z
1/2-x,-y,1/2+z
1/2+x,-y,1/2-z
1/2-x,y,1/2-z
1/2-x,-y,1/2-z
1/2+x,y,1/2-z
1/2-x,y,1/2+z
1/2+x,-y,1/2+z
1/2+x,1/2+y,z
1/2-x,1/2-y,z
1/2+x,1/2-y,-z
1/2-x,1/2+y,-z
1/2-x,1/2-y,-z
1/2+x,1/2+y,-z
1/2-x,1/2+y,z
1/2+x,1/2-y,z
loop_
_atom_site_type_symbol
_atom_site_label
_atom_site_fract_x
_atom_site_fract_y
_atom_site_fract_z
Si Si1 0.500000 0.203924 0.191299
Si Si2 0.000000 0.789615 0.929042
Si Si3 0.686780 0.134847 0.813222
Si Si4 0.848796 0.500000 0.223134
Si Si5 0.898265 0.500000 0.632647
Si Si6 0.680934 0.871446 0.424738
O O1 0.500000 0.250000 0.250000
O O2 0.500000 0.236870 0.123531
O O3 0.404605 0.170940 0.196781
O O4 0.089829 0.830924 0.921352
O O5 0.000000 0.762923 0.000000
O O6 0.750000 0.140140 0.750000
O O7 0.648962 0.062954 0.818019
O O8 0.742984 0.153232 0.876121
O O9 0.750000 0.500000 0.250000
O O10 0.901865 0.500000 0.289940
O O11 0.847011 0.439106 0.605554
O O12 0.000000 0.500000 0.608877
O O13 0.706114 0.875279 0.500000
#
# Coordination Sequence:
#
# PCOD9513993 Si02
#       6
#    16  16  32  16  16  32
#     4  12  28  41  63  91 119 165 221 267 296 362
#     4  10  24  43  60  87 126 160 209 260 314 363
#     4  11  23  42  64  90 127 161 203 254 319 374
#     4  10  20  36  60  90 123 155 186 243 312 372
#     4  12  21  33  66  98 133 162 199 252 320 377
#     4  11  22  38  63  95 126 162 204 258 315 376
#
# _framework density 4.837491
#
# number of rings (size 3 to 8) (size 9 to 14) (size 15 to 20)
#    0.000    1.000    6.250    1.875    1.750    5.000 
#    0.000    2.500    0.000    0.000    0.000    4.375 
#    0.000    0.000    0.000    0.000    0.000    0.000 
#
# Total GULP energy -178336.123278 kJ/mol
# GULP energy per Si atom -5573.003852 kJ/mol
# Density = 0.482648 g / cm^3
# Si number density = 4.837491 Si / 1000 Ang^3
#
#
#
# Elastic Constant Matrix: (Units=GPa)
#
#
# Indices 1 2 3 4 5 6 
#
# 1 151.8184 56.9005 71.4751 0.0000 0.0000 0.0000
# 2 56.9005 53.7391 25.1291 0.0000 0.0000 0.0000
# 3 71.4751 25.1291 99.7531 0.0000 0.0000 0.0000
# 4 0.0000 0.0000 0.0000 8.8828 0.0000 0.0000
# 5 0.0000 0.0000 0.0000 0.0000 38.9101 0.0000
# 6 0.0000 0.0000 0.0000 0.0000 0.0000 4.8549
#
#
#
# Elastic Compliance Matrix: (Units=1/GPa)
#
#
# Indices 1 2 3 4 5 6 
#
# 1 0.014557 -0.011943 -0.007422 0.000000 0.000000 0.000000
# 2 -0.011943 0.030891 0.000775 0.000000 0.000000 0.000000
# 3 -0.007422 0.000775 0.015147 0.000000 0.000000 0.000000
# 4 0.000000 0.000000 0.000000 0.112578 0.000000 0.000000
# 5 0.000000 0.000000 0.000000 0.000000 0.025700 0.000000
# 6 0.000000 0.000000 0.000000 0.000000 0.000000 0.205977
#
#
# Mechanical properties :
#
#
# Convention : Reuss Voigt Hill
#
# Bulk Modulus (GPa) = 42.70401 68.03555 55.36978
# Shear Modulus (GPa) = 11.11517 20.64993 15.88255
#
# Velocity S-wave (km/s) = 2.39932 3.27032 2.86808
# Velocity P-wave (km/s) = 5.45829 7.03540 6.29642
#
# Compressibility (1/GPa) = 0.02341701
#
# Stress axis : x y z
#
# Youngs Moduli (GPa) = 68.69496 32.37152 66.01815
#
# Poissons Ratio (x) = 0.38661 0.48998
# Poissons Ratio (y) = 0.82042 -0.05119
# Poissons Ratio (z) = 0.50985 -0.02510
#
# Static dielectric constant tensor:
#      x y z
#    x 1.705950 0.000000 0.000000 
#    y 0.000000 1.858080 0.000000 
#    z 0.000000 0.000000 1.656010 
# 
# From -- ./inp_files/16402.got.cif
#   From: 2010.05.17/outbox.ucp.g08.bks.cvg/sg69_9_cif.got.tgz:16402.got - 2010.06.11 16:51:34.
