data_PCOD9513113
_publ_section_title
;
Structure prediction by ZEFSAII (Michael W. Deem and Ramdas Pophale) SiO2 
 PCOD9513113
Probable space group: F M M M
;
_chemical_formula_sum "Si O2"
_cell_formula_units_Z 160
_cell_length_a 20.033714
_cell_length_b 22.071170
_cell_length_c 19.859540
_cell_angle_alpha 90.000000
_cell_angle_beta 90.000000
_cell_angle_gamma 90.000000
_cell_volume 8781.243300
_symmetry_space_group_name_H-M "F M M M"
_symmetry_group_IT_number 69
_symmetry_cell_setting 'orthorhombic'
loop_
_space_group_symop_operation_xyz
x,y,z
-x,-y,z
x,-y,-z
-x,y,-z
-x,-y,-z
x,y,-z
-x,y,z
x,-y,z
x,1/2+y,1/2+z
-x,1/2-y,1/2+z
x,1/2-y,1/2-z
-x,1/2+y,1/2-z
-x,1/2-y,1/2-z
x,1/2+y,1/2-z
-x,1/2+y,1/2+z
x,1/2-y,1/2+z
1/2+x,y,1/2+z
1/2-x,-y,1/2+z
1/2+x,-y,1/2-z
1/2-x,y,1/2-z
1/2-x,-y,1/2-z
1/2+x,y,1/2-z
1/2-x,y,1/2+z
1/2+x,-y,1/2+z
1/2+x,1/2+y,z
1/2-x,1/2-y,z
1/2+x,1/2-y,-z
1/2-x,1/2+y,-z
1/2-x,1/2-y,-z
1/2+x,1/2+y,-z
1/2-x,1/2+y,z
1/2+x,1/2-y,z
loop_
_atom_site_type_symbol
_atom_site_label
_atom_site_fract_x
_atom_site_fract_y
_atom_site_fract_z
Si Si1 0.124534 0.862666 0.500000
Si Si2 0.857713 0.625985 0.395343
Si Si3 0.923496 0.928785 0.367207
Si Si4 0.672293 0.230118 0.500000
Si Si5 0.829202 0.430652 0.740214
Si Si6 0.500000 0.431714 0.080135
Si Si7 0.237517 0.567775 0.500000
O O1 0.090864 0.889209 0.566974
O O2 0.128203 0.790383 0.500000
O O3 0.200783 0.886884 0.500000
O O4 0.843847 0.688492 0.434756
O O5 0.842371 0.618635 0.317188
O O6 0.933521 0.604514 0.402534
O O7 0.809294 0.579687 0.435685
O O8 0.870431 0.916727 0.307941
O O9 0.000000 0.919498 0.344090
O O10 0.916445 0.000000 0.385337
O O11 0.750000 0.250000 0.500000
O O12 0.849341 0.500000 0.719558
O O13 0.750000 0.431937 0.750000
O O14 0.500000 0.500000 0.109471
O O15 0.500000 0.437644 0.000000
O O16 0.263822 0.500000 0.500000
#
# Coordination Sequence:
#
# PCOD9513113 Si02
#       7
#    16  32  32  16  32  16  16
#     4  12  22  40  64  84 118 161 213 265 304 355
#     4  11  22  38  59  87 129 163 200 252 305 373
#     4  10  22  40  63  95 125 155 199 257 322 378
#     4  11  24  43  61  85 119 166 220 260 294 353
#     4  10  21  37  62  95 127 159 198 249 315 382
#     4  11  20  34  58  94 125 158 200 248 319 388
#     4  11  19  31  58  90 115 149 198 255 315 363
#
# _framework density 18.220654
#
# number of rings (size 3 to 8) (size 9 to 14) (size 15 to 20)
#    0.000    1.300    4.000    4.200    1.400    2.400 
#    3.600    1.000    0.000    1.200    0.000    0.000 
#    0.000    0.000    0.000    0.000    0.000    0.000 
#
# Total GULP energy -223279.992588 kJ/mol
# GULP energy per Si atom -5581.999815 kJ/mol
# Density = 1.817918 g / cm^3
# Si number density = 18.220654 Si / 1000 Ang^3
#
#
#
# Elastic Constant Matrix: (Units=GPa)
#
#
# Indices 1 2 3 4 5 6 
#
# 1 122.7189 38.1579 40.0399 0.0000 0.0000 0.0000
# 2 38.1579 119.8089 61.6484 0.0000 0.0000 0.0000
# 3 40.0399 61.6484 116.4507 0.0000 0.0000 0.0000
# 4 0.0000 0.0000 0.0000 6.5182 0.0000 0.0000
# 5 0.0000 0.0000 0.0000 0.0000 28.0715 0.0000
# 6 0.0000 0.0000 0.0000 0.0000 0.0000 25.9016
#
#
#
# Elastic Compliance Matrix: (Units=1/GPa)
#
#
# Indices 1 2 3 4 5 6 
#
# 1 0.009465 -0.001842 -0.002279 0.000000 0.000000 0.000000
# 2 -0.001842 0.011830 -0.005629 0.000000 0.000000 0.000000
# 3 -0.002279 -0.005629 0.012351 0.000000 0.000000 0.000000
# 4 0.000000 0.000000 0.000000 0.153416 0.000000 0.000000
# 5 0.000000 0.000000 0.000000 0.000000 0.035623 0.000000
# 6 0.000000 0.000000 0.000000 0.000000 0.000000 0.038608
#
#
# Mechanical properties :
#
#
# Convention : Reuss Voigt Hill
#
# Bulk Modulus (GPa) = 70.69579 70.96343 70.82961
# Shear Modulus (GPa) = 17.51258 26.70709 22.10984
#
# Velocity S-wave (km/s) = 3.10359 3.83268 3.48724
# Velocity P-wave (km/s) = 7.19215 7.65618 7.42779
#
# Compressibility (1/GPa) = 0.01414511
#
# Stress axis : x y z
#
# Youngs Moduli (GPa) = 105.65174 84.53215 80.96315
#
# Poissons Ratio (x) = 0.15567 0.18456
# Poissons Ratio (y) = 0.19457 0.45578
# Poissons Ratio (z) = 0.24083 0.47587
#
# Static dielectric constant tensor:
#      x y z
#    x 1.616440 0.000000 0.000000 
#    y 0.000000 1.666720 0.000000 
#    z 0.000000 0.000000 1.628600 
# 
# From -- ./inp_files/30876.got.cif
#   From: 2010.05.17/outbox.cif.g08.bks.cpg/sg69_16_cif.got.tgz:30876.got - 2010.06.03 19:29:58.
