data_PCOD9513062
_publ_section_title
;
Structure prediction by ZEFSAII (Michael W. Deem and Ramdas Pophale) SiO2 
 PCOD9513062
Probable space group: F M M M
;
_chemical_formula_sum "Si O2"
_cell_formula_units_Z 160
_cell_length_a 30.269386
_cell_length_b 7.876102
_cell_length_c 33.354933
_cell_angle_alpha 90.000000
_cell_angle_beta 90.000000
_cell_angle_gamma 90.000000
_cell_volume 7951.975184
_symmetry_space_group_name_H-M "F M M M"
_symmetry_group_IT_number 69
_symmetry_cell_setting 'orthorhombic'
loop_
_space_group_symop_operation_xyz
x,y,z
-x,-y,z
x,-y,-z
-x,y,-z
-x,-y,-z
x,y,-z
-x,y,z
x,-y,z
x,1/2+y,1/2+z
-x,1/2-y,1/2+z
x,1/2-y,1/2-z
-x,1/2+y,1/2-z
-x,1/2-y,1/2-z
x,1/2+y,1/2-z
-x,1/2+y,1/2+z
x,1/2-y,1/2+z
1/2+x,y,1/2+z
1/2-x,-y,1/2+z
1/2+x,-y,1/2-z
1/2-x,y,1/2-z
1/2-x,-y,1/2-z
1/2+x,y,1/2-z
1/2-x,y,1/2+z
1/2+x,-y,1/2+z
1/2+x,1/2+y,z
1/2-x,1/2-y,z
1/2+x,1/2-y,-z
1/2-x,1/2+y,-z
1/2-x,1/2-y,-z
1/2+x,1/2+y,-z
1/2-x,1/2+y,z
1/2+x,1/2-y,z
loop_
_atom_site_type_symbol
_atom_site_label
_atom_site_fract_x
_atom_site_fract_y
_atom_site_fract_z
Si Si1 0.949981 0.294974 0.703553
Si Si2 0.933856 0.193743 0.000000
Si Si3 0.951828 0.196887 0.587066
Si Si4 0.663807 0.303706 0.500000
Si Si5 0.378052 0.807494 0.358544
Si Si6 0.199912 0.203601 0.086514
O O1 0.950514 0.500000 0.699029
O O2 0.943218 0.250000 0.750000
O O3 0.908807 0.230255 0.676744
O O4 0.000000 0.233552 0.693002
O O5 0.949641 0.286399 0.960375
O O6 0.880787 0.196472 0.000000
O O7 0.949181 0.000000 0.000000
O O8 0.913122 0.307353 0.605254
O O9 0.000000 0.254642 0.600940
O O10 0.945457 0.000000 0.598270
O O11 0.650271 0.500000 0.500000
O O12 0.689304 0.269521 0.541583
O O13 0.334490 0.730518 0.379532
O O14 0.366641 0.000000 0.346092
O O15 0.250000 0.250000 0.096591
O O16 0.194817 0.000000 0.085047
#
# Coordination Sequence:
#
# PCOD9513062 Si02
#       6
#    32  16  32  16  32  32
#     4   9  18  34  57  86 117 148 182 222 270 328
#     4  12  23  36  53  74 104 147 190 228 274 330
#     4  11  23  36  52  77 109 145 186 230 276 326
#     4  12  23  38  59  81 109 144 187 242 292 334
#     4  10  21  37  58  81 110 146 186 228 276 337
#     4  11  23  39  59  83 110 145 189 237 288 340
#
# _framework density 20.120788000000001
#
# number of rings (size 3 to 8) (size 9 to 14) (size 15 to 20)
#    0.000    1.400    2.000    4.200    0.000    5.200 
#    0.000    2.000    0.000    0.600    0.000    4.200 
#    0.000    0.000    0.000    0.000    0.000    0.000 
#
# Total GULP energy -223280.892443 kJ/mol
# GULP energy per Si atom -5582.022311 kJ/mol
# Density = 2.007499 g / cm^3
# Si number density = 20.120788 Si / 1000 Ang^3
#
#
#
# Elastic Constant Matrix: (Units=GPa)
#
#
# Indices 1 2 3 4 5 6 
#
# 1 170.8056 6.1486 65.5986 0.0002 -0.0002 -0.0006
# 2 6.1486 52.6815 -6.0979 0.0007 0.0000 -0.0009
# 3 65.5986 -6.0979 131.6398 0.0000 0.0000 0.0001
# 4 0.0002 0.0007 0.0000 18.6808 0.0000 -0.0002
# 5 -0.0002 0.0000 0.0000 0.0000 6.7434 0.0003
# 6 -0.0006 -0.0009 0.0001 -0.0002 0.0003 -3.7755
#
#
#
# Elastic Compliance Matrix: (Units=1/GPa)
#
#
# Indices 1 2 3 4 5 6 
#
# 1 0.007326 -0.001284 -0.003710 0.000000 0.000000 -0.000001
# 2 -0.001284 0.019310 0.001535 -0.000001 0.000000 -0.000005
# 3 -0.003710 0.001535 0.009516 0.000000 0.000000 0.000000
# 4 0.000000 -0.000001 0.000000 0.053531 0.000000 -0.000003
# 5 0.000000 0.000000 0.000000 0.000000 0.148293 0.000010
# 6 -0.000001 -0.000005 0.000000 -0.000003 0.000010 -0.264868
#
#
# Mechanical properties :
#
#
# Convention : Reuss Voigt Hill
#
# Bulk Modulus (GPa) = 34.20942 54.04727 44.12835
# Shear Modulus (GPa) = -488.81738 23.62826 -232.59456
#
# Velocity S-wave (km/s) = -15.60349 3.43055 -10.76337
# Velocity P-wave (km/s) = 17.53814 6.52773 11.51032
#
# Compressibility (1/GPa) = 0.02923171
#
# Stress axis : x y z
#
# Youngs Moduli (GPa) = 136.50566 51.78787 105.08223
#
# Poissons Ratio (x) = 0.06652 0.38986
# Poissons Ratio (y) = 0.17533 -0.16125
# Poissons Ratio (z) = 0.50644 -0.07947
#
# Static dielectric constant tensor:
#      x y z
#    x 1.722050 0.000000 0.000000 
#    y 0.000000 1.736890 0.000000 
#    z 0.000000 0.000000 1.720750 
# 
# From -- ./inp_files/5749.got.cif
#   From: 2010.05.17/outbox.cif.g08.bks.cpg/sg69_3_cif.got.tgz:5749.got - 2010.06.03 19:29:58.
