data_PCOD9513472
_publ_section_title
;
Structure prediction by ZEFSAII (Michael W. Deem and Ramdas Pophale) SiO2 
 PCOD9513472
Probable space group: F M M M
;
_chemical_formula_sum "Si O2"
_cell_formula_units_Z 112
_cell_length_a 14.641321
_cell_length_b 16.467013
_cell_length_c 21.391702
_cell_angle_alpha 90.000000
_cell_angle_beta 90.000000
_cell_angle_gamma 90.000000
_cell_volume 5157.514179
_symmetry_space_group_name_H-M "F M M M"
_symmetry_group_IT_number 69
_symmetry_cell_setting 'orthorhombic'
loop_
_space_group_symop_operation_xyz
x,y,z
-x,-y,z
x,-y,-z
-x,y,-z
-x,-y,-z
x,y,-z
-x,y,z
x,-y,z
x,1/2+y,1/2+z
-x,1/2-y,1/2+z
x,1/2-y,1/2-z
-x,1/2+y,1/2-z
-x,1/2-y,1/2-z
x,1/2+y,1/2-z
-x,1/2+y,1/2+z
x,1/2-y,1/2+z
1/2+x,y,1/2+z
1/2-x,-y,1/2+z
1/2+x,-y,1/2-z
1/2-x,y,1/2-z
1/2-x,-y,1/2-z
1/2+x,y,1/2-z
1/2-x,y,1/2+z
1/2+x,-y,1/2+z
1/2+x,1/2+y,z
1/2-x,1/2-y,z
1/2+x,1/2-y,-z
1/2-x,1/2+y,-z
1/2-x,1/2-y,-z
1/2+x,1/2+y,-z
1/2-x,1/2+y,z
1/2+x,1/2-y,z
loop_
_atom_site_type_symbol
_atom_site_label
_atom_site_fract_x
_atom_site_fract_y
_atom_site_fract_z
Si Si1 0.000000 0.339497 0.392996
Si Si2 0.345838 0.593243 0.657781
Si Si3 0.000000 0.845914 0.249893
Si Si4 0.305233 0.598450 0.930843
Si Si5 0.500000 0.348883 0.573306
O O1 0.091746 0.371165 0.424787
O O2 0.000000 0.371881 0.321916
O O3 0.000000 0.241284 0.396463
O O4 0.328200 0.500000 0.673704
O O5 0.407983 0.627249 0.713793
O O6 0.252791 0.629686 0.629070
O O7 0.413145 0.602533 0.598578
O O8 0.000000 0.750000 0.250000
O O9 0.302806 0.500000 0.928760
O O10 0.269932 0.623295 0.000000
O O11 0.500000 0.339860 0.500000
#
# Coordination Sequence:
#
# PCOD9513472 Si02
#       5
#    16  32  16  32  16
#     4  12  24  39  62  93 133 176 216 255 317 389
#     4  10  22  41  66  94 122 163 217 266 315 376
#     4  11  22  44  63  90 133 168 207 260 324 384
#     4  10  22  41  64  94 131 169 214 267 320 377
#     4  11  21  36  60  92 128 164 207 265 325 379
#
# _framework density 21.715888
#
# number of rings (size 3 to 8) (size 9 to 14) (size 15 to 20)
#    0.000    1.429    2.857    4.286    0.000    8.000 
#    0.000    7.143    0.000    0.000    0.000    0.000 
#    0.000    0.000    0.000    0.000    0.000    0.000 
#
# Total GULP energy -156261.857631 kJ/mol
# GULP energy per Si atom -5580.780630 kJ/mol
# Density = 2.166646 g / cm^3
# Si number density = 21.715888 Si / 1000 Ang^3
#
#
#
# Elastic Constant Matrix: (Units=GPa)
#
#
# Indices 1 2 3 4 5 6 
#
# 1 65.0380 -9.3358 0.2835 0.0000 0.0000 0.0000
# 2 -9.3358 30.0157 6.2050 0.0000 0.0000 0.0000
# 3 0.2835 6.2050 126.7283 0.0000 0.0000 0.0000
# 4 0.0000 0.0000 0.0000 32.3809 0.0000 0.0000
# 5 0.0000 0.0000 0.0000 0.0000 38.2816 0.0000
# 6 0.0000 0.0000 0.0000 0.0000 0.0000 71.3297
#
#
#
# Elastic Compliance Matrix: (Units=1/GPa)
#
#
# Indices 1 2 3 4 5 6 
#
# 1 0.016104 0.005068 -0.000284 0.000000 0.000000 0.000000
# 2 0.005068 0.035251 -0.001737 0.000000 0.000000 0.000000
# 3 -0.000284 -0.001737 0.007977 0.000000 0.000000 0.000000
# 4 0.000000 0.000000 0.000000 0.030882 0.000000 0.000000
# 5 0.000000 0.000000 0.000000 0.000000 0.026122 0.000000
# 6 0.000000 0.000000 0.000000 0.000000 0.000000 0.014019
#
#
# Mechanical properties :
#
#
# Convention : Reuss Voigt Hill
#
# Bulk Modulus (GPa) = 15.28478 24.00971 19.64724
# Shear Modulus (GPa) = 34.22969 43.37372 38.80170
#
# Velocity S-wave (km/s) = 3.97451 4.47399 4.23163
# Velocity P-wave (km/s) = 5.30246 6.14566 5.73957
#
# Compressibility (1/GPa) = 0.06542456
#
# Stress axis : x y z
#
# Youngs Moduli (GPa) = 62.09521 28.36777 125.36675
#
# Poissons Ratio (x) = -0.14376 0.03562
# Poissons Ratio (y) = -0.31468 0.21780
# Poissons Ratio (z) = 0.01764 0.04928
#
# Static dielectric constant tensor:
#      x y z
#    x 1.824010 0.000000 0.000000 
#    y 0.000000 1.763830 0.000000 
#    z 0.000000 0.000000 1.818940 
# 
# From -- ./inp_files/35608.got.cif
#   From: 2010.05.17/outbox.cif.g08.bks.cpg/sg69_18_cif.got.tgz:35608.got - 2010.06.03 19:29:58.
