data_PCOD9513914
_publ_section_title
;
Structure prediction by ZEFSAII (Michael W. Deem and Ramdas Pophale) SiO2 
 PCOD9513914
Probable space group: F M M M
;
_chemical_formula_sum "Si O2"
_cell_formula_units_Z 144
_cell_length_a 14.502144
_cell_length_b 26.927961
_cell_length_c 20.222228
_cell_angle_alpha 90.000000
_cell_angle_beta 90.000000
_cell_angle_gamma 90.000000
_cell_volume 7897.046321
_symmetry_space_group_name_H-M "F M M M"
_symmetry_group_IT_number 69
_symmetry_cell_setting 'orthorhombic'
loop_
_space_group_symop_operation_xyz
x,y,z
-x,-y,z
x,-y,-z
-x,y,-z
-x,-y,-z
x,y,-z
-x,y,z
x,-y,z
x,1/2+y,1/2+z
-x,1/2-y,1/2+z
x,1/2-y,1/2-z
-x,1/2+y,1/2-z
-x,1/2-y,1/2-z
x,1/2+y,1/2-z
-x,1/2+y,1/2+z
x,1/2-y,1/2+z
1/2+x,y,1/2+z
1/2-x,-y,1/2+z
1/2+x,-y,1/2-z
1/2-x,y,1/2-z
1/2-x,-y,1/2-z
1/2+x,y,1/2-z
1/2-x,y,1/2+z
1/2+x,-y,1/2+z
1/2+x,1/2+y,z
1/2-x,1/2-y,z
1/2+x,1/2-y,-z
1/2-x,1/2+y,-z
1/2-x,1/2-y,-z
1/2+x,1/2+y,-z
1/2-x,1/2+y,z
1/2+x,1/2-y,z
loop_
_atom_site_type_symbol
_atom_site_label
_atom_site_fract_x
_atom_site_fract_y
_atom_site_fract_z
Si Si1 0.750000 0.865032 0.750000
Si Si2 0.393607 0.187593 0.000000
Si Si3 0.389041 0.441987 0.217004
Si Si4 0.752298 0.190015 0.111196
Si Si5 0.604888 0.308232 0.000000
Si Si6 0.392124 0.560089 0.929699
O O1 0.663423 0.902083 0.760581
O O2 0.757535 0.831977 0.815773
O O3 0.335181 0.173801 0.065719
O O4 0.500000 0.170753 0.000000
O O5 0.394086 0.247945 0.000000
O O6 0.500000 0.437630 0.219323
O O7 0.367321 0.500000 0.230518
O O8 0.354862 0.428408 0.142552
O O9 0.750000 0.250000 0.115610
O O10 0.840858 0.176544 0.066079
O O11 0.500000 0.324511 0.000000
O O12 0.500000 0.574181 0.929265
O O13 0.391112 0.500000 0.930773
O O14 0.350809 0.576650 0.000000
#
# Coordination Sequence:
#
# PCOD9513914 Si02
#       6
#    16  16  32  32  16  32
#     4  12  22  32  50  80 110 140 176 212 260 322
#     4   8  15  33  58  75  95 140 186 214 250 306
#     4   9  19  35  51  70 101 139 177 218 263 311
#     4   9  19  34  52  78 111 141 171 213 261 309
#     4   8  15  33  58  77  99 136 178 216 262 312
#     4   7  10  21  43  66  87 115 151 195 250 300
#
# _framework density 18.234665
#
# number of rings (size 3 to 8) (size 9 to 14) (size 15 to 20)
#    0.000    3.333    0.000    4.000    0.000    1.778 
#    4.000    0.000    0.000    6.667    0.000    0.000 
#    0.000    8.889    0.000    0.000    0.000    0.000 
#
# Total GULP energy -200451.243503 kJ/mol
# GULP energy per Si atom -5568.090097 kJ/mol
# Density = 1.819316 g / cm^3
# Si number density = 18.234665 Si / 1000 Ang^3
#
#
#
# Elastic Constant Matrix: (Units=GPa)
#
#
# Indices 1 2 3 4 5 6 
#
# 1 105.8414 28.8428 55.1907 0.0000 0.0000 0.0000
# 2 28.8428 73.2310 44.5628 0.0000 0.0000 0.0000
# 3 55.1907 44.5628 123.5735 0.0000 0.0000 0.0000
# 4 0.0000 0.0000 0.0000 5.2407 0.0000 0.0000
# 5 0.0000 0.0000 0.0000 0.0000 14.5478 0.0000
# 6 0.0000 0.0000 0.0000 0.0000 0.0000 -9.0858
#
#
#
# Elastic Compliance Matrix: (Units=1/GPa)
#
#
# Indices 1 2 3 4 5 6 
#
# 1 0.012532 -0.001960 -0.004890 0.000000 0.000000 0.000000
# 2 -0.001960 0.017801 -0.005544 0.000000 0.000000 0.000000
# 3 -0.004890 -0.005544 0.012276 0.000000 0.000000 0.000000
# 4 0.000000 0.000000 0.000000 0.190814 0.000000 0.000000
# 5 0.000000 0.000000 0.000000 0.000000 0.068739 0.000000
# 6 0.000000 0.000000 0.000000 0.000000 0.000000 -0.110062
#
#
# Mechanical properties :
#
#
# Convention : Reuss Voigt Hill
#
# Bulk Modulus (GPa) = 56.11582 62.20428 59.16005
# Shear Modulus (GPa) = 22.43880 13.74386 18.09133
#
# Velocity S-wave (km/s) = 3.51174 2.74838 3.15324
# Velocity P-wave (km/s) = 6.87634 6.65272 6.76546
#
# Compressibility (1/GPa) = 0.01782029
#
# Stress axis : x y z
#
# Youngs Moduli (GPa) = 79.79376 56.17646 81.46143
#
# Poissons Ratio (x) = 0.11011 0.39838
# Poissons Ratio (y) = 0.15640 0.45162
# Poissons Ratio (z) = 0.39022 0.31144
#
# Static dielectric constant tensor:
#      x y z
#    x 1.634450 0.000000 0.000000 
#    y 0.000000 1.660450 0.000000 
#    z 0.000000 0.000000 1.647090 
# 
# From -- ./inp_files/21803.got.cif
#   From: 2010.05.17/outbox.cif.g08.bks.cpg/sg69_11_cif.got.tgz:21803.got - 2010.06.03 19:29:58.
