data_PCOD9513257
_publ_section_title
;
Structure prediction by ZEFSAII (Michael W. Deem and Ramdas Pophale) SiO2 
 PCOD9513257
Probable space group: F M M M
;
_chemical_formula_sum "Si O2"
_cell_formula_units_Z 104
_cell_length_a 17.172486
_cell_length_b 13.606901
_cell_length_c 22.578069
_cell_angle_alpha 90.000000
_cell_angle_beta 90.000000
_cell_angle_gamma 90.000000
_cell_volume 5275.689070
_symmetry_space_group_name_H-M "F M M M"
_symmetry_group_IT_number 69
_symmetry_cell_setting 'orthorhombic'
loop_
_space_group_symop_operation_xyz
x,y,z
-x,-y,z
x,-y,-z
-x,y,-z
-x,-y,-z
x,y,-z
-x,y,z
x,-y,z
x,1/2+y,1/2+z
-x,1/2-y,1/2+z
x,1/2-y,1/2-z
-x,1/2+y,1/2-z
-x,1/2-y,1/2-z
x,1/2+y,1/2-z
-x,1/2+y,1/2+z
x,1/2-y,1/2+z
1/2+x,y,1/2+z
1/2-x,-y,1/2+z
1/2+x,-y,1/2-z
1/2-x,y,1/2-z
1/2-x,-y,1/2-z
1/2+x,y,1/2-z
1/2-x,y,1/2+z
1/2+x,-y,1/2+z
1/2+x,1/2+y,z
1/2-x,1/2-y,z
1/2+x,1/2-y,-z
1/2-x,1/2+y,-z
1/2-x,1/2-y,-z
1/2+x,1/2+y,-z
1/2-x,1/2+y,z
1/2+x,1/2-y,z
loop_
_atom_site_type_symbol
_atom_site_label
_atom_site_fract_x
_atom_site_fract_y
_atom_site_fract_z
Si Si1 0.000000 0.114990 0.618558
Si Si2 0.155262 0.885493 0.000000
Si Si3 0.500000 0.750863 0.000000
Si Si4 0.206246 0.886140 0.128533
Si Si5 0.859534 0.212440 0.682722
O O1 0.000000 0.180488 0.558769
O O2 0.927195 0.143124 0.659766
O O3 0.000000 0.000000 0.603331
O O4 0.209065 0.873136 0.057920
O O5 0.079170 0.815633 0.000000
O O6 0.128434 0.000000 0.000000
O O7 0.136573 0.814979 0.147221
O O8 0.280755 0.844639 0.163618
O O9 0.194523 0.000000 0.142275
O O10 0.859965 0.250000 0.750000
#
# Coordination Sequence:
#
# PCOD9513257 Si02
#       5
#    16  16   8  32  32
#     4  12  26  44  66  96 130 174 220 270 330 390
#     4  10  21  39  68 100 133 170 213 269 335 388
#     4  12  22  44  66  98 134 172 214 272 330 390
#     4  10  21  39  66  97 127 167 213 266 327 385
#     4  11  24  42  64  92 132 171 215 268 321 386
#
# _framework density 19.713065
#
# number of rings (size 3 to 8) (size 9 to 14) (size 15 to 20)
#    0.000    1.231    3.077    3.692    0.000    7.385 
#    0.000    3.846    0.000    0.000    0.000    0.000 
#    0.000    0.000    0.000    0.000    0.000    0.000 
#
# Total GULP energy -144995.429936 kJ/mol
# GULP energy per Si atom -5576.747305 kJ/mol
# Density = 1.966820 g / cm^3
# Si number density = 19.713065 Si / 1000 Ang^3
#
#
#
# Elastic Constant Matrix: (Units=GPa)
#
#
# Indices 1 2 3 4 5 6 
#
# 1 64.9487 26.1003 9.4202 0.0000 0.0000 0.0000
# 2 26.1003 147.4181 45.9012 0.0000 0.0000 0.0000
# 3 9.4202 45.9012 139.3815 0.0000 0.0000 0.0000
# 4 0.0000 0.0000 0.0000 18.5688 0.0000 0.0000
# 5 0.0000 0.0000 0.0000 0.0000 22.2817 0.0000
# 6 0.0000 0.0000 0.0000 0.0000 0.0000 29.2837
#
#
#
# Elastic Compliance Matrix: (Units=1/GPa)
#
#
# Indices 1 2 3 4 5 6 
#
# 1 0.016580 -0.002882 -0.000171 0.000000 0.000000 0.000000
# 2 -0.002882 0.008059 -0.002459 0.000000 0.000000 0.000000
# 3 -0.000171 -0.002459 0.007996 0.000000 0.000000 0.000000
# 4 0.000000 0.000000 0.000000 0.053854 0.000000 0.000000
# 5 0.000000 0.000000 0.000000 0.000000 0.044880 0.000000
# 6 0.000000 0.000000 0.000000 0.000000 0.000000 0.034149
#
#
# Mechanical properties :
#
#
# Convention : Reuss Voigt Hill
#
# Bulk Modulus (GPa) = 46.27572 57.17687 51.72629
# Shear Modulus (GPa) = 27.21137 32.04859 29.62998
#
# Velocity S-wave (km/s) = 3.71937 4.03644 3.88114
# Velocity P-wave (km/s) = 6.47847 7.12680 6.81035
#
# Compressibility (1/GPa) = 0.02160960
#
# Stress axis : x y z
#
# Youngs Moduli (GPa) = 60.31430 124.07773 125.06156
#
# Poissons Ratio (x) = 0.35760 0.02144
# Poissons Ratio (y) = 0.17383 0.30757
# Poissons Ratio (z) = 0.01034 0.30515
#
# Static dielectric constant tensor:
#      x y z
#    x 1.750770 0.000000 0.000000 
#    y 0.000000 1.694270 0.000000 
#    z 0.000000 0.000000 1.741320 
# 
# From -- ./inp_files/36361.got.cif
#   From: 2010.05.17/outbox.cif.g08.bks.cpg/sg69_19_cif.got.tgz:36361.got - 2010.06.03 19:29:58.
