data_PCOD9513781
_publ_section_title
;
Structure prediction by ZEFSAII (Michael W. Deem and Ramdas Pophale) SiO2 
 PCOD9513781
Probable space group: F M M M
;
_chemical_formula_sum "Si O2"
_cell_formula_units_Z 160
_cell_length_a 30.512975
_cell_length_b 18.777652
_cell_length_c 14.155270
_cell_angle_alpha 90.000000
_cell_angle_beta 90.000000
_cell_angle_gamma 90.000000
_cell_volume 8110.432178
_symmetry_space_group_name_H-M "F M M M"
_symmetry_group_IT_number 69
_symmetry_cell_setting 'orthorhombic'
loop_
_space_group_symop_operation_xyz
x,y,z
-x,-y,z
x,-y,-z
-x,y,-z
-x,-y,-z
x,y,-z
-x,y,z
x,-y,z
x,1/2+y,1/2+z
-x,1/2-y,1/2+z
x,1/2-y,1/2-z
-x,1/2+y,1/2-z
-x,1/2-y,1/2-z
x,1/2+y,1/2-z
-x,1/2+y,1/2+z
x,1/2-y,1/2+z
1/2+x,y,1/2+z
1/2-x,-y,1/2+z
1/2+x,-y,1/2-z
1/2-x,y,1/2-z
1/2-x,-y,1/2-z
1/2+x,y,1/2-z
1/2-x,y,1/2+z
1/2+x,-y,1/2+z
1/2+x,1/2+y,z
1/2-x,1/2-y,z
1/2+x,1/2-y,-z
1/2-x,1/2+y,-z
1/2-x,1/2-y,-z
1/2+x,1/2+y,-z
1/2-x,1/2+y,z
1/2+x,1/2-y,z
loop_
_atom_site_type_symbol
_atom_site_label
_atom_site_fract_x
_atom_site_fract_y
_atom_site_fract_z
Si Si1 0.745324 0.351077 0.858563
Si Si2 0.702685 0.000000 0.388369
Si Si3 0.574552 0.782217 0.106198
Si Si4 0.050796 0.134789 0.794216
Si Si5 0.101379 0.500000 0.383852
Si Si6 0.324249 0.737072 0.363064
O O1 0.750000 0.330006 0.750000
O O2 0.730419 0.431183 0.862756
O O3 0.705431 0.303454 0.896843
O O4 0.793525 0.329473 0.892304
O O5 0.652664 0.000000 0.353270
O O6 0.698089 0.000000 0.500000
O O7 0.564504 0.840283 0.188057
O O8 0.555828 0.706654 0.143191
O O9 0.626886 0.771019 0.101930
O O10 0.558759 0.799133 0.000000
O O11 0.079084 0.070917 0.839792
O O12 0.000000 0.113395 0.793033
O O13 0.097844 0.500000 0.500000
O O14 0.329781 0.750000 0.250000
#
# Coordination Sequence:
#
# PCOD9513781 Si02
#       6
#    32  16  32  32  16  32
#     4   9  19  33  56  83 113 159 201 242 294 343
#     4  11  23  36  53  84 120 154 197 247 297 356
#     4  11  22  38  64  95 125 161 204 254 307 366
#     4  11  24  42  65  92 124 159 200 258 318 375
#     4  11  25  43  67  94 123 160 203 256 314 372
#     4   9  17  35  58  84 116 155 204 247 291 352
#
# _framework density 19.727678999999998
#
# number of rings (size 3 to 8) (size 9 to 14) (size 15 to 20)
#    0.000    1.800    2.000    4.800    2.800    6.400 
#    0.000    2.500    0.000    1.200    0.000    0.000 
#    0.000    0.000    0.000    0.000    0.000    0.000 
#
# Total GULP energy -223032.638228 kJ/mol
# GULP energy per Si atom -5575.815956 kJ/mol
# Density = 1.968278 g / cm^3
# Si number density = 19.727679 Si / 1000 Ang^3
#
#
#
# Elastic Constant Matrix: (Units=GPa)
#
#
# Indices 1 2 3 4 5 6 
#
# 1 111.2519 43.8714 11.6190 0.0000 0.0000 0.0000
# 2 43.8714 133.7693 32.6191 0.0000 0.0000 0.0000
# 3 11.6190 32.6191 145.4275 0.0000 0.0000 0.0000
# 4 0.0000 0.0000 0.0000 52.1865 0.0000 0.0000
# 5 0.0000 0.0000 0.0000 0.0000 -51.1093 0.0000
# 6 0.0000 0.0000 0.0000 0.0000 0.0000 30.3384
#
#
#
# Elastic Compliance Matrix: (Units=1/GPa)
#
#
# Indices 1 2 3 4 5 6 
#
# 1 0.010324 -0.003369 -0.000069 0.000000 0.000000 0.000000
# 2 -0.003369 0.009008 -0.001751 0.000000 0.000000 0.000000
# 3 -0.000069 -0.001751 0.007275 0.000000 0.000000 0.000000
# 4 0.000000 0.000000 0.000000 0.019162 0.000000 0.000000
# 5 0.000000 0.000000 0.000000 0.000000 -0.019566 0.000000
# 6 0.000000 0.000000 0.000000 0.000000 0.000000 0.032962
#
#
# Mechanical properties :
#
#
# Convention : Reuss Voigt Hill
#
# Bulk Modulus (GPa) = 61.62378 62.96308 62.29343
# Shear Modulus (GPa) = 66.70892 26.43906 46.57399
#
# Velocity S-wave (km/s) = 5.82137 3.66485 4.86412
# Velocity P-wave (km/s) = 8.74582 7.06354 7.94931
#
# Compressibility (1/GPa) = 0.01622750
#
# Stress axis : x y z
#
# Youngs Moduli (GPa) = 96.85751 111.01808 137.46464
#
# Poissons Ratio (x) = 0.37404 0.00951
# Poissons Ratio (y) = 0.32633 0.24073
# Poissons Ratio (z) = 0.00670 0.19441
#
# Static dielectric constant tensor:
#      x y z
#    x 1.711460 0.000000 0.000000 
#    y 0.000000 1.656880 0.000000 
#    z 0.000000 0.000000 1.727450 
# 
# From -- ./inp_files/19569.got.cif
#   From: 2010.05.17/outbox.cif.g08.bks.cpg/sg69_10_cif.got.tgz:19569.got - 2010.06.03 19:29:58.
