data_PCOD9513066
_publ_section_title
;
Structure prediction by ZEFSAII (Michael W. Deem and Ramdas Pophale) SiO2 
 PCOD9513066
Probable space group: F M M M
;
_chemical_formula_sum "Si O2"
_cell_formula_units_Z 132
_cell_length_a 27.116665
_cell_length_b 10.137373
_cell_length_c 28.525104
_cell_angle_alpha 90.000000
_cell_angle_beta 90.000000
_cell_angle_gamma 90.000000
_cell_volume 7841.315690
_symmetry_space_group_name_H-M "F M M M"
_symmetry_group_IT_number 69
_symmetry_cell_setting 'orthorhombic'
loop_
_space_group_symop_operation_xyz
x,y,z
-x,-y,z
x,-y,-z
-x,y,-z
-x,-y,-z
x,y,-z
-x,y,z
x,-y,z
x,1/2+y,1/2+z
-x,1/2-y,1/2+z
x,1/2-y,1/2-z
-x,1/2+y,1/2-z
-x,1/2-y,1/2-z
x,1/2+y,1/2-z
-x,1/2+y,1/2+z
x,1/2-y,1/2+z
1/2+x,y,1/2+z
1/2-x,-y,1/2+z
1/2+x,-y,1/2-z
1/2-x,y,1/2-z
1/2-x,-y,1/2-z
1/2+x,y,1/2-z
1/2-x,y,1/2+z
1/2+x,-y,1/2+z
1/2+x,1/2+y,z
1/2-x,1/2-y,z
1/2+x,1/2-y,-z
1/2-x,1/2+y,-z
1/2-x,1/2-y,-z
1/2+x,1/2+y,-z
1/2-x,1/2+y,z
1/2+x,1/2-y,z
loop_
_atom_site_type_symbol
_atom_site_label
_atom_site_fract_x
_atom_site_fract_y
_atom_site_fract_z
Si Si1 0.558233 0.000000 0.552232
Si Si2 0.393267 0.275588 0.112815
Si Si3 0.297884 0.342328 0.945427
Si Si4 0.556769 0.652028 0.793235
Si Si5 0.445048 0.000000 0.096726
Si Si6 0.000000 0.500000 0.000000
O O1 0.574724 0.871600 0.579884
O O2 0.500000 0.000000 0.549128
O O3 0.579683 0.000000 0.500000
O O4 0.338879 0.295598 0.091788
O O5 0.404367 0.322055 0.165549
O O6 0.414187 0.128934 0.108894
O O7 0.288489 0.500000 0.939126
O O8 0.250000 0.250000 0.940023
O O9 0.314629 0.325608 0.000000
O O10 0.500000 0.671129 0.811162
O O11 0.560392 0.500000 0.777960
O O12 0.563827 0.750000 0.750000
O O13 0.500000 0.000000 0.120114
O O14 0.457988 0.000000 0.041652
#
# Coordination Sequence:
#
# PCOD9513066 Si02
#       6
#    16  32  32  32  16   4
#     4  11  22  32  54  83 118 150 188 232 282 349
#     4  12  22  38  58  83 113 158 198 239 291 351
#     4  10  22  39  59  85 114 149 196 247 296 351
#     4  10  21  37  58  84 117 151 193 242 292 350
#     4  10  24  34  52  79 122 156 193 227 280 351
#     4   8  24  40  40  82 128 160 188 230 284 344
#
# _framework density 16.833909999999999
#
# number of rings (size 3 to 8) (size 9 to 14) (size 15 to 20)
#    0.364    1.091    2.424    2.909    6.788    0.000 
#    0.000    0.000    0.000    0.727    0.000    3.394 
#    0.000    0.000    0.000    0.000    0.000    0.000 
#
# Total GULP energy -183807.169759 kJ/mol
# GULP energy per Si atom -5569.914235 kJ/mol
# Density = 1.679560 g / cm^3
# Si number density = 16.833910 Si / 1000 Ang^3
#
#
#
# Elastic Constant Matrix: (Units=GPa)
#
#
# Indices 1 2 3 4 5 6 
#
# 1 108.4083 52.9343 49.9418 0.0000 0.0000 0.0000
# 2 52.9343 153.9184 46.8873 0.0000 0.0000 0.0000
# 3 49.9418 46.8873 93.4165 0.0000 0.0000 0.0000
# 4 0.0000 0.0000 0.0000 11.8173 0.0000 0.0000
# 5 0.0000 0.0000 0.0000 0.0000 25.6835 0.0000
# 6 0.0000 0.0000 0.0000 0.0000 0.0000 29.4607
#
#
#
# Elastic Compliance Matrix: (Units=1/GPa)
#
#
# Indices 1 2 3 4 5 6 
#
# 1 0.013201 -0.002821 -0.005641 0.000000 0.000000 0.000000
# 2 -0.002821 0.008273 -0.002644 0.000000 0.000000 0.000000
# 3 -0.005641 -0.002644 0.015048 0.000000 0.000000 0.000000
# 4 0.000000 0.000000 0.000000 0.084622 0.000000 0.000000
# 5 0.000000 0.000000 0.000000 0.000000 0.038935 0.000000
# 6 0.000000 0.000000 0.000000 0.000000 0.000000 0.033944
#
#
# Mechanical properties :
#
#
# Convention : Reuss Voigt Hill
#
# Bulk Modulus (GPa) = 69.89026 72.80776 71.34901
# Shear Modulus (GPa) = 22.62402 27.12429 24.87415
#
# Velocity S-wave (km/s) = 3.66998 4.01844 3.84815
# Velocity P-wave (km/s) = 7.71790 8.05450 7.88800
#
# Compressibility (1/GPa) = 0.01430815
#
# Stress axis : x y z
#
# Youngs Moduli (GPa) = 75.75243 120.88025 66.45581
#
# Poissons Ratio (x) = 0.34106 0.37489
# Poissons Ratio (y) = 0.21373 0.17569
# Poissons Ratio (z) = 0.42734 0.31958
#
# Static dielectric constant tensor:
#      x y z
#    x 1.579480 0.000000 0.000000 
#    y 0.000000 1.579010 0.000000 
#    z 0.000000 0.000000 1.557460 
# 
# From -- ./inp_files/47183.got.cif
#   From: 2010.05.17/outbox.cif.g08.bks.cpg/sg69_24_cif.got.tgz:47183.got - 2010.06.03 19:29:58.
