data_PCOD9513435
_publ_section_title
;
Structure prediction by ZEFSAII (Michael W. Deem and Ramdas Pophale) SiO2 
 PCOD9513435
Probable space group: F M M M
;
_chemical_formula_sum "Si O2"
_cell_formula_units_Z 136
_cell_length_a 17.482621
_cell_length_b 19.028602
_cell_length_c 21.385544
_cell_angle_alpha 90.000000
_cell_angle_beta 90.000000
_cell_angle_gamma 90.000000
_cell_volume 7114.325435
_symmetry_space_group_name_H-M "F M M M"
_symmetry_group_IT_number 69
_symmetry_cell_setting 'orthorhombic'
loop_
_space_group_symop_operation_xyz
x,y,z
-x,-y,z
x,-y,-z
-x,y,-z
-x,-y,-z
x,y,-z
-x,y,z
x,-y,z
x,1/2+y,1/2+z
-x,1/2-y,1/2+z
x,1/2-y,1/2-z
-x,1/2+y,1/2-z
-x,1/2-y,1/2-z
x,1/2+y,1/2-z
-x,1/2+y,1/2+z
x,1/2-y,1/2+z
1/2+x,y,1/2+z
1/2-x,-y,1/2+z
1/2+x,-y,1/2-z
1/2-x,y,1/2-z
1/2-x,-y,1/2-z
1/2+x,y,1/2-z
1/2-x,y,1/2+z
1/2+x,-y,1/2+z
1/2+x,1/2+y,z
1/2-x,1/2-y,z
1/2+x,1/2-y,-z
1/2-x,1/2+y,-z
1/2-x,1/2-y,-z
1/2+x,1/2+y,-z
1/2-x,1/2+y,z
1/2+x,1/2-y,z
loop_
_atom_site_type_symbol
_atom_site_label
_atom_site_fract_x
_atom_site_fract_y
_atom_site_fract_z
Si Si1 0.189383 0.627728 0.426946
Si Si2 0.333440 0.861947 0.162303
Si Si3 0.586339 0.262949 0.427107
Si Si4 0.409145 0.500000 0.121129
Si Si5 0.841888 0.500000 0.239679
Si Si6 0.250000 0.250000 0.250000
O O1 0.210941 0.625051 0.500000
O O2 0.262012 0.618352 0.382378
O O3 0.148801 0.702551 0.414841
O O4 0.128276 0.567762 0.411332
O O5 0.396810 0.827402 0.118201
O O6 0.359497 0.929578 0.200997
O O7 0.302184 0.801634 0.208649
O O8 0.593961 0.283096 0.500000
O O9 0.500000 0.235807 0.417970
O O10 0.500000 0.500000 0.115601
O O11 0.383344 0.500000 0.193637
O O12 0.750000 0.500000 0.250000
#
# Coordination Sequence:
#
# PCOD9513435 Si02
#       6
#    32  32  32  16  16   8
#     4  11  21  38  64  92 123 162 202 252 312 370
#     4  12  22  40  64  91 120 162 213 251 297 366
#     4  10  22  40  62  91 125 158 202 262 313 356
#     4  12  25  41  60  92 129 163 201 247 310 374
#     4  12  24  42  62  84 127 169 202 247 297 352
#     4  12  20  34  64  88 116 162 202 246 296 346
#
# _framework density 19.11636
#
# number of rings (size 3 to 8) (size 9 to 14) (size 15 to 20)
#    0.000    0.706    5.882    1.765    0.000    4.706 
#    0.000    2.353    0.000    1.412    0.000    0.000 
#    0.000    0.000    0.000    0.000    0.000    0.000 
#
# Total GULP energy -190139.395958 kJ/mol
# GULP energy per Si atom -5592.335175 kJ/mol
# Density = 1.907285 g / cm^3
# Si number density = 19.116360 Si / 1000 Ang^3
#
#
#
# Elastic Constant Matrix: (Units=GPa)
#
#
# Indices 1 2 3 4 5 6 
#
# 1 35.6378 -17.2889 -1.8515 0.0000 0.0000 0.0000
# 2 -17.2889 88.6154 26.9342 0.0000 0.0000 0.0000
# 3 -1.8515 26.9342 56.3580 0.0000 0.0000 0.0000
# 4 0.0000 0.0000 0.0000 42.4274 0.0000 0.0000
# 5 0.0000 0.0000 0.0000 0.0000 30.3673 0.0000
# 6 0.0000 0.0000 0.0000 0.0000 0.0000 12.1511
#
#
#
# Elastic Compliance Matrix: (Units=1/GPa)
#
#
# Indices 1 2 3 4 5 6 
#
# 1 0.031226 0.006763 -0.002206 0.000000 0.000000 0.000000
# 2 0.006763 0.014667 -0.006787 0.000000 0.000000 0.000000
# 3 -0.002206 -0.006787 0.020915 0.000000 0.000000 0.000000
# 4 0.000000 0.000000 0.000000 0.023570 0.000000 0.000000
# 5 0.000000 0.000000 0.000000 0.000000 0.032930 0.000000
# 6 0.000000 0.000000 0.000000 0.000000 0.000000 0.082297
#
#
# Mechanical properties :
#
#
# Convention : Reuss Voigt Hill
#
# Bulk Modulus (GPa) = 16.03929 21.79988 18.91959
# Shear Modulus (GPa) = 21.65917 28.51032 25.08474
#
# Velocity S-wave (km/s) = 3.36968 3.86607 3.62638
# Velocity P-wave (km/s) = 4.85266 5.59975 5.23953
#
# Compressibility (1/GPa) = 0.06234688
#
# Stress axis : x y z
#
# Youngs Moduli (GPa) = 32.02428 68.17958 47.81254
#
# Poissons Ratio (x) = -0.46108 0.10548
# Poissons Ratio (y) = -0.21657 0.32452
# Poissons Ratio (z) = 0.07065 0.46276
#
# Static dielectric constant tensor:
#      x y z
#    x 1.645910 0.000000 0.000000 
#    y 0.000000 1.659940 0.000000 
#    z 0.000000 0.000000 1.656330 
# 
# From -- ./inp_files/22620.got.cif
#   From: 2010.05.17/outbox.cif.g08.bks.cpg/sg69_12_cif.got.tgz:22620.got - 2010.06.03 19:29:58.
