data_PCOD9513094
_publ_section_title
;
Structure prediction by ZEFSAII (Michael W. Deem and Ramdas Pophale) SiO2 
 PCOD9513094
Probable space group: F M M M
;
_chemical_formula_sum "Si O2"
_cell_formula_units_Z 128
_cell_length_a 21.501879
_cell_length_b 14.845771
_cell_length_c 19.765202
_cell_angle_alpha 90.000000
_cell_angle_beta 90.000000
_cell_angle_gamma 90.000000
_cell_volume 6309.289102
_symmetry_space_group_name_H-M "F M M M"
_symmetry_group_IT_number 69
_symmetry_cell_setting 'orthorhombic'
loop_
_space_group_symop_operation_xyz
x,y,z
-x,-y,z
x,-y,-z
-x,y,-z
-x,-y,-z
x,y,-z
-x,y,z
x,-y,z
x,1/2+y,1/2+z
-x,1/2-y,1/2+z
x,1/2-y,1/2-z
-x,1/2+y,1/2-z
-x,1/2-y,1/2-z
x,1/2+y,1/2-z
-x,1/2+y,1/2+z
x,1/2-y,1/2+z
1/2+x,y,1/2+z
1/2-x,-y,1/2+z
1/2+x,-y,1/2-z
1/2-x,y,1/2-z
1/2-x,-y,1/2-z
1/2+x,y,1/2-z
1/2-x,y,1/2+z
1/2+x,-y,1/2+z
1/2+x,1/2+y,z
1/2-x,1/2-y,z
1/2+x,1/2-y,-z
1/2-x,1/2+y,-z
1/2-x,1/2-y,-z
1/2+x,1/2+y,-z
1/2-x,1/2+y,z
1/2+x,1/2-y,z
loop_
_atom_site_type_symbol
_atom_site_label
_atom_site_fract_x
_atom_site_fract_y
_atom_site_fract_z
Si Si1 0.925839 0.274299 0.074086
Si Si2 0.656459 0.605877 0.924128
Si Si3 0.071788 0.603390 0.799616
Si Si4 0.311036 0.150092 0.718293
O O1 0.902849 0.171795 0.079163
O O2 0.906445 0.332763 0.138802
O O3 0.000000 0.277657 0.074272
O O4 0.904020 0.308441 0.000000
O O5 0.643111 0.500000 0.914406
O O6 0.696829 0.642171 0.861989
O O7 0.683179 0.615985 0.000000
O O8 0.070786 0.500000 0.823131
O O9 0.122154 0.610684 0.740027
O O10 0.000000 0.627148 0.780273
O O11 0.312914 0.250000 0.750000
O O12 0.250000 0.105208 0.750000
#
# Coordination Sequence:
#
# PCOD9513094 Si02
#       4
#    32  32  32  32
#     4   9  18  34  56  85 123 162 200 248 302 357
#     4  10  21  38  60  86 119 159 201 247 301 363
#     4  10  21  37  60  89 119 158 205 251 303 361
#     4  11  23  41  64  92 120 160 205 251 308 359
#
# _framework density 20.287547
#
# number of rings (size 3 to 8) (size 9 to 14) (size 15 to 20)
#    0.000    2.000    2.500    0.750    0.000    4.500 
#    0.000    8.750    0.000    0.000    0.000    0.000 
#    0.000    0.000    0.000    0.000    0.000    0.000 
#
# Total GULP energy -178274.775024 kJ/mol
# GULP energy per Si atom -5571.086720 kJ/mol
# Density = 2.024137 g / cm^3
# Si number density = 20.287547 Si / 1000 Ang^3
#
#
#
# Elastic Constant Matrix: (Units=GPa)
#
#
# Indices 1 2 3 4 5 6 
#
# 1 64.4385 7.6625 39.9234 0.0000 0.0000 0.0000
# 2 7.6625 93.0268 41.5266 0.0000 0.0000 0.0000
# 3 39.9234 41.5266 156.4432 0.0000 0.0000 0.0000
# 4 0.0000 0.0000 0.0000 26.9635 0.0000 0.0000
# 5 0.0000 0.0000 0.0000 0.0000 14.6648 0.0000
# 6 0.0000 0.0000 0.0000 0.0000 0.0000 -106.3624
#
#
#
# Elastic Compliance Matrix: (Units=1/GPa)
#
#
# Indices 1 2 3 4 5 6 
#
# 1 0.018469 0.000661 -0.004889 0.000000 0.000000 0.000000
# 2 0.000661 0.012218 -0.003412 0.000000 0.000000 0.000000
# 3 -0.004889 -0.003412 0.008545 0.000000 0.000000 0.000000
# 4 0.000000 0.000000 0.000000 0.037087 0.000000 0.000000
# 5 0.000000 0.000000 0.000000 0.000000 0.068191 0.000000
# 6 0.000000 0.000000 0.000000 0.000000 0.000000 -0.009402
#
#
# Mechanical properties :
#
#
# Convention : Reuss Voigt Hill
#
# Bulk Modulus (GPa) = 41.74789 54.68150 48.21470
# Shear Modulus (GPa) = 31.57129 2.03958 16.80543
#
# Velocity S-wave (km/s) = 3.94914 1.00375 2.88125
# Velocity P-wave (km/s) = 6.43561 5.32495 5.90644
#
# Compressibility (1/GPa) = 0.02395331
#
# Stress axis : x y z
#
# Youngs Moduli (GPa) = 54.14529 81.84512 117.02345
#
# Poissons Ratio (x) = -0.05410 0.57208
# Poissons Ratio (y) = -0.03579 0.39927
# Poissons Ratio (z) = 0.26469 0.27925
#
# Static dielectric constant tensor:
#      x y z
#    x 1.719300 0.000000 0.000000 
#    y 0.000000 1.733870 0.000000 
#    z 0.000000 0.000000 1.786660 
# 
# From -- ./inp_files/25517.got.cif
#   From: 2010.05.17/outbox.cif.g08.bks.cpg/sg69_13_cif.got.tgz:25517.got - 2010.06.03 19:29:58.
