data_PCOD9513296
_publ_section_title
;
Structure prediction by ZEFSAII (Michael W. Deem and Ramdas Pophale) SiO2 
 PCOD9513296
Probable space group: F M M M
;
_chemical_formula_sum "Si O2"
_cell_formula_units_Z 192
_cell_length_a 16.058362
_cell_length_b 26.572828
_cell_length_c 22.979888
_cell_angle_alpha 90.000000
_cell_angle_beta 90.000000
_cell_angle_gamma 90.000000
_cell_volume 9805.887988
_symmetry_space_group_name_H-M "F M M M"
_symmetry_group_IT_number 69
_symmetry_cell_setting 'orthorhombic'
loop_
_space_group_symop_operation_xyz
x,y,z
-x,-y,z
x,-y,-z
-x,y,-z
-x,-y,-z
x,y,-z
-x,y,z
x,-y,z
x,1/2+y,1/2+z
-x,1/2-y,1/2+z
x,1/2-y,1/2-z
-x,1/2+y,1/2-z
-x,1/2-y,1/2-z
x,1/2+y,1/2-z
-x,1/2+y,1/2+z
x,1/2-y,1/2+z
1/2+x,y,1/2+z
1/2-x,-y,1/2+z
1/2+x,-y,1/2-z
1/2-x,y,1/2-z
1/2-x,-y,1/2-z
1/2+x,y,1/2-z
1/2-x,y,1/2+z
1/2+x,-y,1/2+z
1/2+x,1/2+y,z
1/2-x,1/2-y,z
1/2+x,1/2-y,-z
1/2-x,1/2+y,-z
1/2-x,1/2-y,-z
1/2+x,1/2+y,-z
1/2-x,1/2+y,z
1/2+x,1/2-y,z
loop_
_atom_site_type_symbol
_atom_site_label
_atom_site_fract_x
_atom_site_fract_y
_atom_site_fract_z
Si Si1 0.815192 0.940720 0.878643
Si Si2 0.779223 0.806876 0.934802
Si Si3 0.655064 0.375716 0.379919
Si Si4 0.408320 0.854675 0.655516
Si Si5 0.904389 0.198609 0.722329
Si Si6 0.000000 0.939278 0.570543
Si Si7 0.096588 0.560645 0.500000
O O1 0.727912 0.914973 0.863352
O O2 0.884615 0.913141 0.841014
O O3 0.811300 0.000000 0.873510
O O4 0.848434 0.926847 0.943571
O O5 0.750000 0.750000 0.924005
O O6 0.698070 0.842100 0.929781
O O7 0.842708 0.825521 0.885210
O O8 0.815101 0.809952 0.000000
O O9 0.634926 0.334985 0.329062
O O10 0.578623 0.409185 0.402561
O O11 0.500000 0.847520 0.630525
O O12 0.406775 0.835264 0.720611
O O13 0.866064 0.250000 0.750000
O O14 0.000000 0.211264 0.703690
O O15 0.000000 0.935125 0.500000
O O16 0.000000 0.000000 0.583583
O O17 0.089489 0.500000 0.500000
O O18 0.000000 0.579571 0.500000
#
# Coordination Sequence:
#
# PCOD9513296 Si02
#       7
#    32  32  32  32  32  16  16
#     4  10  22  37  57  87 124 163 206 262 319 382
#     4  10  22  39  58  89 130 163 199 259 332 403
#     4  11  22  40  64  91 127 167 219 271 324 386
#     4  10  22  38  62  89 119 157 213 263 321 386
#     4  10  21  41  66  91 119 160 218 274 320 381
#     4  11  24  40  63  96 134 180 228 269 324 405
#     4   9  18  34  58  85 116 163 219 264 316 386
#
# _framework density 19.580072999999999
#
# number of rings (size 3 to 8) (size 9 to 14) (size 15 to 20)
#    0.000    1.833    0.833    2.500    5.833    4.000 
#    1.500    6.667    0.000    0.000    0.000    0.000 
#    0.000    0.000    0.000    0.000    0.000    0.000 
#
# Total GULP energy -267489.641943 kJ/mol
# GULP energy per Si atom -5572.700874 kJ/mol
# Density = 1.953551 g / cm^3
# Si number density = 19.580073 Si / 1000 Ang^3
#
#
#
# Elastic Constant Matrix: (Units=GPa)
#
#
# Indices 1 2 3 4 5 6 
#
# 1 104.6281 36.8539 43.0803 0.0000 0.0000 0.0000
# 2 36.8539 132.8376 40.1076 0.0000 0.0000 0.0000
# 3 43.0803 40.1076 72.8461 0.0000 0.0000 0.0000
# 4 0.0000 0.0000 0.0000 36.6218 0.0000 0.0000
# 5 0.0000 0.0000 0.0000 0.0000 28.8230 0.0000
# 6 0.0000 0.0000 0.0000 0.0000 0.0000 21.6936
#
#
#
# Elastic Compliance Matrix: (Units=1/GPa)
#
#
# Indices 1 2 3 4 5 6 
#
# 1 0.012888 -0.001528 -0.006780 0.000000 0.000000 0.000000
# 2 -0.001528 0.009210 -0.004167 0.000000 0.000000 0.000000
# 3 -0.006780 -0.004167 0.020032 0.000000 0.000000 0.000000
# 4 0.000000 0.000000 0.000000 0.027306 0.000000 0.000000
# 5 0.000000 0.000000 0.000000 0.000000 0.034694 0.000000
# 6 0.000000 0.000000 0.000000 0.000000 0.000000 0.046097
#
#
# Mechanical properties :
#
#
# Convention : Reuss Voigt Hill
#
# Bulk Modulus (GPa) = 58.21308 61.15505 59.68406
# Shear Modulus (GPa) = 27.63896 30.11234 28.87565
#
# Velocity S-wave (km/s) = 3.76118 3.92587 3.84441
# Velocity P-wave (km/s) = 6.97548 7.20077 7.08902
#
# Compressibility (1/GPa) = 0.01717827
#
# Stress axis : x y z
#
# Youngs Moduli (GPa) = 77.59321 108.57550 49.92114
#
# Poissons Ratio (x) = 0.16595 0.33847
# Poissons Ratio (y) = 0.11859 0.20803
# Poissons Ratio (z) = 0.52609 0.45244
#
# Static dielectric constant tensor:
#      x y z
#    x 1.726680 0.000000 0.000000 
#    y 0.000000 1.725640 0.000000 
#    z 0.000000 0.000000 1.878640 
# 
# From -- ./inp_files/36104.got.cif
#   From: 2010.05.17/outbox.cif.g08.bks.cpg/sg69_19_cif.got.tgz:36104.got - 2010.06.03 19:29:58.
