data_PCOD9513482
_publ_section_title
;
Structure prediction by ZEFSAII (Michael W. Deem and Ramdas Pophale) SiO2 
 PCOD9513482
Probable space group: F M M M
;
_chemical_formula_sum "Si O2"
_cell_formula_units_Z 192
_cell_length_a 17.376608
_cell_length_b 31.423720
_cell_length_c 17.473535
_cell_angle_alpha 90.000000
_cell_angle_beta 90.000000
_cell_angle_gamma 90.000000
_cell_volume 9541.208239
_symmetry_space_group_name_H-M "F M M M"
_symmetry_group_IT_number 69
_symmetry_cell_setting 'orthorhombic'
loop_
_space_group_symop_operation_xyz
x,y,z
-x,-y,z
x,-y,-z
-x,y,-z
-x,-y,-z
x,y,-z
-x,y,z
x,-y,z
x,1/2+y,1/2+z
-x,1/2-y,1/2+z
x,1/2-y,1/2-z
-x,1/2+y,1/2-z
-x,1/2-y,1/2-z
x,1/2+y,1/2-z
-x,1/2+y,1/2+z
x,1/2-y,1/2+z
1/2+x,y,1/2+z
1/2-x,-y,1/2+z
1/2+x,-y,1/2-z
1/2-x,y,1/2-z
1/2-x,-y,1/2-z
1/2+x,y,1/2-z
1/2-x,y,1/2+z
1/2+x,-y,1/2+z
1/2+x,1/2+y,z
1/2-x,1/2-y,z
1/2+x,1/2-y,-z
1/2-x,1/2+y,-z
1/2-x,1/2-y,-z
1/2+x,1/2+y,-z
1/2-x,1/2+y,z
1/2+x,1/2-y,z
loop_
_atom_site_type_symbol
_atom_site_label
_atom_site_fract_x
_atom_site_fract_y
_atom_site_fract_z
Si Si1 0.342195 0.452482 0.264886
Si Si2 0.222310 0.655744 0.087921
Si Si3 0.361943 0.867063 0.314161
Si Si4 0.090497 0.912883 0.587791
Si Si5 0.647599 0.289976 0.693799
Si Si6 0.500000 0.668290 0.087036
Si Si7 0.000000 0.770646 0.590017
O O1 0.365961 0.500000 0.241713
O O2 0.250000 0.449463 0.250000
O O3 0.379486 0.413175 0.219790
O O4 0.368553 0.444095 0.352144
O O5 0.283997 0.629932 0.136982
O O6 0.141404 0.630288 0.089716
O O7 0.214127 0.700181 0.132540
O O8 0.245317 0.660900 0.000000
O O9 0.354552 0.832174 0.246758
O O10 0.426427 0.849158 0.369453
O O11 0.094146 0.928426 0.500000
O O12 0.000000 0.905868 0.606507
O O13 0.655744 0.250000 0.750000
O O14 0.572870 0.284404 0.640614
O O15 0.500000 0.719402 0.088519
O O16 0.500000 0.653992 0.000000
O O17 0.000000 0.785280 0.500000
#
# Coordination Sequence:
#
# PCOD9513482 Si02
#       7
#    32  32  32  32  32  16  16
#     4  11  23  43  68  98 134 177 227 276 331 400
#     4  11  24  42  66  97 135 177 220 271 336 406
#     4  12  23  44  68  94 134 171 229 278 332 397
#     4  10  22  41  67 100 137 175 218 275 342 407
#     4  12  23  40  64  96 131 173 213 275 325 396
#     4  11  25  45  68  92 127 176 223 279 335 390
#     4  11  24  44  64  98 137 173 226 271 332 409
#
# _framework density 20.123238000000001
#
# number of rings (size 3 to 8) (size 9 to 14) (size 15 to 20)
#    0.000    0.833    5.000    2.250    2.333    2.000 
#    0.000    1.667    0.000    2.500    0.000    0.000 
#    0.000    0.000    0.000    0.000    0.000    0.000 
#
# Total GULP energy -268190.325194 kJ/mol
# GULP energy per Si atom -5587.298442 kJ/mol
# Density = 2.007744 g / cm^3
# Si number density = 20.123238 Si / 1000 Ang^3
#
#
#
# Elastic Constant Matrix: (Units=GPa)
#
#
# Indices 1 2 3 4 5 6 
#
# 1 83.9482 16.0037 47.0321 0.0000 0.0000 0.0000
# 2 16.0037 121.5121 66.4525 0.0000 0.0000 0.0000
# 3 47.0321 66.4525 166.2830 0.0000 0.0000 0.0000
# 4 0.0000 0.0000 0.0000 19.7761 0.0000 0.0000
# 5 0.0000 0.0000 0.0000 0.0000 57.3020 0.0000
# 6 0.0000 0.0000 0.0000 0.0000 0.0000 -45.7904
#
#
#
# Elastic Compliance Matrix: (Units=1/GPa)
#
#
# Indices 1 2 3 4 5 6 
#
# 1 0.014172 0.000417 -0.004175 0.000000 0.000000 0.000000
# 2 0.000417 0.010544 -0.004331 0.000000 0.000000 0.000000
# 3 -0.004175 -0.004331 0.008926 0.000000 0.000000 0.000000
# 4 0.000000 0.000000 0.000000 0.050566 0.000000 0.000000
# 5 0.000000 0.000000 0.000000 0.000000 0.017451 0.000000
# 6 0.000000 0.000000 0.000000 0.000000 0.000000 -0.021839
#
#
# Mechanical properties :
#
#
# Convention : Reuss Voigt Hill
#
# Bulk Modulus (GPa) = 57.26847 70.08000 63.67423
# Shear Modulus (GPa) = 49.10647 22.40786 35.75716
#
# Velocity S-wave (km/s) = 4.94528 3.34058 4.21991
# Velocity P-wave (km/s) = 7.81847 7.05552 7.44677
#
# Compressibility (1/GPa) = 0.01746161
#
# Stress axis : x y z
#
# Youngs Moduli (GPa) = 70.56337 94.84502 112.03632
#
# Poissons Ratio (x) = -0.03952 0.46774
# Poissons Ratio (y) = -0.02940 0.48528
# Poissons Ratio (z) = 0.29459 0.41081
#
# Static dielectric constant tensor:
#      x y z
#    x 1.776370 0.000000 0.000000 
#    y 0.000000 1.716740 0.000000 
#    z 0.000000 0.000000 1.726180 
# 
# From -- ./inp_files/23736.got.cif
#   From: 2010.05.17/outbox.cif.g08.bks.cpg/sg69_12_cif.got.tgz:23736.got - 2010.06.03 19:29:58.
