data_PCOD9513266
_publ_section_title
;
Structure prediction by ZEFSAII (Michael W. Deem and Ramdas Pophale) SiO2 
 PCOD9513266
Probable space group: F M M M
;
_chemical_formula_sum "Si O2"
_cell_formula_units_Z 88
_cell_length_a 13.192754
_cell_length_b 22.722672
_cell_length_c 13.358432
_cell_angle_alpha 90.000000
_cell_angle_beta 90.000000
_cell_angle_gamma 90.000000
_cell_volume 4004.518902
_symmetry_space_group_name_H-M "F M M M"
_symmetry_group_IT_number 69
_symmetry_cell_setting 'orthorhombic'
loop_
_space_group_symop_operation_xyz
x,y,z
-x,-y,z
x,-y,-z
-x,y,-z
-x,-y,-z
x,y,-z
-x,y,z
x,-y,z
x,1/2+y,1/2+z
-x,1/2-y,1/2+z
x,1/2-y,1/2-z
-x,1/2+y,1/2-z
-x,1/2-y,1/2-z
x,1/2+y,1/2-z
-x,1/2+y,1/2+z
x,1/2-y,1/2+z
1/2+x,y,1/2+z
1/2-x,-y,1/2+z
1/2+x,-y,1/2-z
1/2-x,y,1/2-z
1/2-x,-y,1/2-z
1/2+x,y,1/2-z
1/2-x,y,1/2+z
1/2+x,-y,1/2+z
1/2+x,1/2+y,z
1/2-x,1/2-y,z
1/2+x,1/2-y,-z
1/2-x,1/2+y,-z
1/2-x,1/2-y,-z
1/2+x,1/2+y,-z
1/2-x,1/2+y,z
1/2+x,1/2-y,z
loop_
_atom_site_type_symbol
_atom_site_label
_atom_site_fract_x
_atom_site_fract_y
_atom_site_fract_z
Si Si1 0.500000 0.432965 0.621293
Si Si2 0.250000 0.750000 0.750000
Si Si3 0.807766 0.854165 0.620266
Si Si4 0.384088 0.566725 0.121507
O O1 0.500000 0.500000 0.656599
O O2 0.500000 0.435411 0.500000
O O3 0.398765 0.397847 0.647904
O O4 0.186220 0.792828 0.678191
O O5 0.810868 0.845004 0.500000
O O6 0.701412 0.885914 0.646189
O O7 0.500000 0.579944 0.152365
O O8 0.357254 0.500000 0.153792
O O9 0.385171 0.565197 0.000000
#
# Coordination Sequence:
#
# PCOD9513266 Si02
#       4
#    16   8  32  32
#     4   9  18  37  68  96 119 152 194 250 313 363
#     4  12  26  42  58  82 126 168 212 242 280 352
#     4  10  21  40  62  88 120 159 203 247 298 353
#     4   8  14  29  57  89 117 147 189 245 305 356
#
# _framework density 21.975173999999999
#
# number of rings (size 3 to 8) (size 9 to 14) (size 15 to 20)
#    0.000    2.727    0.000    2.727    0.000    5.091 
#    6.545    3.636    0.000    0.000    0.000    0.000 
#    0.000    0.000    0.000    0.000    0.000    0.000 
#
# Total GULP energy -123060.970256 kJ/mol
# GULP energy per Si atom -5593.680466 kJ/mol
# Density = 2.192516 g / cm^3
# Si number density = 21.975174 Si / 1000 Ang^3
#
#
#
# Elastic Constant Matrix: (Units=GPa)
#
#
# Indices 1 2 3 4 5 6 
#
# 1 137.8938 96.8977 42.3973 0.0000 0.0000 0.0000
# 2 96.8977 183.5155 59.5545 0.0000 0.0000 0.0000
# 3 42.3973 59.5545 114.4815 0.0000 0.0000 0.0000
# 4 0.0000 0.0000 0.0000 45.3902 0.0000 0.0000
# 5 0.0000 0.0000 0.0000 0.0000 35.2454 0.0000
# 6 0.0000 0.0000 0.0000 0.0000 0.0000 14.1036
#
#
#
# Elastic Compliance Matrix: (Units=1/GPa)
#
#
# Indices 1 2 3 4 5 6 
#
# 1 0.011700 -0.005741 -0.001347 0.000000 0.000000 0.000000
# 2 -0.005741 0.009373 -0.002750 0.000000 0.000000 0.000000
# 3 -0.001347 -0.002750 0.010664 0.000000 0.000000 0.000000
# 4 0.000000 0.000000 0.000000 0.022031 0.000000 0.000000
# 5 0.000000 0.000000 0.000000 0.000000 0.028372 0.000000
# 6 0.000000 0.000000 0.000000 0.000000 0.000000 0.070904
#
#
# Mechanical properties :
#
#
# Convention : Reuss Voigt Hill
#
# Bulk Modulus (GPa) = 82.90012 92.62108 87.76060
# Shear Modulus (GPa) = 28.29025 34.75059 31.52042
#
# Velocity S-wave (km/s) = 3.59189 3.98094 3.79141
# Velocity P-wave (km/s) = 7.41678 7.96053 7.69346
#
# Compressibility (1/GPa) = 0.01206271
#
# Stress axis : x y z
#
# Youngs Moduli (GPa) = 85.47046 106.69423 93.77187
#
# Poissons Ratio (x) = 0.61249 0.12628
# Poissons Ratio (y) = 0.49066 0.25785
# Poissons Ratio (z) = 0.11510 0.29338
#
# Static dielectric constant tensor:
#      x y z
#    x 1.743890 0.000000 0.000000 
#    y 0.000000 1.741620 0.000000 
#    z 0.000000 0.000000 1.917620 
# 
# From -- ./inp_files/13147.got.cif
#   From: 2010.05.17/outbox.cif.g08.bks.cpg/sg69_7_cif.got.tgz:13147.got - 2010.06.03 19:29:58.
