data_PCOD9513689
_publ_section_title
;
Structure prediction by ZEFSAII (Michael W. Deem and Ramdas Pophale) SiO2 
 PCOD9513689
Probable space group: F M M M
;
_chemical_formula_sum "Si O2"
_cell_formula_units_Z 192
_cell_length_a 16.942212
_cell_length_b 21.052382
_cell_length_c 27.320266
_cell_angle_alpha 90.000000
_cell_angle_beta 90.000000
_cell_angle_gamma 90.000000
_cell_volume 9744.426341
_symmetry_space_group_name_H-M "F M M M"
_symmetry_group_IT_number 69
_symmetry_cell_setting 'orthorhombic'
loop_
_space_group_symop_operation_xyz
x,y,z
-x,-y,z
x,-y,-z
-x,y,-z
-x,-y,-z
x,y,-z
-x,y,z
x,-y,z
x,1/2+y,1/2+z
-x,1/2-y,1/2+z
x,1/2-y,1/2-z
-x,1/2+y,1/2-z
-x,1/2-y,1/2-z
x,1/2+y,1/2-z
-x,1/2+y,1/2+z
x,1/2-y,1/2+z
1/2+x,y,1/2+z
1/2-x,-y,1/2+z
1/2+x,-y,1/2-z
1/2-x,y,1/2-z
1/2-x,-y,1/2-z
1/2+x,y,1/2-z
1/2-x,y,1/2+z
1/2+x,-y,1/2+z
1/2+x,1/2+y,z
1/2-x,1/2-y,z
1/2+x,1/2-y,-z
1/2-x,1/2+y,-z
1/2-x,1/2-y,-z
1/2+x,1/2+y,-z
1/2-x,1/2+y,z
1/2+x,1/2-y,z
loop_
_atom_site_type_symbol
_atom_site_label
_atom_site_fract_x
_atom_site_fract_y
_atom_site_fract_z
Si Si1 0.406511 0.737991 0.128653
Si Si2 0.595895 0.682635 0.227574
Si Si3 0.157961 0.151162 0.941424
Si Si4 0.694412 0.573223 0.408314
Si Si5 0.593667 0.621967 0.324352
Si Si6 0.412232 0.576990 0.500000
Si Si7 0.500000 0.927987 0.558945
O O1 0.500000 0.731292 0.119388
O O2 0.381546 0.687214 0.170947
O O3 0.358147 0.720755 0.080585
O O4 0.397046 0.807986 0.151102
O O5 0.500000 0.683535 0.228089
O O6 0.622496 0.750000 0.250000
O O7 0.617801 0.629579 0.267300
O O8 0.230712 0.117757 0.914977
O O9 0.079041 0.110628 0.928938
O O10 0.168823 0.150920 0.000000
O O11 0.717332 0.500000 0.417766
O O12 0.649158 0.578404 0.356969
O O13 0.633626 0.593831 0.450874
O O14 0.500000 0.605451 0.327163
O O15 0.417115 0.500000 0.500000
O O16 0.500000 0.603725 0.500000
O O17 0.500000 0.932383 0.500000
O O18 0.500000 0.000000 0.578701
#
# Coordination Sequence:
#
# PCOD9513689 Si02
#       7
#    32  32  32  32  32  16  16
#     4   9  17  33  57  85 113 142 179 225 278 337
#     4   7  12  27  54  82 106 136 178 223 265 321
#     4  11  21  35  54  78 111 145 179 229 280 328
#     4  11  22  36  54  78 109 145 189 235 272 315
#     4   9  18  34  57  85 111 142 184 226 276 334
#     4   9  18  34  54  72  97 137 187 229 261 309
#     4   9  18  32  54  76  95 134 185 221 262 322
#
# _framework density 19.703571
#
# number of rings (size 3 to 8) (size 9 to 14) (size 15 to 20)
#    0.000    2.667    1.667    3.000    0.000    2.333 
#    1.500    1.667    0.000    6.000    0.000    0.000 
#    0.000    0.000    0.000    0.000    0.000    0.000 
#
# Total GULP energy -267492.074694 kJ/mol
# GULP energy per Si atom -5572.751556 kJ/mol
# Density = 1.965872 g / cm^3
# Si number density = 19.703571 Si / 1000 Ang^3
#
#
#
# Elastic Constant Matrix: (Units=GPa)
#
#
# Indices 1 2 3 4 5 6 
#
# 1 64.8272 8.9824 9.7684 0.0000 0.0000 0.0000
# 2 8.9824 23.1104 2.8910 0.0000 0.0000 0.0000
# 3 9.7684 2.8910 52.0135 0.0000 0.0000 0.0000
# 4 0.0000 0.0000 0.0000 28.0586 0.0000 0.0000
# 5 0.0000 0.0000 0.0000 0.0000 2.8628 0.0000
# 6 0.0000 0.0000 0.0000 0.0000 0.0000 15.1022
#
#
#
# Elastic Compliance Matrix: (Units=1/GPa)
#
#
# Indices 1 2 3 4 5 6 
#
# 1 0.016698 -0.006140 -0.002795 0.000000 0.000000 0.000000
# 2 -0.006140 0.045832 -0.001394 0.000000 0.000000 0.000000
# 3 -0.002795 -0.001394 0.019828 0.000000 0.000000 0.000000
# 4 0.000000 0.000000 0.000000 0.035640 0.000000 0.000000
# 5 0.000000 0.000000 0.000000 0.000000 0.349308 0.000000
# 6 0.000000 0.000000 0.000000 0.000000 0.000000 0.066215
#
#
# Mechanical properties :
#
#
# Convention : Reuss Voigt Hill
#
# Bulk Modulus (GPa) = 16.20774 20.35943 18.28358
# Shear Modulus (GPa) = 8.69951 17.09200 12.89575
#
# Velocity S-wave (km/s) = 2.10352 2.94846 2.56107
# Velocity P-wave (km/s) = 3.76076 4.68471 4.24793
#
# Compressibility (1/GPa) = 0.06169892
#
# Stress axis : x y z
#
# Youngs Moduli (GPa) = 59.88913 21.81903 50.43345
#
# Poissons Ratio (x) = 0.13398 0.14094
# Poissons Ratio (y) = 0.36774 0.07032
# Poissons Ratio (z) = 0.16737 0.03042
#
# Static dielectric constant tensor:
#      x y z
#    x 1.685260 0.000000 0.000000 
#    y 0.000000 1.711370 0.000000 
#    z 0.000000 0.000000 1.722940 
# 
# From -- ./inp_files/41151.got.cif
#   From: 2010.05.17/outbox.cif.g08.bks.cpg/sg69_21_cif.got.tgz:41151.got - 2010.06.03 19:29:58.
