data_PCOD9513283
_publ_section_title
;
Structure prediction by ZEFSAII (Michael W. Deem and Ramdas Pophale) SiO2 
 PCOD9513283
Probable space group: F M M M
;
_chemical_formula_sum "Si O2"
_cell_formula_units_Z 84
_cell_length_a 10.299853
_cell_length_b 22.506355
_cell_length_c 17.760771
_cell_angle_alpha 90.000000
_cell_angle_beta 90.000000
_cell_angle_gamma 90.000000
_cell_volume 4117.162477
_symmetry_space_group_name_H-M "F M M M"
_symmetry_group_IT_number 69
_symmetry_cell_setting 'orthorhombic'
loop_
_space_group_symop_operation_xyz
x,y,z
-x,-y,z
x,-y,-z
-x,y,-z
-x,-y,-z
x,y,-z
-x,y,z
x,-y,z
x,1/2+y,1/2+z
-x,1/2-y,1/2+z
x,1/2-y,1/2-z
-x,1/2+y,1/2-z
-x,1/2-y,1/2-z
x,1/2+y,1/2-z
-x,1/2+y,1/2+z
x,1/2-y,1/2+z
1/2+x,y,1/2+z
1/2-x,-y,1/2+z
1/2+x,-y,1/2-z
1/2-x,y,1/2-z
1/2-x,-y,1/2-z
1/2+x,y,1/2-z
1/2-x,y,1/2+z
1/2+x,-y,1/2+z
1/2+x,1/2+y,z
1/2-x,1/2-y,z
1/2+x,1/2-y,-z
1/2-x,1/2+y,-z
1/2-x,1/2-y,-z
1/2+x,1/2+y,-z
1/2-x,1/2+y,z
1/2+x,1/2-y,z
loop_
_atom_site_type_symbol
_atom_site_label
_atom_site_fract_x
_atom_site_fract_y
_atom_site_fract_z
Si Si1 0.500000 0.500000 0.500000
Si Si2 0.000000 0.694485 0.587823
Si Si3 0.228315 0.000000 0.083524
Si Si4 0.267286 0.876579 0.660682
Si Si5 0.500000 0.337233 0.413898
O O1 0.382992 0.500000 0.564596
O O2 0.125757 0.669500 0.630460
O O3 0.000000 0.675045 0.500000
O O4 0.000000 0.765835 0.587219
O O5 0.194459 0.941257 0.129659
O O6 0.166517 0.000000 0.000000
O O7 0.250000 0.875815 0.750000
O O8 0.129422 0.859840 0.624886
O O9 0.500000 0.360141 0.500000
#
# Coordination Sequence:
#
# PCOD9513283 Si02
#       5
#     4  16  16  32  16
#     4   8  20  36  68  94 112 168 222 262 284 382
#     4  11  25  44  64  96 131 174 218 271 330 381
#     4  10  21  40  66  96 123 168 219 262 312 388
#     4  12  25  41  66  99 135 167 212 277 334 385
#     4  11  24  44  70  91 125 180 234 260 304 402
#
# _framework density 20.402401000000001
#
# number of rings (size 3 to 8) (size 9 to 14) (size 15 to 20)
#    0.571    0.381    0.000    7.429    2.667    8.381 
#    0.000    5.714    0.000    0.000    0.000    0.000 
#    0.000    0.000    0.000    0.000    0.000    0.000 
#
# Total GULP energy -117268.590424 kJ/mol
# GULP energy per Si atom -5584.218592 kJ/mol
# Density = 2.035596 g / cm^3
# Si number density = 20.402401 Si / 1000 Ang^3
#
#
#
# Elastic Constant Matrix: (Units=GPa)
#
#
# Indices 1 2 3 4 5 6 
#
# 1 105.0984 18.0573 55.0243 0.0000 0.0000 0.0000
# 2 18.0573 80.0641 53.2396 0.0000 0.0000 0.0000
# 3 55.0243 53.2396 225.1140 0.0000 0.0000 0.0000
# 4 0.0000 0.0000 0.0000 -67.4313 0.0000 0.0000
# 5 0.0000 0.0000 0.0000 0.0000 34.9408 0.0000
# 6 0.0000 0.0000 0.0000 0.0000 0.0000 149.9863
#
#
#
# Elastic Compliance Matrix: (Units=1/GPa)
#
#
# Indices 1 2 3 4 5 6 
#
# 1 0.010956 -0.000819 -0.002484 0.000000 0.000000 0.000000
# 2 -0.000819 0.014882 -0.003319 0.000000 0.000000 0.000000
# 3 -0.002484 -0.003319 0.005834 0.000000 0.000000 0.000000
# 4 0.000000 0.000000 0.000000 -0.014830 0.000000 0.000000
# 5 0.000000 0.000000 0.000000 0.000000 0.028620 0.000000
# 6 0.000000 0.000000 0.000000 0.000000 0.000000 0.006667
#
#
# Mechanical properties :
#
#
# Convention : Reuss Voigt Hill
#
# Bulk Modulus (GPa) = 54.26761 73.65765 63.96263
# Shear Modulus (GPa) = 69.91252 42.42949 56.17100
#
# Velocity S-wave (km/s) = 5.86014 4.56525 5.25275
# Velocity P-wave (km/s) = 8.51144 7.99809 8.25876
#
# Compressibility (1/GPa) = 0.01842720
#
# Stress axis : x y z
#
# Youngs Moduli (GPa) = 91.27182 67.19530 171.39507
#
# Poissons Ratio (x) = 0.05504 0.42580
# Poissons Ratio (y) = 0.07476 0.56893
# Poissons Ratio (z) = 0.22675 0.22305
#
# Static dielectric constant tensor:
#      x y z
#    x 1.665080 0.000000 0.000000 
#    y 0.000000 1.742210 0.000000 
#    z 0.000000 0.000000 1.692580 
# 
# From -- ./inp_files/20617.got.cif
#   From: 2010.05.17/outbox.cif.g08.bks.cpg/sg69_11_cif.got.tgz:20617.got - 2010.06.03 19:29:58.
