data_PCOD9513424
_publ_section_title
;
Structure prediction by ZEFSAII (Michael W. Deem and Ramdas Pophale) SiO2 
 PCOD9513424
Probable space group: F M M M
;
_chemical_formula_sum "Si O2"
_cell_formula_units_Z 116
_cell_length_a 19.941956
_cell_length_b 36.770100
_cell_length_c 9.079524
_cell_angle_alpha 90.000000
_cell_angle_beta 90.000000
_cell_angle_gamma 90.000000
_cell_volume 6657.721829
_symmetry_space_group_name_H-M "F M M M"
_symmetry_group_IT_number 69
_symmetry_cell_setting 'orthorhombic'
loop_
_space_group_symop_operation_xyz
x,y,z
-x,-y,z
x,-y,-z
-x,y,-z
-x,-y,-z
x,y,-z
-x,y,z
x,-y,z
x,1/2+y,1/2+z
-x,1/2-y,1/2+z
x,1/2-y,1/2-z
-x,1/2+y,1/2-z
-x,1/2-y,1/2-z
x,1/2+y,1/2-z
-x,1/2+y,1/2+z
x,1/2-y,1/2+z
1/2+x,y,1/2+z
1/2-x,-y,1/2+z
1/2+x,-y,1/2-z
1/2-x,y,1/2-z
1/2-x,-y,1/2-z
1/2+x,y,1/2-z
1/2-x,y,1/2+z
1/2+x,-y,1/2+z
1/2+x,1/2+y,z
1/2-x,1/2-y,z
1/2+x,1/2-y,-z
1/2-x,1/2+y,-z
1/2-x,1/2-y,-z
1/2+x,1/2+y,-z
1/2-x,1/2+y,z
1/2+x,1/2-y,z
loop_
_atom_site_type_symbol
_atom_site_label
_atom_site_fract_x
_atom_site_fract_y
_atom_site_fract_z
Si Si1 0.500000 0.000000 0.500000
Si Si2 0.820231 0.574210 0.823006
Si Si3 0.922281 0.361335 0.823638
Si Si4 0.081684 0.786682 0.830502
Si Si5 0.639042 0.000000 0.336324
O O1 0.439900 0.000000 0.374123
O O2 0.750000 0.585148 0.750000
O O3 0.876220 0.604424 0.786558
O O4 0.840648 0.535735 0.752714
O O5 0.814641 0.571635 0.000000
O O6 0.898516 0.324025 0.748693
O O7 0.000000 0.367900 0.780395
O O8 0.920882 0.356373 0.000000
O O9 0.104700 0.750000 0.750000
O O10 0.000000 0.786141 0.826437
O O11 0.102502 0.786628 0.000000
O O12 0.672665 0.000000 0.500000
#
# Coordination Sequence:
#
# PCOD9513424 Si02
#       5
#     4  32  32  32  16
#     4   8  24  40  62  92 112 144 176 236 292 316
#     4  11  23  39  59  83 112 151 191 231 277 332
#     4   9  19  34  53  78 108 141 180 229 278 328
#     4   9  16  27  46  74 106 141 178 220 272 329
#     4  10  22  40  60  84 112 143 182 224 276 328
#
# _framework density 17.423378
#
# number of rings (size 3 to 8) (size 9 to 14) (size 15 to 20)
#    0.414    1.931    0.000    2.483    1.931    5.517 
#    0.000    0.690    0.000    0.828    0.000    5.793 
#    0.000    0.000    0.000    0.000    0.000    0.000 
#
# Total GULP energy -161443.837258 kJ/mol
# GULP energy per Si atom -5567.028871 kJ/mol
# Density = 1.738372 g / cm^3
# Si number density = 17.423378 Si / 1000 Ang^3
#
#
#
# Elastic Constant Matrix: (Units=GPa)
#
#
# Indices 1 2 3 4 5 6 
#
# 1 75.3149 58.9331 42.7089 0.0000 -0.0001 0.0000
# 2 58.9331 186.4333 87.1655 0.0000 0.0000 0.0000
# 3 42.7089 87.1655 85.7759 0.0000 -0.0002 0.0000
# 4 0.0000 0.0000 0.0000 33.9976 0.0000 0.0000
# 5 -0.0001 0.0000 -0.0002 0.0000 20.7232 0.0000
# 6 0.0000 0.0000 0.0000 0.0000 0.0000 -7.9412
#
#
#
# Elastic Compliance Matrix: (Units=1/GPa)
#
#
# Indices 1 2 3 4 5 6 
#
# 1 0.019386 -0.003077 -0.006526 0.000000 0.000000 0.000000
# 2 -0.003077 0.010708 -0.009349 0.000000 0.000000 0.000000
# 3 -0.006526 -0.009349 0.024408 0.000000 0.000000 0.000000
# 4 0.000000 0.000000 0.000000 0.029414 0.000000 0.000000
# 5 0.000000 0.000000 0.000000 0.000000 0.048255 0.000000
# 6 0.000000 0.000000 0.000000 0.000000 0.000000 -0.125926
#
#
# Mechanical properties :
#
#
# Convention : Reuss Voigt Hill
#
# Bulk Modulus (GPa) = 60.24770 80.57102 70.40936
# Shear Modulus (GPa) = 100.64430 19.93703 60.29067
#
# Velocity S-wave (km/s) = 7.60850 3.38637 5.88884
# Velocity P-wave (km/s) = 10.57542 7.85070 9.31324
#
# Compressibility (1/GPa) = 0.01659814
#
# Stress axis : x y z
#
# Youngs Moduli (GPa) = 51.58423 93.39213 40.97045
#
# Poissons Ratio (x) = 0.28737 0.26735
# Poissons Ratio (y) = 0.15873 0.38303
# Poissons Ratio (z) = 0.33662 0.87312
#
# Static dielectric constant tensor:
#      x y z
#    x 1.581120 0.000000 0.000000 
#    y 0.000000 1.569480 0.000000 
#    z 0.000000 0.000000 1.590820 
# 
# From -- ./inp_files/4043.got.cif
#   From: 2010.05.17/outbox.cif.g08.bks.cpg/sg69_3_cif.got.tgz:4043.got - 2010.06.03 19:29:58.
