data_PCOD9513933
_publ_section_title
;
Structure prediction by ZEFSAII (Michael W. Deem and Ramdas Pophale) SiO2 
 PCOD9513933
Probable space group: F M M M
;
_chemical_formula_sum "Si O2"
_cell_formula_units_Z 176
_cell_length_a 7.766878
_cell_length_b 44.703035
_cell_length_c 28.444819
_cell_angle_alpha 90.000000
_cell_angle_beta 90.000000
_cell_angle_gamma 90.000000
_cell_volume 9876.127034
_symmetry_space_group_name_H-M "F M M M"
_symmetry_group_IT_number 69
_symmetry_cell_setting 'orthorhombic'
loop_
_space_group_symop_operation_xyz
x,y,z
-x,-y,z
x,-y,-z
-x,y,-z
-x,-y,-z
x,y,-z
-x,y,z
x,-y,z
x,1/2+y,1/2+z
-x,1/2-y,1/2+z
x,1/2-y,1/2-z
-x,1/2+y,1/2-z
-x,1/2-y,1/2-z
x,1/2+y,1/2-z
-x,1/2+y,1/2+z
x,1/2-y,1/2+z
1/2+x,y,1/2+z
1/2-x,-y,1/2+z
1/2+x,-y,1/2-z
1/2-x,y,1/2-z
1/2-x,-y,1/2-z
1/2+x,y,1/2-z
1/2-x,y,1/2+z
1/2+x,-y,1/2+z
1/2+x,1/2+y,z
1/2-x,1/2-y,z
1/2+x,1/2-y,-z
1/2-x,1/2+y,-z
1/2-x,1/2-y,-z
1/2+x,1/2+y,-z
1/2-x,1/2+y,z
1/2+x,1/2-y,z
loop_
_atom_site_type_symbol
_atom_site_label
_atom_site_fract_x
_atom_site_fract_y
_atom_site_fract_z
Si Si1 0.293252 0.656966 0.303155
Si Si2 0.293200 0.564725 0.946562
Si Si3 0.792940 0.625446 0.103815
Si Si4 0.710322 0.814275 0.947360
Si Si5 0.699326 0.000000 0.442748
Si Si6 0.293546 0.716373 0.352793
O O1 0.500000 0.657449 0.306244
O O2 0.250000 0.649299 0.250000
O O3 0.231357 0.634542 0.344041
O O4 0.230401 0.690181 0.318084
O O5 0.500000 0.561602 0.949396
O O6 0.256887 0.593020 0.914357
O O7 0.224726 0.532317 0.929576
O O8 0.229974 0.570324 0.000000
O O9 0.737382 0.652295 0.068919
O O10 0.000000 0.626483 0.104228
O O11 0.500000 0.813737 0.948012
O O12 0.767151 0.792166 0.905584
O O13 0.770079 0.807356 0.000000
O O14 0.500000 0.000000 0.426751
O O15 0.698462 0.000000 0.500000
O O16 0.500000 0.714235 0.353693
O O17 0.250000 0.750000 0.339470
#
# Coordination Sequence:
#
# PCOD9513933 Si02
#       6
#    32  32  32  32  16  32
#     4   9  19  34  49  65  85 109 139 177 222 270
#     4   9  16  26  42  65  93 124 154 179 204 240
#     4   9  17  29  45  65  87 112 144 180 219 261
#     4   8  14  26  43  60  82 114 144 168 202 251
#     4   7  12  24  39  57  88 127 156 175 200 239
#     4   9  18  31  45  63  85 108 138 173 209 254
#
# _framework density 17.820751999999999
#
# number of rings (size 3 to 8) (size 9 to 14) (size 15 to 20)
#    0.000    3.364    0.000    3.818    0.000    3.273 
#    0.000    5.000    0.000    2.727    0.000    0.636 
#    0.000    0.000    0.000    0.000    0.000    0.000 
#
# Total GULP energy -245030.665343 kJ/mol
# GULP energy per Si atom -5568.878758 kJ/mol
# Density = 1.778019 g / cm^3
# Si number density = 17.820752 Si / 1000 Ang^3
#
#
#
# Elastic Constant Matrix: (Units=GPa)
#
#
# Indices 1 2 3 4 5 6 
#
# 1 21.4791 2.8405 3.7439 0.0000 0.0000 0.0000
# 2 2.8405 129.0913 36.7557 0.0000 0.0000 0.0000
# 3 3.7439 36.7557 84.2885 0.0000 0.0000 0.0000
# 4 0.0000 0.0000 0.0000 14.2355 0.0000 0.0000
# 5 0.0000 0.0000 0.0000 0.0000 26.8167 0.0000
# 6 0.0000 0.0000 0.0000 0.0000 0.0000 15.7924
#
#
#
# Elastic Compliance Matrix: (Units=1/GPa)
#
#
# Indices 1 2 3 4 5 6 
#
# 1 0.046949 -0.000502 -0.001867 0.000000 0.000000 0.000000
# 2 -0.000502 0.008850 -0.003837 0.000000 0.000000 0.000000
# 3 -0.001867 -0.003837 0.013620 0.000000 0.000000 0.000000
# 4 0.000000 0.000000 0.000000 0.070247 0.000000 0.000000
# 5 0.000000 0.000000 0.000000 0.000000 0.037290 0.000000
# 6 0.000000 0.000000 0.000000 0.000000 0.000000 0.063322
#
#
# Mechanical properties :
#
#
# Convention : Reuss Voigt Hill
#
# Bulk Modulus (GPa) = 17.54127 35.72655 26.63391
# Shear Modulus (GPa) = 18.40329 24.13683 21.27006
#
# Velocity S-wave (km/s) = 3.21703 3.68424 3.45854
# Velocity P-wave (km/s) = 4.86453 6.17976 5.56116
#
# Compressibility (1/GPa) = 0.05700841
#
# Stress axis : x y z
#
# Youngs Moduli (GPa) = 21.29988 112.99479 73.42090
#
# Poissons Ratio (x) = 0.05667 0.13705
# Poissons Ratio (y) = 0.01068 0.28171
# Poissons Ratio (z) = 0.03976 0.43355
#
# Static dielectric constant tensor:
#      x y z
#    x 1.670330 0.000000 0.000000 
#    y 0.000000 1.630120 0.000000 
#    z 0.000000 0.000000 1.604500 
# 
# From -- ./inp_files/40436.got.cif
#   From: 2010.05.17/outbox.cif.g08.bks.cpg/sg69_21_cif.got.tgz:40436.got - 2010.06.03 19:29:58.
