data_PCOD9513057
_publ_section_title
;
Structure prediction by ZEFSAII (Michael W. Deem and Ramdas Pophale) SiO2 
 PCOD9513057
Probable space group: F M M M
;
_chemical_formula_sum "Si O2"
_cell_formula_units_Z 112
_cell_length_a 26.432216
_cell_length_b 14.552954
_cell_length_c 11.590286
_cell_angle_alpha 90.000000
_cell_angle_beta 90.000000
_cell_angle_gamma 90.000000
_cell_volume 4458.398500
_symmetry_space_group_name_H-M "F M M M"
_symmetry_group_IT_number 69
_symmetry_cell_setting 'orthorhombic'
loop_
_space_group_symop_operation_xyz
x,y,z
-x,-y,z
x,-y,-z
-x,y,-z
-x,-y,-z
x,y,-z
-x,y,z
x,-y,z
x,1/2+y,1/2+z
-x,1/2-y,1/2+z
x,1/2-y,1/2-z
-x,1/2+y,1/2-z
-x,1/2-y,1/2-z
x,1/2+y,1/2-z
-x,1/2+y,1/2+z
x,1/2-y,1/2+z
1/2+x,y,1/2+z
1/2-x,-y,1/2+z
1/2+x,-y,1/2-z
1/2-x,y,1/2-z
1/2-x,-y,1/2-z
1/2+x,y,1/2-z
1/2-x,y,1/2+z
1/2+x,-y,1/2+z
1/2+x,1/2+y,z
1/2-x,1/2-y,z
1/2+x,1/2-y,-z
1/2-x,1/2+y,-z
1/2-x,1/2-y,-z
1/2+x,1/2+y,-z
1/2-x,1/2+y,z
1/2+x,1/2-y,z
loop_
_atom_site_type_symbol
_atom_site_label
_atom_site_fract_x
_atom_site_fract_y
_atom_site_fract_z
Si Si1 0.189505 0.753525 0.000000
Si Si2 0.415442 0.603902 0.255559
Si Si3 0.099037 0.612643 0.000000
Si Si4 0.559992 0.895150 0.500000
Si Si5 0.304512 0.602306 0.806251
O O1 0.250000 0.750000 0.000000
O O2 0.153105 0.666374 0.000000
O O3 0.180812 0.816716 0.109761
O O4 0.436086 0.500000 0.247001
O O5 0.430354 0.640004 0.381718
O O6 0.425861 0.644076 0.127514
O O7 0.354411 0.597550 0.270998
O O8 0.104128 0.500000 0.000000
O O9 0.500000 0.900161 0.500000
O O10 0.582569 0.000000 0.500000
O O11 0.299461 0.500000 0.859790
O O12 0.250000 0.621247 0.750000
#
# Coordination Sequence:
#
# PCOD9513057 Si02
#       5
#    16  32  16  16  32
#     4  12  24  34  53  82 117 160 215 260 300 368
#     4   9  18  35  57  82 117 158 200 250 313 376
#     4  10  22  38  55  80 120 167 209 256 310 365
#     4   9  17  32  59  93 122 153 205 268 318 372
#     4  10  21  37  57  83 118 158 202 256 313 371
#
# _framework density 25.121127999999999
#
# number of rings (size 3 to 8) (size 9 to 14) (size 15 to 20)
#    0.000    2.143    0.000    3.000    0.000    9.714 
#    0.000    0.714    0.000    5.143    0.000   16.000 
#    0.000    0.000    0.000    0.000    0.000    2.286 
#
# Total GULP energy -155971.984555 kJ/mol
# GULP energy per Si atom -5570.428020 kJ/mol
# Density = 2.506395 g / cm^3
# Si number density = 25.121128 Si / 1000 Ang^3
#
#
#
# Elastic Constant Matrix: (Units=GPa)
#
#
# Indices 1 2 3 4 5 6 
#
# 1 98.4635 3.5755 35.8796 0.0000 0.0000 0.0000
# 2 3.5755 118.4754 41.4925 0.0000 0.0000 0.0000
# 3 35.8796 41.4925 250.6148 0.0000 0.0000 0.0000
# 4 0.0000 0.0000 0.0000 18.5864 0.0000 0.0000
# 5 0.0000 0.0000 0.0000 0.0000 23.0734 0.0000
# 6 0.0000 0.0000 0.0000 0.0000 0.0000 6.0557
#
#
#
# Elastic Compliance Matrix: (Units=1/GPa)
#
#
# Indices 1 2 3 4 5 6 
#
# 1 0.010721 0.000227 -0.001572 0.000000 0.000000 0.000000
# 2 0.000227 0.008965 -0.001517 0.000000 0.000000 0.000000
# 3 -0.001572 -0.001517 0.004466 0.000000 0.000000 0.000000
# 4 0.000000 0.000000 0.000000 0.053803 0.000000 0.000000
# 5 0.000000 0.000000 0.000000 0.000000 0.043340 0.000000
# 6 0.000000 0.000000 0.000000 0.000000 0.000000 0.165135
#
#
# Mechanical properties :
#
#
# Convention : Reuss Voigt Hill
#
# Bulk Modulus (GPa) = 54.26529 69.93877 62.10203
# Shear Modulus (GPa) = 16.76186 35.31685 26.03936
#
# Velocity S-wave (km/s) = 2.58590 3.75355 3.22305
# Velocity P-wave (km/s) = 5.52849 6.83276 6.21493
#
# Compressibility (1/GPa) = 0.01842799
#
# Stress axis : x y z
#
# Youngs Moduli (GPa) = 93.27667 111.54585 223.89224
#
# Poissons Ratio (x) = -0.02534 0.35206
# Poissons Ratio (y) = -0.02119 0.33960
# Poissons Ratio (z) = 0.14667 0.16919
#
# Static dielectric constant tensor:
#      x y z
#    x 2.105140 0.000000 0.000000 
#    y 0.000000 1.996040 0.000000 
#    z 0.000000 0.000000 2.184700 
# 
# From -- ./inp_files/11938.got.cif
#   From: 2010.05.17/outbox.cif.g08.bks.cpg/sg69_6_cif.got.tgz:11938.got - 2010.06.03 19:29:58.
