data_PCOD9513748
_publ_section_title
;
Structure prediction by ZEFSAII (Michael W. Deem and Ramdas Pophale) SiO2 
 PCOD9513748
Probable space group: F M M M
;
_chemical_formula_sum "Si O2"
_cell_formula_units_Z 144
_cell_length_a 15.868261
_cell_length_b 14.199221
_cell_length_c 31.577897
_cell_angle_alpha 90.000000
_cell_angle_beta 90.000000
_cell_angle_gamma 90.000000
_cell_volume 7115.035276
_symmetry_space_group_name_H-M "F M M M"
_symmetry_group_IT_number 69
_symmetry_cell_setting 'orthorhombic'
loop_
_space_group_symop_operation_xyz
x,y,z
-x,-y,z
x,-y,-z
-x,y,-z
-x,-y,-z
x,y,-z
-x,y,z
x,-y,z
x,1/2+y,1/2+z
-x,1/2-y,1/2+z
x,1/2-y,1/2-z
-x,1/2+y,1/2-z
-x,1/2-y,1/2-z
x,1/2+y,1/2-z
-x,1/2+y,1/2+z
x,1/2-y,1/2+z
1/2+x,y,1/2+z
1/2-x,-y,1/2+z
1/2+x,-y,1/2-z
1/2-x,y,1/2-z
1/2-x,-y,1/2-z
1/2+x,y,1/2-z
1/2-x,y,1/2+z
1/2+x,-y,1/2+z
1/2+x,1/2+y,z
1/2-x,1/2-y,z
1/2+x,1/2-y,-z
1/2-x,1/2+y,-z
1/2-x,1/2-y,-z
1/2+x,1/2+y,-z
1/2-x,1/2+y,z
1/2+x,1/2-y,z
loop_
_atom_site_type_symbol
_atom_site_label
_atom_site_fract_x
_atom_site_fract_y
_atom_site_fract_z
Si Si1 0.902923 0.000000 0.949143
Si Si2 0.345793 0.710470 0.952282
Si Si3 0.151247 0.735537 0.864969
Si Si4 0.899104 0.105423 0.800688
Si Si5 0.903975 0.887368 0.291228
O O1 0.855521 0.099090 0.939764
O O2 0.000000 0.000000 0.932045
O O3 0.909389 0.000000 0.000000
O O4 0.250000 0.750000 0.955608
O O5 0.385871 0.765579 0.912386
O O6 0.382194 0.720753 0.000000
O O7 0.250000 0.750000 0.870294
O O8 0.118519 0.823912 0.838164
O O9 0.138437 0.648493 0.833689
O O10 0.866430 0.139263 0.754653
O O11 0.000000 0.099168 0.795528
O O12 0.866778 0.000000 0.809300
O O13 0.000000 0.850190 0.293137
O O14 0.906277 0.000000 0.290506
#
# Coordination Sequence:
#
# PCOD9513748 Si02
#       5
#    16  32  32  32  32
#     4   9  18  34  60  90 113 138 185 247 294 329
#     4   9  20  39  56  79 115 154 187 224 285 353
#     4  11  22  33  51  82 108 138 177 225 270 325
#     4   9  19  35  55  78 105 140 180 219 266 328
#     4   9  19  37  56  74 103 145 184 216 261 326
#
# _framework density 20.238831999999999
#
# number of rings (size 3 to 8) (size 9 to 14) (size 15 to 20)
#    0.000    2.556    0.000    2.667    1.556    6.222 
#    6.000    2.222    0.000    0.000    0.000    1.556 
#    0.000    0.000    0.000    0.000    0.000    0.000 
#
# Total GULP energy -200470.743567 kJ/mol
# GULP energy per Si atom -5568.631766 kJ/mol
# Density = 2.019277 g / cm^3
# Si number density = 20.238832 Si / 1000 Ang^3
#
#
#
# Elastic Constant Matrix: (Units=GPa)
#
#
# Indices 1 2 3 4 5 6 
#
# 1 39.0004 14.8233 6.3564 0.0000 0.0000 0.0000
# 2 14.8233 73.9965 23.7506 0.0000 0.0000 0.0000
# 3 6.3564 23.7506 176.4749 0.0000 0.0000 0.0000
# 4 0.0000 0.0000 0.0000 33.4297 0.0000 0.0000
# 5 0.0000 0.0000 0.0000 0.0000 22.5613 0.0000
# 6 0.0000 0.0000 0.0000 0.0000 0.0000 34.9645
#
#
#
# Elastic Compliance Matrix: (Units=1/GPa)
#
#
# Indices 1 2 3 4 5 6 
#
# 1 0.027766 -0.005478 -0.000263 0.000000 0.000000 0.000000
# 2 -0.005478 0.015205 -0.001849 0.000000 0.000000 0.000000
# 3 -0.000263 -0.001849 0.005925 0.000000 0.000000 0.000000
# 4 0.000000 0.000000 0.000000 0.029913 0.000000 0.000000
# 5 0.000000 0.000000 0.000000 0.000000 0.044324 0.000000
# 6 0.000000 0.000000 0.000000 0.000000 0.000000 0.028600
#
#
# Mechanical properties :
#
#
# Convention : Reuss Voigt Hill
#
# Bulk Modulus (GPa) = 29.65943 42.14805 35.90374
# Shear Modulus (GPa) = 28.06606 34.49386 31.27996
#
# Velocity S-wave (km/s) = 3.72794 4.13284 3.93560
# Velocity P-wave (km/s) = 5.76338 6.60639 6.19923
#
# Compressibility (1/GPa) = 0.03371609
#
# Stress axis : x y z
#
# Youngs Moduli (GPa) = 36.01579 65.76797 168.78078
#
# Poissons Ratio (x) = 0.36026 0.04437
# Poissons Ratio (y) = 0.19729 0.31208
# Poissons Ratio (z) = 0.00947 0.12161
#
# Static dielectric constant tensor:
#      x y z
#    x 1.880270 0.000000 0.000000 
#    y 0.000000 1.488610 0.000000 
#    z 0.000000 0.000000 1.799910 
# 
# From -- ./inp_files/15562.got.cif
#   From: 2010.05.17/outbox.cif.g08.bks.cpg/sg69_8_cif.got.tgz:15562.got - 2010.06.03 19:29:58.
