data_PCOD9513778
_publ_section_title
;
Structure prediction by ZEFSAII (Michael W. Deem and Ramdas Pophale) SiO2 
 PCOD9513778
Probable space group: F M M M
;
_chemical_formula_sum "Si O2"
_cell_formula_units_Z 160
_cell_length_a 17.204059
_cell_length_b 22.124414
_cell_length_c 21.700214
_cell_angle_alpha 90.000000
_cell_angle_beta 90.000000
_cell_angle_gamma 90.000000
_cell_volume 8259.746461
_symmetry_space_group_name_H-M "F M M M"
_symmetry_group_IT_number 69
_symmetry_cell_setting 'orthorhombic'
loop_
_space_group_symop_operation_xyz
x,y,z
-x,-y,z
x,-y,-z
-x,y,-z
-x,-y,-z
x,y,-z
-x,y,z
x,-y,z
x,1/2+y,1/2+z
-x,1/2-y,1/2+z
x,1/2-y,1/2-z
-x,1/2+y,1/2-z
-x,1/2-y,1/2-z
x,1/2+y,1/2-z
-x,1/2+y,1/2+z
x,1/2-y,1/2+z
1/2+x,y,1/2+z
1/2-x,-y,1/2+z
1/2+x,-y,1/2-z
1/2-x,y,1/2-z
1/2-x,-y,1/2-z
1/2+x,y,1/2-z
1/2-x,y,1/2+z
1/2+x,-y,1/2+z
1/2+x,1/2+y,z
1/2-x,1/2-y,z
1/2+x,1/2-y,-z
1/2-x,1/2+y,-z
1/2-x,1/2-y,-z
1/2+x,1/2+y,-z
1/2-x,1/2+y,z
1/2+x,1/2-y,z
loop_
_atom_site_type_symbol
_atom_site_label
_atom_site_fract_x
_atom_site_fract_y
_atom_site_fract_z
Si Si1 0.845492 0.123143 0.129224
Si Si2 0.406830 0.571760 0.500000
Si Si3 0.413786 0.239711 0.427712
Si Si4 0.906834 0.677946 0.244974
Si Si5 0.906572 0.000000 0.072435
Si Si6 0.663377 0.644665 0.383928
O O1 0.888473 0.172397 0.086788
O O2 0.869936 0.142552 0.197755
O O3 0.753230 0.128733 0.122156
O O4 0.874151 0.058394 0.107182
O O5 0.388672 0.500000 0.500000
O O6 0.500000 0.579150 0.500000
O O7 0.374037 0.603896 0.561803
O O8 0.419319 0.248871 0.500000
O O9 0.500000 0.252183 0.400078
O O10 0.350295 0.286006 0.403586
O O11 0.885045 0.750000 0.250000
O O12 0.878228 0.645443 0.182552
O O13 0.000000 0.675366 0.248650
O O14 0.000000 0.000000 0.074734
O O15 0.883464 0.000000 0.000000
#
# Coordination Sequence:
#
# PCOD9513778 Si02
#       6
#    32  16  32  32  16  32
#     4  12  26  41  68 100 137 175 228 282 345 399
#     4  11  26  48  71  96 136 187 236 277 333 411
#     4  11  22  38  63  96 134 175 225 276 340 412
#     4  11  23  43  70  98 137 182 225 276 342 412
#     4  11  26  48  71  96 138 189 234 277 335 411
#     4  12  25  40  69 100 137 171 221 286 346 393
#
# _framework density 19.371054999999998
#
# number of rings (size 3 to 8) (size 9 to 14) (size 15 to 20)
#    0.000    0.600    3.000    5.400    4.200    3.200 
#    1.800    1.000    0.000    0.000    0.000    0.000 
#    0.000    0.000    0.000    0.000    0.000    0.000 
#
# Total GULP energy -223648.694078 kJ/mol
# GULP energy per Si atom -5591.217352 kJ/mol
# Density = 1.932697 g / cm^3
# Si number density = 19.371055 Si / 1000 Ang^3
#
#
#
# Elastic Constant Matrix: (Units=GPa)
#
#
# Indices 1 2 3 4 5 6 
#
# 1 129.9545 68.9893 71.4688 0.0000 0.0000 0.0000
# 2 68.9893 161.6620 61.5606 0.0000 0.0000 0.0000
# 3 71.4688 61.5606 128.4535 0.0000 0.0000 0.0000
# 4 0.0000 0.0000 0.0000 28.9640 0.0000 0.0000
# 5 0.0000 0.0000 0.0000 0.0000 40.8589 0.0000
# 6 0.0000 0.0000 0.0000 0.0000 0.0000 100.4957
#
#
#
# Elastic Compliance Matrix: (Units=1/GPa)
#
#
# Indices 1 2 3 4 5 6 
#
# 1 0.012337 -0.003243 -0.005310 0.000000 0.000000 0.000000
# 2 -0.003243 0.008419 -0.002231 0.000000 0.000000 0.000000
# 3 -0.005310 -0.002231 0.011808 0.000000 0.000000 0.000000
# 4 0.000000 0.000000 0.000000 0.034526 0.000000 0.000000
# 5 0.000000 0.000000 0.000000 0.000000 0.024474 0.000000
# 6 0.000000 0.000000 0.000000 0.000000 0.000000 0.009951
#
#
# Mechanical properties :
#
#
# Convention : Reuss Voigt Hill
#
# Bulk Modulus (GPa) = 90.92872 91.56748 91.24810
# Shear Modulus (GPa) = 39.44888 48.60050 44.02469
#
# Velocity S-wave (km/s) = 4.51764 5.01435 4.77246
# Velocity P-wave (km/s) = 8.61711 8.99432 8.80773
#
# Compressibility (1/GPa) = 0.01099763
#
# Stress axis : x y z
#
# Youngs Moduli (GPa) = 81.05985 118.77950 84.68723
#
# Poissons Ratio (x) = 0.38516 0.44967
# Poissons Ratio (y) = 0.26285 0.18890
# Poissons Ratio (z) = 0.43041 0.26495
#
# Static dielectric constant tensor:
#      x y z
#    x 1.705190 0.000000 0.000000 
#    y 0.000000 1.650290 0.000000 
#    z 0.000000 0.000000 1.789260 
# 
# From -- ./inp_files/30849.got.cif
#   From: 2010.05.17/outbox.cif.g08.bks.cpg/sg69_16_cif.got.tgz:30849.got - 2010.06.03 19:29:58.
