data_PCOD9513246
_publ_section_title
;
Structure prediction by ZEFSAII (Michael W. Deem and Ramdas Pophale) SiO2 
 PCOD9513246
Probable space group: F M M M
;
_chemical_formula_sum "Si O2"
_cell_formula_units_Z 192
_cell_length_a 15.404617
_cell_length_b 22.924788
_cell_length_c 28.669158
_cell_angle_alpha 90.000000
_cell_angle_beta 90.000000
_cell_angle_gamma 90.000000
_cell_volume 10124.443738
_symmetry_space_group_name_H-M "F M M M"
_symmetry_group_IT_number 69
_symmetry_cell_setting 'orthorhombic'
loop_
_space_group_symop_operation_xyz
x,y,z
-x,-y,z
x,-y,-z
-x,y,-z
-x,-y,-z
x,y,-z
-x,y,z
x,-y,z
x,1/2+y,1/2+z
-x,1/2-y,1/2+z
x,1/2-y,1/2-z
-x,1/2+y,1/2-z
-x,1/2-y,1/2-z
x,1/2+y,1/2-z
-x,1/2+y,1/2+z
x,1/2-y,1/2+z
1/2+x,y,1/2+z
1/2-x,-y,1/2+z
1/2+x,-y,1/2-z
1/2-x,y,1/2-z
1/2-x,-y,1/2-z
1/2+x,y,1/2-z
1/2-x,y,1/2+z
1/2+x,-y,1/2+z
1/2+x,1/2+y,z
1/2-x,1/2-y,z
1/2+x,1/2-y,-z
1/2-x,1/2+y,-z
1/2-x,1/2-y,-z
1/2+x,1/2+y,-z
1/2-x,1/2+y,z
1/2+x,1/2-y,z
loop_
_atom_site_type_symbol
_atom_site_label
_atom_site_fract_x
_atom_site_fract_y
_atom_site_fract_z
Si Si1 0.835221 0.150825 0.646297
Si Si2 0.898890 0.067069 0.725777
Si Si3 0.599524 0.258424 0.804030
Si Si4 0.234123 0.500000 0.053913
Si Si5 0.600664 0.106244 0.946460
Si Si6 0.851333 0.388613 0.323063
Si Si7 0.904179 0.500000 0.618547
O O1 0.887866 0.108349 0.681287
O O2 0.841274 0.215664 0.666224
O O3 0.875381 0.149913 0.594878
O O4 0.738827 0.125201 0.651152
O O5 0.843728 0.089647 0.769624
O O6 0.000000 0.069111 0.740565
O O7 0.876674 0.000000 0.714439
O O8 0.500000 0.237862 0.808521
O O9 0.624485 0.250000 0.750000
O O10 0.603601 0.325661 0.818854
O O11 0.169818 0.445392 0.060773
O O12 0.319551 0.500000 0.085525
O O13 0.262068 0.500000 0.000000
O O14 0.500000 0.087005 0.941353
O O15 0.609894 0.127381 0.000000
O O16 0.896778 0.441690 0.349985
O O17 0.000000 0.500000 0.595834
#
# Coordination Sequence:
#
# PCOD9513246 Si02
#       7
#    32  32  32  16  32  32  16
#     4  12  24  38  61  92 123 163 213 259 319 373
#     4  11  23  36  54  84 125 169 209 251 305 376
#     4  11  23  40  61  86 122 169 215 261 309 369
#     4  10  21  41  65  94 125 160 208 267 324 375
#     4  10  21  39  64  94 128 164 205 260 325 382
#     4  12  24  39  60  87 127 169 210 254 305 375
#     4  12  24  42  65  92 127 174 215 256 316 374
#
# _framework density 18.964003999999999
#
# number of rings (size 3 to 8) (size 9 to 14) (size 15 to 20)
#    0.000    0.833    4.167    4.250    2.333    2.500 
#    0.000    0.000    0.000    3.000    0.000    0.000 
#    0.000    0.000    0.000    0.000    0.000    0.000 
#
# Total GULP energy -268081.457803 kJ/mol
# GULP energy per Si atom -5585.030371 kJ/mol
# Density = 1.892084 g / cm^3
# Si number density = 18.964004 Si / 1000 Ang^3
#
#
#
# Elastic Constant Matrix: (Units=GPa)
#
#
# Indices 1 2 3 4 5 6 
#
# 1 108.0865 29.6565 52.6180 0.0000 0.0000 0.0000
# 2 29.6565 123.7011 38.5555 0.0000 0.0000 0.0000
# 3 52.6180 38.5555 103.1295 0.0000 0.0000 0.0000
# 4 0.0000 0.0000 0.0000 8.7169 0.0000 0.0000
# 5 0.0000 0.0000 0.0000 0.0000 24.3749 0.0000
# 6 0.0000 0.0000 0.0000 0.0000 0.0000 6.5763
#
#
#
# Elastic Compliance Matrix: (Units=1/GPa)
#
#
# Indices 1 2 3 4 5 6 
#
# 1 0.012449 -0.001137 -0.005926 0.000000 0.000000 0.000000
# 2 -0.001137 0.009254 -0.002879 0.000000 0.000000 0.000000
# 3 -0.005926 -0.002879 0.013797 0.000000 0.000000 0.000000
# 4 0.000000 0.000000 0.000000 0.114720 0.000000 0.000000
# 5 0.000000 0.000000 0.000000 0.000000 0.041026 0.000000
# 6 0.000000 0.000000 0.000000 0.000000 0.000000 0.152061
#
#
# Mechanical properties :
#
#
# Convention : Reuss Voigt Hill
#
# Bulk Modulus (GPa) = 64.04723 64.06412 64.05568
# Shear Modulus (GPa) = 13.57230 22.20608 17.88919
#
# Velocity S-wave (km/s) = 2.67814 3.42564 3.07469
# Velocity P-wave (km/s) = 6.58860 7.03576 6.81585
#
# Compressibility (1/GPa) = 0.01561348
#
# Stress axis : x y z
#
# Youngs Moduli (GPa) = 80.32776 108.05976 72.48076
#
# Poissons Ratio (x) = 0.12291 0.42955
# Poissons Ratio (y) = 0.09136 0.20870
# Poissons Ratio (z) = 0.47606 0.31115
#
# Static dielectric constant tensor:
#      x y z
#    x 1.696100 0.000000 0.000000 
#    y 0.000000 1.661530 0.000000 
#    z 0.000000 0.000000 1.639600 
# 
# From -- ./inp_files/41179.got.cif
#   From: 2010.05.17/outbox.cif.g08.bks.cpg/sg69_21_cif.got.tgz:41179.got - 2010.06.03 19:29:58.
