data_PCOD9513685
_publ_section_title
;
Structure prediction by ZEFSAII (Michael W. Deem and Ramdas Pophale) SiO2 
 PCOD9513685
Probable space group: F M M M
;
_chemical_formula_sum "Si O2"
_cell_formula_units_Z 176
_cell_length_a 14.066618
_cell_length_b 28.720119
_cell_length_c 22.060365
_cell_angle_alpha 90.000000
_cell_angle_beta 90.000000
_cell_angle_gamma 90.000000
_cell_volume 8912.275898
_symmetry_space_group_name_H-M "F M M M"
_symmetry_group_IT_number 69
_symmetry_cell_setting 'orthorhombic'
loop_
_space_group_symop_operation_xyz
x,y,z
-x,-y,z
x,-y,-z
-x,y,-z
-x,-y,-z
x,y,-z
-x,y,z
x,-y,z
x,1/2+y,1/2+z
-x,1/2-y,1/2+z
x,1/2-y,1/2-z
-x,1/2+y,1/2-z
-x,1/2-y,1/2-z
x,1/2+y,1/2-z
-x,1/2+y,1/2+z
x,1/2-y,1/2+z
1/2+x,y,1/2+z
1/2-x,-y,1/2+z
1/2+x,-y,1/2-z
1/2-x,y,1/2-z
1/2-x,-y,1/2-z
1/2+x,y,1/2-z
1/2-x,y,1/2+z
1/2+x,-y,1/2+z
1/2+x,1/2+y,z
1/2-x,1/2-y,z
1/2+x,1/2-y,-z
1/2-x,1/2+y,-z
1/2-x,1/2-y,-z
1/2+x,1/2+y,-z
1/2-x,1/2+y,z
1/2+x,1/2-y,z
loop_
_atom_site_type_symbol
_atom_site_label
_atom_site_fract_x
_atom_site_fract_y
_atom_site_fract_z
Si Si1 0.108873 0.361951 0.852464
Si Si2 0.609712 0.000000 0.573223
Si Si3 0.115377 0.721706 0.065578
Si Si4 0.861824 0.303457 0.738277
Si Si5 0.110289 0.676738 0.597221
Si Si6 0.262037 0.088854 0.570699
O O1 0.144907 0.313871 0.883371
O O2 0.106654 0.345376 0.782810
O O3 0.177671 0.400829 0.881022
O O4 0.000000 0.371383 0.871162
O O5 0.672033 0.954734 0.589150
O O6 0.500000 0.000000 0.595961
O O7 0.603238 0.000000 0.500000
O O8 0.148808 0.774212 0.072337
O O9 0.000000 0.724640 0.069892
O O10 0.139634 0.702153 0.000000
O O11 0.897269 0.250000 0.750000
O O12 0.750000 0.301087 0.750000
O O13 0.884501 0.317442 0.669772
O O14 0.170421 0.633817 0.574169
O O15 0.000000 0.671276 0.579288
O O16 0.230019 0.082781 0.500000
#
# Coordination Sequence:
#
# PCOD9513685 Si02
#       6
#    32  16  32  32  32  32
#     4  11  22  37  57  82 120 166 204 242 285 344
#     4   9  20  42  69  92 117 149 187 241 308 369
#     4   9  18  31  48  76 116 159 196 233 285 345
#     4  11  21  36  56  81 118 166 215 253 286 332
#     4  11  21  34  56  84 116 155 199 249 298 347
#     4  11  23  39  61  90 119 149 192 247 303 362
#
# _framework density 19.748042000000002
#
# number of rings (size 3 to 8) (size 9 to 14) (size 15 to 20)
#    0.000    1.545    3.636    2.182    0.000    4.364 
#    0.000    2.273    0.000    3.818    0.000    2.545 
#    0.000    0.000    0.000    0.000    0.000    0.000 
#
# Total GULP energy -245624.675693 kJ/mol
# GULP energy per Si atom -5582.378993 kJ/mol
# Density = 1.970309 g / cm^3
# Si number density = 19.748042 Si / 1000 Ang^3
#
#
#
# Elastic Constant Matrix: (Units=GPa)
#
#
# Indices 1 2 3 4 5 6 
#
# 1 125.7994 43.1852 1.0653 0.0000 0.0000 0.0000
# 2 43.1852 93.7190 11.8313 0.0000 0.0000 0.0000
# 3 1.0653 11.8313 85.9792 0.0000 0.0000 0.0000
# 4 0.0000 0.0000 0.0000 -80.3868 0.0000 0.0000
# 5 0.0000 0.0000 0.0000 0.0000 16.9677 0.0000
# 6 0.0000 0.0000 0.0000 0.0000 0.0000 13.1656
#
#
#
# Elastic Compliance Matrix: (Units=1/GPa)
#
#
# Indices 1 2 3 4 5 6 
#
# 1 0.009463 -0.004423 0.000491 0.000000 0.000000 0.000000
# 2 -0.004423 0.012926 -0.001724 0.000000 0.000000 0.000000
# 3 0.000491 -0.001724 0.011862 0.000000 0.000000 0.000000
# 4 0.000000 0.000000 0.000000 -0.012440 0.000000 0.000000
# 5 0.000000 0.000000 0.000000 0.000000 0.058935 0.000000
# 6 0.000000 0.000000 0.000000 0.000000 0.000000 0.075956
#
#
# Mechanical properties :
#
#
# Convention : Reuss Voigt Hill
#
# Bulk Modulus (GPa) = 43.59105 46.40680 44.99892
# Shear Modulus (GPa) = 28.46419 6.57702 17.52061
#
# Velocity S-wave (km/s) = 3.80065 1.82694 2.98183
# Velocity P-wave (km/s) = 6.43284 5.29157 5.88992
#
# Compressibility (1/GPa) = 0.02294049
#
# Stress axis : x y z
#
# Youngs Moduli (GPa) = 105.67218 77.36504 84.30390
#
# Poissons Ratio (x) = 0.34216 -0.04142
# Poissons Ratio (y) = 0.46735 0.14533
# Poissons Ratio (z) = -0.05192 0.13337
#
# Static dielectric constant tensor:
#      x y z
#    x 1.753860 0.000000 0.000000 
#    y 0.000000 1.668880 0.000000 
#    z 0.000000 0.000000 1.714470 
# 
# From -- ./inp_files/17900.got.cif
#   From: 2010.05.17/outbox.cif.g08.bks.cpg/sg69_9_cif.got.tgz:17900.got - 2010.06.03 19:29:58.
