data_PCOD9513454
_publ_section_title
;
Structure prediction by ZEFSAII (Michael W. Deem and Ramdas Pophale) SiO2 
 PCOD9513454
Probable space group: F M M M
;
_chemical_formula_sum "Si O2"
_cell_formula_units_Z 168
_cell_length_a 25.041098
_cell_length_b 15.544603
_cell_length_c 19.724295
_cell_angle_alpha 90.000000
_cell_angle_beta 90.000000
_cell_angle_gamma 90.000000
_cell_volume 7677.759288
_symmetry_space_group_name_H-M "F M M M"
_symmetry_group_IT_number 69
_symmetry_cell_setting 'orthorhombic'
loop_
_space_group_symop_operation_xyz
x,y,z
-x,-y,z
x,-y,-z
-x,y,-z
-x,-y,-z
x,y,-z
-x,y,z
x,-y,z
x,1/2+y,1/2+z
-x,1/2-y,1/2+z
x,1/2-y,1/2-z
-x,1/2+y,1/2-z
-x,1/2-y,1/2-z
x,1/2+y,1/2-z
-x,1/2+y,1/2+z
x,1/2-y,1/2+z
1/2+x,y,1/2+z
1/2-x,-y,1/2+z
1/2+x,-y,1/2-z
1/2-x,y,1/2-z
1/2-x,-y,1/2-z
1/2+x,y,1/2-z
1/2-x,y,1/2+z
1/2+x,-y,1/2+z
1/2+x,1/2+y,z
1/2-x,1/2-y,z
1/2+x,1/2-y,-z
1/2-x,1/2+y,-z
1/2-x,1/2-y,-z
1/2+x,1/2+y,-z
1/2-x,1/2+y,z
1/2+x,1/2-y,z
loop_
_atom_site_type_symbol
_atom_site_label
_atom_site_fract_x
_atom_site_fract_y
_atom_site_fract_z
Si Si1 0.577617 0.342570 0.281459
Si Si2 0.000000 0.000000 0.754114
Si Si3 0.091074 0.780477 0.576800
Si Si4 0.198209 0.598420 0.214871
Si Si5 0.937516 0.408308 0.582181
Si Si6 0.785854 0.333829 0.074242
O O1 0.563093 0.250000 0.250000
O O2 0.546223 0.422966 0.250908
O O3 0.566694 0.337158 0.362961
O O4 0.641607 0.355716 0.274170
O O5 0.067883 0.787674 0.500000
O O6 0.087595 0.681602 0.601481
O O7 0.152916 0.803413 0.571094
O O8 0.192197 0.500000 0.238045
O O9 0.250000 0.638828 0.250000
O O10 0.213975 0.600957 0.135762
O O11 0.935997 0.409418 0.500000
O O12 0.914621 0.500000 0.605509
O O13 0.000000 0.407527 0.601858
O O14 0.750000 0.250000 0.088132
O O15 0.770116 0.367889 0.000000
#
# Coordination Sequence:
#
# PCOD9513454 Si02
#       6
#    32   8  32  32  32  32
#     4  11  25  45  70  96 130 181 218 272 342 395
#     4  12  26  52  67  94 145 166 230 280 320 422
#     4   9  19  37  61  93 128 164 213 263 317 389
#     4  10  22  40  66  99 129 166 224 281 325 393
#     4   8  14  27  48  78 118 158 199 250 299 350
#     4   9  19  35  58  90 129 170 206 256 330 396
#
# _framework density 21.881385000000002
#
# number of rings (size 3 to 8) (size 9 to 14) (size 15 to 20)
#    0.000    2.476    0.952    0.857    6.667    0.381 
#    1.714    1.905    0.000    3.429    0.000    0.000 
#    0.000    0.000    0.000    0.000    0.000    0.000 
#
# Total GULP energy -233842.544100 kJ/mol
# GULP energy per Si atom -5567.679621 kJ/mol
# Density = 2.183158 g / cm^3
# Si number density = 21.881385 Si / 1000 Ang^3
#
#
#
# Elastic Constant Matrix: (Units=GPa)
#
#
# Indices 1 2 3 4 5 6 
#
# 1 85.4958 25.8427 37.0992 0.0000 0.0000 0.0000
# 2 25.8427 101.0370 34.0238 0.0000 0.0000 0.0000
# 3 37.0992 34.0238 76.2969 0.0000 0.0000 0.0000
# 4 0.0000 0.0000 0.0000 28.1980 0.0000 0.0000
# 5 0.0000 0.0000 0.0000 0.0000 7.2863 0.0000
# 6 0.0000 0.0000 0.0000 0.0000 0.0000 25.8391
#
#
#
# Elastic Compliance Matrix: (Units=1/GPa)
#
#
# Indices 1 2 3 4 5 6 
#
# 1 0.015049 -0.001630 -0.006591 0.000000 0.000000 0.000000
# 2 -0.001630 0.011823 -0.004480 0.000000 0.000000 0.000000
# 3 -0.006591 -0.004480 0.018309 0.000000 0.000000 0.000000
# 4 0.000000 0.000000 0.000000 0.035464 0.000000 0.000000
# 5 0.000000 0.000000 0.000000 0.000000 0.137244 0.000000
# 6 0.000000 0.000000 0.000000 0.000000 0.000000 0.038701
#
#
# Mechanical properties :
#
#
# Convention : Reuss Voigt Hill
#
# Bulk Modulus (GPa) = 50.55527 50.75124 50.65326
# Shear Modulus (GPa) = 17.32601 23.32227 20.32414
#
# Velocity S-wave (km/s) = 2.81697 3.26828 3.05098
# Velocity P-wave (km/s) = 5.80817 6.12261 5.96746
#
# Compressibility (1/GPa) = 0.01978033
#
# Stress axis : x y z
#
# Youngs Moduli (GPa) = 66.44934 84.58257 54.61745
#
# Poissons Ratio (x) = 0.13785 0.35997
# Poissons Ratio (y) = 0.10829 0.24467
# Poissons Ratio (z) = 0.43795 0.37891
#
# Static dielectric constant tensor:
#      x y z
#    x 1.807140 0.000000 0.000000 
#    y 0.000000 1.787550 0.000000 
#    z 0.000000 0.000000 1.915150 
# 
# From -- ./inp_files/33426.got.cif
#   From: 2010.05.17/outbox.cif.g08.bks.cpg/sg69_17_cif.got.tgz:33426.got - 2010.06.03 19:29:58.
