data_PCOD9513909
_publ_section_title
;
Structure prediction by ZEFSAII (Michael W. Deem and Ramdas Pophale) SiO2 
 PCOD9513909
Probable space group: F M M M
;
_chemical_formula_sum "Si O2"
_cell_formula_units_Z 176
_cell_length_a 14.305695
_cell_length_b 28.072912
_cell_length_c 23.892094
_cell_angle_alpha 90.000000
_cell_angle_beta 90.000000
_cell_angle_gamma 90.000000
_cell_volume 9595.125083
_symmetry_space_group_name_H-M "F M M M"
_symmetry_group_IT_number 69
_symmetry_cell_setting 'orthorhombic'
loop_
_space_group_symop_operation_xyz
x,y,z
-x,-y,z
x,-y,-z
-x,y,-z
-x,-y,-z
x,y,-z
-x,y,z
x,-y,z
x,1/2+y,1/2+z
-x,1/2-y,1/2+z
x,1/2-y,1/2-z
-x,1/2+y,1/2-z
-x,1/2-y,1/2-z
x,1/2+y,1/2-z
-x,1/2+y,1/2+z
x,1/2-y,1/2+z
1/2+x,y,1/2+z
1/2-x,-y,1/2+z
1/2+x,-y,1/2-z
1/2-x,y,1/2-z
1/2-x,-y,1/2-z
1/2+x,y,1/2-z
1/2-x,y,1/2+z
1/2+x,-y,1/2+z
1/2+x,1/2+y,z
1/2-x,1/2-y,z
1/2+x,1/2-y,-z
1/2-x,1/2+y,-z
1/2-x,1/2-y,-z
1/2+x,1/2+y,-z
1/2-x,1/2+y,z
1/2+x,1/2-y,z
loop_
_atom_site_type_symbol
_atom_site_label
_atom_site_fract_x
_atom_site_fract_y
_atom_site_fract_z
Si Si1 0.103254 0.692678 0.246303
Si Si2 0.717039 0.400517 0.106602
Si Si3 0.750458 0.806415 0.344818
Si Si4 0.107644 0.557600 0.838494
Si Si5 0.389036 0.942692 0.500000
Si Si6 0.612495 0.444464 0.211790
O O1 0.095695 0.750000 0.250000
O O2 0.152750 0.682037 0.187381
O O3 0.172236 0.682978 0.297519
O O4 0.000000 0.671596 0.251827
O O5 0.730074 0.343515 0.106333
O O6 0.819331 0.422802 0.116956
O O7 0.659797 0.416066 0.162003
O O8 0.662208 0.421311 0.054136
O O9 0.750000 0.750000 0.358079
O O10 0.109994 0.500000 0.838655
O O11 0.135855 0.572100 0.774855
O O12 0.000000 0.571975 0.847921
O O13 0.500000 0.931565 0.500000
O O14 0.380164 0.000000 0.500000
O O15 0.500000 0.443067 0.206994
O O16 0.641233 0.500000 0.206671
#
# Coordination Sequence:
#
# PCOD9513909 Si02
#       6
#    32  32  32  32  16  32
#     4   8  15  30  50  74 112 154 183 219 274 325
#     4  12  22  35  58  81 107 154 192 229 281 341
#     4   9  20  34  49  80 116 147 189 231 268 327
#     4   9  19  34  53  82 115 142 177 228 282 343
#     4  11  26  46  64  85 111 139 185 244 293 347
#     4   9  18  32  52  82 116 145 180 232 290 346
#
# _framework density 18.342648000000001
#
# number of rings (size 3 to 8) (size 9 to 14) (size 15 to 20)
#    0.000    2.455    0.000    4.909    5.091    5.091 
#    0.000    0.909    0.000    1.636    0.000    0.000 
#    0.000    0.000    0.000    0.000    0.000    0.000 
#
# Total GULP energy -245600.763139 kJ/mol
# GULP energy per Si atom -5581.835526 kJ/mol
# Density = 1.830090 g / cm^3
# Si number density = 18.342648 Si / 1000 Ang^3
#
#
#
# Elastic Constant Matrix: (Units=GPa)
#
#
# Indices 1 2 3 4 5 6 
#
# 1 118.2220 34.9794 62.8371 0.0000 0.0000 0.0000
# 2 34.9794 109.3795 54.2573 0.0000 0.0000 0.0000
# 3 62.8371 54.2573 86.1341 0.0000 0.0000 0.0000
# 4 0.0000 0.0000 0.0000 25.8387 0.0000 0.0000
# 5 0.0000 0.0000 0.0000 0.0000 22.7328 0.0000
# 6 0.0000 0.0000 0.0000 0.0000 0.0000 -2.7515
#
#
#
# Elastic Compliance Matrix: (Units=1/GPa)
#
#
# Indices 1 2 3 4 5 6 
#
# 1 0.013870 0.000849 -0.010653 0.000000 0.000000 0.000000
# 2 0.000849 0.013349 -0.009028 0.000000 0.000000 0.000000
# 3 -0.010653 -0.009028 0.025069 0.000000 0.000000 0.000000
# 4 0.000000 0.000000 0.000000 0.038702 0.000000 0.000000
# 5 0.000000 0.000000 0.000000 0.000000 0.043989 0.000000
# 6 0.000000 0.000000 0.000000 0.000000 0.000000 -0.363440
#
#
# Mechanical properties :
#
#
# Convention : Reuss Voigt Hill
#
# Bulk Modulus (GPa) = 68.38645 68.65369 68.52007
# Shear Modulus (GPa) = -26.89306 19.94145 -3.47581
#
# Velocity S-wave (km/s) = -3.83319 3.30079 -1.37806
# Velocity P-wave (km/s) = 4.21576 7.21365 5.90801
#
# Compressibility (1/GPa) = 0.01462278
#
# Stress axis : x y z
#
# Youngs Moduli (GPa) = 72.09895 74.90924 39.89047
#
# Poissons Ratio (x) = -0.06359 0.42496
# Poissons Ratio (y) = -0.06120 0.36015
# Poissons Ratio (z) = 0.76808 0.67631
#
# Static dielectric constant tensor:
#      x y z
#    x 1.665780 0.000000 0.000000 
#    y 0.000000 1.685900 0.000000 
#    z 0.000000 0.000000 1.596440 
# 
# From -- ./inp_files/36155.got.cif
#   From: 2010.05.17/outbox.cif.g08.bks.cpg/sg69_19_cif.got.tgz:36155.got - 2010.06.03 19:29:58.
