data_PCOD9513951
_publ_section_title
;
Structure prediction by ZEFSAII (Michael W. Deem and Ramdas Pophale) SiO2 
 PCOD9513951
Probable space group: F M M M
;
_chemical_formula_sum "Si O2"
_cell_formula_units_Z 176
_cell_length_a 17.727387
_cell_length_b 30.419736
_cell_length_c 14.575234
_cell_angle_alpha 90.000000
_cell_angle_beta 90.000000
_cell_angle_gamma 90.000000
_cell_volume 7859.876141
_symmetry_space_group_name_H-M "F M M M"
_symmetry_group_IT_number 69
_symmetry_cell_setting 'orthorhombic'
loop_
_space_group_symop_operation_xyz
x,y,z
-x,-y,z
x,-y,-z
-x,y,-z
-x,-y,-z
x,y,-z
-x,y,z
x,-y,z
x,1/2+y,1/2+z
-x,1/2-y,1/2+z
x,1/2-y,1/2-z
-x,1/2+y,1/2-z
-x,1/2-y,1/2-z
x,1/2+y,1/2-z
-x,1/2+y,1/2+z
x,1/2-y,1/2+z
1/2+x,y,1/2+z
1/2-x,-y,1/2+z
1/2+x,-y,1/2-z
1/2-x,y,1/2-z
1/2-x,-y,1/2-z
1/2+x,y,1/2-z
1/2-x,y,1/2+z
1/2+x,-y,1/2+z
1/2+x,1/2+y,z
1/2-x,1/2-y,z
1/2+x,1/2-y,-z
1/2-x,1/2+y,-z
1/2-x,1/2-y,-z
1/2+x,1/2+y,-z
1/2-x,1/2+y,z
1/2+x,1/2-y,z
loop_
_atom_site_type_symbol
_atom_site_label
_atom_site_fract_x
_atom_site_fract_y
_atom_site_fract_z
Si Si1 0.586713 0.228315 0.350106
Si Si2 0.500000 0.950663 0.888458
Si Si3 0.587351 0.868257 0.388615
Si Si4 0.809883 0.550013 0.387381
Si Si5 0.413279 0.180023 0.895528
Si Si6 0.844118 0.094439 0.611700
O O1 0.500000 0.223294 0.383524
O O2 0.585615 0.250000 0.250000
O O3 0.618402 0.179385 0.356027
O O4 0.618560 0.270723 0.400975
O O5 0.423356 0.927040 0.861915
O O6 0.500000 0.000000 0.853916
O O7 0.500000 0.951515 0.000000
O O8 0.589569 0.866562 0.500000
O O9 0.500000 0.872152 0.359646
O O10 0.632779 0.911401 0.359157
O O11 0.811605 0.549022 0.500000
O O12 0.825614 0.500000 0.356999
O O13 0.727395 0.566696 0.356907
O O14 0.500000 0.179589 0.855354
O O15 0.355062 0.144748 0.855697
O O16 0.424050 0.165395 0.000000
O O17 0.836764 0.093406 0.500000
#
# Coordination Sequence:
#
# PCOD9513951 Si02
#       6
#    32  16  32  32  32  32
#     4   9  17  29  47  71  95 120 157 196 240 287
#     4   9  14  20  34  58  89 120 150 184 223 274
#     4   9  17  30  48  70  96 125 159 199 242 288
#     4   9  17  28  43  66  97 128 158 198 243 282
#     4   9  15  25  43  67  95 124 153 186 230 285
#     4   9  15  24  38  62  93 124 155 185 228 280
#
# _framework density 22.392211
#
# number of rings (size 3 to 8) (size 9 to 14) (size 15 to 20)
#    0.000    3.000    0.909    1.091    0.000    4.727 
#    0.000    2.727    0.000    6.545    0.000    3.818 
#    0.000    0.000    0.000    0.000    0.000    0.182 
#
# Total GULP energy -245146.531662 kJ/mol
# GULP energy per Si atom -5571.512083 kJ/mol
# Density = 2.234125 g / cm^3
# Si number density = 22.392211 Si / 1000 Ang^3
#
#
#
# Elastic Constant Matrix: (Units=GPa)
#
#
# Indices 1 2 3 4 5 6 
#
# 1 75.2047 87.7187 4.2899 0.0000 0.0000 0.0000
# 2 87.7187 264.5840 13.3546 0.0000 0.0000 0.0000
# 3 4.2899 13.3546 44.1298 0.0000 0.0000 0.0000
# 4 0.0000 0.0000 0.0000 -8.5597 0.0000 0.0000
# 5 0.0000 0.0000 0.0000 0.0000 -1.8406 0.0000
# 6 0.0000 0.0000 0.0000 0.0000 0.0000 -3.9067
#
#
#
# Elastic Compliance Matrix: (Units=1/GPa)
#
#
# Indices 1 2 3 4 5 6 
#
# 1 0.021681 -0.007192 0.000069 0.000000 0.000000 0.000000
# 2 -0.007192 0.006224 -0.001184 0.000000 0.000000 0.000000
# 3 0.000069 -0.001184 0.023012 0.000000 0.000000 0.000000
# 4 0.000000 0.000000 0.000000 -0.116827 0.000000 0.000000
# 5 0.000000 0.000000 0.000000 0.000000 -0.543306 0.000000
# 6 0.000000 0.000000 0.000000 0.000000 0.000000 -0.255972
#
#
# Mechanical properties :
#
#
# Convention : Reuss Voigt Hill
#
# Bulk Modulus (GPa) = 29.15230 66.07166 47.61198
# Shear Modulus (GPa) = -5.97272 15.70898 4.86813
#
# Velocity S-wave (km/s) = -1.63497 2.65153 1.47606
# Velocity P-wave (km/s) = 3.07946 6.24057 4.92076
#
# Compressibility (1/GPa) = 0.03430261
#
# Stress axis : x y z
#
# Youngs Moduli (GPa) = 46.12254 160.68003 43.45536
#
# Poissons Ratio (x) = 1.15554 -0.00298
# Poissons Ratio (y) = 0.33169 0.05146
# Poissons Ratio (z) = -0.00317 0.19029
#
# Static dielectric constant tensor:
#      x y z
#    x -1.821030 0.000000 0.000000 
#    y 0.000000 1.871180 0.000000 
#    z 0.000000 0.000000 2.415170 
# 
# From -- ./inp_files/23537.got.cif
#   From: 2010.05.17/outbox.cif.g08.bks.cpg/sg69_12_cif.got.tgz:23537.got - 2010.06.03 19:29:58.
