data_PCOD9513195
_publ_section_title
;
Structure prediction by ZEFSAII (Michael W. Deem and Ramdas Pophale) SiO2 
 PCOD9513195
Probable space group: F M M M
;
_chemical_formula_sum "Si O2"
_cell_formula_units_Z 176
_cell_length_a 18.481310
_cell_length_b 14.656360
_cell_length_c 28.428734
_cell_angle_alpha 90.000000
_cell_angle_beta 90.000000
_cell_angle_gamma 90.000000
_cell_volume 7700.455149
_symmetry_space_group_name_H-M "F M M M"
_symmetry_group_IT_number 69
_symmetry_cell_setting 'orthorhombic'
loop_
_space_group_symop_operation_xyz
x,y,z
-x,-y,z
x,-y,-z
-x,y,-z
-x,-y,-z
x,y,-z
-x,y,z
x,-y,z
x,1/2+y,1/2+z
-x,1/2-y,1/2+z
x,1/2-y,1/2-z
-x,1/2+y,1/2-z
-x,1/2-y,1/2-z
x,1/2+y,1/2-z
-x,1/2+y,1/2+z
x,1/2-y,1/2+z
1/2+x,y,1/2+z
1/2-x,-y,1/2+z
1/2+x,-y,1/2-z
1/2-x,y,1/2-z
1/2-x,-y,1/2-z
1/2+x,y,1/2-z
1/2-x,y,1/2+z
1/2+x,-y,1/2+z
1/2+x,1/2+y,z
1/2-x,1/2-y,z
1/2+x,1/2-y,-z
1/2-x,1/2+y,-z
1/2-x,1/2-y,-z
1/2+x,1/2+y,-z
1/2-x,1/2+y,z
1/2+x,1/2-y,z
loop_
_atom_site_type_symbol
_atom_site_label
_atom_site_fract_x
_atom_site_fract_y
_atom_site_fract_z
Si Si1 0.083250 0.808827 0.409080
Si Si2 0.620138 0.395823 0.685755
Si Si3 0.806727 0.167145 0.947791
Si Si4 0.580676 0.110324 0.291785
Si Si5 0.916239 0.000000 0.555662
Si Si6 0.273941 0.644572 0.848499
O O1 0.090776 0.826968 0.353578
O O2 0.121976 0.720929 0.430022
O O3 0.000000 0.805047 0.423052
O O4 0.116593 0.903932 0.428704
O O5 0.593518 0.500000 0.677305
O O6 0.596388 0.365939 0.737413
O O7 0.707178 0.398226 0.679837
O O8 0.750000 0.250000 0.952328
O O9 0.782918 0.109807 0.902096
O O10 0.814318 0.125617 0.000000
O O11 0.500000 0.142311 0.305971
O O12 0.649829 0.138142 0.322311
O O13 0.579460 0.000000 0.293631
O O14 0.917606 0.000000 0.500000
O O15 0.000000 0.000000 0.573222
O O16 0.250000 0.750000 0.852416
#
# Coordination Sequence:
#
# PCOD9513195 Si02
#       6
#    32  32  32  32  16  32
#     4  11  20  33  54  82 115 151 194 242 293 354
#     4  11  21  38  61  88 121 160 197 238 299 366
#     4  10  21  39  58  78 114 159 199 241 294 356
#     4  10  23  42  65  90 120 162 207 250 300 361
#     4   9  18  30  48  78 113 146 183 235 291 344
#     4  11  22  41  61  91 120 159 201 251 302 358
#
# _framework density 22.855792000000001
#
# number of rings (size 3 to 8) (size 9 to 14) (size 15 to 20)
#    0.000    1.545    4.545    2.182    0.000    5.455 
#    0.000    0.909    0.000    1.636    0.000    1.273 
#    0.000    0.000    0.000    0.000    0.000    0.000 
#
# Total GULP energy -245832.665829 kJ/mol
# GULP energy per Si atom -5587.106042 kJ/mol
# Density = 2.280377 g / cm^3
# Si number density = 22.855792 Si / 1000 Ang^3
#
#
#
# Elastic Constant Matrix: (Units=GPa)
#
#
# Indices 1 2 3 4 5 6 
#
# 1 140.0522 9.7788 35.6594 0.0000 0.0000 0.0000
# 2 9.7788 52.4103 3.7186 0.0000 0.0000 0.0000
# 3 35.6594 3.7186 117.6919 0.0000 0.0000 0.0000
# 4 0.0000 0.0000 0.0000 10.8399 0.0000 0.0000
# 5 0.0000 0.0000 0.0000 0.0000 16.3271 0.0000
# 6 0.0000 0.0000 0.0000 0.0000 0.0000 14.4820
#
#
#
# Elastic Compliance Matrix: (Units=1/GPa)
#
#
# Indices 1 2 3 4 5 6 
#
# 1 0.007824 -0.001294 -0.002330 0.000000 0.000000 0.000000
# 2 -0.001294 0.019337 -0.000219 0.000000 0.000000 0.000000
# 3 -0.002330 -0.000219 0.009210 0.000000 0.000000 0.000000
# 4 0.000000 0.000000 0.000000 0.092252 0.000000 0.000000
# 5 0.000000 0.000000 0.000000 0.000000 0.061248 0.000000
# 6 0.000000 0.000000 0.000000 0.000000 0.000000 0.069051
#
#
# Mechanical properties :
#
#
# Convention : Reuss Voigt Hill
#
# Bulk Modulus (GPa) = 34.86164 45.38532 40.12348
# Shear Modulus (GPa) = 18.10489 25.72965 21.91727
#
# Velocity S-wave (km/s) = 2.81754 3.35884 3.10003
# Velocity P-wave (km/s) = 5.08633 5.91124 5.51423
#
# Compressibility (1/GPa) = 0.02868482
#
# Stress axis : x y z
#
# Youngs Moduli (GPa) = 127.81631 51.71363 108.58332
#
# Poissons Ratio (x) = 0.06694 0.25296
# Poissons Ratio (y) = 0.16546 0.02375
# Poissons Ratio (z) = 0.29776 0.01131
#
# Static dielectric constant tensor:
#      x y z
#    x 1.864500 0.000000 0.000000 
#    y 0.000000 1.921200 0.000000 
#    z 0.000000 0.000000 1.886700 
# 
# From -- ./inp_files/23567.got.cif
#   From: 2010.05.17/outbox.cif.g08.bks.cpg/sg69_12_cif.got.tgz:23567.got - 2010.06.03 19:29:58.
