data_PCOD9513616
_publ_section_title
;
Structure prediction by ZEFSAII (Michael W. Deem and Ramdas Pophale) SiO2 
 PCOD9513616
Probable space group: F M M M
;
_chemical_formula_sum "Si O2"
_cell_formula_units_Z 160
_cell_length_a 14.111475
_cell_length_b 23.791722
_cell_length_c 24.782771
_cell_angle_alpha 90.000000
_cell_angle_beta 90.000000
_cell_angle_gamma 90.000000
_cell_volume 8320.475597
_symmetry_space_group_name_H-M "F M M M"
_symmetry_group_IT_number 69
_symmetry_cell_setting 'orthorhombic'
loop_
_space_group_symop_operation_xyz
x,y,z
-x,-y,z
x,-y,-z
-x,y,-z
-x,-y,-z
x,y,-z
-x,y,z
x,-y,z
x,1/2+y,1/2+z
-x,1/2-y,1/2+z
x,1/2-y,1/2-z
-x,1/2+y,1/2-z
-x,1/2-y,1/2-z
x,1/2+y,1/2-z
-x,1/2+y,1/2+z
x,1/2-y,1/2+z
1/2+x,y,1/2+z
1/2-x,-y,1/2+z
1/2+x,-y,1/2-z
1/2-x,y,1/2-z
1/2-x,-y,1/2-z
1/2+x,y,1/2-z
1/2-x,y,1/2+z
1/2+x,-y,1/2+z
1/2+x,1/2+y,z
1/2-x,1/2-y,z
1/2+x,1/2-y,-z
1/2-x,1/2+y,-z
1/2-x,1/2-y,-z
1/2+x,1/2+y,-z
1/2-x,1/2+y,z
1/2+x,1/2-y,z
loop_
_atom_site_type_symbol
_atom_site_label
_atom_site_fract_x
_atom_site_fract_y
_atom_site_fract_z
Si Si1 0.353648 0.721276 0.199319
Si Si2 0.777013 0.652080 0.940162
Si Si3 0.281636 0.063190 0.158592
Si Si4 0.886484 0.906456 0.230602
Si Si5 0.895027 0.764143 0.078095
O O1 0.400755 0.750000 0.250000
O O2 0.250000 0.750000 0.194143
O O3 0.355146 0.656595 0.215175
O O4 0.399196 0.731578 0.142451
O O5 0.783875 0.608539 0.890207
O O6 0.853153 0.702785 0.935301
O O7 0.678238 0.686895 0.937909
O O8 0.785964 0.626011 0.000000
O O9 0.177961 0.060998 0.187104
O O10 0.351062 0.079805 0.208649
O O11 0.305666 0.000000 0.139949
O O12 0.000000 0.913464 0.225921
O O13 0.000000 0.771847 0.056833
#
# Coordination Sequence:
#
# PCOD9513616 Si02
#       5
#    32  32  32  32  32
#     4  11  19  31  55  89 130 160 189 236 297 369
#     4  11  24  42  61  87 123 159 206 257 299 359
#     4  11  24  42  63  89 123 161 208 261 303 358
#     4  11  22  39  63  91 124 161 199 248 309 369
#     4  11  21  38  62  89 121 157 197 246 306 368
#
# _framework density 19.229669999999999
#
# number of rings (size 3 to 8) (size 9 to 14) (size 15 to 20)
#    0.000    1.000    4.000    6.600    0.000    7.600 
#    0.000    0.000    0.000    0.000    0.000    5.600 
#    0.000    0.000    0.000    0.000    0.000    0.000 
#
# Total GULP energy -223141.075691 kJ/mol
# GULP energy per Si atom -5578.526892 kJ/mol
# Density = 1.918590 g / cm^3
# Si number density = 19.229670 Si / 1000 Ang^3
#
#
#
# Elastic Constant Matrix: (Units=GPa)
#
#
# Indices 1 2 3 4 5 6 
#
# 1 117.7780 23.6958 7.7422 0.0000 0.0000 0.0000
# 2 23.6958 117.1568 48.2567 0.0000 0.0000 0.0000
# 3 7.7422 48.2567 158.7374 0.0000 0.0000 0.0000
# 4 0.0000 0.0000 0.0000 -2.1051 0.0000 0.0000
# 5 0.0000 0.0000 0.0000 0.0000 -4.6210 0.0000
# 6 0.0000 0.0000 0.0000 0.0000 0.0000 -22.7125
#
#
#
# Elastic Compliance Matrix: (Units=1/GPa)
#
#
# Indices 1 2 3 4 5 6 
#
# 1 0.008853 -0.001844 0.000129 0.000000 0.000000 0.000000
# 2 -0.001844 0.010141 -0.002993 0.000000 0.000000 0.000000
# 3 0.000129 -0.002993 0.007203 0.000000 0.000000 0.000000
# 4 0.000000 0.000000 0.000000 -0.475046 0.000000 0.000000
# 5 0.000000 0.000000 0.000000 0.000000 -0.216405 0.000000
# 6 0.000000 0.000000 0.000000 0.000000 0.000000 -0.044029
#
#
# Mechanical properties :
#
#
# Convention : Reuss Voigt Hill
#
# Bulk Modulus (GPa) = 59.58884 61.45127 60.52005
# Shear Modulus (GPa) = -7.20178 15.04412 3.92117
#
# Velocity S-wave (km/s) = -1.93734 2.80007 1.42953
# Velocity P-wave (km/s) = 5.10401 6.51764 5.85366
#
# Compressibility (1/GPa) = 0.01678167
#
# Stress axis : x y z
#
# Youngs Moduli (GPa) = 112.95600 98.60682 138.82450
#
# Poissons Ratio (x) = 0.18179 -0.01786
# Poissons Ratio (y) = 0.20824 0.41551
# Poissons Ratio (z) = -0.01453 0.29514
#
# Static dielectric constant tensor:
#      x y z
#    x 1.699380 0.000000 0.000000 
#    y 0.000000 1.755580 0.000000 
#    z 0.000000 0.000000 1.704290 
# 
# From -- ./inp_files/35824.got.cif
#   From: 2010.05.17/outbox.cif.g08.bks.cpg/sg69_18_cif.got.tgz:35824.got - 2010.06.03 19:29:58.
