data_PCOD9513967
_publ_section_title
;
Structure prediction by ZEFSAII (Michael W. Deem and Ramdas Pophale) SiO2 
 PCOD9513967
Probable space group: F M M M
;
_chemical_formula_sum "Si O2"
_cell_formula_units_Z 44
_cell_length_a 27.000000
_cell_length_b 18.000000
_cell_length_c 18.000000
_cell_angle_alpha 90.000000
_cell_angle_beta 90.000000
_cell_angle_gamma 90.000000
_cell_volume 8748.000000
_symmetry_space_group_name_H-M "F M M M"
_symmetry_group_IT_number 69
_symmetry_cell_setting 'orthorhombic'
loop_
_space_group_symop_operation_xyz
x,y,z
-x,-y,z
x,-y,-z
-x,y,-z
-x,-y,-z
x,y,-z
-x,y,z
x,-y,z
x,1/2+y,1/2+z
-x,1/2-y,1/2+z
x,1/2-y,1/2-z
-x,1/2+y,1/2-z
-x,1/2-y,1/2-z
x,1/2+y,1/2-z
-x,1/2+y,1/2+z
x,1/2-y,1/2+z
1/2+x,y,1/2+z
1/2-x,-y,1/2+z
1/2+x,-y,1/2-z
1/2-x,y,1/2-z
1/2-x,-y,1/2-z
1/2+x,y,1/2-z
1/2-x,y,1/2+z
1/2+x,-y,1/2+z
1/2+x,1/2+y,z
1/2-x,1/2-y,z
1/2+x,1/2-y,-z
1/2-x,1/2+y,-z
1/2-x,1/2-y,-z
1/2+x,1/2+y,-z
1/2-x,1/2+y,z
1/2+x,1/2-y,z
loop_
_atom_site_type_symbol
_atom_site_label
_atom_site_fract_x
_atom_site_fract_y
_atom_site_fract_z
Si Si1 0.104283 0.659004 0.144538
Si Si2 0.444221 0.911734 0.000000
Si Si3 0.198481 0.587959 0.087050
Si Si4 0.558171 0.693663 0.912460
Si Si5 0.899235 0.588966 0.299890
Si Si6 0.714282 0.910649 0.315982
O O1 0.161978 0.638212 0.135516
O O2 0.089840 0.743644 0.129959
O O3 0.085337 0.627638 0.222678
O O4 0.080862 0.616034 0.074719
O O5 0.500000 0.883063 0.000000
O O6 0.443595 0.000000 0.000000
O O7 0.188813 0.500000 0.103838
O O8 0.255013 0.603821 0.109233
O O9 0.189761 0.599260 0.000000
O O10 0.500000 0.711915 0.906771
O O11 0.569209 0.617764 0.869173
O O12 0.571023 0.691584 0.000000
O O13 0.901496 0.500000 0.291901
O O14 0.842166 0.613634 0.313842
O O15 0.750000 0.882992 0.250000
O O16 0.711662 0.000000 0.307319
#
# Coordination Sequence:
#
# PCOD9513967 Si02
#       6
#    32  16  32  32  32  32
#     4  12  21  38  64  93 129 165 209 258 323 391
#     4  11  22  34  56  92 130 163 203 261 322 385
#     4  10  18  30  56  92 128 168 209 250 306 379
#     4  11  26  48  68  87 123 175 220 264 324 384
#     4  11  24  41  68 100 128 163 216 272 316 372
#     4   9  17  33  57  89 127 163 201 249 308 369
#
# _framework density 5.0297210000000003
#
# number of rings (size 3 to 8) (size 9 to 14) (size 15 to 20)
#    0.000    1.364    3.636    2.727    0.000    3.636 
#    0.000    3.636    0.000    2.182    0.000    0.000 
#    0.000    0.000    0.000    0.000    0.000    0.000 
#
# Total GULP energy -245656.068419 kJ/mol
# GULP energy per Si atom -5583.092464 kJ/mol
# Density = 0.501827 g / cm^3
# Si number density = 5.029721 Si / 1000 Ang^3
#
#
#
# Elastic Constant Matrix: (Units=GPa)
#
#
# Indices 1 2 3 4 5 6 
#
# 1 58.1843 19.1262 27.7538 0.0000 0.0000 0.0000
# 2 19.1262 49.3910 52.8620 0.0000 0.0000 0.0000
# 3 27.7538 52.8620 89.2848 0.0000 0.0000 0.0000
# 4 0.0000 0.0000 0.0000 25.6039 0.0000 0.0000
# 5 0.0000 0.0000 0.0000 0.0000 21.7428 0.0000
# 6 0.0000 0.0000 0.0000 0.0000 0.0000 55.5632
#
#
#
# Elastic Compliance Matrix: (Units=1/GPa)
#
#
# Indices 1 2 3 4 5 6 
#
# 1 0.020343 -0.003029 -0.004530 0.000000 0.000000 0.000000
# 2 -0.003029 0.055720 -0.032048 0.000000 0.000000 0.000000
# 3 -0.004530 -0.032048 0.031583 0.000000 0.000000 0.000000
# 4 0.000000 0.000000 0.000000 0.039057 0.000000 0.000000
# 5 0.000000 0.000000 0.000000 0.000000 0.045992 0.000000
# 6 0.000000 0.000000 0.000000 0.000000 0.000000 0.017998
#
#
# Mechanical properties :
#
#
# Convention : Reuss Voigt Hill
#
# Bulk Modulus (GPa) = 35.17264 44.03824 39.60544
# Shear Modulus (GPa) = 16.70099 27.05650 21.87874
#
# Velocity S-wave (km/s) = 2.88430 3.67117 3.30126
# Velocity P-wave (km/s) = 5.34907 6.31716 5.85317
#
# Compressibility (1/GPa) = 0.02843119
#
# Stress axis : x y z
#
# Youngs Moduli (GPa) = 49.15594 17.94699 31.66307
#
# Poissons Ratio (x) = 0.05437 0.14344
# Poissons Ratio (y) = 0.14891 1.01473
# Poissons Ratio (z) = 0.22269 0.57516
#
# Static dielectric constant tensor:
#      x y z
#    x 1.742520 0.000000 0.000000 
#    y 0.000000 1.721160 0.000000 
#    z 0.000000 0.000000 1.706670 
# 
# From -- ./inp_files/26786.got.cif
#   From: 2010.05.17/outbox.ucp.g08.bks.cvg/sg69_14_cif.got.tgz:26786.got - 2010.06.11 16:51:34.
