data_PCOD9513290
_publ_section_title
;
Structure prediction by ZEFSAII (Michael W. Deem and Ramdas Pophale) SiO2 
 PCOD9513290
Probable space group: F M M M
;
_chemical_formula_sum "Si O2"
_cell_formula_units_Z 120
_cell_length_a 14.428049
_cell_length_b 15.621248
_cell_length_c 25.655436
_cell_angle_alpha 90.000000
_cell_angle_beta 90.000000
_cell_angle_gamma 90.000000
_cell_volume 5782.328163
_symmetry_space_group_name_H-M "F M M M"
_symmetry_group_IT_number 69
_symmetry_cell_setting 'orthorhombic'
loop_
_space_group_symop_operation_xyz
x,y,z
-x,-y,z
x,-y,-z
-x,y,-z
-x,-y,-z
x,y,-z
-x,y,z
x,-y,z
x,1/2+y,1/2+z
-x,1/2-y,1/2+z
x,1/2-y,1/2-z
-x,1/2+y,1/2-z
-x,1/2-y,1/2-z
x,1/2+y,1/2-z
-x,1/2+y,1/2+z
x,1/2-y,1/2+z
1/2+x,y,1/2+z
1/2-x,-y,1/2+z
1/2+x,-y,1/2-z
1/2-x,y,1/2-z
1/2-x,-y,1/2-z
1/2+x,y,1/2-z
1/2-x,y,1/2+z
1/2+x,-y,1/2+z
1/2+x,1/2+y,z
1/2-x,1/2-y,z
1/2+x,1/2-y,-z
1/2-x,1/2+y,-z
1/2-x,1/2-y,-z
1/2+x,1/2+y,-z
1/2-x,1/2+y,z
1/2+x,1/2-y,z
loop_
_atom_site_type_symbol
_atom_site_label
_atom_site_fract_x
_atom_site_fract_y
_atom_site_fract_z
Si Si1 0.189166 0.673561 0.671514
Si Si2 0.792982 0.000000 0.347105
Si Si3 0.165428 0.500000 0.555870
Si Si4 0.000000 0.400793 0.285126
Si Si5 0.000000 0.000000 0.683723
Si Si6 0.105116 0.688155 0.440663
O O1 0.250000 0.750000 0.693593
O O2 0.250381 0.587021 0.676369
O O3 0.091194 0.648890 0.697030
O O4 0.163644 0.703431 0.611760
O O5 0.747432 0.000000 0.403555
O O6 0.903407 0.000000 0.346169
O O7 0.211398 0.500000 0.500000
O O8 0.105145 0.415262 0.559978
O O9 0.000000 0.419223 0.223445
O O10 0.000000 0.500000 0.307470
O O11 0.137151 0.712744 0.500000
O O12 0.000000 0.720443 0.434648
#
# Coordination Sequence:
#
# PCOD9513290 Si02
#       6
#    32  16  16  16   8  32
#     4  11  22  37  64  96 127 165 210 259 316 373
#     4  10  21  41  61  89 127 166 205 260 316 380
#     4   8  15  27  53  89 122 157 205 257 298 359
#     4  10  22  43  69  87 122 161 211 262 319 374
#     4  10  24  44  69  84 115 170 210 262 328 384
#     4   9  16  28  51  85 125 165 204 246 300 365
#
# _framework density 20.752887000000001
#
# number of rings (size 3 to 8) (size 9 to 14) (size 15 to 20)
#    0.400    1.867    2.667    0.400    0.000    5.333 
#    0.000    4.333    0.000    0.000    0.000    0.000 
#    0.000    0.000    0.000    0.000    0.000    0.000 
#
# Total GULP energy -167110.825838 kJ/mol
# GULP energy per Si atom -5570.360861 kJ/mol
# Density = 2.070565 g / cm^3
# Si number density = 20.752887 Si / 1000 Ang^3
#
#
#
# Elastic Constant Matrix: (Units=GPa)
#
#
# Indices 1 2 3 4 5 6 
#
# 1 179.7356 67.1403 34.1859 0.0000 0.0000 0.0000
# 2 67.1403 87.2210 24.7386 0.0000 0.0000 0.0000
# 3 34.1859 24.7386 68.7483 0.0000 0.0000 0.0000
# 4 0.0000 0.0000 0.0000 11.8397 0.0000 0.0000
# 5 0.0000 0.0000 0.0000 0.0000 -216.5265 0.0000
# 6 0.0000 0.0000 0.0000 0.0000 0.0000 -20.0522
#
#
#
# Elastic Compliance Matrix: (Units=1/GPa)
#
#
# Indices 1 2 3 4 5 6 
#
# 1 0.008043 -0.005631 -0.001973 0.000000 0.000000 0.000000
# 2 -0.005631 0.016711 -0.003213 0.000000 0.000000 0.000000
# 3 -0.001973 -0.003213 0.016683 0.000000 0.000000 0.000000
# 4 0.000000 0.000000 0.000000 0.084462 0.000000 0.000000
# 5 0.000000 0.000000 0.000000 0.000000 -0.004618 0.000000
# 6 0.000000 0.000000 0.000000 0.000000 0.000000 -0.049870
#
#
# Mechanical properties :
#
#
# Convention : Reuss Voigt Hill
#
# Bulk Modulus (GPa) = 50.49956 65.31496 57.90726
# Shear Modulus (GPa) = 50.17767 -30.97179 9.60294
#
# Velocity S-wave (km/s) = 4.92251 -3.86736 2.15344
# Velocity P-wave (km/s) = 7.52959 3.40574 5.84354
#
# Compressibility (1/GPa) = 0.01980215
#
# Stress axis : x y z
#
# Youngs Moduli (GPa) = 124.33836 59.83948 59.94099
#
# Poissons Ratio (x) = 0.33698 0.11825
# Poissons Ratio (y) = 0.70020 0.19260
# Poissons Ratio (z) = 0.24530 0.19228
#
# Static dielectric constant tensor:
#      x y z
#    x 1.716390 0.000000 0.000000 
#    y 0.000000 1.776510 0.000000 
#    z 0.000000 0.000000 1.830470 
# 
# From -- ./inp_files/45506.got.cif
#   From: 2010.05.17/outbox.cif.g08.bks.cpg/sg69_23_cif.got.tgz:45506.got - 2010.06.03 19:29:58.
