data_PCOD9513074
_publ_section_title
;
Structure prediction by ZEFSAII (Michael W. Deem and Ramdas Pophale) SiO2 
 PCOD9513074
Probable space group: F M M M
;
_chemical_formula_sum "Si O2"
_cell_formula_units_Z 160
_cell_length_a 20.157456
_cell_length_b 21.821478
_cell_length_c 19.848245
_cell_angle_alpha 90.000000
_cell_angle_beta 90.000000
_cell_angle_gamma 90.000000
_cell_volume 8730.557866
_symmetry_space_group_name_H-M "F M M M"
_symmetry_group_IT_number 69
_symmetry_cell_setting 'orthorhombic'
loop_
_space_group_symop_operation_xyz
x,y,z
-x,-y,z
x,-y,-z
-x,y,-z
-x,-y,-z
x,y,-z
-x,y,z
x,-y,z
x,1/2+y,1/2+z
-x,1/2-y,1/2+z
x,1/2-y,1/2-z
-x,1/2+y,1/2-z
-x,1/2-y,1/2-z
x,1/2+y,1/2-z
-x,1/2+y,1/2+z
x,1/2-y,1/2+z
1/2+x,y,1/2+z
1/2-x,-y,1/2+z
1/2+x,-y,1/2-z
1/2-x,y,1/2-z
1/2-x,-y,1/2-z
1/2+x,y,1/2-z
1/2-x,y,1/2+z
1/2+x,-y,1/2+z
1/2+x,1/2+y,z
1/2-x,1/2-y,z
1/2+x,1/2-y,-z
1/2-x,1/2+y,-z
1/2-x,1/2-y,-z
1/2+x,1/2+y,-z
1/2-x,1/2+y,z
1/2+x,1/2-y,z
loop_
_atom_site_type_symbol
_atom_site_label
_atom_site_fract_x
_atom_site_fract_y
_atom_site_fract_z
Si Si1 0.122623 0.866498 0.500000
Si Si2 0.865810 0.630181 0.392095
Si Si3 0.924927 0.927452 0.362792
Si Si4 0.581751 0.225922 0.500000
Si Si5 0.828317 0.428932 0.737874
Si Si6 0.500000 0.428309 0.076674
Si Si7 0.232695 0.573187 0.500000
O O1 0.090325 0.892969 0.567999
O O2 0.110549 0.794093 0.500000
O O3 0.198751 0.889672 0.500000
O O4 0.887892 0.690166 0.434566
O O5 0.840562 0.624866 0.316298
O O6 0.934085 0.593201 0.388796
O O7 0.811929 0.593617 0.436610
O O8 0.870972 0.915600 0.304785
O O9 0.000000 0.913115 0.339651
O O10 0.921649 0.000000 0.377227
O O11 0.500000 0.227642 0.500000
O O12 0.846382 0.500000 0.716206
O O13 0.750000 0.430487 0.750000
O O14 0.500000 0.500000 0.072376
O O15 0.500000 0.403739 0.000000
O O16 0.244134 0.500000 0.500000
#
# Coordination Sequence:
#
# PCOD9513074 Si02
#       7
#    16  32  32  16  32  16  16
#     4  12  24  40  63  80 116 165 208 260 300 346
#     4  11  21  36  59  89 127 161 193 244 298 370
#     4  10  21  37  59  88 113 145 202 262 311 358
#     4  11  23  42  61  89 121 162 210 249 293 359
#     4  10  21  37  58  89 127 159 189 241 313 376
#     4  11  18  30  54  90 123 156 196 244 301 362
#     4  11  21  35  59  92 120 154 202 250 312 372
#
# _framework density 18.326435
#
# number of rings (size 3 to 8) (size 9 to 14) (size 15 to 20)
#    0.000    1.300    3.000    4.800    1.400    4.000 
#    0.000    1.000    0.000    3.600    0.000    0.000 
#    0.000    0.000    0.000    0.000    0.000    0.000 
#
# Total GULP energy -223022.424088 kJ/mol
# GULP energy per Si atom -5575.560602 kJ/mol
# Density = 1.828472 g / cm^3
# Si number density = 18.326435 Si / 1000 Ang^3
#
#
#
# Elastic Constant Matrix: (Units=GPa)
#
#
# Indices 1 2 3 4 5 6 
#
# 1 137.0756 63.0220 45.8494 0.0000 0.0000 0.0000
# 2 63.0220 107.6765 58.9687 0.0000 0.0000 0.0000
# 3 45.8494 58.9687 113.9006 0.0000 0.0000 0.0000
# 4 0.0000 0.0000 0.0000 -1.4762 0.0000 0.0000
# 5 0.0000 0.0000 0.0000 0.0000 24.1620 0.0000
# 6 0.0000 0.0000 0.0000 0.0000 0.0000 19.8341
#
#
#
# Elastic Compliance Matrix: (Units=1/GPa)
#
#
# Indices 1 2 3 4 5 6 
#
# 1 0.010140 -0.005164 -0.001409 0.000000 0.000000 0.000000
# 2 -0.005164 0.015592 -0.005994 0.000000 0.000000 0.000000
# 3 -0.001409 -0.005994 0.012450 0.000000 0.000000 0.000000
# 4 0.000000 0.000000 0.000000 -0.677403 0.000000 0.000000
# 5 0.000000 0.000000 0.000000 0.000000 0.041387 0.000000
# 6 0.000000 0.000000 0.000000 0.000000 0.000000 0.050418
#
#
# Mechanical properties :
#
#
# Convention : Reuss Voigt Hill
#
# Bulk Modulus (GPa) = 76.62793 77.14809 76.88801
# Shear Modulus (GPa) = -9.65373 21.22481 5.78554
#
# Velocity S-wave (km/s) = -2.29763 3.40686 1.77870
# Velocity P-wave (km/s) = 5.90464 7.59365 6.80178
#
# Compressibility (1/GPa) = 0.01305007
#
# Stress axis : x y z
#
# Youngs Moduli (GPa) = 98.61489 64.13671 80.32401
#
# Poissons Ratio (x) = 0.33118 0.11314
# Poissons Ratio (y) = 0.50922 0.48143
# Poissons Ratio (z) = 0.13891 0.38441
#
# Static dielectric constant tensor:
#      x y z
#    x 1.712520 0.000000 0.000000 
#    y 0.000000 1.632230 0.000000 
#    z 0.000000 0.000000 1.654810 
# 
# From -- ./inp_files/30877.got.cif
#   From: 2010.05.17/outbox.cif.g08.bks.cpg/sg69_16_cif.got.tgz:30877.got - 2010.06.03 19:29:58.
