data_PCOD9513369
_publ_section_title
;
Structure prediction by ZEFSAII (Michael W. Deem and Ramdas Pophale) SiO2 
 PCOD9513369
Probable space group: F M M M
;
_chemical_formula_sum "Si O2"
_cell_formula_units_Z 208
_cell_length_a 19.864164
_cell_length_b 28.579089
_cell_length_c 19.049007
_cell_angle_alpha 90.000000
_cell_angle_beta 90.000000
_cell_angle_gamma 90.000000
_cell_volume 10814.115766
_symmetry_space_group_name_H-M "F M M M"
_symmetry_group_IT_number 69
_symmetry_cell_setting 'orthorhombic'
loop_
_space_group_symop_operation_xyz
x,y,z
-x,-y,z
x,-y,-z
-x,y,-z
-x,-y,-z
x,y,-z
-x,y,z
x,-y,z
x,1/2+y,1/2+z
-x,1/2-y,1/2+z
x,1/2-y,1/2-z
-x,1/2+y,1/2-z
-x,1/2-y,1/2-z
x,1/2+y,1/2-z
-x,1/2+y,1/2+z
x,1/2-y,1/2+z
1/2+x,y,1/2+z
1/2-x,-y,1/2+z
1/2+x,-y,1/2-z
1/2-x,y,1/2-z
1/2-x,-y,1/2-z
1/2+x,y,1/2-z
1/2-x,y,1/2+z
1/2+x,-y,1/2+z
1/2+x,1/2+y,z
1/2-x,1/2-y,z
1/2+x,1/2-y,-z
1/2-x,1/2+y,-z
1/2-x,1/2-y,-z
1/2+x,1/2+y,-z
1/2-x,1/2+y,z
1/2+x,1/2-y,z
loop_
_atom_site_type_symbol
_atom_site_label
_atom_site_fract_x
_atom_site_fract_y
_atom_site_fract_z
Si Si1 0.421974 0.763418 0.578486
Si Si2 0.850622 0.202038 0.784251
Si Si3 0.578842 0.554397 0.083533
Si Si4 0.924711 0.666833 0.152139
Si Si5 0.166138 0.420340 0.838957
Si Si6 0.183553 0.400376 0.318913
Si Si7 0.919418 0.000000 0.584747
O O1 0.397810 0.773039 0.500000
O O2 0.500000 0.778354 0.583739
O O3 0.379363 0.786057 0.639783
O O4 0.420994 0.708090 0.595578
O O5 0.821613 0.250000 0.750000
O O6 0.909534 0.188820 0.728816
O O7 0.809279 0.154294 0.797160
O O8 0.500000 0.561034 0.099669
O O9 0.596083 0.500000 0.100355
O O10 0.624726 0.589740 0.126439
O O11 0.587324 0.560261 0.000000
O O12 0.866814 0.629252 0.141858
O O13 0.000000 0.646422 0.150891
O O14 0.163003 0.425648 0.754137
O O15 0.246426 0.419405 0.850273
O O16 0.121098 0.456878 0.881047
O O17 0.913581 0.000000 0.500000
O O18 0.000000 0.000000 0.601238
#
# Coordination Sequence:
#
# PCOD9513369 Si02
#       7
#    32  32  32  32  32  32  16
#     4   9  17  29  49  78 110 146 189 242 299 347
#     4   9  18  34  54  79 115 153 194 242 300 362
#     4   9  20  38  59  87 122 159 203 253 309 375
#     4   9  17  33  55  77 106 149 195 239 290 352
#     4  10  23  40  59  87 119 149 197 250 297 357
#     4  10  22  38  61  90 121 160 199 249 303 364
#     4  11  26  45  64  88 118 157 202 251 306 356
#
# _framework density 19.234119
#
# number of rings (size 3 to 8) (size 9 to 14) (size 15 to 20)
#    0.000    2.538    0.000    1.385    2.154    8.000 
#    0.000   16.154    0.000    0.923    0.000    0.000 
#    0.000    0.000    0.000    0.000    0.000    0.000 
#
# Total GULP energy -289807.835907 kJ/mol
# GULP energy per Si atom -5573.227614 kJ/mol
# Density = 1.919034 g / cm^3
# Si number density = 19.234119 Si / 1000 Ang^3
#
#
#
# Elastic Constant Matrix: (Units=GPa)
#
#
# Indices 1 2 3 4 5 6 
#
# 1 93.9866 49.8871 52.5082 0.0000 0.0000 0.0000
# 2 49.8871 78.6447 47.0965 0.0000 0.0000 0.0000
# 3 52.5082 47.0965 104.1219 0.0000 0.0000 0.0000
# 4 0.0000 0.0000 0.0000 7.4834 0.0000 0.0000
# 5 0.0000 0.0000 0.0000 0.0000 23.6804 0.0000
# 6 0.0000 0.0000 0.0000 0.0000 0.0000 49.2972
#
#
#
# Elastic Compliance Matrix: (Units=1/GPa)
#
#
# Indices 1 2 3 4 5 6 
#
# 1 0.017988 -0.008199 -0.005363 0.000000 0.000000 0.000000
# 2 -0.008199 0.021176 -0.005444 0.000000 0.000000 0.000000
# 3 -0.005363 -0.005444 0.014771 0.000000 0.000000 0.000000
# 4 0.000000 0.000000 0.000000 0.133629 0.000000 0.000000
# 5 0.000000 0.000000 0.000000 0.000000 0.042229 0.000000
# 6 0.000000 0.000000 0.000000 0.000000 0.000000 0.020285
#
#
# Mechanical properties :
#
#
# Convention : Reuss Voigt Hill
#
# Bulk Modulus (GPa) = 62.79735 63.97075 63.38405
# Shear Modulus (GPa) = 17.04179 24.57629 20.80904
#
# Velocity S-wave (km/s) = 2.97984 3.57843 3.29277
# Velocity P-wave (km/s) = 6.67526 7.09963 6.89071
#
# Compressibility (1/GPa) = 0.01592424
#
# Stress axis : x y z
#
# Youngs Moduli (GPa) = 55.59385 47.22266 67.70102
#
# Poissons Ratio (x) = 0.38717 0.36305
# Poissons Ratio (y) = 0.45580 0.36856
# Poissons Ratio (z) = 0.29813 0.25707
#
# Static dielectric constant tensor:
#      x y z
#    x 1.650100 0.000000 0.000000 
#    y 0.000000 1.726550 0.000000 
#    z 0.000000 0.000000 1.644190 
# 
# From -- ./inp_files/25218.got.cif
#   From: 2010.05.17/outbox.cif.g08.bks.cpg/sg69_13_cif.got.tgz:25218.got - 2010.06.03 19:29:58.
