data_PCOD9513842
_publ_section_title
;
Structure prediction by ZEFSAII (Michael W. Deem and Ramdas Pophale) SiO2 
 PCOD9513842
Probable space group: F M M M
;
_chemical_formula_sum "Si O2"
_cell_formula_units_Z 176
_cell_length_a 28.836858
_cell_length_b 11.051490
_cell_length_c 27.947834
_cell_angle_alpha 90.000000
_cell_angle_beta 90.000000
_cell_angle_gamma 90.000000
_cell_volume 8906.702143
_symmetry_space_group_name_H-M "F M M M"
_symmetry_group_IT_number 69
_symmetry_cell_setting 'orthorhombic'
loop_
_space_group_symop_operation_xyz
x,y,z
-x,-y,z
x,-y,-z
-x,y,-z
-x,-y,-z
x,y,-z
-x,y,z
x,-y,z
x,1/2+y,1/2+z
-x,1/2-y,1/2+z
x,1/2-y,1/2-z
-x,1/2+y,1/2-z
-x,1/2-y,1/2-z
x,1/2+y,1/2-z
-x,1/2+y,1/2+z
x,1/2-y,1/2+z
1/2+x,y,1/2+z
1/2-x,-y,1/2+z
1/2+x,-y,1/2-z
1/2-x,y,1/2-z
1/2-x,-y,1/2-z
1/2+x,y,1/2-z
1/2-x,y,1/2+z
1/2+x,-y,1/2+z
1/2+x,1/2+y,z
1/2-x,1/2-y,z
1/2+x,1/2-y,-z
1/2-x,1/2+y,-z
1/2-x,1/2-y,-z
1/2+x,1/2+y,-z
1/2-x,1/2+y,z
1/2+x,1/2-y,z
loop_
_atom_site_type_symbol
_atom_site_label
_atom_site_fract_x
_atom_site_fract_y
_atom_site_fract_z
Si Si1 0.556131 0.859379 0.784526
Si Si2 0.948475 0.500000 0.441963
Si Si3 0.878597 0.209020 0.056619
Si Si4 0.301862 0.131104 0.727295
Si Si5 0.947736 0.356891 0.893154
Si Si6 0.213662 0.858484 0.886256
O O1 0.500000 0.864960 0.781274
O O2 0.571211 0.750000 0.750000
O O3 0.566104 0.820150 0.839254
O O4 0.571830 0.000000 0.776163
O O5 0.951231 0.500000 0.500000
O O6 0.918239 0.385882 0.428161
O O7 0.000000 0.500000 0.422301
O O8 0.905421 0.329492 0.071467
O O9 0.832174 0.175211 0.084192
O O10 0.870632 0.201216 0.000000
O O11 0.324252 0.250000 0.750000
O O12 0.250000 0.126449 0.750000
O O13 0.296951 0.144959 0.670457
O O14 0.323520 0.000000 0.737788
O O15 0.952673 0.500000 0.890608
O O16 0.000000 0.309423 0.905877
O O17 0.250000 0.750000 0.896115
O O18 0.227516 0.000000 0.896835
#
# Coordination Sequence:
#
# PCOD9513842 Si02
#       6
#    32  16  32  32  32  32
#     4   8  14  28  51  79 114 154 195 244 306 373
#     4   9  18  36  62  86 113 154 202 260 324 367
#     4  11  23  40  60  86 123 162 210 267 319 384
#     4   9  16  31  58  90 118 153 194 247 310 368
#     4   9  19  37  61  89 123 163 208 265 329 384
#     4  11  23  40  64  92 126 168 207 255 318 384
#
# _framework density 19.760400000000001
#
# number of rings (size 3 to 8) (size 9 to 14) (size 15 to 20)
#    0.000    2.455    2.727    1.636    0.000    2.545 
#    1.636    1.818    0.000    4.364    0.000    0.000 
#    0.000    0.000    0.000    0.000    0.000    0.000 
#
# Total GULP energy -245027.761369 kJ/mol
# GULP energy per Si atom -5568.812758 kJ/mol
# Density = 1.971542 g / cm^3
# Si number density = 19.760400 Si / 1000 Ang^3
#
#
#
# Elastic Constant Matrix: (Units=GPa)
#
#
# Indices 1 2 3 4 5 6 
#
# 1 110.5890 48.2245 60.5887 0.0000 0.0000 0.0000
# 2 48.2245 109.5861 38.6201 0.0000 0.0000 0.0000
# 3 60.5887 38.6201 91.4303 0.0000 0.0000 0.0000
# 4 0.0000 0.0000 0.0000 17.0499 0.0000 0.0000
# 5 0.0000 0.0000 0.0000 0.0000 13.3206 0.0000
# 6 0.0000 0.0000 0.0000 0.0000 0.0000 -17.6038
#
#
#
# Elastic Compliance Matrix: (Units=1/GPa)
#
#
# Indices 1 2 3 4 5 6 
#
# 1 0.015397 -0.003736 -0.008625 0.000000 0.000000 0.000000
# 2 -0.003736 0.011628 -0.002436 0.000000 0.000000 0.000000
# 3 -0.008625 -0.002436 0.017682 0.000000 0.000000 0.000000
# 4 0.000000 0.000000 0.000000 0.058651 0.000000 0.000000
# 5 0.000000 0.000000 0.000000 0.000000 0.075072 0.000000
# 6 0.000000 0.000000 0.000000 0.000000 0.000000 -0.056806
#
#
# Mechanical properties :
#
#
# Convention : Reuss Voigt Hill
#
# Bulk Modulus (GPa) = 66.16932 67.38575 66.77753
# Shear Modulus (GPa) = 31.99886 13.49815 22.74851
#
# Velocity S-wave (km/s) = 4.02847 2.61644 3.39664
# Velocity P-wave (km/s) = 7.42944 6.58051 7.01782
#
# Compressibility (1/GPa) = 0.01511274
#
# Stress axis : x y z
#
# Youngs Moduli (GPa) = 64.94688 86.00132 56.55486
#
# Poissons Ratio (x) = 0.32130 0.48780
# Poissons Ratio (y) = 0.24264 0.13776
# Poissons Ratio (z) = 0.56018 0.20948
#
# Static dielectric constant tensor:
#      x y z
#    x 1.683180 0.000000 0.000000 
#    y 0.000000 1.374150 0.000000 
#    z 0.000000 0.000000 1.682350 
# 
# From -- ./inp_files/38924.got.cif
#   From: 2010.05.17/outbox.cif.g08.bks.cpg/sg69_20_cif.got.tgz:38924.got - 2010.06.03 19:29:58.
