data_PCOD9513272
_publ_section_title
;
Structure prediction by ZEFSAII (Michael W. Deem and Ramdas Pophale) SiO2 
 PCOD9513272
Probable space group: F M M M
;
_chemical_formula_sum "Si O2"
_cell_formula_units_Z 88
_cell_length_a 19.531238
_cell_length_b 20.043240
_cell_length_c 10.701187
_cell_angle_alpha 90.000000
_cell_angle_beta 90.000000
_cell_angle_gamma 90.000000
_cell_volume 4189.186085
_symmetry_space_group_name_H-M "F M M M"
_symmetry_group_IT_number 69
_symmetry_cell_setting 'orthorhombic'
loop_
_space_group_symop_operation_xyz
x,y,z
-x,-y,z
x,-y,-z
-x,y,-z
-x,-y,-z
x,y,-z
-x,y,z
x,-y,z
x,1/2+y,1/2+z
-x,1/2-y,1/2+z
x,1/2-y,1/2-z
-x,1/2+y,1/2-z
-x,1/2-y,1/2-z
x,1/2+y,1/2-z
-x,1/2+y,1/2+z
x,1/2-y,1/2+z
1/2+x,y,1/2+z
1/2-x,-y,1/2+z
1/2+x,-y,1/2-z
1/2-x,y,1/2-z
1/2-x,-y,1/2-z
1/2+x,y,1/2-z
1/2-x,y,1/2+z
1/2+x,-y,1/2+z
1/2+x,1/2+y,z
1/2-x,1/2-y,z
1/2+x,1/2-y,-z
1/2-x,1/2+y,-z
1/2-x,1/2-y,-z
1/2+x,1/2+y,-z
1/2-x,1/2+y,z
1/2+x,1/2-y,z
loop_
_atom_site_type_symbol
_atom_site_label
_atom_site_fract_x
_atom_site_fract_y
_atom_site_fract_z
Si Si1 0.888388 0.363048 0.500000
Si Si2 0.575740 0.882617 0.219900
Si Si3 0.919324 0.776998 0.500000
Si Si4 0.801569 0.000000 0.000000
Si Si5 0.831257 0.500000 0.142500
O O1 0.925553 0.365686 0.633832
O O2 0.866846 0.284904 0.500000
O O3 0.842549 0.430481 0.500000
O O4 0.500000 0.909755 0.186466
O O5 0.636151 0.935315 0.203514
O O6 0.588737 0.821919 0.124348
O O7 0.000000 0.755182 0.500000
O O8 0.749706 0.000000 0.117667
O O9 0.859517 0.500000 0.000000
#
# Coordination Sequence:
#
# PCOD9513272 Si02
#       5
#    16  32  16   8  16
#     4  12  24  39  62  95 133 164 202 256 315 366
#     4  11  22  39  68  99 126 158 201 261 320 372
#     4  10  21  40  64  93 131 167 200 247 314 387
#     4  10  26  46  62  86 126 174 216 258 298 362
#     4  10  22  44  64  88 119 165 219 249 299 368
#
# _framework density 21.006467000000001
#
# number of rings (size 3 to 8) (size 9 to 14) (size 15 to 20)
#    0.545    0.727    1.818    4.364    0.000    6.545 
#    0.000    8.636    0.000    8.727    0.000    0.000 
#    0.000    0.000    0.000    0.000    0.000    0.000 
#
# Total GULP energy -122555.162070 kJ/mol
# GULP energy per Si atom -5570.689185 kJ/mol
# Density = 2.095866 g / cm^3
# Si number density = 21.006467 Si / 1000 Ang^3
#
#
#
# Elastic Constant Matrix: (Units=GPa)
#
#
# Indices 1 2 3 4 5 6 
#
# 1 91.9965 80.7961 34.4009 0.0000 0.0000 0.0000
# 2 80.7961 163.9749 56.1441 0.0000 0.0000 0.0000
# 3 34.4009 56.1441 169.4031 0.0000 0.0000 0.0000
# 4 0.0000 0.0000 0.0000 14.1700 0.0000 0.0000
# 5 0.0000 0.0000 0.0000 0.0000 13.1109 0.0000
# 6 0.0000 0.0000 0.0000 0.0000 0.0000 42.4903
#
#
#
# Elastic Compliance Matrix: (Units=1/GPa)
#
#
# Indices 1 2 3 4 5 6 
#
# 1 0.019274 -0.009201 -0.000865 0.000000 0.000000 0.000000
# 2 -0.009201 0.011271 -0.001867 0.000000 0.000000 0.000000
# 3 -0.000865 -0.001867 0.006697 0.000000 0.000000 0.000000
# 4 0.000000 0.000000 0.000000 0.070572 0.000000 0.000000
# 5 0.000000 0.000000 0.000000 0.000000 0.076272 0.000000
# 6 0.000000 0.000000 0.000000 0.000000 0.000000 0.023535
#
#
# Mechanical properties :
#
#
# Convention : Reuss Voigt Hill
#
# Bulk Modulus (GPa) = 74.75224 85.33962 80.04593
# Shear Modulus (GPa) = 21.19126 30.88980 26.04053
#
# Velocity S-wave (km/s) = 3.17960 3.83886 3.52468
# Velocity P-wave (km/s) = 7.01017 7.76934 7.39950
#
# Compressibility (1/GPa) = 0.01337753
#
# Stress axis : x y z
#
# Youngs Moduli (GPa) = 51.88322 88.71984 149.31002
#
# Poissons Ratio (x) = 0.81631 0.12909
# Poissons Ratio (y) = 0.47738 0.27879
# Poissons Ratio (z) = 0.04486 0.16565
#
# Static dielectric constant tensor:
#      x y z
#    x 1.742030 0.000000 0.000000 
#    y 0.000000 1.791030 0.000000 
#    z 0.000000 0.000000 1.816600 
# 
# From -- ./inp_files/8844.got.cif
#   From: 2010.05.17/outbox.cif.g08.bks.cpg/sg69_5_cif.got.tgz:8844.got - 2010.06.03 19:29:58.
