data_PCOD9513791
_publ_section_title
;
Structure prediction by ZEFSAII (Michael W. Deem and Ramdas Pophale) SiO2 
 PCOD9513791
Probable space group: F M M M
;
_chemical_formula_sum "Si O2"
_cell_formula_units_Z 112
_cell_length_a 16.655476
_cell_length_b 18.737693
_cell_length_c 18.646142
_cell_angle_alpha 90.000000
_cell_angle_beta 90.000000
_cell_angle_gamma 90.000000
_cell_volume 5819.184882
_symmetry_space_group_name_H-M "F M M M"
_symmetry_group_IT_number 69
_symmetry_cell_setting 'orthorhombic'
loop_
_space_group_symop_operation_xyz
x,y,z
-x,-y,z
x,-y,-z
-x,y,-z
-x,-y,-z
x,y,-z
-x,y,z
x,-y,z
x,1/2+y,1/2+z
-x,1/2-y,1/2+z
x,1/2-y,1/2-z
-x,1/2+y,1/2-z
-x,1/2-y,1/2-z
x,1/2+y,1/2-z
-x,1/2+y,1/2+z
x,1/2-y,1/2+z
1/2+x,y,1/2+z
1/2-x,-y,1/2+z
1/2+x,-y,1/2-z
1/2-x,y,1/2-z
1/2-x,-y,1/2-z
1/2+x,y,1/2-z
1/2-x,y,1/2+z
1/2+x,-y,1/2+z
1/2+x,1/2+y,z
1/2-x,1/2-y,z
1/2+x,1/2-y,-z
1/2-x,1/2+y,-z
1/2-x,1/2-y,-z
1/2+x,1/2+y,-z
1/2-x,1/2+y,z
1/2+x,1/2-y,z
loop_
_atom_site_type_symbol
_atom_site_label
_atom_site_fract_x
_atom_site_fract_y
_atom_site_fract_z
Si Si1 0.907037 0.787866 0.327472
Si Si2 0.161666 0.164008 0.914334
Si Si3 0.204708 0.417132 0.173573
Si Si4 0.000000 0.580893 0.586968
O O1 0.901282 0.750000 0.250000
O O2 0.850790 0.741714 0.380074
O O3 0.873709 0.867775 0.322551
O O4 0.000000 0.785780 0.350742
O O5 0.235436 0.119524 0.883151
O O6 0.080343 0.121937 0.891975
O O7 0.165720 0.168346 0.000000
O O8 0.189348 0.500000 0.157004
O O9 0.250000 0.413303 0.250000
O O10 0.000000 0.500000 0.613994
O O11 0.000000 0.578592 0.500000
#
# Coordination Sequence:
#
# PCOD9513791 Si02
#       4
#    32  32  32  16
#     4  11  23  41  64  91 125 167 210 255 309 372
#     4  11  22  39  64  94 124 163 211 257 310 367
#     4  11  24  41  62  91 128 167 207 255 312 372
#     4   9  18  34  57  90 131 161 193 252 311 357
#
# _framework density 19.246682
#
# number of rings (size 3 to 8) (size 9 to 14) (size 15 to 20)
#    0.000    1.286    4.286    1.714    0.000    4.571 
#    0.000    0.000    0.000    0.000    0.000    4.000 
#    0.000    0.000    0.000    0.000    0.000    0.000 
#
# Total GULP energy -156505.071705 kJ/mol
# GULP energy per Si atom -5589.466847 kJ/mol
# Density = 1.920288 g / cm^3
# Si number density = 19.246682 Si / 1000 Ang^3
#
#
#
# Elastic Constant Matrix: (Units=GPa)
#
#
# Indices 1 2 3 4 5 6 
#
# 1 77.5912 54.5877 19.5980 0.0000 0.0000 0.0000
# 2 54.5877 171.6120 34.1747 0.0000 0.0000 0.0000
# 3 19.5980 34.1747 73.7190 0.0000 0.0000 0.0000
# 4 0.0000 0.0000 0.0000 19.3123 0.0000 0.0000
# 5 0.0000 0.0000 0.0000 0.0000 22.1612 0.0000
# 6 0.0000 0.0000 0.0000 0.0000 0.0000 22.2888
#
#
#
# Elastic Compliance Matrix: (Units=1/GPa)
#
#
# Indices 1 2 3 4 5 6 
#
# 1 0.016924 -0.004944 -0.002207 0.000000 0.000000 0.000000
# 2 -0.004944 0.007864 -0.002331 0.000000 0.000000 0.000000
# 3 -0.002207 -0.002331 0.015233 0.000000 0.000000 0.000000
# 4 0.000000 0.000000 0.000000 0.051780 0.000000 0.000000
# 5 0.000000 0.000000 0.000000 0.000000 0.045124 0.000000
# 6 0.000000 0.000000 0.000000 0.000000 0.000000 0.044866
#
#
# Mechanical properties :
#
#
# Convention : Reuss Voigt Hill
#
# Bulk Modulus (GPa) = 47.49341 59.96032 53.72686
# Shear Modulus (GPa) = 24.06474 27.05659 25.56066
#
# Velocity S-wave (km/s) = 3.53984 3.75344 3.64820
# Velocity P-wave (km/s) = 6.43716 7.07147 6.76175
#
# Compressibility (1/GPa) = 0.02105555
#
# Stress axis : x y z
#
# Youngs Moduli (GPa) = 59.08918 127.16420 65.64884
#
# Poissons Ratio (x) = 0.62865 0.14491
# Poissons Ratio (y) = 0.29211 0.15305
# Poissons Ratio (z) = 0.13043 0.29646
#
# Static dielectric constant tensor:
#      x y z
#    x 1.655990 0.000000 0.000000 
#    y 0.000000 1.676670 0.000000 
#    z 0.000000 0.000000 1.648830 
# 
# From -- ./inp_files/22325.got.cif
#   From: 2010.05.17/outbox.cif.g08.bks.cpg/sg69_12_cif.got.tgz:22325.got - 2010.06.03 19:29:58.
