data_PCOD9513705
_publ_section_title
;
Structure prediction by ZEFSAII (Michael W. Deem and Ramdas Pophale) SiO2 
 PCOD9513705
Probable space group: F M M M
;
_chemical_formula_sum "Si O2"
_cell_formula_units_Z 192
_cell_length_a 17.759133
_cell_length_b 28.786707
_cell_length_c 18.261800
_cell_angle_alpha 90.000000
_cell_angle_beta 90.000000
_cell_angle_gamma 90.000000
_cell_volume 9335.924466
_symmetry_space_group_name_H-M "F M M M"
_symmetry_group_IT_number 69
_symmetry_cell_setting 'orthorhombic'
loop_
_space_group_symop_operation_xyz
x,y,z
-x,-y,z
x,-y,-z
-x,y,-z
-x,-y,-z
x,y,-z
-x,y,z
x,-y,z
x,1/2+y,1/2+z
-x,1/2-y,1/2+z
x,1/2-y,1/2-z
-x,1/2+y,1/2-z
-x,1/2-y,1/2-z
x,1/2+y,1/2-z
-x,1/2+y,1/2+z
x,1/2-y,1/2+z
1/2+x,y,1/2+z
1/2-x,-y,1/2+z
1/2+x,-y,1/2-z
1/2-x,y,1/2-z
1/2-x,-y,1/2-z
1/2+x,y,1/2-z
1/2-x,y,1/2+z
1/2+x,-y,1/2+z
1/2+x,1/2+y,z
1/2-x,1/2-y,z
1/2+x,1/2-y,-z
1/2-x,1/2+y,-z
1/2-x,1/2-y,-z
1/2+x,1/2+y,-z
1/2-x,1/2+y,z
1/2+x,1/2-y,z
loop_
_atom_site_type_symbol
_atom_site_label
_atom_site_fract_x
_atom_site_fract_y
_atom_site_fract_z
Si Si1 0.411260 0.682225 0.107271
Si Si2 0.156263 0.887707 0.647214
Si Si3 0.088110 0.945436 0.218234
Si Si4 0.820529 0.091511 0.083108
Si Si5 0.662184 0.194804 0.241615
Si Si6 0.908712 0.736570 0.000000
Si Si7 0.911928 0.131299 0.500000
O O1 0.500000 0.676088 0.094459
O O2 0.362771 0.640638 0.075561
O O3 0.391689 0.679562 0.192682
O O4 0.388275 0.731243 0.070087
O O5 0.129760 0.917086 0.717320
O O6 0.241705 0.898751 0.624081
O O7 0.141069 0.833781 0.669658
O O8 0.111093 0.895465 0.572923
O O9 0.128248 0.937159 0.140004
O O10 0.000000 0.931414 0.214214
O O11 0.091560 0.000000 0.235579
O O12 0.810440 0.072711 0.000000
O O13 0.659315 0.250000 0.250000
O O14 0.750000 0.181334 0.250000
O O15 0.877831 0.684151 0.000000
O O16 0.000000 0.733992 0.000000
O O17 0.000000 0.137246 0.500000
#
# Coordination Sequence:
#
# PCOD9513705 Si02
#       7
#    32  32  32  32  32  16  16
#     4  11  21  36  58  88 126 174 224 276 328 385
#     4  12  23  44  67  98 139 180 225 279 336 403
#     4  11  26  48  76 105 132 169 218 280 349 412
#     4  12  24  42  67 100 136 176 222 269 334 408
#     4  11  22  36  58  91 130 174 224 276 326 393
#     4   9  20  37  57  90 135 176 227 279 334 392
#     4  11  24  41  64  95 132 185 236 281 327 391
#
# _framework density 20.565719000000001
#
# number of rings (size 3 to 8) (size 9 to 14) (size 15 to 20)
#    0.000    0.833    5.000    2.500    0.000    3.667 
#    0.000    2.083    0.000    1.500    0.000    0.000 
#    0.000    0.000    0.000    0.000    0.000    0.000 
#
# Total GULP energy -267854.810948 kJ/mol
# GULP energy per Si atom -5580.308561 kJ/mol
# Density = 2.051891 g / cm^3
# Si number density = 20.565719 Si / 1000 Ang^3
#
#
#
# Elastic Constant Matrix: (Units=GPa)
#
#
# Indices 1 2 3 4 5 6 
#
# 1 106.8520 30.5657 54.2551 0.0000 0.0000 0.0000
# 2 30.5657 59.0839 30.5539 0.0000 0.0000 0.0000
# 3 54.2551 30.5539 161.9555 0.0000 0.0000 0.0000
# 4 0.0000 0.0000 0.0000 -3.5858 0.0000 0.0000
# 5 0.0000 0.0000 0.0000 0.0000 48.5736 0.0000
# 6 0.0000 0.0000 0.0000 0.0000 0.0000 20.6092
#
#
#
# Elastic Compliance Matrix: (Units=1/GPa)
#
#
# Indices 1 2 3 4 5 6 
#
# 1 0.012357 -0.004712 -0.003251 0.000000 0.000000 0.000000
# 2 -0.004712 0.020551 -0.002299 0.000000 0.000000 0.000000
# 3 -0.003251 -0.002299 0.007697 0.000000 0.000000 0.000000
# 4 0.000000 0.000000 0.000000 -0.278878 0.000000 0.000000
# 5 0.000000 0.000000 0.000000 0.000000 0.020587 0.000000
# 6 0.000000 0.000000 0.000000 0.000000 0.000000 0.048522
#
#
# Mechanical properties :
#
#
# Convention : Reuss Voigt Hill
#
# Bulk Modulus (GPa) = 49.79240 62.07120 55.93180
# Shear Modulus (GPa) = -35.22459 27.28718 -3.96870
#
# Velocity S-wave (km/s) = -4.14307 3.64652 -1.39067
# Velocity P-wave (km/s) = 1.17356 6.92653 4.96760
#
# Compressibility (1/GPa) = 0.02008339
#
# Stress axis : x y z
#
# Youngs Moduli (GPa) = 80.92488 48.65877 129.91715
#
# Poissons Ratio (x) = 0.22926 0.42233
# Poissons Ratio (y) = 0.38129 0.29865
# Poissons Ratio (z) = 0.26307 0.11185
#
# Static dielectric constant tensor:
#      x y z
#    x 1.717390 0.000000 0.000000 
#    y 0.000000 1.768620 0.000000 
#    z 0.000000 0.000000 1.809730 
# 
# From -- ./inp_files/23719.got.cif
#   From: 2010.05.17/outbox.cif.g08.bks.cpg/sg69_12_cif.got.tgz:23719.got - 2010.06.03 19:29:58.
