data_PCOD9513990
_publ_section_title
;
Structure prediction by ZEFSAII (Michael W. Deem and Ramdas Pophale) SiO2 
 PCOD9513990
Probable space group: F M M M
;
_chemical_formula_sum "Si O2"
_cell_formula_units_Z 32
_cell_length_a 21.000000
_cell_length_b 21.000000
_cell_length_c 15.000000
_cell_angle_alpha 90.000000
_cell_angle_beta 90.000000
_cell_angle_gamma 90.000000
_cell_volume 6615.000000
_symmetry_space_group_name_H-M "F M M M"
_symmetry_group_IT_number 69
_symmetry_cell_setting 'orthorhombic'
loop_
_space_group_symop_operation_xyz
x,y,z
-x,-y,z
x,-y,-z
-x,y,-z
-x,-y,-z
x,y,-z
-x,y,z
x,-y,z
x,1/2+y,1/2+z
-x,1/2-y,1/2+z
x,1/2-y,1/2-z
-x,1/2+y,1/2-z
-x,1/2-y,1/2-z
x,1/2+y,1/2-z
-x,1/2+y,1/2+z
x,1/2-y,1/2+z
1/2+x,y,1/2+z
1/2-x,-y,1/2+z
1/2+x,-y,1/2-z
1/2-x,y,1/2-z
1/2-x,-y,1/2-z
1/2+x,y,1/2-z
1/2-x,y,1/2+z
1/2+x,-y,1/2+z
1/2+x,1/2+y,z
1/2-x,1/2-y,z
1/2+x,1/2-y,-z
1/2-x,1/2+y,-z
1/2-x,1/2-y,-z
1/2+x,1/2+y,-z
1/2-x,1/2+y,z
1/2+x,1/2-y,z
loop_
_atom_site_type_symbol
_atom_site_label
_atom_site_fract_x
_atom_site_fract_y
_atom_site_fract_z
Si Si1 0.000000 0.577468 0.734977
Si Si2 0.112061 0.923671 0.098369
Si Si3 0.000000 0.677931 0.891840
Si Si4 0.730543 0.154344 0.348560
Si Si5 0.354820 0.772277 0.896807
O O1 0.062364 0.595758 0.675788
O O2 0.000000 0.615872 0.827851
O O3 0.000000 0.500000 0.746741
O O4 0.183686 0.897730 0.109539
O O5 0.112980 0.000000 0.100383
O O6 0.088383 0.903495 0.000000
O O7 0.070832 0.710956 0.872669
O O8 0.000000 0.666625 0.000000
O O9 0.750000 0.134616 0.250000
O O10 0.681931 0.215280 0.345542
O O11 0.799083 0.173092 0.391812
O O12 0.357563 0.751761 0.000000
#
# Coordination Sequence:
#
# PCOD9513990 Si02
#       5
#    16  32  16  32  32
#     4  10  21  38  59  84 116 152 190 237 290 343
#     4  10  21  38  60  85 114 151 195 240 286 339
#     4  10  22  39  60  87 116 150 194 239 284 341
#     4  11  21  35  56  83 114 148 185 231 289 343
#     4  10  20  36  56  80 114 150 186 230 281 340
#
# _framework density 4.837491
#
# number of rings (size 3 to 8) (size 9 to 14) (size 15 to 20)
#    0.000    1.750    0.000    6.375    0.000    3.250 
#    0.000    7.500    0.000    1.500    0.000    0.000 
#    0.000    0.000    0.000    0.000    0.000    0.000 
#
# Total GULP energy -178242.485366 kJ/mol
# GULP energy per Si atom -5570.077668 kJ/mol
# Density = 0.482648 g / cm^3
# Si number density = 4.837491 Si / 1000 Ang^3
#
#
#
# Elastic Constant Matrix: (Units=GPa)
#
#
# Indices 1 2 3 4 5 6 
#
# 1 165.7246 22.8670 20.4738 0.0000 0.0000 0.0000
# 2 22.8670 28.6260 18.6998 0.0000 0.0000 0.0000
# 3 20.4738 18.6998 85.0844 0.0000 0.0000 0.0000
# 4 0.0000 0.0000 0.0000 23.6712 0.0000 0.0000
# 5 0.0000 0.0000 0.0000 0.0000 43.0823 0.0000
# 6 0.0000 0.0000 0.0000 0.0000 0.0000 38.8272
#
#
#
# Elastic Compliance Matrix: (Units=1/GPa)
#
#
# Indices 1 2 3 4 5 6 
#
# 1 0.006801 -0.005095 -0.000517 0.000000 0.000000 0.000000
# 2 -0.005095 0.044607 -0.008578 0.000000 0.000000 0.000000
# 3 -0.000517 -0.008578 0.013763 0.000000 0.000000 0.000000
# 4 0.000000 0.000000 0.000000 0.042245 0.000000 0.000000
# 5 0.000000 0.000000 0.000000 0.000000 0.023211 0.000000
# 6 0.000000 0.000000 0.000000 0.000000 0.000000 0.025755
#
#
# Mechanical properties :
#
#
# Convention : Reuss Voigt Hill
#
# Bulk Modulus (GPa) = 27.18036 44.83512 36.00774
# Shear Modulus (GPa) = 25.37749 35.60910 30.49329
#
# Velocity S-wave (km/s) = 3.62539 4.29449 3.97405
# Velocity P-wave (km/s) = 5.62155 6.91456 6.30131
#
# Compressibility (1/GPa) = 0.03679127
#
# Stress axis : x y z
#
# Youngs Moduli (GPa) = 147.03730 22.41813 72.66099
#
# Poissons Ratio (x) = 0.11423 0.03754
# Poissons Ratio (y) = 0.74919 0.62325
# Poissons Ratio (z) = 0.07597 0.19229
#
# Static dielectric constant tensor:
#      x y z
#    x 1.665520 0.000000 0.000000 
#    y 0.000000 1.718220 0.000000 
#    z 0.000000 0.000000 1.700920 
# 
# From -- ./inp_files/16359.got.cif
#   From: 2010.05.17/outbox.ucp.g08.bks.cvg/sg69_9_cif.got.tgz:16359.got - 2010.06.11 16:51:34.
