data_PCOD9513269
_publ_section_title
;
Structure prediction by ZEFSAII (Michael W. Deem and Ramdas Pophale) SiO2 
 PCOD9513269
Probable space group: F M M M
;
_chemical_formula_sum "Si O2"
_cell_formula_units_Z 160
_cell_length_a 17.386227
_cell_length_b 24.511242
_cell_length_c 20.774221
_cell_angle_alpha 90.000000
_cell_angle_beta 90.000000
_cell_angle_gamma 90.000000
_cell_volume 8853.100836
_symmetry_space_group_name_H-M "F M M M"
_symmetry_group_IT_number 69
_symmetry_cell_setting 'orthorhombic'
loop_
_space_group_symop_operation_xyz
x,y,z
-x,-y,z
x,-y,-z
-x,y,-z
-x,-y,-z
x,y,-z
-x,y,z
x,-y,z
x,1/2+y,1/2+z
-x,1/2-y,1/2+z
x,1/2-y,1/2-z
-x,1/2+y,1/2-z
-x,1/2-y,1/2-z
x,1/2+y,1/2-z
-x,1/2+y,1/2+z
x,1/2-y,1/2+z
1/2+x,y,1/2+z
1/2-x,-y,1/2+z
1/2+x,-y,1/2-z
1/2-x,y,1/2-z
1/2-x,-y,1/2-z
1/2+x,y,1/2-z
1/2-x,y,1/2+z
1/2+x,-y,1/2+z
1/2+x,1/2+y,z
1/2-x,1/2-y,z
1/2+x,1/2-y,-z
1/2-x,1/2+y,-z
1/2-x,1/2-y,-z
1/2+x,1/2+y,-z
1/2-x,1/2+y,z
1/2+x,1/2-y,z
loop_
_atom_site_type_symbol
_atom_site_label
_atom_site_fract_x
_atom_site_fract_y
_atom_site_fract_z
Si Si1 0.909828 0.287777 0.311196
Si Si2 0.910471 0.500000 0.735787
Si Si3 0.699285 0.900954 0.926202
Si Si4 0.188606 0.102275 0.192243
Si Si5 0.910074 0.500000 0.109046
Si Si6 0.335721 0.225395 0.925642
O O1 0.889745 0.250000 0.250000
O O2 0.858435 0.341744 0.311791
O O3 0.891648 0.253676 0.375284
O O4 0.000000 0.301482 0.306887
O O5 0.868071 0.446970 0.708891
O O6 0.904274 0.500000 0.813364
O O7 0.000000 0.500000 0.718762
O O8 0.765676 0.909141 0.873663
O O9 0.667605 0.839679 0.915927
O O10 0.634159 0.946528 0.916012
O O11 0.727345 0.903890 0.000000
O O12 0.250000 0.106330 0.250000
O O13 0.000000 0.500000 0.091195
O O14 0.250000 0.250000 0.915228
O O15 0.356416 0.236294 0.000000
#
# Coordination Sequence:
#
# PCOD9513269 Si02
#       6
#    32  16  32  32  16  32
#     4  11  25  39  59  93 127 159 202 255 307 362
#     4  11  24  40  61  89 123 159 201 252 305 364
#     4  11  23  39  64  94 122 158 207 258 301 361
#     4  12  22  40  65  88 118 163 205 250 306 365
#     4  11  24  42  62  90 129 166 201 253 316 372
#     4  10  21  40  63  90 124 163 205 249 300 364
#
# _framework density 18.072763999999999
#
# number of rings (size 3 to 8) (size 9 to 14) (size 15 to 20)
#    0.000    1.000    4.000    3.000    0.000    2.000 
#    0.000    2.000    0.000    2.400    0.000    0.000 
#    0.000    0.000    0.000    0.000    0.000    0.000 
#
# Total GULP energy -223650.926039 kJ/mol
# GULP energy per Si atom -5591.273151 kJ/mol
# Density = 1.803163 g / cm^3
# Si number density = 18.072764 Si / 1000 Ang^3
#
#
#
# Elastic Constant Matrix: (Units=GPa)
#
#
# Indices 1 2 3 4 5 6 
#
# 1 98.3282 69.7362 59.4223 0.0000 0.0000 0.0000
# 2 69.7362 142.2610 52.1475 0.0000 0.0000 0.0000
# 3 59.4223 52.1475 108.8102 0.0000 0.0000 0.0000
# 4 0.0000 0.0000 0.0000 33.6419 0.0000 0.0000
# 5 0.0000 0.0000 0.0000 0.0000 2.9188 0.0000
# 6 0.0000 0.0000 0.0000 0.0000 0.0000 57.3824
#
#
#
# Elastic Compliance Matrix: (Units=1/GPa)
#
#
# Indices 1 2 3 4 5 6 
#
# 1 0.019470 -0.006850 -0.007350 0.000000 0.000000 0.000000
# 2 -0.006850 0.010937 -0.001501 0.000000 0.000000 0.000000
# 3 -0.007350 -0.001501 0.013923 0.000000 0.000000 0.000000
# 4 0.000000 0.000000 0.000000 0.029725 0.000000 0.000000
# 5 0.000000 0.000000 0.000000 0.000000 0.342610 0.000000
# 6 0.000000 0.000000 0.000000 0.000000 0.000000 0.017427
#
#
# Mechanical properties :
#
#
# Convention : Reuss Voigt Hill
#
# Bulk Modulus (GPa) = 77.34394 79.11237 78.22816
# Shear Modulus (GPa) = 10.64274 29.99485 20.31880
#
# Velocity S-wave (km/s) = 2.42932 4.07833 3.35666
# Velocity P-wave (km/s) = 7.12444 8.12689 7.64212
#
# Compressibility (1/GPa) = 0.01292926
#
# Stress axis : x y z
#
# Youngs Moduli (GPa) = 51.36169 91.42992 71.82138
#
# Poissons Ratio (x) = 0.62629 0.52787
# Poissons Ratio (y) = 0.35182 0.10780
# Poissons Ratio (z) = 0.37750 0.13723
#
# Static dielectric constant tensor:
#      x y z
#    x 1.591600 0.000000 0.000000 
#    y 0.000000 1.597320 0.000000 
#    z 0.000000 0.000000 1.613720 
# 
# From -- ./inp_files/30811.got.cif
#   From: 2010.05.17/outbox.cif.g08.bks.cpg/sg69_16_cif.got.tgz:30811.got - 2010.06.03 19:29:58.
