data_PCOD9513234
_publ_section_title
;
Structure prediction by ZEFSAII (Michael W. Deem and Ramdas Pophale) SiO2 
 PCOD9513234
Probable space group: F M M M
;
_chemical_formula_sum "Si O2"
_cell_formula_units_Z 128
_cell_length_a 14.246157
_cell_length_b 19.857196
_cell_length_c 20.826871
_cell_angle_alpha 90.000000
_cell_angle_beta 90.000000
_cell_angle_gamma 90.000000
_cell_volume 5891.687124
_symmetry_space_group_name_H-M "F M M M"
_symmetry_group_IT_number 69
_symmetry_cell_setting 'orthorhombic'
loop_
_space_group_symop_operation_xyz
x,y,z
-x,-y,z
x,-y,-z
-x,y,-z
-x,-y,-z
x,y,-z
-x,y,z
x,-y,z
x,1/2+y,1/2+z
-x,1/2-y,1/2+z
x,1/2-y,1/2-z
-x,1/2+y,1/2-z
-x,1/2-y,1/2-z
x,1/2+y,1/2-z
-x,1/2+y,1/2+z
x,1/2-y,1/2+z
1/2+x,y,1/2+z
1/2-x,-y,1/2+z
1/2+x,-y,1/2-z
1/2-x,y,1/2-z
1/2-x,-y,1/2-z
1/2+x,y,1/2-z
1/2-x,y,1/2+z
1/2+x,-y,1/2+z
1/2+x,1/2+y,z
1/2-x,1/2-y,z
1/2+x,1/2-y,-z
1/2-x,1/2+y,-z
1/2-x,1/2-y,-z
1/2+x,1/2+y,-z
1/2-x,1/2+y,z
1/2+x,1/2-y,z
loop_
_atom_site_type_symbol
_atom_site_label
_atom_site_fract_x
_atom_site_fract_y
_atom_site_fract_z
Si Si1 0.250000 0.250000 0.602543
Si Si2 0.896486 0.811062 0.700540
Si Si3 0.392902 0.500000 0.576887
Si Si4 0.726036 0.600707 0.927660
Si Si5 0.887881 0.075883 0.202345
O O1 0.167518 0.220311 0.646393
O O2 0.277092 0.181572 0.567475
O O3 0.905670 0.750000 0.750000
O O4 0.856628 0.872233 0.742776
O O5 0.000000 0.830054 0.676076
O O6 0.500000 0.500000 0.604307
O O7 0.403732 0.500000 0.500000
O O8 0.326677 0.434508 0.590033
O O9 0.659698 0.584195 0.867214
O O10 0.701794 0.575741 0.000000
O O11 0.000000 0.086800 0.194694
O O12 0.871603 0.000000 0.224955
#
# Coordination Sequence:
#
# PCOD9513234 Si02
#       5
#    16  32  16  32  32
#     4  12  24  40  64  92 125 173 210 266 316 373
#     4  10  21  39  63  90 123 165 210 258 318 380
#     4   9  20  42  65  86 123 173 220 264 308 365
#     4  11  23  39  62  95 130 167 212 258 313 382
#     4  10  21  39  64  94 127 160 203 262 322 382
#
# _framework density 21.725525999999999
#
# number of rings (size 3 to 8) (size 9 to 14) (size 15 to 20)
#    0.000    1.625    3.750    0.750    0.000    1.500 
#    2.250    2.500    0.000    4.500    0.000    0.000 
#    0.000    0.000    0.000    0.000    0.000    0.000 
#
# Total GULP energy -178528.977683 kJ/mol
# GULP energy per Si atom -5579.030553 kJ/mol
# Density = 2.167608 g / cm^3
# Si number density = 21.725526 Si / 1000 Ang^3
#
#
#
# Elastic Constant Matrix: (Units=GPa)
#
#
# Indices 1 2 3 4 5 6 
#
# 1 122.4776 47.9492 53.9043 0.0000 0.0000 0.0000
# 2 47.9492 189.0211 46.3482 0.0000 0.0000 0.0000
# 3 53.9043 46.3482 96.0281 0.0000 0.0000 0.0000
# 4 0.0000 0.0000 0.0000 67.3541 0.0000 0.0000
# 5 0.0000 0.0000 0.0000 0.0000 16.3472 0.0000
# 6 0.0000 0.0000 0.0000 0.0000 0.0000 26.8372
#
#
#
# Elastic Compliance Matrix: (Units=1/GPa)
#
#
# Indices 1 2 3 4 5 6 
#
# 1 0.011194 -0.001473 -0.005573 0.000000 0.000000 0.000000
# 2 -0.001473 0.006194 -0.002163 0.000000 0.000000 0.000000
# 3 -0.005573 -0.002163 0.014586 0.000000 0.000000 0.000000
# 4 0.000000 0.000000 0.000000 0.014847 0.000000 0.000000
# 5 0.000000 0.000000 0.000000 0.000000 0.061172 0.000000
# 6 0.000000 0.000000 0.000000 0.000000 0.000000 0.037262
#
#
# Mechanical properties :
#
#
# Convention : Reuss Voigt Hill
#
# Bulk Modulus (GPa) = 73.76315 78.21447 75.98881
# Shear Modulus (GPa) = 29.72803 39.39606 34.56205
#
# Velocity S-wave (km/s) = 3.70313 4.26297 3.99287
# Velocity P-wave (km/s) = 7.23258 7.76594 7.50400
#
# Compressibility (1/GPa) = 0.01355690
#
# Stress axis : x y z
#
# Youngs Moduli (GPa) = 89.33264 161.43501 68.56061
#
# Poissons Ratio (x) = 0.23783 0.38206
# Poissons Ratio (y) = 0.13161 0.14828
# Poissons Ratio (z) = 0.49782 0.34915
#
# Static dielectric constant tensor:
#      x y z
#    x 1.855720 0.000000 0.000000 
#    y 0.000000 11.732890 0.000000 
#    z 0.000000 0.000000 1.803810 
# 
# From -- ./inp_files/29661.got.cif
#   From: 2010.05.17/outbox.cif.g08.bks.cpg/sg69_15_cif.got.tgz:29661.got - 2010.06.03 19:29:58.
