data_PCOD9513388
_publ_section_title
;
Structure prediction by ZEFSAII (Michael W. Deem and Ramdas Pophale) SiO2 
 PCOD9513388
Probable space group: F M M M
;
_chemical_formula_sum "Si O2"
_cell_formula_units_Z 144
_cell_length_a 17.832807
_cell_length_b 28.411604
_cell_length_c 14.034836
_cell_angle_alpha 90.000000
_cell_angle_beta 90.000000
_cell_angle_gamma 90.000000
_cell_volume 7110.871070
_symmetry_space_group_name_H-M "F M M M"
_symmetry_group_IT_number 69
_symmetry_cell_setting 'orthorhombic'
loop_
_space_group_symop_operation_xyz
x,y,z
-x,-y,z
x,-y,-z
-x,y,-z
-x,-y,-z
x,y,-z
-x,y,z
x,-y,z
x,1/2+y,1/2+z
-x,1/2-y,1/2+z
x,1/2-y,1/2-z
-x,1/2+y,1/2-z
-x,1/2-y,1/2-z
x,1/2+y,1/2-z
-x,1/2+y,1/2+z
x,1/2-y,1/2+z
1/2+x,y,1/2+z
1/2-x,-y,1/2+z
1/2+x,-y,1/2-z
1/2-x,y,1/2-z
1/2-x,-y,1/2-z
1/2+x,y,1/2-z
1/2-x,y,1/2+z
1/2+x,-y,1/2+z
1/2+x,1/2+y,z
1/2-x,1/2-y,z
1/2+x,1/2-y,-z
1/2-x,1/2+y,-z
1/2-x,1/2-y,-z
1/2+x,1/2+y,-z
1/2-x,1/2+y,z
1/2+x,1/2-y,z
loop_
_atom_site_type_symbol
_atom_site_label
_atom_site_fract_x
_atom_site_fract_y
_atom_site_fract_z
Si Si1 0.148671 0.903861 0.192322
Si Si2 0.812466 0.620721 0.112776
Si Si3 0.914547 0.000000 0.113503
Si Si4 0.913226 0.787839 0.615351
Si Si5 0.587857 0.686284 0.106455
O O1 0.150007 0.911697 0.306082
O O2 0.226421 0.884256 0.146467
O O3 0.095516 0.860423 0.167227
O O4 0.126302 0.952582 0.145219
O O5 0.852857 0.671002 0.131804
O O6 0.819988 0.610185 0.000000
O O7 0.000000 0.000000 0.150272
O O8 0.917292 0.000000 0.000000
O O9 0.918500 0.784659 0.500000
O O10 0.884121 0.736178 0.646320
O O11 0.000000 0.797146 0.649590
O O12 0.500000 0.695473 0.096666
O O13 0.619674 0.677873 0.000000
#
# Coordination Sequence:
#
# PCOD9513388 Si02
#       5
#    32  32  16  32  32
#     4  11  23  38  60  87 113 150 197 238 288 349
#     4  10  22  39  58  83 117 154 190 235 286 339
#     4  11  24  43  67  93 120 146 181 240 297 333
#     4   8  16  32  54  82 118 157 192 231 283 338
#     4   9  17  32  56  85 117 153 195 242 288 340
#
# _framework density 20.250684
#
# number of rings (size 3 to 8) (size 9 to 14) (size 15 to 20)
#    0.000    2.333    0.000    4.000    0.000    7.111 
#    0.000    9.444    0.000    0.667    0.000    0.000 
#    0.000    0.000    0.000    0.000    0.000    0.000 
#
# Total GULP energy -200464.242747 kJ/mol
# GULP energy per Si atom -5568.451187 kJ/mol
# Density = 2.020459 g / cm^3
# Si number density = 20.250684 Si / 1000 Ang^3
#
#
#
# Elastic Constant Matrix: (Units=GPa)
#
#
# Indices 1 2 3 4 5 6 
#
# 1 63.3705 65.0285 12.6257 0.0000 0.0000 0.0000
# 2 65.0285 129.6970 45.9924 0.0000 0.0000 0.0000
# 3 12.6257 45.9924 131.0459 0.0000 0.0000 0.0000
# 4 0.0000 0.0000 0.0000 11.7271 0.0000 0.0000
# 5 0.0000 0.0000 0.0000 0.0000 -7.8235 0.0000
# 6 0.0000 0.0000 0.0000 0.0000 0.0000 -10.4425
#
#
#
# Elastic Compliance Matrix: (Units=1/GPa)
#
#
# Indices 1 2 3 4 5 6 
#
# 1 0.033538 -0.017897 0.003050 0.000000 0.000000 0.000000
# 2 -0.017897 0.018357 -0.004718 0.000000 0.000000 0.000000
# 3 0.003050 -0.004718 0.008993 0.000000 0.000000 0.000000
# 4 0.000000 0.000000 0.000000 0.085272 0.000000 0.000000
# 5 0.000000 0.000000 0.000000 0.000000 -0.127819 0.000000
# 6 0.000000 0.000000 0.000000 0.000000 0.000000 -0.095762
#
#
# Mechanical properties :
#
#
# Convention : Reuss Voigt Hill
#
# Bulk Modulus (GPa) = 45.96227 63.48963 54.72595
# Shear Modulus (GPa) = -161.08800 12.05667 -74.51566
#
# Velocity S-wave (km/s) = -8.92859 2.44267 -6.07260
# Velocity P-wave (km/s) = 9.14040 6.27498 4.69955
#
# Compressibility (1/GPa) = 0.02175698
#
# Stress axis : x y z
#
# Youngs Moduli (GPa) = 29.81716 54.47587 111.19760
#
# Poissons Ratio (x) = 0.97495 -0.33915
# Poissons Ratio (y) = 0.53364 0.52466
# Poissons Ratio (z) = -0.09094 0.25703
#
# Static dielectric constant tensor:
#      x y z
#    x 1.898370 0.000000 0.000000 
#    y 0.000000 1.691770 0.000000 
#    z 0.000000 0.000000 1.804450 
# 
# From -- ./inp_files/15533.got.cif
#   From: 2010.05.17/outbox.cif.g08.bks.cpg/sg69_8_cif.got.tgz:15533.got - 2010.06.03 19:29:58.
