data_PCOD9513386
_publ_section_title
;
Structure prediction by ZEFSAII (Michael W. Deem and Ramdas Pophale) SiO2 
 PCOD9513386
Probable space group: F M M M
;
_chemical_formula_sum "Si O2"
_cell_formula_units_Z 116
_cell_length_a 24.815138
_cell_length_b 7.983774
_cell_length_c 31.678310
_cell_angle_alpha 90.000000
_cell_angle_beta 90.000000
_cell_angle_gamma 90.000000
_cell_volume 6276.057789
_symmetry_space_group_name_H-M "F M M M"
_symmetry_group_IT_number 69
_symmetry_cell_setting 'orthorhombic'
loop_
_space_group_symop_operation_xyz
x,y,z
-x,-y,z
x,-y,-z
-x,y,-z
-x,-y,-z
x,y,-z
-x,y,z
x,-y,z
x,1/2+y,1/2+z
-x,1/2-y,1/2+z
x,1/2-y,1/2-z
-x,1/2+y,1/2-z
-x,1/2-y,1/2-z
x,1/2+y,1/2-z
-x,1/2+y,1/2+z
x,1/2-y,1/2+z
1/2+x,y,1/2+z
1/2-x,-y,1/2+z
1/2+x,-y,1/2-z
1/2-x,y,1/2-z
1/2-x,-y,1/2-z
1/2+x,y,1/2-z
1/2-x,y,1/2+z
1/2+x,-y,1/2+z
1/2+x,1/2+y,z
1/2-x,1/2-y,z
1/2+x,1/2-y,-z
1/2-x,1/2+y,-z
1/2-x,1/2-y,-z
1/2+x,1/2+y,-z
1/2-x,1/2+y,z
1/2+x,1/2-y,z
loop_
_atom_site_type_symbol
_atom_site_label
_atom_site_fract_x
_atom_site_fract_y
_atom_site_fract_z
Si Si1 0.312556 0.700455 0.453014
Si Si2 0.561997 0.299197 0.796858
Si Si3 0.000000 0.500000 0.500000
Si Si4 0.898286 0.698880 0.615050
Si Si5 0.500000 0.813623 0.064977
O O1 0.332188 0.758482 0.500000
O O2 0.316949 0.500000 0.452389
O O3 0.250000 0.750000 0.449987
O O4 0.346266 0.770301 0.413919
O O5 0.500000 0.236935 0.803140
O O6 0.559349 0.500000 0.797518
O O7 0.579769 0.250000 0.750000
O O8 0.600070 0.248312 0.835808
O O9 0.000000 0.349497 0.535643
O O10 0.909633 0.500000 0.613778
O O11 0.946892 0.795642 0.593074
O O12 0.500000 0.000000 0.045732
#
# Coordination Sequence:
#
# PCOD9513386 Si02
#       5
#    32  32   4  32  16
#     4  10  22  39  58  83 110 148 199 246 292 349
#     4   9  18  33  54  80 115 152 191 234 290 350
#     4  12  26  44  52  78 128 160 194 248 296 344
#     4  11  21  38  58  83 121 156 190 245 297 346
#     4  12  25  39  58  85 116 162 203 235 295 360
#
# _framework density 18.482939999999999
#
# number of rings (size 3 to 8) (size 9 to 14) (size 15 to 20)
#    0.000    1.655    2.759    1.862    1.931    3.862 
#    0.000    0.000    0.000    0.828    0.000    5.793 
#    0.000    0.000    0.000    0.000    0.000    0.000 
#
# Total GULP energy -161485.816445 kJ/mol
# GULP energy per Si atom -5568.476429 kJ/mol
# Density = 1.844087 g / cm^3
# Si number density = 18.482940 Si / 1000 Ang^3
#
#
#
# Elastic Constant Matrix: (Units=GPa)
#
#
# Indices 1 2 3 4 5 6 
#
# 1 59.1559 8.8131 64.5012 0.0000 0.0000 -0.0001
# 2 8.8131 91.9172 43.3990 0.0000 0.0000 -0.0001
# 3 64.5012 43.3990 204.1370 0.0000 0.0000 -0.0001
# 4 0.0000 0.0000 0.0000 -4.7644 0.0001 -0.0001
# 5 0.0000 0.0000 0.0000 0.0001 10.5513 0.0000
# 6 -0.0001 -0.0001 -0.0001 -0.0001 0.0000 16.7149
#
#
#
# Elastic Compliance Matrix: (Units=1/GPa)
#
#
# Indices 1 2 3 4 5 6 
#
# 1 0.025984 0.001540 -0.008538 0.000000 0.000000 0.000000
# 2 0.001540 0.012184 -0.003077 0.000000 0.000000 0.000000
# 3 -0.008538 -0.003077 0.008250 0.000000 0.000000 0.000000
# 4 0.000000 0.000000 0.000000 -0.209891 0.000002 -0.000001
# 5 0.000000 0.000000 0.000000 0.000002 0.094775 0.000000
# 6 0.000000 0.000000 0.000000 -0.000001 0.000000 0.059827
#
#
# Mechanical properties :
#
#
# Convention : Reuss Voigt Hill
#
# Bulk Modulus (GPa) = 38.06703 65.40408 51.73556
# Shear Modulus (GPa) = 249.54563 20.40014 134.97288
#
# Velocity S-wave (km/s) = 11.63216 3.32584 8.55478
# Velocity P-wave (km/s) = 14.17921 7.08600 11.20851
#
# Compressibility (1/GPa) = 0.02626945
#
# Stress axis : x y z
#
# Youngs Moduli (GPa) = 38.48516 82.07150 121.20621
#
# Poissons Ratio (x) = -0.12636 1.03480
# Poissons Ratio (y) = -0.05925 0.37294
# Poissons Ratio (z) = 0.32857 0.25252
#
# Static dielectric constant tensor:
#      x y z
#    x 1.614250 0.000000 0.000000 
#    y 0.000000 1.655710 0.000000 
#    z 0.000000 0.000000 1.671730 
# 
# From -- ./inp_files/4016.got.cif
#   From: 2010.05.17/outbox.cif.g08.bks.cpg/sg69_3_cif.got.tgz:4016.got - 2010.06.03 19:29:58.
