data_PCOD9513937
_publ_section_title
;
Structure prediction by ZEFSAII (Michael W. Deem and Ramdas Pophale) SiO2 
 PCOD9513937
Probable space group: F M M M
;
_chemical_formula_sum "Si O2"
_cell_formula_units_Z 176
_cell_length_a 7.315599
_cell_length_b 31.950390
_cell_length_c 36.482074
_cell_angle_alpha 90.000000
_cell_angle_beta 90.000000
_cell_angle_gamma 90.000000
_cell_volume 8527.182846
_symmetry_space_group_name_H-M "F M M M"
_symmetry_group_IT_number 69
_symmetry_cell_setting 'orthorhombic'
loop_
_space_group_symop_operation_xyz
x,y,z
-x,-y,z
x,-y,-z
-x,y,-z
-x,-y,-z
x,y,-z
-x,y,z
x,-y,z
x,1/2+y,1/2+z
-x,1/2-y,1/2+z
x,1/2-y,1/2-z
-x,1/2+y,1/2-z
-x,1/2-y,1/2-z
x,1/2+y,1/2-z
-x,1/2+y,1/2+z
x,1/2-y,1/2+z
1/2+x,y,1/2+z
1/2-x,-y,1/2+z
1/2+x,-y,1/2-z
1/2-x,y,1/2-z
1/2-x,-y,1/2-z
1/2+x,y,1/2-z
1/2-x,y,1/2+z
1/2+x,-y,1/2+z
1/2+x,1/2+y,z
1/2-x,1/2-y,z
1/2+x,1/2-y,-z
1/2-x,1/2+y,-z
1/2-x,1/2-y,-z
1/2+x,1/2+y,-z
1/2-x,1/2+y,z
1/2+x,1/2-y,z
loop_
_atom_site_type_symbol
_atom_site_label
_atom_site_fract_x
_atom_site_fract_y
_atom_site_fract_z
Si Si1 0.781824 0.453203 0.793257
Si Si2 0.222671 0.000000 0.457663
Si Si3 0.722488 0.176448 0.959797
Si Si4 0.778637 0.088415 0.571075
Si Si5 0.217343 0.203197 0.620262
Si Si6 0.721809 0.617934 0.347860
O O1 0.712727 0.500000 0.803466
O O2 0.750000 0.447650 0.750000
O O3 0.712026 0.413624 0.816442
O O4 0.000000 0.454517 0.799098
O O5 0.287647 0.956894 0.440328
O O6 0.269683 0.000000 0.500000
O O7 0.000000 0.000000 0.454866
O O8 0.500000 0.178699 0.960094
O O9 0.775264 0.127731 0.953979
O O10 0.785474 0.198294 0.921970
O O11 0.784057 0.191561 0.000000
O O12 0.731395 0.098102 0.612855
O O13 0.000000 0.087849 0.569153
O O14 0.250000 0.250000 0.633405
O O15 0.284303 0.166067 0.646915
O O16 0.000000 0.196967 0.617586
O O17 0.500000 0.619168 0.344514
#
# Coordination Sequence:
#
# PCOD9513937 Si02
#       6
#    32  16  32  32  32  32
#     4   9  17  29  47  70  94 117 141 169 205 250
#     4   9  14  16  22  42  73 106 139 175 207 237
#     4   8  13  22  35  51  75 107 140 175 216 256
#     4   8  13  19  29  47  73 107 143 172 202 245
#     4   9  17  29  44  62  84 111 146 182 216 254
#     4   8  15  27  42  60  83 113 143 172 207 252
#
# _framework density 20.639876000000001
#
# number of rings (size 3 to 8) (size 9 to 14) (size 15 to 20)
#    0.000    3.545    0.000    2.727    1.273    2.545 
#    0.000    0.909    0.000    0.545    0.000    3.818 
#    0.000    0.000    0.000    0.000    0.000   22.182 
#
# Total GULP energy -245225.885583 kJ/mol
# GULP energy per Si atom -5573.315581 kJ/mol
# Density = 2.059290 g / cm^3
# Si number density = 20.639876 Si / 1000 Ang^3
#
#
#
# Elastic Constant Matrix: (Units=GPa)
#
#
# Indices 1 2 3 4 5 6 
#
# 1 81.1026 2.6305 1.9048 0.0000 0.0000 0.0000
# 2 2.6305 189.9525 76.3654 0.0000 0.0000 0.0000
# 3 1.9048 76.3654 85.1600 0.0000 0.0000 0.0000
# 4 0.0000 0.0000 0.0000 42.2129 0.0000 0.0000
# 5 0.0000 0.0000 0.0000 0.0000 -58.3450 0.0000
# 6 0.0000 0.0000 0.0000 0.0000 0.0000 3.1329
#
#
#
# Elastic Compliance Matrix: (Units=1/GPa)
#
#
# Indices 1 2 3 4 5 6 
#
# 1 0.012338 -0.000094 -0.000192 0.000000 0.000000 0.000000
# 2 -0.000094 0.008233 -0.007381 0.000000 0.000000 0.000000
# 3 -0.000192 -0.007381 0.018365 0.000000 0.000000 0.000000
# 4 0.000000 0.000000 0.000000 0.023689 0.000000 0.000000
# 5 0.000000 0.000000 0.000000 0.000000 -0.017139 0.000000
# 6 0.000000 0.000000 0.000000 0.000000 0.000000 0.319194
#
#
# Mechanical properties :
#
#
# Convention : Reuss Voigt Hill
#
# Bulk Modulus (GPa) = 42.36686 57.55740 49.96213
# Shear Modulus (GPa) = 12.89056 15.75445 14.32251
#
# Velocity S-wave (km/s) = 2.50180 2.76579 2.63710
# Velocity P-wave (km/s) = 5.37742 6.17628 5.79064
#
# Compressibility (1/GPa) = 0.02360335
#
# Stress axis : x y z
#
# Youngs Moduli (GPa) = 81.05299 121.46295 54.45039
#
# Poissons Ratio (x) = 0.01138 0.01045
# Poissons Ratio (y) = 0.00759 0.40188
# Poissons Ratio (z) = 0.01556 0.89647
#
# Static dielectric constant tensor:
#      x y z
#    x 1.868370 0.000000 0.000000 
#    y 0.000000 1.762470 0.000000 
#    z 0.000000 0.000000 1.691880 
# 
# From -- ./inp_files/45285.got.cif
#   From: 2010.05.17/outbox.cif.g08.bks.cpg/sg69_23_cif.got.tgz:45285.got - 2010.06.03 19:29:58.
