data_PCOD9513443
_publ_section_title
;
Structure prediction by ZEFSAII (Michael W. Deem and Ramdas Pophale) SiO2 
 PCOD9513443
Probable space group: F M M M
;
_chemical_formula_sum "Si O2"
_cell_formula_units_Z 104
_cell_length_a 14.320810
_cell_length_b 14.040122
_cell_length_c 27.119851
_cell_angle_alpha 90.000000
_cell_angle_beta 90.000000
_cell_angle_gamma 90.000000
_cell_volume 5452.877779
_symmetry_space_group_name_H-M "F M M M"
_symmetry_group_IT_number 69
_symmetry_cell_setting 'orthorhombic'
loop_
_space_group_symop_operation_xyz
x,y,z
-x,-y,z
x,-y,-z
-x,y,-z
-x,-y,-z
x,y,-z
-x,y,z
x,-y,z
x,1/2+y,1/2+z
-x,1/2-y,1/2+z
x,1/2-y,1/2-z
-x,1/2+y,1/2-z
-x,1/2-y,1/2-z
x,1/2+y,1/2-z
-x,1/2+y,1/2+z
x,1/2-y,1/2+z
1/2+x,y,1/2+z
1/2-x,-y,1/2+z
1/2+x,-y,1/2-z
1/2-x,y,1/2-z
1/2-x,-y,1/2-z
1/2+x,y,1/2-z
1/2-x,y,1/2+z
1/2+x,-y,1/2+z
1/2+x,1/2+y,z
1/2-x,1/2-y,z
1/2+x,1/2-y,-z
1/2-x,1/2+y,-z
1/2-x,1/2-y,-z
1/2+x,1/2+y,-z
1/2-x,1/2+y,z
1/2+x,1/2-y,z
loop_
_atom_site_type_symbol
_atom_site_label
_atom_site_fract_x
_atom_site_fract_y
_atom_site_fract_z
Si Si1 0.107324 0.286793 0.441329
Si Si2 0.336061 0.389158 0.287020
Si Si3 0.284271 0.610267 0.401074
Si Si4 0.000000 0.750000 0.250000
O O1 0.112177 0.302473 0.500000
O O2 0.179463 0.357682 0.414942
O O3 0.146312 0.181607 0.429339
O O4 0.000000 0.297358 0.425193
O O5 0.365495 0.500000 0.281798
O O6 0.250000 0.373961 0.250000
O O7 0.301523 0.375905 0.343032
O O8 0.418677 0.318744 0.274055
O O9 0.299246 0.500000 0.413567
#
# Coordination Sequence:
#
# PCOD9513443 Si02
#       4
#    32  32  32   8
#     4  10  23  40  61  92 124 157 208 257 302 369
#     4  10  24  42  59  91 126 157 204 251 299 366
#     4  10  22  40  63  88 124 162 200 253 307 361
#     4  12  24  36  68  88 118 170 198 248 304 346
#
# _framework density 19.072498
#
# number of rings (size 3 to 8) (size 9 to 14) (size 15 to 20)
#    0.000    1.846    0.000    2.769   10.769    3.692 
#    0.000    3.077    0.000    0.000    0.000    0.000 
#    0.000    0.000    0.000    0.000    0.000    0.000 
#
# Total GULP energy -144758.603569 kJ/mol
# GULP energy per Si atom -5567.638599 kJ/mol
# Density = 1.902909 g / cm^3
# Si number density = 19.072498 Si / 1000 Ang^3
#
#
#
# Elastic Constant Matrix: (Units=GPa)
#
#
# Indices 1 2 3 4 5 6 
#
# 1 136.3208 37.0236 51.7587 0.0000 0.0000 0.0000
# 2 37.0236 75.9445 40.5170 0.0000 0.0000 0.0000
# 3 51.7587 40.5170 62.7802 0.0000 0.0000 0.0000
# 4 0.0000 0.0000 0.0000 29.9499 0.0000 0.0000
# 5 0.0000 0.0000 0.0000 0.0000 14.1999 0.0000
# 6 0.0000 0.0000 0.0000 0.0000 0.0000 8.6251
#
#
#
# Elastic Compliance Matrix: (Units=1/GPa)
#
#
# Indices 1 2 3 4 5 6 
#
# 1 0.010708 -0.000778 -0.008326 0.000000 0.000000 0.000000
# 2 -0.000778 0.020139 -0.012355 0.000000 0.000000 0.000000
# 3 -0.008326 -0.012355 0.030767 0.000000 0.000000 0.000000
# 4 0.000000 0.000000 0.000000 0.033389 0.000000 0.000000
# 5 0.000000 0.000000 0.000000 0.000000 0.070423 0.000000
# 6 0.000000 0.000000 0.000000 0.000000 0.000000 0.115941
#
#
# Mechanical properties :
#
#
# Convention : Reuss Voigt Hill
#
# Bulk Modulus (GPa) = 53.49236 59.29380 56.39308
# Shear Modulus (GPa) = 15.12776 20.27136 17.69956
#
# Velocity S-wave (km/s) = 2.81939 3.26369 3.04964
# Velocity P-wave (km/s) = 6.22144 6.73486 6.48323
#
# Compressibility (1/GPa) = 0.01869426
#
# Stress axis : x y z
#
# Youngs Moduli (GPa) = 93.38559 49.65577 32.50262
#
# Poissons Ratio (x) = 0.03865 0.27062
# Poissons Ratio (y) = 0.07269 0.40158
# Poissons Ratio (z) = 0.77753 0.61351
#
# Static dielectric constant tensor:
#      x y z
#    x 1.626390 0.000000 0.000000 
#    y 0.000000 1.674350 0.000000 
#    z 0.000000 0.000000 1.654510 
# 
# From -- ./inp_files/14048.got.cif
#   From: 2010.05.17/outbox.cif.g08.bks.cpg/sg69_8_cif.got.tgz:14048.got - 2010.06.03 19:29:58.
