data_PCOD9513196
_publ_section_title
;
Structure prediction by ZEFSAII (Michael W. Deem and Ramdas Pophale) SiO2 
 PCOD9513196
Probable space group: F M M M
;
_chemical_formula_sum "Si O2"
_cell_formula_units_Z 148
_cell_length_a 34.072350
_cell_length_b 8.812447
_cell_length_c 28.779738
_cell_angle_alpha 90.000000
_cell_angle_beta 90.000000
_cell_angle_gamma 90.000000
_cell_volume 8641.426538
_symmetry_space_group_name_H-M "F M M M"
_symmetry_group_IT_number 69
_symmetry_cell_setting 'orthorhombic'
loop_
_space_group_symop_operation_xyz
x,y,z
-x,-y,z
x,-y,-z
-x,y,-z
-x,-y,-z
x,y,-z
-x,y,z
x,-y,z
x,1/2+y,1/2+z
-x,1/2-y,1/2+z
x,1/2-y,1/2-z
-x,1/2+y,1/2-z
-x,1/2-y,1/2-z
x,1/2+y,1/2-z
-x,1/2+y,1/2+z
x,1/2-y,1/2+z
1/2+x,y,1/2+z
1/2-x,-y,1/2+z
1/2+x,-y,1/2-z
1/2-x,y,1/2-z
1/2-x,-y,1/2-z
1/2+x,y,1/2-z
1/2-x,y,1/2+z
1/2+x,-y,1/2+z
1/2+x,1/2+y,z
1/2-x,1/2-y,z
1/2+x,1/2-y,-z
1/2-x,1/2+y,-z
1/2-x,1/2-y,-z
1/2+x,1/2+y,-z
1/2-x,1/2+y,z
1/2+x,1/2-y,z
loop_
_atom_site_type_symbol
_atom_site_label
_atom_site_fract_x
_atom_site_fract_y
_atom_site_fract_z
Si Si1 0.917388 0.681092 0.382026
Si Si2 0.000000 0.000000 0.500000
Si Si3 0.707141 0.181671 0.134462
Si Si4 0.648557 0.183148 0.053852
Si Si5 0.134818 0.317377 0.801167
Si Si6 0.500000 0.331840 0.403422
O O1 0.916658 0.500000 0.379997
O O2 0.889636 0.740121 0.423899
O O3 0.897973 0.750674 0.335621
O O4 0.960914 0.743340 0.389680
O O5 0.000000 0.129704 0.541625
O O6 0.750000 0.250000 0.139289
O O7 0.685385 0.225946 0.086364
O O8 0.676706 0.224131 0.175264
O O9 0.710465 0.000000 0.134538
O O10 0.643620 0.000000 0.057456
O O11 0.653889 0.221784 0.000000
O O12 0.132009 0.500000 0.800537
O O13 0.131660 0.250000 0.750000
O O14 0.500000 0.500000 0.380635
#
# Coordination Sequence:
#
# PCOD9513196 Si02
#       6
#    32   4  32  32  32  16
#     4  11  22  36  56  84 115 145 182 232 278 324
#     4   8  24  36  62  84 112 160 194 216 276 320
#     4   9  19  34  52  77 108 143 182 226 276 329
#     4   9  19  35  54  74 105 149 190 226 274 334
#     4  10  21  39  60  83 109 144 184 226 278 335
#     4  10  21  39  58  82 112 153 189 220 266 321
#
# _framework density 17.126802999999999
#
# number of rings (size 3 to 8) (size 9 to 14) (size 15 to 20)
#    0.324    1.946    0.000    4.216    1.514    5.622 
#    0.000    3.243    0.000    0.000    0.000    0.000 
#    0.000    0.000    0.000    0.000    0.000    0.000 
#
# Total GULP energy -206130.983475 kJ/mol
# GULP energy per Si atom -5571.107661 kJ/mol
# Density = 1.708782 g / cm^3
# Si number density = 17.126803 Si / 1000 Ang^3
#
#
#
# Elastic Constant Matrix: (Units=GPa)
#
#
# Indices 1 2 3 4 5 6 
#
# 1 156.0536 52.1420 74.4533 0.0000 0.0000 0.0000
# 2 52.1420 71.4681 54.9145 0.0000 0.0000 0.0001
# 3 74.4533 54.9145 153.6091 0.0000 0.0000 0.0000
# 4 0.0000 0.0000 0.0000 27.4176 0.0000 0.0000
# 5 0.0000 0.0000 0.0000 0.0000 3.7874 0.0000
# 6 0.0000 0.0001 0.0000 0.0000 0.0000 30.8527
#
#
#
# Elastic Compliance Matrix: (Units=1/GPa)
#
#
# Indices 1 2 3 4 5 6 
#
# 1 0.009311 -0.004585 -0.002874 0.000000 0.000000 0.000000
# 2 -0.004585 0.021549 -0.005481 0.000000 0.000000 0.000000
# 3 -0.002874 -0.005481 0.009863 0.000000 0.000000 0.000000
# 4 0.000000 0.000000 0.000000 0.036473 0.000000 0.000000
# 5 0.000000 0.000000 0.000000 0.000000 0.264031 0.000000
# 6 0.000000 0.000000 0.000000 0.000000 0.000000 0.032412
#
#
# Mechanical properties :
#
#
# Convention : Reuss Voigt Hill
#
# Bulk Modulus (GPa) = 67.37531 82.68338 75.02935
# Shear Modulus (GPa) = 12.36193 25.71961 19.04077
#
# Velocity S-wave (km/s) = 2.68953 3.87940 3.33791
# Velocity P-wave (km/s) = 7.00494 8.27335 7.66543
#
# Compressibility (1/GPa) = 0.01484223
#
# Stress axis : x y z
#
# Youngs Moduli (GPa) = 107.39752 46.40544 101.39320
#
# Poissons Ratio (x) = 0.21277 0.29140
# Poissons Ratio (y) = 0.49242 0.55578
# Poissons Ratio (z) = 0.30866 0.25437
#
# Static dielectric constant tensor:
#      x y z
#    x 1.561140 0.000000 0.000000 
#    y 0.000000 1.575980 0.000000 
#    z 0.000000 0.000000 1.565380 
# 
# From -- ./inp_files/47444.got.cif
#   From: 2010.05.17/outbox.cif.g08.bks.cpg/sg69_24_cif.got.tgz:47444.got - 2010.06.03 19:29:58.
