data_PCOD9513528
_publ_section_title
;
Structure prediction by ZEFSAII (Michael W. Deem and Ramdas Pophale) SiO2 
 PCOD9513528
Probable space group: F M M M
;
_chemical_formula_sum "Si O2"
_cell_formula_units_Z 72
_cell_length_a 23.531631
_cell_length_b 9.844846
_cell_length_c 13.976705
_cell_angle_alpha 90.000000
_cell_angle_beta 90.000000
_cell_angle_gamma 90.000000
_cell_volume 3237.917324
_symmetry_space_group_name_H-M "F M M M"
_symmetry_group_IT_number 69
_symmetry_cell_setting 'orthorhombic'
loop_
_space_group_symop_operation_xyz
x,y,z
-x,-y,z
x,-y,-z
-x,y,-z
-x,-y,-z
x,y,-z
-x,y,z
x,-y,z
x,1/2+y,1/2+z
-x,1/2-y,1/2+z
x,1/2-y,1/2-z
-x,1/2+y,1/2-z
-x,1/2-y,1/2-z
x,1/2+y,1/2-z
-x,1/2+y,1/2+z
x,1/2-y,1/2+z
1/2+x,y,1/2+z
1/2-x,-y,1/2+z
1/2+x,-y,1/2-z
1/2-x,y,1/2-z
1/2-x,-y,1/2-z
1/2+x,y,1/2-z
1/2-x,y,1/2+z
1/2+x,-y,1/2+z
1/2+x,1/2+y,z
1/2-x,1/2-y,z
1/2+x,1/2-y,-z
1/2-x,1/2+y,-z
1/2-x,1/2-y,-z
1/2+x,1/2+y,-z
1/2-x,1/2+y,z
1/2+x,1/2-y,z
loop_
_atom_site_type_symbol
_atom_site_label
_atom_site_fract_x
_atom_site_fract_y
_atom_site_fract_z
Si Si1 0.657180 0.298546 0.609405
Si Si2 0.889838 0.500000 0.606774
Si Si3 0.250000 0.250000 0.750000
Si Si4 0.434836 0.000000 0.186185
O O1 0.668873 0.336311 0.500000
O O2 0.647192 0.136757 0.613538
O O3 0.708466 0.332539 0.680048
O O4 0.600289 0.372011 0.645702
O O5 0.916527 0.500000 0.500000
O O6 0.930285 0.500000 0.698739
O O7 0.500000 0.000000 0.155841
#
# Coordination Sequence:
#
# PCOD9513528 Si02
#       4
#    32  16   8  16
#     4  11  25  43  70 104 137 179 226 277 342 405
#     4  10  22  44  67 100 138 176 223 275 336 402
#     4  12  22  46  74 100 140 178 222 288 332 408
#     4  12  25  47  70  98 139 183 227 281 338 404
#
# _framework density 22.236518
#
# number of rings (size 3 to 8) (size 9 to 14) (size 15 to 20)
#    0.000    0.889    4.444    1.333    0.000    9.333 
#    0.000    8.889    0.000    0.000    0.000    0.000 
#    0.000    0.000    0.000    0.000    0.000    0.000 
#
# Total GULP energy -100677.027749 kJ/mol
# GULP energy per Si atom -5593.168208 kJ/mol
# Density = 2.218591 g / cm^3
# Si number density = 22.236518 Si / 1000 Ang^3
#
#
#
# Elastic Constant Matrix: (Units=GPa)
#
#
# Indices 1 2 3 4 5 6 
#
# 1 179.0322 42.4259 88.7139 0.0000 0.0000 0.0000
# 2 42.4259 145.8914 30.9240 0.0000 0.0000 0.0000
# 3 88.7139 30.9240 216.1270 0.0000 0.0000 0.0000
# 4 0.0000 0.0000 0.0000 26.2790 0.0000 0.0000
# 5 0.0000 0.0000 0.0000 0.0000 7.4793 0.0000
# 6 0.0000 0.0000 0.0000 0.0000 0.0000 20.1223
#
#
#
# Elastic Compliance Matrix: (Units=1/GPa)
#
#
# Indices 1 2 3 4 5 6 
#
# 1 0.007333 -0.001541 -0.002789 0.000000 0.000000 0.000000
# 2 -0.001541 0.007393 -0.000425 0.000000 0.000000 0.000000
# 3 -0.002789 -0.000425 0.005833 0.000000 0.000000 0.000000
# 4 0.000000 0.000000 0.000000 0.038053 0.000000 0.000000
# 5 0.000000 0.000000 0.000000 0.000000 0.133702 0.000000
# 6 0.000000 0.000000 0.000000 0.000000 0.000000 0.049696
#
#
# Mechanical properties :
#
#
# Convention : Reuss Voigt Hill
#
# Bulk Modulus (GPa) = 90.52369 96.13091 93.32730
# Shear Modulus (GPa) = 19.59218 36.04191 27.81705
#
# Velocity S-wave (km/s) = 2.97152 4.03034 3.54073
# Velocity P-wave (km/s) = 7.25059 8.06121 7.66662
#
# Compressibility (1/GPa) = 0.01104683
#
# Stress axis : x y z
#
# Youngs Moduli (GPa) = 136.36870 135.26819 171.44583
#
# Poissons Ratio (x) = 0.20848 0.47825
# Poissons Ratio (y) = 0.21017 0.07289
# Poissons Ratio (z) = 0.38040 0.05751
#
# Static dielectric constant tensor:
#      x y z
#    x 1.759770 0.000000 0.000000 
#    y 0.000000 1.834580 0.000000 
#    z 0.000000 0.000000 1.834710 
# 
# From -- ./inp_files/18340.got.cif
#   From: 2010.05.17/outbox.cif.g08.bks.cpg/sg69_10_cif.got.tgz:18340.got - 2010.06.03 19:29:58.
