data_PCOD9513702
_publ_section_title
;
Structure prediction by ZEFSAII (Michael W. Deem and Ramdas Pophale) SiO2 
 PCOD9513702
Probable space group: F M M M
;
_chemical_formula_sum "Si O2"
_cell_formula_units_Z 128
_cell_length_a 8.629155
_cell_length_b 25.945775
_cell_length_c 35.206013
_cell_angle_alpha 90.000000
_cell_angle_beta 90.000000
_cell_angle_gamma 90.000000
_cell_volume 7882.278267
_symmetry_space_group_name_H-M "F M M M"
_symmetry_group_IT_number 69
_symmetry_cell_setting 'orthorhombic'
loop_
_space_group_symop_operation_xyz
x,y,z
-x,-y,z
x,-y,-z
-x,y,-z
-x,-y,-z
x,y,-z
-x,y,z
x,-y,z
x,1/2+y,1/2+z
-x,1/2-y,1/2+z
x,1/2-y,1/2-z
-x,1/2+y,1/2-z
-x,1/2-y,1/2-z
x,1/2+y,1/2-z
-x,1/2+y,1/2+z
x,1/2-y,1/2+z
1/2+x,y,1/2+z
1/2-x,-y,1/2+z
1/2+x,-y,1/2-z
1/2-x,y,1/2-z
1/2-x,-y,1/2-z
1/2+x,y,1/2-z
1/2-x,y,1/2+z
1/2+x,-y,1/2+z
1/2+x,1/2+y,z
1/2-x,1/2-y,z
1/2+x,1/2-y,-z
1/2-x,1/2+y,-z
1/2-x,1/2-y,-z
1/2+x,1/2+y,-z
1/2-x,1/2+y,z
1/2+x,1/2-y,z
loop_
_atom_site_type_symbol
_atom_site_label
_atom_site_fract_x
_atom_site_fract_y
_atom_site_fract_z
Si Si1 0.314409 0.806789 0.291977
Si Si2 0.686000 0.500000 0.207213
Si Si3 0.815559 0.060603 0.000000
Si Si4 0.686286 0.440004 0.579325
Si Si5 0.813092 0.901542 0.661473
O O1 0.500000 0.805733 0.290737
O O2 0.250000 0.819981 0.250000
O O3 0.250000 0.750000 0.301235
O O4 0.254229 0.849442 0.321058
O O5 0.500000 0.500000 0.207650
O O6 0.750000 0.500000 0.250000
O O7 0.748233 0.449694 0.185379
O O8 0.751542 0.081519 0.039768
O O9 0.000000 0.063368 0.000000
O O10 0.767838 0.000000 0.000000
O O11 0.500000 0.440204 0.577003
O O12 0.737124 0.500000 0.583566
O O13 0.731099 0.410158 0.617449
O O14 0.000000 0.901599 0.664098
#
# Coordination Sequence:
#
# PCOD9513702 Si02
#       5
#    32  16  16  32  32
#     4  11  22  38  57  78 101 133 173 219 264 306
#     4  12  24  36  50  71 102 139 174 210 253 310
#     4   9  17  27  43  69 100 133 168 209 249 292
#     4   9  17  31  49  70  99 137 172 205 248 303
#     4  11  21  36  54  76 104 136 173 214 258 307
#
# _framework density 16.238959000000001
#
# number of rings (size 3 to 8) (size 9 to 14) (size 15 to 20)
#    0.000    1.625    1.250    6.000    0.000    3.500 
#    0.000    0.000    0.000    0.000    0.000    0.875 
#    0.000    0.000    0.000    0.000    0.000    0.000 
#
# Total GULP energy -178671.151567 kJ/mol
# GULP energy per Si atom -5583.473486 kJ/mol
# Density = 1.620200 g / cm^3
# Si number density = 16.238959 Si / 1000 Ang^3
#
#
#
# Elastic Constant Matrix: (Units=GPa)
#
#
# Indices 1 2 3 4 5 6 
#
# 1 96.9041 37.8763 63.1944 0.0000 0.0000 0.0000
# 2 37.8763 77.7277 82.5846 0.0000 0.0000 0.0000
# 3 63.1944 82.5846 184.7966 0.0000 0.0000 0.0000
# 4 0.0000 0.0000 0.0000 9.9949 0.0000 0.0000
# 5 0.0000 0.0000 0.0000 0.0000 22.2580 0.0000
# 6 0.0000 0.0000 0.0000 0.0000 0.0000 24.3262
#
#
#
# Elastic Compliance Matrix: (Units=1/GPa)
#
#
# Indices 1 2 3 4 5 6 
#
# 1 0.013695 -0.003232 -0.003239 0.000000 0.000000 0.000000
# 2 -0.003232 0.025260 -0.010183 0.000000 0.000000 0.000000
# 3 -0.003239 -0.010183 0.011070 0.000000 0.000000 0.000000
# 4 0.000000 0.000000 0.000000 0.100051 0.000000 0.000000
# 5 0.000000 0.000000 0.000000 0.000000 0.044928 0.000000
# 6 0.000000 0.000000 0.000000 0.000000 0.000000 0.041108
#
#
# Mechanical properties :
#
#
# Convention : Reuss Voigt Hill
#
# Bulk Modulus (GPa) = 59.82254 80.74879 70.28567
# Shear Modulus (GPa) = 18.18233 23.03403 20.60818
#
# Velocity S-wave (km/s) = 3.34978 3.77031 3.56625
# Velocity P-wave (km/s) = 7.20280 8.29379 7.76747
#
# Compressibility (1/GPa) = 0.01671611
#
# Stress axis : x y z
#
# Youngs Moduli (GPa) = 73.01946 39.58811 90.33671
#
# Poissons Ratio (x) = 0.12797 0.29257
# Poissons Ratio (y) = 0.23603 0.91992
# Poissons Ratio (z) = 0.23649 0.40313
#
# Static dielectric constant tensor:
#      x y z
#    x 1.541460 0.000000 0.000000 
#    y 0.000000 1.519270 0.000000 
#    z 0.000000 0.000000 1.551880 
# 
# From -- ./inp_files/5379.got.cif
#   From: 2010.05.17/outbox.cif.g08.bks.cpg/sg69_3_cif.got.tgz:5379.got - 2010.06.03 19:29:58.
