data_PCOD9513248
_publ_section_title
;
Structure prediction by ZEFSAII (Michael W. Deem and Ramdas Pophale) SiO2 
 PCOD9513248
Probable space group: F M M M
;
_chemical_formula_sum "Si O2"
_cell_formula_units_Z 136
_cell_length_a 14.927266
_cell_length_b 17.274228
_cell_length_c 22.785839
_cell_angle_alpha 90.000000
_cell_angle_beta 90.000000
_cell_angle_gamma 90.000000
_cell_volume 5875.488003
_symmetry_space_group_name_H-M "F M M M"
_symmetry_group_IT_number 69
_symmetry_cell_setting 'orthorhombic'
loop_
_space_group_symop_operation_xyz
x,y,z
-x,-y,z
x,-y,-z
-x,y,-z
-x,-y,-z
x,y,-z
-x,y,z
x,-y,z
x,1/2+y,1/2+z
-x,1/2-y,1/2+z
x,1/2-y,1/2-z
-x,1/2+y,1/2-z
-x,1/2-y,1/2-z
x,1/2+y,1/2-z
-x,1/2+y,1/2+z
x,1/2-y,1/2+z
1/2+x,y,1/2+z
1/2-x,-y,1/2+z
1/2+x,-y,1/2-z
1/2-x,y,1/2-z
1/2-x,-y,1/2-z
1/2+x,y,1/2-z
1/2-x,y,1/2+z
1/2+x,-y,1/2+z
1/2+x,1/2+y,z
1/2-x,1/2-y,z
1/2+x,1/2-y,-z
1/2-x,1/2+y,-z
1/2-x,1/2-y,-z
1/2+x,1/2+y,-z
1/2-x,1/2+y,z
1/2+x,1/2-y,z
loop_
_atom_site_type_symbol
_atom_site_label
_atom_site_fract_x
_atom_site_fract_y
_atom_site_fract_z
Si Si1 0.348648 0.714447 0.436512
Si Si2 0.836286 0.000000 0.000000
Si Si3 0.898285 0.878565 0.903108
Si Si4 0.609075 0.664888 0.773844
Si Si5 0.108540 0.584880 0.156286
O O1 0.367457 0.678644 0.500000
O O2 0.250000 0.750000 0.435607
O O3 0.405563 0.791362 0.427023
O O4 0.360558 0.652262 0.386346
O O5 0.844322 0.932117 0.051940
O O6 0.859862 0.864972 0.837417
O O7 0.000000 0.910568 0.899789
O O8 0.500000 0.669230 0.778915
O O9 0.637553 0.750000 0.750000
O O10 0.633365 0.605495 0.722769
O O11 0.140697 0.500000 0.138687
O O12 0.000000 0.585280 0.154246
#
# Coordination Sequence:
#
# PCOD9513248 Si02
#       5
#    32   8  32  32  32
#     4  11  24  42  60  85 118 164 208 246 312 380
#     4  12  25  36  58  96 122 158 209 264 313 356
#     4  11  21  37  60  89 123 155 202 255 305 366
#     4   9  17  32  59  91 121 157 196 248 314 369
#     4  10  21  39  64  95 125 157 206 261 314 370
#
# _framework density 23.147013000000001
#
# number of rings (size 3 to 8) (size 9 to 14) (size 15 to 20)
#    0.000    1.647    3.529    1.765    1.647    1.882 
#    2.118    3.529    0.000    1.412    0.000    0.000 
#    0.000    0.000    0.000    0.000    0.000    0.000 
#
# Total GULP energy -189569.157135 kJ/mol
# GULP energy per Si atom -5575.563445 kJ/mol
# Density = 2.309433 g / cm^3
# Si number density = 23.147013 Si / 1000 Ang^3
#
#
#
# Elastic Constant Matrix: (Units=GPa)
#
#
# Indices 1 2 3 4 5 6 
#
# 1 39.8801 12.8322 14.0993 0.0000 0.0000 0.0000
# 2 12.8322 161.6875 75.6952 0.0000 0.0000 0.0000
# 3 14.0993 75.6952 216.9395 0.0000 0.0000 0.0000
# 4 0.0000 0.0000 0.0000 27.6812 0.0000 0.0000
# 5 0.0000 0.0000 0.0000 0.0000 14.0572 0.0000
# 6 0.0000 0.0000 0.0000 0.0000 0.0000 -1.0340
#
#
#
# Elastic Compliance Matrix: (Units=1/GPa)
#
#
# Indices 1 2 3 4 5 6 
#
# 1 0.025973 -0.001519 -0.001158 0.000000 0.000000 0.000000
# 2 -0.001519 0.007481 -0.002512 0.000000 0.000000 0.000000
# 3 -0.001158 -0.002512 0.005561 0.000000 0.000000 0.000000
# 4 0.000000 0.000000 0.000000 0.036126 0.000000 0.000000
# 5 0.000000 0.000000 0.000000 0.000000 0.071138 0.000000
# 6 0.000000 0.000000 0.000000 0.000000 0.000000 -0.967111
#
#
# Mechanical properties :
#
#
# Convention : Reuss Voigt Hill
#
# Bulk Modulus (GPa) = 34.91850 69.30673 52.11262
# Shear Modulus (GPa) = -6.24291 29.19959 11.47834
#
# Velocity S-wave (km/s) = -1.64406 3.55559 2.22927
# Velocity P-wave (km/s) = 3.39328 6.84568 5.40267
#
# Compressibility (1/GPa) = 0.02863811
#
# Stress axis : x y z
#
# Youngs Moduli (GPa) = 38.50095 133.66878 179.81731
#
# Poissons Ratio (x) = 0.20308 0.20822
# Poissons Ratio (y) = 0.05849 0.45163
# Poissons Ratio (z) = 0.04458 0.33572
#
# Static dielectric constant tensor:
#      x y z
#    x 1.983940 0.000000 0.000000 
#    y 0.000000 1.831730 0.000000 
#    z 0.000000 0.000000 1.889530 
# 
# From -- ./inp_files/17551.got.cif
#   From: 2010.05.17/outbox.cif.g08.bks.cpg/sg69_9_cif.got.tgz:17551.got - 2010.06.03 19:29:58.
