data_PCOD9513889
_publ_section_title
;
Structure prediction by ZEFSAII (Michael W. Deem and Ramdas Pophale) SiO2 
 PCOD9513889
Probable space group: F M M M
;
_chemical_formula_sum "Si O2"
_cell_formula_units_Z 84
_cell_length_a 15.581611
_cell_length_b 9.697129
_cell_length_c 23.312074
_cell_angle_alpha 90.000000
_cell_angle_beta 90.000000
_cell_angle_gamma 90.000000
_cell_volume 3522.381925
_symmetry_space_group_name_H-M "F M M M"
_symmetry_group_IT_number 69
_symmetry_cell_setting 'orthorhombic'
loop_
_space_group_symop_operation_xyz
x,y,z
-x,-y,z
x,-y,-z
-x,y,-z
-x,-y,-z
x,y,-z
-x,y,z
x,-y,z
x,1/2+y,1/2+z
-x,1/2-y,1/2+z
x,1/2-y,1/2-z
-x,1/2+y,1/2-z
-x,1/2-y,1/2-z
x,1/2+y,1/2-z
-x,1/2+y,1/2+z
x,1/2-y,1/2+z
1/2+x,y,1/2+z
1/2-x,-y,1/2+z
1/2+x,-y,1/2-z
1/2-x,y,1/2-z
1/2-x,-y,1/2-z
1/2+x,y,1/2-z
1/2-x,y,1/2+z
1/2+x,-y,1/2+z
1/2+x,1/2+y,z
1/2-x,1/2-y,z
1/2+x,1/2-y,-z
1/2-x,1/2+y,-z
1/2-x,1/2-y,-z
1/2+x,1/2+y,-z
1/2-x,1/2+y,z
1/2+x,1/2-y,z
loop_
_atom_site_type_symbol
_atom_site_label
_atom_site_fract_x
_atom_site_fract_y
_atom_site_fract_z
Si Si1 0.354929 0.742626 0.000000
Si Si2 0.905391 0.759387 0.879659
Si Si3 0.500000 0.000000 0.000000
Si Si4 0.872786 0.500000 0.295059
Si Si5 0.675819 0.500000 0.330133
O O1 0.250000 0.750000 0.000000
O O2 0.380219 0.672608 0.939813
O O3 0.420255 0.878134 0.000000
O O4 0.841209 0.635842 0.866400
O O5 0.000000 0.696316 0.884512
O O6 0.905860 0.865532 0.827405
O O7 0.771897 0.500000 0.308211
O O8 0.883902 0.500000 0.226811
#
# Coordination Sequence:
#
# PCOD9513889 Si02
#       5
#    16  32   4  16  16
#     4  12  26  46  77 109 148 199 252 318 389 457
#     4  12  25  44  69 105 144 184 248 308 373 461
#     4  12  24  52  76 112 156 200 268 314 376 488
#     4  11  25  44  66 100 144 184 243 310 372 448
#     4  11  24  44  70  98 135 196 249 293 371 460
#
# _framework density 23.8475
#
# number of rings (size 3 to 8) (size 9 to 14) (size 15 to 20)
#    0.000    0.381    1.905    6.857    0.000    9.905 
#    0.000    1.905    0.000    0.000    0.000    0.000 
#    0.000    0.000    0.000    0.000    0.000    0.000 
#
# Total GULP energy -117123.869796 kJ/mol
# GULP energy per Si atom -5577.327133 kJ/mol
# Density = 2.379322 g / cm^3
# Si number density = 23.847500 Si / 1000 Ang^3
#
#
#
# Elastic Constant Matrix: (Units=GPa)
#
#
# Indices 1 2 3 4 5 6 
#
# 1 143.6953 4.5751 5.3157 0.0000 0.0000 0.0000
# 2 4.5751 90.7038 8.7926 0.0000 0.0000 0.0000
# 3 5.3157 8.7926 133.1268 0.0000 0.0000 0.0000
# 4 0.0000 0.0000 0.0000 55.4477 0.0000 0.0000
# 5 0.0000 0.0000 0.0000 0.0000 33.4875 0.0000
# 6 0.0000 0.0000 0.0000 0.0000 0.0000 38.1783
#
#
#
# Elastic Compliance Matrix: (Units=1/GPa)
#
#
# Indices 1 2 3 4 5 6 
#
# 1 0.006979 -0.000327 -0.000257 0.000000 0.000000 0.000000
# 2 -0.000327 0.011111 -0.000721 0.000000 0.000000 0.000000
# 3 -0.000257 -0.000721 0.007570 0.000000 0.000000 0.000000
# 4 0.000000 0.000000 0.000000 0.018035 0.000000 0.000000
# 5 0.000000 0.000000 0.000000 0.000000 0.029862 0.000000
# 6 0.000000 0.000000 0.000000 0.000000 0.000000 0.026193
#
#
# Mechanical properties :
#
#
# Convention : Reuss Voigt Hill
#
# Bulk Modulus (GPa) = 43.38407 44.98804 44.18606
# Shear Modulus (GPa) = 45.43681 48.67887 47.05784
#
# Velocity S-wave (km/s) = 4.36972 4.52293 4.44698
# Velocity P-wave (km/s) = 6.60992 6.79571 6.70346
#
# Compressibility (1/GPa) = 0.02304993
#
# Stress axis : x y z
#
# Youngs Moduli (GPa) = 143.28506 89.99871 132.10898
#
# Poissons Ratio (x) = 0.02944 0.03396
# Poissons Ratio (y) = 0.04687 0.09522
# Poissons Ratio (z) = 0.03683 0.06487
#
# Static dielectric constant tensor:
#      x y z
#    x 1.937750 0.000000 0.000000 
#    y 0.000000 1.856690 0.000000 
#    z 0.000000 0.000000 1.937440 
# 
# From -- ./inp_files/7008.got.cif
#   From: 2010.05.17/outbox.cif.g08.bks.cpg/sg69_4_cif.got.tgz:7008.got - 2010.06.03 19:29:58.
