data_PCOD9513557
_publ_section_title
;
Structure prediction by ZEFSAII (Michael W. Deem and Ramdas Pophale) SiO2 
 PCOD9513557
Probable space group: F M M M
;
_chemical_formula_sum "Si O2"
_cell_formula_units_Z 112
_cell_length_a 15.771651
_cell_length_b 37.400748
_cell_length_c 10.094068
_cell_angle_alpha 90.000000
_cell_angle_beta 90.000000
_cell_angle_gamma 90.000000
_cell_volume 5954.203482
_symmetry_space_group_name_H-M "F M M M"
_symmetry_group_IT_number 69
_symmetry_cell_setting 'orthorhombic'
loop_
_space_group_symop_operation_xyz
x,y,z
-x,-y,z
x,-y,-z
-x,y,-z
-x,-y,-z
x,y,-z
-x,y,z
x,-y,z
x,1/2+y,1/2+z
-x,1/2-y,1/2+z
x,1/2-y,1/2-z
-x,1/2+y,1/2-z
-x,1/2-y,1/2-z
x,1/2+y,1/2-z
-x,1/2+y,1/2+z
x,1/2-y,1/2+z
1/2+x,y,1/2+z
1/2-x,-y,1/2+z
1/2+x,-y,1/2-z
1/2-x,y,1/2-z
1/2-x,-y,1/2-z
1/2+x,y,1/2-z
1/2-x,y,1/2+z
1/2+x,-y,1/2+z
1/2+x,1/2+y,z
1/2-x,1/2-y,z
1/2+x,1/2-y,-z
1/2-x,1/2+y,-z
1/2-x,1/2-y,-z
1/2+x,1/2+y,-z
1/2-x,1/2+y,z
1/2+x,1/2-y,z
loop_
_atom_site_type_symbol
_atom_site_label
_atom_site_fract_x
_atom_site_fract_y
_atom_site_fract_z
Si Si1 0.500000 0.784003 0.344888
Si Si2 0.600121 0.041023 0.000000
Si Si3 0.149963 0.413179 0.745745
Si Si4 0.336492 0.835066 0.661021
Si Si5 0.100376 0.960660 0.000000
O O1 0.500000 0.773601 0.500000
O O2 0.500000 0.750000 0.250000
O O3 0.587378 0.806469 0.323300
O O4 0.622407 0.065640 0.875336
O O5 0.500000 0.036603 0.000000
O O6 0.636247 0.000000 0.000000
O O7 0.250000 0.410240 0.750000
O O8 0.123719 0.372559 0.714131
O O9 0.125190 0.438420 0.626400
O O10 0.317411 0.838027 0.500000
O O11 0.250000 0.828112 0.750000
O O12 0.000000 0.964095 0.000000
O O13 0.139560 0.000000 0.000000
#
# Coordination Sequence:
#
# PCOD9513557 Si02
#       5
#    16  16  32  32  16
#     4  10  24  46  70 102 135 172 210 250 315 384
#     4  11  25  41  57  85 125 166 211 270 324 372
#     4  11  23  39  60  88 121 162 213 259 318 371
#     4  10  23  42  67  99 133 168 214 265 314 376
#     4  11  23  37  59  87 117 162 213 262 314 374
#
# _framework density 18.810241000000001
#
# number of rings (size 3 to 8) (size 9 to 14) (size 15 to 20)
#    0.000    1.429    1.429    2.571   10.000    7.429 
#    0.000    2.857    0.000    0.000    0.000    0.000 
#    0.000    0.000    0.000    0.000    0.000    0.000 
#
# Total GULP energy -156057.142415 kJ/mol
# GULP energy per Si atom -5573.469372 kJ/mol
# Density = 1.876743 g / cm^3
# Si number density = 18.810241 Si / 1000 Ang^3
#
#
#
# Elastic Constant Matrix: (Units=GPa)
#
#
# Indices 1 2 3 4 5 6 
#
# 1 67.8906 62.9936 44.6059 0.0000 0.0000 0.0000
# 2 62.9936 180.0285 108.3378 0.0000 0.0000 0.0000
# 3 44.6059 108.3378 188.3839 0.0000 0.0000 0.0000
# 4 0.0000 0.0000 0.0000 35.1826 0.0000 0.0000
# 5 0.0000 0.0000 0.0000 0.0000 115.9415 0.0000
# 6 0.0000 0.0000 0.0000 0.0000 0.0000 41.0771
#
#
#
# Elastic Compliance Matrix: (Units=1/GPa)
#
#
# Indices 1 2 3 4 5 6 
#
# 1 0.021986 -0.006974 -0.001195 0.000000 0.000000 0.000000
# 2 -0.006974 0.010706 -0.004506 0.000000 0.000000 0.000000
# 3 -0.001195 -0.004506 0.008183 0.000000 0.000000 0.000000
# 4 0.000000 0.000000 0.000000 0.028423 0.000000 0.000000
# 5 0.000000 0.000000 0.000000 0.000000 0.008625 0.000000
# 6 0.000000 0.000000 0.000000 0.000000 0.000000 0.024344
#
#
# Mechanical properties :
#
#
# Convention : Reuss Voigt Hill
#
# Bulk Modulus (GPa) = 64.41280 96.46418 80.43849
# Shear Modulus (GPa) = 37.65292 53.13129 45.39210
#
# Velocity S-wave (km/s) = 4.47892 5.32046 4.91772
# Velocity P-wave (km/s) = 7.81444 9.44125 8.66610
#
# Compressibility (1/GPa) = 0.01552486
#
# Stress axis : x y z
#
# Youngs Moduli (GPa) = 45.48450 93.40222 122.20981
#
# Poissons Ratio (x) = 0.65135 0.14608
# Poissons Ratio (y) = 0.31719 0.55067
# Poissons Ratio (z) = 0.05437 0.42086
#
# Static dielectric constant tensor:
#      x y z
#    x 1.653000 0.000000 0.000000 
#    y 0.000000 1.718760 0.000000 
#    z 0.000000 0.000000 1.587050 
# 
# From -- ./inp_files/7434.got.cif
#   From: 2010.05.17/outbox.cif.g08.bks.cpg/sg69_4_cif.got.tgz:7434.got - 2010.06.03 19:29:58.
