data_PCOD9513287
_publ_section_title
;
Structure prediction by ZEFSAII (Michael W. Deem and Ramdas Pophale) SiO2 
 PCOD9513287
Probable space group: F M M M
;
_chemical_formula_sum "Si O2"
_cell_formula_units_Z 128
_cell_length_a 22.695518
_cell_length_b 19.446170
_cell_length_c 14.422857
_cell_angle_alpha 90.000000
_cell_angle_beta 90.000000
_cell_angle_gamma 90.000000
_cell_volume 6365.396707
_symmetry_space_group_name_H-M "F M M M"
_symmetry_group_IT_number 69
_symmetry_cell_setting 'orthorhombic'
loop_
_space_group_symop_operation_xyz
x,y,z
-x,-y,z
x,-y,-z
-x,y,-z
-x,-y,-z
x,y,-z
-x,y,z
x,-y,z
x,1/2+y,1/2+z
-x,1/2-y,1/2+z
x,1/2-y,1/2-z
-x,1/2+y,1/2-z
-x,1/2-y,1/2-z
x,1/2+y,1/2-z
-x,1/2+y,1/2+z
x,1/2-y,1/2+z
1/2+x,y,1/2+z
1/2-x,-y,1/2+z
1/2+x,-y,1/2-z
1/2-x,y,1/2-z
1/2-x,-y,1/2-z
1/2+x,y,1/2-z
1/2-x,y,1/2+z
1/2+x,-y,1/2+z
1/2+x,1/2+y,z
1/2-x,1/2-y,z
1/2+x,1/2-y,-z
1/2-x,1/2+y,-z
1/2-x,1/2-y,-z
1/2+x,1/2+y,-z
1/2-x,1/2+y,z
1/2+x,1/2-y,z
loop_
_atom_site_type_symbol
_atom_site_label
_atom_site_fract_x
_atom_site_fract_y
_atom_site_fract_z
Si Si1 0.068759 0.265898 0.000000
Si Si2 0.643084 0.812146 0.179559
Si Si3 0.066805 0.601270 0.500000
Si Si4 0.629457 0.074936 0.690228
Si Si5 0.259147 0.079980 0.890060
O O1 0.104601 0.288255 0.092025
O O2 0.000000 0.289253 0.000000
O O3 0.068476 0.183645 0.000000
O O4 0.660703 0.750000 0.250000
O O5 0.607207 0.864761 0.244523
O O6 0.696257 0.860065 0.140961
O O7 0.098552 0.576751 0.591788
O O8 0.000000 0.578455 0.500000
O O9 0.698584 0.085879 0.666915
O O10 0.621161 0.000000 0.732777
O O11 0.279728 0.000000 0.877870
O O12 0.247098 0.088220 0.000000
#
# Coordination Sequence:
#
# PCOD9513287 Si02
#       5
#    16  32  16  32  32
#     4  11  26  48  67  90 128 171 218 269 326 377
#     4  12  24  42  67  98 125 171 213 265 316 384
#     4  11  23  43  67  92 127 167 218 278 321 369
#     4  11  23  41  65  99 135 169 210 259 326 386
#     4  10  21  40  67  95 135 176 204 254 324 389
#
# _framework density 20.108723999999999
#
# number of rings (size 3 to 8) (size 9 to 14) (size 15 to 20)
#    0.000    1.000    5.000    1.875    0.000    6.500 
#    0.000    2.500    0.000    5.250    0.000    0.000 
#    0.000    0.000    0.000    0.000    0.000    0.000 
#
# Total GULP energy -178758.226462 kJ/mol
# GULP energy per Si atom -5586.194577 kJ/mol
# Density = 2.006296 g / cm^3
# Si number density = 20.108724 Si / 1000 Ang^3
#
#
#
# Elastic Constant Matrix: (Units=GPa)
#
#
# Indices 1 2 3 4 5 6 
#
# 1 86.1046 42.1710 21.5023 0.0000 0.0000 0.0000
# 2 42.1710 145.8033 55.7422 0.0000 0.0000 0.0000
# 3 21.5023 55.7422 122.0011 0.0000 0.0000 0.0000
# 4 0.0000 0.0000 0.0000 38.1105 0.0000 0.0000
# 5 0.0000 0.0000 0.0000 0.0000 -16.3116 0.0000
# 6 0.0000 0.0000 0.0000 0.0000 0.0000 29.5916
#
#
#
# Elastic Compliance Matrix: (Units=1/GPa)
#
#
# Indices 1 2 3 4 5 6 
#
# 1 0.013583 -0.003651 -0.000726 0.000000 0.000000 0.000000
# 2 -0.003651 0.009292 -0.003602 0.000000 0.000000 0.000000
# 3 -0.000726 -0.003602 0.009970 0.000000 0.000000 0.000000
# 4 0.000000 0.000000 0.000000 0.026239 0.000000 0.000000
# 5 0.000000 0.000000 0.000000 0.000000 -0.061306 0.000000
# 6 0.000000 0.000000 0.000000 0.000000 0.000000 0.033793
#
#
# Mechanical properties :
#
#
# Convention : Reuss Voigt Hill
#
# Bulk Modulus (GPa) = 59.21546 65.85999 62.53772
# Shear Modulus (GPa) = 94.05807 25.91101 59.98454
#
# Velocity S-wave (km/s) = 6.84663 3.59353 5.46762
# Velocity P-wave (km/s) = 9.59236 7.07396 8.42776
#
# Compressibility (1/GPa) = 0.01688748
#
# Stress axis : x y z
#
# Youngs Moduli (GPa) = 73.61995 107.62375 100.29868
#
# Poissons Ratio (x) = 0.39296 0.07279
# Poissons Ratio (y) = 0.26881 0.36126
# Poissons Ratio (z) = 0.05343 0.38764
#
# Static dielectric constant tensor:
#      x y z
#    x 1.694470 0.000000 0.000000 
#    y 0.000000 1.732960 0.000000 
#    z 0.000000 0.000000 1.544460 
# 
# From -- ./inp_files/16366.got.cif
#   From: 2010.05.17/outbox.cif.g08.bks.cpg/sg69_9_cif.got.tgz:16366.got - 2010.06.03 19:29:58.
