data_PCOD9513633
_publ_section_title
;
Structure prediction by ZEFSAII (Michael W. Deem and Ramdas Pophale) SiO2 
 PCOD9513633
Probable space group: F M M M
;
_chemical_formula_sum "Si O2"
_cell_formula_units_Z 168
_cell_length_a 27.430439
_cell_length_b 16.293447
_cell_length_c 20.822261
_cell_angle_alpha 90.000000
_cell_angle_beta 90.000000
_cell_angle_gamma 90.000000
_cell_volume 9306.226455
_symmetry_space_group_name_H-M "F M M M"
_symmetry_group_IT_number 69
_symmetry_cell_setting 'orthorhombic'
loop_
_space_group_symop_operation_xyz
x,y,z
-x,-y,z
x,-y,-z
-x,y,-z
-x,-y,-z
x,y,-z
-x,y,z
x,-y,z
x,1/2+y,1/2+z
-x,1/2-y,1/2+z
x,1/2-y,1/2-z
-x,1/2+y,1/2-z
-x,1/2-y,1/2-z
x,1/2+y,1/2-z
-x,1/2+y,1/2+z
x,1/2-y,1/2+z
1/2+x,y,1/2+z
1/2-x,-y,1/2+z
1/2+x,-y,1/2-z
1/2-x,y,1/2-z
1/2-x,-y,1/2-z
1/2+x,y,1/2-z
1/2-x,y,1/2+z
1/2+x,-y,1/2+z
1/2+x,1/2+y,z
1/2-x,1/2-y,z
1/2+x,1/2-y,-z
1/2-x,1/2+y,-z
1/2-x,1/2-y,-z
1/2+x,1/2+y,-z
1/2-x,1/2+y,z
1/2+x,1/2-y,z
loop_
_atom_site_type_symbol
_atom_site_label
_atom_site_fract_x
_atom_site_fract_y
_atom_site_fract_z
Si Si1 0.141059 0.902272 0.424825
Si Si2 0.000000 0.000000 0.849825
Si Si3 0.925763 0.641548 0.687820
Si Si4 0.726095 0.839350 0.841070
Si Si5 0.680793 0.905822 0.713782
Si Si6 0.055248 0.831695 0.337442
O O1 0.133882 0.885706 0.500000
O O2 0.190252 0.860412 0.398672
O O3 0.095668 0.869680 0.383481
O O4 0.145441 0.000000 0.415340
O O5 0.042395 0.927707 0.845869
O O6 0.868178 0.626292 0.681418
O O7 0.938819 0.733158 0.665538
O O8 0.936978 0.637266 0.764373
O O9 0.750000 0.750000 0.844501
O O10 0.694112 0.851821 0.776287
O O11 0.772153 0.899298 0.831705
O O12 0.673699 0.000000 0.734419
O O13 0.000000 0.852302 0.356927
#
# Coordination Sequence:
#
# PCOD9513633 Si02
#       6
#    32   8  32  32  32  32
#     4  11  25  43  63  85 116 162 207 252 304 356
#     4  12  20  34  56  94 132 162 192 232 314 384
#     4  11  21  34  56  93 126 163 192 242 311 361
#     4  11  22  36  55  82 114 153 194 246 299 360
#     4  11  20  31  55  86 119 154 194 239 299 355
#     4  11  22  37  57  85 125 161 203 247 300 359
#
# _framework density 18.052430000000001
#
# number of rings (size 3 to 8) (size 9 to 14) (size 15 to 20)
#    0.000    0.952    4.762    5.143    4.000    1.143 
#    0.000    0.952    0.000    0.000    0.000    1.333 
#    0.000    0.000    0.000    0.000    0.000    0.000 
#
# Total GULP energy -234147.705657 kJ/mol
# GULP energy per Si atom -5574.945373 kJ/mol
# Density = 1.801134 g / cm^3
# Si number density = 18.052430 Si / 1000 Ang^3
#
#
#
# Elastic Constant Matrix: (Units=GPa)
#
#
# Indices 1 2 3 4 5 6 
#
# 1 126.6404 5.9184 21.8030 0.0000 0.0000 0.0000
# 2 5.9184 61.1804 21.3564 0.0000 0.0000 0.0000
# 3 21.8030 21.3564 50.4606 0.0000 0.0000 0.0000
# 4 0.0000 0.0000 0.0000 15.0648 0.0000 0.0000
# 5 0.0000 0.0000 0.0000 0.0000 0.5990 0.0000
# 6 0.0000 0.0000 0.0000 0.0000 0.0000 39.2394
#
#
#
# Elastic Compliance Matrix: (Units=1/GPa)
#
#
# Indices 1 2 3 4 5 6 
#
# 1 0.008546 0.000542 -0.003922 0.000000 0.000000 0.000000
# 2 0.000542 0.019213 -0.008366 0.000000 0.000000 0.000000
# 3 -0.003922 -0.008366 0.025053 0.000000 0.000000 0.000000
# 4 0.000000 0.000000 0.000000 0.066380 0.000000 0.000000
# 5 0.000000 0.000000 0.000000 0.000000 1.669458 0.000000
# 6 0.000000 0.000000 0.000000 0.000000 0.000000 0.025485
#
#
# Mechanical properties :
#
#
# Convention : Reuss Voigt Hill
#
# Bulk Modulus (GPa) = 34.10559 37.38188 35.74373
# Shear Modulus (GPa) = 2.70651 23.59423 13.15037
#
# Velocity S-wave (km/s) = 1.22577 3.61914 2.70192
# Velocity P-wave (km/s) = 4.57568 6.18196 5.43845
#
# Compressibility (1/GPa) = 0.02932071
#
# Stress axis : x y z
#
# Youngs Moduli (GPa) = 117.00970 52.04840 39.91568
#
# Poissons Ratio (x) = -0.02823 0.15656
# Poissons Ratio (y) = -0.06347 0.33393
# Poissons Ratio (z) = 0.45894 0.43543
#
# Static dielectric constant tensor:
#      x y z
#    x 1.629680 0.000000 0.000000 
#    y 0.000000 1.630520 0.000000 
#    z 0.000000 0.000000 1.600010 
# 
# From -- ./inp_files/33395.got.cif
#   From: 2010.05.17/outbox.cif.g08.bks.cpg/sg69_17_cif.got.tgz:33395.got - 2010.06.03 19:29:58.
