data_PCOD9513117
_publ_section_title
;
Structure prediction by ZEFSAII (Michael W. Deem and Ramdas Pophale) SiO2 
 PCOD9513117
Probable space group: F M M M
;
_chemical_formula_sum "Si O2"
_cell_formula_units_Z 100
_cell_length_a 23.730150
_cell_length_b 27.135460
_cell_length_c 8.071418
_cell_angle_alpha 90.000000
_cell_angle_beta 90.000000
_cell_angle_gamma 90.000000
_cell_volume 5197.416377
_symmetry_space_group_name_H-M "F M M M"
_symmetry_group_IT_number 69
_symmetry_cell_setting 'orthorhombic'
loop_
_space_group_symop_operation_xyz
x,y,z
-x,-y,z
x,-y,-z
-x,y,-z
-x,-y,-z
x,y,-z
-x,y,z
x,-y,z
x,1/2+y,1/2+z
-x,1/2-y,1/2+z
x,1/2-y,1/2-z
-x,1/2+y,1/2-z
-x,1/2-y,1/2-z
x,1/2+y,1/2-z
-x,1/2+y,1/2+z
x,1/2-y,1/2+z
1/2+x,y,1/2+z
1/2-x,-y,1/2+z
1/2+x,-y,1/2-z
1/2-x,y,1/2-z
1/2-x,-y,1/2-z
1/2+x,y,1/2-z
1/2-x,y,1/2+z
1/2+x,-y,1/2+z
1/2+x,1/2+y,z
1/2-x,1/2-y,z
1/2+x,1/2-y,-z
1/2-x,1/2+y,-z
1/2-x,1/2-y,-z
1/2+x,1/2+y,-z
1/2-x,1/2+y,z
1/2+x,1/2-y,z
loop_
_atom_site_type_symbol
_atom_site_label
_atom_site_fract_x
_atom_site_fract_y
_atom_site_fract_z
Si Si1 0.380565 0.600500 0.699695
Si Si2 0.816051 0.500000 0.301988
Si Si3 0.000000 0.500000 0.000000
Si Si4 0.000000 0.575634 0.311729
Si Si5 0.814858 0.197038 0.303226
O O1 0.387538 0.602313 0.500000
O O2 0.348522 0.548964 0.738622
O O3 0.440759 0.602916 0.788529
O O4 0.344956 0.647660 0.757449
O O5 0.818607 0.500000 0.500000
O O6 0.750000 0.500000 0.250000
O O7 0.000000 0.541065 0.149481
O O8 0.000000 0.554833 0.500000
O O9 0.816659 0.195718 0.500000
O O10 0.839083 0.250000 0.250000
O O11 0.750000 0.195600 0.250000
#
# Coordination Sequence:
#
# PCOD9513117 Si02
#       5
#    32  16   4  16  32
#     4  11  23  42  62  89 128 164 206 268 315 373
#     4  12  25  39  58  89 121 161 205 251 314 382
#     4  12  22  44  60  86 132 152 214 264 292 374
#     4  12  25  41  66  93 122 174 215 258 321 374
#     4  10  21  37  63  91 124 164 209 262 320 373
#
# _framework density 19.240328000000002
#
# number of rings (size 3 to 8) (size 9 to 14) (size 15 to 20)
#    0.000    0.960    1.600    6.480    0.000    7.680 
#    0.000    0.800    0.000    0.000    0.000    0.000 
#    0.000    0.000    0.000    0.000    0.000    0.000 
#
# Total GULP energy -139271.203804 kJ/mol
# GULP energy per Si atom -5570.848152 kJ/mol
# Density = 1.919654 g / cm^3
# Si number density = 19.240328 Si / 1000 Ang^3
#
#
#
# Elastic Constant Matrix: (Units=GPa)
#
#
# Indices 1 2 3 4 5 6 
#
# 1 128.0721 81.6644 20.6542 -0.0011 0.0009 -0.0005
# 2 81.6644 183.4965 29.5931 -0.0001 0.0003 -0.0006
# 3 20.6542 29.5931 116.1781 -0.0057 0.0042 -0.0025
# 4 -0.0011 -0.0001 -0.0057 40.9510 0.0023 -0.0004
# 5 0.0009 0.0003 0.0042 0.0023 26.0194 0.0002
# 6 -0.0005 -0.0006 -0.0025 -0.0004 0.0002 45.4172
#
#
#
# Elastic Compliance Matrix: (Units=1/GPa)
#
#
# Indices 1 2 3 4 5 6 
#
# 1 0.010962 -0.004760 -0.000736 0.000000 0.000000 0.000000
# 2 -0.004760 0.007750 -0.001128 0.000000 0.000000 0.000000
# 3 -0.000736 -0.001128 0.009026 0.000001 -0.000001 0.000000
# 4 0.000000 0.000000 0.000001 0.024419 -0.000002 0.000000
# 5 0.000000 0.000000 -0.000001 -0.000002 0.038433 0.000000
# 6 0.000000 0.000000 0.000000 0.000000 0.000000 0.022018
#
#
# Mechanical properties :
#
#
# Convention : Reuss Voigt Hill
#
# Bulk Modulus (GPa) = 69.01599 76.84112 72.92855
# Shear Modulus (GPa) = 38.25970 42.19985 40.22978
#
# Velocity S-wave (km/s) = 4.46412 4.68835 4.57761
# Velocity P-wave (km/s) = 7.90692 8.32657 8.11946
#
# Compressibility (1/GPa) = 0.01448940
#
# Stress axis : x y z
#
# Youngs Moduli (GPa) = 91.22491 129.03352 110.79493
#
# Poissons Ratio (x) = 0.61417 0.08159
# Poissons Ratio (y) = 0.43421 0.12496
# Poissons Ratio (z) = 0.06718 0.14553
#
# Static dielectric constant tensor:
#      x y z
#    x 1.638470 0.000000 0.000000 
#    y 0.000000 1.686720 0.000000 
#    z 0.000000 0.000000 1.666300 
# 
# From -- ./inp_files/2997.got.cif
#   From: 2010.05.17/outbox.cif.g08.bks.cpg/sg69_2_cif.got.tgz:2997.got - 2010.06.03 19:29:58.
