data_PCOD9513497
_publ_section_title
;
Structure prediction by ZEFSAII (Michael W. Deem and Ramdas Pophale) SiO2 
 PCOD9513497
Probable space group: F M M M
;
_chemical_formula_sum "Si O2"
_cell_formula_units_Z 112
_cell_length_a 10.873596
_cell_length_b 25.530556
_cell_length_c 18.108849
_cell_angle_alpha 90.000000
_cell_angle_beta 90.000000
_cell_angle_gamma 90.000000
_cell_volume 5027.178586
_symmetry_space_group_name_H-M "F M M M"
_symmetry_group_IT_number 69
_symmetry_cell_setting 'orthorhombic'
loop_
_space_group_symop_operation_xyz
x,y,z
-x,-y,z
x,-y,-z
-x,y,-z
-x,-y,-z
x,y,-z
-x,y,z
x,-y,z
x,1/2+y,1/2+z
-x,1/2-y,1/2+z
x,1/2-y,1/2-z
-x,1/2+y,1/2-z
-x,1/2-y,1/2-z
x,1/2+y,1/2-z
-x,1/2+y,1/2+z
x,1/2-y,1/2+z
1/2+x,y,1/2+z
1/2-x,-y,1/2+z
1/2+x,-y,1/2-z
1/2-x,y,1/2-z
1/2-x,-y,1/2-z
1/2+x,y,1/2-z
1/2-x,y,1/2+z
1/2+x,-y,1/2+z
1/2+x,1/2+y,z
1/2-x,1/2-y,z
1/2+x,1/2-y,-z
1/2-x,1/2+y,-z
1/2-x,1/2-y,-z
1/2+x,1/2+y,-z
1/2-x,1/2+y,z
1/2+x,1/2-y,z
loop_
_atom_site_type_symbol
_atom_site_label
_atom_site_fract_x
_atom_site_fract_y
_atom_site_fract_z
Si Si1 0.731462 0.867305 0.912792
Si Si2 0.362516 0.805987 0.208398
Si Si3 0.639407 0.941340 0.309772
Si Si4 0.000000 0.941441 0.588800
O O1 0.684678 0.813034 0.875312
O O2 0.842783 0.895832 0.870746
O O3 0.620576 0.907787 0.895352
O O4 0.749184 0.862290 0.000000
O O5 0.500000 0.827152 0.214039
O O6 0.369407 0.750000 0.250000
O O7 0.250000 0.833581 0.250000
O O8 0.500000 0.937256 0.278453
O O9 0.750000 0.940205 0.250000
O O10 0.647852 0.000000 0.344156
O O11 0.000000 0.946425 0.500000
O O12 0.000000 0.000000 0.620620
#
# Coordination Sequence:
#
# PCOD9513497 Si02
#       4
#    32  32  32  16
#     4  11  22  37  63  95 128 172 221 275 336 399
#     4  10  22  42  66  91 121 163 219 280 343 405
#     4  10  23  41  62  93 136 185 231 273 320 386
#     4   9  18  32  53  88 128 164 204 255 314 379
#
# _framework density 22.278898000000002
#
# number of rings (size 3 to 8) (size 9 to 14) (size 15 to 20)
#    0.000    1.857    1.429    1.714    2.000    5.714 
#    0.000    4.286    0.000    1.714    0.000    0.000 
#    0.000    0.000    0.000    0.000    0.000    0.000 
#
# Total GULP energy -155922.977685 kJ/mol
# GULP energy per Si atom -5568.677774 kJ/mol
# Density = 2.222819 g / cm^3
# Si number density = 22.278898 Si / 1000 Ang^3
#
#
#
# Elastic Constant Matrix: (Units=GPa)
#
#
# Indices 1 2 3 4 5 6 
#
# 1 170.8534 1.0612 48.3903 0.0000 0.0000 0.0000
# 2 1.0612 129.7323 50.4996 0.0000 0.0000 0.0000
# 3 48.3903 50.4996 140.6069 0.0000 0.0000 0.0000
# 4 0.0000 0.0000 0.0000 36.8134 0.0000 0.0000
# 5 0.0000 0.0000 0.0000 0.0000 26.7380 0.0000
# 6 0.0000 0.0000 0.0000 0.0000 0.0000 18.4269
#
#
#
# Elastic Compliance Matrix: (Units=1/GPa)
#
#
# Indices 1 2 3 4 5 6 
#
# 1 0.006587 0.000963 -0.002613 0.000000 0.000000 0.000000
# 2 0.000963 0.009102 -0.003600 0.000000 0.000000 0.000000
# 3 -0.002613 -0.003600 0.009304 0.000000 0.000000 0.000000
# 4 0.000000 0.000000 0.000000 0.027164 0.000000 0.000000
# 5 0.000000 0.000000 0.000000 0.000000 0.037400 0.000000
# 6 0.000000 0.000000 0.000000 0.000000 0.000000 0.054269
#
#
# Mechanical properties :
#
#
# Convention : Reuss Voigt Hill
#
# Bulk Modulus (GPa) = 68.99898 71.23276 70.11587
# Shear Modulus (GPa) = 31.41551 39.14509 35.28030
#
# Velocity S-wave (km/s) = 3.75921 4.19626 3.98373
# Velocity P-wave (km/s) = 7.06257 7.45123 7.25950
#
# Compressibility (1/GPa) = 0.01449297
#
# Stress axis : x y z
#
# Youngs Moduli (GPa) = 151.81353 109.86818 107.47624
#
# Poissons Ratio (x) = -0.10583 0.28082
# Poissons Ratio (y) = -0.14623 0.38696
# Poissons Ratio (z) = 0.39667 0.39558
#
# Static dielectric constant tensor:
#      x y z
#    x 1.877880 0.000000 0.000000 
#    y 0.000000 1.942780 0.000000 
#    z 0.000000 0.000000 1.843690 
# 
# From -- ./inp_files/8309.got.cif
#   From: 2010.05.17/outbox.cif.g08.bks.cpg/sg69_5_cif.got.tgz:8309.got - 2010.06.03 19:29:58.
