data_PCOD9513640
_publ_section_title
;
Structure prediction by ZEFSAII (Michael W. Deem and Ramdas Pophale) SiO2 
 PCOD9513640
Probable space group: F M M M
;
_chemical_formula_sum "Si O2"
_cell_formula_units_Z 208
_cell_length_a 18.326032
_cell_length_b 23.563553
_cell_length_c 27.091307
_cell_angle_alpha 90.000000
_cell_angle_beta 90.000000
_cell_angle_gamma 90.000000
_cell_volume 11698.742286
_symmetry_space_group_name_H-M "F M M M"
_symmetry_group_IT_number 69
_symmetry_cell_setting 'orthorhombic'
loop_
_space_group_symop_operation_xyz
x,y,z
-x,-y,z
x,-y,-z
-x,y,-z
-x,-y,-z
x,y,-z
-x,y,z
x,-y,z
x,1/2+y,1/2+z
-x,1/2-y,1/2+z
x,1/2-y,1/2-z
-x,1/2+y,1/2-z
-x,1/2-y,1/2-z
x,1/2+y,1/2-z
-x,1/2+y,1/2+z
x,1/2-y,1/2+z
1/2+x,y,1/2+z
1/2-x,-y,1/2+z
1/2+x,-y,1/2-z
1/2-x,y,1/2-z
1/2-x,-y,1/2-z
1/2+x,y,1/2-z
1/2-x,y,1/2+z
1/2+x,-y,1/2+z
1/2+x,1/2+y,z
1/2-x,1/2-y,z
1/2+x,1/2-y,-z
1/2-x,1/2+y,-z
1/2-x,1/2-y,-z
1/2+x,1/2+y,-z
1/2-x,1/2+y,z
1/2+x,1/2-y,z
loop_
_atom_site_type_symbol
_atom_site_label
_atom_site_fract_x
_atom_site_fract_y
_atom_site_fract_z
Si Si1 0.664959 0.816755 0.810074
Si Si2 0.208417 0.934246 0.059220
Si Si3 0.349554 0.866009 0.087177
Si Si4 0.659568 0.316887 0.196537
Si Si5 0.169009 0.741691 0.442904
Si Si6 0.414059 0.937859 0.000000
Si Si7 0.086618 0.863566 0.895223
O O1 0.634680 0.854693 0.854983
O O2 0.645519 0.749834 0.815847
O O3 0.642885 0.829504 0.753804
O O4 0.753179 0.822827 0.811135
O O5 0.267039 0.890236 0.081925
O O6 0.129640 0.914602 0.078568
O O7 0.223255 0.000000 0.072117
O O8 0.212378 0.928471 0.000000
O O9 0.361565 0.804567 0.062602
O O10 0.392151 0.907862 0.050994
O O11 0.613602 0.356867 0.160963
O O12 0.179028 0.725795 0.500000
O O13 0.250000 0.750000 0.419894
O O14 0.118884 0.693959 0.419607
O O15 0.500000 0.941914 0.000000
O O16 0.378747 0.000000 0.000000
O O17 0.000000 0.867020 0.899724
#
# Coordination Sequence:
#
# PCOD9513640 Si02
#       7
#    32  32  32  32  32  16  32
#     4   9  17  31  62  84 115 151 193 241 282 347
#     4  11  23  39  61  86 112 155 211 248 280 344
#     4  12  19  36  63  89 114 149 197 248 296 349
#     4   9  17  34  53  89 118 152 190 231 295 352
#     4  11  20  33  55  84 117 153 188 236 293 351
#     4  11  26  44  59  84 123 159 195 248 310 360
#     4  12  24  37  56  85 126 161 189 239 302 361
#
# _framework density 17.779688
#
# number of rings (size 3 to 8) (size 9 to 14) (size 15 to 20)
#    0.000    1.308    6.154    1.846    0.000    2.154 
#    0.000    3.077    0.000    2.769    0.000    0.000 
#    0.000    0.000    0.000    0.000    0.000    0.000 
#
# Total GULP energy -289955.674131 kJ/mol
# GULP energy per Si atom -5576.070656 kJ/mol
# Density = 1.773922 g / cm^3
# Si number density = 17.779688 Si / 1000 Ang^3
#
#
#
# Elastic Constant Matrix: (Units=GPa)
#
#
# Indices 1 2 3 4 5 6 
#
# 1 62.0961 9.6082 23.1400 0.0000 0.0000 0.0000
# 2 9.6082 76.8326 36.9163 0.0000 0.0000 0.0000
# 3 23.1400 36.9163 133.1282 0.0000 0.0000 0.0000
# 4 0.0000 0.0000 0.0000 8.5271 0.0000 0.0000
# 5 0.0000 0.0000 0.0000 0.0000 15.7820 0.0000
# 6 0.0000 0.0000 0.0000 0.0000 0.0000 17.7758
#
#
#
# Elastic Compliance Matrix: (Units=1/GPa)
#
#
# Indices 1 2 3 4 5 6 
#
# 1 0.017265 -0.000827 -0.002772 0.000000 0.000000 0.000000
# 2 -0.000827 0.015056 -0.004031 0.000000 0.000000 0.000000
# 3 -0.002772 -0.004031 0.009111 0.000000 0.000000 0.000000
# 4 0.000000 0.000000 0.000000 0.117273 0.000000 0.000000
# 5 0.000000 0.000000 0.000000 0.000000 0.063364 0.000000
# 6 0.000000 0.000000 0.000000 0.000000 0.000000 0.056256
#
#
# Mechanical properties :
#
#
# Convention : Reuss Voigt Hill
#
# Bulk Modulus (GPa) = 38.20930 45.70955 41.95942
# Shear Modulus (GPa) = 16.53941 21.90980 19.22461
#
# Velocity S-wave (km/s) = 3.05330 3.51421 3.29183
# Velocity P-wave (km/s) = 5.82814 6.49853 6.17244
#
# Compressibility (1/GPa) = 0.02617164
#
# Stress axis : x y z
#
# Youngs Moduli (GPa) = 57.92099 66.42033 109.75614
#
# Poissons Ratio (x) = 0.05496 0.30419
# Poissons Ratio (y) = 0.04792 0.44244
# Poissons Ratio (z) = 0.16053 0.26775
#
# Static dielectric constant tensor:
#      x y z
#    x 1.620370 0.000000 0.000000 
#    y 0.000000 1.613500 0.000000 
#    z 0.000000 0.000000 1.649530 
# 
# From -- ./inp_files/42123.got.cif
#   From: 2010.05.17/outbox.cif.g08.bks.cpg/sg69_22_cif.got.tgz:42123.got - 2010.06.03 19:29:58.
