data_PCOD9513059
_publ_section_title
;
Structure prediction by ZEFSAII (Michael W. Deem and Ramdas Pophale) SiO2 
 PCOD9513059
Probable space group: F M M M
;
_chemical_formula_sum "Si O2"
_cell_formula_units_Z 160
_cell_length_a 10.624160
_cell_length_b 28.451147
_cell_length_c 28.212745
_cell_angle_alpha 90.000000
_cell_angle_beta 90.000000
_cell_angle_gamma 90.000000
_cell_volume 8527.853394
_symmetry_space_group_name_H-M "F M M M"
_symmetry_group_IT_number 69
_symmetry_cell_setting 'orthorhombic'
loop_
_space_group_symop_operation_xyz
x,y,z
-x,-y,z
x,-y,-z
-x,y,-z
-x,-y,-z
x,y,-z
-x,y,z
x,-y,z
x,1/2+y,1/2+z
-x,1/2-y,1/2+z
x,1/2-y,1/2-z
-x,1/2+y,1/2-z
-x,1/2-y,1/2-z
x,1/2+y,1/2-z
-x,1/2+y,1/2+z
x,1/2-y,1/2+z
1/2+x,y,1/2+z
1/2-x,-y,1/2+z
1/2+x,-y,1/2-z
1/2-x,y,1/2-z
1/2-x,-y,1/2-z
1/2+x,y,1/2-z
1/2-x,y,1/2+z
1/2+x,-y,1/2+z
1/2+x,1/2+y,z
1/2-x,1/2-y,z
1/2+x,1/2-y,-z
1/2-x,1/2+y,-z
1/2-x,1/2-y,-z
1/2+x,1/2+y,-z
1/2-x,1/2+y,z
1/2+x,1/2-y,z
loop_
_atom_site_type_symbol
_atom_site_label
_atom_site_fract_x
_atom_site_fract_y
_atom_site_fract_z
Si Si1 0.358931 0.445324 0.603012
Si Si2 0.857380 0.383093 0.556589
Si Si3 0.711218 0.051402 0.695134
Si Si4 0.643594 0.711547 0.115852
Si Si5 0.638796 0.346172 0.788139
O O1 0.500000 0.427650 0.593814
O O2 0.352987 0.500000 0.588510
O O3 0.249855 0.416379 0.577661
O O4 0.328242 0.444192 0.659198
O O5 0.846868 0.380930 0.500000
O O6 0.843456 0.331673 0.579473
O O7 0.000000 0.399640 0.568463
O O8 0.750000 0.049681 0.750000
O O9 0.639648 0.100639 0.690946
O O10 0.652189 0.000000 0.684051
O O11 0.500000 0.729966 0.111924
O O12 0.750000 0.750000 0.107899
O O13 0.657737 0.689097 0.168256
O O14 0.500000 0.337888 0.766942
O O15 0.750000 0.342122 0.750000
#
# Coordination Sequence:
#
# PCOD9513059 Si02
#       5
#    32  32  32  32  32
#     4  10  21  37  59  89 124 159 197 241 286 337
#     4  10  22  42  64  85 115 153 194 242 297 358
#     4   9  18  33  54  83 120 158 192 227 275 334
#     4  10  22  41  61  86 115 147 191 243 297 352
#     4  10  21  37  57  85 120 155 195 237 281 340
#
# _framework density 18.762048
#
# number of rings (size 3 to 8) (size 9 to 14) (size 15 to 20)
#    0.000    2.200    2.000    0.000    0.000    7.200 
#    0.000   10.000    0.000    0.000    0.000    0.000 
#    0.000    0.000    0.000    0.000    0.000    0.000 
#
# Total GULP energy -222993.427129 kJ/mol
# GULP energy per Si atom -5574.835678 kJ/mol
# Density = 1.871934 g / cm^3
# Si number density = 18.762048 Si / 1000 Ang^3
#
#
#
# Elastic Constant Matrix: (Units=GPa)
#
#
# Indices 1 2 3 4 5 6 
#
# 1 190.7193 81.3709 72.4263 0.0000 0.0000 0.0000
# 2 81.3709 65.7904 30.2126 0.0000 0.0000 0.0000
# 3 72.4263 30.2126 79.1647 0.0000 0.0000 0.0000
# 4 0.0000 0.0000 0.0000 -82.8017 0.0000 0.0000
# 5 0.0000 0.0000 0.0000 0.0000 18.0290 0.0000
# 6 0.0000 0.0000 0.0000 0.0000 0.0000 29.5714
#
#
#
# Elastic Compliance Matrix: (Units=1/GPa)
#
#
# Indices 1 2 3 4 5 6 
#
# 1 0.014035 -0.013897 -0.007536 0.000000 0.000000 0.000000
# 2 -0.013897 0.032192 0.000429 0.000000 0.000000 0.000000
# 3 -0.007536 0.000429 0.019363 0.000000 0.000000 0.000000
# 4 0.000000 0.000000 0.000000 -0.012077 0.000000 0.000000
# 5 0.000000 0.000000 0.000000 0.000000 0.055466 0.000000
# 6 0.000000 0.000000 0.000000 0.000000 0.000000 0.033816
#
#
# Mechanical properties :
#
#
# Convention : Reuss Voigt Hill
#
# Bulk Modulus (GPa) = 42.40959 78.18823 60.29891
# Shear Modulus (GPa) = 25.95195 3.07071 14.51133
#
# Velocity S-wave (km/s) = 3.72319 1.28071 2.78410
# Velocity P-wave (km/s) = 6.41373 6.62956 6.52254
#
# Compressibility (1/GPa) = 0.02357957
#
# Stress axis : x y z
#
# Youngs Moduli (GPa) = 71.25264 31.06407 51.64533
#
# Poissons Ratio (x) = 0.43171 0.38920
# Poissons Ratio (y) = 0.99023 -0.02215
# Poissons Ratio (z) = 0.53697 -0.01332
#
# Static dielectric constant tensor:
#      x y z
#    x 1.681200 0.000000 0.000000 
#    y 0.000000 1.654910 0.000000 
#    z 0.000000 0.000000 1.640680 
# 
# From -- ./inp_files/40265.got.cif
#   From: 2010.05.17/outbox.cif.g08.bks.cpg/sg69_21_cif.got.tgz:40265.got - 2010.06.03 19:29:58.
