data_PCOD9513618
_publ_section_title
;
Structure prediction by ZEFSAII (Michael W. Deem and Ramdas Pophale) SiO2 
 PCOD9513618
Probable space group: F M M M
;
_chemical_formula_sum "Si O2"
_cell_formula_units_Z 176
_cell_length_a 14.578699
_cell_length_b 22.735558
_cell_length_c 32.164380
_cell_angle_alpha 90.000000
_cell_angle_beta 90.000000
_cell_angle_gamma 90.000000
_cell_volume 10661.039963
_symmetry_space_group_name_H-M "F M M M"
_symmetry_group_IT_number 69
_symmetry_cell_setting 'orthorhombic'
loop_
_space_group_symop_operation_xyz
x,y,z
-x,-y,z
x,-y,-z
-x,y,-z
-x,-y,-z
x,y,-z
-x,y,z
x,-y,z
x,1/2+y,1/2+z
-x,1/2-y,1/2+z
x,1/2-y,1/2-z
-x,1/2+y,1/2-z
-x,1/2-y,1/2-z
x,1/2+y,1/2-z
-x,1/2+y,1/2+z
x,1/2-y,1/2+z
1/2+x,y,1/2+z
1/2-x,-y,1/2+z
1/2+x,-y,1/2-z
1/2-x,y,1/2-z
1/2-x,-y,1/2-z
1/2+x,y,1/2-z
1/2-x,y,1/2+z
1/2+x,-y,1/2+z
1/2+x,1/2+y,z
1/2-x,1/2-y,z
1/2+x,1/2-y,-z
1/2-x,1/2+y,-z
1/2-x,1/2-y,-z
1/2+x,1/2+y,-z
1/2-x,1/2+y,z
1/2+x,1/2-y,z
loop_
_atom_site_type_symbol
_atom_site_label
_atom_site_fract_x
_atom_site_fract_y
_atom_site_fract_z
Si Si1 0.600308 0.356207 0.550194
Si Si2 0.645840 0.726898 0.953293
Si Si3 0.794218 0.112155 0.910384
Si Si4 0.103869 0.571270 0.238482
Si Si5 0.392372 0.000000 0.450261
Si Si6 0.225931 0.071295 0.817487
O O1 0.613094 0.360171 0.500000
O O2 0.500000 0.382336 0.560408
O O3 0.596640 0.286508 0.560265
O O4 0.689798 0.382274 0.572309
O O5 0.750000 0.750000 0.956552
O O6 0.650631 0.670779 0.923798
O O7 0.615462 0.709740 0.000000
O O8 0.790982 0.101674 0.861266
O O9 0.843207 0.057103 0.931779
O O10 0.101403 0.500000 0.237619
O O11 0.149702 0.586486 0.282767
O O12 0.175897 0.588171 0.202628
O O13 0.000000 0.592948 0.233719
O O14 0.500000 0.000000 0.439230
O O15 0.384307 0.000000 0.500000
O O16 0.224692 0.000000 0.822889
#
# Coordination Sequence:
#
# PCOD9513618 Si02
#       6
#    32  32  32  32  16  32
#     4   9  18  33  53  74  95 126 171 218 258 289
#     4   8  15  29  49  69  91 125 167 209 248 276
#     4  11  19  32  50  73 104 133 162 206 247 292
#     4   8  15  29  48  64  89 125 160 200 242 284
#     4  11  24  36  45  64 101 147 178 192 227 295
#     4   9  17  29  44  71  98 125 162 194 237 296
#
# _framework density 16.508709
#
# number of rings (size 3 to 8) (size 9 to 14) (size 15 to 20)
#    0.000    2.818    0.909    3.818    0.000    2.182 
#    0.000    2.273    0.000    1.636    0.000   22.909 
#    0.000   18.909    0.000    0.000    0.000    0.000 
#
# Total GULP energy -244998.091373 kJ/mol
# GULP energy per Si atom -5568.138440 kJ/mol
# Density = 1.647113 g / cm^3
# Si number density = 16.508709 Si / 1000 Ang^3
#
#
#
# Elastic Constant Matrix: (Units=GPa)
#
#
# Indices 1 2 3 4 5 6 
#
# 1 106.9830 29.2253 39.6464 0.0000 0.0000 0.0000
# 2 29.2253 62.5532 47.2122 0.0000 0.0000 0.0000
# 3 39.6464 47.2122 105.9893 0.0000 0.0000 0.0000
# 4 0.0000 0.0000 0.0000 -9.0138 0.0000 0.0000
# 5 0.0000 0.0000 0.0000 0.0000 6.4702 0.0000
# 6 0.0000 0.0000 0.0000 0.0000 0.0000 12.6617
#
#
#
# Elastic Compliance Matrix: (Units=1/GPa)
#
#
# Indices 1 2 3 4 5 6 
#
# 1 0.011245 -0.003132 -0.002811 0.000000 0.000000 0.000000
# 2 -0.003132 0.024955 -0.009945 0.000000 0.000000 0.000000
# 3 -0.002811 -0.009945 0.014916 0.000000 0.000000 0.000000
# 4 0.000000 0.000000 0.000000 -0.110941 0.000000 0.000000
# 5 0.000000 0.000000 0.000000 0.000000 0.154554 0.000000
# 6 0.000000 0.000000 0.000000 0.000000 0.000000 0.078978
#
#
# Mechanical properties :
#
#
# Convention : Reuss Voigt Hill
#
# Bulk Modulus (GPa) = 51.70391 56.41038 54.05715
# Shear Modulus (GPa) = 23.59270 12.65306 18.12288
#
# Velocity S-wave (km/s) = 3.78445 2.77148 3.31687
# Velocity P-wave (km/s) = 7.10516 6.66976 6.89090
#
# Compressibility (1/GPa) = 0.01934090
#
# Stress axis : x y z
#
# Youngs Moduli (GPa) = 88.93175 40.07139 67.04103
#
# Poissons Ratio (x) = 0.12550 0.18846
# Poissons Ratio (y) = 0.27852 0.66671
# Poissons Ratio (z) = 0.24999 0.39850
#
# Static dielectric constant tensor:
#      x y z
#    x 1.615340 0.000000 0.000000 
#    y 0.000000 1.544850 0.000000 
#    z 0.000000 0.000000 1.535520 
# 
# From -- ./inp_files/41100.got.cif
#   From: 2010.05.17/outbox.cif.g08.bks.cpg/sg69_21_cif.got.tgz:41100.got - 2010.06.03 19:29:58.
