data_PCOD9513693
_publ_section_title
;
Structure prediction by ZEFSAII (Michael W. Deem and Ramdas Pophale) SiO2 
 PCOD9513693
Probable space group: F M M M
;
_chemical_formula_sum "Si O2"
_cell_formula_units_Z 232
_cell_length_a 27.720841
_cell_length_b 16.058017
_cell_length_c 27.754395
_cell_angle_alpha 90.000000
_cell_angle_beta 90.000000
_cell_angle_gamma 90.000000
_cell_volume 12354.639573
_symmetry_space_group_name_H-M "F M M M"
_symmetry_group_IT_number 69
_symmetry_cell_setting 'orthorhombic'
loop_
_space_group_symop_operation_xyz
x,y,z
-x,-y,z
x,-y,-z
-x,y,-z
-x,-y,-z
x,y,-z
-x,y,z
x,-y,z
x,1/2+y,1/2+z
-x,1/2-y,1/2+z
x,1/2-y,1/2-z
-x,1/2+y,1/2-z
-x,1/2-y,1/2-z
x,1/2+y,1/2-z
-x,1/2+y,1/2+z
x,1/2-y,1/2+z
1/2+x,y,1/2+z
1/2-x,-y,1/2+z
1/2+x,-y,1/2-z
1/2-x,y,1/2-z
1/2-x,-y,1/2-z
1/2+x,y,1/2-z
1/2-x,y,1/2+z
1/2+x,-y,1/2+z
1/2+x,1/2+y,z
1/2-x,1/2-y,z
1/2+x,1/2-y,-z
1/2-x,1/2+y,-z
1/2-x,1/2-y,-z
1/2+x,1/2+y,-z
1/2-x,1/2+y,z
1/2+x,1/2-y,z
loop_
_atom_site_type_symbol
_atom_site_label
_atom_site_fract_x
_atom_site_fract_y
_atom_site_fract_z
Si Si1 0.554985 0.672900 0.445587
Si Si2 0.862885 0.099113 0.380542
Si Si3 0.658238 0.629736 0.081095
Si Si4 0.185027 0.898535 0.287184
Si Si5 0.053392 0.873409 0.056294
Si Si6 0.810910 0.500000 0.500000
Si Si7 0.200528 0.203819 0.555230
Si Si8 0.292928 0.600930 0.817500
O O1 0.571653 0.651459 0.500000
O O2 0.500000 0.642333 0.440015
O O3 0.590530 0.635773 0.406424
O O4 0.552585 0.772986 0.442355
O O5 0.854681 0.128297 0.325708
O O6 0.816450 0.130024 0.410801
O O7 0.865016 0.000000 0.381424
O O8 0.602421 0.600724 0.082691
O O9 0.660908 0.723339 0.060492
O O10 0.682922 0.630209 0.133287
O O11 0.685622 0.572132 0.042659
O O12 0.237417 0.873363 0.308269
O O13 0.180447 0.871723 0.231822
O O14 0.185487 0.000000 0.286324
O O15 0.000000 0.901721 0.072497
O O16 0.059049 0.898103 0.000000
O O17 0.204514 0.176206 0.500000
O O18 0.250000 0.250000 0.568814
O O19 0.293360 0.500000 0.819526
#
# Coordination Sequence:
#
# PCOD9513693 Si02
#       8
#    32  32  32  32  32   8  32  32
#     4   9  18  33  55  80 107 144 186 226 277 339
#     4  11  21  35  56  81 110 141 185 232 277 325
#     4  12  20  36  54  81 113 144 181 227 275 327
#     4   8  17  34  53  79 105 141 187 233 273 323
#     4   9  17  32  54  75 104 147 182 216 271 331
#     4  12  24  32  55  90 114 140 190 224 263 352
#     4  11  23  37  50  74 113 152 179 216 272 332
#     4   9  17  32  57  78 105 144 189 229 275 317
#
# _framework density 18.778371
#
# number of rings (size 3 to 8) (size 9 to 14) (size 15 to 20)
#    0.000    2.069    3.448    2.897    0.000    1.379 
#    1.241    2.069    0.000    3.310    0.000    3.862 
#    0.000    0.000    0.000    0.000    0.000    0.000 
#
# Total GULP energy -323110.730688 kJ/mol
# GULP energy per Si atom -5570.874667 kJ/mol
# Density = 1.873563 g / cm^3
# Si number density = 18.778371 Si / 1000 Ang^3
#
#
#
# Elastic Constant Matrix: (Units=GPa)
#
#
# Indices 1 2 3 4 5 6 
#
# 1 77.6016 -0.4105 50.5222 0.0000 0.0000 0.0000
# 2 -0.4105 37.1711 18.5069 0.0000 0.0000 0.0000
# 3 50.5222 18.5069 159.1663 0.0000 0.0000 0.0000
# 4 0.0000 0.0000 0.0000 6.3761 0.0000 0.0000
# 5 0.0000 0.0000 0.0000 0.0000 30.4797 0.0000
# 6 0.0000 0.0000 0.0000 0.0000 0.0000 -1.3668
#
#
#
# Elastic Compliance Matrix: (Units=1/GPa)
#
#
# Indices 1 2 3 4 5 6 
#
# 1 0.016546 0.002970 -0.005597 0.000000 0.000000 0.000000
# 2 0.002970 0.029089 -0.004325 0.000000 0.000000 0.000000
# 3 -0.005597 -0.004325 0.008562 0.000000 0.000000 0.000000
# 4 0.000000 0.000000 0.000000 0.156835 0.000000 0.000000
# 5 0.000000 0.000000 0.000000 0.000000 0.032809 0.000000
# 6 0.000000 0.000000 0.000000 0.000000 0.000000 -0.731638
#
#
# Mechanical properties :
#
#
# Convention : Reuss Voigt Hill
#
# Bulk Modulus (GPa) = 24.81890 45.68624 35.25257
# Shear Modulus (GPa) = -10.85867 20.78584 4.96359
#
# Velocity S-wave (km/s) = -2.40730 3.33062 1.62757
# Velocity P-wave (km/s) = 2.34918 6.25881 4.72712
#
# Compressibility (1/GPa) = 0.04029187
#
# Stress axis : x y z
#
# Youngs Moduli (GPa) = 60.43699 34.37766 116.79121
#
# Poissons Ratio (x) = -0.10209 0.65372
# Poissons Ratio (y) = -0.17947 0.50510
# Poissons Ratio (z) = 0.33829 0.14868
#
# Static dielectric constant tensor:
#      x y z
#    x 1.708210 0.000000 0.000000 
#    y 0.000000 1.696310 0.000000 
#    z 0.000000 0.000000 1.641400 
# 
# From -- ./inp_files/43692.got.cif
#   From: 2010.05.17/outbox.cif.g08.bks.cpg/sg69_22_cif.got.tgz:43692.got - 2010.06.03 19:29:58.
