data_PCOD9513080
_publ_section_title
;
Structure prediction by ZEFSAII (Michael W. Deem and Ramdas Pophale) SiO2 
 PCOD9513080
Probable space group: F M M M
;
_chemical_formula_sum "Si O2"
_cell_formula_units_Z 176
_cell_length_a 28.642929
_cell_length_b 31.239589
_cell_length_c 10.351950
_cell_angle_alpha 90.000000
_cell_angle_beta 90.000000
_cell_angle_gamma 90.000000
_cell_volume 9262.855810
_symmetry_space_group_name_H-M "F M M M"
_symmetry_group_IT_number 69
_symmetry_cell_setting 'orthorhombic'
loop_
_space_group_symop_operation_xyz
x,y,z
-x,-y,z
x,-y,-z
-x,y,-z
-x,-y,-z
x,y,-z
-x,y,z
x,-y,z
x,1/2+y,1/2+z
-x,1/2-y,1/2+z
x,1/2-y,1/2-z
-x,1/2+y,1/2-z
-x,1/2-y,1/2-z
x,1/2+y,1/2-z
-x,1/2+y,1/2+z
x,1/2-y,1/2+z
1/2+x,y,1/2+z
1/2-x,-y,1/2+z
1/2+x,-y,1/2-z
1/2-x,y,1/2-z
1/2-x,-y,1/2-z
1/2+x,y,1/2-z
1/2-x,y,1/2+z
1/2+x,-y,1/2+z
1/2+x,1/2+y,z
1/2-x,1/2-y,z
1/2+x,1/2-y,-z
1/2-x,1/2+y,-z
1/2-x,1/2-y,-z
1/2+x,1/2+y,-z
1/2-x,1/2+y,z
1/2+x,1/2-y,z
loop_
_atom_site_type_symbol
_atom_site_label
_atom_site_fract_x
_atom_site_fract_y
_atom_site_fract_z
Si Si1 0.395443 0.049545 0.732604
Si Si2 0.053974 0.551300 0.000000
Si Si3 0.792087 0.925366 0.152584
Si Si4 0.551402 0.370104 0.149522
Si Si5 0.108482 0.211853 0.153280
Si Si6 0.212446 0.322090 0.644797
O O1 0.340579 0.055761 0.706258
O O2 0.422552 0.084777 0.651071
O O3 0.407519 0.000000 0.706065
O O4 0.414698 0.061144 0.875119
O O5 0.049273 0.500000 0.000000
O O6 0.000000 0.567947 0.000000
O O7 0.750000 0.937579 0.250000
O O8 0.795734 0.873478 0.156225
O O9 0.785233 0.937118 0.000000
O O10 0.500000 0.373419 0.209590
O O11 0.582030 0.331020 0.200789
O O12 0.546167 0.359017 0.000000
O O13 0.096437 0.250000 0.250000
O O14 0.163382 0.201280 0.161161
O O15 0.098687 0.220631 0.000000
O O16 0.230245 0.314136 0.500000
O O17 0.250000 0.309036 0.750000
#
# Coordination Sequence:
#
# PCOD9513080 Si02
#       6
#    32  16  32  32  32  32
#     4  11  22  38  62  89 123 162 207 256 308 368
#     4   9  20  38  58  84 122 164 203 252 313 369
#     4  10  21  37  59  89 124 165 210 255 307 368
#     4  10  21  39  62  86 117 155 195 249 313 365
#     4  10  21  39  60  86 120 155 193 242 299 359
#     4   9  18  35  57  82 118 155 193 243 298 356
#
# _framework density 19.000619
#
# number of rings (size 3 to 8) (size 9 to 14) (size 15 to 20)
#    0.000    2.091    1.818    1.091    1.273    4.364 
#    1.636    2.727    0.000    0.000    0.000    0.000 
#    0.000    0.000    0.000    0.000    0.000    0.000 
#
# Total GULP energy -245206.688320 kJ/mol
# GULP energy per Si atom -5572.879280 kJ/mol
# Density = 1.895737 g / cm^3
# Si number density = 19.000619 Si / 1000 Ang^3
#
#
#
# Elastic Constant Matrix: (Units=GPa)
#
#
# Indices 1 2 3 4 5 6 
#
# 1 119.0755 45.7298 65.5898 -0.0012 -0.0024 -0.0020
# 2 45.7298 90.3472 41.9355 -0.0027 -0.0015 -0.0008
# 3 65.5898 41.9355 101.3919 -0.0035 -0.0046 -0.0038
# 4 -0.0012 -0.0027 -0.0035 42.5191 -0.0001 0.0005
# 5 -0.0024 -0.0015 -0.0046 -0.0001 15.5711 0.0034
# 6 -0.0020 -0.0008 -0.0038 0.0005 0.0034 -2.6626
#
#
#
# Elastic Compliance Matrix: (Units=1/GPa)
#
#
# Indices 1 2 3 4 5 6 
#
# 1 0.013907 -0.003544 -0.007531 0.000000 0.000000 0.000001
# 2 -0.003544 0.014601 -0.003747 0.000001 0.000000 0.000004
# 3 -0.007531 -0.003747 0.016284 0.000001 0.000003 -0.000016
# 4 0.000000 0.000001 0.000001 0.023519 0.000000 0.000005
# 5 0.000000 0.000000 0.000003 0.000000 0.064222 0.000083
# 6 0.000001 0.000004 -0.000016 0.000005 0.000083 -0.375566
#
#
# Mechanical properties :
#
#
# Convention : Reuss Voigt Hill
#
# Bulk Modulus (GPa) = 66.00651 68.59162 67.29906
# Shear Modulus (GPa) = -23.99910 21.58947 -1.20481
#
# Velocity S-wave (km/s) = -3.55782 3.37449 -0.79716
# Velocity P-wave (km/s) = 4.23522 7.16666 5.88634
#
# Compressibility (1/GPa) = 0.01515002
#
# Stress axis : x y z
#
# Youngs Moduli (GPa) = 71.90586 68.48811 61.41035
#
# Poissons Ratio (x) = 0.24270 0.46247
# Poissons Ratio (y) = 0.25481 0.23008
# Poissons Ratio (z) = 0.54150 0.25660
#
# Static dielectric constant tensor:
#      x y z
#    x 1.671030 0.000000 0.000000 
#    y 0.000000 1.654960 0.000000 
#    z 0.000000 0.000000 1.781360 
# 
# From -- ./inp_files/10628.got.cif
#   From: 2010.05.17/outbox.cif.g08.bks.cpg/sg69_6_cif.got.tgz:10628.got - 2010.06.03 19:29:58.
