data_PCOD9513142
_publ_section_title
;
Structure prediction by ZEFSAII (Michael W. Deem and Ramdas Pophale) SiO2 
 PCOD9513142
Probable space group: F M M M
;
_chemical_formula_sum "Si O2"
_cell_formula_units_Z 160
_cell_length_a 8.710850
_cell_length_b 34.149191
_cell_length_c 29.500347
_cell_angle_alpha 90.000000
_cell_angle_beta 90.000000
_cell_angle_gamma 90.000000
_cell_volume 8775.423394
_symmetry_space_group_name_H-M "F M M M"
_symmetry_group_IT_number 69
_symmetry_cell_setting 'orthorhombic'
loop_
_space_group_symop_operation_xyz
x,y,z
-x,-y,z
x,-y,-z
-x,y,-z
-x,-y,-z
x,y,-z
-x,y,z
x,-y,z
x,1/2+y,1/2+z
-x,1/2-y,1/2+z
x,1/2-y,1/2-z
-x,1/2+y,1/2-z
-x,1/2-y,1/2-z
x,1/2+y,1/2-z
-x,1/2+y,1/2+z
x,1/2-y,1/2+z
1/2+x,y,1/2+z
1/2-x,-y,1/2+z
1/2+x,-y,1/2-z
1/2-x,y,1/2-z
1/2-x,-y,1/2-z
1/2+x,y,1/2-z
1/2-x,y,1/2+z
1/2+x,-y,1/2+z
1/2+x,1/2+y,z
1/2-x,1/2-y,z
1/2+x,1/2-y,-z
1/2-x,1/2+y,-z
1/2-x,1/2-y,-z
1/2+x,1/2+y,-z
1/2-x,1/2+y,z
1/2+x,1/2-y,z
loop_
_atom_site_type_symbol
_atom_site_label
_atom_site_fract_x
_atom_site_fract_y
_atom_site_fract_z
Si Si1 0.817761 0.349467 0.126208
Si Si2 0.186689 0.500000 0.448270
Si Si3 0.183277 0.708390 0.699647
Si Si4 0.319546 0.707496 0.054071
Si Si5 0.684627 0.000000 0.699596
Si Si6 0.185802 0.436269 0.625337
O O1 0.738279 0.326069 0.167195
O O2 0.766171 0.326267 0.081272
O O3 0.760724 0.393956 0.125149
O O4 0.000000 0.347762 0.131347
O O5 0.242006 0.500000 0.500000
O O6 0.230546 0.537929 0.418641
O O7 0.000000 0.500000 0.449383
O O8 0.250000 0.702682 0.750000
O O9 0.250000 0.750000 0.682851
O O10 0.000000 0.710608 0.701348
O O11 0.500000 0.706945 0.065763
O O12 0.250000 0.750000 0.065409
O O13 0.304382 0.702169 0.000000
O O14 0.750000 0.000000 0.750000
O O15 0.728799 0.962128 0.669455
O O16 0.500000 0.000000 0.702102
O O17 0.000000 0.432517 0.625124
#
# Coordination Sequence:
#
# PCOD9513142 Si02
#       6
#    32  16  32  32  16  32
#     4  12  24  37  55  82 116 152 188 230 279 327
#     4   8  15  32  60  85 105 136 177 221 274 335
#     4  11  22  39  60  83 112 147 189 233 279 331
#     4  10  21  38  59  82 110 147 190 235 282 332
#     4   9  19  36  59  81 107 142 178 221 272 328
#     4   9  19  36  55  81 112 140 178 227 275 326
#
# _framework density 18.232738999999999
#
# number of rings (size 3 to 8) (size 9 to 14) (size 15 to 20)
#    0.000    1.900    0.000    6.600    0.000    3.600 
#    0.000    5.500    0.000    0.600    0.000    0.000 
#    0.000    0.000    0.000    0.000    0.000    0.000 
#
# Total GULP energy -223469.658248 kJ/mol
# GULP energy per Si atom -5586.741456 kJ/mol
# Density = 1.819124 g / cm^3
# Si number density = 18.232739 Si / 1000 Ang^3
#
#
#
# Elastic Constant Matrix: (Units=GPa)
#
#
# Indices 1 2 3 4 5 6 
#
# 1 121.3214 70.5988 50.7294 0.0000 0.0000 0.0000
# 2 70.5988 180.1072 81.3260 0.0000 0.0000 0.0000
# 3 50.7294 81.3260 120.9692 0.0000 0.0000 0.0000
# 4 0.0000 0.0000 0.0000 19.9616 0.0000 0.0000
# 5 0.0000 0.0000 0.0000 0.0000 28.2569 0.0000
# 6 0.0000 0.0000 0.0000 0.0000 0.0000 33.6728
#
#
#
# Elastic Compliance Matrix: (Units=1/GPa)
#
#
# Indices 1 2 3 4 5 6 
#
# 1 0.011182 -0.003253 -0.002502 0.000000 0.000000 0.000000
# 2 -0.003253 0.008919 -0.004632 0.000000 0.000000 0.000000
# 3 -0.002502 -0.004632 0.012430 0.000000 0.000000 0.000000
# 4 0.000000 0.000000 0.000000 0.050096 0.000000 0.000000
# 5 0.000000 0.000000 0.000000 0.000000 0.035390 0.000000
# 6 0.000000 0.000000 0.000000 0.000000 0.000000 0.029698
#
#
# Mechanical properties :
#
#
# Convention : Reuss Voigt Hill
#
# Bulk Modulus (GPa) = 85.06117 91.96737 88.51427
# Shear Modulus (GPa) = 29.00113 31.02782 30.01448
#
# Velocity S-wave (km/s) = 3.99257 4.12972 4.06172
# Velocity P-wave (km/s) = 8.24672 8.56094 8.40530
#
# Compressibility (1/GPa) = 0.01175625
#
# Stress axis : x y z
#
# Youngs Moduli (GPa) = 89.42977 112.12090 80.45244
#
# Poissons Ratio (x) = 0.36477 0.20130
# Poissons Ratio (y) = 0.29095 0.37264
# Poissons Ratio (z) = 0.22376 0.51932
#
# Static dielectric constant tensor:
#      x y z
#    x 1.613260 0.000000 0.000000 
#    y 0.000000 1.590330 0.000000 
#    z 0.000000 0.000000 1.630120 
# 
# From -- ./inp_files/44617.got.cif
#   From: 2010.05.17/outbox.cif.g08.bks.cpg/sg69_23_cif.got.tgz:44617.got - 2010.06.03 19:29:58.
