data_PCOD9513300
_publ_section_title
;
Structure prediction by ZEFSAII (Michael W. Deem and Ramdas Pophale) SiO2 
 PCOD9513300
Probable space group: F M M M
;
_chemical_formula_sum "Si O2"
_cell_formula_units_Z 80
_cell_length_a 20.051534
_cell_length_b 10.610923
_cell_length_c 15.713030
_cell_angle_alpha 90.000000
_cell_angle_beta 90.000000
_cell_angle_gamma 90.000000
_cell_volume 3343.187280
_symmetry_space_group_name_H-M "F M M M"
_symmetry_group_IT_number 69
_symmetry_cell_setting 'orthorhombic'
loop_
_space_group_symop_operation_xyz
x,y,z
-x,-y,z
x,-y,-z
-x,y,-z
-x,-y,-z
x,y,-z
-x,y,z
x,-y,z
x,1/2+y,1/2+z
-x,1/2-y,1/2+z
x,1/2-y,1/2-z
-x,1/2+y,1/2-z
-x,1/2-y,1/2-z
x,1/2+y,1/2-z
-x,1/2+y,1/2+z
x,1/2-y,1/2+z
1/2+x,y,1/2+z
1/2-x,-y,1/2+z
1/2+x,-y,1/2-z
1/2-x,y,1/2-z
1/2-x,-y,1/2-z
1/2+x,y,1/2-z
1/2-x,y,1/2+z
1/2+x,-y,1/2+z
1/2+x,1/2+y,z
1/2-x,1/2-y,z
1/2+x,1/2-y,-z
1/2-x,1/2+y,-z
1/2-x,1/2-y,-z
1/2+x,1/2+y,-z
1/2-x,1/2+y,z
1/2+x,1/2-y,z
loop_
_atom_site_type_symbol
_atom_site_label
_atom_site_fract_x
_atom_site_fract_y
_atom_site_fract_z
Si Si1 0.500000 0.147424 0.898053
Si Si2 0.340894 0.500000 0.402501
Si Si3 0.142633 0.269534 0.402300
Si Si4 0.174278 0.500000 0.718488
O O1 0.568560 0.219023 0.876802
O O2 0.500000 0.000000 0.872744
O O3 0.500000 0.148312 0.000000
O O4 0.372708 0.500000 0.500000
O O5 0.311935 0.357883 0.402565
O O6 0.367873 0.500000 0.305427
O O7 0.140809 0.315910 0.500000
O O8 0.161644 0.377248 0.337611
O O9 0.250000 0.500000 0.750000
#
# Coordination Sequence:
#
# PCOD9513300 Si02
#       4
#    16  16  32  16
#     4   9  16  35  72 110 143 177 218 288 371 444
#     4  10  22  42  68  95 130 183 239 289 348 424
#     4  10  21  41  71 105 140 181 230 285 363 443
#     4  12  27  44  60  94 146 190 239 307 352 398
#
# _framework density 23.929262000000001
#
# number of rings (size 3 to 8) (size 9 to 14) (size 15 to 20)
#    0.000    1.800    2.000    1.800    0.000    5.600 
#    0.000   13.000    0.000    0.000    0.000    0.000 
#    0.000    0.000    0.000    0.000    0.000    0.000 
#
# Total GULP energy -111399.841040 kJ/mol
# GULP energy per Si atom -5569.992052 kJ/mol
# Density = 2.387480 g / cm^3
# Si number density = 23.929262 Si / 1000 Ang^3
#
#
#
# Elastic Constant Matrix: (Units=GPa)
#
#
# Indices 1 2 3 4 5 6 
#
# 1 127.3671 68.2966 59.9907 0.0000 0.0000 0.0000
# 2 68.2966 221.5585 123.1950 0.0000 0.0000 0.0000
# 3 59.9907 123.1950 206.6015 0.0000 0.0000 0.0000
# 4 0.0000 0.0000 0.0000 47.4749 0.0000 0.0000
# 5 0.0000 0.0000 0.0000 0.0000 32.7380 0.0000
# 6 0.0000 0.0000 0.0000 0.0000 0.0000 31.3372
#
#
#
# Elastic Compliance Matrix: (Units=1/GPa)
#
#
# Indices 1 2 3 4 5 6 
#
# 1 0.009727 -0.002136 -0.001551 0.000000 0.000000 0.000000
# 2 -0.002136 0.007221 -0.003686 0.000000 0.000000 0.000000
# 3 -0.001551 -0.003686 0.007488 0.000000 0.000000 0.000000
# 4 0.000000 0.000000 0.000000 0.021064 0.000000 0.000000
# 5 0.000000 0.000000 0.000000 0.000000 0.030546 0.000000
# 6 0.000000 0.000000 0.000000 0.000000 0.000000 0.031911
#
#
# Mechanical properties :
#
#
# Convention : Reuss Voigt Hill
#
# Bulk Modulus (GPa) = 103.18256 117.61019 110.39637
# Shear Modulus (GPa) = 39.70364 42.57967 41.14166
#
# Velocity S-wave (km/s) = 4.07776 4.22287 4.15095
# Velocity P-wave (km/s) = 8.08605 8.54591 8.31916
#
# Compressibility (1/GPa) = 0.00969156
#
# Stress axis : x y z
#
# Youngs Moduli (GPa) = 102.80480 138.47682 133.54155
#
# Poissons Ratio (x) = 0.29582 0.20708
# Poissons Ratio (y) = 0.21961 0.49221
# Poissons Ratio (z) = 0.15941 0.51040
#
# Static dielectric constant tensor:
#      x y z
#    x 2.137230 0.000000 0.000000 
#    y 0.000000 1.888280 0.000000 
#    z 0.000000 0.000000 1.905910 
# 
# From -- ./inp_files/4239.got.cif
#   From: 2010.05.17/outbox.cif.g08.bks.cpg/sg69_3_cif.got.tgz:4239.got - 2010.06.03 19:29:58.
