data_PCOD9513656
_publ_section_title
;
Structure prediction by ZEFSAII (Michael W. Deem and Ramdas Pophale) SiO2 
 PCOD9513656
Probable space group: F M M M
;
_chemical_formula_sum "Si O2"
_cell_formula_units_Z 144
_cell_length_a 19.233154
_cell_length_b 18.747206
_cell_length_c 21.596075
_cell_angle_alpha 90.000000
_cell_angle_beta 90.000000
_cell_angle_gamma 90.000000
_cell_volume 7786.851412
_symmetry_space_group_name_H-M "F M M M"
_symmetry_group_IT_number 69
_symmetry_cell_setting 'orthorhombic'
loop_
_space_group_symop_operation_xyz
x,y,z
-x,-y,z
x,-y,-z
-x,y,-z
-x,-y,-z
x,y,-z
-x,y,z
x,-y,z
x,1/2+y,1/2+z
-x,1/2-y,1/2+z
x,1/2-y,1/2-z
-x,1/2+y,1/2-z
-x,1/2-y,1/2-z
x,1/2+y,1/2-z
-x,1/2+y,1/2+z
x,1/2-y,1/2+z
1/2+x,y,1/2+z
1/2-x,-y,1/2+z
1/2+x,-y,1/2-z
1/2-x,y,1/2-z
1/2-x,-y,1/2-z
1/2+x,y,1/2-z
1/2-x,y,1/2+z
1/2+x,-y,1/2+z
1/2+x,1/2+y,z
1/2-x,1/2-y,z
1/2+x,1/2-y,-z
1/2-x,1/2+y,-z
1/2-x,1/2-y,-z
1/2+x,1/2+y,-z
1/2-x,1/2+y,z
1/2+x,1/2-y,z
loop_
_atom_site_type_symbol
_atom_site_label
_atom_site_fract_x
_atom_site_fract_y
_atom_site_fract_z
Si Si1 0.917617 0.918454 0.000000
Si Si2 0.188073 0.152433 0.430851
Si Si3 0.079203 0.326786 0.282280
Si Si4 0.348249 0.690938 0.909997
Si Si5 0.316316 0.414996 0.705904
O O1 0.892980 0.869568 0.943458
O O2 0.000000 0.923475 0.000000
O O3 0.889410 0.000000 0.000000
O O4 0.175728 0.120203 0.500000
O O5 0.269155 0.174074 0.427596
O O6 0.143164 0.225672 0.427094
O O7 0.181613 0.109756 0.366157
O O8 0.076357 0.250000 0.250000
O O9 0.131518 0.317429 0.339169
O O10 0.114661 0.383451 0.237176
O O11 0.000000 0.345982 0.300600
O O12 0.315490 0.500000 0.706983
O O13 0.250000 0.391570 0.750000
#
# Coordination Sequence:
#
# PCOD9513656 Si02
#       5
#    16  32  32  32  32
#     4  11  24  39  56  86 131 172 202 249 317 384
#     4  11  21  38  66  94 121 162 211 264 311 366
#     4  11  23  39  64  93 120 161 212 262 313 369
#     4  11  20  38  63  90 120 160 211 256 307 372
#     4  11  24  41  64  94 127 166 207 257 322 379
#
# _framework density 18.492712000000001
#
# number of rings (size 3 to 8) (size 9 to 14) (size 15 to 20)
#    0.000    1.000    6.667    1.333    0.000    3.111 
#    0.000    0.000    0.000    0.000    0.000    1.556 
#    0.000    0.000    0.000    0.000    0.000    0.000 
#
# Total GULP energy -200467.135901 kJ/mol
# GULP energy per Si atom -5568.531553 kJ/mol
# Density = 1.845062 g / cm^3
# Si number density = 18.492712 Si / 1000 Ang^3
#
#
#
# Elastic Constant Matrix: (Units=GPa)
#
#
# Indices 1 2 3 4 5 6 
#
# 1 55.2388 32.6836 23.6686 0.0000 0.0000 0.0000
# 2 32.6836 95.3048 42.1953 0.0000 0.0000 0.0000
# 3 23.6686 42.1953 149.6608 0.0000 0.0000 0.0000
# 4 0.0000 0.0000 0.0000 25.0857 0.0000 0.0000
# 5 0.0000 0.0000 0.0000 0.0000 26.0587 0.0000
# 6 0.0000 0.0000 0.0000 0.0000 0.0000 2.5327
#
#
#
# Elastic Compliance Matrix: (Units=1/GPa)
#
#
# Indices 1 2 3 4 5 6 
#
# 1 0.023050 -0.007188 -0.001619 0.000000 0.000000 0.000000
# 2 -0.007188 0.014231 -0.002875 0.000000 0.000000 0.000000
# 3 -0.001619 -0.002875 0.007748 0.000000 0.000000 0.000000
# 4 0.000000 0.000000 0.000000 0.039863 0.000000 0.000000
# 5 0.000000 0.000000 0.000000 0.000000 0.038375 0.000000
# 6 0.000000 0.000000 0.000000 0.000000 0.000000 0.394829
#
#
# Mechanical properties :
#
#
# Convention : Reuss Voigt Hill
#
# Bulk Modulus (GPa) = 46.15792 55.25546 50.70669
# Shear Modulus (GPa) = 9.11275 24.17922 16.64598
#
# Velocity S-wave (km/s) = 2.22226 3.61986 3.00348
# Velocity P-wave (km/s) = 5.62128 6.88590 6.28548
#
# Compressibility (1/GPa) = 0.02166476
#
# Stress axis : x y z
#
# Youngs Moduli (GPa) = 43.38442 70.27044 129.05765
#
# Poissons Ratio (x) = 0.50510 0.20891
# Poissons Ratio (y) = 0.31184 0.37110
# Poissons Ratio (z) = 0.07023 0.20206
#
# Static dielectric constant tensor:
#      x y z
#    x 1.631020 0.000000 0.000000 
#    y 0.000000 1.640320 0.000000 
#    z 0.000000 0.000000 1.614580 
# 
# From -- ./inp_files/22872.got.cif
#   From: 2010.05.17/outbox.cif.g08.bks.cpg/sg69_12_cif.got.tgz:22872.got - 2010.06.03 19:29:58.
