data_PCOD9513274
_publ_section_title
;
Structure prediction by ZEFSAII (Michael W. Deem and Ramdas Pophale) SiO2 
 PCOD9513274
Probable space group: F M M M
;
_chemical_formula_sum "Si O2"
_cell_formula_units_Z 96
_cell_length_a 24.894797
_cell_length_b 10.310349
_cell_length_c 15.423991
_cell_angle_alpha 90.000000
_cell_angle_beta 90.000000
_cell_angle_gamma 90.000000
_cell_volume 3958.938165
_symmetry_space_group_name_H-M "F M M M"
_symmetry_group_IT_number 69
_symmetry_cell_setting 'orthorhombic'
loop_
_space_group_symop_operation_xyz
x,y,z
-x,-y,z
x,-y,-z
-x,y,-z
-x,-y,-z
x,y,-z
-x,y,z
x,-y,z
x,1/2+y,1/2+z
-x,1/2-y,1/2+z
x,1/2-y,1/2-z
-x,1/2+y,1/2-z
-x,1/2-y,1/2-z
x,1/2+y,1/2-z
-x,1/2+y,1/2+z
x,1/2-y,1/2+z
1/2+x,y,1/2+z
1/2-x,-y,1/2+z
1/2+x,-y,1/2-z
1/2-x,y,1/2-z
1/2-x,-y,1/2-z
1/2+x,y,1/2-z
1/2-x,y,1/2+z
1/2+x,-y,1/2+z
1/2+x,1/2+y,z
1/2-x,1/2-y,z
1/2+x,1/2-y,-z
1/2-x,1/2+y,-z
1/2-x,1/2-y,-z
1/2+x,1/2+y,-z
1/2-x,1/2+y,z
1/2+x,1/2-y,z
loop_
_atom_site_type_symbol
_atom_site_label
_atom_site_fract_x
_atom_site_fract_y
_atom_site_fract_z
Si Si1 0.292477 0.852529 0.396318
Si Si2 0.058539 0.000000 0.765251
Si Si3 0.916809 0.290330 0.404028
Si Si4 0.093639 0.500000 0.094330
O O1 0.282114 0.862581 0.500000
O O2 0.250000 0.750000 0.359947
O O3 0.352487 0.796179 0.389835
O O4 0.289855 0.000000 0.362014
O O5 0.060684 0.123856 0.827577
O O6 0.107978 0.000000 0.697022
O O7 0.000000 0.000000 0.721852
O O8 0.927835 0.345575 0.500000
O O9 0.933845 0.140843 0.406813
O O10 0.124789 0.500000 0.000000
#
# Coordination Sequence:
#
# PCOD9513274 Si02
#       4
#    32  16  32  16
#     4   9  17  30  55  92 131 170 212 255 308 377
#     4  12  25  43  67  92 124 173 220 265 327 388
#     4  10  21  40  64  96 134 171 213 264 319 383
#     4  10  24  42  64  91 123 166 214 268 330 387
#
# _framework density 24.248926999999998
#
# number of rings (size 3 to 8) (size 9 to 14) (size 15 to 20)
#    0.000    2.000    1.667    1.500    2.333    4.333 
#    0.000    3.333    0.000    6.000    0.000    0.000 
#    0.000    0.000    0.000    0.000    0.000    0.000 
#
# Total GULP energy -133718.424946 kJ/mol
# GULP energy per Si atom -5571.601039 kJ/mol
# Density = 2.419374 g / cm^3
# Si number density = 24.248927 Si / 1000 Ang^3
#
#
#
# Elastic Constant Matrix: (Units=GPa)
#
#
# Indices 1 2 3 4 5 6 
#
# 1 99.2990 48.9495 24.0471 0.0000 0.0000 0.0000
# 2 48.9495 198.3771 46.5274 0.0000 0.0000 0.0000
# 3 24.0471 46.5274 120.7906 0.0000 0.0000 0.0000
# 4 0.0000 0.0000 0.0000 41.4259 0.0000 0.0000
# 5 0.0000 0.0000 0.0000 0.0000 39.1166 0.0000
# 6 0.0000 0.0000 0.0000 0.0000 0.0000 22.4876
#
#
#
# Elastic Compliance Matrix: (Units=1/GPa)
#
#
# Indices 1 2 3 4 5 6 
#
# 1 0.011657 -0.002564 -0.001333 0.000000 0.000000 0.000000
# 2 -0.002564 0.006105 -0.001841 0.000000 0.000000 0.000000
# 3 -0.001333 -0.001841 0.009253 0.000000 0.000000 0.000000
# 4 0.000000 0.000000 0.000000 0.024140 0.000000 0.000000
# 5 0.000000 0.000000 0.000000 0.000000 0.025565 0.000000
# 6 0.000000 0.000000 0.000000 0.000000 0.000000 0.044469
#
#
# Mechanical properties :
#
#
# Convention : Reuss Voigt Hill
#
# Bulk Modulus (GPa) = 64.35203 73.05719 68.70461
# Shear Modulus (GPa) = 36.27250 40.53554 38.40402
#
# Velocity S-wave (km/s) = 3.87180 4.09301 3.98394
# Velocity P-wave (km/s) = 6.82521 7.24778 7.03967
#
# Compressibility (1/GPa) = 0.01553953
#
# Stress axis : x y z
#
# Youngs Moduli (GPa) = 85.78355 163.79014 108.06754
#
# Poissons Ratio (x) = 0.41991 0.14408
# Poissons Ratio (y) = 0.21993 0.19899
# Poissons Ratio (z) = 0.11437 0.30159
#
# Static dielectric constant tensor:
#      x y z
#    x 1.947190 0.000000 0.000000 
#    y 0.000000 1.920550 0.000000 
#    z 0.000000 0.000000 1.988250 
# 
# From -- ./inp_files/25317.got.cif
#   From: 2010.05.17/outbox.cif.g08.bks.cpg/sg69_13_cif.got.tgz:25317.got - 2010.06.03 19:29:58.
