data_PCOD9513811
_publ_section_title
;
Structure prediction by ZEFSAII (Michael W. Deem and Ramdas Pophale) SiO2 
 PCOD9513811
Probable space group: F M M M
;
_chemical_formula_sum "Si O2"
_cell_formula_units_Z 132
_cell_length_a 19.539390
_cell_length_b 19.672735
_cell_length_c 16.727017
_cell_angle_alpha 90.000000
_cell_angle_beta 90.000000
_cell_angle_gamma 90.000000
_cell_volume 6429.752286
_symmetry_space_group_name_H-M "F M M M"
_symmetry_group_IT_number 69
_symmetry_cell_setting 'orthorhombic'
loop_
_space_group_symop_operation_xyz
x,y,z
-x,-y,z
x,-y,-z
-x,y,-z
-x,-y,-z
x,y,-z
-x,y,z
x,-y,z
x,1/2+y,1/2+z
-x,1/2-y,1/2+z
x,1/2-y,1/2-z
-x,1/2+y,1/2-z
-x,1/2-y,1/2-z
x,1/2+y,1/2-z
-x,1/2+y,1/2+z
x,1/2-y,1/2+z
1/2+x,y,1/2+z
1/2-x,-y,1/2+z
1/2+x,-y,1/2-z
1/2-x,y,1/2-z
1/2-x,-y,1/2-z
1/2+x,y,1/2-z
1/2-x,y,1/2+z
1/2+x,-y,1/2+z
1/2+x,1/2+y,z
1/2-x,1/2-y,z
1/2+x,1/2-y,-z
1/2-x,1/2+y,-z
1/2-x,1/2-y,-z
1/2+x,1/2+y,-z
1/2-x,1/2+y,z
1/2+x,1/2-y,z
loop_
_atom_site_type_symbol
_atom_site_label
_atom_site_fract_x
_atom_site_fract_y
_atom_site_fract_z
Si Si1 0.630753 0.838544 0.404642
Si Si2 0.000000 0.630875 0.117485
Si Si3 0.255411 0.424770 0.344817
Si Si4 0.000000 0.500000 0.000000
Si Si5 0.000000 0.673511 0.290445
Si Si6 0.351339 0.312931 0.590533
O O1 0.614073 0.840118 0.500000
O O2 0.685627 0.895897 0.382778
O O3 0.565320 0.839559 0.346748
O O4 0.663654 0.764457 0.387293
O O5 0.932401 0.673682 0.095211
O O6 0.000000 0.624543 0.213421
O O7 0.000000 0.560633 0.069355
O O8 0.271551 0.500000 0.377342
O O9 0.250000 0.429449 0.250000
O O10 0.314395 0.370430 0.360038
O O11 0.000000 0.750000 0.250000
O O12 0.327535 0.322849 0.500000
#
# Coordination Sequence:
#
# PCOD9513811 Si02
#       6
#    32  16  32   4  16  32
#     4  11  24  44  69 102 136 178 235 290 355 423
#     4  12  24  41  68 103 141 179 231 281 367 421
#     4  11  26  43  63  94 136 184 232 286 347 419
#     4  12  28  44  64 108 154 192 214 306 368 456
#     4  12  23  43  74 103 131 179 225 300 347 423
#     4  11  22  40  67  97 131 175 226 286 346 417
#
# _framework density 20.529561999999999
#
# number of rings (size 3 to 8) (size 9 to 14) (size 15 to 20)
#    0.000    0.727    3.636    3.273    1.697    6.788 
#    2.182    0.000    0.000    1.455    0.000    0.000 
#    0.000    0.000    0.000    0.000    0.000    0.000 
#
# Total GULP energy -184193.552831 kJ/mol
# GULP energy per Si atom -5581.622813 kJ/mol
# Density = 2.048284 g / cm^3
# Si number density = 20.529562 Si / 1000 Ang^3
#
#
#
# Elastic Constant Matrix: (Units=GPa)
#
#
# Indices 1 2 3 4 5 6 
#
# 1 56.2176 1.8909 32.1360 0.0000 0.0000 0.0000
# 2 1.8909 91.3933 57.6793 0.0000 0.0000 0.0000
# 3 32.1360 57.6793 117.4650 0.0000 0.0000 0.0000
# 4 0.0000 0.0000 0.0000 32.8791 0.0000 0.0000
# 5 0.0000 0.0000 0.0000 0.0000 14.1031 0.0000
# 6 0.0000 0.0000 0.0000 0.0000 0.0000 -10.1784
#
#
#
# Elastic Compliance Matrix: (Units=1/GPa)
#
#
# Indices 1 2 3 4 5 6 
#
# 1 0.022539 0.004963 -0.008603 0.000000 0.000000 0.000000
# 2 0.004963 0.016948 -0.009680 0.000000 0.000000 0.000000
# 3 -0.008603 -0.009680 0.015620 0.000000 0.000000 0.000000
# 4 0.000000 0.000000 0.000000 0.030414 0.000000 0.000000
# 5 0.000000 0.000000 0.000000 0.000000 0.070907 0.000000
# 6 0.000000 0.000000 0.000000 0.000000 0.000000 -0.098247
#
#
# Mechanical properties :
#
#
# Convention : Reuss Voigt Hill
#
# Bulk Modulus (GPa) = 35.12803 49.83202 42.48002
# Shear Modulus (GPa) = 53.01655 18.91873 35.96764
#
# Velocity S-wave (km/s) = 5.08729 3.03897 4.19022
# Velocity P-wave (km/s) = 7.18718 6.05308 6.64437
#
# Compressibility (1/GPa) = 0.02846730
#
# Stress axis : x y z
#
# Youngs Moduli (GPa) = 44.36736 59.00332 64.02003
#
# Poissons Ratio (x) = -0.29286 0.55079
# Poissons Ratio (y) = -0.22021 0.61972
# Poissons Ratio (z) = 0.38171 0.57115
#
# Static dielectric constant tensor:
#      x y z
#    x 1.743550 0.000000 0.000000 
#    y 0.000000 1.738080 0.000000 
#    z 0.000000 0.000000 1.736800 
# 
# From -- ./inp_files/16403.got.cif
#   From: 2010.05.17/outbox.cif.g08.bks.cpg/sg69_9_cif.got.tgz:16403.got - 2010.06.03 19:29:58.
