data_PCOD9513573
_publ_section_title
;
Structure prediction by ZEFSAII (Michael W. Deem and Ramdas Pophale) SiO2 
 PCOD9513573
Probable space group: F M M M
;
_chemical_formula_sum "Si O2"
_cell_formula_units_Z 72
_cell_length_a 19.734435
_cell_length_b 11.327433
_cell_length_c 15.709170
_cell_angle_alpha 90.000000
_cell_angle_beta 90.000000
_cell_angle_gamma 90.000000
_cell_volume 3511.635563
_symmetry_space_group_name_H-M "F M M M"
_symmetry_group_IT_number 69
_symmetry_cell_setting 'orthorhombic'
loop_
_space_group_symop_operation_xyz
x,y,z
-x,-y,z
x,-y,-z
-x,y,-z
-x,-y,-z
x,y,-z
-x,y,z
x,-y,z
x,1/2+y,1/2+z
-x,1/2-y,1/2+z
x,1/2-y,1/2-z
-x,1/2+y,1/2-z
-x,1/2-y,1/2-z
x,1/2+y,1/2-z
-x,1/2+y,1/2+z
x,1/2-y,1/2+z
1/2+x,y,1/2+z
1/2-x,-y,1/2+z
1/2+x,-y,1/2-z
1/2-x,y,1/2-z
1/2-x,-y,1/2-z
1/2+x,y,1/2-z
1/2-x,y,1/2+z
1/2+x,-y,1/2+z
1/2+x,1/2+y,z
1/2-x,1/2-y,z
1/2+x,1/2-y,-z
1/2-x,1/2+y,-z
1/2-x,1/2-y,-z
1/2+x,1/2+y,-z
1/2-x,1/2+y,z
1/2+x,1/2-y,z
loop_
_atom_site_type_symbol
_atom_site_label
_atom_site_fract_x
_atom_site_fract_y
_atom_site_fract_z
Si Si1 0.807745 0.500000 0.825923
Si Si2 0.728188 0.500000 0.000000
Si Si3 0.074039 0.691274 0.158297
Si Si4 0.099835 0.137152 0.000000
O O1 0.750000 0.500000 0.750000
O O2 0.768901 0.500000 0.914222
O O3 0.860093 0.609395 0.831414
O O4 0.679961 0.385763 0.000000
O O5 0.069347 0.750000 0.250000
O O6 0.000000 0.633097 0.142077
O O7 0.081703 0.788305 0.083549
O O8 0.073967 0.000000 0.000000
#
# Coordination Sequence:
#
# PCOD9513573 Si02
#       4
#    16   8  32  16
#     4  12  25  43  68 101 138 183 227 289 353 413
#     4  10  24  40  64  96 130 178 226 278 334 410
#     4  11  25  43  69 101 138 181 232 292 346 415
#     4  10  24  46  68 104 136 186 232 286 346 411
#
# _framework density 20.503266
#
# number of rings (size 3 to 8) (size 9 to 14) (size 15 to 20)
#    0.667    0.444    0.000    5.333    3.111    9.778 
#    0.000    3.333    0.000    0.000    0.000    0.000 
#    0.000    0.000    0.000    0.000    0.000    0.000 
#
# Total GULP energy -100254.670206 kJ/mol
# GULP energy per Si atom -5569.703900 kJ/mol
# Density = 2.045660 g / cm^3
# Si number density = 20.503266 Si / 1000 Ang^3
#
#
#
# Elastic Constant Matrix: (Units=GPa)
#
#
# Indices 1 2 3 4 5 6 
#
# 1 219.6288 78.0165 93.7191 0.0000 0.0000 0.0000
# 2 78.0165 136.2990 89.9587 0.0000 0.0000 0.0000
# 3 93.7191 89.9587 217.2479 0.0000 0.0000 0.0000
# 4 0.0000 0.0000 0.0000 12.6551 0.0000 0.0000
# 5 0.0000 0.0000 0.0000 0.0000 45.8046 0.0000
# 6 0.0000 0.0000 0.0000 0.0000 0.0000 44.0592
#
#
#
# Elastic Compliance Matrix: (Units=1/GPa)
#
#
# Indices 1 2 3 4 5 6 
#
# 1 0.006110 -0.002419 -0.001634 0.000000 0.000000 0.000000
# 2 -0.002419 0.011053 -0.003534 0.000000 0.000000 0.000000
# 3 -0.001634 -0.003534 0.006771 0.000000 0.000000 0.000000
# 4 0.000000 0.000000 0.000000 0.079020 0.000000 0.000000
# 5 0.000000 0.000000 0.000000 0.000000 0.021832 0.000000
# 6 0.000000 0.000000 0.000000 0.000000 0.000000 0.022697
#
#
# Mechanical properties :
#
#
# Convention : Reuss Voigt Hill
#
# Bulk Modulus (GPa) = 114.13581 121.84046 117.98814
# Shear Modulus (GPa) = 30.19764 41.26921 35.73343
#
# Velocity S-wave (km/s) = 3.84190 4.49130 4.17923
# Velocity P-wave (km/s) = 8.68725 9.29783 8.99772
#
# Compressibility (1/GPa) = 0.00876149
#
# Stress axis : x y z
#
# Youngs Moduli (GPa) = 163.67796 90.46966 147.68322
#
# Poissons Ratio (x) = 0.21880 0.24134
# Poissons Ratio (y) = 0.39586 0.52187
# Poissons Ratio (z) = 0.26748 0.31969
#
# Static dielectric constant tensor:
#      x y z
#    x 1.781200 0.000000 0.000000 
#    y 0.000000 1.665480 0.000000 
#    z 0.000000 0.000000 1.653440 
# 
# From -- ./inp_files/22012.got.cif
#   From: 2010.05.17/outbox.cif.g08.bks.cpg/sg69_12_cif.got.tgz:22012.got - 2010.06.03 19:29:58.
