data_PCOD9513183
_publ_section_title
;
Structure prediction by ZEFSAII (Michael W. Deem and Ramdas Pophale) SiO2 
 PCOD9513183
Probable space group: F M M M
;
_chemical_formula_sum "Si O2"
_cell_formula_units_Z 136
_cell_length_a 16.775741
_cell_length_b 22.606110
_cell_length_c 16.979459
_cell_angle_alpha 90.000000
_cell_angle_beta 90.000000
_cell_angle_gamma 90.000000
_cell_volume 6439.192338
_symmetry_space_group_name_H-M "F M M M"
_symmetry_group_IT_number 69
_symmetry_cell_setting 'orthorhombic'
loop_
_space_group_symop_operation_xyz
x,y,z
-x,-y,z
x,-y,-z
-x,y,-z
-x,-y,-z
x,y,-z
-x,y,z
x,-y,z
x,1/2+y,1/2+z
-x,1/2-y,1/2+z
x,1/2-y,1/2-z
-x,1/2+y,1/2-z
-x,1/2-y,1/2-z
x,1/2+y,1/2-z
-x,1/2+y,1/2+z
x,1/2-y,1/2+z
1/2+x,y,1/2+z
1/2-x,-y,1/2+z
1/2+x,-y,1/2-z
1/2-x,y,1/2-z
1/2-x,-y,1/2-z
1/2+x,y,1/2-z
1/2-x,y,1/2+z
1/2+x,-y,1/2+z
1/2+x,1/2+y,z
1/2-x,1/2-y,z
1/2+x,1/2-y,-z
1/2-x,1/2+y,-z
1/2-x,1/2-y,-z
1/2+x,1/2+y,-z
1/2-x,1/2+y,z
1/2+x,1/2-y,z
loop_
_atom_site_type_symbol
_atom_site_label
_atom_site_fract_x
_atom_site_fract_y
_atom_site_fract_z
Si Si1 0.906716 0.097843 0.369498
Si Si2 0.336054 0.566038 0.209931
Si Si3 0.091598 0.155208 0.907672
Si Si4 0.334981 0.776709 0.905387
Si Si5 0.637174 0.500000 0.500000
O O1 0.897848 0.073396 0.281354
O O2 0.862393 0.160963 0.371433
O O3 0.000000 0.104746 0.390631
O O4 0.868815 0.051867 0.430956
O O5 0.341223 0.500000 0.175780
O O6 0.250000 0.572828 0.250000
O O7 0.352252 0.614763 0.144642
O O8 0.103033 0.224199 0.888215
O O9 0.000000 0.137658 0.895576
O O10 0.111480 0.148607 0.000000
O O11 0.250000 0.750000 0.879077
O O12 0.330764 0.784787 0.000000
#
# Coordination Sequence:
#
# PCOD9513183 Si02
#       5
#    32  32  32  32   8
#     4  12  23  40  67  98 133 172 215 268 328 391
#     4  11  25  44  62  93 131 170 217 272 331 387
#     4  10  22  42  66  93 126 169 222 271 320 384
#     4  10  21  38  63  94 132 172 216 264 324 387
#     4  12  25  40  64 104 138 170 215 264 327 392
#
# _framework density 21.120660999999998
#
# number of rings (size 3 to 8) (size 9 to 14) (size 15 to 20)
#    0.000    1.176    2.353    3.882    0.000    3.765 
#    2.118    5.882    0.000    0.000    0.000    0.000 
#    0.000    0.000    0.000    0.000    0.000    0.000 
#
# Total GULP energy -189618.313364 kJ/mol
# GULP energy per Si atom -5577.009217 kJ/mol
# Density = 2.107259 g / cm^3
# Si number density = 21.120661 Si / 1000 Ang^3
#
#
#
# Elastic Constant Matrix: (Units=GPa)
#
#
# Indices 1 2 3 4 5 6 
#
# 1 43.1254 31.9398 11.2348 0.0000 0.0000 0.0000
# 2 31.9398 171.9694 40.0675 0.0000 0.0000 0.0000
# 3 11.2348 40.0675 30.8079 0.0000 0.0000 0.0000
# 4 0.0000 0.0000 0.0000 28.0461 0.0000 0.0000
# 5 0.0000 0.0000 0.0000 0.0000 10.0257 0.0000
# 6 0.0000 0.0000 0.0000 0.0000 0.0000 10.5967
#
#
#
# Elastic Compliance Matrix: (Units=1/GPa)
#
#
# Indices 1 2 3 4 5 6 
#
# 1 0.027380 -0.003958 -0.004837 0.000000 0.000000 0.000000
# 2 -0.003958 0.008915 -0.010151 0.000000 0.000000 0.000000
# 3 -0.004837 -0.010151 0.047426 0.000000 0.000000 0.000000
# 4 0.000000 0.000000 0.000000 0.035656 0.000000 0.000000
# 5 0.000000 0.000000 0.000000 0.000000 0.099743 0.000000
# 6 0.000000 0.000000 0.000000 0.000000 0.000000 0.094369
#
#
# Mechanical properties :
#
#
# Convention : Reuss Voigt Hill
#
# Bulk Modulus (GPa) = 21.82073 45.82077 33.82075
# Shear Modulus (GPa) = 13.63669 20.57775 17.10722
#
# Velocity S-wave (km/s) = 2.54373 3.12476 2.84909
# Velocity P-wave (km/s) = 4.35676 5.89582 5.18372
#
# Compressibility (1/GPa) = 0.04582798
#
# Stress axis : x y z
#
# Youngs Moduli (GPa) = 36.52321 112.16563 21.08563
#
# Poissons Ratio (x) = 0.44399 0.10198
# Poissons Ratio (y) = 0.14457 0.21405
# Poissons Ratio (z) = 0.17665 1.13865
#
# Static dielectric constant tensor:
#      x y z
#    x 1.812410 0.000000 0.000000 
#    y 0.000000 1.723540 0.000000 
#    z 0.000000 0.000000 1.735770 
# 
# From -- ./inp_files/22578.got.cif
#   From: 2010.05.17/outbox.cif.g08.bks.cpg/sg69_12_cif.got.tgz:22578.got - 2010.06.03 19:29:58.
