data_PCOD9513450
_publ_section_title
;
Structure prediction by ZEFSAII (Michael W. Deem and Ramdas Pophale) SiO2 
 PCOD9513450
Probable space group: F M M M
;
_chemical_formula_sum "Si O2"
_cell_formula_units_Z 80
_cell_length_a 17.401546
_cell_length_b 9.826087
_cell_length_c 22.223999
_cell_angle_alpha 90.000000
_cell_angle_beta 90.000000
_cell_angle_gamma 90.000000
_cell_volume 3800.061697
_symmetry_space_group_name_H-M "F M M M"
_symmetry_group_IT_number 69
_symmetry_cell_setting 'orthorhombic'
loop_
_space_group_symop_operation_xyz
x,y,z
-x,-y,z
x,-y,-z
-x,y,-z
-x,-y,-z
x,y,-z
-x,y,z
x,-y,z
x,1/2+y,1/2+z
-x,1/2-y,1/2+z
x,1/2-y,1/2-z
-x,1/2+y,1/2-z
-x,1/2-y,1/2-z
x,1/2+y,1/2-z
-x,1/2+y,1/2+z
x,1/2-y,1/2+z
1/2+x,y,1/2+z
1/2-x,-y,1/2+z
1/2+x,-y,1/2-z
1/2-x,y,1/2-z
1/2-x,-y,1/2-z
1/2+x,y,1/2-z
1/2-x,y,1/2+z
1/2+x,-y,1/2+z
1/2+x,1/2+y,z
1/2-x,1/2-y,z
1/2+x,1/2-y,-z
1/2-x,1/2+y,-z
1/2-x,1/2-y,-z
1/2+x,1/2+y,-z
1/2-x,1/2+y,z
1/2+x,1/2-y,z
loop_
_atom_site_type_symbol
_atom_site_label
_atom_site_fract_x
_atom_site_fract_y
_atom_site_fract_z
Si Si1 0.703424 0.000000 0.566181
Si Si2 0.912037 0.293904 0.382560
Si Si3 0.351667 0.500000 0.353945
Si Si4 0.088146 0.500000 0.725804
O O1 0.648464 0.869885 0.575141
O O2 0.738956 0.000000 0.500000
O O3 0.767136 0.000000 0.617838
O O4 0.903519 0.370089 0.317951
O O5 0.000000 0.316423 0.401817
O O6 0.893651 0.136360 0.375692
O O7 0.355121 0.500000 0.281643
O O8 0.000000 0.500000 0.749482
#
# Coordination Sequence:
#
# PCOD9513450 Si02
#       4
#    16  32  16  16
#     4  11  26  46  61  80 121 169 206 248 307 365
#     4  10  22  40  65  94 121 158 204 245 296 363
#     4  12  22  36  64  96 127 156 194 253 305 347
#     4   9  19  38  63  93 130 164 192 233 301 376
#
# _framework density 21.052291
#
# number of rings (size 3 to 8) (size 9 to 14) (size 15 to 20)
#    0.000    1.600    0.000    6.000    0.000   11.200 
#    0.000    8.000    0.000    6.600    0.000    0.000 
#    0.000    0.000    0.000    0.000    0.000    0.000 
#
# Total GULP energy -111864.649423 kJ/mol
# GULP energy per Si atom -5593.232471 kJ/mol
# Density = 2.100437 g / cm^3
# Si number density = 21.052291 Si / 1000 Ang^3
#
#
#
# Elastic Constant Matrix: (Units=GPa)
#
#
# Indices 1 2 3 4 5 6 
#
# 1 112.1944 26.0379 46.5059 0.0000 0.0000 0.0000
# 2 26.0379 156.7625 16.3791 0.0000 0.0000 0.0000
# 3 46.5059 16.3791 76.0208 0.0000 0.0000 0.0000
# 4 0.0000 0.0000 0.0000 3.1302 0.0000 0.0000
# 5 0.0000 0.0000 0.0000 0.0000 8.4532 0.0000
# 6 0.0000 0.0000 0.0000 0.0000 0.0000 28.7514
#
#
#
# Elastic Compliance Matrix: (Units=1/GPa)
#
#
# Indices 1 2 3 4 5 6 
#
# 1 0.012185 -0.001274 -0.007180 0.000000 0.000000 0.000000
# 2 -0.001274 0.006659 -0.000656 0.000000 0.000000 0.000000
# 3 -0.007180 -0.000656 0.017688 0.000000 0.000000 0.000000
# 4 0.000000 0.000000 0.000000 0.319466 0.000000 0.000000
# 5 0.000000 0.000000 0.000000 0.000000 0.118299 0.000000
# 6 0.000000 0.000000 0.000000 0.000000 0.000000 0.034781
#
#
# Mechanical properties :
#
#
# Convention : Reuss Voigt Hill
#
# Bulk Modulus (GPa) = 54.60363 58.09151 56.34757
# Shear Modulus (GPa) = 9.37383 25.13728 17.25556
#
# Velocity S-wave (km/s) = 2.11242 3.45924 2.86606
# Velocity P-wave (km/s) = 5.65183 6.60370 6.14622
#
# Compressibility (1/GPa) = 0.01831380
#
# Stress axis : x y z
#
# Youngs Moduli (GPa) = 82.06991 150.16975 56.53646
#
# Poissons Ratio (x) = 0.19127 0.40591
# Poissons Ratio (y) = 0.10453 0.03706
# Poissons Ratio (z) = 0.58923 0.09845
#
# Static dielectric constant tensor:
#      x y z
#    x 1.750150 0.000000 0.000000 
#    y 0.000000 1.743210 0.000000 
#    z 0.000000 0.000000 1.748380 
# 
# From -- ./inp_files/23858.got.cif
#   From: 2010.05.17/outbox.cif.g08.bks.cpg/sg69_12_cif.got.tgz:23858.got - 2010.06.03 19:29:58.
