data_PCOD9513896
_publ_section_title
;
Structure prediction by ZEFSAII (Michael W. Deem and Ramdas Pophale) SiO2 
 PCOD9513896
Probable space group: F M M M
;
_chemical_formula_sum "Si O2"
_cell_formula_units_Z 120
_cell_length_a 12.660676
_cell_length_b 31.975689
_cell_length_c 14.912874
_cell_angle_alpha 90.000000
_cell_angle_beta 90.000000
_cell_angle_gamma 90.000000
_cell_volume 6037.236022
_symmetry_space_group_name_H-M "F M M M"
_symmetry_group_IT_number 69
_symmetry_cell_setting 'orthorhombic'
loop_
_space_group_symop_operation_xyz
x,y,z
-x,-y,z
x,-y,-z
-x,y,-z
-x,-y,-z
x,y,-z
-x,y,z
x,-y,z
x,1/2+y,1/2+z
-x,1/2-y,1/2+z
x,1/2-y,1/2-z
-x,1/2+y,1/2-z
-x,1/2-y,1/2-z
x,1/2+y,1/2-z
-x,1/2+y,1/2+z
x,1/2-y,1/2+z
1/2+x,y,1/2+z
1/2-x,-y,1/2+z
1/2+x,-y,1/2-z
1/2-x,y,1/2-z
1/2-x,-y,1/2-z
1/2+x,y,1/2-z
1/2-x,y,1/2+z
1/2+x,-y,1/2+z
1/2+x,1/2+y,z
1/2-x,1/2-y,z
1/2+x,1/2-y,-z
1/2-x,1/2+y,-z
1/2-x,1/2-y,-z
1/2+x,1/2+y,-z
1/2-x,1/2+y,z
1/2+x,1/2-y,z
loop_
_atom_site_type_symbol
_atom_site_label
_atom_site_fract_x
_atom_site_fract_y
_atom_site_fract_z
Si Si1 0.000000 0.158888 0.105387
Si Si2 0.371673 0.950706 0.500000
Si Si3 0.713217 0.693564 0.399729
Si Si4 0.000000 0.243795 0.357866
Si Si5 0.250000 0.750000 0.250000
Si Si6 0.707416 0.109756 0.347060
O O1 0.000000 0.209152 0.105310
O O2 0.899256 0.137790 0.152440
O O3 0.000000 0.146645 0.000000
O O4 0.500000 0.945932 0.500000
O O5 0.320559 0.927737 0.413941
O O6 0.349839 0.000000 0.500000
O O7 0.753635 0.701242 0.500000
O O8 0.600824 0.715915 0.385846
O O9 0.785416 0.715610 0.323957
O O10 0.709903 0.644087 0.384963
O O11 0.000000 0.250000 0.250000
O O12 0.750000 0.096849 0.250000
#
# Coordination Sequence:
#
# PCOD9513896 Si02
#       6
#    16  16  32  16   8  32
#     4  12  22  42  66  93 133 186 242 282 321 377
#     4  11  24  50  82 106 126 162 222 283 348 425
#     4  12  23  39  59  88 130 183 232 275 323 379
#     4  12  24  40  56  89 136 182 238 287 317 374
#     4  12  22  38  52  90 122 182 242 274 308 370
#     4  12  23  42  70 101 134 174 218 279 344 398
#
# _framework density 19.876645
#
# number of rings (size 3 to 8) (size 9 to 14) (size 15 to 20)
#    0.000    0.133    6.667    4.800    0.000    0.533 
#    0.000    0.000    0.000    0.000    0.000    3.733 
#    0.000    0.000    0.000    0.000    0.000    0.000 
#
# Total GULP energy -167337.467863 kJ/mol
# GULP energy per Si atom -5577.915595 kJ/mol
# Density = 1.983140 g / cm^3
# Si number density = 19.876645 Si / 1000 Ang^3
#
#
#
# Elastic Constant Matrix: (Units=GPa)
#
#
# Indices 1 2 3 4 5 6 
#
# 1 98.7125 53.5095 38.3983 0.0000 0.0000 0.0000
# 2 53.5095 199.5163 75.7518 0.0000 0.0000 0.0000
# 3 38.3983 75.7518 204.7430 0.0000 0.0000 0.0000
# 4 0.0000 0.0000 0.0000 12.5737 0.0000 0.0000
# 5 0.0000 0.0000 0.0000 0.0000 29.7122 0.0000
# 6 0.0000 0.0000 0.0000 0.0000 0.0000 30.3878
#
#
#
# Elastic Compliance Matrix: (Units=1/GPa)
#
#
# Indices 1 2 3 4 5 6 
#
# 1 0.012121 -0.002778 -0.001245 0.000000 0.000000 0.000000
# 2 -0.002778 0.006468 -0.001872 0.000000 0.000000 0.000000
# 3 -0.001245 -0.001872 0.005810 0.000000 0.000000 0.000000
# 4 0.000000 0.000000 0.000000 0.079531 0.000000 0.000000
# 5 0.000000 0.000000 0.000000 0.000000 0.033656 0.000000
# 6 0.000000 0.000000 0.000000 0.000000 0.000000 0.032908
#
#
# Mechanical properties :
#
#
# Convention : Reuss Voigt Hill
#
# Bulk Modulus (GPa) = 79.31264 93.14344 86.22804
# Shear Modulus (GPa) = 26.81140 36.88888 31.85014
#
# Velocity S-wave (km/s) = 3.67671 4.31268 4.00733
# Velocity P-wave (km/s) = 7.61665 8.47121 8.05527
#
# Compressibility (1/GPa) = 0.01260833
#
# Stress axis : x y z
#
# Youngs Moduli (GPa) = 82.50361 154.60936 172.10610
#
# Poissons Ratio (x) = 0.42949 0.21434
# Poissons Ratio (y) = 0.22918 0.32219
# Poissons Ratio (z) = 0.10275 0.28944
#
# Static dielectric constant tensor:
#      x y z
#    x 1.907890 0.000000 0.000000 
#    y 0.000000 1.692470 0.000000 
#    z 0.000000 0.000000 1.743490 
# 
# From -- ./inp_files/14465.got.cif
#   From: 2010.05.17/outbox.cif.g08.bks.cpg/sg69_8_cif.got.tgz:14465.got - 2010.06.03 19:29:58.
