data_PCOD9513434
_publ_section_title
;
Structure prediction by ZEFSAII (Michael W. Deem and Ramdas Pophale) SiO2 
 PCOD9513434
Probable space group: F M M M
;
_chemical_formula_sum "Si O2"
_cell_formula_units_Z 144
_cell_length_a 31.692846
_cell_length_b 16.409010
_cell_length_c 14.672278
_cell_angle_alpha 90.000000
_cell_angle_beta 90.000000
_cell_angle_gamma 90.000000
_cell_volume 7630.292159
_symmetry_space_group_name_H-M "F M M M"
_symmetry_group_IT_number 69
_symmetry_cell_setting 'orthorhombic'
loop_
_space_group_symop_operation_xyz
x,y,z
-x,-y,z
x,-y,-z
-x,y,-z
-x,-y,-z
x,y,-z
-x,y,z
x,-y,z
x,1/2+y,1/2+z
-x,1/2-y,1/2+z
x,1/2-y,1/2-z
-x,1/2+y,1/2-z
-x,1/2-y,1/2-z
x,1/2+y,1/2-z
-x,1/2+y,1/2+z
x,1/2-y,1/2+z
1/2+x,y,1/2+z
1/2-x,-y,1/2+z
1/2+x,-y,1/2-z
1/2-x,y,1/2-z
1/2-x,-y,1/2-z
1/2+x,y,1/2-z
1/2-x,y,1/2+z
1/2+x,-y,1/2+z
1/2+x,1/2+y,z
1/2-x,1/2-y,z
1/2+x,1/2-y,-z
1/2-x,1/2+y,-z
1/2-x,1/2-y,-z
1/2+x,1/2+y,-z
1/2-x,1/2+y,z
1/2+x,1/2-y,z
loop_
_atom_site_type_symbol
_atom_site_label
_atom_site_fract_x
_atom_site_fract_y
_atom_site_fract_z
Si Si1 0.144646 0.250000 0.750000
Si Si2 0.500000 0.087549 0.852445
Si Si3 0.000000 0.771078 0.897039
Si Si4 0.213016 0.683596 0.608443
Si Si5 0.885915 0.000000 0.107611
Si Si6 0.571221 0.139446 0.281303
Si Si7 0.712431 0.500000 0.890554
O O1 0.174237 0.283630 0.669214
O O2 0.110778 0.179131 0.728548
O O3 0.500000 0.173581 0.903041
O O4 0.459240 0.093421 0.787643
O O5 0.500000 0.000000 0.899349
O O6 0.959282 0.799730 0.838687
O O7 0.000000 0.805260 0.000000
O O8 0.201863 0.679708 0.500000
O O9 0.250000 0.750000 0.619042
O O10 0.227182 0.591444 0.637627
O O11 0.908876 0.921696 0.146705
O O12 0.836926 0.000000 0.134405
O O13 0.887335 0.000000 0.000000
O O14 0.717775 0.500000 0.000000
#
# Coordination Sequence:
#
# PCOD9513434 Si02
#       7
#    16  16  16  32  16  32  16
#     4  12  21  37  62  86 120 156 194 235 309 348
#     4  11  21  38  56  76 114 156 193 236 288 339
#     4  11  23  37  55  81 115 158 199 237 290 346
#     4  10  22  40  62  91 122 155 198 247 300 364
#     4  11  20  33  59  92 115 142 191 251 305 347
#     4  11  21  37  56  84 118 148 187 247 297 351
#     4   9  18  34  59  86 116 151 191 248 303 344
#
# _framework density 18.872146999999998
#
# number of rings (size 3 to 8) (size 9 to 14) (size 15 to 20)
#    0.000    1.333    5.556    1.667    0.000    1.111 
#    0.000    5.000    0.000    0.000    0.000    0.000 
#    0.000    0.000    0.000    0.000    0.000    0.000 
#
# Total GULP energy -200570.833663 kJ/mol
# GULP energy per Si atom -5571.412046 kJ/mol
# Density = 1.882919 g / cm^3
# Si number density = 18.872147 Si / 1000 Ang^3
#
#
#
# Elastic Constant Matrix: (Units=GPa)
#
#
# Indices 1 2 3 4 5 6 
#
# 1 74.7088 47.7324 29.2897 0.0000 0.0000 0.0000
# 2 47.7324 166.6602 32.1794 0.0000 0.0000 0.0000
# 3 29.2897 32.1794 58.8451 0.0000 0.0000 0.0000
# 4 0.0000 0.0000 0.0000 25.7491 0.0000 0.0000
# 5 0.0000 0.0000 0.0000 0.0000 11.3337 0.0000
# 6 0.0000 0.0000 0.0000 0.0000 0.0000 4.8528
#
#
#
# Elastic Compliance Matrix: (Units=1/GPa)
#
#
# Indices 1 2 3 4 5 6 
#
# 1 0.018733 -0.003986 -0.007145 0.000000 0.000000 0.000000
# 2 -0.003986 0.007557 -0.002148 0.000000 0.000000 0.000000
# 3 -0.007145 -0.002148 0.021725 0.000000 0.000000 0.000000
# 4 0.000000 0.000000 0.000000 0.038836 0.000000 0.000000
# 5 0.000000 0.000000 0.000000 0.000000 0.088232 0.000000
# 6 0.000000 0.000000 0.000000 0.000000 0.000000 0.206068
#
#
# Mechanical properties :
#
#
# Convention : Reuss Voigt Hill
#
# Bulk Modulus (GPa) = 46.60525 57.62411 52.11468
# Shear Modulus (GPa) = 12.05223 21.12129 16.58676
#
# Velocity S-wave (km/s) = 2.52984 3.34904 2.96784
# Velocity P-wave (km/s) = 5.76909 6.74944 6.27843
#
# Compressibility (1/GPa) = 0.02145681
#
# Stress axis : x y z
#
# Youngs Moduli (GPa) = 53.38214 132.33481 46.03029
#
# Poissons Ratio (x) = 0.52745 0.32887
# Poissons Ratio (y) = 0.21276 0.09889
# Poissons Ratio (z) = 0.38139 0.28432
#
# Static dielectric constant tensor:
#      x y z
#    x 1.626950 0.000000 0.000000 
#    y 0.000000 1.718260 0.000000 
#    z 0.000000 0.000000 1.634650 
# 
# From -- ./inp_files/19547.got.cif
#   From: 2010.05.17/outbox.cif.g08.bks.cpg/sg69_10_cif.got.tgz:19547.got - 2010.06.03 19:29:58.
