data_PCOD9513923
_publ_section_title
;
Structure prediction by ZEFSAII (Michael W. Deem and Ramdas Pophale) SiO2 
 PCOD9513923
Probable space group: F M M M
;
_chemical_formula_sum "Si O2"
_cell_formula_units_Z 112
_cell_length_a 34.014491
_cell_length_b 18.305320
_cell_length_c 10.140988
_cell_angle_alpha 90.000000
_cell_angle_beta 90.000000
_cell_angle_gamma 90.000000
_cell_volume 6314.247058
_symmetry_space_group_name_H-M "F M M M"
_symmetry_group_IT_number 69
_symmetry_cell_setting 'orthorhombic'
loop_
_space_group_symop_operation_xyz
x,y,z
-x,-y,z
x,-y,-z
-x,y,-z
-x,-y,-z
x,y,-z
-x,y,z
x,-y,z
x,1/2+y,1/2+z
-x,1/2-y,1/2+z
x,1/2-y,1/2-z
-x,1/2+y,1/2-z
-x,1/2-y,1/2-z
x,1/2+y,1/2-z
-x,1/2+y,1/2+z
x,1/2-y,1/2+z
1/2+x,y,1/2+z
1/2-x,-y,1/2+z
1/2+x,-y,1/2-z
1/2-x,y,1/2-z
1/2-x,-y,1/2-z
1/2+x,y,1/2-z
1/2-x,y,1/2+z
1/2+x,-y,1/2+z
1/2+x,1/2+y,z
1/2-x,1/2-y,z
1/2+x,1/2-y,-z
1/2-x,1/2+y,-z
1/2-x,1/2-y,-z
1/2+x,1/2+y,-z
1/2-x,1/2+y,z
1/2+x,1/2-y,z
loop_
_atom_site_type_symbol
_atom_site_label
_atom_site_fract_x
_atom_site_fract_y
_atom_site_fract_z
Si Si1 0.694535 0.413008 0.500000
Si Si2 0.226946 0.170712 0.000000
Si Si3 0.500000 0.910719 0.653098
Si Si4 0.084873 0.416561 0.341218
Si Si5 0.664182 0.164392 0.265095
O O1 0.688240 0.500000 0.500000
O O2 0.740337 0.391721 0.500000
O O3 0.677056 0.374634 0.369844
O O4 0.250000 0.250000 0.000000
O O5 0.199033 0.160865 0.126895
O O6 0.500000 0.887348 0.500000
O O7 0.457607 0.888482 0.710475
O O8 0.500000 0.000000 0.653756
O O9 0.081390 0.418983 0.500000
O O10 0.090114 0.500000 0.294553
O O11 0.123496 0.371819 0.308942
O O12 0.657100 0.250000 0.250000
#
# Coordination Sequence:
#
# PCOD9513923 Si02
#       5
#    16  16  16  32  32
#     4  12  28  42  60  91 124 158 201 257 307 351
#     4  12  24  44  64  85 114 156 206 253 301 365
#     4   7  12  26  51  83 117 145 179 242 301 341
#     4   9  17  32  57  88 115 146 195 245 293 350
#     4  12  23  40  63  86 121 159 200 245 305 360
#
# _framework density 17.737666000000001
#
# number of rings (size 3 to 8) (size 9 to 14) (size 15 to 20)
#    0.000    1.571    4.286    3.429    0.000    3.429 
#    0.000    0.714    0.000    0.857    0.000    4.000 
#    0.000    0.000    0.000    0.000    0.000    0.000 
#
# Total GULP energy -156064.629637 kJ/mol
# GULP energy per Si atom -5573.736773 kJ/mol
# Density = 1.769729 g / cm^3
# Si number density = 17.737666 Si / 1000 Ang^3
#
#
#
# Elastic Constant Matrix: (Units=GPa)
#
#
# Indices 1 2 3 4 5 6 
#
# 1 183.3846 69.6318 52.9437 0.0000 0.0000 0.0000
# 2 69.6318 117.6450 46.9969 0.0000 0.0000 0.0000
# 3 52.9437 46.9969 86.6796 0.0000 0.0000 0.0000
# 4 0.0000 0.0000 0.0000 33.9815 0.0000 0.0000
# 5 0.0000 0.0000 0.0000 0.0000 -1.8965 0.0000
# 6 0.0000 0.0000 0.0000 0.0000 0.0000 48.4986
#
#
#
# Elastic Compliance Matrix: (Units=1/GPa)
#
#
# Indices 1 2 3 4 5 6 
#
# 1 0.007526 -0.003342 -0.002785 0.000000 0.000000 0.000000
# 2 -0.003342 0.012334 -0.004646 0.000000 0.000000 0.000000
# 3 -0.002785 -0.004646 0.015757 0.000000 0.000000 0.000000
# 4 0.000000 0.000000 0.000000 0.029428 0.000000 0.000000
# 5 0.000000 0.000000 0.000000 0.000000 -0.527278 0.000000
# 6 0.000000 0.000000 0.000000 0.000000 0.000000 0.020619
#
#
# Mechanical properties :
#
#
# Convention : Reuss Voigt Hill
#
# Bulk Modulus (GPa) = 71.06843 80.76156 75.91499
# Shear Modulus (GPa) = -12.03725 30.65919 9.31097
#
# Velocity S-wave (km/s) = -2.60787 4.16201 2.29361
# Velocity P-wave (km/s) = 5.57543 8.29014 7.06441
#
# Compressibility (1/GPa) = 0.01407095
#
# Stress axis : x y z
#
# Youngs Moduli (GPa) = 132.87306 81.07476 63.46430
#
# Poissons Ratio (x) = 0.27095 0.17674
# Poissons Ratio (y) = 0.44406 0.29487
# Poissons Ratio (z) = 0.37003 0.37669
#
# Static dielectric constant tensor:
#      x y z
#    x 1.645140 0.000000 0.000000 
#    y 0.000000 1.597740 0.000000 
#    z 0.000000 0.000000 1.646350 
# 
# From -- ./inp_files/12060.got.cif
#   From: 2010.05.17/outbox.cif.g08.bks.cpg/sg69_7_cif.got.tgz:12060.got - 2010.06.03 19:29:58.
