data_PCOD9513586
_publ_section_title
;
Structure prediction by ZEFSAII (Michael W. Deem and Ramdas Pophale) SiO2 
 PCOD9513586
Probable space group: F M M M
;
_chemical_formula_sum "Si O2"
_cell_formula_units_Z 104
_cell_length_a 9.257835
_cell_length_b 23.501022
_cell_length_c 22.707379
_cell_angle_alpha 90.000000
_cell_angle_beta 90.000000
_cell_angle_gamma 90.000000
_cell_volume 4940.412296
_symmetry_space_group_name_H-M "F M M M"
_symmetry_group_IT_number 69
_symmetry_cell_setting 'orthorhombic'
loop_
_space_group_symop_operation_xyz
x,y,z
-x,-y,z
x,-y,-z
-x,y,-z
-x,-y,-z
x,y,-z
-x,y,z
x,-y,z
x,1/2+y,1/2+z
-x,1/2-y,1/2+z
x,1/2-y,1/2-z
-x,1/2+y,1/2-z
-x,1/2-y,1/2-z
x,1/2+y,1/2-z
-x,1/2+y,1/2+z
x,1/2-y,1/2+z
1/2+x,y,1/2+z
1/2-x,-y,1/2+z
1/2+x,-y,1/2-z
1/2-x,y,1/2-z
1/2-x,-y,1/2-z
1/2+x,y,1/2-z
1/2-x,y,1/2+z
1/2+x,-y,1/2+z
1/2+x,1/2+y,z
1/2-x,1/2-y,z
1/2+x,1/2-y,-z
1/2-x,1/2+y,-z
1/2-x,1/2-y,-z
1/2+x,1/2+y,-z
1/2-x,1/2+y,z
1/2+x,1/2-y,z
loop_
_atom_site_type_symbol
_atom_site_label
_atom_site_fract_x
_atom_site_fract_y
_atom_site_fract_z
Si Si1 0.250000 0.250000 0.092061
Si Si2 0.662196 0.569184 0.500000
Si Si3 0.826375 0.567225 0.870451
Si Si4 0.500000 0.716040 0.500000
Si Si5 0.666867 0.836247 0.693286
O O1 0.372609 0.221910 0.051396
O O2 0.316679 0.296499 0.136349
O O3 0.647435 0.500000 0.500000
O O4 0.500000 0.595962 0.500000
O O5 0.727160 0.583049 0.563103
O O6 0.803575 0.500000 0.862368
O O7 0.743786 0.604790 0.823979
O O8 0.000000 0.576785 0.869164
O O9 0.500000 0.844225 0.707629
O O10 0.750000 0.813092 0.750000
#
# Coordination Sequence:
#
# PCOD9513586 Si02
#       5
#    16  16  32   8  32
#     4  11  25  48  72 104 135 169 214 276 336 411
#     4   7  12  28  55  87 121 160 207 258 316 377
#     4   9  19  38  64  97 134 177 226 273 329 393
#     4  10  24  46  74 104 138 166 208 270 350 400
#     4  12  27  44  67  97 134 181 228 274 330 392
#
# _framework density 21.050874
#
# number of rings (size 3 to 8) (size 9 to 14) (size 15 to 20)
#    0.000    2.000    1.538    3.231    4.308    4.923 
#    2.769    0.000    0.000    2.769    0.000    0.000 
#    0.000    0.000    0.000    0.000    0.000    0.000 
#
# Total GULP energy -144737.165262 kJ/mol
# GULP energy per Si atom -5566.814049 kJ/mol
# Density = 2.100296 g / cm^3
# Si number density = 21.050874 Si / 1000 Ang^3
#
#
#
# Elastic Constant Matrix: (Units=GPa)
#
#
# Indices 1 2 3 4 5 6 
#
# 1 97.5411 32.4516 45.7065 0.0000 0.0000 0.0000
# 2 32.4516 58.9086 32.8076 0.0000 0.0000 0.0000
# 3 45.7065 32.8076 138.3244 0.0000 0.0000 0.0000
# 4 0.0000 0.0000 0.0000 7.4138 0.0000 0.0000
# 5 0.0000 0.0000 0.0000 0.0000 39.8505 0.0000
# 6 0.0000 0.0000 0.0000 0.0000 0.0000 8.0806
#
#
#
# Elastic Compliance Matrix: (Units=1/GPa)
#
#
# Indices 1 2 3 4 5 6 
#
# 1 0.013642 -0.005766 -0.003140 0.000000 0.000000 0.000000
# 2 -0.005766 0.021996 -0.003312 0.000000 0.000000 0.000000
# 3 -0.003140 -0.003312 0.009052 0.000000 0.000000 0.000000
# 4 0.000000 0.000000 0.000000 0.134883 0.000000 0.000000
# 5 0.000000 0.000000 0.000000 0.000000 0.025094 0.000000
# 6 0.000000 0.000000 0.000000 0.000000 0.000000 0.123753
#
#
# Mechanical properties :
#
#
# Convention : Reuss Voigt Hill
#
# Bulk Modulus (GPa) = 49.37158 57.41172 53.39165
# Shear Modulus (GPa) = 13.90405 23.32290 18.61348
#
# Velocity S-wave (km/s) = 2.57280 3.33217 2.97680
# Velocity P-wave (km/s) = 5.68596 6.49127 6.10191
#
# Compressibility (1/GPa) = 0.02025457
#
# Stress axis : x y z
#
# Youngs Moduli (GPa) = 73.30365 45.46210 110.46771
#
# Poissons Ratio (x) = 0.26215 0.34687
# Poissons Ratio (y) = 0.42269 0.36584
# Poissons Ratio (z) = 0.23018 0.15056
#
# Static dielectric constant tensor:
#      x y z
#    x 1.706850 0.000000 0.000000 
#    y 0.000000 1.830150 0.000000 
#    z 0.000000 0.000000 1.761360 
# 
# From -- ./inp_files/28476.got.cif
#   From: 2010.05.17/outbox.cif.g08.bks.cpg/sg69_15_cif.got.tgz:28476.got - 2010.06.03 19:29:58.
