data_PCOD9513245
_publ_section_title
;
Structure prediction by ZEFSAII (Michael W. Deem and Ramdas Pophale) SiO2 
 PCOD9513245
Probable space group: F M M M
;
_chemical_formula_sum "Si O2"
_cell_formula_units_Z 160
_cell_length_a 17.937777
_cell_length_b 21.293360
_cell_length_c 19.072740
_cell_angle_alpha 90.000000
_cell_angle_beta 90.000000
_cell_angle_gamma 90.000000
_cell_volume 7284.938768
_symmetry_space_group_name_H-M "F M M M"
_symmetry_group_IT_number 69
_symmetry_cell_setting 'orthorhombic'
loop_
_space_group_symop_operation_xyz
x,y,z
-x,-y,z
x,-y,-z
-x,y,-z
-x,-y,-z
x,y,-z
-x,y,z
x,-y,z
x,1/2+y,1/2+z
-x,1/2-y,1/2+z
x,1/2-y,1/2-z
-x,1/2+y,1/2-z
-x,1/2-y,1/2-z
x,1/2+y,1/2-z
-x,1/2+y,1/2+z
x,1/2-y,1/2+z
1/2+x,y,1/2+z
1/2-x,-y,1/2+z
1/2+x,-y,1/2-z
1/2-x,y,1/2-z
1/2-x,-y,1/2-z
1/2+x,y,1/2-z
1/2-x,y,1/2+z
1/2+x,-y,1/2+z
1/2+x,1/2+y,z
1/2-x,1/2-y,z
1/2+x,1/2-y,-z
1/2-x,1/2+y,-z
1/2-x,1/2-y,-z
1/2+x,1/2+y,-z
1/2-x,1/2+y,z
1/2+x,1/2-y,z
loop_
_atom_site_type_symbol
_atom_site_label
_atom_site_fract_x
_atom_site_fract_y
_atom_site_fract_z
Si Si1 0.756834 0.569599 0.577325
Si Si2 0.415925 0.569993 0.264232
Si Si3 0.080720 0.901637 0.100109
Si Si4 0.302982 0.827655 0.181737
Si Si5 0.087156 0.251115 0.582863
O O1 0.723476 0.580219 0.500000
O O2 0.732914 0.500000 0.602110
O O3 0.845498 0.568618 0.570679
O O4 0.741104 0.627792 0.627833
O O5 0.500000 0.573615 0.292296
O O6 0.386575 0.500000 0.278380
O O7 0.418942 0.579854 0.181380
O O8 0.366939 0.625934 0.291840
O O9 0.086749 0.826464 0.090486
O O10 0.000000 0.920987 0.073112
O O11 0.250000 0.813471 0.250000
O O12 0.348902 0.775455 0.136102
O O13 0.102050 0.235988 0.500000
O O14 0.000000 0.231017 0.598485
#
# Coordination Sequence:
#
# PCOD9513245 Si02
#       5
#    32  32  32  32  32
#     4  11  24  41  62  92 129 169 212 262 322 385
#     4  10  21  39  64  94 127 164 209 264 322 377
#     4  10  21  40  66  92 121 159 211 265 314 374
#     4  12  24  41  64  92 135 168 215 260 323 381
#     4  10  23  45  70  93 124 171 223 272 320 372
#
# _framework density 21.963121000000001
#
# number of rings (size 3 to 8) (size 9 to 14) (size 15 to 20)
#    0.000    1.400    2.000    3.000    0.000    4.800 
#    3.600    6.000    0.000    0.000    0.000    8.400 
#    0.000    0.000    0.000    0.000    0.000    0.000 
#
# Total GULP energy -223156.612893 kJ/mol
# GULP energy per Si atom -5578.915322 kJ/mol
# Density = 2.191313 g / cm^3
# Si number density = 21.963121 Si / 1000 Ang^3
#
#
#
# Elastic Constant Matrix: (Units=GPa)
#
#
# Indices 1 2 3 4 5 6 
#
# 1 91.2495 40.6729 64.8395 0.0000 0.0000 0.0000
# 2 40.6729 121.2960 48.7637 0.0000 0.0000 0.0000
# 3 64.8395 48.7637 108.1370 0.0000 0.0000 0.0000
# 4 0.0000 0.0000 0.0000 -83.4511 0.0000 0.0000
# 5 0.0000 0.0000 0.0000 0.0000 -18.3928 0.0000
# 6 0.0000 0.0000 0.0000 0.0000 0.0000 86.3043
#
#
#
# Elastic Compliance Matrix: (Units=1/GPa)
#
#
# Indices 1 2 3 4 5 6 
#
# 1 0.019587 -0.002255 -0.010727 0.000000 0.000000 0.000000
# 2 -0.002255 0.010330 -0.003306 0.000000 0.000000 0.000000
# 3 -0.010727 -0.003306 0.017170 0.000000 0.000000 0.000000
# 4 0.000000 0.000000 0.000000 -0.011983 0.000000 0.000000
# 5 0.000000 0.000000 0.000000 0.000000 -0.054369 0.000000
# 6 0.000000 0.000000 0.000000 0.000000 0.000000 0.011587
#
#
# Mechanical properties :
#
#
# Convention : Reuss Voigt Hill
#
# Bulk Modulus (GPa) = 68.91794 69.91496 69.41645
# Shear Modulus (GPa) = 168.15378 7.98584 88.06981
#
# Velocity S-wave (km/s) = 8.75946 1.90890 6.33924
# Velocity P-wave (km/s) = 11.56508 6.06305 9.23341
#
# Compressibility (1/GPa) = 0.01451001
#
# Stress axis : x y z
#
# Youngs Moduli (GPa) = 51.05502 96.81005 58.23972
#
# Poissons Ratio (x) = 0.21832 0.62476
# Poissons Ratio (y) = 0.11514 0.19253
# Poissons Ratio (z) = 0.54768 0.32004
#
# Static dielectric constant tensor:
#      x y z
#    x 1.866030 0.000000 0.000000 
#    y 0.000000 1.783800 0.000000 
#    z 0.000000 0.000000 1.912030 
# 
# From -- ./inp_files/24561.got.cif
#   From: 2010.05.17/outbox.cif.g08.bks.cpg/sg69_13_cif.got.tgz:24561.got - 2010.06.03 19:29:58.
