data_PCOD9513660
_publ_section_title
;
Structure prediction by ZEFSAII (Michael W. Deem and Ramdas Pophale) SiO2 
 PCOD9513660
Probable space group: F M M M
;
_chemical_formula_sum "Si O2"
_cell_formula_units_Z 192
_cell_length_a 29.674539
_cell_length_b 18.872531
_cell_length_c 18.114291
_cell_angle_alpha 90.000000
_cell_angle_beta 90.000000
_cell_angle_gamma 90.000000
_cell_volume 10144.612636
_symmetry_space_group_name_H-M "F M M M"
_symmetry_group_IT_number 69
_symmetry_cell_setting 'orthorhombic'
loop_
_space_group_symop_operation_xyz
x,y,z
-x,-y,z
x,-y,-z
-x,y,-z
-x,-y,-z
x,y,-z
-x,y,z
x,-y,z
x,1/2+y,1/2+z
-x,1/2-y,1/2+z
x,1/2-y,1/2-z
-x,1/2+y,1/2-z
-x,1/2-y,1/2-z
x,1/2+y,1/2-z
-x,1/2+y,1/2+z
x,1/2-y,1/2+z
1/2+x,y,1/2+z
1/2-x,-y,1/2+z
1/2+x,-y,1/2-z
1/2-x,y,1/2-z
1/2-x,-y,1/2-z
1/2+x,y,1/2-z
1/2-x,y,1/2+z
1/2+x,-y,1/2+z
1/2+x,1/2+y,z
1/2-x,1/2-y,z
1/2+x,1/2-y,-z
1/2-x,1/2+y,-z
1/2-x,1/2-y,-z
1/2+x,1/2+y,-z
1/2-x,1/2+y,z
1/2+x,1/2-y,z
loop_
_atom_site_type_symbol
_atom_site_label
_atom_site_fract_x
_atom_site_fract_y
_atom_site_fract_z
Si Si1 0.500000 0.799235 0.914516
Si Si2 0.319840 0.720599 0.331940
Si Si3 0.235299 0.421700 0.835712
Si Si4 0.320693 0.862165 0.586966
Si Si5 0.590345 0.916477 0.329589
Si Si6 0.577708 0.186374 0.196971
Si Si7 0.500000 0.872167 0.585465
O O1 0.543479 0.824667 0.869356
O O2 0.500000 0.713346 0.911751
O O3 0.500000 0.820384 0.000000
O O4 0.307360 0.750000 0.250000
O O5 0.296901 0.645490 0.347138
O O6 0.308127 0.782097 0.389347
O O7 0.373602 0.710599 0.331524
O O8 0.215566 0.500000 0.849876
O O9 0.250000 0.419367 0.750000
O O10 0.279960 0.410588 0.884327
O O11 0.327413 0.868667 0.500000
O O12 0.366396 0.882516 0.630057
O O13 0.584665 0.880509 0.249900
O O14 0.544922 0.899826 0.374886
O O15 0.597123 0.000000 0.324218
O O16 0.560227 0.250000 0.250000
O O17 0.500000 0.894101 0.500000
#
# Coordination Sequence:
#
# PCOD9513660 Si02
#       7
#    16  32  32  32  32  32  16
#     4  11  22  38  67  97 127 167 213 266 315 362
#     4  11  21  40  65  90 124 165 214 267 309 370
#     4  11  23  39  63  91 124 169 216 260 318 382
#     4  12  25  41  64  95 128 166 210 264 326 382
#     4  12  24  39  62  92 128 169 206 255 320 385
#     4  11  20  40  65  91 124 163 214 259 303 371
#     4  11  22  36  56  88 127 168 207 245 310 384
#
# _framework density 18.926302
#
# number of rings (size 3 to 8) (size 9 to 14) (size 15 to 20)
#    0.000    0.667    6.667    2.500    0.000    8.000 
#    0.000    0.000    0.000    1.000    0.000    2.333 
#    0.000    0.000    0.000    0.000    0.000    0.000 
#
# Total GULP energy -268443.940438 kJ/mol
# GULP energy per Si atom -5592.582092 kJ/mol
# Density = 1.888322 g / cm^3
# Si number density = 18.926302 Si / 1000 Ang^3
#
#
#
# Elastic Constant Matrix: (Units=GPa)
#
#
# Indices 1 2 3 4 5 6 
#
# 1 80.0832 28.7469 44.1030 0.0000 0.0000 0.0000
# 2 28.7469 130.5258 47.0660 0.0000 0.0000 0.0000
# 3 44.1030 47.0660 118.7280 0.0000 0.0000 0.0000
# 4 0.0000 0.0000 0.0000 -165.1253 0.0000 0.0000
# 5 0.0000 0.0000 0.0000 0.0000 -232.3511 0.0000
# 6 0.0000 0.0000 0.0000 0.0000 0.0000 15.0538
#
#
#
# Elastic Compliance Matrix: (Units=1/GPa)
#
#
# Indices 1 2 3 4 5 6 
#
# 1 0.015983 -0.001609 -0.005299 0.000000 0.000000 0.000000
# 2 -0.001609 0.009101 -0.003010 0.000000 0.000000 0.000000
# 3 -0.005299 -0.003010 0.011584 0.000000 0.000000 0.000000
# 4 0.000000 0.000000 0.000000 -0.006056 0.000000 0.000000
# 5 0.000000 0.000000 0.000000 0.000000 -0.004304 0.000000
# 6 0.000000 0.000000 0.000000 0.000000 0.000000 0.066428
#
#
# Mechanical properties :
#
#
# Convention : Reuss Voigt Hill
#
# Bulk Modulus (GPa) = 59.41258 63.24097 61.32678
# Shear Modulus (GPa) = 42.30674 -62.52313 -10.10819
#
# Velocity S-wave (km/s) = 4.73307 -5.75385 -2.31353
# Velocity P-wave (km/s) = 7.83128 3.26427 5.03356
#
# Compressibility (1/GPa) = 0.01683145
#
# Stress axis : x y z
#
# Youngs Moduli (GPa) = 62.56654 109.87628 86.32375
#
# Poissons Ratio (x) = 0.17682 0.45744
# Poissons Ratio (y) = 0.10069 0.25984
# Poissons Ratio (z) = 0.33155 0.33074
#
# Static dielectric constant tensor:
#      x y z
#    x 1.656870 0.000000 0.000000 
#    y 0.000000 1.663410 0.000000 
#    z 0.000000 0.000000 1.635570 
# 
# From -- ./inp_files/27790.got.cif
#   From: 2010.05.17/outbox.cif.g08.bks.cpg/sg69_14_cif.got.tgz:27790.got - 2010.06.03 19:29:58.
