data_PCOD9513099
_publ_section_title
;
Structure prediction by ZEFSAII (Michael W. Deem and Ramdas Pophale) SiO2 
 PCOD9513099
Probable space group: F M M M
;
_chemical_formula_sum "Si O2"
_cell_formula_units_Z 112
_cell_length_a 14.131726
_cell_length_b 12.774510
_cell_length_c 28.019517
_cell_angle_alpha 90.000000
_cell_angle_beta 90.000000
_cell_angle_gamma 90.000000
_cell_volume 5058.247826
_symmetry_space_group_name_H-M "F M M M"
_symmetry_group_IT_number 69
_symmetry_cell_setting 'orthorhombic'
loop_
_space_group_symop_operation_xyz
x,y,z
-x,-y,z
x,-y,-z
-x,y,-z
-x,-y,-z
x,y,-z
-x,y,z
x,-y,z
x,1/2+y,1/2+z
-x,1/2-y,1/2+z
x,1/2-y,1/2-z
-x,1/2+y,1/2-z
-x,1/2-y,1/2-z
x,1/2+y,1/2-z
-x,1/2+y,1/2+z
x,1/2-y,1/2+z
1/2+x,y,1/2+z
1/2-x,-y,1/2+z
1/2+x,-y,1/2-z
1/2-x,y,1/2-z
1/2-x,-y,1/2-z
1/2+x,y,1/2-z
1/2-x,y,1/2+z
1/2+x,-y,1/2+z
1/2+x,1/2+y,z
1/2-x,1/2-y,z
1/2+x,1/2-y,-z
1/2-x,1/2+y,-z
1/2-x,1/2-y,-z
1/2+x,1/2+y,-z
1/2-x,1/2+y,z
1/2+x,1/2-y,z
loop_
_atom_site_type_symbol
_atom_site_label
_atom_site_fract_x
_atom_site_fract_y
_atom_site_fract_z
Si Si1 0.750000 0.250000 0.124064
Si Si2 0.890005 0.714655 0.304381
Si Si3 0.388414 0.000000 0.886269
Si Si4 0.221870 0.500000 0.306248
Si Si5 0.390156 0.718240 0.444203
O O1 0.828358 0.288838 0.162087
O O2 0.676646 0.297277 0.085393
O O3 0.878220 0.750000 0.250000
O O4 0.844430 0.601561 0.312609
O O5 0.000000 0.718218 0.316122
O O6 0.377055 0.896894 0.920066
O O7 0.500000 0.000000 0.869064
O O8 0.308371 0.000000 0.844487
O O9 0.250000 0.500000 0.250000
O O10 0.367532 0.714870 0.500000
O O11 0.500000 0.745870 0.438911
#
# Coordination Sequence:
#
# PCOD9513099 Si02
#       5
#    16  32  16  16  32
#     4  12  20  38  60  90 124 162 202 258 304 376
#     4  11  25  42  62  90 124 163 207 255 310 374
#     4  10  21  39  64  91 122 156 205 258 304 367
#     4  12  23  42  63  90 122 161 206 253 309 375
#     4  10  21  37  60  90 122 160 206 258 312 361
#
# _framework density 22.142054000000002
#
# number of rings (size 3 to 8) (size 9 to 14) (size 15 to 20)
#    0.000    1.143    2.857    4.286    0.000    2.857 
#    0.000    0.000    0.000    0.857    0.000    2.000 
#    0.000    0.000    0.000    0.000    0.000    0.000 
#
# Total GULP energy -155963.794947 kJ/mol
# GULP energy per Si atom -5570.135534 kJ/mol
# Density = 2.209166 g / cm^3
# Si number density = 22.142054 Si / 1000 Ang^3
#
#
#
# Elastic Constant Matrix: (Units=GPa)
#
#
# Indices 1 2 3 4 5 6 
#
# 1 219.7767 43.6604 117.2513 0.0000 0.0000 0.0000
# 2 43.6604 101.0580 14.2368 0.0000 0.0000 0.0000
# 3 117.2513 14.2368 188.7901 0.0000 0.0000 0.0000
# 4 0.0000 0.0000 0.0000 21.9005 0.0000 0.0000
# 5 0.0000 0.0000 0.0000 0.0000 58.2071 0.0000
# 6 0.0000 0.0000 0.0000 0.0000 0.0000 28.4709
#
#
#
# Elastic Compliance Matrix: (Units=1/GPa)
#
#
# Indices 1 2 3 4 5 6 
#
# 1 0.007417 -0.002583 -0.004411 0.000000 0.000000 0.000000
# 2 -0.002583 0.010901 0.000782 0.000000 0.000000 0.000000
# 3 -0.004411 0.000782 0.007978 0.000000 0.000000 0.000000
# 4 0.000000 0.000000 0.000000 0.045661 0.000000 0.000000
# 5 0.000000 0.000000 0.000000 0.000000 0.017180 0.000000
# 6 0.000000 0.000000 0.000000 0.000000 0.000000 0.035124
#
#
# Mechanical properties :
#
#
# Convention : Reuss Voigt Hill
#
# Bulk Modulus (GPa) = 72.09322 95.54688 83.82005
# Shear Modulus (GPa) = 35.38363 44.01413 39.69888
#
# Velocity S-wave (km/s) = 4.00187 4.46332 4.23888
# Velocity P-wave (km/s) = 7.34734 8.35506 7.86735
#
# Compressibility (1/GPa) = 0.01387093
#
# Stress axis : x y z
#
# Youngs Moduli (GPa) = 134.83077 91.73489 125.34863
#
# Poissons Ratio (x) = 0.23693 0.55298
# Poissons Ratio (y) = 0.34824 -0.09803
# Poissons Ratio (z) = 0.59481 -0.07174
#
# Static dielectric constant tensor:
#      x y z
#    x 1.852970 0.000000 0.000000 
#    y 0.000000 2.126880 0.000000 
#    z 0.000000 0.000000 1.813630 
# 
# From -- ./inp_files/17243.got.cif
#   From: 2010.05.17/outbox.cif.g08.bks.cpg/sg69_9_cif.got.tgz:17243.got - 2010.06.03 19:29:58.
