data_PCOD9513851
_publ_section_title
;
Structure prediction by ZEFSAII (Michael W. Deem and Ramdas Pophale) SiO2 
 PCOD9513851
Probable space group: F M M M
;
_chemical_formula_sum "Si O2"
_cell_formula_units_Z 112
_cell_length_a 30.438960
_cell_length_b 16.088771
_cell_length_c 11.039648
_cell_angle_alpha 90.000000
_cell_angle_beta 90.000000
_cell_angle_gamma 90.000000
_cell_volume 5406.396661
_symmetry_space_group_name_H-M "F M M M"
_symmetry_group_IT_number 69
_symmetry_cell_setting 'orthorhombic'
loop_
_space_group_symop_operation_xyz
x,y,z
-x,-y,z
x,-y,-z
-x,y,-z
-x,-y,-z
x,y,-z
-x,y,z
x,-y,z
x,1/2+y,1/2+z
-x,1/2-y,1/2+z
x,1/2-y,1/2-z
-x,1/2+y,1/2-z
-x,1/2-y,1/2-z
x,1/2+y,1/2-z
-x,1/2+y,1/2+z
x,1/2-y,1/2+z
1/2+x,y,1/2+z
1/2-x,-y,1/2+z
1/2+x,-y,1/2-z
1/2-x,y,1/2-z
1/2-x,-y,1/2-z
1/2+x,y,1/2-z
1/2-x,y,1/2+z
1/2+x,-y,1/2+z
1/2+x,1/2+y,z
1/2-x,1/2-y,z
1/2+x,1/2-y,-z
1/2-x,1/2+y,-z
1/2-x,1/2-y,-z
1/2+x,1/2+y,-z
1/2-x,1/2+y,z
1/2+x,1/2-y,z
loop_
_atom_site_type_symbol
_atom_site_label
_atom_site_fract_x
_atom_site_fract_y
_atom_site_fract_z
Si Si1 0.453005 0.174005 0.000000
Si Si2 0.800563 0.650200 0.760255
Si Si3 0.854016 0.901469 0.500000
Si Si4 0.618726 0.093173 0.359588
Si Si5 0.070069 0.250000 0.250000
O O1 0.453296 0.226876 0.875723
O O2 0.500000 0.125413 0.000000
O O3 0.404368 0.131974 0.000000
O O4 0.801990 0.750000 0.750000
O O5 0.750000 0.624166 0.750000
O O6 0.829453 0.607860 0.655935
O O7 0.825770 0.626857 0.883767
O O8 0.856693 0.000000 0.500000
O O9 0.606189 0.100070 0.500000
O O10 0.597237 0.167484 0.284611
O O11 0.607324 0.000000 0.316375
#
# Coordination Sequence:
#
# PCOD9513851 Si02
#       5
#    16  32  16  32  16
#     4  12  26  45  74 104 139 189 240 287 359 428
#     4  11  25  41  66  96 135 183 236 285 344 419
#     4  12  26  44  67 101 142 178 228 298 355 408
#     4  11  23  40  67  98 137 186 229 279 352 429
#     4  12  23  46  73 104 140 182 229 296 357 424
#
# _framework density 20.716201000000002
#
# number of rings (size 3 to 8) (size 9 to 14) (size 15 to 20)
#    0.000    0.571    5.714    1.286    4.000    3.714 
#    0.000    0.000    0.000    3.429    0.000    0.000 
#    0.000    0.000    0.000    0.000    0.000    0.000 
#
# Total GULP energy -156252.683560 kJ/mol
# GULP energy per Si atom -5580.452984 kJ/mol
# Density = 2.066905 g / cm^3
# Si number density = 20.716201 Si / 1000 Ang^3
#
#
#
# Elastic Constant Matrix: (Units=GPa)
#
#
# Indices 1 2 3 4 5 6 
#
# 1 168.2905 66.1645 57.4187 0.0000 0.0000 0.0000
# 2 66.1645 140.1138 49.7131 0.0000 0.0000 0.0000
# 3 57.4187 49.7131 129.0594 0.0000 0.0000 0.0000
# 4 0.0000 0.0000 0.0000 31.5695 0.0000 0.0000
# 5 0.0000 0.0000 0.0000 0.0000 82.8100 0.0000
# 6 0.0000 0.0000 0.0000 0.0000 0.0000 -1.9945
#
#
#
# Elastic Compliance Matrix: (Units=1/GPa)
#
#
# Indices 1 2 3 4 5 6 
#
# 1 0.007892 -0.002874 -0.002404 0.000000 0.000000 0.000000
# 2 -0.002874 0.009313 -0.002309 0.000000 0.000000 0.000000
# 3 -0.002404 -0.002309 0.009707 0.000000 0.000000 0.000000
# 4 0.000000 0.000000 0.000000 0.031676 0.000000 0.000000
# 5 0.000000 0.000000 0.000000 0.000000 0.012076 0.000000
# 6 0.000000 0.000000 0.000000 0.000000 0.000000 -0.501382
#
#
# Mechanical properties :
#
#
# Convention : Reuss Voigt Hill
#
# Bulk Modulus (GPa) = 85.18609 87.11738 86.15173
# Shear Modulus (GPa) = -12.14683 40.08817 13.97067
#
# Velocity S-wave (km/s) = -2.42408 4.40376 2.59971
# Velocity P-wave (km/s) = 5.77710 8.24631 7.11957
#
# Compressibility (1/GPa) = 0.01173901
#
# Stress axis : x y z
#
# Youngs Moduli (GPa) = 126.70583 107.37284 103.01401
#
# Poissons Ratio (x) = 0.30857 0.24768
# Poissons Ratio (y) = 0.36413 0.23785
# Poissons Ratio (z) = 0.30464 0.24791
#
# Static dielectric constant tensor:
#      x y z
#    x 1.773020 0.000000 0.000000 
#    y 0.000000 1.771030 0.000000 
#    z 0.000000 0.000000 1.767670 
# 
# From -- ./inp_files/11970.got.cif
#   From: 2010.05.17/outbox.cif.g08.bks.cpg/sg69_6_cif.got.tgz:11970.got - 2010.06.03 19:29:58.
