data_PCOD9513841
_publ_section_title
;
Structure prediction by ZEFSAII (Michael W. Deem and Ramdas Pophale) SiO2 
 PCOD9513841
Probable space group: F M M M
;
_chemical_formula_sum "Si O2"
_cell_formula_units_Z 104
_cell_length_a 27.695301
_cell_length_b 11.923984
_cell_length_c 15.309882
_cell_angle_alpha 90.000000
_cell_angle_beta 90.000000
_cell_angle_gamma 90.000000
_cell_volume 5055.909803
_symmetry_space_group_name_H-M "F M M M"
_symmetry_group_IT_number 69
_symmetry_cell_setting 'orthorhombic'
loop_
_space_group_symop_operation_xyz
x,y,z
-x,-y,z
x,-y,-z
-x,y,-z
-x,-y,-z
x,y,-z
-x,y,z
x,-y,z
x,1/2+y,1/2+z
-x,1/2-y,1/2+z
x,1/2-y,1/2-z
-x,1/2+y,1/2-z
-x,1/2-y,1/2-z
x,1/2+y,1/2-z
-x,1/2+y,1/2+z
x,1/2-y,1/2+z
1/2+x,y,1/2+z
1/2-x,-y,1/2+z
1/2+x,-y,1/2-z
1/2-x,y,1/2-z
1/2-x,-y,1/2-z
1/2+x,y,1/2-z
1/2-x,y,1/2+z
1/2+x,-y,1/2+z
1/2+x,1/2+y,z
1/2-x,1/2-y,z
1/2+x,1/2-y,-z
1/2-x,1/2+y,-z
1/2-x,1/2-y,-z
1/2+x,1/2+y,-z
1/2-x,1/2+y,z
1/2+x,1/2-y,z
loop_
_atom_site_type_symbol
_atom_site_label
_atom_site_fract_x
_atom_site_fract_y
_atom_site_fract_z
Si Si1 0.944478 0.500000 0.104292
Si Si2 0.500000 0.128906 0.605060
Si Si3 0.250000 0.250000 0.750000
Si Si4 0.096848 0.760274 0.349633
Si Si5 0.310900 0.632184 0.097559
O O1 0.916143 0.388388 0.130417
O O2 0.000000 0.500000 0.138729
O O3 0.948065 0.500000 0.000000
O O4 0.500000 0.133243 0.500000
O O5 0.452307 0.191153 0.636945
O O6 0.500000 0.000000 0.633271
O O7 0.280305 0.325779 0.818946
O O8 0.111959 0.750000 0.250000
O O9 0.140084 0.704656 0.402792
O O10 0.321971 0.500000 0.108260
O O11 0.288023 0.644423 0.000000
#
# Coordination Sequence:
#
# PCOD9513841 Si02
#       5
#    16  16   8  32  32
#     4  11  24  42  64  93 136 184 228 274 324 385
#     4  11  23  39  63  93 131 179 225 272 334 403
#     4  12  24  48  76 106 132 166 226 284 354 412
#     4  12  25  40  66  97 137 178 226 275 330 396
#     4  11  25  47  73 102 138 177 222 280 343 408
#
# _framework density 20.569987000000001
#
# number of rings (size 3 to 8) (size 9 to 14) (size 15 to 20)
#    0.000    0.615    3.077    5.077    4.308    2.462 
#    2.769    0.000    0.000    0.000    0.000    0.000 
#    0.000    0.000    0.000    0.000    0.000    0.000 
#
# Total GULP energy -145320.554269 kJ/mol
# GULP energy per Si atom -5589.252087 kJ/mol
# Density = 2.052317 g / cm^3
# Si number density = 20.569987 Si / 1000 Ang^3
#
#
#
# Elastic Constant Matrix: (Units=GPa)
#
#
# Indices 1 2 3 4 5 6 
#
# 1 89.6684 63.2419 36.2943 0.0000 0.0000 0.0000
# 2 63.2419 203.6391 51.4863 0.0000 0.0000 0.0000
# 3 36.2943 51.4863 150.2354 0.0000 0.0000 0.0000
# 4 0.0000 0.0000 0.0000 39.2194 0.0000 0.0000
# 5 0.0000 0.0000 0.0000 0.0000 30.6000 0.0000
# 6 0.0000 0.0000 0.0000 0.0000 0.0000 38.1374
#
#
#
# Elastic Compliance Matrix: (Units=1/GPa)
#
#
# Indices 1 2 3 4 5 6 
#
# 1 0.014920 -0.004075 -0.002208 0.000000 0.000000 0.000000
# 2 -0.004075 0.006490 -0.001239 0.000000 0.000000 0.000000
# 3 -0.002208 -0.001239 0.007614 0.000000 0.000000 0.000000
# 4 0.000000 0.000000 0.000000 0.025498 0.000000 0.000000
# 5 0.000000 0.000000 0.000000 0.000000 0.032680 0.000000
# 6 0.000000 0.000000 0.000000 0.000000 0.000000 0.026221
#
#
# Mechanical properties :
#
#
# Convention : Reuss Voigt Hill
#
# Bulk Modulus (GPa) = 71.53672 82.84310 77.18991
# Shear Modulus (GPa) = 37.55798 41.09271 39.32535
#
# Velocity S-wave (km/s) = 4.27765 4.47442 4.37714
# Velocity P-wave (km/s) = 7.69743 8.18872 7.94687
#
# Compressibility (1/GPa) = 0.01397884
#
# Stress axis : x y z
#
# Youngs Moduli (GPa) = 67.02346 154.09081 131.33066
#
# Poissons Ratio (x) = 0.62798 0.28995
# Poissons Ratio (y) = 0.27315 0.16278
# Poissons Ratio (z) = 0.14797 0.19100
#
# Static dielectric constant tensor:
#      x y z
#    x 1.797680 0.000000 0.000000 
#    y 0.000000 1.694830 0.000000 
#    z 0.000000 0.000000 1.753550 
# 
# From -- ./inp_files/19207.got.cif
#   From: 2010.05.17/outbox.cif.g08.bks.cpg/sg69_10_cif.got.tgz:19207.got - 2010.06.03 19:29:58.
