data_PCOD9513492
_publ_section_title
;
Structure prediction by ZEFSAII (Michael W. Deem and Ramdas Pophale) SiO2 
 PCOD9513492
Probable space group: F M M M
;
_chemical_formula_sum "Si O2"
_cell_formula_units_Z 136
_cell_length_a 14.551362
_cell_length_b 20.887290
_cell_length_c 21.705735
_cell_angle_alpha 90.000000
_cell_angle_beta 90.000000
_cell_angle_gamma 90.000000
_cell_volume 6597.208928
_symmetry_space_group_name_H-M "F M M M"
_symmetry_group_IT_number 69
_symmetry_cell_setting 'orthorhombic'
loop_
_space_group_symop_operation_xyz
x,y,z
-x,-y,z
x,-y,-z
-x,y,-z
-x,-y,-z
x,y,-z
-x,y,z
x,-y,z
x,1/2+y,1/2+z
-x,1/2-y,1/2+z
x,1/2-y,1/2-z
-x,1/2+y,1/2-z
-x,1/2-y,1/2-z
x,1/2+y,1/2-z
-x,1/2+y,1/2+z
x,1/2-y,1/2+z
1/2+x,y,1/2+z
1/2-x,-y,1/2+z
1/2+x,-y,1/2-z
1/2-x,y,1/2-z
1/2-x,-y,1/2-z
1/2+x,y,1/2-z
1/2-x,y,1/2+z
1/2+x,-y,1/2+z
1/2+x,1/2+y,z
1/2-x,1/2-y,z
1/2+x,1/2-y,-z
1/2-x,1/2+y,-z
1/2-x,1/2-y,-z
1/2+x,1/2+y,-z
1/2-x,1/2+y,z
1/2+x,1/2-y,z
loop_
_atom_site_type_symbol
_atom_site_label
_atom_site_fract_x
_atom_site_fract_y
_atom_site_fract_z
Si Si1 0.890314 0.304143 0.202036
Si Si2 0.315535 0.311398 0.566605
Si Si3 0.000000 0.906075 0.000000
Si Si4 0.611395 0.070608 0.730245
Si Si5 0.174618 0.574446 0.409767
O O1 0.855908 0.250000 0.250000
O O2 0.868909 0.298911 0.129970
O O3 0.857174 0.372871 0.225754
O O4 0.000000 0.303121 0.207580
O O5 0.365861 0.314819 0.500000
O O6 0.250000 0.250000 0.562871
O O7 0.253831 0.375238 0.573445
O O8 0.918323 0.909580 0.947076
O O9 0.500000 0.072974 0.725384
O O10 0.651338 0.079654 0.662347
O O11 0.636136 0.000000 0.753701
O O12 0.198349 0.500000 0.422881
#
# Coordination Sequence:
#
# PCOD9513492 Si02
#       5
#    32  32   8  32  32
#     4  10  22  42  65  84 114 162 208 249 305 370
#     4  11  25  42  57  89 126 155 199 257 312 368
#     4  12  21  36  62  96 130 166 205 252 317 384
#     4   9  18  33  56  87 117 148 196 250 297 354
#     4  11  21  36  62  92 126 166 205 254 314 373
#
# _framework density 20.614778000000001
#
# number of rings (size 3 to 8) (size 9 to 14) (size 15 to 20)
#    0.000    1.647    2.353    2.471    0.000    4.706 
#    2.118    2.353    0.000    0.000    0.000    4.941 
#    0.000    0.000    0.000    0.000    0.000    0.000 
#
# Total GULP energy -189321.956696 kJ/mol
# GULP energy per Si atom -5568.292844 kJ/mol
# Density = 2.056786 g / cm^3
# Si number density = 20.614778 Si / 1000 Ang^3
#
#
#
# Elastic Constant Matrix: (Units=GPa)
#
#
# Indices 1 2 3 4 5 6 
#
# 1 48.8774 18.4274 14.7611 0.0000 0.0000 0.0000
# 2 18.4274 96.1125 67.4019 0.0000 0.0000 0.0000
# 3 14.7611 67.4019 164.4694 0.0000 0.0000 0.0000
# 4 0.0000 0.0000 0.0000 36.4648 0.0000 0.0000
# 5 0.0000 0.0000 0.0000 0.0000 93.6173 0.0000
# 6 0.0000 0.0000 0.0000 0.0000 0.0000 1.3146
#
#
#
# Elastic Compliance Matrix: (Units=1/GPa)
#
#
# Indices 1 2 3 4 5 6 
#
# 1 0.022067 -0.003988 -0.000346 0.000000 0.000000 0.000000
# 2 -0.003988 0.015321 -0.005921 0.000000 0.000000 0.000000
# 3 -0.000346 -0.005921 0.008538 0.000000 0.000000 0.000000
# 4 0.000000 0.000000 0.000000 0.027424 0.000000 0.000000
# 5 0.000000 0.000000 0.000000 0.000000 0.010682 0.000000
# 6 0.000000 0.000000 0.000000 0.000000 0.000000 0.760673
#
#
# Mechanical properties :
#
#
# Convention : Reuss Voigt Hill
#
# Bulk Modulus (GPa) = 39.34533 56.73779 48.04156
# Shear Modulus (GPa) = 5.72287 40.20394 22.96340
#
# Velocity S-wave (km/s) = 1.66797 4.42095 3.34118
# Velocity P-wave (km/s) = 4.77880 7.32410 6.18382
#
# Compressibility (1/GPa) = 0.02541598
#
# Stress axis : x y z
#
# Youngs Moduli (GPa) = 45.31555 65.26825 117.12723
#
# Poissons Ratio (x) = 0.26030 0.04054
# Poissons Ratio (y) = 0.18073 0.69351
# Poissons Ratio (z) = 0.01569 0.38645
#
# Static dielectric constant tensor:
#      x y z
#    x 1.717560 0.000000 0.000000 
#    y 0.000000 1.759020 0.000000 
#    z 0.000000 0.000000 1.777950 
# 
# From -- ./inp_files/24198.got.cif
#   From: 2010.05.17/outbox.cif.g08.bks.cpg/sg69_13_cif.got.tgz:24198.got - 2010.06.03 19:29:58.
