data_PCOD9513632
_publ_section_title
;
Structure prediction by ZEFSAII (Michael W. Deem and Ramdas Pophale) SiO2 
 PCOD9513632
Probable space group: F M M M
;
_chemical_formula_sum "Si O2"
_cell_formula_units_Z 112
_cell_length_a 16.855330
_cell_length_b 25.790381
_cell_length_c 12.968009
_cell_angle_alpha 90.000000
_cell_angle_beta 90.000000
_cell_angle_gamma 90.000000
_cell_volume 5637.263314
_symmetry_space_group_name_H-M "F M M M"
_symmetry_group_IT_number 69
_symmetry_cell_setting 'orthorhombic'
loop_
_space_group_symop_operation_xyz
x,y,z
-x,-y,z
x,-y,-z
-x,y,-z
-x,-y,-z
x,y,-z
-x,y,z
x,-y,z
x,1/2+y,1/2+z
-x,1/2-y,1/2+z
x,1/2-y,1/2-z
-x,1/2+y,1/2-z
-x,1/2-y,1/2-z
x,1/2+y,1/2-z
-x,1/2+y,1/2+z
x,1/2-y,1/2+z
1/2+x,y,1/2+z
1/2-x,-y,1/2+z
1/2+x,-y,1/2-z
1/2-x,y,1/2-z
1/2-x,-y,1/2-z
1/2+x,y,1/2-z
1/2-x,y,1/2+z
1/2+x,-y,1/2+z
1/2+x,1/2+y,z
1/2-x,1/2-y,z
1/2+x,1/2-y,-z
1/2-x,1/2+y,-z
1/2-x,1/2-y,-z
1/2+x,1/2+y,-z
1/2-x,1/2+y,z
1/2+x,1/2-y,z
loop_
_atom_site_type_symbol
_atom_site_label
_atom_site_fract_x
_atom_site_fract_y
_atom_site_fract_z
Si Si1 0.911264 0.883925 0.211221
Si Si2 0.096032 0.439703 0.500000
Si Si3 0.816608 0.169864 0.622052
Si Si4 0.360968 0.284855 0.878506
O O1 0.879175 0.913991 0.109241
O O2 0.851972 0.876317 0.308298
O O3 0.918921 0.825035 0.172340
O O4 0.000000 0.903759 0.238203
O O5 0.117444 0.500000 0.500000
O O6 0.000000 0.434789 0.500000
O O7 0.825637 0.159211 0.500000
O O8 0.725683 0.188223 0.638789
O O9 0.860712 0.224328 0.648228
O O10 0.374099 0.285807 0.000000
#
# Coordination Sequence:
#
# PCOD9513632 Si02
#       4
#    32  16  32  32
#     4  11  20  31  51  76 100 129 171 221 262 294
#     4   9  20  38  56  73  94 128 177 224 266 312
#     4   9  19  32  49  74 107 147 172 190 239 313
#     4   9  17  32  50  72 105 144 179 197 228 303
#
# _framework density 19.867795999999998
#
# number of rings (size 3 to 8) (size 9 to 14) (size 15 to 20)
#    0.000    2.429    1.429    3.429    0.000    5.143 
#    0.000    2.857    0.000    4.286    0.000    4.000 
#    0.000    0.000    0.000    0.000    0.000    0.000 
#
# Total GULP energy -155870.600404 kJ/mol
# GULP energy per Si atom -5566.807157 kJ/mol
# Density = 1.982258 g / cm^3
# Si number density = 19.867796 Si / 1000 Ang^3
#
#
#
# Elastic Constant Matrix: (Units=GPa)
#
#
# Indices 1 2 3 4 5 6 
#
# 1 35.7624 21.9351 37.3262 0.0000 0.0000 0.0000
# 2 21.9351 57.5560 57.3433 0.0000 0.0000 0.0000
# 3 37.3262 57.3433 150.2826 0.0000 0.0000 0.0000
# 4 0.0000 0.0000 0.0000 27.1804 0.0000 0.0000
# 5 0.0000 0.0000 0.0000 0.0000 14.9906 0.0000
# 6 0.0000 0.0000 0.0000 0.0000 0.0000 13.8022
#
#
#
# Elastic Compliance Matrix: (Units=1/GPa)
#
#
# Indices 1 2 3 4 5 6 
#
# 1 0.040269 -0.008683 -0.006689 0.000000 0.000000 0.000000
# 2 -0.008683 0.029903 -0.009253 0.000000 0.000000 0.000000
# 3 -0.006689 -0.009253 0.011846 0.000000 0.000000 0.000000
# 4 0.000000 0.000000 0.000000 0.036791 0.000000 0.000000
# 5 0.000000 0.000000 0.000000 0.000000 0.066709 0.000000
# 6 0.000000 0.000000 0.000000 0.000000 0.000000 0.072452
#
#
# Mechanical properties :
#
#
# Convention : Reuss Voigt Hill
#
# Bulk Modulus (GPa) = 30.51743 52.97891 41.74817
# Shear Modulus (GPa) = 15.71620 19.66106 17.68863
#
# Velocity S-wave (km/s) = 2.81559 3.14919 2.98705
# Velocity P-wave (km/s) = 5.09546 6.32035 5.74067
#
# Compressibility (1/GPa) = 0.03276816
#
# Stress axis : x y z
#
# Youngs Moduli (GPa) = 24.83283 33.44176 84.41524
#
# Poissons Ratio (x) = 0.29038 0.56462
# Poissons Ratio (y) = 0.21562 0.78112
# Poissons Ratio (z) = 0.16610 0.30945
#
# Static dielectric constant tensor:
#      x y z
#    x 2.066070 0.000000 0.000000 
#    y 0.000000 1.673350 0.000000 
#    z 0.000000 0.000000 1.804100 
# 
# From -- ./inp_files/15255.got.cif
#   From: 2010.05.17/outbox.cif.g08.bks.cpg/sg69_8_cif.got.tgz:15255.got - 2010.06.03 19:29:58.
