data_PCOD9513092
_publ_section_title
;
Structure prediction by ZEFSAII (Michael W. Deem and Ramdas Pophale) SiO2 
 PCOD9513092
Probable space group: F M M M
;
_chemical_formula_sum "Si O2"
_cell_formula_units_Z 176
_cell_length_a 17.786033
_cell_length_b 14.723994
_cell_length_c 29.316578
_cell_angle_alpha 90.000000
_cell_angle_beta 90.000000
_cell_angle_gamma 90.000000
_cell_volume 7677.467756
_symmetry_space_group_name_H-M "F M M M"
_symmetry_group_IT_number 69
_symmetry_cell_setting 'orthorhombic'
loop_
_space_group_symop_operation_xyz
x,y,z
-x,-y,z
x,-y,-z
-x,y,-z
-x,-y,-z
x,y,-z
-x,y,z
x,-y,z
x,1/2+y,1/2+z
-x,1/2-y,1/2+z
x,1/2-y,1/2-z
-x,1/2+y,1/2-z
-x,1/2-y,1/2-z
x,1/2+y,1/2-z
-x,1/2+y,1/2+z
x,1/2-y,1/2+z
1/2+x,y,1/2+z
1/2-x,-y,1/2+z
1/2+x,-y,1/2-z
1/2-x,y,1/2-z
1/2-x,-y,1/2-z
1/2+x,y,1/2-z
1/2-x,y,1/2+z
1/2+x,-y,1/2+z
1/2+x,1/2+y,z
1/2-x,1/2-y,z
1/2+x,1/2-y,-z
1/2-x,1/2+y,-z
1/2-x,1/2-y,-z
1/2+x,1/2+y,-z
1/2-x,1/2+y,z
1/2+x,1/2-y,z
loop_
_atom_site_type_symbol
_atom_site_label
_atom_site_fract_x
_atom_site_fract_y
_atom_site_fract_z
Si Si1 0.348398 0.110311 0.899967
Si Si2 0.788308 0.346843 0.191458
Si Si3 0.418210 0.143330 0.741990
Si Si4 0.364415 0.601673 0.854801
Si Si5 0.000000 0.110474 0.449165
Si Si6 0.307343 0.610978 0.051486
O O1 0.342433 0.161675 0.852010
O O2 0.425050 0.136223 0.923583
O O3 0.278081 0.131331 0.932841
O O4 0.347834 0.000000 0.891909
O O5 0.750000 0.250000 0.202704
O O6 0.841351 0.386942 0.231503
O O7 0.719395 0.400410 0.168074
O O8 0.500000 0.106305 0.757505
O O9 0.418085 0.250000 0.750000
O O10 0.412158 0.134727 0.687717
O O11 0.390596 0.500000 0.863383
O O12 0.356211 0.644570 0.905085
O O13 0.000000 0.146490 0.500000
O O14 0.000000 0.000000 0.451255
O O15 0.312471 0.500000 0.050793
O O16 0.323395 0.642881 0.000000
#
# Coordination Sequence:
#
# PCOD9513092 Si02
#       6
#    32  32  32  32  16  32
#     4   9  18  30  49  82 118 150 192 241 285 340
#     4  11  21  36  59  82 110 156 196 239 290 352
#     4  11  24  40  58  83 112 151 192 231 291 359
#     4  10  21  37  60  89 117 150 193 244 287 336
#     4   9  16  28  50  80 117 158 193 233 293 356
#     4   8  14  28  52  81 112 146 187 234 283 331
#
# _framework density 22.924225
#
# number of rings (size 3 to 8) (size 9 to 14) (size 15 to 20)
#    0.000    2.273    1.818    2.727    1.273    4.727 
#    0.000    0.000    0.000   14.182    0.000    2.545 
#    0.000    0.000    0.000    0.000    0.000    0.182 
#
# Total GULP energy -245336.777768 kJ/mol
# GULP energy per Si atom -5575.835858 kJ/mol
# Density = 2.287205 g / cm^3
# Si number density = 22.924225 Si / 1000 Ang^3
#
#
#
# Elastic Constant Matrix: (Units=GPa)
#
#
# Indices 1 2 3 4 5 6 
#
# 1 83.7090 7.2662 53.2804 0.0000 0.0000 0.0000
# 2 7.2662 44.0203 23.2010 0.0000 0.0000 0.0000
# 3 53.2804 23.2010 221.6272 0.0000 0.0000 0.0000
# 4 0.0000 0.0000 0.0000 13.1984 0.0000 0.0000
# 5 0.0000 0.0000 0.0000 0.0000 21.9110 0.0000
# 6 0.0000 0.0000 0.0000 0.0000 0.0000 -123.1073
#
#
#
# Elastic Compliance Matrix: (Units=1/GPa)
#
#
# Indices 1 2 3 4 5 6 
#
# 1 0.014118 -0.000573 -0.003334 0.000000 0.000000 0.000000
# 2 -0.000573 0.024067 -0.002382 0.000000 0.000000 0.000000
# 3 -0.003334 -0.002382 0.005563 0.000000 0.000000 0.000000
# 4 0.000000 0.000000 0.000000 0.075767 0.000000 0.000000
# 5 0.000000 0.000000 0.000000 0.000000 0.045639 0.000000
# 6 0.000000 0.000000 0.000000 0.000000 0.000000 -0.008123
#
#
# Mechanical properties :
#
#
# Convention : Reuss Voigt Hill
#
# Bulk Modulus (GPa) = 32.08225 57.42797 44.75511
# Shear Modulus (GPa) = 27.77809 0.10768 13.94289
#
# Velocity S-wave (km/s) = 3.48478 0.21697 2.46888
# Velocity P-wave (km/s) = 5.49698 5.01681 5.26238
#
# Compressibility (1/GPa) = 0.03116989
#
# Stress axis : x y z
#
# Youngs Moduli (GPa) = 70.83158 41.55131 179.76164
#
# Poissons Ratio (x) = 0.02382 0.59933
# Poissons Ratio (y) = 0.04060 0.42812
# Poissons Ratio (z) = 0.23616 0.09896
#
# Static dielectric constant tensor:
#      x y z
#    x 2.000530 0.000000 0.000000 
#    y 0.000000 1.891030 0.000000 
#    z 0.000000 0.000000 1.897550 
# 
# From -- ./inp_files/41821.got.cif
#   From: 2010.05.17/outbox.cif.g08.bks.cpg/sg69_21_cif.got.tgz:41821.got - 2010.06.03 19:29:58.
