data_PCOD9513628
_publ_section_title
;
Structure prediction by ZEFSAII (Michael W. Deem and Ramdas Pophale) SiO2 
 PCOD9513628
Probable space group: F M M M
;
_chemical_formula_sum "Si O2"
_cell_formula_units_Z 224
_cell_length_a 31.643278
_cell_length_b 21.304303
_cell_length_c 18.374258
_cell_angle_alpha 90.000000
_cell_angle_beta 90.000000
_cell_angle_gamma 90.000000
_cell_volume 12386.785217
_symmetry_space_group_name_H-M "F M M M"
_symmetry_group_IT_number 69
_symmetry_cell_setting 'orthorhombic'
loop_
_space_group_symop_operation_xyz
x,y,z
-x,-y,z
x,-y,-z
-x,y,-z
-x,-y,-z
x,y,-z
-x,y,z
x,-y,z
x,1/2+y,1/2+z
-x,1/2-y,1/2+z
x,1/2-y,1/2-z
-x,1/2+y,1/2-z
-x,1/2-y,1/2-z
x,1/2+y,1/2-z
-x,1/2+y,1/2+z
x,1/2-y,1/2+z
1/2+x,y,1/2+z
1/2-x,-y,1/2+z
1/2+x,-y,1/2-z
1/2-x,y,1/2-z
1/2-x,-y,1/2-z
1/2+x,y,1/2-z
1/2-x,y,1/2+z
1/2+x,-y,1/2+z
1/2+x,1/2+y,z
1/2-x,1/2-y,z
1/2+x,1/2-y,-z
1/2-x,1/2+y,-z
1/2-x,1/2-y,-z
1/2+x,1/2+y,-z
1/2-x,1/2+y,z
1/2+x,1/2-y,z
loop_
_atom_site_type_symbol
_atom_site_label
_atom_site_fract_x
_atom_site_fract_y
_atom_site_fract_z
Si Si1 0.578358 0.652231 0.086391
Si Si2 0.790226 0.295481 0.085799
Si Si3 0.911175 0.116633 0.350554
Si Si4 0.322521 0.429668 0.586777
Si Si5 0.127060 0.247223 0.336766
Si Si6 0.500000 0.116347 0.086837
Si Si7 0.549257 0.573463 0.208108
Si Si8 0.500000 0.741625 0.087281
O O1 0.617219 0.687596 0.123335
O O2 0.565690 0.589259 0.127754
O O3 0.540274 0.700031 0.105419
O O4 0.582186 0.646037 0.000000
O O5 0.750000 0.250000 0.095516
O O6 0.790348 0.371240 0.099868
O O7 0.826206 0.271606 0.139626
O O8 0.802627 0.288938 0.000000
O O9 0.867799 0.083320 0.374770
O O10 0.902283 0.190066 0.366752
O O11 0.921446 0.109057 0.265591
O O12 0.954409 0.091005 0.387367
O O13 0.330713 0.429108 0.500000
O O14 0.307513 0.500000 0.606414
O O15 0.121975 0.250000 0.250000
O O16 0.500000 0.188157 0.116879
O O17 0.500000 0.114798 0.000000
O O18 0.500000 0.592288 0.216053
O O19 0.551811 0.500000 0.223400
O O20 0.500000 0.748753 0.000000
#
# Coordination Sequence:
#
# PCOD9513628 Si02
#       8
#    32  32  32  32  32  16  32  16
#     4  11  21  35  53  76 105 137 184 238 283 331
#     4   9  19  36  58  85 114 142 174 219 272 326
#     4  11  20  33  50  75 112 148 189 231 278 329
#     4   9  18  33  54  80 111 149 189 223 264 329
#     4  11  21  33  56  85 108 137 172 220 284 343
#     4  11  20  29  47  76 113 151 187 233 283 331
#     4  11  23  36  50  69  99 147 199 241 280 321
#     4   9  18  29  45  70 100 134 173 222 280 327
#
# _framework density 18.083787999999998
#
# number of rings (size 3 to 8) (size 9 to 14) (size 15 to 20)
#    0.000    1.714    4.286    1.286    0.000    1.714 
#    0.000    2.857    0.000    2.571    0.000    4.000 
#    0.000    0.000    0.000    0.000    0.000    0.000 
#
# Total GULP energy -311894.985362 kJ/mol
# GULP energy per Si atom -5569.553310 kJ/mol
# Density = 1.804263 g / cm^3
# Si number density = 18.083788 Si / 1000 Ang^3
#
#
#
# Elastic Constant Matrix: (Units=GPa)
#
#
# Indices 1 2 3 4 5 6 
#
# 1 53.0754 37.4908 19.3649 0.0000 0.0000 0.0000
# 2 37.4908 73.5044 11.7559 0.0000 0.0000 0.0000
# 3 19.3649 11.7559 52.6275 0.0000 0.0000 0.0000
# 4 0.0000 0.0000 0.0000 20.1390 0.0000 0.0000
# 5 0.0000 0.0000 0.0000 0.0000 22.2819 0.0000
# 6 0.0000 0.0000 0.0000 0.0000 0.0000 22.3402
#
#
#
# Elastic Compliance Matrix: (Units=1/GPa)
#
#
# Indices 1 2 3 4 5 6 
#
# 1 0.032861 -0.015376 -0.008657 0.000000 0.000000 0.000000
# 2 -0.015376 0.021303 0.000899 0.000000 0.000000 0.000000
# 3 -0.008657 0.000899 0.021986 0.000000 0.000000 0.000000
# 4 0.000000 0.000000 0.000000 0.049655 0.000000 0.000000
# 5 0.000000 0.000000 0.000000 0.000000 0.044880 0.000000
# 6 0.000000 0.000000 0.000000 0.000000 0.000000 0.044762
#
#
# Mechanical properties :
#
#
# Convention : Reuss Voigt Hill
#
# Bulk Modulus (GPa) = 33.46436 35.15896 34.31166
# Shear Modulus (GPa) = 18.40430 20.32526 19.36478
#
# Velocity S-wave (km/s) = 3.19364 3.35617 3.27591
# Velocity P-wave (km/s) = 5.66961 5.87392 5.77267
#
# Compressibility (1/GPa) = 0.02988254
#
# Stress axis : x y z
#
# Youngs Moduli (GPa) = 30.43132 46.94083 45.48339
#
# Poissons Ratio (x) = 0.72177 0.39374
# Poissons Ratio (y) = 0.46792 -0.04089
# Poissons Ratio (z) = 0.26344 -0.04220
#
# Static dielectric constant tensor:
#      x y z
#    x 1.698040 0.000000 0.000000 
#    y 0.000000 1.645430 0.000000 
#    z 0.000000 0.000000 1.618500 
# 
# From -- ./inp_files/27974.got.cif
#   From: 2010.05.17/outbox.cif.g08.bks.cpg/sg69_14_cif.got.tgz:27974.got - 2010.06.03 19:29:58.
