data_PCOD9513804
_publ_section_title
;
Structure prediction by ZEFSAII (Michael W. Deem and Ramdas Pophale) SiO2 
 PCOD9513804
Probable space group: F M M M
;
_chemical_formula_sum "Si O2"
_cell_formula_units_Z 128
_cell_length_a 18.855055
_cell_length_b 20.335203
_cell_length_c 17.525527
_cell_angle_alpha 90.000000
_cell_angle_beta 90.000000
_cell_angle_gamma 90.000000
_cell_volume 6719.661590
_symmetry_space_group_name_H-M "F M M M"
_symmetry_group_IT_number 69
_symmetry_cell_setting 'orthorhombic'
loop_
_space_group_symop_operation_xyz
x,y,z
-x,-y,z
x,-y,-z
-x,y,-z
-x,-y,-z
x,y,-z
-x,y,z
x,-y,z
x,1/2+y,1/2+z
-x,1/2-y,1/2+z
x,1/2-y,1/2-z
-x,1/2+y,1/2-z
-x,1/2-y,1/2-z
x,1/2+y,1/2-z
-x,1/2+y,1/2+z
x,1/2-y,1/2+z
1/2+x,y,1/2+z
1/2-x,-y,1/2+z
1/2+x,-y,1/2-z
1/2-x,y,1/2-z
1/2-x,-y,1/2-z
1/2+x,y,1/2-z
1/2-x,y,1/2+z
1/2+x,-y,1/2+z
1/2+x,1/2+y,z
1/2-x,1/2-y,z
1/2+x,1/2-y,-z
1/2-x,1/2+y,-z
1/2-x,1/2-y,-z
1/2+x,1/2+y,-z
1/2-x,1/2+y,z
1/2+x,1/2-y,z
loop_
_atom_site_type_symbol
_atom_site_label
_atom_site_fract_x
_atom_site_fract_y
_atom_site_fract_z
Si Si1 0.108380 0.000000 0.587778
Si Si2 0.335192 0.246211 0.586715
Si Si3 0.220974 0.500000 0.408545
Si Si4 0.180036 0.624367 0.695521
Si Si5 0.580042 0.864547 0.166204
O O1 0.193768 0.000000 0.597309
O O2 0.079907 0.067211 0.621564
O O3 0.091709 0.000000 0.500000
O O4 0.361915 0.236049 0.500000
O O5 0.250000 0.250000 0.581576
O O6 0.342952 0.186086 0.644470
O O7 0.371175 0.310900 0.622754
O O8 0.203252 0.500000 0.500000
O O9 0.194517 0.436145 0.361782
O O10 0.250000 0.634808 0.750000
O O11 0.116264 0.616043 0.754344
O O12 0.500000 0.838992 0.174399
#
# Coordination Sequence:
#
# PCOD9513804 Si02
#       5
#    16  32  16  32  32
#     4  11  22  40  64  94 133 170 211 267 330 388
#     4  11  23  40  63  92 126 170 218 260 314 384
#     4  11  22  40  69 103 129 165 223 270 317 386
#     4  12  22  40  67  93 128 171 213 269 320 380
#     4  12  26  41  64  97 132 172 217 268 331 395
#
# _framework density 19.048577000000002
#
# number of rings (size 3 to 8) (size 9 to 14) (size 15 to 20)
#    0.000    0.500    5.000    3.750    0.000    8.500 
#    0.000    0.000    0.000    3.000    0.000    0.000 
#    0.000    0.000    0.000    0.000    0.000    0.000 
#
# Total GULP energy -178688.799459 kJ/mol
# GULP energy per Si atom -5584.024983 kJ/mol
# Density = 1.900522 g / cm^3
# Si number density = 19.048577 Si / 1000 Ang^3
#
#
#
# Elastic Constant Matrix: (Units=GPa)
#
#
# Indices 1 2 3 4 5 6 
#
# 1 105.5482 39.5219 54.1274 0.0000 0.0000 0.0000
# 2 39.5219 137.6451 69.3773 0.0000 0.0000 0.0000
# 3 54.1274 69.3773 158.7520 0.0000 0.0000 0.0000
# 4 0.0000 0.0000 0.0000 102.5727 0.0000 0.0000
# 5 0.0000 0.0000 0.0000 0.0000 -110.0061 0.0000
# 6 0.0000 0.0000 0.0000 0.0000 0.0000 57.7247
#
#
#
# Elastic Compliance Matrix: (Units=1/GPa)
#
#
# Indices 1 2 3 4 5 6 
#
# 1 0.011800 -0.001745 -0.003261 0.000000 0.000000 0.000000
# 2 -0.001745 0.009575 -0.003590 0.000000 0.000000 0.000000
# 3 -0.003261 -0.003590 0.008980 0.000000 0.000000 0.000000
# 4 0.000000 0.000000 0.000000 0.009749 0.000000 0.000000
# 5 0.000000 0.000000 0.000000 0.000000 -0.009090 0.000000
# 6 0.000000 0.000000 0.000000 0.000000 0.000000 0.017324
#
#
# Mechanical properties :
#
#
# Convention : Reuss Voigt Hill
#
# Bulk Modulus (GPa) = 75.96122 80.88871 78.42497
# Shear Modulus (GPa) = 71.51475 25.98617 48.75046
#
# Velocity S-wave (km/s) = 6.13391 3.69752 5.06441
# Velocity P-wave (km/s) = 9.49372 7.79651 8.68666
#
# Compressibility (1/GPa) = 0.01316461
#
# Stress axis : x y z
#
# Youngs Moduli (GPa) = 84.74727 104.43517 111.36195
#
# Poissons Ratio (x) = 0.18219 0.36313
# Poissons Ratio (y) = 0.14784 0.39976
# Poissons Ratio (z) = 0.27635 0.37490
#
# Static dielectric constant tensor:
#      x y z
#    x 1.698450 0.000000 0.000000 
#    y 0.000000 1.617990 0.000000 
#    z 0.000000 0.000000 1.669230 
# 
# From -- ./inp_files/16327.got.cif
#   From: 2010.05.17/outbox.cif.g08.bks.cpg/sg69_9_cif.got.tgz:16327.got - 2010.06.03 19:29:58.
