data_PCOD9513798
_publ_section_title
;
Structure prediction by ZEFSAII (Michael W. Deem and Ramdas Pophale) SiO2 
 PCOD9513798
Probable space group: F M M M
;
_chemical_formula_sum "Si O2"
_cell_formula_units_Z 160
_cell_length_a 22.008505
_cell_length_b 16.831064
_cell_length_c 22.173170
_cell_angle_alpha 90.000000
_cell_angle_beta 90.000000
_cell_angle_gamma 90.000000
_cell_volume 8213.531003
_symmetry_space_group_name_H-M "F M M M"
_symmetry_group_IT_number 69
_symmetry_cell_setting 'orthorhombic'
loop_
_space_group_symop_operation_xyz
x,y,z
-x,-y,z
x,-y,-z
-x,y,-z
-x,-y,-z
x,y,-z
-x,y,z
x,-y,z
x,1/2+y,1/2+z
-x,1/2-y,1/2+z
x,1/2-y,1/2-z
-x,1/2+y,1/2-z
-x,1/2-y,1/2-z
x,1/2+y,1/2-z
-x,1/2+y,1/2+z
x,1/2-y,1/2+z
1/2+x,y,1/2+z
1/2-x,-y,1/2+z
1/2+x,-y,1/2-z
1/2-x,y,1/2-z
1/2-x,-y,1/2-z
1/2+x,y,1/2-z
1/2-x,y,1/2+z
1/2+x,-y,1/2+z
1/2+x,1/2+y,z
1/2-x,1/2-y,z
1/2+x,1/2-y,-z
1/2-x,1/2+y,-z
1/2-x,1/2-y,-z
1/2+x,1/2+y,-z
1/2-x,1/2+y,z
1/2+x,1/2-y,z
loop_
_atom_site_type_symbol
_atom_site_label
_atom_site_fract_x
_atom_site_fract_y
_atom_site_fract_z
Si Si1 0.258738 0.845729 0.065662
Si Si2 0.000000 0.595736 0.071926
Si Si3 0.322177 0.406328 0.748738
Si Si4 0.879261 0.667175 0.869862
Si Si5 0.069225 0.094732 0.000000
Si Si6 0.362874 0.643648 0.124450
O O1 0.250000 0.750000 0.064100
O O2 0.326433 0.862135 0.085155
O O3 0.207619 0.874622 0.110066
O O4 0.245678 0.878313 0.000000
O O5 0.058269 0.632592 0.105425
O O6 0.000000 0.500000 0.077275
O O7 0.000000 0.615190 0.000000
O O8 0.319853 0.500000 0.736140
O O9 0.250000 0.379160 0.750000
O O10 0.357064 0.361989 0.695116
O O11 0.363735 0.393003 0.808662
O O12 0.877042 0.762803 0.870112
O O13 0.101287 0.118066 0.936411
O O14 0.000000 0.126671 0.000000
O O15 0.067116 0.000000 0.000000
#
# Coordination Sequence:
#
# PCOD9513798 Si02
#       6
#    32  16  32  32  16  32
#     4   9  17  32  57  95 126 156 205 272 330 369
#     4  11  26  46  65  94 138 181 220 271 331 397
#     4  11  23  41  64  95 137 178 215 269 339 398
#     4  11  23  39  68  94 128 171 224 272 328 387
#     4  11  26  46  65  94 136 175 212 265 333 398
#     4  11  22  39  68  97 127 165 219 276 326 385
#
# _framework density 19.480051
#
# number of rings (size 3 to 8) (size 9 to 14) (size 15 to 20)
#    0.000    1.400    3.000    2.400    4.200    0.800 
#    1.800    1.000    0.000    0.000    0.000    0.000 
#    0.000    0.000    0.000    0.000    0.000    0.000 
#
# Total GULP energy -222935.172368 kJ/mol
# GULP energy per Si atom -5573.379309 kJ/mol
# Density = 1.943571 g / cm^3
# Si number density = 19.480051 Si / 1000 Ang^3
#
#
#
# Elastic Constant Matrix: (Units=GPa)
#
#
# Indices 1 2 3 4 5 6 
#
# 1 155.1860 39.7730 56.0282 0.0000 0.0000 0.0000
# 2 39.7730 68.2186 44.2673 0.0000 0.0000 0.0000
# 3 56.0282 44.2673 141.5015 0.0000 0.0000 0.0000
# 4 0.0000 0.0000 0.0000 18.6079 0.0000 0.0000
# 5 0.0000 0.0000 0.0000 0.0000 30.0422 0.0000
# 6 0.0000 0.0000 0.0000 0.0000 0.0000 20.2022
#
#
#
# Elastic Compliance Matrix: (Units=1/GPa)
#
#
# Indices 1 2 3 4 5 6 
#
# 1 0.008071 -0.003302 -0.002163 0.000000 0.000000 0.000000
# 2 -0.003302 0.019744 -0.004869 0.000000 0.000000 0.000000
# 3 -0.002163 -0.004869 0.009447 0.000000 0.000000 0.000000
# 4 0.000000 0.000000 0.000000 0.053741 0.000000 0.000000
# 5 0.000000 0.000000 0.000000 0.000000 0.033286 0.000000
# 6 0.000000 0.000000 0.000000 0.000000 0.000000 0.049500
#
#
# Mechanical properties :
#
#
# Convention : Reuss Voigt Hill
#
# Bulk Modulus (GPa) = 60.26527 71.67145 65.96836
# Shear Modulus (GPa) = 25.00162 28.75963 26.88063
#
# Velocity S-wave (km/s) = 3.58641 3.84652 3.71874
# Velocity P-wave (km/s) = 6.93930 7.52328 7.23718
#
# Compressibility (1/GPa) = 0.01659331
#
# Stress axis : x y z
#
# Youngs Moduli (GPa) = 123.89988 50.64941 105.85797
#
# Poissons Ratio (x) = 0.16726 0.22894
# Poissons Ratio (y) = 0.40914 0.51543
# Poissons Ratio (z) = 0.26796 0.24661
#
# Static dielectric constant tensor:
#      x y z
#    x 1.682760 0.000000 0.000000 
#    y 0.000000 1.669640 0.000000 
#    z 0.000000 0.000000 1.731760 
# 
# From -- ./inp_files/31764.got.cif
#   From: 2010.05.17/outbox.cif.g08.bks.cpg/sg69_16_cif.got.tgz:31764.got - 2010.06.03 19:29:58.
