data_PCOD9513895
_publ_section_title
;
Structure prediction by ZEFSAII (Michael W. Deem and Ramdas Pophale) SiO2 
 PCOD9513895
Probable space group: F M M M
;
_chemical_formula_sum "Si O2"
_cell_formula_units_Z 100
_cell_length_a 13.861320
_cell_length_b 15.186079
_cell_length_c 24.390628
_cell_angle_alpha 90.000000
_cell_angle_beta 90.000000
_cell_angle_gamma 90.000000
_cell_volume 5134.205256
_symmetry_space_group_name_H-M "F M M M"
_symmetry_group_IT_number 69
_symmetry_cell_setting 'orthorhombic'
loop_
_space_group_symop_operation_xyz
x,y,z
-x,-y,z
x,-y,-z
-x,y,-z
-x,-y,-z
x,y,-z
-x,y,z
x,-y,z
x,1/2+y,1/2+z
-x,1/2-y,1/2+z
x,1/2-y,1/2-z
-x,1/2+y,1/2-z
-x,1/2-y,1/2-z
x,1/2+y,1/2-z
-x,1/2+y,1/2+z
x,1/2-y,1/2+z
1/2+x,y,1/2+z
1/2-x,-y,1/2+z
1/2+x,-y,1/2-z
1/2-x,y,1/2-z
1/2-x,-y,1/2-z
1/2+x,y,1/2-z
1/2-x,y,1/2+z
1/2+x,-y,1/2+z
1/2+x,1/2+y,z
1/2-x,1/2-y,z
1/2+x,1/2-y,-z
1/2-x,1/2+y,-z
1/2-x,1/2-y,-z
1/2+x,1/2+y,-z
1/2-x,1/2+y,z
1/2+x,1/2-y,z
loop_
_atom_site_type_symbol
_atom_site_label
_atom_site_fract_x
_atom_site_fract_y
_atom_site_fract_z
Si Si1 0.500000 0.149042 0.770855
Si Si2 0.640198 0.500000 0.771274
Si Si3 0.000000 0.393100 0.102606
Si Si4 0.658071 0.500000 0.898823
Si Si5 0.000000 0.000000 0.000000
Si Si6 0.289502 0.344885 0.435536
O O1 0.500000 0.250000 0.750000
O O2 0.410074 0.088841 0.751401
O O3 0.500000 0.145362 0.836408
O O4 0.750000 0.500000 0.750000
O O5 0.621248 0.500000 0.836607
O O6 0.902592 0.359652 0.074097
O O7 0.000000 0.500000 0.103861
O O8 0.727597 0.416511 0.904244
O O9 0.583662 0.500000 0.950063
O O10 0.270149 0.355738 0.500000
O O11 0.250000 0.250000 0.418833
#
# Coordination Sequence:
#
# PCOD9513895 Si02
#       6
#    16  16  16  16   4  32
#     4  11  26  46  64 103 134 169 234 275 340 406
#     4  11  24  47  70  98 134 182 227 283 338 409
#     4  12  23  45  76  94 136 181 218 294 336 391
#     4  12  24  44  68  96 141 186 226 279 343 416
#     4  12  24  40  68  94 144 190 220 274 364 394
#     4  11  25  44  67 105 135 172 234 270 339 415
#
# _framework density 19.477212000000002
#
# number of rings (size 3 to 8) (size 9 to 14) (size 15 to 20)
#    0.000    0.640    4.800    3.360    4.480    2.560 
#    0.000    0.000    0.000    0.000    0.000    0.000 
#    0.000    0.000    0.000    0.000    0.000    0.000 
#
# Total GULP energy -139392.404587 kJ/mol
# GULP energy per Si atom -5575.696183 kJ/mol
# Density = 1.943288 g / cm^3
# Si number density = 19.477212 Si / 1000 Ang^3
#
#
#
# Elastic Constant Matrix: (Units=GPa)
#
#
# Indices 1 2 3 4 5 6 
#
# 1 119.7719 28.2669 -11.6577 0.0000 0.0000 0.0000
# 2 28.2669 140.3302 5.6649 0.0000 0.0000 0.0000
# 3 -11.6577 5.6649 56.1261 0.0000 0.0000 0.0000
# 4 0.0000 0.0000 0.0000 50.5511 0.0000 0.0000
# 5 0.0000 0.0000 0.0000 0.0000 50.3287 0.0000
# 6 0.0000 0.0000 0.0000 0.0000 0.0000 58.0994
#
#
#
# Elastic Compliance Matrix: (Units=1/GPa)
#
#
# Indices 1 2 3 4 5 6 
#
# 1 0.008997 -0.001895 0.002060 0.000000 0.000000 0.000000
# 2 -0.001895 0.007555 -0.001156 0.000000 0.000000 0.000000
# 3 0.002060 -0.001156 0.018362 0.000000 0.000000 0.000000
# 4 0.000000 0.000000 0.000000 0.019782 0.000000 0.000000
# 5 0.000000 0.000000 0.000000 0.000000 0.019869 0.000000
# 6 0.000000 0.000000 0.000000 0.000000 0.000000 0.017212
#
#
# Mechanical properties :
#
#
# Convention : Reuss Voigt Hill
#
# Bulk Modulus (GPa) = 30.36744 40.08626 35.22685
# Shear Modulus (GPa) = 47.73899 51.39280 49.56590
#
# Velocity S-wave (km/s) = 4.95615 5.14231 5.05009
# Velocity P-wave (km/s) = 6.95531 7.47554 7.22011
#
# Compressibility (1/GPa) = 0.03293000
#
# Stress axis : x y z
#
# Youngs Moduli (GPa) = 111.14751 132.37097 54.46150
#
# Poissons Ratio (x) = 0.25090 -0.11219
# Poissons Ratio (y) = 0.21067 0.06297
# Poissons Ratio (z) = -0.22897 0.15305
#
# Static dielectric constant tensor:
#      x y z
#    x 1.626380 0.000000 0.000000 
#    y 0.000000 1.638140 0.000000 
#    z 0.000000 0.000000 1.658260 
# 
# From -- ./inp_files/17213.got.cif
#   From: 2010.05.17/outbox.cif.g08.bks.cpg/sg69_9_cif.got.tgz:17213.got - 2010.06.03 19:29:58.
