data_PCOD9513545
_publ_section_title
;
Structure prediction by ZEFSAII (Michael W. Deem and Ramdas Pophale) SiO2 
 PCOD9513545
Probable space group: F M M M
;
_chemical_formula_sum "Si O2"
_cell_formula_units_Z 116
_cell_length_a 8.643494
_cell_length_b 25.155629
_cell_length_c 29.416863
_cell_angle_alpha 90.000000
_cell_angle_beta 90.000000
_cell_angle_gamma 90.000000
_cell_volume 6396.182898
_symmetry_space_group_name_H-M "F M M M"
_symmetry_group_IT_number 69
_symmetry_cell_setting 'orthorhombic'
loop_
_space_group_symop_operation_xyz
x,y,z
-x,-y,z
x,-y,-z
-x,y,-z
-x,-y,-z
x,y,-z
-x,y,z
x,-y,z
x,1/2+y,1/2+z
-x,1/2-y,1/2+z
x,1/2-y,1/2-z
-x,1/2+y,1/2-z
-x,1/2-y,1/2-z
x,1/2+y,1/2-z
-x,1/2+y,1/2+z
x,1/2-y,1/2+z
1/2+x,y,1/2+z
1/2-x,-y,1/2+z
1/2+x,-y,1/2-z
1/2-x,y,1/2-z
1/2-x,-y,1/2-z
1/2+x,y,1/2-z
1/2-x,y,1/2+z
1/2+x,-y,1/2+z
1/2+x,1/2+y,z
1/2-x,1/2-y,z
1/2+x,1/2-y,-z
1/2-x,1/2+y,-z
1/2-x,1/2-y,-z
1/2+x,1/2+y,-z
1/2-x,1/2+y,z
1/2+x,1/2-y,z
loop_
_atom_site_type_symbol
_atom_site_label
_atom_site_fract_x
_atom_site_fract_y
_atom_site_fract_z
Si Si1 0.828871 0.500000 0.096874
Si Si2 0.185776 0.694135 0.551618
Si Si3 0.000000 0.500000 0.000000
Si Si4 0.685693 0.610903 0.873279
Si Si5 0.685334 0.192724 0.198913
O O1 0.865933 0.500000 0.042053
O O2 0.742713 0.447874 0.115110
O O3 0.000000 0.500000 0.118015
O O4 0.241498 0.686771 0.500000
O O5 0.250000 0.750000 0.568606
O O6 0.233284 0.646293 0.583300
O O7 0.000000 0.696785 0.551199
O O8 0.500000 0.611538 0.868678
O O9 0.757613 0.643060 0.831053
O O10 0.500000 0.195198 0.199306
O O11 0.750000 0.186992 0.250000
O O12 0.750000 0.250000 0.181763
#
# Coordination Sequence:
#
# PCOD9513545 Si02
#       5
#    16  32   4  32  32
#     4  10  23  41  60  86 116 159 205 254 304 353
#     4   9  19  33  50  77 110 146 186 232 288 351
#     4   8  24  44  62  84 124 156 218 260 300 354
#     4  11  22  38  60  86 118 156 204 254 305 367
#     4  11  22  39  63  93 126 163 203 251 306 368
#
# _framework density 18.135815999999998
#
# number of rings (size 3 to 8) (size 9 to 14) (size 15 to 20)
#    0.414    1.379    0.000    5.379    1.931    4.414 
#    0.000    1.379    0.000    0.000    0.000    0.000 
#    0.000    0.000    0.000    0.000    0.000    0.000 
#
# Total GULP energy -161494.294364 kJ/mol
# GULP energy per Si atom -5568.768771 kJ/mol
# Density = 1.809454 g / cm^3
# Si number density = 18.135816 Si / 1000 Ang^3
#
#
#
# Elastic Constant Matrix: (Units=GPa)
#
#
# Indices 1 2 3 4 5 6 
#
# 1 98.9301 59.7664 48.3641 0.0000 0.0000 0.0000
# 2 59.7664 184.5298 83.5126 0.0000 0.0000 0.0000
# 3 48.3641 83.5126 105.7769 0.0000 0.0000 0.0000
# 4 0.0000 0.0000 0.0000 17.8131 0.0000 0.0000
# 5 0.0000 0.0000 0.0000 0.0000 17.0754 0.0000
# 6 0.0000 0.0000 0.0000 0.0000 0.0000 33.9519
#
#
#
# Elastic Compliance Matrix: (Units=1/GPa)
#
#
# Indices 1 2 3 4 5 6 
#
# 1 0.013719 -0.002497 -0.004302 0.000000 0.000000 0.000000
# 2 -0.002497 0.008886 -0.005874 0.000000 0.000000 0.000000
# 3 -0.004302 -0.005874 0.016059 0.000000 0.000000 0.000000
# 4 0.000000 0.000000 0.000000 0.056138 0.000000 0.000000
# 5 0.000000 0.000000 0.000000 0.000000 0.058564 0.000000
# 6 0.000000 0.000000 0.000000 0.000000 0.000000 0.029453
#
#
# Mechanical properties :
#
#
# Convention : Reuss Voigt Hill
#
# Bulk Modulus (GPa) = 75.08146 85.83591 80.45868
# Shear Modulus (GPa) = 23.51774 26.94099 25.22936
#
# Velocity S-wave (km/s) = 3.60496 3.85842 3.73384
# Velocity P-wave (km/s) = 7.66923 8.20257 7.94038
#
# Compressibility (1/GPa) = 0.01331887
#
# Stress axis : x y z
#
# Youngs Moduli (GPa) = 72.88914 112.53156 62.27163
#
# Poissons Ratio (x) = 0.28096 0.26788
# Poissons Ratio (y) = 0.18198 0.36581
# Poissons Ratio (z) = 0.31355 0.66106
#
# Static dielectric constant tensor:
#      x y z
#    x 1.619190 0.000000 0.000000 
#    y 0.000000 1.676630 0.000000 
#    z 0.000000 0.000000 1.640560 
# 
# From -- ./inp_files/5230.got.cif
#   From: 2010.05.17/outbox.cif.g08.bks.cpg/sg69_3_cif.got.tgz:5230.got - 2010.06.03 19:29:58.
