data_PCOD9513852
_publ_section_title
;
Structure prediction by ZEFSAII (Michael W. Deem and Ramdas Pophale) SiO2 
 PCOD9513852
Probable space group: F M M M
;
_chemical_formula_sum "Si O2"
_cell_formula_units_Z 192
_cell_length_a 17.412568
_cell_length_b 18.162637
_cell_length_c 29.937713
_cell_angle_alpha 90.000000
_cell_angle_beta 90.000000
_cell_angle_gamma 90.000000
_cell_volume 9468.045783
_symmetry_space_group_name_H-M "F M M M"
_symmetry_group_IT_number 69
_symmetry_cell_setting 'orthorhombic'
loop_
_space_group_symop_operation_xyz
x,y,z
-x,-y,z
x,-y,-z
-x,y,-z
-x,-y,-z
x,y,-z
-x,y,z
x,-y,z
x,1/2+y,1/2+z
-x,1/2-y,1/2+z
x,1/2-y,1/2-z
-x,1/2+y,1/2-z
-x,1/2-y,1/2-z
x,1/2+y,1/2-z
-x,1/2+y,1/2+z
x,1/2-y,1/2+z
1/2+x,y,1/2+z
1/2-x,-y,1/2+z
1/2+x,-y,1/2-z
1/2-x,y,1/2-z
1/2-x,-y,1/2-z
1/2+x,y,1/2-z
1/2-x,y,1/2+z
1/2+x,-y,1/2+z
1/2+x,1/2+y,z
1/2-x,1/2-y,z
1/2+x,1/2-y,-z
1/2-x,1/2+y,-z
1/2-x,1/2-y,-z
1/2+x,1/2+y,-z
1/2-x,1/2+y,z
1/2+x,1/2-y,z
loop_
_atom_site_type_symbol
_atom_site_label
_atom_site_fract_x
_atom_site_fract_y
_atom_site_fract_z
Si Si1 0.914656 0.324517 0.412435
Si Si2 0.585262 0.162625 0.741087
Si Si3 0.632320 0.087313 0.166609
Si Si4 0.194283 0.087490 0.500000
Si Si5 0.709935 0.331428 0.165068
Si Si6 0.415373 0.151962 0.073166
Si Si7 0.125970 0.412100 0.500000
O O1 0.845574 0.335409 0.377770
O O2 0.909699 0.239940 0.428183
O O3 0.907834 0.376740 0.455216
O O4 0.000000 0.333831 0.391871
O O5 0.500000 0.141871 0.724204
O O6 0.584366 0.250000 0.750000
O O7 0.600639 0.120756 0.787360
O O8 0.654814 0.151900 0.706875
O O9 0.721446 0.110408 0.163291
O O10 0.592983 0.125395 0.124033
O O11 0.621752 0.000000 0.165068
O O12 0.151016 0.118233 0.456802
O O13 0.283540 0.106917 0.500000
O O14 0.188238 0.000000 0.500000
O O15 0.750000 0.250000 0.168329
O O16 0.500000 0.129954 0.056589
O O17 0.116379 0.500000 0.500000
#
# Coordination Sequence:
#
# PCOD9513852 Si02
#       7
#    32  32  32  16  32  32  16
#     4  11  24  43  69 100 130 171 226 273 331 406
#     4  11  23  41  67  96 130 176 227 272 330 407
#     4  12  26  42  66 100 137 176 224 282 345 405
#     4  11  24  39  60  92 130 176 224 269 329 402
#     4  12  23  42  69  97 130 176 218 279 335 395
#     4  11  23  41  64  95 134 176 223 277 335 404
#     4  11  26  45  68  98 137 177 224 285 341 388
#
# _framework density 20.278735999999999
#
# number of rings (size 3 to 8) (size 9 to 14) (size 15 to 20)
#    0.000    0.667    3.333    4.000    0.000   11.333 
#    0.000    0.000    0.000    3.000    0.000    0.000 
#    0.000    0.000    0.000    0.000    0.000    0.000 
#
# Total GULP energy -268564.930935 kJ/mol
# GULP energy per Si atom -5595.102728 kJ/mol
# Density = 2.023258 g / cm^3
# Si number density = 20.278736 Si / 1000 Ang^3
#
#
#
# Elastic Constant Matrix: (Units=GPa)
#
#
# Indices 1 2 3 4 5 6 
#
# 1 130.9440 32.9388 36.5588 0.0000 0.0000 0.0000
# 2 32.9388 72.2309 21.0024 0.0000 0.0000 0.0000
# 3 36.5588 21.0024 98.4094 0.0000 0.0000 0.0000
# 4 0.0000 0.0000 0.0000 114.0673 0.0000 0.0000
# 5 0.0000 0.0000 0.0000 0.0000 72.4791 0.0000
# 6 0.0000 0.0000 0.0000 0.0000 0.0000 90.7062
#
#
#
# Elastic Compliance Matrix: (Units=1/GPa)
#
#
# Indices 1 2 3 4 5 6 
#
# 1 0.009256 -0.003434 -0.002706 0.000000 0.000000 0.000000
# 2 -0.003434 0.016035 -0.002146 0.000000 0.000000 0.000000
# 3 -0.002706 -0.002146 0.011625 0.000000 0.000000 0.000000
# 4 0.000000 0.000000 0.000000 0.008767 0.000000 0.000000
# 5 0.000000 0.000000 0.000000 0.000000 0.013797 0.000000
# 6 0.000000 0.000000 0.000000 0.000000 0.000000 0.011025
#
#
# Mechanical properties :
#
#
# Convention : Reuss Voigt Hill
#
# Bulk Modulus (GPa) = 49.15653 53.62049 51.38851
# Shear Modulus (GPa) = 53.27215 69.52281 61.39748
#
# Velocity S-wave (km/s) = 5.13098 5.86157 5.50840
# Velocity P-wave (km/s) = 7.70686 8.50352 8.11497
#
# Compressibility (1/GPa) = 0.02034318
#
# Stress axis : x y z
#
# Youngs Moduli (GPa) = 108.03620 62.36487 86.02261
#
# Poissons Ratio (x) = 0.21418 0.23275
# Poissons Ratio (y) = 0.37103 0.18463
# Poissons Ratio (z) = 0.29231 0.13385
#
# Static dielectric constant tensor:
#      x y z
#    x 1.724470 0.000000 0.000000 
#    y 0.000000 1.673640 0.000000 
#    z 0.000000 0.000000 1.695330 
# 
# From -- ./inp_files/46402.got.cif
#   From: 2010.05.17/outbox.cif.g08.bks.cpg/sg69_24_cif.got.tgz:46402.got - 2010.06.03 19:29:58.
