data_PCOD9513848
_publ_section_title
;
Structure prediction by ZEFSAII (Michael W. Deem and Ramdas Pophale) SiO2 
 PCOD9513848
Probable space group: F M M M
;
_chemical_formula_sum "Si O2"
_cell_formula_units_Z 192
_cell_length_a 23.910767
_cell_length_b 15.326471
_cell_length_c 27.443690
_cell_angle_alpha 90.000000
_cell_angle_beta 90.000000
_cell_angle_gamma 90.000000
_cell_volume 10057.225323
_symmetry_space_group_name_H-M "F M M M"
_symmetry_group_IT_number 69
_symmetry_cell_setting 'orthorhombic'
loop_
_space_group_symop_operation_xyz
x,y,z
-x,-y,z
x,-y,-z
-x,y,-z
-x,-y,-z
x,y,-z
-x,y,z
x,-y,z
x,1/2+y,1/2+z
-x,1/2-y,1/2+z
x,1/2-y,1/2-z
-x,1/2+y,1/2-z
-x,1/2-y,1/2-z
x,1/2+y,1/2-z
-x,1/2+y,1/2+z
x,1/2-y,1/2+z
1/2+x,y,1/2+z
1/2-x,-y,1/2+z
1/2+x,-y,1/2-z
1/2-x,y,1/2-z
1/2-x,-y,1/2-z
1/2+x,y,1/2-z
1/2-x,y,1/2+z
1/2+x,-y,1/2+z
1/2+x,1/2+y,z
1/2-x,1/2-y,z
1/2+x,1/2-y,-z
1/2-x,1/2+y,-z
1/2-x,1/2-y,-z
1/2+x,1/2+y,-z
1/2-x,1/2+y,z
1/2+x,1/2-y,z
loop_
_atom_site_type_symbol
_atom_site_label
_atom_site_fract_x
_atom_site_fract_y
_atom_site_fract_z
Si Si1 0.250822 0.149563 0.630631
Si Si2 0.432820 0.815459 0.555750
Si Si3 0.364760 0.398637 0.185146
Si Si4 0.247772 0.500000 0.555918
Si Si5 0.349154 0.397832 0.700455
Si Si6 0.433639 0.263949 0.346128
Si Si7 0.386753 0.500000 0.944044
O O1 0.250000 0.250000 0.615358
O O2 0.311631 0.124019 0.651421
O O3 0.235488 0.085003 0.586641
O O4 0.206576 0.135568 0.673951
O O5 0.413078 0.799997 0.500000
O O6 0.500000 0.822100 0.554467
O O7 0.418637 0.743579 0.596237
O O8 0.409370 0.908136 0.574803
O O9 0.380685 0.500000 0.177149
O O10 0.345929 0.389336 0.241370
O O11 0.412908 0.327879 0.176247
O O12 0.266791 0.500000 0.500000
O O13 0.179945 0.500000 0.555682
O O14 0.356402 0.500000 0.689111
O O15 0.399797 0.340309 0.679874
O O16 0.500000 0.273833 0.341140
O O17 0.407533 0.500000 0.000000
#
# Coordination Sequence:
#
# PCOD9513848 Si02
#       7
#    32  32  32  16  32  32  16
#     4  12  23  39  67  94 122 159 206 257 305 362
#     4   9  18  33  55  84 118 158 203 248 294 355
#     4  11  23  40  65  93 124 158 200 256 317 374
#     4  11  24  41  59  90 131 161 195 246 305 375
#     4  11  24  42  64  88 120 163 212 257 305 360
#     4  11  24  39  60  91 128 164 204 254 308 367
#     4   9  17  30  53  83 118 156 189 231 301 371
#
# _framework density 19.090751999999998
#
# number of rings (size 3 to 8) (size 9 to 14) (size 15 to 20)
#    0.000    1.333    3.333    2.250    1.167    5.333 
#    0.000    2.500    0.000    0.000    0.000    2.333 
#    0.000    0.000    0.000    0.000    0.000    0.000 
#
# Total GULP energy -268168.683966 kJ/mol
# GULP energy per Si atom -5586.847583 kJ/mol
# Density = 1.904730 g / cm^3
# Si number density = 19.090752 Si / 1000 Ang^3
#
#
#
# Elastic Constant Matrix: (Units=GPa)
#
#
# Indices 1 2 3 4 5 6 
#
# 1 47.3080 14.2436 12.0502 0.0000 0.0000 0.0000
# 2 14.2436 111.9570 40.9523 0.0000 0.0000 0.0000
# 3 12.0502 40.9523 97.2626 0.0000 0.0000 0.0000
# 4 0.0000 0.0000 0.0000 16.3193 0.0000 0.0000
# 5 0.0000 0.0000 0.0000 0.0000 25.1467 0.0000
# 6 0.0000 0.0000 0.0000 0.0000 0.0000 16.3033
#
#
#
# Elastic Compliance Matrix: (Units=1/GPa)
#
#
# Indices 1 2 3 4 5 6 
#
# 1 0.022258 -0.002155 -0.001850 0.000000 0.000000 0.000000
# 2 -0.002155 0.010767 -0.004266 0.000000 0.000000 0.000000
# 3 -0.001850 -0.004266 0.012307 0.000000 0.000000 0.000000
# 4 0.000000 0.000000 0.000000 0.061277 0.000000 0.000000
# 5 0.000000 0.000000 0.000000 0.000000 0.039767 0.000000
# 6 0.000000 0.000000 0.000000 0.000000 0.000000 0.061337
#
#
# Mechanical properties :
#
#
# Convention : Reuss Voigt Hill
#
# Bulk Modulus (GPa) = 34.73578 43.44663 39.09121
# Shear Modulus (GPa) = 21.38099 24.17262 22.77680
#
# Velocity S-wave (km/s) = 3.35022 3.56222 3.45785
# Velocity P-wave (km/s) = 5.76193 6.30290 6.03848
#
# Compressibility (1/GPa) = 0.02878876
#
# Stress axis : x y z
#
# Youngs Moduli (GPa) = 44.92727 92.87870 81.25445
#
# Poissons Ratio (x) = 0.20015 0.15035
# Poissons Ratio (y) = 0.09682 0.34666
# Poissons Ratio (z) = 0.08313 0.39625
#
# Static dielectric constant tensor:
#      x y z
#    x 1.633800 0.000000 0.000000 
#    y 0.000000 1.654860 0.000000 
#    z 0.000000 0.000000 1.712090 
# 
# From -- ./inp_files/38394.got.cif
#   From: 2010.05.17/outbox.cif.g08.bks.cpg/sg69_20_cif.got.tgz:38394.got - 2010.06.03 19:29:58.
