data_PCOD9513718
_publ_section_title
;
Structure prediction by ZEFSAII (Michael W. Deem and Ramdas Pophale) SiO2 
 PCOD9513718
Probable space group: F M M M
;
_chemical_formula_sum "Si O2"
_cell_formula_units_Z 160
_cell_length_a 24.152204
_cell_length_b 23.865081
_cell_length_c 13.836171
_cell_angle_alpha 90.000000
_cell_angle_beta 90.000000
_cell_angle_gamma 90.000000
_cell_volume 7975.090164
_symmetry_space_group_name_H-M "F M M M"
_symmetry_group_IT_number 69
_symmetry_cell_setting 'orthorhombic'
loop_
_space_group_symop_operation_xyz
x,y,z
-x,-y,z
x,-y,-z
-x,y,-z
-x,-y,-z
x,y,-z
-x,y,z
x,-y,z
x,1/2+y,1/2+z
-x,1/2-y,1/2+z
x,1/2-y,1/2-z
-x,1/2+y,1/2-z
-x,1/2-y,1/2-z
x,1/2+y,1/2-z
-x,1/2+y,1/2+z
x,1/2-y,1/2+z
1/2+x,y,1/2+z
1/2-x,-y,1/2+z
1/2+x,-y,1/2-z
1/2-x,y,1/2-z
1/2-x,-y,1/2-z
1/2+x,y,1/2-z
1/2-x,y,1/2+z
1/2+x,-y,1/2+z
1/2+x,1/2+y,z
1/2-x,1/2-y,z
1/2+x,1/2-y,-z
1/2-x,1/2+y,-z
1/2-x,1/2-y,-z
1/2+x,1/2+y,-z
1/2-x,1/2+y,z
1/2+x,1/2-y,z
loop_
_atom_site_type_symbol
_atom_site_label
_atom_site_fract_x
_atom_site_fract_y
_atom_site_fract_z
Si Si1 0.936400 0.341466 0.890446
Si Si2 0.250000 0.605399 0.250000
Si Si3 0.704816 0.200017 0.612774
Si Si4 0.936614 0.567999 0.392668
Si Si5 0.111646 0.250000 0.750000
Si Si6 0.868584 0.435353 0.795976
O O1 0.923293 0.293723 0.812593
O O2 0.894572 0.392668 0.872262
O O3 0.000000 0.360599 0.879808
O O4 0.929142 0.320055 0.000000
O O5 0.268965 0.645706 0.162752
O O6 0.196963 0.570883 0.215618
O O7 0.692360 0.191828 0.500000
O O8 0.750000 0.250000 0.620690
O O9 0.651818 0.217953 0.675112
O O10 0.919986 0.587480 0.500000
O O11 0.937384 0.500000 0.395542
O O12 0.896412 0.582801 0.305972
O O13 0.000000 0.586307 0.374475
O O14 0.883313 0.500000 0.815276
#
# Coordination Sequence:
#
# PCOD9513718 Si02
#       6
#    32  16  32  32  16  32
#     4  11  25  44  68  99 134 170 213 268 326 392
#     4  12  22  40  56  92 132 171 221 268 322 372
#     4  11  21  37  64  94 126 168 216 266 325 395
#     4   8  15  31  56  84 114 152 202 259 314 365
#     4  12  20  44  68  98 126 163 209 270 334 396
#     4  11  23  40  63  90 129 178 223 267 314 379
#
# _framework density 20.062469
#
# number of rings (size 3 to 8) (size 9 to 14) (size 15 to 20)
#    0.000    1.400    4.000    2.400    0.000    4.800 
#    0.000    1.000    0.000    7.200    0.000    0.000 
#    0.000    0.000    0.000    0.000    0.000    0.000 
#
# Total GULP energy -223551.408316 kJ/mol
# GULP energy per Si atom -5588.785208 kJ/mol
# Density = 2.001681 g / cm^3
# Si number density = 20.062469 Si / 1000 Ang^3
#
#
#
# Elastic Constant Matrix: (Units=GPa)
#
#
# Indices 1 2 3 4 5 6 
#
# 1 93.9190 17.4194 31.4073 0.0000 0.0000 0.0000
# 2 17.4194 74.1836 25.8109 0.0000 0.0000 0.0000
# 3 31.4073 25.8109 110.3736 0.0000 0.0000 0.0000
# 4 0.0000 0.0000 0.0000 13.8043 0.0000 0.0000
# 5 0.0000 0.0000 0.0000 0.0000 2.8170 0.0000
# 6 0.0000 0.0000 0.0000 0.0000 0.0000 -2.2078
#
#
#
# Elastic Compliance Matrix: (Units=1/GPa)
#
#
# Indices 1 2 3 4 5 6 
#
# 1 0.011977 -0.001771 -0.002994 0.000000 0.000000 0.000000
# 2 -0.001771 0.014936 -0.002989 0.000000 0.000000 0.000000
# 3 -0.002994 -0.002989 0.010611 0.000000 0.000000 0.000000
# 4 0.000000 0.000000 0.000000 0.072441 0.000000 0.000000
# 5 0.000000 0.000000 0.000000 0.000000 0.354984 0.000000
# 6 0.000000 0.000000 0.000000 0.000000 0.000000 -0.452943
#
#
# Mechanical properties :
#
#
# Convention : Reuss Voigt Hill
#
# Bulk Modulus (GPa) = 45.42002 47.52792 46.47397
# Shear Modulus (GPa) = 143.46133 16.47194 79.96663
#
# Velocity S-wave (km/s) = 8.46537 2.86847 6.32023
# Velocity P-wave (km/s) = 10.87375 5.89171 8.74502
#
# Compressibility (1/GPa) = 0.02201672
#
# Stress axis : x y z
#
# Youngs Moduli (GPa) = 83.49244 66.95330 94.24122
#
# Poissons Ratio (x) = 0.11855 0.28216
# Poissons Ratio (y) = 0.14784 0.28168
# Poissons Ratio (z) = 0.24998 0.20012
#
# Static dielectric constant tensor:
#      x y z
#    x 1.702040 0.000000 0.000000 
#    y 0.000000 1.701160 0.000000 
#    z 0.000000 0.000000 1.704320 
# 
# From -- ./inp_files/17817.got.cif
#   From: 2010.05.17/outbox.cif.g08.bks.cpg/sg69_9_cif.got.tgz:17817.got - 2010.06.03 19:29:58.
