data_PCOD9513323
_publ_section_title
;
Structure prediction by ZEFSAII (Michael W. Deem and Ramdas Pophale) SiO2 
 PCOD9513323
Probable space group: F M M M
;
_chemical_formula_sum "Si O2"
_cell_formula_units_Z 132
_cell_length_a 21.781178
_cell_length_b 23.328320
_cell_length_c 13.382421
_cell_angle_alpha 90.000000
_cell_angle_beta 90.000000
_cell_angle_gamma 90.000000
_cell_volume 6799.852879
_symmetry_space_group_name_H-M "F M M M"
_symmetry_group_IT_number 69
_symmetry_cell_setting 'orthorhombic'
loop_
_space_group_symop_operation_xyz
x,y,z
-x,-y,z
x,-y,-z
-x,y,-z
-x,-y,-z
x,y,-z
-x,y,z
x,-y,z
x,1/2+y,1/2+z
-x,1/2-y,1/2+z
x,1/2-y,1/2-z
-x,1/2+y,1/2-z
-x,1/2-y,1/2-z
x,1/2+y,1/2-z
-x,1/2+y,1/2+z
x,1/2-y,1/2+z
1/2+x,y,1/2+z
1/2-x,-y,1/2+z
1/2+x,-y,1/2-z
1/2-x,y,1/2-z
1/2-x,-y,1/2-z
1/2+x,y,1/2-z
1/2-x,y,1/2+z
1/2+x,-y,1/2+z
1/2+x,1/2+y,z
1/2-x,1/2-y,z
1/2+x,1/2-y,-z
1/2-x,1/2+y,-z
1/2-x,1/2-y,-z
1/2+x,1/2+y,-z
1/2-x,1/2+y,z
1/2+x,1/2-y,z
loop_
_atom_site_type_symbol
_atom_site_label
_atom_site_fract_x
_atom_site_fract_y
_atom_site_fract_z
Si Si1 0.382461 0.393114 0.250079
Si Si2 0.500000 0.430698 0.119408
Si Si3 0.844309 0.204451 0.381487
Si Si4 0.373834 0.000000 0.110096
Si Si5 0.000000 0.500000 0.000000
Si Si6 0.296435 0.670568 0.882336
O O1 0.440799 0.408205 0.181197
O O2 0.389322 0.335545 0.317876
O O3 0.363974 0.443518 0.325422
O O4 0.326107 0.380661 0.176816
O O5 0.500000 0.500000 0.122671
O O6 0.500000 0.414367 0.000000
O O7 0.856627 0.198370 0.500000
O O8 0.774930 0.181922 0.361165
O O9 0.836501 0.271985 0.359709
O O10 0.446104 0.000000 0.084656
O O11 0.342799 0.000000 0.000000
O O12 0.300991 0.661637 0.000000
#
# Coordination Sequence:
#
# PCOD9513323 Si02
#       6
#    32  16  32  16   4  32
#     4  12  20  37  61  90 110 158 201 242 288 350
#     4  11  25  43  59  81 114 154 204 247 296 348
#     4   9  19  37  61  93 124 157 193 237 289 345
#     4  10  22  36  57  82 115 142 193 251 295 337
#     4   8  20  44  56  68 106 148 200 244 296 332
#     4   9  19  37  62  90 126 158 193 237 286 345
#
# _framework density 19.412184
#
# number of rings (size 3 to 8) (size 9 to 14) (size 15 to 20)
#    0.364    1.576    1.212    5.091    0.000    1.939 
#    0.000    4.848    0.000    5.818    3.152    0.000 
#    0.000    0.000    0.000    0.000    0.000    0.000 
#
# Total GULP energy -183790.161059 kJ/mol
# GULP energy per Si atom -5569.398820 kJ/mol
# Density = 1.936800 g / cm^3
# Si number density = 19.412184 Si / 1000 Ang^3
#
#
#
# Elastic Constant Matrix: (Units=GPa)
#
#
# Indices 1 2 3 4 5 6 
#
# 1 38.2586 41.9634 47.5104 0.0000 0.0000 0.0000
# 2 41.9634 85.8622 70.0436 0.0000 0.0000 0.0000
# 3 47.5104 70.0436 147.0926 0.0000 0.0000 0.0000
# 4 0.0000 0.0000 0.0000 -129.5338 0.0000 0.0000
# 5 0.0000 0.0000 0.0000 0.0000 38.8192 0.0000
# 6 0.0000 0.0000 0.0000 0.0000 0.0000 30.5781
#
#
#
# Elastic Compliance Matrix: (Units=1/GPa)
#
#
# Indices 1 2 3 4 5 6 
#
# 1 0.063332 -0.023326 -0.009348 0.000000 0.000000 0.000000
# 2 -0.023326 0.027636 -0.005626 0.000000 0.000000 0.000000
# 3 -0.009348 -0.005626 0.012497 0.000000 0.000000 0.000000
# 4 0.000000 0.000000 0.000000 -0.007720 0.000000 0.000000
# 5 0.000000 0.000000 0.000000 0.000000 0.025760 0.000000
# 6 0.000000 0.000000 0.000000 0.000000 0.000000 0.032703
#
#
# Mechanical properties :
#
#
# Convention : Reuss Voigt Hill
#
# Bulk Modulus (GPa) = 37.22404 65.58313 51.40358
# Shear Modulus (GPa) = 20.85397 -4.58091 8.13653
#
# Velocity S-wave (km/s) = 3.28117 -1.53783 2.04953
# Velocity P-wave (km/s) = 5.79413 5.54117 5.66906
#
# Compressibility (1/GPa) = 0.02686436
#
# Stress axis : x y z
#
# Youngs Moduli (GPa) = 15.78991 36.18490 80.02041
#
# Poissons Ratio (x) = 0.84404 0.74806
# Poissons Ratio (y) = 0.36831 0.45017
# Poissons Ratio (z) = 0.14761 0.20356
#
# Static dielectric constant tensor:
#      x y z
#    x 1.644000 0.000000 0.000000 
#    y 0.000000 1.713700 0.000000 
#    z 0.000000 0.000000 1.762100 
# 
# From -- ./inp_files/16395.got.cif
#   From: 2010.05.17/outbox.cif.g08.bks.cpg/sg69_9_cif.got.tgz:16395.got - 2010.06.03 19:29:58.
