data_PCOD9513953
_publ_section_title
;
Structure prediction by ZEFSAII (Michael W. Deem and Ramdas Pophale) SiO2 
 PCOD9513953
Probable space group: F M M M
;
_chemical_formula_sum "Si O2"
_cell_formula_units_Z 208
_cell_length_a 34.301200
_cell_length_b 20.247533
_cell_length_c 14.531912
_cell_angle_alpha 90.000000
_cell_angle_beta 90.000000
_cell_angle_gamma 90.000000
_cell_volume 10092.626197
_symmetry_space_group_name_H-M "F M M M"
_symmetry_group_IT_number 69
_symmetry_cell_setting 'orthorhombic'
loop_
_space_group_symop_operation_xyz
x,y,z
-x,-y,z
x,-y,-z
-x,y,-z
-x,-y,-z
x,y,-z
-x,y,z
x,-y,z
x,1/2+y,1/2+z
-x,1/2-y,1/2+z
x,1/2-y,1/2-z
-x,1/2+y,1/2-z
-x,1/2-y,1/2-z
x,1/2+y,1/2-z
-x,1/2+y,1/2+z
x,1/2-y,1/2+z
1/2+x,y,1/2+z
1/2-x,-y,1/2+z
1/2+x,-y,1/2-z
1/2-x,y,1/2-z
1/2-x,-y,1/2-z
1/2+x,y,1/2-z
1/2-x,y,1/2+z
1/2+x,-y,1/2+z
1/2+x,1/2+y,z
1/2-x,1/2-y,z
1/2+x,1/2-y,-z
1/2-x,1/2+y,-z
1/2-x,1/2-y,-z
1/2+x,1/2+y,-z
1/2-x,1/2+y,z
1/2+x,1/2-y,z
loop_
_atom_site_type_symbol
_atom_site_label
_atom_site_fract_x
_atom_site_fract_y
_atom_site_fract_z
Si Si1 0.573631 0.664395 0.612269
Si Si2 0.398864 0.426149 0.112797
Si Si3 0.544110 0.190283 0.612213
Si Si4 0.327921 0.343483 0.893444
Si Si5 0.341516 0.806455 0.889752
Si Si6 0.244174 0.324227 0.858048
Si Si7 0.000000 0.423724 0.887284
O O1 0.573709 0.660536 0.500000
O O2 0.561065 0.738694 0.637967
O O3 0.618716 0.659293 0.643690
O O4 0.539534 0.614413 0.642038
O O5 0.406772 0.500000 0.145875
O O6 0.429593 0.370734 0.142012
O O7 0.356785 0.398787 0.143549
O O8 0.399980 0.428745 0.000000
O O9 0.543821 0.189638 0.500000
O O10 0.500000 0.183930 0.644585
O O11 0.335643 0.269515 0.853963
O O12 0.282481 0.362278 0.890460
O O13 0.338743 0.336780 0.000000
O O14 0.300434 0.843306 0.874209
O O15 0.345483 0.801465 0.000000
O O16 0.250000 0.320409 0.750000
O O17 0.250000 0.250000 0.897374
O O18 0.000000 0.500000 0.858144
O O19 0.000000 0.422579 0.000000
#
# Coordination Sequence:
#
# PCOD9513953 Si02
#       7
#    32  32  32  32  32  32  16
#     4   9  14  22  37  57  84 117 149 180 213 256
#     4   9  16  24  35  55  83 113 145 181 219 259
#     4   9  14  21  34  53  81 115 145 174 213 259
#     4   9  15  25  41  59  83 114 147 180 217 267
#     4   9  15  24  41  63  85 115 152 184 218 265
#     4   9  17  27  40  62  90 112 138 184 234 267
#     4   9  16  24  36  58  89 122 149 177 221 268
#
# _framework density 20.609106000000001
#
# number of rings (size 3 to 8) (size 9 to 14) (size 15 to 20)
#    0.000    3.000    2.308    0.462    0.000    2.154 
#    0.000    1.538    0.000    1.385    0.000    4.308 
#    2.308    4.154    0.000    0.000    0.000    0.000 
#
# Total GULP energy -289796.108758 kJ/mol
# GULP energy per Si atom -5573.002092 kJ/mol
# Density = 2.056220 g / cm^3
# Si number density = 20.609106 Si / 1000 Ang^3
#
#
#
# Elastic Constant Matrix: (Units=GPa)
#
#
# Indices 1 2 3 4 5 6 
#
# 1 221.4254 80.0741 1.5482 0.0000 0.0000 0.0000
# 2 80.0741 97.8132 11.0260 0.0000 0.0000 0.0000
# 3 1.5482 11.0260 42.4472 0.0000 0.0000 0.0000
# 4 0.0000 0.0000 0.0000 -69.2125 0.0000 0.0000
# 5 0.0000 0.0000 0.0000 0.0000 -11.6577 0.0000
# 6 0.0000 0.0000 0.0000 0.0000 0.0000 21.4920
#
#
#
# Elastic Compliance Matrix: (Units=1/GPa)
#
#
# Indices 1 2 3 4 5 6 
#
# 1 0.006472 -0.005431 0.001175 0.000000 0.000000 0.000000
# 2 -0.005431 0.015089 -0.003721 0.000000 0.000000 0.000000
# 3 0.001175 -0.003721 0.024483 0.000000 0.000000 0.000000
# 4 0.000000 0.000000 0.000000 -0.014448 0.000000 0.000000
# 5 0.000000 0.000000 0.000000 0.000000 -0.085781 0.000000
# 6 0.000000 0.000000 0.000000 0.000000 0.000000 0.046529
#
#
# Mechanical properties :
#
#
# Convention : Reuss Voigt Hill
#
# Bulk Modulus (GPa) = 33.23534 60.77583 47.00559
# Shear Modulus (GPa) = 272.81655 6.06018 139.43837
#
# Velocity S-wave (km/s) = 11.51799 1.71666 8.23441
# Velocity P-wave (km/s) = 13.89413 5.78645 10.64260
#
# Compressibility (1/GPa) = 0.03008845
#
# Stress axis : x y z
#
# Youngs Moduli (GPa) = 154.51592 66.27462 40.84546
#
# Poissons Ratio (x) = 0.35991 -0.04798
# Poissons Ratio (y) = 0.83910 0.15200
# Poissons Ratio (z) = -0.18149 0.24663
#
# Static dielectric constant tensor:
#      x y z
#    x 1.767370 0.000000 0.000000 
#    y 0.000000 1.705870 0.000000 
#    z 0.000000 0.000000 1.817190 
# 
# From -- ./inp_files/34085.got.cif
#   From: 2010.05.17/outbox.cif.g08.bks.cpg/sg69_18_cif.got.tgz:34085.got - 2010.06.03 19:29:58.
