data_PCOD9513049
_publ_section_title
;
Structure prediction by ZEFSAII (Michael W. Deem and Ramdas Pophale) SiO2 
 PCOD9513049
Probable space group: F M M M
;
_chemical_formula_sum "Si O2"
_cell_formula_units_Z 112
_cell_length_a 13.330845
_cell_length_b 24.205736
_cell_length_c 17.554212
_cell_angle_alpha 90.000000
_cell_angle_beta 90.000000
_cell_angle_gamma 90.000000
_cell_volume 5664.444294
_symmetry_space_group_name_H-M "F M M M"
_symmetry_group_IT_number 69
_symmetry_cell_setting 'orthorhombic'
loop_
_space_group_symop_operation_xyz
x,y,z
-x,-y,z
x,-y,-z
-x,y,-z
-x,-y,-z
x,y,-z
-x,y,z
x,-y,z
x,1/2+y,1/2+z
-x,1/2-y,1/2+z
x,1/2-y,1/2-z
-x,1/2+y,1/2-z
-x,1/2-y,1/2-z
x,1/2+y,1/2-z
-x,1/2+y,1/2+z
x,1/2-y,1/2+z
1/2+x,y,1/2+z
1/2-x,-y,1/2+z
1/2+x,-y,1/2-z
1/2-x,y,1/2-z
1/2-x,-y,1/2-z
1/2+x,y,1/2-z
1/2-x,y,1/2+z
1/2+x,-y,1/2+z
1/2+x,1/2+y,z
1/2-x,1/2-y,z
1/2+x,1/2-y,-z
1/2-x,1/2+y,-z
1/2-x,1/2-y,-z
1/2+x,1/2+y,-z
1/2-x,1/2+y,z
1/2+x,1/2-y,z
loop_
_atom_site_type_symbol
_atom_site_label
_atom_site_fract_x
_atom_site_fract_y
_atom_site_fract_z
Si Si1 0.387127 0.773003 0.335752
Si Si2 0.111983 0.500000 0.409661
Si Si3 0.218406 0.938274 0.664276
Si Si4 0.699060 0.330613 0.590103
O O1 0.500000 0.795487 0.339395
O O2 0.369882 0.750000 0.250000
O O3 0.374430 0.719680 0.390002
O O4 0.301405 0.814629 0.364357
O O5 0.108419 0.500000 0.500000
O O6 0.177955 0.448548 0.381486
O O7 0.000000 0.500000 0.378341
O O8 0.250000 0.924877 0.750000
O O9 0.161858 0.888663 0.623958
O O10 0.170236 0.000000 0.664348
O O11 0.716733 0.333688 0.500000
#
# Coordination Sequence:
#
# PCOD9513049 Si02
#       4
#    32  16  32  32
#     4  10  21  37  57  80 108 144 185 226 268 323
#     4   9  17  30  50  78 107 131 164 216 270 313
#     4   9  19  35  54  74 106 146 180 212 259 323
#     4  11  21  34  57  82 111 145 177 226 277 322
#
# _framework density 19.772459999999999
#
# number of rings (size 3 to 8) (size 9 to 14) (size 15 to 20)
#    0.857    1.286    0.000    6.000    0.000    3.429 
#    0.000    1.429    0.000    0.000    0.000    2.000 
#    0.000    0.000    0.000    0.000    0.000    0.000 
#
# Total GULP energy -155996.825529 kJ/mol
# GULP energy per Si atom -5571.315197 kJ/mol
# Density = 1.972746 g / cm^3
# Si number density = 19.772460 Si / 1000 Ang^3
#
#
#
# Elastic Constant Matrix: (Units=GPa)
#
#
# Indices 1 2 3 4 5 6 
#
# 1 32.8959 -22.9086 -1.5522 0.0000 0.0000 0.0000
# 2 -22.9086 83.1054 23.8138 0.0000 0.0000 0.0000
# 3 -1.5522 23.8138 122.2140 0.0000 0.0000 0.0000
# 4 0.0000 0.0000 0.0000 -16.3933 0.0000 0.0000
# 5 0.0000 0.0000 0.0000 0.0000 -24.4817 0.0000
# 6 0.0000 0.0000 0.0000 0.0000 0.0000 5.9006
#
#
#
# Elastic Compliance Matrix: (Units=1/GPa)
#
#
# Indices 1 2 3 4 5 6 
#
# 1 0.037932 0.010928 -0.001648 0.000000 0.000000 0.000000
# 2 0.010928 0.015893 -0.002958 0.000000 0.000000 0.000000
# 3 -0.001648 -0.002958 0.008738 0.000000 0.000000 0.000000
# 4 0.000000 0.000000 0.000000 -0.061000 0.000000 0.000000
# 5 0.000000 0.000000 0.000000 0.000000 -0.040847 0.000000
# 6 0.000000 0.000000 0.000000 0.000000 0.000000 0.169475
#
#
# Mechanical properties :
#
#
# Convention : Reuss Voigt Hill
#
# Bulk Modulus (GPa) = 13.29654 26.32459 19.81056
# Shear Modulus (GPa) = 35.05968 8.92927 21.99447
#
# Velocity S-wave (km/s) = 4.21546 2.12740 3.33885
# Velocity P-wave (km/s) = 5.51659 4.40194 4.99049
#
# Compressibility (1/GPa) = 0.07520753
#
# Stress axis : x y z
#
# Youngs Moduli (GPa) = 26.36327 62.92091 114.44500
#
# Poissons Ratio (x) = -0.68761 0.18856
# Poissons Ratio (y) = -0.28810 0.33853
# Poissons Ratio (z) = 0.04344 0.18612
#
# Static dielectric constant tensor:
#      x y z
#    x 1.688090 0.000000 0.000000 
#    y 0.000000 1.768870 0.000000 
#    z 0.000000 0.000000 1.676480 
# 
# From -- ./inp_files/14289.got.cif
#   From: 2010.05.17/outbox.cif.g08.bks.cpg/sg69_8_cif.got.tgz:14289.got - 2010.06.03 19:29:58.
