data_PCOD9513264
_publ_section_title
;
Structure prediction by ZEFSAII (Michael W. Deem and Ramdas Pophale) SiO2 
 PCOD9513264
Probable space group: F M M M
;
_chemical_formula_sum "Si O2"
_cell_formula_units_Z 160
_cell_length_a 29.139137
_cell_length_b 10.848959
_cell_length_c 25.733887
_cell_angle_alpha 90.000000
_cell_angle_beta 90.000000
_cell_angle_gamma 90.000000
_cell_volume 8135.235751
_symmetry_space_group_name_H-M "F M M M"
_symmetry_group_IT_number 69
_symmetry_cell_setting 'orthorhombic'
loop_
_space_group_symop_operation_xyz
x,y,z
-x,-y,z
x,-y,-z
-x,y,-z
-x,-y,-z
x,y,-z
-x,y,z
x,-y,z
x,1/2+y,1/2+z
-x,1/2-y,1/2+z
x,1/2-y,1/2-z
-x,1/2+y,1/2-z
-x,1/2-y,1/2-z
x,1/2+y,1/2-z
-x,1/2+y,1/2+z
x,1/2-y,1/2+z
1/2+x,y,1/2+z
1/2-x,-y,1/2+z
1/2+x,-y,1/2-z
1/2-x,y,1/2-z
1/2-x,-y,1/2-z
1/2+x,y,1/2-z
1/2-x,y,1/2+z
1/2+x,-y,1/2+z
1/2+x,1/2+y,z
1/2-x,1/2-y,z
1/2+x,1/2-y,-z
1/2-x,1/2+y,-z
1/2-x,1/2-y,-z
1/2+x,1/2+y,-z
1/2-x,1/2+y,z
1/2+x,1/2-y,z
loop_
_atom_site_type_symbol
_atom_site_label
_atom_site_fract_x
_atom_site_fract_y
_atom_site_fract_z
Si Si1 0.917687 0.637253 0.365361
Si Si2 0.189932 0.141037 0.443696
Si Si3 0.329871 0.641051 0.792210
Si Si4 0.750000 0.250000 0.853141
Si Si5 0.420636 0.361476 0.559965
Si Si6 0.000000 0.869179 0.784311
O O1 0.916394 0.500000 0.390214
O O2 0.868727 0.656832 0.336889
O O3 0.932247 0.746422 0.403882
O O4 0.955407 0.633480 0.320355
O O5 0.200783 0.200750 0.500000
O O6 0.212940 0.194871 0.392860
O O7 0.134975 0.139861 0.439854
O O8 0.205572 0.000000 0.446058
O O9 0.334763 0.500000 0.771982
O O10 0.336052 0.750000 0.750000
O O11 0.279404 0.658802 0.817092
O O12 0.435511 0.345625 0.500000
O O13 0.435079 0.500000 0.576933
O O14 0.000000 0.750000 0.750000
O O15 0.000000 0.000000 0.754794
#
# Coordination Sequence:
#
# PCOD9513264 Si02
#       6
#    32  32  32  16  32  16
#     4  10  21  40  61  87 116 147 187 235 289 340
#     4   9  18  32  51  78 111 147 189 233 278 329
#     4  11  25  40  56  80 111 148 193 238 283 339
#     4  12  20  34  56  78 112 150 190 232 284 330
#     4   9  18  35  59  86 115 151 191 229 275 334
#     4  10  22  40  65  90 117 147 188 241 291 344
#
# _framework density 19.667531
#
# number of rings (size 3 to 8) (size 9 to 14) (size 15 to 20)
#    0.000    2.000    2.000    3.000    0.000    4.400 
#    0.000    0.500    0.000    3.000    0.000    0.000 
#    0.000    0.000    0.000    0.000    0.000    0.000 
#
# Total GULP energy -222920.976377 kJ/mol
# GULP energy per Si atom -5573.024409 kJ/mol
# Density = 1.962277 g / cm^3
# Si number density = 19.667531 Si / 1000 Ang^3
#
#
#
# Elastic Constant Matrix: (Units=GPa)
#
#
# Indices 1 2 3 4 5 6 
#
# 1 50.3347 7.1357 -3.5207 0.0000 0.0000 0.0000
# 2 7.1357 176.2847 79.7261 0.0000 0.0000 0.0000
# 3 -3.5207 79.7261 62.7505 0.0000 0.0000 0.0000
# 4 0.0000 0.0000 0.0000 41.4024 0.0000 0.0000
# 5 0.0000 0.0000 0.0000 0.0000 14.3008 0.0000
# 6 0.0000 0.0000 0.0000 0.0000 0.0000 39.6957
#
#
#
# Elastic Compliance Matrix: (Units=1/GPa)
#
#
# Indices 1 2 3 4 5 6 
#
# 1 0.020687 -0.003202 0.005229 0.000000 0.000000 0.000000
# 2 -0.003202 0.013831 -0.017752 0.000000 0.000000 0.000000
# 3 0.005229 -0.017752 0.038784 0.000000 0.000000 0.000000
# 4 0.000000 0.000000 0.000000 0.024153 0.000000 0.000000
# 5 0.000000 0.000000 0.000000 0.000000 0.069926 0.000000
# 6 0.000000 0.000000 0.000000 0.000000 0.000000 0.025192
#
#
# Mechanical properties :
#
#
# Convention : Reuss Voigt Hill
#
# Bulk Modulus (GPa) = 23.89409 50.67245 37.28327
# Shear Modulus (GPa) = 21.01083 32.81503 26.91293
#
# Velocity S-wave (km/s) = 3.27203 4.08914 3.70319
# Velocity P-wave (km/s) = 5.14299 6.93652 6.10596
#
# Compressibility (1/GPa) = 0.04185135
#
# Stress axis : x y z
#
# Youngs Moduli (GPa) = 48.34012 72.30284 25.78397
#
# Poissons Ratio (x) = 0.23154 -0.13483
# Poissons Ratio (y) = 0.15480 0.45772
# Poissons Ratio (z) = -0.25279 1.28352
#
# Static dielectric constant tensor:
#      x y z
#    x 1.715630 0.000000 0.000000 
#    y 0.000000 1.724120 0.000000 
#    z 0.000000 0.000000 1.697860 
# 
# From -- ./inp_files/47463.got.cif
#   From: 2010.05.17/outbox.cif.g08.bks.cpg/sg69_24_cif.got.tgz:47463.got - 2010.06.03 19:29:58.
