data_PCOD9513668
_publ_section_title
;
Structure prediction by ZEFSAII (Michael W. Deem and Ramdas Pophale) SiO2 
 PCOD9513668
Probable space group: F M M M
;
_chemical_formula_sum "Si O2"
_cell_formula_units_Z 176
_cell_length_a 32.315997
_cell_length_b 15.817946
_cell_length_c 15.583254
_cell_angle_alpha 90.000000
_cell_angle_beta 90.000000
_cell_angle_gamma 90.000000
_cell_volume 7965.733952
_symmetry_space_group_name_H-M "F M M M"
_symmetry_group_IT_number 69
_symmetry_cell_setting 'orthorhombic'
loop_
_space_group_symop_operation_xyz
x,y,z
-x,-y,z
x,-y,-z
-x,y,-z
-x,-y,-z
x,y,-z
-x,y,z
x,-y,z
x,1/2+y,1/2+z
-x,1/2-y,1/2+z
x,1/2-y,1/2-z
-x,1/2+y,1/2-z
-x,1/2-y,1/2-z
x,1/2+y,1/2-z
-x,1/2+y,1/2+z
x,1/2-y,1/2+z
1/2+x,y,1/2+z
1/2-x,-y,1/2+z
1/2+x,-y,1/2-z
1/2-x,y,1/2-z
1/2-x,-y,1/2-z
1/2+x,y,1/2-z
1/2-x,y,1/2+z
1/2+x,-y,1/2+z
1/2+x,1/2+y,z
1/2-x,1/2-y,z
1/2+x,1/2-y,-z
1/2-x,1/2+y,-z
1/2-x,1/2-y,-z
1/2+x,1/2+y,-z
1/2-x,1/2+y,z
1/2+x,1/2-y,z
loop_
_atom_site_type_symbol
_atom_site_label
_atom_site_fract_x
_atom_site_fract_y
_atom_site_fract_z
Si Si1 0.292076 0.399073 0.638597
Si Si2 0.047715 0.396495 0.000000
Si Si3 0.046691 0.901959 0.102565
Si Si4 0.118569 0.097089 0.375147
Si Si5 0.296926 0.399913 0.153455
Si Si6 0.879084 0.334151 0.695173
O O1 0.291265 0.500000 0.620786
O O2 0.335808 0.364801 0.603860
O O3 0.293889 0.390955 0.742445
O O4 0.246322 0.366979 0.614514
O O5 0.077052 0.369541 0.080033
O O6 0.044602 0.500000 0.000000
O O7 0.000000 0.365521 0.000000
O O8 0.079303 0.838521 0.142137
O O9 0.000000 0.887471 0.133609
O O10 0.057877 0.000000 0.122656
O O11 0.046757 0.895128 0.000000
O O12 0.115923 0.098897 0.272498
O O13 0.121074 0.000000 0.402616
O O14 0.300460 0.500000 0.134794
O O15 0.339923 0.354295 0.135348
O O16 0.872865 0.250000 0.750000
#
# Coordination Sequence:
#
# PCOD9513668 Si02
#       6
#    32  16  32  32  32  32
#     4   7  11  22  44  70  95 130 175 224 264 301
#     4   9  18  32  52  78 105 138 179 219 269 334
#     4   9  19  38  62  81 100 137 189 240 288 334
#     4   9  17  32  52  74 105 144 185 229 269 315
#     4   8  13  25  46  71 100 133 173 220 268 316
#     4  11  21  32  50  82 114 142 175 223 280 342
#
# _framework density 22.094636000000001
#
# number of rings (size 3 to 8) (size 9 to 14) (size 15 to 20)
#    0.000    3.182    0.000    4.364    0.000    1.091 
#    1.636    9.091    2.000    0.000    0.000    1.273 
#    0.000    0.000    0.000    0.000    0.000    0.000 
#
# Total GULP energy -245006.618389 kJ/mol
# GULP energy per Si atom -5568.332236 kJ/mol
# Density = 2.204435 g / cm^3
# Si number density = 22.094636 Si / 1000 Ang^3
#
#
#
# Elastic Constant Matrix: (Units=GPa)
#
#
# Indices 1 2 3 4 5 6 
#
# 1 224.8196 35.2676 34.3727 0.0000 0.0000 0.0000
# 2 35.2676 45.5826 1.4165 0.0000 0.0000 0.0000
# 3 34.3727 1.4165 26.1646 0.0000 0.0000 0.0000
# 4 0.0000 0.0000 0.0000 -12.1647 0.0000 0.0000
# 5 0.0000 0.0000 0.0000 0.0000 109.1853 0.0000
# 6 0.0000 0.0000 0.0000 0.0000 0.0000 -14.0079
#
#
#
# Elastic Compliance Matrix: (Units=1/GPa)
#
#
# Indices 1 2 3 4 5 6 
#
# 1 0.006446 -0.004732 -0.008212 0.000000 0.000000 0.000000
# 2 -0.004732 0.025449 0.004839 0.000000 0.000000 0.000000
# 3 -0.008212 0.004839 0.048746 0.000000 0.000000 0.000000
# 4 0.000000 0.000000 0.000000 -0.082205 0.000000 0.000000
# 5 0.000000 0.000000 0.000000 0.000000 0.009159 0.000000
# 6 0.000000 0.000000 0.000000 0.000000 0.000000 -0.071388
#
#
# Mechanical properties :
#
#
# Convention : Reuss Voigt Hill
#
# Bulk Modulus (GPa) = 15.52065 48.74227 32.13146
# Shear Modulus (GPa) = -191.51628 31.63653 -79.93987
#
# Velocity S-wave (km/s) = -9.32031 3.78810 -6.02156
# Velocity P-wave (km/s) = 10.42997 6.42196 5.81132
#
# Compressibility (1/GPa) = 0.06443028
#
# Stress axis : x y z
#
# Youngs Moduli (GPa) = 155.13923 39.29425 20.51466
#
# Poissons Ratio (x) = 0.18594 0.16846
# Poissons Ratio (y) = 0.73412 -0.09926
# Poissons Ratio (z) = 1.27397 -0.19013
#
# Static dielectric constant tensor:
#      x y z
#    x 1.893920 0.000000 0.000000 
#    y 0.000000 1.856120 0.000000 
#    z 0.000000 0.000000 2.126000 
# 
# From -- ./inp_files/27668.got.cif
#   From: 2010.05.17/outbox.cif.g08.bks.cpg/sg69_14_cif.got.tgz:27668.got - 2010.06.03 19:29:58.
