data_PCOD9513779
_publ_section_title
;
Structure prediction by ZEFSAII (Michael W. Deem and Ramdas Pophale) SiO2 
 PCOD9513779
Probable space group: F M M M
;
_chemical_formula_sum "Si O2"
_cell_formula_units_Z 128
_cell_length_a 15.225026
_cell_length_b 19.652321
_cell_length_c 20.963864
_cell_angle_alpha 90.000000
_cell_angle_beta 90.000000
_cell_angle_gamma 90.000000
_cell_volume 6272.536914
_symmetry_space_group_name_H-M "F M M M"
_symmetry_group_IT_number 69
_symmetry_cell_setting 'orthorhombic'
loop_
_space_group_symop_operation_xyz
x,y,z
-x,-y,z
x,-y,-z
-x,y,-z
-x,-y,-z
x,y,-z
-x,y,z
x,-y,z
x,1/2+y,1/2+z
-x,1/2-y,1/2+z
x,1/2-y,1/2-z
-x,1/2+y,1/2-z
-x,1/2-y,1/2-z
x,1/2+y,1/2-z
-x,1/2+y,1/2+z
x,1/2-y,1/2+z
1/2+x,y,1/2+z
1/2-x,-y,1/2+z
1/2+x,-y,1/2-z
1/2-x,y,1/2-z
1/2-x,-y,1/2-z
1/2+x,y,1/2-z
1/2-x,y,1/2+z
1/2+x,-y,1/2+z
1/2+x,1/2+y,z
1/2-x,1/2-y,z
1/2+x,1/2-y,-z
1/2-x,1/2+y,-z
1/2-x,1/2-y,-z
1/2+x,1/2+y,-z
1/2-x,1/2+y,z
1/2+x,1/2-y,z
loop_
_atom_site_type_symbol
_atom_site_label
_atom_site_fract_x
_atom_site_fract_y
_atom_site_fract_z
Si Si1 0.855783 0.500000 0.261391
Si Si2 0.400508 0.755620 0.923379
Si Si3 0.097441 0.500000 0.883988
Si Si4 0.781996 0.378827 0.925566
Si Si5 0.401542 0.392918 0.867385
O O1 0.750000 0.500000 0.250000
O O2 0.898558 0.500000 0.192385
O O3 0.886141 0.433005 0.301052
O O4 0.500000 0.785036 0.919231
O O5 0.324342 0.807510 0.902285
O O6 0.400118 0.688950 0.878415
O O7 0.388790 0.737939 0.000000
O O8 0.147184 0.565608 0.908250
O O9 0.000000 0.500000 0.908514
O O10 0.688643 0.408504 0.903715
O O11 0.775353 0.368820 0.000000
O O12 0.500000 0.413332 0.890068
#
# Coordination Sequence:
#
# PCOD9513779 Si02
#       5
#    16  32  16  32  32
#     4  12  24  47  66  84 117 164 210 266 318 373
#     4   9  19  37  62  95 134 169 204 253 311 371
#     4  12  25  42  65  88 119 166 217 267 315 366
#     4  11  22  38  63  97 133 168 205 251 312 377
#     4  11  22  39  65  93 123 163 209 254 309 373
#
# _framework density 20.406417000000001
#
# number of rings (size 3 to 8) (size 9 to 14) (size 15 to 20)
#    0.000    1.250    2.500    3.750    0.000    5.500 
#    0.000    3.125    0.000   13.500    0.000    0.000 
#    0.000    0.000    0.000    0.000    0.000    0.000 
#
# Total GULP energy -178197.388747 kJ/mol
# GULP energy per Si atom -5568.668398 kJ/mol
# Density = 2.035997 g / cm^3
# Si number density = 20.406417 Si / 1000 Ang^3
#
#
#
# Elastic Constant Matrix: (Units=GPa)
#
#
# Indices 1 2 3 4 5 6 
#
# 1 197.9325 53.1762 25.8200 0.0000 0.0000 0.0000
# 2 53.1762 165.9371 103.5493 0.0000 0.0000 0.0000
# 3 25.8200 103.5493 127.7517 0.0000 0.0000 0.0000
# 4 0.0000 0.0000 0.0000 8.6172 0.0000 0.0000
# 5 0.0000 0.0000 0.0000 0.0000 60.5529 0.0000
# 6 0.0000 0.0000 0.0000 0.0000 0.0000 32.8486
#
#
#
# Elastic Compliance Matrix: (Units=1/GPa)
#
#
# Indices 1 2 3 4 5 6 
#
# 1 0.005555 -0.002184 0.000648 0.000000 0.000000 0.000000
# 2 -0.002184 0.013053 -0.010139 0.000000 0.000000 0.000000
# 3 0.000648 -0.010139 0.015915 0.000000 0.000000 0.000000
# 4 0.000000 0.000000 0.000000 0.116047 0.000000 0.000000
# 5 0.000000 0.000000 0.000000 0.000000 0.016514 0.000000
# 6 0.000000 0.000000 0.000000 0.000000 0.000000 0.030443
#
#
# Mechanical properties :
#
#
# Convention : Reuss Voigt Hill
#
# Bulk Modulus (GPa) = 89.50945 95.19027 92.34986
# Shear Modulus (GPa) = 22.26166 41.00880 31.63523
#
# Velocity S-wave (km/s) = 3.30648 4.48772 3.94160
# Velocity P-wave (km/s) = 7.65086 8.57912 8.12826
#
# Compressibility (1/GPa) = 0.01117200
#
# Stress axis : x y z
#
# Youngs Moduli (GPa) = 180.03288 76.60886 62.83432
#
# Poissons Ratio (x) = 0.16733 -0.04071
# Poissons Ratio (y) = 0.39324 0.63707
# Poissons Ratio (z) = -0.11663 0.77673
#
# Static dielectric constant tensor:
#      x y z
#    x 1.794530 0.000000 0.000000 
#    y 0.000000 1.764890 0.000000 
#    z 0.000000 0.000000 1.682770 
# 
# From -- ./inp_files/29632.got.cif
#   From: 2010.05.17/outbox.cif.g08.bks.cpg/sg69_15_cif.got.tgz:29632.got - 2010.06.03 19:29:58.
