data_PCOD9513944
_publ_section_title
;
Structure prediction by ZEFSAII (Michael W. Deem and Ramdas Pophale) SiO2 
 PCOD9513944
Probable space group: F M M M
;
_chemical_formula_sum "Si O2"
_cell_formula_units_Z 160
_cell_length_a 29.912984
_cell_length_b 14.085730
_cell_length_c 18.327502
_cell_angle_alpha 90.000000
_cell_angle_beta 90.000000
_cell_angle_gamma 90.000000
_cell_volume 7722.223619
_symmetry_space_group_name_H-M "F M M M"
_symmetry_group_IT_number 69
_symmetry_cell_setting 'orthorhombic'
loop_
_space_group_symop_operation_xyz
x,y,z
-x,-y,z
x,-y,-z
-x,y,-z
-x,-y,-z
x,y,-z
-x,y,z
x,-y,z
x,1/2+y,1/2+z
-x,1/2-y,1/2+z
x,1/2-y,1/2-z
-x,1/2+y,1/2-z
-x,1/2-y,1/2-z
x,1/2+y,1/2-z
-x,1/2+y,1/2+z
x,1/2-y,1/2+z
1/2+x,y,1/2+z
1/2-x,-y,1/2+z
1/2+x,-y,1/2-z
1/2-x,y,1/2-z
1/2-x,-y,1/2-z
1/2+x,y,1/2-z
1/2-x,y,1/2+z
1/2+x,-y,1/2+z
1/2+x,1/2+y,z
1/2-x,1/2-y,z
1/2+x,1/2-y,-z
1/2-x,1/2+y,-z
1/2-x,1/2-y,-z
1/2+x,1/2+y,-z
1/2-x,1/2+y,z
1/2+x,1/2-y,z
loop_
_atom_site_type_symbol
_atom_site_label
_atom_site_fract_x
_atom_site_fract_y
_atom_site_fract_z
Si Si1 0.643781 0.114186 0.085638
Si Si2 0.083725 0.607332 0.589100
Si Si3 0.951901 0.694933 0.911367
Si Si4 0.768207 0.384176 0.170572
Si Si5 0.317666 0.884798 0.582100
O O1 0.594568 0.146614 0.110925
O O2 0.684270 0.148140 0.137643
O O3 0.644573 0.000000 0.086153
O O4 0.650198 0.142463 0.000000
O O5 0.085843 0.604355 0.500000
O O6 0.072475 0.500000 0.612632
O O7 0.051836 0.693730 0.608298
O O8 0.133691 0.635135 0.615364
O O9 0.000000 0.656351 0.886012
O O10 0.951894 0.688441 0.000000
O O11 0.770715 0.500000 0.170715
O O12 0.750000 0.357017 0.250000
O O13 0.727483 0.354157 0.119378
O O14 0.317887 0.849293 0.500000
O O15 0.316435 0.000000 0.580240
#
# Coordination Sequence:
#
# PCOD9513944 Si02
#       5
#    32  32  32  32  32
#     4   9  17  29  45  66  95 130 164 198 238 284
#     4   8  14  25  42  65  91 118 150 190 238 289
#     4   9  17  28  43  66  95 125 160 202 241 278
#     4   9  16  26  43  68  94 121 156 196 238 285
#     4   8  13  23  41  64  90 119 148 182 232 292
#
# _framework density 20.719422000000002
#
# number of rings (size 3 to 8) (size 9 to 14) (size 15 to 20)
#    0.000    3.400    0.000    1.800    0.000    3.200 
#    0.000    5.000    0.000    7.200    0.000    2.800 
#    0.000    8.000    0.000    0.400    0.000    0.200 
#
# Total GULP energy -222810.505977 kJ/mol
# GULP energy per Si atom -5570.262649 kJ/mol
# Density = 2.067226 g / cm^3
# Si number density = 20.719422 Si / 1000 Ang^3
#
#
#
# Elastic Constant Matrix: (Units=GPa)
#
#
# Indices 1 2 3 4 5 6 
#
# 1 177.6856 40.0901 47.5601 0.0000 0.0000 0.0000
# 2 40.0901 61.0933 11.9517 0.0000 0.0000 0.0000
# 3 47.5601 11.9517 33.7749 0.0000 0.0000 0.0000
# 4 0.0000 0.0000 0.0000 -2.4460 0.0000 0.0000
# 5 0.0000 0.0000 0.0000 0.0000 -2.0703 0.0000
# 6 0.0000 0.0000 0.0000 0.0000 0.0000 24.0968
#
#
#
# Elastic Compliance Matrix: (Units=1/GPa)
#
#
# Indices 1 2 3 4 5 6 
#
# 1 0.009882 -0.004042 -0.012484 0.000000 0.000000 0.000000
# 2 -0.004042 0.019239 -0.001116 0.000000 0.000000 0.000000
# 3 -0.012484 -0.001116 0.047583 0.000000 0.000000 0.000000
# 4 0.000000 0.000000 0.000000 -0.408826 0.000000 0.000000
# 5 0.000000 0.000000 0.000000 0.000000 -0.483022 0.000000
# 6 0.000000 0.000000 0.000000 0.000000 0.000000 0.041499
#
#
# Mechanical properties :
#
#
# Convention : Reuss Voigt Hill
#
# Bulk Modulus (GPa) = 24.14401 52.41749 38.28075
# Shear Modulus (GPa) = -6.90079 15.44621 4.27271
#
# Velocity S-wave (km/s) = -1.82697 2.73334 1.43759
# Velocity P-wave (km/s) = 2.68844 5.94265 4.61210
#
# Compressibility (1/GPa) = 0.04141814
#
# Stress axis : x y z
#
# Youngs Moduli (GPa) = 101.19909 51.97715 21.01608
#
# Poissons Ratio (x) = 0.21009 0.26237
# Poissons Ratio (y) = 0.40905 0.02346
# Poissons Ratio (z) = 1.26340 0.05802
#
# Static dielectric constant tensor:
#      x y z
#    x 1.766620 0.000000 0.000000 
#    y 0.000000 1.809020 0.000000 
#    z 0.000000 0.000000 1.713390 
# 
# From -- ./inp_files/27603.got.cif
#   From: 2010.05.17/outbox.cif.g08.bks.cpg/sg69_14_cif.got.tgz:27603.got - 2010.06.03 19:29:58.
