data_PCOD9513980
_publ_section_title
;
Structure prediction by ZEFSAII (Michael W. Deem and Ramdas Pophale) SiO2 
 PCOD9513980
Probable space group: F M M M
;
_chemical_formula_sum "Si O2"
_cell_formula_units_Z 40
_cell_length_a 30.000000
_cell_length_b 30.000000
_cell_length_c 9.000000
_cell_angle_alpha 90.000000
_cell_angle_beta 90.000000
_cell_angle_gamma 90.000000
_cell_volume 8100.000000
_symmetry_space_group_name_H-M "F M M M"
_symmetry_group_IT_number 69
_symmetry_cell_setting 'orthorhombic'
loop_
_space_group_symop_operation_xyz
x,y,z
-x,-y,z
x,-y,-z
-x,y,-z
-x,-y,-z
x,y,-z
-x,y,z
x,-y,z
x,1/2+y,1/2+z
-x,1/2-y,1/2+z
x,1/2-y,1/2-z
-x,1/2+y,1/2-z
-x,1/2-y,1/2-z
x,1/2+y,1/2-z
-x,1/2+y,1/2+z
x,1/2-y,1/2+z
1/2+x,y,1/2+z
1/2-x,-y,1/2+z
1/2+x,-y,1/2-z
1/2-x,y,1/2-z
1/2-x,-y,1/2-z
1/2+x,y,1/2-z
1/2-x,y,1/2+z
1/2+x,-y,1/2+z
1/2+x,1/2+y,z
1/2-x,1/2-y,z
1/2+x,1/2-y,-z
1/2-x,1/2+y,-z
1/2-x,1/2-y,-z
1/2+x,1/2+y,-z
1/2-x,1/2+y,z
1/2+x,1/2-y,z
loop_
_atom_site_type_symbol
_atom_site_label
_atom_site_fract_x
_atom_site_fract_y
_atom_site_fract_z
Si Si1 0.684502 0.204592 0.171659
Si Si2 0.050523 0.500000 0.319167
Si Si3 0.294939 0.897292 0.822714
Si Si4 0.619710 0.574382 0.825817
Si Si5 0.093541 0.662042 0.826804
Si Si6 0.500000 0.203235 0.825326
O O1 0.698886 0.250000 0.250000
O O2 0.699144 0.155173 0.226217
O O3 0.630762 0.200298 0.180538
O O4 0.697972 0.207477 0.000000
O O5 0.048168 0.500000 0.500000
O O6 0.080016 0.542341 0.275481
O O7 0.000000 0.500000 0.262982
O O8 0.250000 0.913570 0.750000
O O9 0.334890 0.928081 0.765721
O O10 0.293956 0.896784 0.000000
O O11 0.605113 0.624279 0.789820
O O12 0.627847 0.566958 0.000000
O O13 0.044700 0.677663 0.789929
O O14 0.095740 0.645596 0.000000
O O15 0.500000 0.250000 0.750000
O O16 0.500000 0.210391 0.000000
#
# Coordination Sequence:
#
# PCOD9513980 Si02
#       6
#    32  16  32  32  32  16
#     4   9  18  31  48  71 104 143 183 230 275 320
#     4   9  20  38  60  89 122 147 178 229 278 329
#     4  10  21  38  58  82 114 148 187 233 281 333
#     4  10  20  36  60  85 111 146 184 226 279 336
#     4   9  19  34  49  71 107 146 183 230 282 328
#     4  10  20  32  48  71 104 143 187 236 281 328
#
# _framework density 4.9382720000000004
#
# number of rings (size 3 to 8) (size 9 to 14) (size 15 to 20)
#    0.000    2.500    0.000    3.000    1.400    5.200 
#    0.000    4.500    0.000    2.400    0.000    0.000 
#    0.000    0.000    0.000    0.000    0.000    0.000 
#
# Total GULP energy -222773.243573 kJ/mol
# GULP energy per Si atom -5569.331089 kJ/mol
# Density = 0.492703 g / cm^3
# Si number density = 4.938272 Si / 1000 Ang^3
#
#
#
# Elastic Constant Matrix: (Units=GPa)
#
#
# Indices 1 2 3 4 5 6 
#
# 1 166.7058 32.1209 45.4437 -0.0014 -0.0043 -0.0073
# 2 32.1209 45.2104 27.8502 -0.0047 0.0002 -0.0079
# 3 45.4437 27.8502 20.8186 -0.0028 0.0033 -0.0008
# 4 -0.0014 -0.0047 -0.0028 6.1590 0.0061 0.0016
# 5 -0.0043 0.0002 0.0033 0.0061 18.9366 0.0133
# 6 -0.0073 -0.0079 -0.0008 0.0016 0.0133 -13.9383
#
#
#
# Elastic Compliance Matrix: (Units=1/GPa)
#
#
# Indices 1 2 3 4 5 6 
#
# 1 -0.027893 -0.100554 0.195404 0.000005 -0.000040 0.000061
# 2 -0.100554 -0.236761 0.536223 0.000038 -0.000115 0.000158
# 3 0.195404 0.536223 -1.095841 -0.000040 0.000231 -0.000347
# 4 0.000005 0.000038 -0.000040 0.162364 -0.000052 0.000018
# 5 -0.000040 -0.000115 0.000231 -0.000052 0.052808 0.000050
# 6 0.000061 0.000158 -0.000347 0.000018 0.000050 -0.071745
#
#
# Mechanical properties :
#
#
# Convention : Reuss Voigt Hill
#
# Bulk Modulus (GPa) = -10.16795 49.28492 19.55849
# Shear Modulus (GPa) = -1.99045 10.71946 4.36451
#
# Velocity S-wave (km/s) = -1.00491 2.33206 1.48806
# Velocity P-wave (km/s) = 2.55052 5.67944 3.58823
#
# Compressibility (1/GPa) = -0.09834829
#
# Stress axis : x y z
#
# Youngs Moduli (GPa) = -35.85068 -4.22367 -0.91254
#
# Poissons Ratio (x) = -0.42471 0.17831
# Poissons Ratio (y) = -3.60494 0.48933
# Poissons Ratio (z) = 7.00538 2.26483
#
# Static dielectric constant tensor:
#      x y z
#    x 1.642940 0.000010 0.000020 
#    y 0.000010 1.683800 0.000000 
#    z 0.000020 0.000000 1.676090 
# 
# From -- ./inp_files/5727.got.cif
#   From: 2010.05.17/outbox.ucp.g08.bks.cvg/sg69_3_cif.got.tgz:5727.got - 2010.06.11 16:51:34.
