data_PCOD9513474
_publ_section_title
;
Structure prediction by ZEFSAII (Michael W. Deem and Ramdas Pophale) SiO2 
 PCOD9513474
Probable space group: F M M M
;
_chemical_formula_sum "Si O2"
_cell_formula_units_Z 104
_cell_length_a 17.418395
_cell_length_b 15.369360
_cell_length_c 17.564474
_cell_angle_alpha 90.000000
_cell_angle_beta 90.000000
_cell_angle_gamma 90.000000
_cell_volume 4702.178017
_symmetry_space_group_name_H-M "F M M M"
_symmetry_group_IT_number 69
_symmetry_cell_setting 'orthorhombic'
loop_
_space_group_symop_operation_xyz
x,y,z
-x,-y,z
x,-y,-z
-x,y,-z
-x,-y,-z
x,y,-z
-x,y,z
x,-y,z
x,1/2+y,1/2+z
-x,1/2-y,1/2+z
x,1/2-y,1/2-z
-x,1/2+y,1/2-z
-x,1/2-y,1/2-z
x,1/2+y,1/2-z
-x,1/2+y,1/2+z
x,1/2-y,1/2+z
1/2+x,y,1/2+z
1/2-x,-y,1/2+z
1/2+x,-y,1/2-z
1/2-x,y,1/2-z
1/2-x,-y,1/2-z
1/2+x,y,1/2-z
1/2-x,y,1/2+z
1/2+x,-y,1/2+z
1/2+x,1/2+y,z
1/2-x,1/2-y,z
1/2+x,1/2-y,-z
1/2-x,1/2+y,-z
1/2-x,1/2-y,-z
1/2+x,1/2+y,-z
1/2-x,1/2+y,z
1/2+x,1/2-y,z
loop_
_atom_site_type_symbol
_atom_site_label
_atom_site_fract_x
_atom_site_fract_y
_atom_site_fract_z
Si Si1 0.870702 0.600387 0.388167
Si Si2 0.694884 0.394584 0.415537
Si Si3 0.500000 0.664307 0.000000
Si Si4 0.086641 0.849306 0.277087
O O1 0.880117 0.500000 0.414331
O O2 0.783957 0.629716 0.404337
O O3 0.884839 0.601328 0.297984
O O4 0.932859 0.656241 0.433382
O O5 0.669179 0.367302 0.500000
O O6 0.692295 0.500000 0.412188
O O7 0.642288 0.360051 0.348272
O O8 0.085471 0.750000 0.250000
O O9 0.000000 0.876813 0.296952
#
# Coordination Sequence:
#
# PCOD9513474 Si02
#       4
#    32  32   8  32
#     4  11  21  38  65  94 122 155 204 261 314 367
#     4  10  22  41  65  94 125 159 206 259 311 374
#     4  12  21  36  66  98 122 154 205 266 317 356
#     4  11  25  43  59  87 125 167 210 252 307 373
#
# _framework density 22.117408999999999
#
# number of rings (size 3 to 8) (size 9 to 14) (size 15 to 20)
#    0.000    1.231    3.077    3.231    0.000    7.385 
#    2.769    3.077    0.000    0.000    0.000    0.000 
#    0.000    0.000    0.000    0.000    0.000    0.000 
#
# Total GULP energy -145035.362648 kJ/mol
# GULP energy per Si atom -5578.283179 kJ/mol
# Density = 2.206707 g / cm^3
# Si number density = 22.117409 Si / 1000 Ang^3
#
#
#
# Elastic Constant Matrix: (Units=GPa)
#
#
# Indices 1 2 3 4 5 6 
#
# 1 143.5757 10.5167 132.0265 0.0000 0.0000 0.0000
# 2 10.5167 27.7950 20.5889 0.0000 0.0000 0.0000
# 3 132.0265 20.5889 216.4488 0.0000 0.0000 0.0000
# 4 0.0000 0.0000 0.0000 4.7889 0.0000 0.0000
# 5 0.0000 0.0000 0.0000 0.0000 133.7337 0.0000
# 6 0.0000 0.0000 0.0000 0.0000 0.0000 18.9382
#
#
#
# Elastic Compliance Matrix: (Units=1/GPa)
#
#
# Indices 1 2 3 4 5 6 
#
# 1 0.015903 0.001257 -0.009820 0.000000 0.000000 0.000000
# 2 0.001257 0.038804 -0.004458 0.000000 0.000000 0.000000
# 3 -0.009820 -0.004458 0.011034 0.000000 0.000000 0.000000
# 4 0.000000 0.000000 0.000000 0.208815 0.000000 0.000000
# 5 0.000000 0.000000 0.000000 0.000000 0.007478 0.000000
# 6 0.000000 0.000000 0.000000 0.000000 0.000000 0.052803
#
#
# Mechanical properties :
#
#
# Convention : Reuss Voigt Hill
#
# Bulk Modulus (GPa) = 25.18925 79.34263 52.26594
# Shear Modulus (GPa) = 13.36503 46.47132 29.91817
#
# Velocity S-wave (km/s) = 2.46087 4.58877 3.68189
# Velocity P-wave (km/s) = 4.41453 8.00169 6.46201
#
# Compressibility (1/GPa) = 0.03969947
#
# Stress axis : x y z
#
# Youngs Moduli (GPa) = 62.88256 25.77039 90.63136
#
# Poissons Ratio (x) = -0.03239 0.88997
# Poissons Ratio (y) = -0.07903 0.40401
# Poissons Ratio (z) = 0.61748 0.11488
#
# Static dielectric constant tensor:
#      x y z
#    x 1.766490 0.000000 0.000000 
#    y 0.000000 1.885900 0.000000 
#    z 0.000000 0.000000 1.788280 
# 
# From -- ./inp_files/22259.got.cif
#   From: 2010.05.17/outbox.cif.g08.bks.cpg/sg69_12_cif.got.tgz:22259.got - 2010.06.03 19:29:58.
