data_PCOD9513603
_publ_section_title
;
Structure prediction by ZEFSAII (Michael W. Deem and Ramdas Pophale) SiO2 
 PCOD9513603
Probable space group: F M M M
;
_chemical_formula_sum "Si O2"
_cell_formula_units_Z 160
_cell_length_a 14.620525
_cell_length_b 27.431171
_cell_length_c 24.616448
_cell_angle_alpha 90.000000
_cell_angle_beta 90.000000
_cell_angle_gamma 90.000000
_cell_volume 9872.626390
_symmetry_space_group_name_H-M "F M M M"
_symmetry_group_IT_number 69
_symmetry_cell_setting 'orthorhombic'
loop_
_space_group_symop_operation_xyz
x,y,z
-x,-y,z
x,-y,-z
-x,y,-z
-x,-y,-z
x,y,-z
-x,y,z
x,-y,z
x,1/2+y,1/2+z
-x,1/2-y,1/2+z
x,1/2-y,1/2-z
-x,1/2+y,1/2-z
-x,1/2-y,1/2-z
x,1/2+y,1/2-z
-x,1/2+y,1/2+z
x,1/2-y,1/2+z
1/2+x,y,1/2+z
1/2-x,-y,1/2+z
1/2+x,-y,1/2-z
1/2-x,y,1/2-z
1/2-x,-y,1/2-z
1/2+x,y,1/2-z
1/2-x,y,1/2+z
1/2+x,-y,1/2+z
1/2+x,1/2+y,z
1/2-x,1/2-y,z
1/2+x,1/2-y,-z
1/2-x,1/2+y,-z
1/2-x,1/2-y,-z
1/2+x,1/2+y,-z
1/2-x,1/2+y,z
1/2+x,1/2-y,z
loop_
_atom_site_type_symbol
_atom_site_label
_atom_site_fract_x
_atom_site_fract_y
_atom_site_fract_z
Si Si1 0.799065 0.874378 0.647997
Si Si2 0.606448 0.300325 0.276162
Si Si3 0.895628 0.056849 0.730479
Si Si4 0.898991 0.875970 0.824582
Si Si5 0.109388 0.444878 0.064390
O O1 0.840238 0.824424 0.673338
O O2 0.823314 0.912835 0.696021
O O3 0.690834 0.869285 0.640067
O O4 0.845632 0.900403 0.596769
O O5 0.500000 0.293373 0.292042
O O6 0.640832 0.250000 0.250000
O O7 0.607842 0.338282 0.225993
O O8 0.893079 0.072507 0.793218
O O9 0.000000 0.069601 0.711535
O O10 0.882192 0.000000 0.723580
O O11 0.000000 0.870491 0.849330
O O12 0.138275 0.500000 0.082411
O O13 0.000000 0.442696 0.072245
O O14 0.127199 0.441514 0.000000
#
# Coordination Sequence:
#
# PCOD9513603 Si02
#       5
#    32  32  32  32  32
#     4  11  18  26  45  65  86 119 153 181 220 275
#     4   9  17  29  45  68  97 122 147 183 226 275
#     4   9  16  25  38  59  87 114 141 175 215 265
#     4   9  19  30  38  57  88 120 154 187 216 254
#     4   9  18  32  49  70  94 116 144 189 239 280
#
# _framework density 16.206426
#
# number of rings (size 3 to 8) (size 9 to 14) (size 15 to 20)
#    0.000    2.600    0.000    6.600    0.000    5.600 
#    0.000    0.000    0.000    0.600    0.000    4.200 
#    0.000    4.800    0.000    0.000    0.000    0.000 
#
# Total GULP energy -222726.961892 kJ/mol
# GULP energy per Si atom -5568.174047 kJ/mol
# Density = 1.616954 g / cm^3
# Si number density = 16.206426 Si / 1000 Ang^3
#
#
#
# Elastic Constant Matrix: (Units=GPa)
#
#
# Indices 1 2 3 4 5 6 
#
# 1 107.2091 34.1175 27.1353 0.0000 0.0000 0.0000
# 2 34.1175 77.4566 28.8906 0.0000 0.0000 0.0000
# 3 27.1353 28.8906 48.2341 0.0000 0.0000 0.0000
# 4 0.0000 0.0000 0.0000 23.8519 0.0000 0.0000
# 5 0.0000 0.0000 0.0000 0.0000 15.7816 0.0000
# 6 0.0000 0.0000 0.0000 0.0000 0.0000 1.4633
#
#
#
# Elastic Compliance Matrix: (Units=1/GPa)
#
#
# Indices 1 2 3 4 5 6 
#
# 1 0.011542 -0.003428 -0.004440 0.000000 0.000000 0.000000
# 2 -0.003428 0.017643 -0.008639 0.000000 0.000000 0.000000
# 3 -0.004440 -0.008639 0.028405 0.000000 0.000000 0.000000
# 4 0.000000 0.000000 0.000000 0.041925 0.000000 0.000000
# 5 0.000000 0.000000 0.000000 0.000000 0.063365 0.000000
# 6 0.000000 0.000000 0.000000 0.000000 0.000000 0.683400
#
#
# Mechanical properties :
#
#
# Convention : Reuss Voigt Hill
#
# Bulk Modulus (GPa) = 40.69098 45.90963 43.30031
# Shear Modulus (GPa) = 5.63390 17.73644 11.68517
#
# Velocity S-wave (km/s) = 1.86652 3.31177 2.68810
# Velocity P-wave (km/s) = 5.45964 6.55845 6.03411
#
# Compressibility (1/GPa) = 0.02457547
#
# Stress axis : x y z
#
# Youngs Moduli (GPa) = 86.63794 56.68106 35.20566
#
# Poissons Ratio (x) = 0.19430 0.15632
# Poissons Ratio (y) = 0.29699 0.30414
# Poissons Ratio (z) = 0.38469 0.48966
#
# Static dielectric constant tensor:
#      x y z
#    x 1.613560 0.000000 0.000000 
#    y 0.000000 1.589300 0.000000 
#    z 0.000000 0.000000 1.524640 
# 
# From -- ./inp_files/17992.got.cif
#   From: 2010.05.17/outbox.cif.g08.bks.cpg/sg69_9_cif.got.tgz:17992.got - 2010.06.03 19:29:58.
