data_PCOD9513988
_publ_section_title
;
Structure prediction by ZEFSAII (Michael W. Deem and Ramdas Pophale) SiO2 
 PCOD9513988
Probable space group: F M M M
;
_chemical_formula_sum "Si O2"
_cell_formula_units_Z 40
_cell_length_a 27.000000
_cell_length_b 18.000000
_cell_length_c 18.000000
_cell_angle_alpha 90.000000
_cell_angle_beta 90.000000
_cell_angle_gamma 90.000000
_cell_volume 8748.000000
_symmetry_space_group_name_H-M "F M M M"
_symmetry_group_IT_number 69
_symmetry_cell_setting 'orthorhombic'
loop_
_space_group_symop_operation_xyz
x,y,z
-x,-y,z
x,-y,-z
-x,y,-z
-x,-y,-z
x,y,-z
-x,y,z
x,-y,z
x,1/2+y,1/2+z
-x,1/2-y,1/2+z
x,1/2-y,1/2-z
-x,1/2+y,1/2-z
-x,1/2-y,1/2-z
x,1/2+y,1/2-z
-x,1/2+y,1/2+z
x,1/2-y,1/2+z
1/2+x,y,1/2+z
1/2-x,-y,1/2+z
1/2+x,-y,1/2-z
1/2-x,y,1/2-z
1/2-x,-y,1/2-z
1/2+x,y,1/2-z
1/2-x,y,1/2+z
1/2+x,-y,1/2+z
1/2+x,1/2+y,z
1/2-x,1/2-y,z
1/2+x,1/2-y,-z
1/2-x,1/2+y,-z
1/2-x,1/2-y,-z
1/2+x,1/2+y,-z
1/2-x,1/2+y,z
1/2+x,1/2-y,z
loop_
_atom_site_type_symbol
_atom_site_label
_atom_site_fract_x
_atom_site_fract_y
_atom_site_fract_z
Si Si1 0.840098 0.086613 0.138978
Si Si2 0.945960 0.797834 0.326285
Si Si3 0.758156 0.337923 0.081091
Si Si4 0.945301 0.350313 0.412144
Si Si5 0.837586 0.667246 0.210590
O O1 0.795636 0.126459 0.095324
O O2 0.895702 0.113822 0.120249
O O3 0.831363 0.108583 0.224062
O O4 0.837166 0.000000 0.124964
O O5 0.947257 0.750000 0.250000
O O6 0.943035 0.736529 0.391030
O O7 0.893482 0.838692 0.321580
O O8 0.000000 0.836534 0.331361
O O9 0.750000 0.250000 0.078703
O O10 0.797113 0.347816 0.147546
O O11 0.776898 0.362831 0.000000
O O12 0.944294 0.361164 0.500000
O O13 0.000000 0.376813 0.384557
O O14 0.832091 0.750000 0.250000
#
# Coordination Sequence:
#
# PCOD9513988 Si02
#       5
#    32  32  32  32  32
#     4  12  25  39  58  86 118 154 194 238 293 357
#     4   9  16  31  57  85 111 147 193 235 276 325
#     4  11  23  38  59  83 111 150 197 241 284 340
#     4  10  20  35  57  86 121 158 193 233 286 350
#     4  11  20  37  61  85 111 153 195 239 286 339
#
# _framework density 4.5724739999999997
#
# number of rings (size 3 to 8) (size 9 to 14) (size 15 to 20)
#    0.000    1.400    6.000    1.200    0.000    6.000 
#    0.000    1.000    0.000    0.000    0.000    0.000 
#    0.000    0.000    0.000   10.400    0.000    0.000 
#
# Total GULP energy -222935.913011 kJ/mol
# GULP energy per Si atom -5573.397825 kJ/mol
# Density = 0.456207 g / cm^3
# Si number density = 4.572474 Si / 1000 Ang^3
#
#
#
# Elastic Constant Matrix: (Units=GPa)
#
#
# Indices 1 2 3 4 5 6 
#
# 1 122.8037 2.9148 62.0410 0.0000 0.0000 0.0000
# 2 2.9148 9.3897 9.4170 0.0000 0.0000 0.0000
# 3 62.0410 9.4170 98.8711 0.0000 0.0000 0.0000
# 4 0.0000 0.0000 0.0000 1136.1521 0.0000 0.0000
# 5 0.0000 0.0000 0.0000 0.0000 42.6974 0.0000
# 6 0.0000 0.0000 0.0000 0.0000 0.0000 15.7739
#
#
#
# Elastic Compliance Matrix: (Units=1/GPa)
#
#
# Indices 1 2 3 4 5 6 
#
# 1 0.012075 0.004257 -0.007982 0.000000 0.000000 0.000000
# 2 0.004257 0.119249 -0.014029 0.000000 0.000000 0.000000
# 3 -0.007982 -0.014029 0.016459 0.000000 0.000000 0.000000
# 4 0.000000 0.000000 0.000000 0.000880 0.000000 0.000000
# 5 0.000000 0.000000 0.000000 0.000000 0.023421 0.000000
# 6 0.000000 0.000000 0.000000 0.000000 0.000000 0.063396
#
#
# Mechanical properties :
#
#
# Convention : Reuss Voigt Hill
#
# Bulk Modulus (GPa) = 8.90678 42.20111 25.55395
# Shear Modulus (GPa) = 16.21207 249.37080 132.79143
#
# Velocity S-wave (km/s) = 2.98047 11.68929 8.53003
# Velocity P-wave (km/s) = 4.08957 14.32863 10.53646
#
# Compressibility (1/GPa) = 0.11227400
#
# Stress axis : x y z
#
# Youngs Moduli (GPa) = 82.81767 8.38584 60.75623
#
# Poissons Ratio (x) = -0.03570 0.48497
# Poissons Ratio (y) = -0.35257 0.85236
# Poissons Ratio (z) = 0.66107 0.11765
#
# Static dielectric constant tensor:
#      x y z
#    x 1.667520 0.000000 0.000000 
#    y 0.000000 1.616980 0.000000 
#    z 0.000000 0.000000 1.689310 
# 
# From -- ./inp_files/23136.got.cif
#   From: 2010.05.17/outbox.ucp.g08.bks.cvg/sg69_12_cif.got.tgz:23136.got - 2010.06.11 16:51:34.
