data_PCOD9513311
_publ_section_title
;
Structure prediction by ZEFSAII (Michael W. Deem and Ramdas Pophale) SiO2 
 PCOD9513311
Probable space group: F M M M
;
_chemical_formula_sum "Si O2"
_cell_formula_units_Z 136
_cell_length_a 11.715660
_cell_length_b 22.790803
_cell_length_c 26.230025
_cell_angle_alpha 90.000000
_cell_angle_beta 90.000000
_cell_angle_gamma 90.000000
_cell_volume 7003.660590
_symmetry_space_group_name_H-M "F M M M"
_symmetry_group_IT_number 69
_symmetry_cell_setting 'orthorhombic'
loop_
_space_group_symop_operation_xyz
x,y,z
-x,-y,z
x,-y,-z
-x,y,-z
-x,-y,-z
x,y,-z
-x,y,z
x,-y,z
x,1/2+y,1/2+z
-x,1/2-y,1/2+z
x,1/2-y,1/2-z
-x,1/2+y,1/2-z
-x,1/2-y,1/2-z
x,1/2+y,1/2-z
-x,1/2+y,1/2+z
x,1/2-y,1/2+z
1/2+x,y,1/2+z
1/2-x,-y,1/2+z
1/2+x,-y,1/2-z
1/2-x,y,1/2-z
1/2-x,-y,1/2-z
1/2+x,y,1/2-z
1/2-x,y,1/2+z
1/2+x,-y,1/2+z
1/2+x,1/2+y,z
1/2-x,1/2-y,z
1/2+x,1/2-y,-z
1/2-x,1/2+y,-z
1/2-x,1/2-y,-z
1/2+x,1/2+y,-z
1/2-x,1/2+y,z
1/2+x,1/2-y,z
loop_
_atom_site_type_symbol
_atom_site_label
_atom_site_fract_x
_atom_site_fract_y
_atom_site_fract_z
Si Si1 0.260259 0.179590 0.559026
Si Si2 0.735994 0.000000 0.311186
Si Si3 0.374382 0.270339 0.308124
Si Si4 0.000000 0.616670 0.560587
Si Si5 0.871082 0.109576 0.354763
Si Si6 0.500000 0.500000 0.868956
O O1 0.234613 0.165432 0.500000
O O2 0.250000 0.250000 0.563518
O O3 0.387576 0.155844 0.570187
O O4 0.177310 0.144139 0.596357
O O5 0.750000 0.000000 0.250000
O O6 0.795273 0.943325 0.335758
O O7 0.607952 0.000000 0.331730
O O8 0.500000 0.252389 0.331082
O O9 0.376799 0.250000 0.250000
O O10 0.250000 0.250000 0.328859
O O11 0.372039 0.340290 0.311611
O O12 0.000000 0.601077 0.500000
O O13 0.000000 0.558142 0.595129
O O14 0.000000 0.089713 0.364274
#
# Coordination Sequence:
#
# PCOD9513311 Si02
#       6
#    32  16  32  16  32   8
#     4  10  22  41  68 103 139 174 213 266 338 413
#     4  12  29  47  66  92 129 177 234 283 334 393
#     4   9  19  37  60  89 120 161 209 264 327 392
#     4  10  21  42  74 105 136 172 223 290 345 412
#     4  11  24  44  65  90 130 173 219 274 334 396
#     4  12  23  50  72  98 130 182 237 284 348 400
#
# _framework density 19.418416000000001
#
# number of rings (size 3 to 8) (size 9 to 14) (size 15 to 20)
#    0.000    1.647    2.353    1.235    6.588    0.471 
#    4.235    0.588    0.000    1.412    0.000    0.000 
#    0.000    0.000    0.000    0.000    0.000    0.000 
#
# Total GULP energy -189665.188002 kJ/mol
# GULP energy per Si atom -5578.387882 kJ/mol
# Density = 1.937422 g / cm^3
# Si number density = 19.418416 Si / 1000 Ang^3
#
#
#
# Elastic Constant Matrix: (Units=GPa)
#
#
# Indices 1 2 3 4 5 6 
#
# 1 200.9748 79.3339 54.3804 0.0000 0.0000 0.0000
# 2 79.3339 136.2616 68.4837 0.0000 0.0000 0.0000
# 3 54.3804 68.4837 111.6131 0.0000 0.0000 0.0000
# 4 0.0000 0.0000 0.0000 14.9217 0.0000 0.0000
# 5 0.0000 0.0000 0.0000 0.0000 -1.5024 0.0000
# 6 0.0000 0.0000 0.0000 0.0000 0.0000 36.7795
#
#
#
# Elastic Compliance Matrix: (Units=1/GPa)
#
#
# Indices 1 2 3 4 5 6 
#
# 1 0.006576 -0.003208 -0.001236 0.000000 0.000000 0.000000
# 2 -0.003208 0.012176 -0.005908 0.000000 0.000000 0.000000
# 3 -0.001236 -0.005908 0.013187 0.000000 0.000000 0.000000
# 4 0.000000 0.000000 0.000000 0.067016 0.000000 0.000000
# 5 0.000000 0.000000 0.000000 0.000000 -0.665586 0.000000
# 6 0.000000 0.000000 0.000000 0.000000 0.000000 0.027189
#
#
# Mechanical properties :
#
#
# Convention : Reuss Voigt Hill
#
# Bulk Modulus (GPa) = 89.00284 94.80506 91.90395
# Shear Modulus (GPa) = -9.70887 26.48319 8.38716
#
# Velocity S-wave (km/s) = -2.23845 3.69700 2.08052
# Velocity P-wave (km/s) = 6.26521 8.19463 7.29400
#
# Compressibility (1/GPa) = 0.01123560
#
# Stress axis : x y z
#
# Youngs Moduli (GPa) = 152.05851 82.13121 75.83408
#
# Poissons Ratio (x) = 0.26345 0.09373
# Poissons Ratio (y) = 0.48776 0.44802
# Poissons Ratio (z) = 0.18794 0.48522
#
# Static dielectric constant tensor:
#      x y z
#    x 1.721370 0.000000 0.000000 
#    y 0.000000 1.692500 0.000000 
#    z 0.000000 0.000000 1.670840 
# 
# From -- ./inp_files/40067.got.cif
#   From: 2010.05.17/outbox.cif.g08.bks.cpg/sg69_21_cif.got.tgz:40067.got - 2010.06.03 19:29:58.
