data_PCOD9513644
_publ_section_title
;
Structure prediction by ZEFSAII (Michael W. Deem and Ramdas Pophale) SiO2 
 PCOD9513644
Probable space group: F M M M
;
_chemical_formula_sum "Si O2"
_cell_formula_units_Z 136
_cell_length_a 16.904104
_cell_length_b 23.732678
_cell_length_c 14.871300
_cell_angle_alpha 90.000000
_cell_angle_beta 90.000000
_cell_angle_gamma 90.000000
_cell_volume 5966.063035
_symmetry_space_group_name_H-M "F M M M"
_symmetry_group_IT_number 69
_symmetry_cell_setting 'orthorhombic'
loop_
_space_group_symop_operation_xyz
x,y,z
-x,-y,z
x,-y,-z
-x,y,-z
-x,-y,-z
x,y,-z
-x,y,z
x,-y,z
x,1/2+y,1/2+z
-x,1/2-y,1/2+z
x,1/2-y,1/2-z
-x,1/2+y,1/2-z
-x,1/2-y,1/2-z
x,1/2+y,1/2-z
-x,1/2+y,1/2+z
x,1/2-y,1/2+z
1/2+x,y,1/2+z
1/2-x,-y,1/2+z
1/2+x,-y,1/2-z
1/2-x,y,1/2-z
1/2-x,-y,1/2-z
1/2+x,y,1/2-z
1/2-x,y,1/2+z
1/2+x,-y,1/2+z
1/2+x,1/2+y,z
1/2-x,1/2-y,z
1/2+x,1/2-y,-z
1/2-x,1/2+y,-z
1/2-x,1/2-y,-z
1/2+x,1/2+y,-z
1/2-x,1/2+y,z
1/2+x,1/2-y,z
loop_
_atom_site_type_symbol
_atom_site_label
_atom_site_fract_x
_atom_site_fract_y
_atom_site_fract_z
Si Si1 0.404382 0.216116 0.395366
Si Si2 0.210132 0.437897 0.847548
Si Si3 0.000000 0.500000 0.666399
Si Si4 0.408568 0.838963 0.109640
Si Si5 0.622046 0.407402 0.102473
O O1 0.377945 0.215017 0.500000
O O2 0.500000 0.216899 0.394293
O O3 0.380057 0.277038 0.357923
O O4 0.379110 0.155828 0.357557
O O5 0.176007 0.500000 0.864950
O O6 0.250000 0.436753 0.750000
O O7 0.146322 0.389607 0.860250
O O8 0.288130 0.427090 0.905419
O O9 0.069147 0.450714 0.657997
O O10 0.500000 0.846853 0.137521
O O11 0.407954 0.837213 0.000000
O O12 0.588935 0.406152 0.000000
#
# Coordination Sequence:
#
# PCOD9513644 Si02
#       5
#    32  32   8  32  32
#     4   8  15  30  55  87 118 145 180 233 289 342
#     4  11  25  42  54  80 117 153 193 239 294 346
#     4  12  21  32  58  96 118 146 193 232 281 348
#     4   9  19  39  65  88 112 149 197 242 287 340
#     4  11  20  34  59  88 118 148 187 236 285 341
#
# _framework density 22.795601999999999
#
# number of rings (size 3 to 8) (size 9 to 14) (size 15 to 20)
#    0.000    2.118    2.353    3.176    0.000    2.824 
#    2.118    7.059    0.000    2.824    0.000    0.000 
#    0.000    0.000    0.000    0.000    0.000    0.000 
#
# Total GULP energy -189433.102696 kJ/mol
# GULP energy per Si atom -5571.561844 kJ/mol
# Density = 2.274372 g / cm^3
# Si number density = 22.795602 Si / 1000 Ang^3
#
#
#
# Elastic Constant Matrix: (Units=GPa)
#
#
# Indices 1 2 3 4 5 6 
#
# 1 72.8748 80.7758 18.3755 0.0000 0.0000 0.0000
# 2 80.7758 281.8397 23.1887 0.0000 0.0000 0.0000
# 3 18.3755 23.1887 36.2702 0.0000 0.0000 0.0000
# 4 0.0000 0.0000 0.0000 22.6709 0.0000 0.0000
# 5 0.0000 0.0000 0.0000 0.0000 50.1858 0.0000
# 6 0.0000 0.0000 0.0000 0.0000 0.0000 44.8343
#
#
#
# Elastic Compliance Matrix: (Units=1/GPa)
#
#
# Indices 1 2 3 4 5 6 
#
# 1 0.021872 -0.005654 -0.007466 0.000000 0.000000 0.000000
# 2 -0.005654 0.005207 -0.000464 0.000000 0.000000 0.000000
# 3 -0.007466 -0.000464 0.031650 0.000000 0.000000 0.000000
# 4 0.000000 0.000000 0.000000 0.044109 0.000000 0.000000
# 5 0.000000 0.000000 0.000000 0.000000 0.019926 0.000000
# 6 0.000000 0.000000 0.000000 0.000000 0.000000 0.022304
#
#
# Mechanical properties :
#
#
# Convention : Reuss Voigt Hill
#
# Bulk Modulus (GPa) = 31.68583 70.62942 51.15762
# Shear Modulus (GPa) = 27.35858 41.44784 34.40321
#
# Velocity S-wave (km/s) = 3.46810 4.26871 3.88906
# Velocity P-wave (km/s) = 5.47423 7.43955 6.53123
#
# Compressibility (1/GPa) = 0.03155985
#
# Stress axis : x y z
#
# Youngs Moduli (GPa) = 45.72044 192.05485 31.59542
#
# Poissons Ratio (x) = 1.08593 0.23589
# Poissons Ratio (y) = 0.25852 0.01467
# Poissons Ratio (z) = 0.34135 0.08917
#
# Static dielectric constant tensor:
#      x y z
#    x 1.806790 0.000000 0.000000 
#    y 0.000000 1.861640 0.000000 
#    z 0.000000 0.000000 2.031890 
# 
# From -- ./inp_files/17552.got.cif
#   From: 2010.05.17/outbox.cif.g08.bks.cpg/sg69_9_cif.got.tgz:17552.got - 2010.06.03 19:29:58.
