data_PCOD9513072
_publ_section_title
;
Structure prediction by ZEFSAII (Michael W. Deem and Ramdas Pophale) SiO2 
 PCOD9513072
Probable space group: F M M M
;
_chemical_formula_sum "Si O2"
_cell_formula_units_Z 192
_cell_length_a 14.190710
_cell_length_b 27.480852
_cell_length_c 25.561003
_cell_angle_alpha 90.000000
_cell_angle_beta 90.000000
_cell_angle_gamma 90.000000
_cell_volume 9968.095944
_symmetry_space_group_name_H-M "F M M M"
_symmetry_group_IT_number 69
_symmetry_cell_setting 'orthorhombic'
loop_
_space_group_symop_operation_xyz
x,y,z
-x,-y,z
x,-y,-z
-x,y,-z
-x,-y,-z
x,y,-z
-x,y,z
x,-y,z
x,1/2+y,1/2+z
-x,1/2-y,1/2+z
x,1/2-y,1/2-z
-x,1/2+y,1/2-z
-x,1/2-y,1/2-z
x,1/2+y,1/2-z
-x,1/2+y,1/2+z
x,1/2-y,1/2+z
1/2+x,y,1/2+z
1/2-x,-y,1/2+z
1/2+x,-y,1/2-z
1/2-x,y,1/2-z
1/2-x,-y,1/2-z
1/2+x,y,1/2-z
1/2-x,y,1/2+z
1/2+x,-y,1/2+z
1/2+x,1/2+y,z
1/2-x,1/2-y,z
1/2+x,1/2-y,-z
1/2-x,1/2+y,-z
1/2-x,1/2-y,-z
1/2+x,1/2+y,-z
1/2-x,1/2+y,z
1/2+x,1/2-y,z
loop_
_atom_site_type_symbol
_atom_site_label
_atom_site_fract_x
_atom_site_fract_y
_atom_site_fract_z
Si Si1 0.612996 0.559280 0.500000
Si Si2 0.253316 0.582846 0.906893
Si Si3 0.698628 0.323862 0.857374
Si Si4 0.331356 0.945201 0.205987
Si Si5 0.105869 0.779127 0.657218
Si Si6 0.603975 0.652772 0.754730
Si Si7 0.895609 0.000000 0.937848
O O1 0.623288 0.500000 0.500000
O O2 0.500000 0.569655 0.500000
O O3 0.669752 0.579952 0.449699
O O4 0.308367 0.633695 0.899213
O O5 0.209814 0.566447 0.851258
O O6 0.333942 0.545540 0.921842
O O7 0.805391 0.306552 0.866810
O O8 0.630830 0.277112 0.853437
O O9 0.682595 0.346206 0.799517
O O10 0.250000 0.947586 0.250000
O O11 0.390386 0.897442 0.222365
O O12 0.374886 0.000000 0.205026
O O13 0.110740 0.800176 0.716749
O O14 0.000000 0.790046 0.639080
O O15 0.500000 0.654724 0.779783
O O16 0.000000 0.000000 0.914384
O O17 0.903033 0.000000 0.000000
#
# Coordination Sequence:
#
# PCOD9513072 Si02
#       7
#    16  32  32  32  32  32  16
#     4  11  24  44  74 103 126 168 234 290 338 389
#     4  12  21  42  66  94 134 167 215 276 328 387
#     4  11  22  36  61  89 125 170 208 271 329 376
#     4  11  21  36  57  87 132 180 208 251 321 396
#     4  10  21  37  58  87 124 167 222 269 314 378
#     4  11  21  36  56  88 131 176 224 262 313 387
#     4  11  24  44  69  96 124 166 219 268 320 389
#
# _framework density 19.261451999999998
#
# number of rings (size 3 to 8) (size 9 to 14) (size 15 to 20)
#    0.000    1.000    5.833    1.500    0.000    5.667 
#    0.000    0.000    0.000    2.000    0.000    1.167 
#    0.000    0.000    0.000    0.000    0.000    0.000 
#
# Total GULP energy -267480.390715 kJ/mol
# GULP energy per Si atom -5572.508140 kJ/mol
# Density = 1.921761 g / cm^3
# Si number density = 19.261452 Si / 1000 Ang^3
#
#
#
# Elastic Constant Matrix: (Units=GPa)
#
#
# Indices 1 2 3 4 5 6 
#
# 1 122.3484 44.3981 30.4522 0.0000 0.0000 0.0000
# 2 44.3981 138.5838 29.7645 0.0000 0.0000 0.0000
# 3 30.4522 29.7645 79.9579 0.0000 0.0000 0.0000
# 4 0.0000 0.0000 0.0000 5.4261 0.0000 0.0000
# 5 0.0000 0.0000 0.0000 0.0000 2.2803 0.0000
# 6 0.0000 0.0000 0.0000 0.0000 0.0000 31.4977
#
#
#
# Elastic Compliance Matrix: (Units=1/GPa)
#
#
# Indices 1 2 3 4 5 6 
#
# 1 0.009787 -0.002538 -0.002783 0.000000 0.000000 0.000000
# 2 -0.002538 0.008501 -0.002198 0.000000 0.000000 0.000000
# 3 -0.002783 -0.002198 0.014385 0.000000 0.000000 0.000000
# 4 0.000000 0.000000 0.000000 0.184293 0.000000 0.000000
# 5 0.000000 0.000000 0.000000 0.000000 0.438530 0.000000
# 6 0.000000 0.000000 0.000000 0.000000 0.000000 0.031748
#
#
# Mechanical properties :
#
#
# Convention : Reuss Voigt Hill
#
# Bulk Modulus (GPa) = 56.70360 61.12439 58.91400
# Shear Modulus (GPa) = 7.06056 23.59252 15.32654
#
# Velocity S-wave (km/s) = 1.91666 3.50359 2.82389
# Velocity P-wave (km/s) = 5.86523 6.94045 6.42537
#
# Compressibility (1/GPa) = 0.01763557
#
# Stress axis : x y z
#
# Youngs Moduli (GPa) = 102.17743 117.63396 69.51894
#
# Poissons Ratio (x) = 0.29853 0.19345
# Poissons Ratio (y) = 0.25930 0.15280
# Poissons Ratio (z) = 0.28433 0.25856
#
# Static dielectric constant tensor:
#      x y z
#    x 1.682310 0.000000 0.000000 
#    y 0.000000 1.743020 0.000000 
#    z 0.000000 0.000000 1.656610 
# 
# From -- ./inp_files/36087.got.cif
#   From: 2010.05.17/outbox.cif.g08.bks.cpg/sg69_19_cif.got.tgz:36087.got - 2010.06.03 19:29:58.
