data_PCOD9513984
_publ_section_title
;
Structure prediction by ZEFSAII (Michael W. Deem and Ramdas Pophale) SiO2 
 PCOD9513984
Probable space group: F M M M
;
_chemical_formula_sum "Si O2"
_cell_formula_units_Z 40
_cell_length_a 18.000000
_cell_length_b 27.000000
_cell_length_c 18.000000
_cell_angle_alpha 90.000000
_cell_angle_beta 90.000000
_cell_angle_gamma 90.000000
_cell_volume 8748.000000
_symmetry_space_group_name_H-M "F M M M"
_symmetry_group_IT_number 69
_symmetry_cell_setting 'orthorhombic'
loop_
_space_group_symop_operation_xyz
x,y,z
-x,-y,z
x,-y,-z
-x,y,-z
-x,-y,-z
x,y,-z
-x,y,z
x,-y,z
x,1/2+y,1/2+z
-x,1/2-y,1/2+z
x,1/2-y,1/2-z
-x,1/2+y,1/2-z
-x,1/2-y,1/2-z
x,1/2+y,1/2-z
-x,1/2+y,1/2+z
x,1/2-y,1/2+z
1/2+x,y,1/2+z
1/2-x,-y,1/2+z
1/2+x,-y,1/2-z
1/2-x,y,1/2-z
1/2-x,-y,1/2-z
1/2+x,y,1/2-z
1/2-x,y,1/2+z
1/2+x,-y,1/2+z
1/2+x,1/2+y,z
1/2-x,1/2-y,z
1/2+x,1/2-y,-z
1/2-x,1/2+y,-z
1/2-x,1/2-y,-z
1/2+x,1/2+y,-z
1/2-x,1/2+y,z
1/2+x,1/2-y,z
loop_
_atom_site_type_symbol
_atom_site_label
_atom_site_fract_x
_atom_site_fract_y
_atom_site_fract_z
Si Si1 0.371987 0.663519 0.588843
Si Si2 0.582854 0.734423 0.163948
Si Si3 0.292630 0.444093 0.086568
Si Si4 0.387495 0.445533 0.413104
Si Si5 0.214992 0.654745 0.666434
O O1 0.377148 0.662490 0.500000
O O2 0.406745 0.714130 0.619377
O O3 0.405403 0.610052 0.616591
O O4 0.285737 0.665186 0.613704
O O5 0.500000 0.714114 0.147203
O O6 0.584917 0.750000 0.250000
O O7 0.650181 0.695293 0.154882
O O8 0.318691 0.500000 0.105339
O O9 0.202507 0.445878 0.088925
O O10 0.314186 0.399708 0.141794
O O11 0.312528 0.433692 0.000000
O O12 0.409698 0.445791 0.500000
O O13 0.411153 0.500000 0.382085
O O14 0.250000 0.655335 0.750000
#
# Coordination Sequence:
#
# PCOD9513984 Si02
#       5
#    32  32  32  32  32
#     4  10  20  34  57  85 109 141 186 233 272 321
#     4  11  24  40  54  72 110 154 185 225 282 335
#     4   8  15  29  50  80 116 143 169 219 277 322
#     4   7  11  23  45  75 108 134 160 208 272 319
#     4  11  20  33  57  84 108 143 186 229 274 331
#
# _framework density 4.5724739999999997
#
# number of rings (size 3 to 8) (size 9 to 14) (size 15 to 20)
#    0.000    2.600    2.000    3.600    0.000    3.200 
#    0.000    0.000    0.000    1.200    0.000    7.000 
#    0.000    0.000    0.000    2.200    0.000    0.000 
#
# Total GULP energy -222712.066150 kJ/mol
# GULP energy per Si atom -5567.801654 kJ/mol
# Density = 0.456207 g / cm^3
# Si number density = 4.572474 Si / 1000 Ang^3
#
#
#
# Elastic Constant Matrix: (Units=GPa)
#
#
# Indices 1 2 3 4 5 6 
#
# 1 72.2899 53.9470 10.6552 0.0000 0.0000 0.0000
# 2 53.9470 180.0368 50.5519 0.0000 0.0000 0.0000
# 3 10.6552 50.5519 58.6883 0.0000 0.0000 0.0000
# 4 0.0000 0.0000 0.0000 28.2170 0.0000 0.0000
# 5 0.0000 0.0000 0.0000 0.0000 85.6031 0.0000
# 6 0.0000 0.0000 0.0000 0.0000 0.0000 -5.8458
#
#
#
# Elastic Compliance Matrix: (Units=1/GPa)
#
#
# Indices 1 2 3 4 5 6 
#
# 1 0.017963 -0.005892 0.001814 0.000000 0.000000 0.000000
# 2 -0.005892 0.009259 -0.006906 0.000000 0.000000 0.000000
# 3 0.001814 -0.006906 0.022658 0.000000 0.000000 0.000000
# 4 0.000000 0.000000 0.000000 0.035440 0.000000 0.000000
# 5 0.000000 0.000000 0.000000 0.000000 0.011682 0.000000
# 6 0.000000 0.000000 0.000000 0.000000 0.000000 -0.171062
#
#
# Mechanical properties :
#
#
# Convention : Reuss Voigt Hill
#
# Bulk Modulus (GPa) = 35.82646 60.14704 47.98675
# Shear Modulus (GPa) = -116.84878 34.65224 -41.09827
#
# Velocity S-wave (km/s) = -8.00161 4.35744 -4.74545
# Velocity P-wave (km/s) = 8.10784 7.63368 1.93183
#
# Compressibility (1/GPa) = 0.02791233
#
# Stress axis : x y z
#
# Youngs Moduli (GPa) = 55.67144 108.00555 44.13442
#
# Poissons Ratio (x) = 0.63633 -0.08004
# Poissons Ratio (y) = 0.32799 0.30477
# Poissons Ratio (z) = -0.10097 0.74583
#
# Static dielectric constant tensor:
#      x y z
#    x 1.632640 0.000000 0.000000 
#    y 0.000000 1.699560 0.000000 
#    z 0.000000 0.000000 1.622980 
# 
# From -- ./inp_files/23099.got.cif
#   From: 2010.05.17/outbox.ucp.g08.bks.cvg/sg69_12_cif.got.tgz:23099.got - 2010.06.11 16:51:34.
