data_PCOD9513880
_publ_section_title
;
Structure prediction by ZEFSAII (Michael W. Deem and Ramdas Pophale) SiO2 
 PCOD9513880
Probable space group: F M M M
;
_chemical_formula_sum "Si O2"
_cell_formula_units_Z 128
_cell_length_a 8.717994
_cell_length_b 24.206480
_cell_length_c 31.514114
_cell_angle_alpha 90.000000
_cell_angle_beta 90.000000
_cell_angle_gamma 90.000000
_cell_volume 6650.484848
_symmetry_space_group_name_H-M "F M M M"
_symmetry_group_IT_number 69
_symmetry_cell_setting 'orthorhombic'
loop_
_space_group_symop_operation_xyz
x,y,z
-x,-y,z
x,-y,-z
-x,y,-z
-x,-y,-z
x,y,-z
-x,y,z
x,-y,z
x,1/2+y,1/2+z
-x,1/2-y,1/2+z
x,1/2-y,1/2-z
-x,1/2+y,1/2-z
-x,1/2-y,1/2-z
x,1/2+y,1/2-z
-x,1/2+y,1/2+z
x,1/2-y,1/2+z
1/2+x,y,1/2+z
1/2-x,-y,1/2+z
1/2+x,-y,1/2-z
1/2-x,y,1/2-z
1/2-x,-y,1/2-z
1/2+x,y,1/2-z
1/2-x,y,1/2+z
1/2+x,-y,1/2+z
1/2+x,1/2+y,z
1/2-x,1/2-y,z
1/2+x,1/2-y,-z
1/2-x,1/2+y,-z
1/2-x,1/2-y,-z
1/2+x,1/2+y,-z
1/2-x,1/2+y,z
1/2+x,1/2-y,z
loop_
_atom_site_type_symbol
_atom_site_label
_atom_site_fract_x
_atom_site_fract_y
_atom_site_fract_z
Si Si1 0.183325 0.885212 0.548303
Si Si2 0.816184 0.884624 0.205687
Si Si3 0.683630 0.500000 0.674879
Si Si4 0.683926 0.688657 0.876527
Si Si5 0.183636 0.000000 0.920459
O O1 0.215843 0.867558 0.500000
O O2 0.249041 0.843400 0.582993
O O3 0.000000 0.889806 0.553423
O O4 0.257458 0.945008 0.556590
O O5 0.750000 0.862952 0.250000
O O6 0.776149 0.845875 0.165825
O O7 0.000000 0.889054 0.208006
O O8 0.745572 0.944933 0.197182
O O9 0.500000 0.500000 0.674592
O O10 0.747764 0.500000 0.626959
O O11 0.500000 0.690294 0.879785
O O12 0.750000 0.750000 0.874180
O O13 0.000000 0.000000 0.918089
#
# Coordination Sequence:
#
# PCOD9513880 Si02
#       5
#    32  32  16  32  16
#     4  11  24  42  66  96 129 167 212 260 315 377
#     4  11  24  42  65  95 129 167 210 260 316 378
#     4  12  23  38  65  95 129 170 207 258 316 374
#     4  11  25  44  67  92 125 167 215 266 317 374
#     4  12  23  38  63  96 132 169 208 254 316 382
#
# _framework density 19.246718000000001
#
# number of rings (size 3 to 8) (size 9 to 14) (size 15 to 20)
#    0.000    0.750    2.500    5.250    0.000    7.500 
#    0.000    2.500    0.000    0.000    0.000    0.000 
#    0.000    0.000    0.000    0.000    0.000    0.000 
#
# Total GULP energy -179122.581382 kJ/mol
# GULP energy per Si atom -5597.580668 kJ/mol
# Density = 1.920291 g / cm^3
# Si number density = 19.246718 Si / 1000 Ang^3
#
#
#
# Elastic Constant Matrix: (Units=GPa)
#
#
# Indices 1 2 3 4 5 6 
#
# 1 106.8853 67.5535 85.5711 0.0000 0.0000 0.0000
# 2 67.5535 157.3756 84.1916 0.0000 0.0000 0.0000
# 3 85.5711 84.1916 185.3379 0.0000 0.0000 0.0000
# 4 0.0000 0.0000 0.0000 -5.5183 0.0000 0.0000
# 5 0.0000 0.0000 0.0000 0.0000 33.6373 0.0000
# 6 0.0000 0.0000 0.0000 0.0000 0.0000 13.3514
#
#
#
# Elastic Compliance Matrix: (Units=1/GPa)
#
#
# Indices 1 2 3 4 5 6 
#
# 1 0.016537 -0.003981 -0.005826 0.000000 0.000000 0.000000
# 2 -0.003981 0.009353 -0.002410 0.000000 0.000000 0.000000
# 3 -0.005826 -0.002410 0.009181 0.000000 0.000000 0.000000
# 4 0.000000 0.000000 0.000000 -0.181216 0.000000 0.000000
# 5 0.000000 0.000000 0.000000 0.000000 0.029729 0.000000
# 6 0.000000 0.000000 0.000000 0.000000 0.000000 0.074898
#
#
# Mechanical properties :
#
#
# Convention : Reuss Voigt Hill
#
# Bulk Modulus (GPa) = 94.04149 102.69236 98.36692
# Shear Modulus (GPa) = -369.32739 22.44626 -173.44056
#
# Velocity S-wave (km/s) = -13.86750 3.41873 -9.50316
# Velocity P-wave (km/s) = 14.40289 8.30995 8.31829
#
# Compressibility (1/GPa) = 0.01063360
#
# Stress axis : x y z
#
# Youngs Moduli (GPa) = 60.47135 106.92102 108.92555
#
# Poissons Ratio (x) = 0.42569 0.63465
# Poissons Ratio (y) = 0.24076 0.26255
# Poissons Ratio (z) = 0.35234 0.25772
#
# Static dielectric constant tensor:
#      x y z
#    x 1.641250 0.000000 0.000000 
#    y 0.000000 1.630780 0.000000 
#    z 0.000000 0.000000 1.676770 
# 
# From -- ./inp_files/44399.got.cif
#   From: 2010.05.17/outbox.cif.g08.bks.cpg/sg69_23_cif.got.tgz:44399.got - 2010.06.03 19:29:58.
