data_PCOD9513773
_publ_section_title
;
Structure prediction by ZEFSAII (Michael W. Deem and Ramdas Pophale) SiO2 
 PCOD9513773
Probable space group: F M M M
;
_chemical_formula_sum "Si O2"
_cell_formula_units_Z 136
_cell_length_a 18.729592
_cell_length_b 11.729298
_cell_length_c 26.728875
_cell_angle_alpha 90.000000
_cell_angle_beta 90.000000
_cell_angle_gamma 90.000000
_cell_volume 5871.931995
_symmetry_space_group_name_H-M "F M M M"
_symmetry_group_IT_number 69
_symmetry_cell_setting 'orthorhombic'
loop_
_space_group_symop_operation_xyz
x,y,z
-x,-y,z
x,-y,-z
-x,y,-z
-x,-y,-z
x,y,-z
-x,y,z
x,-y,z
x,1/2+y,1/2+z
-x,1/2-y,1/2+z
x,1/2-y,1/2-z
-x,1/2+y,1/2-z
-x,1/2-y,1/2-z
x,1/2+y,1/2-z
-x,1/2+y,1/2+z
x,1/2-y,1/2+z
1/2+x,y,1/2+z
1/2-x,-y,1/2+z
1/2+x,-y,1/2-z
1/2-x,y,1/2-z
1/2-x,-y,1/2-z
1/2+x,y,1/2-z
1/2-x,y,1/2+z
1/2+x,-y,1/2+z
1/2+x,1/2+y,z
1/2-x,1/2-y,z
1/2+x,1/2-y,-z
1/2-x,1/2+y,-z
1/2-x,1/2-y,-z
1/2+x,1/2+y,-z
1/2-x,1/2+y,z
1/2+x,1/2-y,z
loop_
_atom_site_type_symbol
_atom_site_label
_atom_site_fract_x
_atom_site_fract_y
_atom_site_fract_z
Si Si1 0.921888 0.206432 0.806379
Si Si2 0.219934 0.377257 0.656269
Si Si3 0.359171 0.343427 0.056758
Si Si4 0.000000 0.500000 0.425197
Si Si5 0.083021 0.370794 0.099870
O O1 0.920311 0.250000 0.750000
O O2 0.856634 0.124427 0.816490
O O3 0.913494 0.310620 0.845581
O O4 0.000000 0.153456 0.816283
O O5 0.255595 0.500000 0.668652
O O6 0.250000 0.250000 0.668502
O O7 0.199736 0.376019 0.597577
O O8 0.435423 0.402397 0.070630
O O9 0.372117 0.209217 0.063875
O O10 0.341716 0.371446 0.000000
O O11 0.107546 0.500000 0.101689
O O12 0.000000 0.369772 0.084889
#
# Coordination Sequence:
#
# PCOD9513773 Si02
#       5
#    32  32  32   8  32
#     4   9  20  40  68 101 130 162 208 272 336 392
#     4  11  26  44  65  92 131 176 222 269 324 393
#     4  11  22  37  63  94 125 163 210 268 326 380
#     4  12  21  36  66 102 126 150 210 286 340 376
#     4   9  18  32  52  85 130 166 193 238 308 384
#
# _framework density 23.161031999999999
#
# number of rings (size 3 to 8) (size 9 to 14) (size 15 to 20)
#    0.000    1.882    2.353    1.059    1.647    6.588 
#    0.000    4.706    0.000    0.000    0.000    0.000 
#    0.000    0.000    0.000    0.000    0.000    0.000 
#
# Total GULP energy -189343.448012 kJ/mol
# GULP energy per Si atom -5568.924942 kJ/mol
# Density = 2.310832 g / cm^3
# Si number density = 23.161032 Si / 1000 Ang^3
#
#
#
# Elastic Constant Matrix: (Units=GPa)
#
#
# Indices 1 2 3 4 5 6 
#
# 1 67.7070 36.5259 -2.2205 0.0000 0.0000 0.0000
# 2 36.5259 206.0844 -4.3962 0.0000 0.0000 0.0000
# 3 -2.2205 -4.3962 71.9383 0.0000 0.0000 0.0000
# 4 0.0000 0.0000 0.0000 -11.3419 0.0000 0.0000
# 5 0.0000 0.0000 0.0000 0.0000 7.6594 0.0000
# 6 0.0000 0.0000 0.0000 0.0000 0.0000 17.8299
#
#
#
# Elastic Compliance Matrix: (Units=1/GPa)
#
#
# Indices 1 2 3 4 5 6 
#
# 1 0.016339 -0.002889 0.000328 0.000000 0.000000 0.000000
# 2 -0.002889 0.005369 0.000239 0.000000 0.000000 0.000000
# 3 0.000328 0.000239 0.013926 0.000000 0.000000 0.000000
# 4 0.000000 0.000000 0.000000 -0.088168 0.000000 0.000000
# 5 0.000000 0.000000 0.000000 0.000000 0.130558 0.000000
# 6 0.000000 0.000000 0.000000 0.000000 0.000000 0.056086
#
#
# Mechanical properties :
#
#
# Convention : Reuss Voigt Hill
#
# Bulk Modulus (GPa) = 32.26898 45.06091 38.66495
# Shear Modulus (GPa) = 33.53840 23.88418 28.71129
#
# Velocity S-wave (km/s) = 3.80946 3.21475 3.52467
# Velocity P-wave (km/s) = 5.77165 5.76864 5.77015
#
# Compressibility (1/GPa) = 0.03098951
#
# Stress axis : x y z
#
# Youngs Moduli (GPa) = 61.20431 186.23736 71.81064
#
# Poissons Ratio (x) = 0.53801 -0.02354
# Poissons Ratio (y) = 0.17681 -0.01716
# Poissons Ratio (z) = -0.02006 -0.04450
#
# Static dielectric constant tensor:
#      x y z
#    x 1.915490 0.000000 0.000000 
#    y 0.000000 1.933370 0.000000 
#    z 0.000000 0.000000 1.859720 
# 
# From -- ./inp_files/9473.got.cif
#   From: 2010.05.17/outbox.cif.g08.bks.cpg/sg69_5_cif.got.tgz:9473.got - 2010.06.03 19:29:58.
