data_PCOD9513544
_publ_section_title
;
Structure prediction by ZEFSAII (Michael W. Deem and Ramdas Pophale) SiO2 
 PCOD9513544
Probable space group: F M M M
;
_chemical_formula_sum "Si O2"
_cell_formula_units_Z 208
_cell_length_a 21.306781
_cell_length_b 28.153698
_cell_length_c 19.621690
_cell_angle_alpha 90.000000
_cell_angle_beta 90.000000
_cell_angle_gamma 90.000000
_cell_volume 11770.358746
_symmetry_space_group_name_H-M "F M M M"
_symmetry_group_IT_number 69
_symmetry_cell_setting 'orthorhombic'
loop_
_space_group_symop_operation_xyz
x,y,z
-x,-y,z
x,-y,-z
-x,y,-z
-x,-y,-z
x,y,-z
-x,y,z
x,-y,z
x,1/2+y,1/2+z
-x,1/2-y,1/2+z
x,1/2-y,1/2-z
-x,1/2+y,1/2-z
-x,1/2-y,1/2-z
x,1/2+y,1/2-z
-x,1/2+y,1/2+z
x,1/2-y,1/2+z
1/2+x,y,1/2+z
1/2-x,-y,1/2+z
1/2+x,-y,1/2-z
1/2-x,y,1/2-z
1/2-x,-y,1/2-z
1/2+x,y,1/2-z
1/2-x,y,1/2+z
1/2+x,-y,1/2+z
1/2+x,1/2+y,z
1/2-x,1/2-y,z
1/2+x,1/2-y,-z
1/2-x,1/2+y,-z
1/2-x,1/2-y,-z
1/2+x,1/2+y,-z
1/2-x,1/2+y,z
1/2+x,1/2-y,z
loop_
_atom_site_type_symbol
_atom_site_label
_atom_site_fract_x
_atom_site_fract_y
_atom_site_fract_z
Si Si1 0.500000 0.057793 0.421258
Si Si2 0.624965 0.443751 0.840552
Si Si3 0.073280 0.897285 0.288079
Si Si4 0.622409 0.444040 0.421076
Si Si5 0.254253 0.803093 0.636331
Si Si6 0.260978 0.096411 0.423351
Si Si7 0.643798 0.696910 0.749491
O O1 0.500000 0.072917 0.500000
O O2 0.436773 0.072907 0.382371
O O3 0.500000 0.000000 0.420148
O O4 0.630713 0.500000 0.849447
O O5 0.612780 0.431071 0.762195
O O6 0.686970 0.419680 0.869868
O O7 0.087602 0.912060 0.365493
O O8 0.095843 0.844526 0.268401
O O9 0.000000 0.903567 0.274483
O O10 0.605095 0.434053 0.500000
O O11 0.611293 0.500000 0.408396
O O12 0.696297 0.432064 0.414129
O O13 0.250000 0.750000 0.605972
O O14 0.247826 0.847732 0.587120
O O15 0.318817 0.809100 0.679288
O O16 0.198300 0.804815 0.691979
O O17 0.284237 0.087208 0.500000
O O18 0.616320 0.750000 0.750000
#
# Coordination Sequence:
#
# PCOD9513544 Si02
#       7
#    16  32  32  32  32  32  32
#     4   9  18  34  52  72 108 155 191 223 265 314
#     4  11  22  35  53  82 116 150 190 230 270 331
#     4  12  23  37  60  85 110 148 195 239 282 338
#     4  10  23  41  58  81 115 152 191 240 293 340
#     4   9  17  33  58  83 109 143 182 227 288 345
#     4  11  21  35  57  84 114 150 189 232 286 343
#     4   9  18  35  58  83 111 140 179 231 287 343
#
# _framework density 17.671509
#
# number of rings (size 3 to 8) (size 9 to 14) (size 15 to 20)
#    0.000    1.769    3.846    2.308    0.000    4.000 
#    0.000    2.308    0.000    0.000    0.000    0.000 
#    0.000    0.000    0.000    0.000    0.000    0.000 
#
# Total GULP energy -290128.932330 kJ/mol
# GULP energy per Si atom -5579.402545 kJ/mol
# Density = 1.763129 g / cm^3
# Si number density = 17.671509 Si / 1000 Ang^3
#
#
#
# Elastic Constant Matrix: (Units=GPa)
#
#
# Indices 1 2 3 4 5 6 
#
# 1 35.7724 17.3500 18.1043 0.0000 0.0000 0.0000
# 2 17.3500 84.7571 20.7454 0.0000 0.0000 0.0000
# 3 18.1043 20.7454 65.2053 0.0000 0.0000 0.0000
# 4 0.0000 0.0000 0.0000 21.8281 0.0000 0.0000
# 5 0.0000 0.0000 0.0000 0.0000 19.7535 0.0000
# 6 0.0000 0.0000 0.0000 0.0000 0.0000 14.0719
#
#
#
# Elastic Compliance Matrix: (Units=1/GPa)
#
#
# Indices 1 2 3 4 5 6 
#
# 1 0.034451 -0.005109 -0.007940 0.000000 0.000000 0.000000
# 2 -0.005109 0.013552 -0.002893 0.000000 0.000000 0.000000
# 3 -0.007940 -0.002893 0.018461 0.000000 0.000000 0.000000
# 4 0.000000 0.000000 0.000000 0.045813 0.000000 0.000000
# 5 0.000000 0.000000 0.000000 0.000000 0.050624 0.000000
# 6 0.000000 0.000000 0.000000 0.000000 0.000000 0.071064
#
#
# Mechanical properties :
#
#
# Convention : Reuss Voigt Hill
#
# Bulk Modulus (GPa) = 28.91815 33.12601 31.02208
# Shear Modulus (GPa) = 18.02614 19.76637 18.89625
#
# Velocity S-wave (km/s) = 3.19731 3.34809 3.27357
# Velocity P-wave (km/s) = 5.47998 5.80796 5.64636
#
# Compressibility (1/GPa) = 0.03458036
#
# Stress axis : x y z
#
# Youngs Moduli (GPa) = 29.02708 73.78779 54.16763
#
# Poissons Ratio (x) = 0.37696 0.43008
# Poissons Ratio (y) = 0.14829 0.15672
# Poissons Ratio (z) = 0.23047 0.21349
#
# Static dielectric constant tensor:
#      x y z
#    x 1.574760 0.000000 0.000000 
#    y 0.000000 1.608450 0.000000 
#    z 0.000000 0.000000 1.603890 
# 
# From -- ./inp_files/26133.got.cif
#   From: 2010.05.17/outbox.cif.g08.bks.cpg/sg69_14_cif.got.tgz:26133.got - 2010.06.03 19:29:58.
