data_PCOD9513441
_publ_section_title
;
Structure prediction by ZEFSAII (Michael W. Deem and Ramdas Pophale) SiO2 
 PCOD9513441
Probable space group: F M M M
;
_chemical_formula_sum "Si O2"
_cell_formula_units_Z 80
_cell_length_a 7.690984
_cell_length_b 22.851180
_cell_length_c 21.310684
_cell_angle_alpha 90.000000
_cell_angle_beta 90.000000
_cell_angle_gamma 90.000000
_cell_volume 3745.311365
_symmetry_space_group_name_H-M "F M M M"
_symmetry_group_IT_number 69
_symmetry_cell_setting 'orthorhombic'
loop_
_space_group_symop_operation_xyz
x,y,z
-x,-y,z
x,-y,-z
-x,y,-z
-x,-y,-z
x,y,-z
-x,y,z
x,-y,z
x,1/2+y,1/2+z
-x,1/2-y,1/2+z
x,1/2-y,1/2-z
-x,1/2+y,1/2-z
-x,1/2-y,1/2-z
x,1/2+y,1/2-z
-x,1/2+y,1/2+z
x,1/2-y,1/2+z
1/2+x,y,1/2+z
1/2-x,-y,1/2+z
1/2+x,-y,1/2-z
1/2-x,y,1/2-z
1/2-x,-y,1/2-z
1/2+x,y,1/2-z
1/2-x,y,1/2+z
1/2+x,-y,1/2+z
1/2+x,1/2+y,z
1/2-x,1/2-y,z
1/2+x,1/2-y,-z
1/2-x,1/2+y,-z
1/2-x,1/2-y,-z
1/2+x,1/2+y,-z
1/2-x,1/2+y,z
1/2+x,1/2-y,z
loop_
_atom_site_type_symbol
_atom_site_label
_atom_site_fract_x
_atom_site_fract_y
_atom_site_fract_z
Si Si1 0.800949 0.128028 0.149385
Si Si2 0.707359 0.500000 0.176098
Si Si3 0.500000 0.209290 0.189475
Si Si4 0.000000 0.295621 0.569732
O O1 0.668330 0.168351 0.186190
O O2 0.836901 0.161201 0.083706
O O3 0.000000 0.126404 0.176608
O O4 0.733142 0.061805 0.147585
O O5 0.500000 0.500000 0.167713
O O6 0.750000 0.500000 0.250000
O O7 0.500000 0.250000 0.250000
O O8 0.500000 0.248991 0.126183
O O9 0.000000 0.271998 0.500000
#
# Coordination Sequence:
#
# PCOD9513441 Si02
#       4
#    32  16  16  16
#     4   9  24  42  62  98 129 173 226 273 338 397
#     4  10  22  40  62  94 133 172 214 272 340 405
#     4  12  26  39  67 103 139 175 221 283 339 408
#     4  10  24  47  68  93 136 182 224 275 338 404
#
# _framework density 21.360040999999999
#
# number of rings (size 3 to 8) (size 9 to 14) (size 15 to 20)
#    1.200    0.800    0.000    1.200    8.400    5.600 
#    0.000    2.000    0.000    0.000    0.000    4.200 
#    0.000    0.000    0.000    0.000    0.000    0.000 
#
# Total GULP energy -111550.814515 kJ/mol
# GULP energy per Si atom -5577.540726 kJ/mol
# Density = 2.131142 g / cm^3
# Si number density = 21.360041 Si / 1000 Ang^3
#
#
#
# Elastic Constant Matrix: (Units=GPa)
#
#
# Indices 1 2 3 4 5 6 
#
# 1 84.4926 53.7561 32.2231 0.0000 0.0000 0.0000
# 2 53.7561 203.5054 67.5241 0.0000 0.0000 0.0000
# 3 32.2231 67.5241 126.7815 0.0000 0.0000 0.0000
# 4 0.0000 0.0000 0.0000 19.9105 0.0000 0.0000
# 5 0.0000 0.0000 0.0000 0.0000 16.2991 0.0000
# 6 0.0000 0.0000 0.0000 0.0000 0.0000 14.5493
#
#
#
# Elastic Compliance Matrix: (Units=1/GPa)
#
#
# Indices 1 2 3 4 5 6 
#
# 1 0.014639 -0.003197 -0.002018 0.000000 0.000000 0.000000
# 2 -0.003197 0.006667 -0.002738 0.000000 0.000000 0.000000
# 3 -0.002018 -0.002738 0.009859 0.000000 0.000000 0.000000
# 4 0.000000 0.000000 0.000000 0.050225 0.000000 0.000000
# 5 0.000000 0.000000 0.000000 0.000000 0.061353 0.000000
# 6 0.000000 0.000000 0.000000 0.000000 0.000000 0.068732
#
#
# Mechanical properties :
#
#
# Convention : Reuss Voigt Hill
#
# Bulk Modulus (GPa) = 65.53866 80.19848 72.86857
# Shear Modulus (GPa) = 21.50842 27.57022 24.53932
#
# Velocity S-wave (km/s) = 3.17669 3.59658 3.39313
# Velocity P-wave (km/s) = 6.64865 7.40775 7.03844
#
# Compressibility (1/GPa) = 0.01525817
#
# Stress axis : x y z
#
# Youngs Moduli (GPa) = 68.30995 149.99178 101.43223
#
# Poissons Ratio (x) = 0.47959 0.20467
# Poissons Ratio (y) = 0.21842 0.27774
# Poissons Ratio (z) = 0.13783 0.41071
#
# Static dielectric constant tensor:
#      x y z
#    x 1.857330 0.000000 0.000000 
#    y 0.000000 1.841450 0.000000 
#    z 0.000000 0.000000 1.744050 
# 
# From -- ./inp_files/20270.got.cif
#   From: 2010.05.17/outbox.cif.g08.bks.cpg/sg69_11_cif.got.tgz:20270.got - 2010.06.03 19:29:58.
