data_PCOD9513742
_publ_section_title
;
Structure prediction by ZEFSAII (Michael W. Deem and Ramdas Pophale) SiO2 
 PCOD9513742
Probable space group: F M M M
;
_chemical_formula_sum "Si O2"
_cell_formula_units_Z 160
_cell_length_a 14.572180
_cell_length_b 19.016106
_cell_length_c 28.127910
_cell_angle_alpha 90.000000
_cell_angle_beta 90.000000
_cell_angle_gamma 90.000000
_cell_volume 7794.415991
_symmetry_space_group_name_H-M "F M M M"
_symmetry_group_IT_number 69
_symmetry_cell_setting 'orthorhombic'
loop_
_space_group_symop_operation_xyz
x,y,z
-x,-y,z
x,-y,-z
-x,y,-z
-x,-y,-z
x,y,-z
-x,y,z
x,-y,z
x,1/2+y,1/2+z
-x,1/2-y,1/2+z
x,1/2-y,1/2-z
-x,1/2+y,1/2-z
-x,1/2-y,1/2-z
x,1/2+y,1/2-z
-x,1/2+y,1/2+z
x,1/2-y,1/2+z
1/2+x,y,1/2+z
1/2-x,-y,1/2+z
1/2+x,-y,1/2-z
1/2-x,y,1/2-z
1/2-x,-y,1/2-z
1/2+x,y,1/2-z
1/2-x,y,1/2+z
1/2+x,-y,1/2+z
1/2+x,1/2+y,z
1/2-x,1/2-y,z
1/2+x,1/2-y,-z
1/2-x,1/2+y,-z
1/2-x,1/2-y,-z
1/2+x,1/2+y,-z
1/2-x,1/2+y,z
1/2+x,1/2-y,z
loop_
_atom_site_type_symbol
_atom_site_label
_atom_site_fract_x
_atom_site_fract_y
_atom_site_fract_z
Si Si1 0.200257 0.083111 0.299010
Si Si2 0.000000 0.198608 0.184180
Si Si3 0.391007 0.423318 0.442359
Si Si4 0.110409 0.234917 0.443963
Si Si5 0.000000 0.145828 0.707870
Si Si6 0.306896 0.317516 0.861841
O O1 0.250000 0.109303 0.250000
O O2 0.249442 0.116242 0.344644
O O3 0.093526 0.103975 0.299948
O O4 0.209027 0.000000 0.299467
O O5 0.000000 0.174190 0.238384
O O6 0.000000 0.282923 0.177464
O O7 0.905939 0.172855 0.162004
O O8 0.381649 0.423108 0.500000
O O9 0.500000 0.424645 0.432055
O O10 0.353805 0.500000 0.425662
O O11 0.362008 0.344425 0.427508
O O12 0.127808 0.240670 0.500000
O O13 0.164922 0.293601 0.414816
O O14 0.000000 0.242039 0.437143
O O15 0.250000 0.250000 0.842082
#
# Coordination Sequence:
#
# PCOD9513742 Si02
#       6
#    32  16  32  32  16  32
#     4  11  24  41  64  98 134 171 214 266 328 395
#     4  11  22  36  65 100 126 167 214 261 327 393
#     4   7  10  20  42  75 113 151 196 253 318 383
#     4   9  18  33  57  87 121 169 228 285 338 391
#     4  11  21  40  68  96 135 169 209 265 322 401
#     4  12  23  39  62  91 133 170 220 273 325 397
#
# _framework density 20.527517
#
# number of rings (size 3 to 8) (size 9 to 14) (size 15 to 20)
#    0.000    2.000    5.000    2.100    0.000    0.800 
#    0.000    1.500    0.000    0.600    0.000    1.400 
#    0.000    1.600    0.000    0.000    0.000    4.300 
#
# Total GULP energy -223209.934033 kJ/mol
# GULP energy per Si atom -5580.248351 kJ/mol
# Density = 2.048080 g / cm^3
# Si number density = 20.527517 Si / 1000 Ang^3
#
#
#
# Elastic Constant Matrix: (Units=GPa)
#
#
# Indices 1 2 3 4 5 6 
#
# 1 142.4730 48.1897 52.0804 0.0000 0.0000 0.0000
# 2 48.1897 107.7749 50.3784 0.0000 0.0000 0.0000
# 3 52.0804 50.3784 101.1436 0.0000 0.0000 0.0000
# 4 0.0000 0.0000 0.0000 26.8452 0.0000 0.0000
# 5 0.0000 0.0000 0.0000 0.0000 -16.3015 0.0000
# 6 0.0000 0.0000 0.0000 0.0000 0.0000 -6.2818
#
#
#
# Elastic Compliance Matrix: (Units=1/GPa)
#
#
# Indices 1 2 3 4 5 6 
#
# 1 0.009118 -0.002454 -0.003473 0.000000 0.000000 0.000000
# 2 -0.002454 0.012755 -0.005090 0.000000 0.000000 0.000000
# 3 -0.003473 -0.005090 0.014210 0.000000 0.000000 0.000000
# 4 0.000000 0.000000 0.000000 0.037251 0.000000 0.000000
# 5 0.000000 0.000000 0.000000 0.000000 -0.061344 0.000000
# 6 0.000000 0.000000 0.000000 0.000000 0.000000 -0.159189
#
#
# Mechanical properties :
#
#
# Convention : Reuss Voigt Hill
#
# Bulk Modulus (GPa) = 71.16990 72.52096 71.84543
# Shear Modulus (GPa) = -41.49972 14.23522 -13.63225
#
# Velocity S-wave (km/s) = -4.50117 2.63624 -2.57980
# Velocity P-wave (km/s) = 2.78060 6.68369 5.11876
#
# Compressibility (1/GPa) = 0.01405088
#
# Stress axis : x y z
#
# Youngs Moduli (GPa) = 109.66893 78.40188 70.37142
#
# Poissons Ratio (x) = 0.19237 0.24440
# Poissons Ratio (y) = 0.26909 0.35816
# Poissons Ratio (z) = 0.38088 0.39903
#
# Static dielectric constant tensor:
#      x y z
#    x 1.730800 0.000000 0.000000 
#    y 0.000000 1.740330 0.000000 
#    z 0.000000 0.000000 1.801520 
# 
# From -- ./inp_files/45682.got.cif
#   From: 2010.05.17/outbox.cif.g08.bks.cpg/sg69_23_cif.got.tgz:45682.got - 2010.06.03 19:29:58.
