data_PCOD9513314
_publ_section_title
;
Structure prediction by ZEFSAII (Michael W. Deem and Ramdas Pophale) SiO2 
 PCOD9513314
Probable space group: F M M M
;
_chemical_formula_sum "Si O2"
_cell_formula_units_Z 128
_cell_length_a 35.382073
_cell_length_b 8.593522
_cell_length_c 26.040209
_cell_angle_alpha 90.000000
_cell_angle_beta 90.000000
_cell_angle_gamma 90.000000
_cell_volume 7917.698004
_symmetry_space_group_name_H-M "F M M M"
_symmetry_group_IT_number 69
_symmetry_cell_setting 'orthorhombic'
loop_
_space_group_symop_operation_xyz
x,y,z
-x,-y,z
x,-y,-z
-x,y,-z
-x,-y,-z
x,y,-z
-x,y,z
x,-y,z
x,1/2+y,1/2+z
-x,1/2-y,1/2+z
x,1/2-y,1/2-z
-x,1/2+y,1/2-z
-x,1/2-y,1/2-z
x,1/2+y,1/2-z
-x,1/2+y,1/2+z
x,1/2-y,1/2+z
1/2+x,y,1/2+z
1/2-x,-y,1/2+z
1/2+x,-y,1/2-z
1/2-x,y,1/2-z
1/2-x,-y,1/2-z
1/2+x,y,1/2-z
1/2-x,y,1/2+z
1/2+x,-y,1/2+z
1/2+x,1/2+y,z
1/2-x,1/2-y,z
1/2+x,1/2-y,-z
1/2-x,1/2+y,-z
1/2-x,1/2-y,-z
1/2+x,1/2+y,-z
1/2-x,1/2+y,z
1/2+x,1/2-y,z
loop_
_atom_site_type_symbol
_atom_site_label
_atom_site_fract_x
_atom_site_fract_y
_atom_site_fract_z
Si Si1 0.000000 0.818274 0.562350
Si Si2 0.082680 0.811303 0.439583
Si Si3 0.839881 0.313327 0.399358
Si Si4 0.207516 0.187649 0.000000
Si Si5 0.708421 0.814430 0.806701
O O1 0.959030 0.754100 0.577772
O O2 0.000000 0.815476 0.500000
O O3 0.000000 0.000000 0.577478
O O4 0.087397 0.770669 0.500000
O O5 0.117459 0.742304 0.408601
O O6 0.083097 0.000000 0.436593
O O7 0.838615 0.500000 0.396551
O O8 0.815250 0.262883 0.449101
O O9 0.821229 0.242269 0.348790
O O10 0.250000 0.250000 0.000000
O O11 0.208739 0.000000 0.000000
O O12 0.699573 0.750000 0.750000
O O13 0.750000 0.750000 0.820771
O O14 0.710035 0.000000 0.804957
#
# Coordination Sequence:
#
# PCOD9513314 Si02
#       5
#    16  32  32  16  32
#     4   7  12  24  43  67  96 129 168 207 245 290
#     4   9  16  28  47  71  99 134 171 208 248 296
#     4  11  21  34  49  72 103 136 169 208 250 297
#     4  10  22  34  46  65  96 133 167 200 243 292
#     4  11  22  38  57  77  98 128 167 212 257 299
#
# _framework density 16.166314
#
# number of rings (size 3 to 8) (size 9 to 14) (size 15 to 20)
#    0.000    2.125    1.250    6.000    0.000    4.000 
#    0.000    0.625    0.000    2.250    0.000    0.875 
#    0.000    0.000    0.000    0.000    0.000    0.000 
#
# Total GULP energy -178501.480852 kJ/mol
# GULP energy per Si atom -5578.171277 kJ/mol
# Density = 1.612952 g / cm^3
# Si number density = 16.166314 Si / 1000 Ang^3
#
#
#
# Elastic Constant Matrix: (Units=GPa)
#
#
# Indices 1 2 3 4 5 6 
#
# 1 179.2663 47.5536 80.9512 0.0000 0.0002 0.0000
# 2 47.5536 65.0847 37.4545 -0.0002 0.0003 0.0000
# 3 80.9512 37.4545 73.9993 0.0000 0.0001 0.0000
# 4 0.0000 -0.0002 0.0000 12.3162 0.0001 0.0000
# 5 0.0002 0.0003 0.0001 0.0001 32.2806 -0.0002
# 6 0.0000 0.0000 0.0000 0.0000 -0.0002 23.2186
#
#
#
# Elastic Compliance Matrix: (Units=1/GPa)
#
#
# Indices 1 2 3 4 5 6 
#
# 1 0.011139 -0.001589 -0.011382 0.000000 0.000000 0.000000
# 2 -0.001589 0.021906 -0.009349 0.000000 0.000000 0.000000
# 3 -0.011382 -0.009349 0.030697 0.000000 0.000000 0.000000
# 4 0.000000 0.000000 0.000000 0.081194 0.000000 0.000000
# 5 0.000000 0.000000 0.000000 0.000000 0.030978 0.000000
# 6 0.000000 0.000000 0.000000 0.000000 0.000000 0.043069
#
#
# Mechanical properties :
#
#
# Convention : Reuss Voigt Hill
#
# Bulk Modulus (GPa) = 52.35038 72.25209 62.30124
# Shear Modulus (GPa) = 18.51918 23.72248 21.12083
#
# Velocity S-wave (km/s) = 3.38826 3.83482 3.61844
# Velocity P-wave (km/s) = 6.91084 8.02483 7.48858
#
# Compressibility (1/GPa) = 0.01910206
#
# Stress axis : x y z
#
# Youngs Moduli (GPa) = 89.77123 45.64981 32.57688
#
# Poissons Ratio (x) = 0.07254 0.37078
# Poissons Ratio (y) = 0.14266 0.30457
# Poissons Ratio (z) = 1.02174 0.42679
#
# Static dielectric constant tensor:
#      x y z
#    x 1.554320 0.000000 0.000000 
#    y 0.000000 1.548100 0.000000 
#    z 0.000000 0.000000 1.516160 
# 
# From -- ./inp_files/43755.got.cif
#   From: 2010.05.17/outbox.cif.g08.bks.cpg/sg69_22_cif.got.tgz:43755.got - 2010.06.03 19:29:58.
