data_PCOD9513546
_publ_section_title
;
Structure prediction by ZEFSAII (Michael W. Deem and Ramdas Pophale) SiO2 
 PCOD9513546
Probable space group: F M M M
;
_chemical_formula_sum "Si O2"
_cell_formula_units_Z 160
_cell_length_a 25.189242
_cell_length_b 10.901804
_cell_length_c 24.753024
_cell_angle_alpha 90.000000
_cell_angle_beta 90.000000
_cell_angle_gamma 90.000000
_cell_volume 6797.382850
_symmetry_space_group_name_H-M "F M M M"
_symmetry_group_IT_number 69
_symmetry_cell_setting 'orthorhombic'
loop_
_space_group_symop_operation_xyz
x,y,z
-x,-y,z
x,-y,-z
-x,y,-z
-x,-y,-z
x,y,-z
-x,y,z
x,-y,z
x,1/2+y,1/2+z
-x,1/2-y,1/2+z
x,1/2-y,1/2-z
-x,1/2+y,1/2-z
-x,1/2-y,1/2-z
x,1/2+y,1/2-z
-x,1/2+y,1/2+z
x,1/2-y,1/2+z
1/2+x,y,1/2+z
1/2-x,-y,1/2+z
1/2+x,-y,1/2-z
1/2-x,y,1/2-z
1/2-x,-y,1/2-z
1/2+x,y,1/2-z
1/2-x,y,1/2+z
1/2+x,-y,1/2+z
1/2+x,1/2+y,z
1/2-x,1/2-y,z
1/2+x,1/2-y,-z
1/2-x,1/2+y,-z
1/2-x,1/2-y,-z
1/2+x,1/2+y,-z
1/2-x,1/2+y,z
1/2+x,1/2-y,z
loop_
_atom_site_type_symbol
_atom_site_label
_atom_site_fract_x
_atom_site_fract_y
_atom_site_fract_z
Si Si1 0.285787 0.866306 0.671869
Si Si2 0.594803 0.133215 0.715502
Si Si3 0.058244 0.725825 0.604968
Si Si4 0.674562 0.500000 0.559709
Si Si5 0.327171 0.224411 0.562554
Si Si6 0.557841 0.500000 0.592723
O O1 0.250000 0.750000 0.685630
O O2 0.342163 0.858605 0.702547
O O3 0.300953 0.858445 0.608138
O O4 0.261176 0.000000 0.682853
O O5 0.578807 0.250000 0.750000
O O6 0.566641 0.144751 0.657659
O O7 0.583884 0.000000 0.740269
O O8 0.109215 0.707719 0.567128
O O9 0.060607 0.869868 0.622882
O O10 0.000000 0.705141 0.580759
O O11 0.698072 0.500000 0.500000
O O12 0.685752 0.635268 0.581945
O O13 0.610260 0.500000 0.556784
O O14 0.311422 0.208067 0.500000
O O15 0.500000 0.500000 0.565049
#
# Coordination Sequence:
#
# PCOD9513546 Si02
#       6
#    32  32  32  16  32  16
#     4  10  23  41  61  87 116 147 186 235 288 343
#     4  10  23  41  61  87 116 147 186 235 288 343
#     4   9  18  33  54  82 118 156 195 238 282 332
#     4   8  14  25  44  72 105 145 187 227 272 320
#     4   9  18  33  54  82 118 156 195 238 282 332
#     4   8  14  25  44  72 105 145 187 227 272 320
#
# _framework density 23.538471000000001
#
# number of rings (size 3 to 8) (size 9 to 14) (size 15 to 20)
#    0.000    2.800    0.000    0.000    2.800    3.400 
#    0.000    6.000    0.000    0.000    0.000    5.600 
#    0.000    0.000    0.000    0.000    0.000    0.000 
#
# Total GULP energy -223199.382103 kJ/mol
# GULP energy per Si atom -5579.984553 kJ/mol
# Density = 2.348490 g / cm^3
# Si number density = 23.538471 Si / 1000 Ang^3
#
#
#
# Elastic Constant Matrix: (Units=GPa)
#
#
# Indices 1 2 3 4 5 6 
#
# 1 98.0132 10.4854 -4.4120 0.0000 0.0000 0.0000
# 2 10.4854 146.1886 28.1831 0.0000 0.0000 0.0000
# 3 -4.4120 28.1831 59.4470 0.0000 0.0000 0.0000
# 4 0.0000 0.0000 0.0000 11.0732 0.0000 0.0000
# 5 0.0000 0.0000 0.0000 0.0000 -7.8202 0.0000
# 6 0.0000 0.0000 0.0000 0.0000 0.0000 20.2547
#
#
#
# Elastic Compliance Matrix: (Units=1/GPa)
#
#
# Indices 1 2 3 4 5 6 
#
# 1 0.010363 -0.000981 0.001234 0.000000 0.000000 0.000000
# 2 -0.000981 0.007621 -0.003686 0.000000 0.000000 0.000000
# 3 0.001234 -0.003686 0.018661 0.000000 0.000000 0.000000
# 4 0.000000 0.000000 0.000000 0.090308 0.000000 0.000000
# 5 0.000000 0.000000 0.000000 0.000000 -0.127873 0.000000
# 6 0.000000 0.000000 0.000000 0.000000 0.000000 0.049371
#
#
# Mechanical properties :
#
#
# Convention : Reuss Voigt Hill
#
# Bulk Modulus (GPa) = 33.58008 41.35131 37.46569
# Shear Modulus (GPa) = 76.63578 22.66104 49.64841
#
# Velocity S-wave (km/s) = 5.71212 3.10614 4.59763
# Velocity P-wave (km/s) = 7.60273 5.51995 6.64347
#
# Compressibility (1/GPa) = 0.02977956
#
# Stress axis : x y z
#
# Youngs Moduli (GPa) = 96.49487 131.20805 53.58816
#
# Poissons Ratio (x) = 0.12875 -0.06615
# Poissons Ratio (y) = 0.09469 0.19753
# Poissons Ratio (z) = -0.11911 0.48364
#
# Static dielectric constant tensor:
#      x y z
#    x 1.908000 0.000000 0.000000 
#    y 0.000000 1.922470 0.000000 
#    z 0.000000 0.000000 1.871570 
# 
# From -- ./inp_files/43515.got.cif
#   From: 2010.05.17/outbox.cif.g08.bks.cpg/sg69_22_cif.got.tgz:43515.got - 2010.06.03 19:29:58.
