data_PCOD9513279
_publ_section_title
;
Structure prediction by ZEFSAII (Michael W. Deem and Ramdas Pophale) SiO2 
 PCOD9513279
Probable space group: F M M M
;
_chemical_formula_sum "Si O2"
_cell_formula_units_Z 136
_cell_length_a 19.730803
_cell_length_b 23.793672
_cell_length_c 14.422618
_cell_angle_alpha 90.000000
_cell_angle_beta 90.000000
_cell_angle_gamma 90.000000
_cell_volume 6770.961303
_symmetry_space_group_name_H-M "F M M M"
_symmetry_group_IT_number 69
_symmetry_cell_setting 'orthorhombic'
loop_
_space_group_symop_operation_xyz
x,y,z
-x,-y,z
x,-y,-z
-x,y,-z
-x,-y,-z
x,y,-z
-x,y,z
x,-y,z
x,1/2+y,1/2+z
-x,1/2-y,1/2+z
x,1/2-y,1/2-z
-x,1/2+y,1/2-z
-x,1/2-y,1/2-z
x,1/2+y,1/2-z
-x,1/2+y,1/2+z
x,1/2-y,1/2+z
1/2+x,y,1/2+z
1/2-x,-y,1/2+z
1/2+x,-y,1/2-z
1/2-x,y,1/2-z
1/2-x,-y,1/2-z
1/2+x,y,1/2-z
1/2-x,y,1/2+z
1/2+x,-y,1/2+z
1/2+x,1/2+y,z
1/2-x,1/2-y,z
1/2+x,1/2-y,-z
1/2-x,1/2+y,-z
1/2-x,1/2-y,-z
1/2+x,1/2+y,-z
1/2-x,1/2+y,z
1/2+x,1/2-y,z
loop_
_atom_site_type_symbol
_atom_site_label
_atom_site_fract_x
_atom_site_fract_y
_atom_site_fract_z
Si Si1 0.578277 0.255321 0.500000
Si Si2 0.420396 0.378982 0.000000
Si Si3 0.296380 0.500000 0.500000
Si Si4 0.815007 0.281831 0.848332
Si Si5 0.421642 0.566318 0.813054
Si Si6 0.304911 0.085954 0.173485
O O1 0.500000 0.272346 0.500000
O O2 0.581940 0.187695 0.500000
O O3 0.618845 0.276099 0.589319
O O4 0.391606 0.403015 0.095967
O O5 0.500000 0.397114 0.000000
O O6 0.297911 0.549164 0.581854
O O7 0.826101 0.250000 0.750000
O O8 0.750000 0.250000 0.890432
O O9 0.797196 0.347280 0.840705
O O10 0.500000 0.584207 0.799934
O O11 0.421023 0.500000 0.832725
O O12 0.377732 0.577512 0.722496
O O13 0.250000 0.067850 0.250000
#
# Coordination Sequence:
#
# PCOD9513279 Si02
#       6
#    16  16   8  32  32  32
#     4  11  24  40  64 104 140 174 226 283 350 417
#     4   9  19  35  62 100 136 173 215 274 339 394
#     4  12  28  44  65 102 137 176 216 288 344 404
#     4  11  23  45  71  99 133 184 235 285 344 404
#     4  10  21  40  65  97 137 178 225 277 336 406
#     4  12  25  47  68  98 136 175 233 280 342 417
#
# _framework density 20.085775000000002
#
# number of rings (size 3 to 8) (size 9 to 14) (size 15 to 20)
#    0.000    1.176    3.529    3.176    0.000    3.765 
#    0.000    1.176    0.000    0.000    0.000    0.000 
#    0.000    0.000    0.000    0.000    0.000    0.000 
#
# Total GULP energy -189483.893058 kJ/mol
# GULP energy per Si atom -5573.055678 kJ/mol
# Density = 2.004006 g / cm^3
# Si number density = 20.085775 Si / 1000 Ang^3
#
#
#
# Elastic Constant Matrix: (Units=GPa)
#
#
# Indices 1 2 3 4 5 6 
#
# 1 103.5360 27.4131 62.1409 0.0000 0.0000 0.0000
# 2 27.4131 137.0500 70.9545 0.0000 0.0000 0.0000
# 3 62.1409 70.9545 186.9060 0.0000 0.0000 0.0000
# 4 0.0000 0.0000 0.0000 167.5540 0.0000 0.0000
# 5 0.0000 0.0000 0.0000 0.0000 35.9910 0.0000
# 6 0.0000 0.0000 0.0000 0.0000 0.0000 18.5751
#
#
#
# Elastic Compliance Matrix: (Units=1/GPa)
#
#
# Indices 1 2 3 4 5 6 
#
# 1 0.012086 -0.000420 -0.003859 0.000000 0.000000 0.000000
# 2 -0.000420 0.009096 -0.003314 0.000000 0.000000 0.000000
# 3 -0.003859 -0.003314 0.007891 0.000000 0.000000 0.000000
# 4 0.000000 0.000000 0.000000 0.005968 0.000000 0.000000
# 5 0.000000 0.000000 0.000000 0.000000 0.027785 0.000000
# 6 0.000000 0.000000 0.000000 0.000000 0.000000 0.053836
#
#
# Mechanical properties :
#
#
# Convention : Reuss Voigt Hill
#
# Bulk Modulus (GPa) = 72.00049 83.16769 77.58409
# Shear Modulus (GPa) = 36.63673 62.22290 49.42981
#
# Velocity S-wave (km/s) = 4.27548 5.57188 4.96616
# Velocity P-wave (km/s) = 7.76513 9.10443 8.46132
#
# Compressibility (1/GPa) = 0.01388879
#
# Stress axis : x y z
#
# Youngs Moduli (GPa) = 82.74321 109.93739 126.72385
#
# Poissons Ratio (x) = 0.04613 0.48901
# Poissons Ratio (y) = 0.03472 0.41992
# Poissons Ratio (z) = 0.31929 0.36429
#
# Static dielectric constant tensor:
#      x y z
#    x 1.742410 0.000000 0.000000 
#    y 0.000000 1.691490 0.000000 
#    z 0.000000 0.000000 1.706790 
# 
# From -- ./inp_files/16625.got.cif
#   From: 2010.05.17/outbox.cif.g08.bks.cpg/sg69_9_cif.got.tgz:16625.got - 2010.06.03 19:29:58.
