data_PCOD9513130
_publ_section_title
;
Structure prediction by ZEFSAII (Michael W. Deem and Ramdas Pophale) SiO2 
 PCOD9513130
Probable space group: F M M M
;
_chemical_formula_sum "Si O2"
_cell_formula_units_Z 128
_cell_length_a 24.949955
_cell_length_b 27.723143
_cell_length_c 10.610512
_cell_angle_alpha 90.000000
_cell_angle_beta 90.000000
_cell_angle_gamma 90.000000
_cell_volume 7339.197463
_symmetry_space_group_name_H-M "F M M M"
_symmetry_group_IT_number 69
_symmetry_cell_setting 'orthorhombic'
loop_
_space_group_symop_operation_xyz
x,y,z
-x,-y,z
x,-y,-z
-x,y,-z
-x,-y,-z
x,y,-z
-x,y,z
x,-y,z
x,1/2+y,1/2+z
-x,1/2-y,1/2+z
x,1/2-y,1/2-z
-x,1/2+y,1/2-z
-x,1/2-y,1/2-z
x,1/2+y,1/2-z
-x,1/2+y,1/2+z
x,1/2-y,1/2+z
1/2+x,y,1/2+z
1/2-x,-y,1/2+z
1/2+x,-y,1/2-z
1/2-x,y,1/2-z
1/2-x,-y,1/2-z
1/2+x,y,1/2-z
1/2-x,y,1/2+z
1/2+x,-y,1/2+z
1/2+x,1/2+y,z
1/2-x,1/2-y,z
1/2+x,1/2-y,-z
1/2-x,1/2+y,-z
1/2-x,1/2-y,-z
1/2+x,1/2+y,-z
1/2-x,1/2+y,z
1/2+x,1/2-y,z
loop_
_atom_site_type_symbol
_atom_site_label
_atom_site_fract_x
_atom_site_fract_y
_atom_site_fract_z
Si Si1 0.500000 0.054381 0.146673
Si Si2 0.102331 0.894515 0.244508
Si Si3 0.437564 0.443189 0.000000
Si Si4 0.935835 0.792684 0.850932
Si Si5 0.203860 0.556174 0.854515
O O1 0.551430 0.085896 0.179403
O O2 0.500000 0.000000 0.207462
O O3 0.500000 0.047061 0.000000
O O4 0.095884 0.925441 0.118206
O O5 0.094714 0.839596 0.201128
O O6 0.155621 0.908303 0.318783
O O7 0.441493 0.500000 0.000000
O O8 0.500000 0.423935 0.000000
O O9 0.925900 0.750000 0.750000
O O10 0.000000 0.802580 0.847833
O O11 0.922898 0.782974 0.000000
O O12 0.185223 0.500000 0.846198
O O13 0.250000 0.562131 0.750000
O O14 0.221482 0.563699 0.000000
#
# Coordination Sequence:
#
# PCOD9513130 Si02
#       5
#    16  32  16  32  32
#     4  11  22  33  50  81 120 156 188 233 295 360
#     4  12  21  36  57  83 118 154 196 244 293 354
#     4  11  20  30  52  86 120 153 188 227 289 360
#     4  10  21  38  57  83 118 156 200 248 295 353
#     4  10  23  41  60  85 118 158 203 246 293 355
#
# _framework density 17.440598999999999
#
# number of rings (size 3 to 8) (size 9 to 14) (size 15 to 20)
#    0.000    1.250    3.750    3.000    1.750    4.000 
#    0.000    0.000    0.000    0.750    0.000    3.500 
#    0.000    0.000    0.000    0.000    0.000    0.000 
#
# Total GULP energy -178456.727046 kJ/mol
# GULP energy per Si atom -5576.772720 kJ/mol
# Density = 1.740090 g / cm^3
# Si number density = 17.440599 Si / 1000 Ang^3
#
#
#
# Elastic Constant Matrix: (Units=GPa)
#
#
# Indices 1 2 3 4 5 6 
#
# 1 60.3091 39.5533 43.5695 0.0000 0.0001 0.0000
# 2 39.5533 110.7137 61.8612 0.0000 0.0001 0.0000
# 3 43.5695 61.8612 150.4126 -0.0001 0.0003 0.0000
# 4 0.0000 0.0000 -0.0001 26.3372 0.0001 0.0000
# 5 0.0001 0.0001 0.0003 0.0001 27.3499 0.0000
# 6 0.0000 0.0000 0.0000 0.0000 0.0000 24.3497
#
#
#
# Elastic Compliance Matrix: (Units=1/GPa)
#
#
# Indices 1 2 3 4 5 6 
#
# 1 0.023697 -0.006012 -0.004392 0.000000 0.000000 0.000000
# 2 -0.006012 0.013253 -0.003709 0.000000 0.000000 0.000000
# 3 -0.004392 -0.003709 0.009446 0.000000 0.000000 0.000000
# 4 0.000000 0.000000 0.000000 0.037969 0.000000 0.000000
# 5 0.000000 0.000000 0.000000 0.000000 0.036563 0.000000
# 6 0.000000 0.000000 0.000000 0.000000 0.000000 0.041068
#
#
# Mechanical properties :
#
#
# Convention : Reuss Voigt Hill
#
# Bulk Modulus (GPa) = 55.03561 67.93372 61.48467
# Shear Modulus (GPa) = 25.47410 27.37079 26.42244
#
# Velocity S-wave (km/s) = 3.82595 3.96583 3.89652
# Velocity P-wave (km/s) = 7.15135 7.74638 7.45480
#
# Compressibility (1/GPa) = 0.01817005
#
# Stress axis : x y z
#
# Youngs Moduli (GPa) = 42.19964 75.45719 105.86631
#
# Poissons Ratio (x) = 0.45366 0.46492
# Poissons Ratio (y) = 0.25371 0.39265
# Poissons Ratio (z) = 0.18532 0.27987
#
# Static dielectric constant tensor:
#      x y z
#    x 1.572310 0.000000 0.000000 
#    y 0.000000 1.588860 0.000000 
#    z 0.000000 0.000000 2.539050 
# 
# From -- ./inp_files/10108.got.cif
#   From: 2010.05.17/outbox.cif.g08.bks.cpg/sg69_6_cif.got.tgz:10108.got - 2010.06.03 19:29:58.
