data_PCOD9513924
_publ_section_title
;
Structure prediction by ZEFSAII (Michael W. Deem and Ramdas Pophale) SiO2 
 PCOD9513924
Probable space group: F M M M
;
_chemical_formula_sum "Si O2"
_cell_formula_units_Z 96
_cell_length_a 27.976374
_cell_length_b 17.932045
_cell_length_c 10.005819
_cell_angle_alpha 90.000000
_cell_angle_beta 90.000000
_cell_angle_gamma 90.000000
_cell_volume 5019.655214
_symmetry_space_group_name_H-M "F M M M"
_symmetry_group_IT_number 69
_symmetry_cell_setting 'orthorhombic'
loop_
_space_group_symop_operation_xyz
x,y,z
-x,-y,z
x,-y,-z
-x,y,-z
-x,-y,-z
x,y,-z
-x,y,z
x,-y,z
x,1/2+y,1/2+z
-x,1/2-y,1/2+z
x,1/2-y,1/2-z
-x,1/2+y,1/2-z
-x,1/2-y,1/2-z
x,1/2+y,1/2-z
-x,1/2+y,1/2+z
x,1/2-y,1/2+z
1/2+x,y,1/2+z
1/2-x,-y,1/2+z
1/2+x,-y,1/2-z
1/2-x,y,1/2-z
1/2-x,-y,1/2-z
1/2+x,y,1/2-z
1/2-x,y,1/2+z
1/2+x,-y,1/2+z
1/2+x,1/2+y,z
1/2-x,1/2-y,z
1/2+x,1/2-y,-z
1/2-x,1/2+y,-z
1/2-x,1/2-y,-z
1/2+x,1/2+y,-z
1/2-x,1/2+y,z
1/2+x,1/2-y,z
loop_
_atom_site_type_symbol
_atom_site_label
_atom_site_fract_x
_atom_site_fract_y
_atom_site_fract_z
Si Si1 0.357138 0.836069 0.259337
Si Si2 0.282144 0.672479 0.000000
Si Si3 0.054691 0.089582 0.654971
Si Si4 0.811168 0.588022 0.000000
O O1 0.370906 0.750000 0.250000
O O2 0.317312 0.835537 0.374421
O O3 0.407022 0.880444 0.260811
O O4 0.331968 0.870899 0.129393
O O5 0.250000 0.750000 0.000000
O O6 0.244953 0.604887 0.000000
O O7 0.066113 0.112738 0.500000
O O8 0.000000 0.112458 0.682032
O O9 0.056409 0.000000 0.655510
O O10 0.822233 0.500000 0.000000
#
# Coordination Sequence:
#
# PCOD9513924 Si02
#       4
#    32  16  32  16
#     4  12  23  40  68  96 134 178 224 277 335 405
#     4  12  26  44  61  96 140 182 215 273 359 395
#     4   9  19  39  67  98 133 173 221 278 338 401
#     4  12  26  44  69  98 128 175 237 281 321 405
#
# _framework density 19.12482
#
# number of rings (size 3 to 8) (size 9 to 14) (size 15 to 20)
#    0.000    1.000    5.000    3.000    0.000    4.667 
#    0.000    0.833    0.000    2.000    0.000    0.000 
#    0.000    0.000    0.000    0.000    0.000    0.000 
#
# Total GULP energy -133843.978106 kJ/mol
# GULP energy per Si atom -5576.832421 kJ/mol
# Density = 1.908129 g / cm^3
# Si number density = 19.124820 Si / 1000 Ang^3
#
#
#
# Elastic Constant Matrix: (Units=GPa)
#
#
# Indices 1 2 3 4 5 6 
#
# 1 159.6303 36.5615 60.4240 0.0000 0.0000 0.0000
# 2 36.5615 89.7566 44.5890 0.0000 0.0000 0.0000
# 3 60.4240 44.5890 107.0722 0.0000 0.0000 0.0000
# 4 0.0000 0.0000 0.0000 11.3800 0.0000 0.0000
# 5 0.0000 0.0000 0.0000 0.0000 30.1719 0.0000
# 6 0.0000 0.0000 0.0000 0.0000 0.0000 49.7807
#
#
#
# Elastic Compliance Matrix: (Units=1/GPa)
#
#
# Indices 1 2 3 4 5 6 
#
# 1 0.008084 -0.001294 -0.004023 0.000000 0.000000 0.000000
# 2 -0.001294 0.014255 -0.005206 0.000000 0.000000 0.000000
# 3 -0.004023 -0.005206 0.013778 0.000000 0.000000 0.000000
# 4 0.000000 0.000000 0.000000 0.087874 0.000000 0.000000
# 5 0.000000 0.000000 0.000000 0.000000 0.033143 0.000000
# 6 0.000000 0.000000 0.000000 0.000000 0.000000 0.020088
#
#
# Mechanical properties :
#
#
# Convention : Reuss Voigt Hill
#
# Bulk Modulus (GPa) = 66.35705 71.06758 68.71232
# Shear Modulus (GPa) = 24.59540 32.59215 28.59377
#
# Velocity S-wave (km/s) = 3.59004 4.13265 3.87086
# Velocity P-wave (km/s) = 7.20810 7.74676 7.48228
#
# Compressibility (1/GPa) = 0.01506999
#
# Stress axis : x y z
#
# Youngs Moduli (GPa) = 123.70609 70.15302 72.58180
#
# Poissons Ratio (x) = 0.09080 0.29198
# Poissons Ratio (y) = 0.16012 0.37784
# Poissons Ratio (z) = 0.49765 0.36520
#
# Static dielectric constant tensor:
#      x y z
#    x 1.714180 0.000000 0.000000 
#    y 0.000000 1.655940 0.000000 
#    z 0.000000 0.000000 1.679740 
# 
# From -- ./inp_files/4298.got.cif
#   From: 2010.05.17/outbox.cif.g08.bks.cpg/sg69_3_cif.got.tgz:4298.got - 2010.06.03 19:29:58.
