data_PCOD9513663
_publ_section_title
;
Structure prediction by ZEFSAII (Michael W. Deem and Ramdas Pophale) SiO2 
 PCOD9513663
Probable space group: F M M M
;
_chemical_formula_sum "Si O2"
_cell_formula_units_Z 160
_cell_length_a 27.943324
_cell_length_b 14.378763
_cell_length_c 24.655157
_cell_angle_alpha 90.000000
_cell_angle_beta 90.000000
_cell_angle_gamma 90.000000
_cell_volume 9906.206212
_symmetry_space_group_name_H-M "F M M M"
_symmetry_group_IT_number 69
_symmetry_cell_setting 'orthorhombic'
loop_
_space_group_symop_operation_xyz
x,y,z
-x,-y,z
x,-y,-z
-x,y,-z
-x,-y,-z
x,y,-z
-x,y,z
x,-y,z
x,1/2+y,1/2+z
-x,1/2-y,1/2+z
x,1/2-y,1/2-z
-x,1/2+y,1/2-z
-x,1/2-y,1/2-z
x,1/2+y,1/2-z
-x,1/2+y,1/2+z
x,1/2-y,1/2+z
1/2+x,y,1/2+z
1/2-x,-y,1/2+z
1/2+x,-y,1/2-z
1/2-x,y,1/2-z
1/2-x,-y,1/2-z
1/2+x,y,1/2-z
1/2-x,y,1/2+z
1/2+x,-y,1/2+z
1/2+x,1/2+y,z
1/2-x,1/2-y,z
1/2+x,1/2-y,-z
1/2-x,1/2+y,-z
1/2-x,1/2-y,-z
1/2+x,1/2+y,-z
1/2-x,1/2+y,z
1/2+x,1/2-y,z
loop_
_atom_site_type_symbol
_atom_site_label
_atom_site_fract_x
_atom_site_fract_y
_atom_site_fract_z
Si Si1 0.054518 0.105317 0.934148
Si Si2 0.209732 0.889760 0.121192
Si Si3 0.823384 0.610508 0.857215
Si Si4 0.359462 0.738935 0.063732
Si Si5 0.695069 0.887314 0.739892
O O1 0.094175 0.179688 0.918427
O O2 0.000000 0.126262 0.917137
O O3 0.066625 0.000000 0.916194
O O4 0.054637 0.103705 0.000000
O O5 0.266596 0.876063 0.129637
O O6 0.186141 0.827678 0.075176
O O7 0.184345 0.860855 0.178187
O O8 0.202257 0.000000 0.112055
O O9 0.832370 0.500000 0.861144
O O10 0.852506 0.670288 0.899954
O O11 0.832005 0.641078 0.794541
O O12 0.362895 0.760147 0.000000
O O13 0.750000 0.859295 0.750000
O O14 0.694585 0.000000 0.739959
#
# Coordination Sequence:
#
# PCOD9513663 Si02
#       5
#    32  32  32  32  32
#     4   8  15  30  50  67  83 106 139 184 234 271
#     4   9  17  29  45  65  89 116 148 188 226 255
#     4   9  18  31  44  60  88 125 158 184 208 241
#     4  11  21  29  41  65  93 118 146 176 213 270
#     4   7  12  26  45  61  79 109 153 196 221 237
#
# _framework density 16.151491
#
# number of rings (size 3 to 8) (size 9 to 14) (size 15 to 20)
#    0.000    3.200    0.000    4.200    0.000    4.000 
#    0.000    5.000    0.000    0.600    0.000    5.600 
#    0.000    4.800    0.000    0.000    0.000    0.000 
#
# Total GULP energy -222700.697549 kJ/mol
# GULP energy per Si atom -5567.517439 kJ/mol
# Density = 1.611473 g / cm^3
# Si number density = 16.151491 Si / 1000 Ang^3
#
#
#
# Elastic Constant Matrix: (Units=GPa)
#
#
# Indices 1 2 3 4 5 6 
#
# 1 46.7904 36.6924 24.1567 0.0000 0.0000 0.0000
# 2 36.6924 73.1895 33.7313 0.0000 0.0000 0.0000
# 3 24.1567 33.7313 73.8587 0.0000 0.0000 0.0000
# 4 0.0000 0.0000 0.0000 10.3095 0.0000 0.0000
# 5 0.0000 0.0000 0.0000 0.0000 6.0319 0.0000
# 6 0.0000 0.0000 0.0000 0.0000 0.0000 91.9624
#
#
#
# Elastic Compliance Matrix: (Units=1/GPa)
#
#
# Indices 1 2 3 4 5 6 
#
# 1 0.036370 -0.016151 -0.004519 0.000000 0.000000 0.000000
# 2 -0.016151 0.024478 -0.005897 0.000000 0.000000 0.000000
# 3 -0.004519 -0.005897 0.017711 0.000000 0.000000 0.000000
# 4 0.000000 0.000000 0.000000 0.096998 0.000000 0.000000
# 5 0.000000 0.000000 0.000000 0.000000 0.165785 0.000000
# 6 0.000000 0.000000 0.000000 0.000000 0.000000 0.010874
#
#
# Mechanical properties :
#
#
# Convention : Reuss Voigt Hill
#
# Bulk Modulus (GPa) = 39.33152 42.55550 40.94351
# Shear Modulus (GPa) = 12.08243 28.27797 20.18020
#
# Velocity S-wave (km/s) = 2.73805 4.18879 3.53857
# Velocity P-wave (km/s) = 5.86519 7.05688 6.48845
#
# Compressibility (1/GPa) = 0.02542490
#
# Stress axis : x y z
#
# Youngs Moduli (GPa) = 27.49485 40.85350 56.46363
#
# Poissons Ratio (x) = 0.65982 0.25519
# Poissons Ratio (y) = 0.44406 0.33294
# Poissons Ratio (z) = 0.12426 0.24090
#
# Static dielectric constant tensor:
#      x y z
#    x 1.524400 0.000000 0.000000 
#    y 0.000000 1.576370 0.000000 
#    z 0.000000 0.000000 1.568030 
# 
# From -- ./inp_files/17737.got.cif
#   From: 2010.05.17/outbox.cif.g08.bks.cpg/sg69_9_cif.got.tgz:17737.got - 2010.06.03 19:29:58.
