data_PCOD9513335
_publ_section_title
;
Structure prediction by ZEFSAII (Michael W. Deem and Ramdas Pophale) SiO2 
 PCOD9513335
Probable space group: F M M M
;
_chemical_formula_sum "Si O2"
_cell_formula_units_Z 200
_cell_length_a 22.401266
_cell_length_b 16.717443
_cell_length_c 27.639906
_cell_angle_alpha 90.000000
_cell_angle_beta 90.000000
_cell_angle_gamma 90.000000
_cell_volume 10350.920568
_symmetry_space_group_name_H-M "F M M M"
_symmetry_group_IT_number 69
_symmetry_cell_setting 'orthorhombic'
loop_
_space_group_symop_operation_xyz
x,y,z
-x,-y,z
x,-y,-z
-x,y,-z
-x,-y,-z
x,y,-z
-x,y,z
x,-y,z
x,1/2+y,1/2+z
-x,1/2-y,1/2+z
x,1/2-y,1/2-z
-x,1/2+y,1/2-z
-x,1/2-y,1/2-z
x,1/2+y,1/2-z
-x,1/2+y,1/2+z
x,1/2-y,1/2+z
1/2+x,y,1/2+z
1/2-x,-y,1/2+z
1/2+x,-y,1/2-z
1/2-x,y,1/2-z
1/2-x,-y,1/2-z
1/2+x,y,1/2-z
1/2-x,y,1/2+z
1/2+x,-y,1/2+z
1/2+x,1/2+y,z
1/2-x,1/2-y,z
1/2+x,1/2-y,-z
1/2-x,1/2+y,-z
1/2-x,1/2-y,-z
1/2+x,1/2+y,-z
1/2-x,1/2+y,z
1/2+x,1/2-y,z
loop_
_atom_site_type_symbol
_atom_site_label
_atom_site_fract_x
_atom_site_fract_y
_atom_site_fract_z
Si Si1 0.242235 0.090669 0.656060
Si Si2 0.088165 0.849066 0.444488
Si Si3 0.435024 0.244907 0.850689
Si Si4 0.500000 0.500000 0.425745
Si Si5 0.339775 0.825491 0.714570
Si Si6 0.268308 0.656517 0.446349
Si Si7 0.610351 0.910590 0.802879
O O1 0.277809 0.147386 0.692080
O O2 0.256050 0.112283 0.600776
O O3 0.171697 0.096992 0.666429
O O4 0.259912 0.000000 0.666718
O O5 0.071358 0.831659 0.500000
O O6 0.073026 0.779950 0.406258
O O7 0.160083 0.856118 0.444011
O O8 0.052355 0.929060 0.429252
O O9 0.500000 0.280965 0.842415
O O10 0.383150 0.298976 0.828774
O O11 0.430810 0.160535 0.821658
O O12 0.333308 0.750000 0.750000
O O13 0.370021 0.893246 0.747886
O O14 0.248579 0.629374 0.500000
O O15 0.250000 0.750000 0.442214
O O16 0.585956 0.000000 0.809295
#
# Coordination Sequence:
#
# PCOD9513335 Si02
#       7
#    32  32  32   8  32  32  32
#     4  11  22  37  61  88 115 147 196 240 293 349
#     4  11  22  37  57  83 119 156 194 235 284 358
#     4  11  23  37  57  82 113 151 193 233 285 350
#     4  12  25  36  60  92 122 166 204 242 306 360
#     4  10  23  39  58  80 109 152 195 246 290 339
#     4  10  22  38  59  88 125 163 196 234 291 362
#     4  10  22  37  56  84 112 144 189 239 294 344
#
# _framework density 19.321954000000002
#
# number of rings (size 3 to 8) (size 9 to 14) (size 15 to 20)
#    0.000    1.440    2.400    2.640    4.480    6.720 
#    0.000    0.000    0.000    1.440    0.000    0.000 
#    0.000    0.000    0.000   13.440    0.000    0.000 
#
# Total GULP energy -278795.887780 kJ/mol
# GULP energy per Si atom -5575.917756 kJ/mol
# Density = 1.927798 g / cm^3
# Si number density = 19.321954 Si / 1000 Ang^3
#
#
#
# Elastic Constant Matrix: (Units=GPa)
#
#
# Indices 1 2 3 4 5 6 
#
# 1 59.4556 14.9162 8.6828 0.0000 0.0000 0.0000
# 2 14.9162 46.5782 16.1686 0.0000 0.0000 0.0000
# 3 8.6828 16.1686 95.7591 0.0000 0.0000 0.0000
# 4 0.0000 0.0000 0.0000 17.7042 0.0000 0.0000
# 5 0.0000 0.0000 0.0000 0.0000 2.8742 0.0000
# 6 0.0000 0.0000 0.0000 0.0000 0.0000 25.1069
#
#
#
# Elastic Compliance Matrix: (Units=1/GPa)
#
#
# Indices 1 2 3 4 5 6 
#
# 1 0.018334 -0.005624 -0.000713 0.000000 0.000000 0.000000
# 2 -0.005624 0.024531 -0.003632 0.000000 0.000000 0.000000
# 3 -0.000713 -0.003632 0.011121 0.000000 0.000000 0.000000
# 4 0.000000 0.000000 0.000000 0.056484 0.000000 0.000000
# 5 0.000000 0.000000 0.000000 0.000000 0.347927 0.000000
# 6 0.000000 0.000000 0.000000 0.000000 0.000000 0.039830
#
#
# Mechanical properties :
#
#
# Convention : Reuss Voigt Hill
#
# Bulk Modulus (GPa) = 29.36989 31.25868 30.31429
# Shear Modulus (GPa) = 9.44262 19.93873 14.69068
#
# Velocity S-wave (km/s) = 2.21305 3.21584 2.76036
# Velocity P-wave (km/s) = 4.66513 5.47738 5.08749
#
# Compressibility (1/GPa) = 0.03404847
#
# Stress axis : x y z
#
# Youngs Moduli (GPa) = 54.54253 40.76461 89.92185
#
# Poissons Ratio (x) = 0.22926 0.06410
# Poissons Ratio (y) = 0.30674 0.32660
# Poissons Ratio (z) = 0.03888 0.14806
#
# Static dielectric constant tensor:
#      x y z
#    x 1.627400 0.000000 0.000000 
#    y 0.000000 1.675440 0.000000 
#    z 0.000000 0.000000 1.715350 
# 
# From -- ./inp_files/42717.got.cif
#   From: 2010.05.17/outbox.cif.g08.bks.cpg/sg69_22_cif.got.tgz:42717.got - 2010.06.03 19:29:58.
