data_PCOD9513413
_publ_section_title
;
Structure prediction by ZEFSAII (Michael W. Deem and Ramdas Pophale) SiO2 
 PCOD9513413
Probable space group: F M M M
;
_chemical_formula_sum "Si O2"
_cell_formula_units_Z 144
_cell_length_a 15.340398
_cell_length_b 13.972909
_cell_length_c 32.586156
_cell_angle_alpha 90.000000
_cell_angle_beta 90.000000
_cell_angle_gamma 90.000000
_cell_volume 6984.842059
_symmetry_space_group_name_H-M "F M M M"
_symmetry_group_IT_number 69
_symmetry_cell_setting 'orthorhombic'
loop_
_space_group_symop_operation_xyz
x,y,z
-x,-y,z
x,-y,-z
-x,y,-z
-x,-y,-z
x,y,-z
-x,y,z
x,-y,z
x,1/2+y,1/2+z
-x,1/2-y,1/2+z
x,1/2-y,1/2-z
-x,1/2+y,1/2-z
-x,1/2-y,1/2-z
x,1/2+y,1/2-z
-x,1/2+y,1/2+z
x,1/2-y,1/2+z
1/2+x,y,1/2+z
1/2-x,-y,1/2+z
1/2+x,-y,1/2-z
1/2-x,y,1/2-z
1/2-x,-y,1/2-z
1/2+x,y,1/2-z
1/2-x,y,1/2+z
1/2+x,-y,1/2+z
1/2+x,1/2+y,z
1/2-x,1/2-y,z
1/2+x,1/2-y,-z
1/2-x,1/2+y,-z
1/2-x,1/2-y,-z
1/2+x,1/2+y,-z
1/2-x,1/2+y,z
1/2+x,1/2-y,z
loop_
_atom_site_type_symbol
_atom_site_label
_atom_site_fract_x
_atom_site_fract_y
_atom_site_fract_z
Si Si1 0.876672 0.608437 0.346544
Si Si2 0.354663 0.231707 0.903420
Si Si3 0.500000 0.886257 0.049174
Si Si4 0.902868 0.386838 0.743273
Si Si5 0.673012 0.108953 0.825345
O O1 0.907468 0.500000 0.350597
O O2 0.891829 0.666610 0.388058
O O3 0.906528 0.651703 0.302894
O O4 0.773427 0.606084 0.338086
O O5 0.250000 0.250000 0.912938
O O6 0.414201 0.172370 0.935051
O O7 0.365759 0.172241 0.861120
O O8 0.500000 0.000000 0.062371
O O9 0.500000 0.886366 0.000000
O O10 0.882572 0.500000 0.737209
O O11 0.839044 0.353292 0.779086
O O12 0.000000 0.377418 0.760851
O O13 0.638523 0.000000 0.825871
#
# Coordination Sequence:
#
# PCOD9513413 Si02
#       5
#    32  32  16  32  32
#     4   9  18  33  52  77 117 168 214 256 308 367
#     4  10  22  39  64  96 127 165 213 265 320 382
#     4  11  26  48  75 104 131 161 200 256 329 405
#     4   9  17  27  43  72 113 164 214 264 314 356
#     4   9  17  31  51  77 114 162 215 268 314 361
#
# _framework density 20.616071000000002
#
# number of rings (size 3 to 8) (size 9 to 14) (size 15 to 20)
#    0.000    2.556    0.000    1.333    3.111    4.889 
#    0.000    4.444    0.000    1.333    0.000    0.000 
#    0.000    0.000    0.000    0.000    0.000    0.000 
#
# Total GULP energy -200471.919689 kJ/mol
# GULP energy per Si atom -5568.664436 kJ/mol
# Density = 2.056915 g / cm^3
# Si number density = 20.616071 Si / 1000 Ang^3
#
#
#
# Elastic Constant Matrix: (Units=GPa)
#
#
# Indices 1 2 3 4 5 6 
#
# 1 60.7841 39.4594 42.5229 0.0000 0.0000 0.0000
# 2 39.4594 105.7451 44.5587 0.0000 0.0000 0.0000
# 3 42.5229 44.5587 90.3519 0.0000 0.0000 0.0000
# 4 0.0000 0.0000 0.0000 29.4106 0.0000 0.0000
# 5 0.0000 0.0000 0.0000 0.0000 28.5479 0.0000
# 6 0.0000 0.0000 0.0000 0.0000 0.0000 14.0824
#
#
#
# Elastic Compliance Matrix: (Units=1/GPa)
#
#
# Indices 1 2 3 4 5 6 
#
# 1 0.027255 -0.006015 -0.009861 0.000000 0.000000 0.000000
# 2 -0.006015 0.013265 -0.003711 0.000000 0.000000 0.000000
# 3 -0.009861 -0.003711 0.017539 0.000000 0.000000 0.000000
# 4 0.000000 0.000000 0.000000 0.034001 0.000000 0.000000
# 5 0.000000 0.000000 0.000000 0.000000 0.035029 0.000000
# 6 0.000000 0.000000 0.000000 0.000000 0.000000 0.071010
#
#
# Mechanical properties :
#
#
# Convention : Reuss Voigt Hill
#
# Bulk Modulus (GPa) = 52.95191 56.66257 54.80724
# Shear Modulus (GPa) = 20.52817 23.09752 21.81284
#
# Velocity S-wave (km/s) = 3.15895 3.35082 3.25630
# Velocity P-wave (km/s) = 6.24867 6.52035 6.38595
#
# Compressibility (1/GPa) = 0.01888506
#
# Stress axis : x y z
#
# Youngs Moduli (GPa) = 36.69075 75.38625 57.01680
#
# Poissons Ratio (x) = 0.45347 0.56222
# Poissons Ratio (y) = 0.22070 0.21158
# Poissons Ratio (z) = 0.36179 0.27975
#
# Static dielectric constant tensor:
#      x y z
#    x 1.819060 0.000000 0.000000 
#    y 0.000000 1.852490 0.000000 
#    z 0.000000 0.000000 1.702800 
# 
# From -- ./inp_files/46164.got.cif
#   From: 2010.05.17/outbox.cif.g08.bks.cpg/sg69_24_cif.got.tgz:46164.got - 2010.06.03 19:29:58.
