data_PCOD9513396
_publ_section_title
;
Structure prediction by ZEFSAII (Michael W. Deem and Ramdas Pophale) SiO2 
 PCOD9513396
Probable space group: F M M M
;
_chemical_formula_sum "Si O2"
_cell_formula_units_Z 128
_cell_length_a 19.830150
_cell_length_b 15.959131
_cell_length_c 18.762277
_cell_angle_alpha 90.000000
_cell_angle_beta 90.000000
_cell_angle_gamma 90.000000
_cell_volume 5937.734606
_symmetry_space_group_name_H-M "F M M M"
_symmetry_group_IT_number 69
_symmetry_cell_setting 'orthorhombic'
loop_
_space_group_symop_operation_xyz
x,y,z
-x,-y,z
x,-y,-z
-x,y,-z
-x,-y,-z
x,y,-z
-x,y,z
x,-y,z
x,1/2+y,1/2+z
-x,1/2-y,1/2+z
x,1/2-y,1/2-z
-x,1/2+y,1/2-z
-x,1/2-y,1/2-z
x,1/2+y,1/2-z
-x,1/2+y,1/2+z
x,1/2-y,1/2+z
1/2+x,y,1/2+z
1/2-x,-y,1/2+z
1/2+x,-y,1/2-z
1/2-x,y,1/2-z
1/2-x,-y,1/2-z
1/2+x,y,1/2-z
1/2-x,y,1/2+z
1/2+x,-y,1/2+z
1/2+x,1/2+y,z
1/2-x,1/2-y,z
1/2+x,1/2-y,-z
1/2-x,1/2+y,-z
1/2-x,1/2-y,-z
1/2+x,1/2+y,-z
1/2-x,1/2+y,z
1/2+x,1/2-y,z
loop_
_atom_site_type_symbol
_atom_site_label
_atom_site_fract_x
_atom_site_fract_y
_atom_site_fract_z
Si Si1 0.670361 0.000000 0.730560
Si Si2 0.578611 0.653495 0.226899
Si Si3 0.724569 0.000000 0.585278
Si Si4 0.705659 0.326512 0.585341
Si Si5 0.922944 0.270050 0.580811
O O1 0.750000 0.000000 0.750000
O O2 0.630415 0.916279 0.754161
O O3 0.666611 0.000000 0.643954
O O4 0.500000 0.634638 0.244664
O O5 0.591745 0.750000 0.250000
O O6 0.584535 0.660058 0.140820
O O7 0.767502 0.917178 0.603642
O O8 0.708525 0.000000 0.500000
O O9 0.713965 0.323408 0.500000
O O10 0.750000 0.250000 0.616509
O O11 0.628300 0.304421 0.598307
O O12 0.907880 0.299519 0.500000
O O13 0.000000 0.241017 0.583166
#
# Coordination Sequence:
#
# PCOD9513396 Si02
#       5
#    16  32  16  32  32
#     4  12  27  41  62  98 128 158 210 265 303 362
#     4  10  23  44  67  89 124 170 206 249 315 375
#     4  10  22  39  59  89 125 161 200 247 314 374
#     4   9  17  31  54  82 117 157 190 234 297 361
#     4   9  18  35  62  93 119 153 205 256 302 360
#
# _framework density 21.557043
#
# number of rings (size 3 to 8) (size 9 to 14) (size 15 to 20)
#    0.000    2.250    0.000    1.875    3.500    3.500 
#    0.000    0.625    0.000    7.500    0.000    0.000 
#    0.000    0.000    0.000    0.000    0.000    0.000 
#
# Total GULP energy -178496.921856 kJ/mol
# GULP energy per Si atom -5578.028808 kJ/mol
# Density = 2.150798 g / cm^3
# Si number density = 21.557043 Si / 1000 Ang^3
#
#
#
# Elastic Constant Matrix: (Units=GPa)
#
#
# Indices 1 2 3 4 5 6 
#
# 1 110.7797 99.0923 20.4931 0.0000 0.0000 0.0000
# 2 99.0923 161.6612 15.8086 0.0000 0.0000 0.0000
# 3 20.4931 15.8086 83.2222 0.0000 0.0000 0.0000
# 4 0.0000 0.0000 0.0000 -22.8835 0.0000 0.0000
# 5 0.0000 0.0000 0.0000 0.0000 24.7134 0.0000
# 6 0.0000 0.0000 0.0000 0.0000 0.0000 38.8787
#
#
#
# Elastic Compliance Matrix: (Units=1/GPa)
#
#
# Indices 1 2 3 4 5 6 
#
# 1 0.020571 -0.012343 -0.002721 0.000000 0.000000 0.000000
# 2 -0.012343 0.013709 0.000435 0.000000 0.000000 0.000000
# 3 -0.002721 0.000435 0.012603 0.000000 0.000000 0.000000
# 4 0.000000 0.000000 0.000000 -0.043700 0.000000 0.000000
# 5 0.000000 0.000000 0.000000 0.000000 0.040464 0.000000
# 6 0.000000 0.000000 0.000000 0.000000 0.000000 0.025721
#
#
# Mechanical properties :
#
#
# Convention : Reuss Voigt Hill
#
# Bulk Modulus (GPa) = 56.73422 69.60567 63.16995
# Shear Modulus (GPa) = 47.84567 22.82635 35.33601
#
# Velocity S-wave (km/s) = 4.71626 3.25758 4.05308
# Velocity P-wave (km/s) = 7.48550 6.81969 7.16034
#
# Compressibility (1/GPa) = 0.01762605
#
# Stress axis : x y z
#
# Youngs Moduli (GPa) = 48.61101 72.94326 79.34412
#
# Poissons Ratio (x) = 0.90037 0.21589
# Poissons Ratio (y) = 0.60003 -0.03454
# Poissons Ratio (z) = 0.13227 -0.03176
#
# Static dielectric constant tensor:
#      x y z
#    x 1.794510 0.000000 0.000000 
#    y 0.000000 1.742900 0.000000 
#    z 0.000000 0.000000 1.866440 
# 
# From -- ./inp_files/31502.got.cif
#   From: 2010.05.17/outbox.cif.g08.bks.cpg/sg69_16_cif.got.tgz:31502.got - 2010.06.03 19:29:58.
