data_PCOD9513433
_publ_section_title
;
Structure prediction by ZEFSAII (Michael W. Deem and Ramdas Pophale) SiO2 
 PCOD9513433
Probable space group: F M M M
;
_chemical_formula_sum "Si O2"
_cell_formula_units_Z 160
_cell_length_a 18.508496
_cell_length_b 19.195466
_cell_length_c 19.841344
_cell_angle_alpha 90.000000
_cell_angle_beta 90.000000
_cell_angle_gamma 90.000000
_cell_volume 7049.216936
_symmetry_space_group_name_H-M "F M M M"
_symmetry_group_IT_number 69
_symmetry_cell_setting 'orthorhombic'
loop_
_space_group_symop_operation_xyz
x,y,z
-x,-y,z
x,-y,-z
-x,y,-z
-x,-y,-z
x,y,-z
-x,y,z
x,-y,z
x,1/2+y,1/2+z
-x,1/2-y,1/2+z
x,1/2-y,1/2-z
-x,1/2+y,1/2-z
-x,1/2-y,1/2-z
x,1/2+y,1/2-z
-x,1/2+y,1/2+z
x,1/2-y,1/2+z
1/2+x,y,1/2+z
1/2-x,-y,1/2+z
1/2+x,-y,1/2-z
1/2-x,y,1/2-z
1/2-x,-y,1/2-z
1/2+x,y,1/2-z
1/2-x,y,1/2+z
1/2+x,-y,1/2+z
1/2+x,1/2+y,z
1/2-x,1/2-y,z
1/2+x,1/2-y,-z
1/2-x,1/2+y,-z
1/2-x,1/2-y,-z
1/2+x,1/2+y,-z
1/2-x,1/2+y,z
1/2+x,1/2-y,z
loop_
_atom_site_type_symbol
_atom_site_label
_atom_site_fract_x
_atom_site_fract_y
_atom_site_fract_z
Si Si1 0.261508 0.000000 0.167307
Si Si2 0.578811 0.869912 0.776944
Si Si3 0.642260 0.606163 0.857728
Si Si4 0.584914 0.275976 0.500000
Si Si5 0.665066 0.232763 0.135846
Si Si6 0.921828 0.000000 0.625256
Si Si7 0.581989 0.893501 0.500000
O O1 0.250000 0.000000 0.250000
O O2 0.220156 0.071603 0.149599
O O3 0.333330 0.000000 0.119983
O O4 0.500000 0.835135 0.770698
O O5 0.597641 0.911535 0.708885
O O6 0.640040 0.816376 0.802816
O O7 0.573242 0.929173 0.832659
O O8 0.634641 0.689563 0.855265
O O9 0.615810 0.582594 0.930351
O O10 0.500000 0.297474 0.500000
O O11 0.628564 0.297092 0.432645
O O12 0.585793 0.191322 0.500000
O O13 0.750000 0.250000 0.129519
O O14 0.000000 0.000000 0.584480
O O15 0.500000 0.914517 0.500000
#
# Coordination Sequence:
#
# PCOD9513433 Si02
#       7
#    16  32  32  16  32  16  16
#     4  12  22  41  65  90 130 172 216 265 325 388
#     4  11  22  38  62  95 129 170 220 274 327 392
#     4  11  23  38  63  92 125 174 214 264 330 395
#     4   9  19  39  60  83 122 173 209 261 338 399
#     4  11  23  36  60  92 127 162 219 272 330 388
#     4  10  22  40  62  89 125 168 215 265 333 393
#     4   9  20  40  61  89 130 166 209 267 328 400
#
# _framework density 22.697555999999999
#
# number of rings (size 3 to 8) (size 9 to 14) (size 15 to 20)
#    0.000    1.400    2.000    3.300    0.000    4.400 
#    0.000    2.000    0.000    1.800    0.000    5.600 
#    0.000    0.000    0.000    0.000    0.000    0.000 
#
# Total GULP energy -222711.087698 kJ/mol
# GULP energy per Si atom -5567.777192 kJ/mol
# Density = 2.264590 g / cm^3
# Si number density = 22.697556 Si / 1000 Ang^3
#
#
#
# Elastic Constant Matrix: (Units=GPa)
#
#
# Indices 1 2 3 4 5 6 
#
# 1 148.7732 5.0530 57.2354 0.0000 0.0000 0.0000
# 2 5.0530 70.5384 14.1801 0.0000 0.0000 0.0000
# 3 57.2354 14.1801 128.8428 0.0000 0.0000 0.0000
# 4 0.0000 0.0000 0.0000 -25.5927 0.0000 0.0000
# 5 0.0000 0.0000 0.0000 0.0000 57.6730 0.0000
# 6 0.0000 0.0000 0.0000 0.0000 0.0000 12.4918
#
#
#
# Elastic Compliance Matrix: (Units=1/GPa)
#
#
# Indices 1 2 3 4 5 6 
#
# 1 0.008109 0.000146 -0.003618 0.000000 0.000000 0.000000
# 2 0.000146 0.014500 -0.001661 0.000000 0.000000 0.000000
# 3 -0.003618 -0.001661 0.009551 0.000000 0.000000 0.000000
# 4 0.000000 0.000000 0.000000 -0.039074 0.000000 0.000000
# 5 0.000000 0.000000 0.000000 0.000000 0.017339 0.000000
# 6 0.000000 0.000000 0.000000 0.000000 0.000000 0.080053
#
#
# Mechanical properties :
#
#
# Convention : Reuss Voigt Hill
#
# Bulk Modulus (GPa) = 45.67259 55.67682 50.67471
# Shear Modulus (GPa) = 46.27834 27.02679 36.65256
#
# Velocity S-wave (km/s) = 4.52033 3.45445 4.02285
# Velocity P-wave (km/s) = 6.88553 6.36350 6.62965
#
# Compressibility (1/GPa) = 0.02189497
#
# Stress axis : x y z
#
# Youngs Moduli (GPa) = 123.32521 68.96513 104.69565
#
# Poissons Ratio (x) = -0.01010 0.37881
# Poissons Ratio (y) = -0.01807 0.17389
# Poissons Ratio (z) = 0.44622 0.11455
#
# Static dielectric constant tensor:
#      x y z
#    x 2.001680 0.000000 0.000000 
#    y 0.000000 1.842810 0.000000 
#    z 0.000000 0.000000 1.820070 
# 
# From -- ./inp_files/30886.got.cif
#   From: 2010.05.17/outbox.cif.g08.bks.cpg/sg69_16_cif.got.tgz:30886.got - 2010.06.03 19:29:58.
