data_PCOD9513121
_publ_section_title
;
Structure prediction by ZEFSAII (Michael W. Deem and Ramdas Pophale) SiO2 
 PCOD9513121
Probable space group: F M M M
;
_chemical_formula_sum "Si O2"
_cell_formula_units_Z 160
_cell_length_a 28.289631
_cell_length_b 15.147006
_cell_length_c 17.973165
_cell_angle_alpha 90.000000
_cell_angle_beta 90.000000
_cell_angle_gamma 90.000000
_cell_volume 7701.558905
_symmetry_space_group_name_H-M "F M M M"
_symmetry_group_IT_number 69
_symmetry_cell_setting 'orthorhombic'
loop_
_space_group_symop_operation_xyz
x,y,z
-x,-y,z
x,-y,-z
-x,y,-z
-x,-y,-z
x,y,-z
-x,y,z
x,-y,z
x,1/2+y,1/2+z
-x,1/2-y,1/2+z
x,1/2-y,1/2-z
-x,1/2+y,1/2-z
-x,1/2-y,1/2-z
x,1/2+y,1/2-z
-x,1/2+y,1/2+z
x,1/2-y,1/2+z
1/2+x,y,1/2+z
1/2-x,-y,1/2+z
1/2+x,-y,1/2-z
1/2-x,y,1/2-z
1/2-x,-y,1/2-z
1/2+x,y,1/2-z
1/2-x,y,1/2+z
1/2+x,-y,1/2+z
1/2+x,1/2+y,z
1/2-x,1/2-y,z
1/2+x,1/2-y,-z
1/2-x,1/2+y,-z
1/2-x,1/2-y,-z
1/2+x,1/2+y,-z
1/2-x,1/2+y,z
1/2+x,1/2-y,z
loop_
_atom_site_type_symbol
_atom_site_label
_atom_site_fract_x
_atom_site_fract_y
_atom_site_fract_z
Si Si1 0.500000 0.397367 0.911045
Si Si2 0.629317 0.636653 0.589151
Si Si3 0.885423 0.500000 0.310048
Si Si4 0.600946 0.835126 0.588159
Si Si5 0.260830 0.853108 0.089044
Si Si6 0.942105 0.500000 0.835027
Si Si7 0.286018 0.500000 0.815605
O O1 0.500000 0.500000 0.883778
O O2 0.454500 0.340374 0.893129
O O3 0.500000 0.406854 0.000000
O O4 0.623980 0.622510 0.500000
O O5 0.621864 0.740240 0.604902
O O6 0.684655 0.619787 0.607017
O O7 0.587660 0.581973 0.629428
O O8 0.882088 0.415886 0.363133
O O9 0.928262 0.500000 0.252410
O O10 0.835264 0.500000 0.271460
O O11 0.607663 0.852154 0.500000
O O12 0.250000 0.750000 0.105488
O O13 0.225021 0.915404 0.132983
O O14 0.254988 0.864181 0.000000
O O15 0.000000 0.500000 0.845931
O O16 0.250000 0.500000 0.750000
#
# Coordination Sequence:
#
# PCOD9513121 Si02
#       7
#    16  32  16  32  32  16  16
#     4   9  16  30  54  86 122 156 188 239 299 362
#     4  10  22  43  68  94 127 165 214 265 308 371
#     4  12  25  41  63  91 130 164 203 262 317 385
#     4  10  21  37  65  96 124 157 200 253 312 371
#     4  10  21  40  68 100 131 162 202 260 324 380
#     4  12  29  46  61  87 129 179 225 264 309 366
#     4  12  25  40  62  90 125 169 212 253 309 377
#
# _framework density 20.775013999999999
#
# number of rings (size 3 to 8) (size 9 to 14) (size 15 to 20)
#    0.000    1.500    1.000    3.900    2.800    6.800 
#    0.000    5.000    0.000    0.000    0.000    0.000 
#    0.000    0.000    0.000    0.000    0.000    0.000 
#
# Total GULP energy -223093.738706 kJ/mol
# GULP energy per Si atom -5577.343468 kJ/mol
# Density = 2.072773 g / cm^3
# Si number density = 20.775014 Si / 1000 Ang^3
#
#
#
# Elastic Constant Matrix: (Units=GPa)
#
#
# Indices 1 2 3 4 5 6 
#
# 1 131.0269 13.1324 26.2878 0.0000 0.0000 0.0000
# 2 13.1324 91.4514 46.3035 0.0000 0.0000 0.0000
# 3 26.2878 46.3035 56.6996 0.0000 0.0000 0.0000
# 4 0.0000 0.0000 0.0000 -110.7508 0.0000 0.0000
# 5 0.0000 0.0000 0.0000 0.0000 31.0887 0.0000
# 6 0.0000 0.0000 0.0000 0.0000 0.0000 35.6954
#
#
#
# Elastic Compliance Matrix: (Units=1/GPa)
#
#
# Indices 1 2 3 4 5 6 
#
# 1 0.008507 0.001322 -0.005024 0.000000 0.000000 0.000000
# 2 0.001322 0.018849 -0.016006 0.000000 0.000000 0.000000
# 3 -0.005024 -0.016006 0.033037 0.000000 0.000000 0.000000
# 4 0.000000 0.000000 0.000000 -0.009029 0.000000 0.000000
# 5 0.000000 0.000000 0.000000 0.000000 0.032166 0.000000
# 6 0.000000 0.000000 0.000000 0.000000 0.000000 0.028015
#
#
# Mechanical properties :
#
#
# Convention : Reuss Voigt Hill
#
# Bulk Modulus (GPa) = 47.66889 50.06947 48.86918
# Shear Modulus (GPa) = 31.65490 4.10363 17.87926
#
# Velocity S-wave (km/s) = 3.90770 1.40697 2.93680
# Velocity P-wave (km/s) = 6.58447 5.17615 5.92232
#
# Compressibility (1/GPa) = 0.02097804
#
# Stress axis : x y z
#
# Youngs Moduli (GPa) = 117.54371 53.05332 30.26891
#
# Poissons Ratio (x) = -0.07014 0.15207
# Poissons Ratio (y) = -0.15540 0.48448
# Poissons Ratio (z) = 0.59054 0.84916
#
# Static dielectric constant tensor:
#      x y z
#    x 1.805020 0.000000 0.000000 
#    y 0.000000 1.727440 0.000000 
#    z 0.000000 0.000000 1.776420 
# 
# From -- ./inp_files/27559.got.cif
#   From: 2010.05.17/outbox.cif.g08.bks.cpg/sg69_14_cif.got.tgz:27559.got - 2010.06.03 19:29:58.
