data_PCOD9513625
_publ_section_title
;
Structure prediction by ZEFSAII (Michael W. Deem and Ramdas Pophale) SiO2 
 PCOD9513625
Probable space group: F M M M
;
_chemical_formula_sum "Si O2"
_cell_formula_units_Z 104
_cell_length_a 23.306767
_cell_length_b 16.694688
_cell_length_c 13.343077
_cell_angle_alpha 90.000000
_cell_angle_beta 90.000000
_cell_angle_gamma 90.000000
_cell_volume 5191.780631
_symmetry_space_group_name_H-M "F M M M"
_symmetry_group_IT_number 69
_symmetry_cell_setting 'orthorhombic'
loop_
_space_group_symop_operation_xyz
x,y,z
-x,-y,z
x,-y,-z
-x,y,-z
-x,-y,-z
x,y,-z
-x,y,z
x,-y,z
x,1/2+y,1/2+z
-x,1/2-y,1/2+z
x,1/2-y,1/2-z
-x,1/2+y,1/2-z
-x,1/2-y,1/2-z
x,1/2+y,1/2-z
-x,1/2+y,1/2+z
x,1/2-y,1/2+z
1/2+x,y,1/2+z
1/2-x,-y,1/2+z
1/2+x,-y,1/2-z
1/2-x,y,1/2-z
1/2-x,-y,1/2-z
1/2+x,y,1/2-z
1/2-x,y,1/2+z
1/2+x,-y,1/2+z
1/2+x,1/2+y,z
1/2-x,1/2-y,z
1/2+x,1/2-y,-z
1/2-x,1/2+y,-z
1/2-x,1/2-y,-z
1/2+x,1/2+y,-z
1/2-x,1/2+y,z
1/2+x,1/2-y,z
loop_
_atom_site_type_symbol
_atom_site_label
_atom_site_fract_x
_atom_site_fract_y
_atom_site_fract_z
Si Si1 0.590594 0.787107 0.000000
Si Si2 0.798475 0.000000 0.666642
Si Si3 0.624833 0.500000 0.844249
Si Si4 0.714095 0.132918 0.000000
Si Si5 0.000000 0.675036 0.828852
Si Si6 0.500000 0.000000 0.719495
Si Si7 0.843762 0.132374 0.000000
O O1 0.655533 0.818220 0.000000
O O2 0.554894 0.814234 0.097504
O O3 0.602843 0.692520 0.000000
O O4 0.750000 0.000000 0.750000
O O5 0.857262 0.000000 0.728393
O O6 0.790905 0.076354 0.596877
O O7 0.556751 0.500000 0.847638
O O8 0.649958 0.423877 0.902749
O O9 0.778911 0.167119 0.000000
O O10 0.000000 0.750000 0.750000
O O11 0.000000 0.585248 0.780987
#
# Coordination Sequence:
#
# PCOD9513625 Si02
#       7
#    16  16  16  16  16   8  16
#     4  11  25  41  65  89 136 170 213 268 326 384
#     4  11  19  39  64  88 126 166 207 276 318 382
#     4  11  22  39  65  95 122 164 218 268 328 388
#     4  11  22  38  63  96 124 168 214 257 328 391
#     4  11  25  48  66  96 131 173 218 276 326 387
#     4  12  24  40  70  92 128 168 230 260 318 402
#     4  11  22  39  62  93 129 165 211 266 326 393
#
# _framework density 20.031663999999999
#
# number of rings (size 3 to 8) (size 9 to 14) (size 15 to 20)
#    0.000    0.923    3.077    5.077    0.000    4.923 
#    0.000    0.000    0.000    0.000    0.000    0.000 
#    0.000    0.000    0.000    0.000    0.000    0.000 
#
# Total GULP energy -145120.220363 kJ/mol
# GULP energy per Si atom -5581.546937 kJ/mol
# Density = 1.998607 g / cm^3
# Si number density = 20.031664 Si / 1000 Ang^3
#
#
#
# Elastic Constant Matrix: (Units=GPa)
#
#
# Indices 1 2 3 4 5 6 
#
# 1 162.3656 34.1128 34.7935 0.0000 0.0000 0.0000
# 2 34.1128 105.1153 36.0157 0.0000 0.0000 0.0000
# 3 34.7935 36.0157 106.7718 0.0000 0.0000 0.0000
# 4 0.0000 0.0000 0.0000 30.4173 0.0000 0.0000
# 5 0.0000 0.0000 0.0000 0.0000 38.5744 0.0000
# 6 0.0000 0.0000 0.0000 0.0000 0.0000 36.7188
#
#
#
# Elastic Compliance Matrix: (Units=1/GPa)
#
#
# Indices 1 2 3 4 5 6 
#
# 1 0.006866 -0.001653 -0.001680 0.000000 0.000000 0.000000
# 2 -0.001653 0.011154 -0.003224 0.000000 0.000000 0.000000
# 3 -0.001680 -0.003224 0.011001 0.000000 0.000000 0.000000
# 4 0.000000 0.000000 0.000000 0.032876 0.000000 0.000000
# 5 0.000000 0.000000 0.000000 0.000000 0.025924 0.000000
# 6 0.000000 0.000000 0.000000 0.000000 0.000000 0.027234
#
#
# Mechanical properties :
#
#
# Convention : Reuss Voigt Hill
#
# Bulk Modulus (GPa) = 62.86155 64.89964 63.88060
# Shear Modulus (GPa) = 37.46132 39.09750 38.27941
#
# Velocity S-wave (km/s) = 4.32916 4.42269 4.37618
# Velocity P-wave (km/s) = 7.51253 7.65174 7.58245
#
# Compressibility (1/GPa) = 0.01590797
#
# Stress axis : x y z
#
# Youngs Moduli (GPa) = 145.64167 89.65137 90.90316
#
# Poissons Ratio (x) = 0.14816 0.15272
# Poissons Ratio (y) = 0.24069 0.29307
# Poissons Ratio (z) = 0.24468 0.28903
#
# Static dielectric constant tensor:
#      x y z
#    x 1.725870 0.000000 0.000000 
#    y 0.000000 1.747260 0.000000 
#    z 0.000000 0.000000 1.681850 
# 
# From -- ./inp_files/8278.got.cif
#   From: 2010.05.17/outbox.cif.g08.bks.cpg/sg69_5_cif.got.tgz:8278.got - 2010.06.03 19:29:58.
