data_PCOD9513502
_publ_section_title
;
Structure prediction by ZEFSAII (Michael W. Deem and Ramdas Pophale) SiO2 
 PCOD9513502
Probable space group: F M M M
;
_chemical_formula_sum "Si O2"
_cell_formula_units_Z 112
_cell_length_a 8.279287
_cell_length_b 29.162763
_cell_length_c 21.983408
_cell_angle_alpha 90.000000
_cell_angle_beta 90.000000
_cell_angle_gamma 90.000000
_cell_volume 5307.825374
_symmetry_space_group_name_H-M "F M M M"
_symmetry_group_IT_number 69
_symmetry_cell_setting 'orthorhombic'
loop_
_space_group_symop_operation_xyz
x,y,z
-x,-y,z
x,-y,-z
-x,y,-z
-x,-y,-z
x,y,-z
-x,y,z
x,-y,z
x,1/2+y,1/2+z
-x,1/2-y,1/2+z
x,1/2-y,1/2-z
-x,1/2+y,1/2-z
-x,1/2-y,1/2-z
x,1/2+y,1/2-z
-x,1/2+y,1/2+z
x,1/2-y,1/2+z
1/2+x,y,1/2+z
1/2-x,-y,1/2+z
1/2+x,-y,1/2-z
1/2-x,y,1/2-z
1/2-x,-y,1/2-z
1/2+x,y,1/2-z
1/2-x,y,1/2+z
1/2+x,-y,1/2+z
1/2+x,1/2+y,z
1/2-x,1/2-y,z
1/2+x,1/2-y,-z
1/2-x,1/2+y,-z
1/2-x,1/2-y,-z
1/2+x,1/2+y,-z
1/2-x,1/2+y,z
1/2+x,1/2-y,z
loop_
_atom_site_type_symbol
_atom_site_label
_atom_site_fract_x
_atom_site_fract_y
_atom_site_fract_z
Si Si1 0.193398 0.302682 0.066700
Si Si2 0.808139 0.855436 0.813998
Si Si3 0.698311 0.052078 0.633420
Si Si4 0.683349 0.555690 0.000000
O O1 0.250000 0.250000 0.069869
O O2 0.256467 0.328826 0.125595
O O3 0.000000 0.303998 0.067704
O O4 0.248066 0.321033 0.000000
O O5 0.750000 0.835572 0.750000
O O6 0.748651 0.907997 0.821695
O O7 0.000000 0.856238 0.812665
O O8 0.500000 0.051410 0.630883
O O9 0.757195 0.066194 0.565500
O O10 0.749349 0.000000 0.647290
O O11 0.672477 0.500000 0.000000
O O12 0.500000 0.574079 0.000000
#
# Coordination Sequence:
#
# PCOD9513502 Si02
#       4
#    32  32  32  16
#     4  10  22  42  67  93 120 149 187 238 296 357
#     4  11  23  37  57  86 122 161 203 245 292 349
#     4   8  15  28  48  77 113 153 197 244 290 339
#     4   7  10  20  40  68 100 133 178 235 286 329
#
# _framework density 21.100919000000001
#
# number of rings (size 3 to 8) (size 9 to 14) (size 15 to 20)
#    0.000    2.714    0.000    3.429    2.000    2.857 
#    0.000    2.857    0.000    2.571    0.000    2.000 
#    0.000    0.000    0.000    0.000    0.000    0.000 
#
# Total GULP energy -156163.105310 kJ/mol
# GULP energy per Si atom -5577.253761 kJ/mol
# Density = 2.105289 g / cm^3
# Si number density = 21.100919 Si / 1000 Ang^3
#
#
#
# Elastic Constant Matrix: (Units=GPa)
#
#
# Indices 1 2 3 4 5 6 
#
# 1 32.9158 12.2282 29.9067 0.0000 0.0000 0.0000
# 2 12.2282 68.7559 67.1558 0.0000 0.0000 0.0000
# 3 29.9067 67.1558 183.2424 0.0000 0.0000 0.0000
# 4 0.0000 0.0000 0.0000 19.4268 0.0000 0.0000
# 5 0.0000 0.0000 0.0000 0.0000 19.5403 0.0000
# 6 0.0000 0.0000 0.0000 0.0000 0.0000 8.1802
#
#
#
# Elastic Compliance Matrix: (Units=1/GPa)
#
#
# Indices 1 2 3 4 5 6 
#
# 1 0.035716 -0.001026 -0.005453 0.000000 0.000000 0.000000
# 2 -0.001026 0.022682 -0.008145 0.000000 0.000000 0.000000
# 3 -0.005453 -0.008145 0.009332 0.000000 0.000000 0.000000
# 4 0.000000 0.000000 0.000000 0.051475 0.000000 0.000000
# 5 0.000000 0.000000 0.000000 0.000000 0.051176 0.000000
# 6 0.000000 0.000000 0.000000 0.000000 0.000000 0.122246
#
#
# Mechanical properties :
#
#
# Convention : Reuss Voigt Hill
#
# Bulk Modulus (GPa) = 25.98590 55.94395 40.96492
# Shear Modulus (GPa) = 14.93854 21.13771 18.03813
#
# Velocity S-wave (km/s) = 2.66363 3.16847 2.92695
# Velocity P-wave (km/s) = 4.66923 6.32105 5.55686
#
# Compressibility (1/GPa) = 0.03848241
#
# Stress axis : x y z
#
# Youngs Moduli (GPa) = 27.99835 44.08689 107.15301
#
# Poissons Ratio (x) = 0.04522 0.58434
# Poissons Ratio (y) = 0.02872 0.87280
# Poissons Ratio (z) = 0.15268 0.35911
#
# Static dielectric constant tensor:
#      x y z
#    x 1.723480 0.000000 0.000000 
#    y 0.000000 1.769930 0.000000 
#    z 0.000000 0.000000 1.796700 
# 
# From -- ./inp_files/34494.got.cif
#   From: 2010.05.17/outbox.cif.g08.bks.cpg/sg69_18_cif.got.tgz:34494.got - 2010.06.03 19:29:58.
