data_PCOD9513125
_publ_section_title
;
Structure prediction by ZEFSAII (Michael W. Deem and Ramdas Pophale) SiO2 
 PCOD9513125
Probable space group: F M M M
;
_chemical_formula_sum "Si O2"
_cell_formula_units_Z 200
_cell_length_a 32.637841
_cell_length_b 15.075990
_cell_length_c 20.408745
_cell_angle_alpha 90.000000
_cell_angle_beta 90.000000
_cell_angle_gamma 90.000000
_cell_volume 10042.077354
_symmetry_space_group_name_H-M "F M M M"
_symmetry_group_IT_number 69
_symmetry_cell_setting 'orthorhombic'
loop_
_space_group_symop_operation_xyz
x,y,z
-x,-y,z
x,-y,-z
-x,y,-z
-x,-y,-z
x,y,-z
-x,y,z
x,-y,z
x,1/2+y,1/2+z
-x,1/2-y,1/2+z
x,1/2-y,1/2-z
-x,1/2+y,1/2-z
-x,1/2-y,1/2-z
x,1/2+y,1/2-z
-x,1/2+y,1/2+z
x,1/2-y,1/2+z
1/2+x,y,1/2+z
1/2-x,-y,1/2+z
1/2+x,-y,1/2-z
1/2-x,y,1/2-z
1/2-x,-y,1/2-z
1/2+x,y,1/2-z
1/2-x,y,1/2+z
1/2+x,-y,1/2+z
1/2+x,1/2+y,z
1/2-x,1/2-y,z
1/2+x,1/2-y,-z
1/2-x,1/2+y,-z
1/2-x,1/2-y,-z
1/2+x,1/2+y,-z
1/2-x,1/2+y,z
1/2+x,1/2-y,z
loop_
_atom_site_type_symbol
_atom_site_label
_atom_site_fract_x
_atom_site_fract_y
_atom_site_fract_z
Si Si1 0.643430 0.802469 0.423279
Si Si2 0.781732 0.394217 0.195676
Si Si3 0.128033 0.174456 0.305596
Si Si4 0.454980 0.642785 0.252859
Si Si5 0.729637 0.392985 0.924450
Si Si6 0.562130 0.899646 0.601937
Si Si7 0.000000 0.673461 0.500000
O O1 0.643222 0.778804 0.500000
O O2 0.631105 0.722222 0.375749
O O3 0.687771 0.842876 0.406720
O O4 0.609406 0.877840 0.410511
O O5 0.777978 0.500000 0.196842
O O6 0.750000 0.358613 0.250000
O O7 0.829062 0.373635 0.206360
O O8 0.765380 0.364908 0.124742
O O9 0.126812 0.250000 0.250000
O O10 0.085505 0.121569 0.295372
O O11 0.500000 0.611539 0.275562
O O12 0.457100 0.750000 0.250000
O O13 0.447665 0.610933 0.178564
O O14 0.723229 0.500000 0.919023
O O15 0.739752 0.374003 0.000000
O O16 0.535456 0.834590 0.557499
O O17 0.551828 0.000000 0.581429
#
# Coordination Sequence:
#
# PCOD9513125 Si02
#       7
#    32  32  32  32  32  32   8
#     4  11  22  36  55  85 119 157 195 236 289 356
#     4  10  22  38  58  83 111 146 191 245 298 347
#     4  11  22  39  56  82 114 153 196 239 289 347
#     4  10  21  38  57  76 111 157 196 233 284 338
#     4   9  19  36  56  80 112 150 188 230 292 355
#     4  12  22  35  56  84 119 157 192 237 291 352
#     4  12  25  36  54  92 130 154 191 242 299 356
#
# _framework density 19.916198000000001
#
# number of rings (size 3 to 8) (size 9 to 14) (size 15 to 20)
#    0.000    1.440    4.800    2.160    0.000    4.160 
#    0.000    1.600    0.000    0.000    0.000    0.000 
#    0.000    0.000    0.000    8.320    0.000    0.000 
#
# Total GULP energy -278675.313070 kJ/mol
# GULP energy per Si atom -5573.506261 kJ/mol
# Density = 1.987087 g / cm^3
# Si number density = 19.916198 Si / 1000 Ang^3
#
#
#
# Elastic Constant Matrix: (Units=GPa)
#
#
# Indices 1 2 3 4 5 6 
#
# 1 187.1901 9.5858 60.2614 0.0000 0.0000 0.0000
# 2 9.5858 22.8777 17.2538 0.0000 0.0000 0.0000
# 3 60.2614 17.2538 89.8499 0.0000 0.0000 0.0000
# 4 0.0000 0.0000 0.0000 -7.3920 0.0000 0.0000
# 5 0.0000 0.0000 0.0000 0.0000 55.8735 0.0000
# 6 0.0000 0.0000 0.0000 0.0000 0.0000 -101.0500
#
#
#
# Elastic Compliance Matrix: (Units=1/GPa)
#
#
# Indices 1 2 3 4 5 6 
#
# 1 0.006823 0.000693 -0.004709 0.000000 0.000000 0.000000
# 2 0.000693 0.051183 -0.010293 0.000000 0.000000 0.000000
# 3 -0.004709 -0.010293 0.016264 0.000000 0.000000 0.000000
# 4 0.000000 0.000000 0.000000 -0.135281 0.000000 0.000000
# 5 0.000000 0.000000 0.000000 0.000000 0.017898 0.000000
# 6 0.000000 0.000000 0.000000 0.000000 0.000000 -0.009896
#
#
# Mechanical properties :
#
#
# Convention : Reuss Voigt Hill
#
# Bulk Modulus (GPa) = 21.90507 52.67998 37.29252
# Shear Modulus (GPa) = -545.09248 3.67407 -270.70921
#
# Velocity S-wave (km/s) = -16.56162 1.35969 -11.67130
# Velocity P-wave (km/s) = 18.83332 5.38268 12.76167
#
# Compressibility (1/GPa) = 0.04565153
#
# Stress axis : x y z
#
# Youngs Moduli (GPa) = 146.57168 19.53758 61.48383
#
# Poissons Ratio (x) = -0.01353 0.28952
# Poissons Ratio (y) = -0.10151 0.63287
# Poissons Ratio (z) = 0.69018 0.20110
#
# Static dielectric constant tensor:
#      x y z
#    x 1.753040 0.000000 0.000000 
#    y 0.000000 1.723960 0.000000 
#    z 0.000000 0.000000 1.696900 
# 
# From -- ./inp_files/34000.got.cif
#   From: 2010.05.17/outbox.cif.g08.bks.cpg/sg69_17_cif.got.tgz:34000.got - 2010.06.03 19:29:58.
