data_PCOD9513429
_publ_section_title
;
Structure prediction by ZEFSAII (Michael W. Deem and Ramdas Pophale) SiO2 
 PCOD9513429
Probable space group: F M M M
;
_chemical_formula_sum "Si O2"
_cell_formula_units_Z 128
_cell_length_a 26.250411
_cell_length_b 21.325087
_cell_length_c 11.324987
_cell_angle_alpha 90.000000
_cell_angle_beta 90.000000
_cell_angle_gamma 90.000000
_cell_volume 6339.640502
_symmetry_space_group_name_H-M "F M M M"
_symmetry_group_IT_number 69
_symmetry_cell_setting 'orthorhombic'
loop_
_space_group_symop_operation_xyz
x,y,z
-x,-y,z
x,-y,-z
-x,y,-z
-x,-y,-z
x,y,-z
-x,y,z
x,-y,z
x,1/2+y,1/2+z
-x,1/2-y,1/2+z
x,1/2-y,1/2-z
-x,1/2+y,1/2-z
-x,1/2-y,1/2-z
x,1/2+y,1/2-z
-x,1/2+y,1/2+z
x,1/2-y,1/2+z
1/2+x,y,1/2+z
1/2-x,-y,1/2+z
1/2+x,-y,1/2-z
1/2-x,y,1/2-z
1/2-x,-y,1/2-z
1/2+x,y,1/2-z
1/2-x,y,1/2+z
1/2+x,-y,1/2+z
1/2+x,1/2+y,z
1/2-x,1/2-y,z
1/2+x,1/2-y,-z
1/2-x,1/2+y,-z
1/2-x,1/2-y,-z
1/2+x,1/2+y,-z
1/2-x,1/2+y,z
1/2+x,1/2-y,z
loop_
_atom_site_type_symbol
_atom_site_label
_atom_site_fract_x
_atom_site_fract_y
_atom_site_fract_z
Si Si1 0.559912 0.926811 0.500000
Si Si2 0.557419 0.427553 0.640976
Si Si3 0.208296 0.500000 0.642143
Si Si4 0.273632 0.819306 0.631225
Si Si5 0.633365 0.882580 0.692304
O O1 0.500000 0.923507 0.500000
O O2 0.584919 0.893465 0.610570
O O3 0.574934 0.000000 0.500000
O O4 0.556641 0.429133 0.500000
O O5 0.500000 0.407375 0.678735
O O6 0.563861 0.500000 0.683884
O O7 0.606743 0.388675 0.681568
O O8 0.224024 0.500000 0.500000
O O9 0.250000 0.500000 0.750000
O O10 0.172430 0.439294 0.663433
O O11 0.264089 0.846993 0.500000
O O12 0.250000 0.849447 0.750000
O O13 0.250000 0.750000 0.626895
O O14 0.333794 0.822230 0.657462
#
# Coordination Sequence:
#
# PCOD9513429 Si02
#       5
#    16  32  16  32  32
#     4  11  20  32  55  86 122 156 189 231 297 368
#     4   9  18  32  52  83 125 168 207 241 290 370
#     4  12  24  36  50  77 118 164 199 248 296 356
#     4  10  22  40  61  83 114 153 209 264 312 368
#     4  12  19  35  55  81 119 156 202 247 299 357
#
# _framework density 20.190418999999999
#
# number of rings (size 3 to 8) (size 9 to 14) (size 15 to 20)
#    0.000    1.375    5.000    2.250    0.000    4.000 
#    0.000    0.000    0.000    0.000    0.000   14.000 
#    0.000    0.000    0.000    0.000    0.000    0.000 
#
# Total GULP energy -178187.488921 kJ/mol
# GULP energy per Si atom -5568.359029 kJ/mol
# Density = 2.014447 g / cm^3
# Si number density = 20.190419 Si / 1000 Ang^3
#
#
#
# Elastic Constant Matrix: (Units=GPa)
#
#
# Indices 1 2 3 4 5 6 
#
# 1 112.4118 39.3724 52.9430 0.0000 0.0000 0.0000
# 2 39.3724 56.7840 3.3352 0.0000 0.0000 0.0000
# 3 52.9430 3.3352 139.6905 -0.0001 0.0000 0.0000
# 4 0.0000 0.0000 -0.0001 15.0086 0.0000 0.0000
# 5 0.0000 0.0000 0.0000 0.0000 25.3760 0.0000
# 6 0.0000 0.0000 0.0000 0.0000 0.0000 33.6229
#
#
#
# Elastic Compliance Matrix: (Units=1/GPa)
#
#
# Indices 1 2 3 4 5 6 
#
# 1 0.014985 -0.010070 -0.005439 0.000000 0.000000 0.000000
# 2 -0.010070 0.024403 0.003234 0.000000 0.000000 0.000000
# 3 -0.005439 0.003234 0.009143 0.000000 0.000000 0.000000
# 4 0.000000 0.000000 0.000000 0.066628 0.000000 0.000000
# 5 0.000000 0.000000 0.000000 0.000000 0.039407 0.000000
# 6 0.000000 0.000000 0.000000 0.000000 0.000000 0.029742
#
#
# Mechanical properties :
#
#
# Convention : Reuss Voigt Hill
#
# Bulk Modulus (GPa) = 41.70086 55.57639 48.63863
# Shear Modulus (GPa) = 23.05724 29.01720 26.03722
#
# Velocity S-wave (km/s) = 3.38300 3.79512 3.59497
# Velocity P-wave (km/s) = 5.99652 6.84031 6.43226
#
# Compressibility (1/GPa) = 0.02398032
#
# Stress axis : x y z
#
# Youngs Moduli (GPa) = 66.73540 40.97827 109.37607
#
# Poissons Ratio (x) = 0.41267 0.59487
# Poissons Ratio (y) = 0.67205 -0.35373
# Poissons Ratio (z) = 0.36296 -0.13253
#
# Static dielectric constant tensor:
#      x y z
#    x 1.723470 0.000000 0.000000 
#    y 0.000000 1.768700 0.000000 
#    z 0.000000 0.000000 2.002260 
# 
# From -- ./inp_files/10103.got.cif
#   From: 2010.05.17/outbox.cif.g08.bks.cpg/sg69_6_cif.got.tgz:10103.got - 2010.06.03 19:29:58.
