data_PCOD9513566
_publ_section_title
;
Structure prediction by ZEFSAII (Michael W. Deem and Ramdas Pophale) SiO2 
 PCOD9513566
Probable space group: F M M M
;
_chemical_formula_sum "Si O2"
_cell_formula_units_Z 104
_cell_length_a 10.022158
_cell_length_b 36.807756
_cell_length_c 14.609309
_cell_angle_alpha 90.000000
_cell_angle_beta 90.000000
_cell_angle_gamma 90.000000
_cell_volume 5389.273962
_symmetry_space_group_name_H-M "F M M M"
_symmetry_group_IT_number 69
_symmetry_cell_setting 'orthorhombic'
loop_
_space_group_symop_operation_xyz
x,y,z
-x,-y,z
x,-y,-z
-x,y,-z
-x,-y,-z
x,y,-z
-x,y,z
x,-y,z
x,1/2+y,1/2+z
-x,1/2-y,1/2+z
x,1/2-y,1/2-z
-x,1/2+y,1/2-z
-x,1/2-y,1/2-z
x,1/2+y,1/2-z
-x,1/2+y,1/2+z
x,1/2-y,1/2+z
1/2+x,y,1/2+z
1/2-x,-y,1/2+z
1/2+x,-y,1/2-z
1/2-x,y,1/2-z
1/2-x,-y,1/2-z
1/2+x,y,1/2-z
1/2-x,y,1/2+z
1/2+x,-y,1/2+z
1/2+x,1/2+y,z
1/2-x,1/2-y,z
1/2+x,1/2-y,-z
1/2-x,1/2+y,-z
1/2-x,1/2-y,-z
1/2+x,1/2+y,-z
1/2-x,1/2+y,z
1/2+x,1/2-y,z
loop_
_atom_site_type_symbol
_atom_site_label
_atom_site_fract_x
_atom_site_fract_y
_atom_site_fract_z
Si Si1 0.000000 0.544020 0.845496
Si Si2 0.289758 0.456711 0.500000
Si Si3 0.343817 0.215521 0.109080
Si Si4 0.750000 0.155344 0.750000
Si Si5 0.500000 0.606171 0.799958
Si Si6 0.000000 0.922424 0.000000
O O1 0.872666 0.554268 0.909226
O O2 0.000000 0.567722 0.754007
O O3 0.000000 0.500000 0.830249
O O4 0.296337 0.500000 0.500000
O O5 0.137884 0.444678 0.500000
O O6 0.500000 0.222629 0.130956
O O7 0.250000 0.250000 0.130042
O O8 0.291270 0.181517 0.166455
O O9 0.334951 0.208749 0.000000
O O10 0.627445 0.129549 0.727036
O O11 0.500000 0.600283 0.907720
#
# Coordination Sequence:
#
# PCOD9513566 Si02
#       6
#    16  16  32  16  16   8
#     4   9  20  44  69  90 122 173 225 261 315 396
#     4   9  19  39  69  95 119 157 209 273 330 382
#     4  10  23  44  70  99 129 169 212 258 313 378
#     4  12  25  44  63  94 134 174 216 254 323 382
#     4  12  27  42  61  94 128 178 215 267 323 382
#     4  12  25  40  56  92 134 160 208 274 326 372
#
# _framework density 19.297591000000001
#
# number of rings (size 3 to 8) (size 9 to 14) (size 15 to 20)
#    0.000    1.538    1.538    3.462    4.308    2.462 
#    5.538    3.846    0.000    0.000    0.000    0.000 
#    0.000    0.000    0.000    0.000    0.000    0.000 
#
# Total GULP energy -145305.712345 kJ/mol
# GULP energy per Si atom -5588.681244 kJ/mol
# Density = 1.925367 g / cm^3
# Si number density = 19.297591 Si / 1000 Ang^3
#
#
#
# Elastic Constant Matrix: (Units=GPa)
#
#
# Indices 1 2 3 4 5 6 
#
# 1 172.5919 56.0277 57.8384 0.0000 0.0000 0.0000
# 2 56.0277 92.5101 75.1264 0.0000 0.0000 0.0000
# 3 57.8384 75.1264 115.7402 0.0000 0.0000 0.0000
# 4 0.0000 0.0000 0.0000 4404.0381 0.0000 0.0000
# 5 0.0000 0.0000 0.0000 0.0000 18.7700 0.0000
# 6 0.0000 0.0000 0.0000 0.0000 0.0000 40.6284
#
#
#
# Elastic Compliance Matrix: (Units=1/GPa)
#
#
# Indices 1 2 3 4 5 6 
#
# 1 0.007360 -0.003110 -0.001659 0.000000 0.000000 0.000000
# 2 -0.003110 0.024173 -0.014137 0.000000 0.000000 0.000000
# 3 -0.001659 -0.014137 0.018645 0.000000 0.000000 0.000000
# 4 0.000000 0.000000 0.000000 0.000227 0.000000 0.000000
# 5 0.000000 0.000000 0.000000 0.000000 0.053277 0.000000
# 6 0.000000 0.000000 0.000000 0.000000 0.000000 0.024613
#
#
# Mechanical properties :
#
#
# Convention : Reuss Voigt Hill
#
# Bulk Modulus (GPa) = 80.86254 84.31412 82.58833
# Shear Modulus (GPa) = 29.37226 905.47728 467.42477
#
# Velocity S-wave (km/s) = 3.90560 21.68494 15.58028
# Velocity P-wave (km/s) = 7.89507 25.89919 19.14550
#
# Compressibility (1/GPa) = 0.01236667
#
# Stress axis : x y z
#
# Youngs Moduli (GPa) = 135.87760 41.36795 53.63298
#
# Poissons Ratio (x) = 0.12865 0.08899
# Poissons Ratio (y) = 0.42256 0.75819
# Poissons Ratio (z) = 0.22545 0.58481
#
# Static dielectric constant tensor:
#      x y z
#    x 1.576250 0.000000 0.000000 
#    y 0.000000 1.630100 0.000000 
#    z 0.000000 0.000000 1.672290 
# 
# From -- ./inp_files/13387.got.cif
#   From: 2010.05.17/outbox.cif.g08.bks.cpg/sg69_7_cif.got.tgz:13387.got - 2010.06.03 19:29:58.
