data_PCOD9513512
_publ_section_title
;
Structure prediction by ZEFSAII (Michael W. Deem and Ramdas Pophale) SiO2 
 PCOD9513512
Probable space group: F M M M
;
_chemical_formula_sum "Si O2"
_cell_formula_units_Z 104
_cell_length_a 13.736069
_cell_length_b 19.312137
_cell_length_c 15.400380
_cell_angle_alpha 90.000000
_cell_angle_beta 90.000000
_cell_angle_gamma 90.000000
_cell_volume 4085.302638
_symmetry_space_group_name_H-M "F M M M"
_symmetry_group_IT_number 69
_symmetry_cell_setting 'orthorhombic'
loop_
_space_group_symop_operation_xyz
x,y,z
-x,-y,z
x,-y,-z
-x,y,-z
-x,-y,-z
x,y,-z
-x,y,z
x,-y,z
x,1/2+y,1/2+z
-x,1/2-y,1/2+z
x,1/2-y,1/2-z
-x,1/2+y,1/2-z
-x,1/2-y,1/2-z
x,1/2+y,1/2-z
-x,1/2+y,1/2+z
x,1/2-y,1/2+z
1/2+x,y,1/2+z
1/2-x,-y,1/2+z
1/2+x,-y,1/2-z
1/2-x,y,1/2-z
1/2-x,-y,1/2-z
1/2+x,y,1/2-z
1/2-x,y,1/2+z
1/2+x,-y,1/2+z
1/2+x,1/2+y,z
1/2-x,1/2-y,z
1/2+x,1/2-y,-z
1/2-x,1/2+y,-z
1/2-x,1/2-y,-z
1/2+x,1/2+y,-z
1/2-x,1/2+y,z
1/2+x,1/2-y,z
loop_
_atom_site_type_symbol
_atom_site_label
_atom_site_fract_x
_atom_site_fract_y
_atom_site_fract_z
Si Si1 0.113280 0.083984 0.593053
Si Si2 0.881338 0.577983 0.286262
Si Si3 0.750000 0.750000 0.000000
Si Si4 0.884442 0.777736 0.154215
O O1 0.160829 0.102247 0.500000
O O2 0.152933 0.098942 0.689225
O O3 0.000000 0.107499 0.591833
O O4 0.109743 0.000000 0.593818
O O5 0.849066 0.500000 0.309016
O O6 0.858931 0.640449 0.350483
O O7 0.000000 0.575576 0.280850
O O8 0.831753 0.740085 0.922933
O O9 0.860067 0.750000 0.250000
O O10 0.000000 0.771352 0.145736
#
# Coordination Sequence:
#
# PCOD9513512 Si02
#       4
#    32  32   8  32
#     4   7   9  15  32  65 112 160 199 240 303 382
#     4   8  14  28  54  90 132 171 213 278 348 405
#     4  12  24  44  70  90 132 182 224 290 356 410
#     4  10  22  42  69 102 135 177 234 283 338 419
#
# _framework density 25.45711
#
# number of rings (size 3 to 8) (size 9 to 14) (size 15 to 20)
#    0.000    3.385    0.000    3.692    0.000    0.000 
#    2.769    0.769    0.000    9.231    0.000    0.000 
#    0.000    4.923    0.000    0.000    0.000    0.000 
#
# Total GULP energy -144918.859382 kJ/mol
# GULP energy per Si atom -5573.802284 kJ/mol
# Density = 2.539917 g / cm^3
# Si number density = 25.457110 Si / 1000 Ang^3
#
#
#
# Elastic Constant Matrix: (Units=GPa)
#
#
# Indices 1 2 3 4 5 6 
#
# 1 113.4369 2.9061 11.3283 0.0000 0.0000 0.0000
# 2 2.9061 134.1661 30.0098 0.0000 0.0000 0.0000
# 3 11.3283 30.0098 122.3645 0.0000 0.0000 0.0000
# 4 0.0000 0.0000 0.0000 13.8159 0.0000 0.0000
# 5 0.0000 0.0000 0.0000 0.0000 32.2521 0.0000
# 6 0.0000 0.0000 0.0000 0.0000 0.0000 -2.5278
#
#
#
# Elastic Compliance Matrix: (Units=1/GPa)
#
#
# Indices 1 2 3 4 5 6 
#
# 1 0.008898 -0.000009 -0.000822 0.000000 0.000000 0.000000
# 2 -0.000009 0.007886 -0.001933 0.000000 0.000000 0.000000
# 3 -0.000822 -0.001933 0.008722 0.000000 0.000000 0.000000
# 4 0.000000 0.000000 0.000000 0.072380 0.000000 0.000000
# 5 0.000000 0.000000 0.000000 0.000000 0.031006 0.000000
# 6 0.000000 0.000000 0.000000 0.000000 0.000000 -0.395606
#
#
# Mechanical properties :
#
#
# Convention : Reuss Voigt Hill
#
# Bulk Modulus (GPa) = 50.05298 50.93954 50.49626
# Shear Modulus (GPa) = -19.64431 30.42293 5.38931
#
# Velocity S-wave (km/s) = -2.78090 3.46072 1.45657
# Velocity P-wave (km/s) = 3.06483 6.00185 4.76526
#
# Compressibility (1/GPa) = 0.01997883
#
# Stress axis : x y z
#
# Youngs Moduli (GPa) = 112.38806 126.80608 114.64630
#
# Poissons Ratio (x) = 0.00114 0.09419
# Poissons Ratio (y) = 0.00101 0.22164
# Poissons Ratio (z) = 0.09233 0.24514
#
# Static dielectric constant tensor:
#      x y z
#    x 2.094420 0.000000 0.000000 
#    y 0.000000 2.093580 0.000000 
#    z 0.000000 0.000000 1.925830 
# 
# From -- ./inp_files/15082.got.cif
#   From: 2010.05.17/outbox.cif.g08.bks.cpg/sg69_8_cif.got.tgz:15082.got - 2010.06.03 19:29:58.
