data_PCOD9513138
_publ_section_title
;
Structure prediction by ZEFSAII (Michael W. Deem and Ramdas Pophale) SiO2 
 PCOD9513138
Probable space group: F M M M
;
_chemical_formula_sum "Si O2"
_cell_formula_units_Z 192
_cell_length_a 18.930781
_cell_length_b 16.407298
_cell_length_c 32.211407
_cell_angle_alpha 90.000000
_cell_angle_beta 90.000000
_cell_angle_gamma 90.000000
_cell_volume 10004.958529
_symmetry_space_group_name_H-M "F M M M"
_symmetry_group_IT_number 69
_symmetry_cell_setting 'orthorhombic'
loop_
_space_group_symop_operation_xyz
x,y,z
-x,-y,z
x,-y,-z
-x,y,-z
-x,-y,-z
x,y,-z
-x,y,z
x,-y,z
x,1/2+y,1/2+z
-x,1/2-y,1/2+z
x,1/2-y,1/2-z
-x,1/2+y,1/2-z
-x,1/2-y,1/2-z
x,1/2+y,1/2-z
-x,1/2+y,1/2+z
x,1/2-y,1/2+z
1/2+x,y,1/2+z
1/2-x,-y,1/2+z
1/2+x,-y,1/2-z
1/2-x,y,1/2-z
1/2-x,-y,1/2-z
1/2+x,y,1/2-z
1/2-x,y,1/2+z
1/2+x,-y,1/2+z
1/2+x,1/2+y,z
1/2-x,1/2-y,z
1/2+x,1/2-y,-z
1/2-x,1/2+y,-z
1/2-x,1/2-y,-z
1/2+x,1/2+y,-z
1/2-x,1/2+y,z
1/2+x,1/2-y,z
loop_
_atom_site_type_symbol
_atom_site_label
_atom_site_fract_x
_atom_site_fract_y
_atom_site_fract_z
Si Si1 0.830761 0.339185 0.265229
Si Si2 0.286815 0.905456 0.912712
Si Si3 0.081776 0.000000 0.236292
Si Si4 0.081623 0.304502 0.911867
Si Si5 0.711274 0.594994 0.000000
Si Si6 0.579097 0.214644 0.500000
Si Si7 0.162255 0.162728 0.135409
Si Si8 0.080784 0.500000 0.635206
O O1 0.855697 0.250000 0.250000
O O2 0.750000 0.349883 0.250000
O O3 0.877245 0.417098 0.251266
O O4 0.832731 0.336250 0.315096
O O5 0.368549 0.882844 0.909946
O O6 0.257707 0.890060 0.959038
O O7 0.240067 0.848100 0.883266
O O8 0.275176 0.000000 0.902103
O O9 0.081309 0.000000 0.185674
O O10 0.000000 0.000000 0.249870
O O11 0.084859 0.268627 0.958544
O O12 0.118206 0.237771 0.882284
O O13 0.000000 0.317811 0.901031
O O14 0.690973 0.500000 0.000000
O O15 0.642136 0.650272 0.000000
O O16 0.500000 0.177439 0.500000
O O17 0.120629 0.081119 0.121468
O O18 0.000000 0.500000 0.621180
#
# Coordination Sequence:
#
# PCOD9513138 Si02
#       8
#    32  32  16  32  16  16  32  16
#     4  10  23  39  63  91 122 157 207 258 315 379
#     4  11  23  39  63  91 123 164 208 251 302 363
#     4   9  19  39  63  89 120 158 194 249 315 375
#     4  11  24  39  61  90 125 165 207 251 304 363
#     4  10  21  38  58  92 128 161 204 251 304 358
#     4  10  21  38  58  90 128 165 204 251 304 359
#     4  11  21  38  63  91 118 158 205 256 306 372
#     4   9  18  35  59  88 124 153 192 248 312 374
#
# _framework density 19.190486
#
# number of rings (size 3 to 8) (size 9 to 14) (size 15 to 20)
#    0.000    1.667    2.500    1.750    4.667    2.167 
#    0.000    0.000    0.000    3.000    0.000    0.000 
#    0.000    0.000    0.000    0.000    0.000    0.000 
#
# Total GULP energy -268124.499378 kJ/mol
# GULP energy per Si atom -5585.927070 kJ/mol
# Density = 1.914681 g / cm^3
# Si number density = 19.190486 Si / 1000 Ang^3
#
#
#
# Elastic Constant Matrix: (Units=GPa)
#
#
# Indices 1 2 3 4 5 6 
#
# 1 150.9217 64.4861 22.1022 0.0000 0.0000 0.0000
# 2 64.4861 104.5370 21.6903 0.0000 0.0000 0.0000
# 3 22.1022 21.6903 59.4352 0.0000 0.0000 0.0000
# 4 0.0000 0.0000 0.0000 52.2261 0.0000 0.0000
# 5 0.0000 0.0000 0.0000 0.0000 39.6961 0.0000
# 6 0.0000 0.0000 0.0000 0.0000 0.0000 726.4008
#
#
#
# Elastic Compliance Matrix: (Units=1/GPa)
#
#
# Indices 1 2 3 4 5 6 
#
# 1 0.009111 -0.005320 -0.001447 0.000000 0.000000 0.000000
# 2 -0.005320 0.013456 -0.002932 0.000000 0.000000 0.000000
# 3 -0.001447 -0.002932 0.018433 0.000000 0.000000 0.000000
# 4 0.000000 0.000000 0.000000 0.019147 0.000000 0.000000
# 5 0.000000 0.000000 0.000000 0.000000 0.025191 0.000000
# 6 0.000000 0.000000 0.000000 0.000000 0.000000 0.001377
#
#
# Mechanical properties :
#
#
# Convention : Reuss Voigt Hill
#
# Bulk Modulus (GPa) = 46.29149 59.05014 52.67082
# Shear Modulus (GPa) = 44.12481 177.43895 110.78188
#
# Velocity S-wave (km/s) = 4.80031 9.62614 7.60610
# Velocity P-wave (km/s) = 7.40935 12.42528 10.22952
#
# Compressibility (1/GPa) = 0.02160224
#
# Stress axis : x y z
#
# Youngs Moduli (GPa) = 109.75711 74.31455 54.25023
#
# Poissons Ratio (x) = 0.39537 0.07848
# Poissons Ratio (y) = 0.58393 0.15908
# Poissons Ratio (z) = 0.15877 0.21791
#
# Static dielectric constant tensor:
#      x y z
#    x 1.657380 0.000000 0.000000 
#    y 0.000000 1.657470 0.000000 
#    z 0.000000 0.000000 1.741220 
# 
# From -- ./inp_files/46456.got.cif
#   From: 2010.05.17/outbox.cif.g08.bks.cpg/sg69_24_cif.got.tgz:46456.got - 2010.06.03 19:29:58.
