data_PCOD9513514
_publ_section_title
;
Structure prediction by ZEFSAII (Michael W. Deem and Ramdas Pophale) SiO2 
 PCOD9513514
Probable space group: F M M M
;
_chemical_formula_sum "Si O2"
_cell_formula_units_Z 136
_cell_length_a 18.608671
_cell_length_b 17.138198
_cell_length_c 19.174071
_cell_angle_alpha 90.000000
_cell_angle_beta 90.000000
_cell_angle_gamma 90.000000
_cell_volume 6114.977239
_symmetry_space_group_name_H-M "F M M M"
_symmetry_group_IT_number 69
_symmetry_cell_setting 'orthorhombic'
loop_
_space_group_symop_operation_xyz
x,y,z
-x,-y,z
x,-y,-z
-x,y,-z
-x,-y,-z
x,y,-z
-x,y,z
x,-y,z
x,1/2+y,1/2+z
-x,1/2-y,1/2+z
x,1/2-y,1/2-z
-x,1/2+y,1/2-z
-x,1/2-y,1/2-z
x,1/2+y,1/2-z
-x,1/2+y,1/2+z
x,1/2-y,1/2+z
1/2+x,y,1/2+z
1/2-x,-y,1/2+z
1/2+x,-y,1/2-z
1/2-x,y,1/2-z
1/2-x,-y,1/2-z
1/2+x,y,1/2-z
1/2-x,y,1/2+z
1/2+x,-y,1/2+z
1/2+x,1/2+y,z
1/2-x,1/2-y,z
1/2+x,1/2-y,-z
1/2-x,1/2+y,-z
1/2-x,1/2-y,-z
1/2+x,1/2+y,-z
1/2-x,1/2+y,z
1/2+x,1/2-y,z
loop_
_atom_site_type_symbol
_atom_site_label
_atom_site_fract_x
_atom_site_fract_y
_atom_site_fract_z
Si Si1 0.080090 0.343307 0.743067
Si Si2 0.356060 0.500000 0.500000
Si Si3 0.581631 0.254381 0.500000
Si Si4 0.293733 0.089911 0.647987
Si Si5 0.643266 0.361245 0.385291
Si Si6 0.870291 0.415016 0.500000
O O1 0.088234 0.250000 0.750000
O O2 0.141799 0.378507 0.694880
O O3 0.089090 0.373949 0.821744
O O4 0.000000 0.360188 0.715607
O O5 0.356574 0.567938 0.439355
O O6 0.500000 0.285237 0.500000
O O7 0.621655 0.286244 0.431190
O O8 0.581816 0.161399 0.500000
O O9 0.222052 0.141406 0.649411
O O10 0.320388 0.088650 0.568101
O O11 0.276881 0.000000 0.667501
O O12 0.906729 0.500000 0.500000
#
# Coordination Sequence:
#
# PCOD9513514 Si02
#       6
#    32   8  16  32  32  16
#     4  11  26  46  66  98 145 188 236 297 357 425
#     4  10  22  42  69 104 137 180 228 290 362 414
#     4  11  24  42  67 104 140 180 235 286 353 428
#     4  11  24  42  71 102 137 181 236 293 350 423
#     4  11  23  42  73 100 141 185 231 296 356 420
#     4  10  23  42  67  98 136 181 232 297 345 409
#
# _framework density 22.240475
#
# number of rings (size 3 to 8) (size 9 to 14) (size 15 to 20)
#    0.000    1.176    1.176    4.235    3.294   10.118 
#    0.000   12.353    0.000    0.000    0.000    0.000 
#    0.000    0.000    0.000    0.000    0.000    0.000 
#
# Total GULP energy -189744.057927 kJ/mol
# GULP energy per Si atom -5580.707586 kJ/mol
# Density = 2.218985 g / cm^3
# Si number density = 22.240475 Si / 1000 Ang^3
#
#
#
# Elastic Constant Matrix: (Units=GPa)
#
#
# Indices 1 2 3 4 5 6 
#
# 1 143.7561 52.1904 39.2893 0.0000 0.0000 0.0000
# 2 52.1904 101.2167 24.7824 0.0000 0.0000 0.0000
# 3 39.2893 24.7824 111.8751 0.0000 0.0000 0.0000
# 4 0.0000 0.0000 0.0000 12.0083 0.0000 0.0000
# 5 0.0000 0.0000 0.0000 0.0000 -448.9915 0.0000
# 6 0.0000 0.0000 0.0000 0.0000 0.0000 -8.5114
#
#
#
# Elastic Compliance Matrix: (Units=1/GPa)
#
#
# Indices 1 2 3 4 5 6 
#
# 1 0.009074 -0.004122 -0.002274 0.000000 0.000000 0.000000
# 2 -0.004122 0.012319 -0.001281 0.000000 0.000000 0.000000
# 3 -0.002274 -0.001281 0.010021 0.000000 0.000000 0.000000
# 4 0.000000 0.000000 0.000000 0.083276 0.000000 0.000000
# 5 0.000000 0.000000 0.000000 0.000000 -0.002227 0.000000
# 6 0.000000 0.000000 0.000000 0.000000 0.000000 -0.117489
#
#
# Mechanical properties :
#
#
# Convention : Reuss Voigt Hill
#
# Bulk Modulus (GPa) = 62.26675 65.48579 63.87627
# Shear Modulus (GPa) = 318.85072 -73.05989 122.89542
#
# Velocity S-wave (km/s) = 11.98650 -5.73771 7.44161
# Velocity P-wave (km/s) = 14.81979 3.79298 10.13014
#
# Compressibility (1/GPa) = 0.01605994
#
# Stress axis : x y z
#
# Youngs Moduli (GPa) = 110.20264 81.17505 99.79232
#
# Poissons Ratio (x) = 0.33462 0.22689
# Poissons Ratio (y) = 0.45428 0.12785
# Poissons Ratio (z) = 0.25056 0.10400
#
# Static dielectric constant tensor:
#      x y z
#    x 1.840960 0.000000 0.000000 
#    y 0.000000 1.815150 0.000000 
#    z 0.000000 0.000000 1.797710 
# 
# From -- ./inp_files/30533.got.cif
#   From: 2010.05.17/outbox.cif.g08.bks.cpg/sg69_16_cif.got.tgz:30533.got - 2010.06.03 19:29:58.
