data_PCOD9513893
_publ_section_title
;
Structure prediction by ZEFSAII (Michael W. Deem and Ramdas Pophale) SiO2 
 PCOD9513893
Probable space group: F M M M
;
_chemical_formula_sum "Si O2"
_cell_formula_units_Z 136
_cell_length_a 21.672132
_cell_length_b 16.579634
_cell_length_c 14.716696
_cell_angle_alpha 90.000000
_cell_angle_beta 90.000000
_cell_angle_gamma 90.000000
_cell_volume 5287.944584
_symmetry_space_group_name_H-M "F M M M"
_symmetry_group_IT_number 69
_symmetry_cell_setting 'orthorhombic'
loop_
_space_group_symop_operation_xyz
x,y,z
-x,-y,z
x,-y,-z
-x,y,-z
-x,-y,-z
x,y,-z
-x,y,z
x,-y,z
x,1/2+y,1/2+z
-x,1/2-y,1/2+z
x,1/2-y,1/2-z
-x,1/2+y,1/2-z
-x,1/2-y,1/2-z
x,1/2+y,1/2-z
-x,1/2+y,1/2+z
x,1/2-y,1/2+z
1/2+x,y,1/2+z
1/2-x,-y,1/2+z
1/2+x,-y,1/2-z
1/2-x,y,1/2-z
1/2-x,-y,1/2-z
1/2+x,y,1/2-z
1/2-x,y,1/2+z
1/2+x,-y,1/2+z
1/2+x,1/2+y,z
1/2-x,1/2-y,z
1/2+x,1/2-y,-z
1/2-x,1/2+y,-z
1/2-x,1/2-y,-z
1/2+x,1/2+y,-z
1/2-x,1/2+y,z
1/2+x,1/2-y,z
loop_
_atom_site_type_symbol
_atom_site_label
_atom_site_fract_x
_atom_site_fract_y
_atom_site_fract_z
Si Si1 0.745993 0.586417 0.140600
Si Si2 0.337368 0.714995 0.345886
Si Si3 0.895249 0.380729 0.397172
Si Si4 0.500000 0.000000 0.332135
Si Si5 0.930406 0.595052 0.893335
O O1 0.773322 0.500000 0.109723
O O2 0.750000 0.587827 0.250000
O O3 0.780665 0.667346 0.107370
O O4 0.674599 0.587730 0.114815
O O5 0.316829 0.750000 0.250000
O O6 0.380656 0.784681 0.387625
O O7 0.383155 0.640524 0.330747
O O8 0.916560 0.396460 0.500000
O O9 0.945329 0.428713 0.338122
O O10 0.930781 0.500000 0.876699
O O11 0.000000 0.624361 0.880606
O O12 0.913920 0.607856 0.000000
#
# Coordination Sequence:
#
# PCOD9513893 Si02
#       5
#    32  32  32   8  32
#     4  11  24  46  74 103 145 196 239 301 377 435
#     4  12  25  42  69 109 148 191 239 309 375 437
#     4  12  26  47  77 107 144 195 250 304 371 446
#     4  12  29  56  76 108 154 194 247 308 371 452
#     4   9  20  42  68  96 139 193 249 311 374 438
#
# _framework density 25.718879000000001
#
# number of rings (size 3 to 8) (size 9 to 14) (size 15 to 20)
#    0.000    0.941    3.529    3.882    1.647    3.294 
#    2.118    0.000    0.000    0.000    0.000    0.000 
#    0.000    0.000    0.000    0.000    0.000    0.000 
#
# Total GULP energy -189641.271874 kJ/mol
# GULP energy per Si atom -5577.684467 kJ/mol
# Density = 2.566034 g / cm^3
# Si number density = 25.718879 Si / 1000 Ang^3
#
#
#
# Elastic Constant Matrix: (Units=GPa)
#
#
# Indices 1 2 3 4 5 6 
#
# 1 174.1897 79.8000 16.0295 0.0000 0.0000 0.0000
# 2 79.8000 181.9707 11.9063 0.0000 0.0000 0.0000
# 3 16.0295 11.9063 67.5119 0.0000 0.0000 0.0000
# 4 0.0000 0.0000 0.0000 -34.3465 0.0000 0.0000
# 5 0.0000 0.0000 0.0000 0.0000 10.2824 0.0000
# 6 0.0000 0.0000 0.0000 0.0000 0.0000 57.7396
#
#
#
# Elastic Compliance Matrix: (Units=1/GPa)
#
#
# Indices 1 2 3 4 5 6 
#
# 1 0.007276 -0.003114 -0.001178 0.000000 0.000000 0.000000
# 2 -0.003114 0.006892 -0.000476 0.000000 0.000000 0.000000
# 3 -0.001178 -0.000476 0.015176 0.000000 0.000000 0.000000
# 4 0.000000 0.000000 0.000000 -0.029115 0.000000 0.000000
# 5 0.000000 0.000000 0.000000 0.000000 0.097253 0.000000
# 6 0.000000 0.000000 0.000000 0.000000 0.000000 0.017319
#
#
# Mechanical properties :
#
#
# Convention : Reuss Voigt Hill
#
# Bulk Modulus (GPa) = 50.48627 71.01602 60.75115
# Shear Modulus (GPa) = 38.18555 27.79753 32.99154
#
# Velocity S-wave (km/s) = 3.85740 3.29115 3.58547
# Velocity P-wave (km/s) = 6.28586 6.48958 6.38853
#
# Compressibility (1/GPa) = 0.01980736
#
# Stress axis : x y z
#
# Youngs Moduli (GPa) = 137.44431 145.09733 65.89361
#
# Poissons Ratio (x) = 0.45176 0.07765
# Poissons Ratio (y) = 0.42794 0.03138
# Poissons Ratio (z) = 0.16196 0.06910
#
# Static dielectric constant tensor:
#      x y z
#    x 2.018280 0.000000 0.000000 
#    y 0.000000 2.091260 0.000000 
#    z 0.000000 0.000000 2.085660 
# 
# From -- ./inp_files/24201.got.cif
#   From: 2010.05.17/outbox.cif.g08.bks.cpg/sg69_13_cif.got.tgz:24201.got - 2010.06.03 19:29:58.
