data_PCOD9513965
_publ_section_title
;
Structure prediction by ZEFSAII (Michael W. Deem and Ramdas Pophale) SiO2 
 PCOD9513965
Probable space group: F M M M
;
_chemical_formula_sum "Si O2"
_cell_formula_units_Z 36
_cell_length_a 30.000000
_cell_length_b 30.000000
_cell_length_c 9.000000
_cell_angle_alpha 90.000000
_cell_angle_beta 90.000000
_cell_angle_gamma 90.000000
_cell_volume 8100.000000
_symmetry_space_group_name_H-M "F M M M"
_symmetry_group_IT_number 69
_symmetry_cell_setting 'orthorhombic'
loop_
_space_group_symop_operation_xyz
x,y,z
-x,-y,z
x,-y,-z
-x,y,-z
-x,-y,-z
x,y,-z
-x,y,z
x,-y,z
x,1/2+y,1/2+z
-x,1/2-y,1/2+z
x,1/2-y,1/2-z
-x,1/2+y,1/2-z
-x,1/2-y,1/2-z
x,1/2+y,1/2-z
-x,1/2+y,1/2+z
x,1/2-y,1/2+z
1/2+x,y,1/2+z
1/2-x,-y,1/2+z
1/2+x,-y,1/2-z
1/2-x,y,1/2-z
1/2-x,-y,1/2-z
1/2+x,y,1/2-z
1/2-x,y,1/2+z
1/2+x,-y,1/2+z
1/2+x,1/2+y,z
1/2-x,1/2-y,z
1/2+x,1/2-y,-z
1/2-x,1/2+y,-z
1/2-x,1/2-y,-z
1/2+x,1/2+y,-z
1/2-x,1/2+y,z
1/2+x,1/2-y,z
loop_
_atom_site_type_symbol
_atom_site_label
_atom_site_fract_x
_atom_site_fract_y
_atom_site_fract_z
Si Si1 0.367551 0.111818 0.677481
Si Si2 0.450033 0.448670 0.819371
Si Si3 0.000000 0.700341 0.178749
Si Si4 0.590142 0.201871 0.322567
Si Si5 0.201737 0.950987 0.676659
O O1 0.363091 0.105227 0.500000
O O2 0.411959 0.085301 0.727224
O O3 0.372832 0.164420 0.702856
O O4 0.327464 0.088583 0.760310
O O5 0.500000 0.436824 0.768565
O O6 0.440864 0.500000 0.775426
O O7 0.450762 0.447982 0.000000
O O8 0.000000 0.750000 0.250000
O O9 0.045504 0.682000 0.246629
O O10 0.000000 0.701203 0.000000
O O11 0.582842 0.207005 0.500000
O O12 0.599283 0.250000 0.250000
O O13 0.205615 0.948278 0.500000
O O14 0.250000 0.949393 0.750000
O O15 0.181887 0.000000 0.714581
#
# Coordination Sequence:
#
# PCOD9513965 Si02
#       5
#    32  32  16  32  32
#     4  10  20  32  53  79 104 138 179 222 265 315
#     4   8  14  25  43  69 100 133 169 209 251 298
#     4  10  18  30  48  68  95 134 179 226 272 313
#     4  10  20  33  50  73 103 140 181 226 272 317
#     4  10  21  37  58  83 111 140 171 212 263 318
#
# _framework density 4.4444439999999998
#
# number of rings (size 3 to 8) (size 9 to 14) (size 15 to 20)
#    0.000    2.444    0.000    5.000    1.556    4.000 
#    0.000    0.000    0.000    0.667    0.000    7.778 
#    0.000    0.000    0.000    0.000    0.000    0.000 
#
# Total GULP energy -200650.081961 kJ/mol
# GULP energy per Si atom -5573.613388 kJ/mol
# Density = 0.443433 g / cm^3
# Si number density = 4.444444 Si / 1000 Ang^3
#
#
#
# Elastic Constant Matrix: (Units=GPa)
#
#
# Indices 1 2 3 4 5 6 
#
# 1 68.4911 59.6353 39.1145 0.0005 -0.0021 -0.0065
# 2 59.6353 103.5049 58.1498 -0.0144 0.0064 -0.0253
# 3 39.1145 58.1498 71.6526 0.0049 -0.0069 -0.0122
# 4 0.0005 -0.0144 0.0049 21.6613 -0.0007 -0.0160
# 5 -0.0021 0.0064 -0.0069 -0.0007 22.7675 0.0084
# 6 -0.0065 -0.0253 -0.0122 -0.0160 0.0084 -25.6738
#
#
#
# Elastic Compliance Matrix: (Units=1/GPa)
#
#
# Indices 1 2 3 4 5 6 
#
# 1 0.030008 -0.014863 -0.004319 -0.000010 0.000006 0.000009
# 2 -0.014863 0.025119 -0.012272 0.000020 -0.000012 -0.000015
# 3 -0.004319 -0.012272 0.026273 -0.000014 0.000011 0.000001
# 4 -0.000010 0.000020 -0.000014 0.046165 0.000002 -0.000029
# 5 0.000006 -0.000012 0.000011 0.000002 0.043922 0.000014
# 6 0.000009 -0.000015 0.000001 -0.000029 0.000014 -0.038950
#
#
# Mechanical properties :
#
#
# Convention : Reuss Voigt Hill
#
# Bulk Modulus (GPa) = 54.07565 61.93865 58.00715
# Shear Modulus (GPa) = 24.80023 9.53429 17.16726
#
# Velocity S-wave (km/s) = 3.73904 2.31834 3.11088
# Velocity P-wave (km/s) = 7.00886 6.48709 6.75302
#
# Compressibility (1/GPa) = 0.01849261
#
# Stress axis : x y z
#
# Youngs Moduli (GPa) = 33.32411 39.80988 38.06131
#
# Poissons Ratio (x) = 0.59170 0.16439
# Poissons Ratio (y) = 0.49530 0.46709
# Poissons Ratio (z) = 0.14393 0.48855
#
# Static dielectric constant tensor:
#      x y z
#    x 1.668770 0.000010 0.000000 
#    y 0.000010 1.632440 0.000000 
#    z 0.000000 0.000000 1.590870 
# 
# From -- ./inp_files/5582.got.cif
#   From: 2010.05.17/outbox.ucp.g08.bks.cvg/sg69_3_cif.got.tgz:5582.got - 2010.06.11 16:51:34.
