data_PCOD9513132
_publ_section_title
;
Structure prediction by ZEFSAII (Michael W. Deem and Ramdas Pophale) SiO2 
 PCOD9513132
Probable space group: F M M M
;
_chemical_formula_sum "Si O2"
_cell_formula_units_Z 160
_cell_length_a 8.271153
_cell_length_b 30.153703
_cell_length_c 33.532737
_cell_angle_alpha 90.000000
_cell_angle_beta 90.000000
_cell_angle_gamma 90.000000
_cell_volume 8363.262150
_symmetry_space_group_name_H-M "F M M M"
_symmetry_group_IT_number 69
_symmetry_cell_setting 'orthorhombic'
loop_
_space_group_symop_operation_xyz
x,y,z
-x,-y,z
x,-y,-z
-x,y,-z
-x,-y,-z
x,y,-z
-x,y,z
x,-y,z
x,1/2+y,1/2+z
-x,1/2-y,1/2+z
x,1/2-y,1/2-z
-x,1/2+y,1/2-z
-x,1/2-y,1/2-z
x,1/2+y,1/2-z
-x,1/2+y,1/2+z
x,1/2-y,1/2+z
1/2+x,y,1/2+z
1/2-x,-y,1/2+z
1/2+x,-y,1/2-z
1/2-x,y,1/2-z
1/2-x,-y,1/2-z
1/2+x,y,1/2-z
1/2-x,y,1/2+z
1/2+x,-y,1/2+z
1/2+x,1/2+y,z
1/2-x,1/2-y,z
1/2+x,1/2-y,-z
1/2-x,1/2+y,-z
1/2-x,1/2-y,-z
1/2+x,1/2+y,-z
1/2-x,1/2+y,z
1/2+x,1/2-y,z
loop_
_atom_site_type_symbol
_atom_site_label
_atom_site_fract_x
_atom_site_fract_y
_atom_site_fract_z
Si Si1 0.808168 0.201175 0.412286
Si Si2 0.802348 0.168163 0.500000
Si Si3 0.814268 0.950482 0.414538
Si Si4 0.195947 0.949377 0.795453
Si Si5 0.183840 0.379601 0.359894
Si Si6 0.809146 0.932575 0.000000
O O1 0.750000 0.250000 0.400955
O O2 0.751832 0.190536 0.457936
O O3 0.759018 0.164068 0.379869
O O4 0.000000 0.200968 0.414275
O O5 0.723809 0.119867 0.500000
O O6 0.000000 0.164476 0.500000
O O7 0.694172 0.916055 0.394789
O O8 0.776479 0.950852 0.460962
O O9 0.000000 0.936058 0.407856
O O10 0.793642 0.000000 0.398605
O O11 0.250000 0.942479 0.750000
O O12 0.256311 0.908828 0.823322
O O13 0.000000 0.949157 0.797952
O O14 0.248625 0.000000 0.806448
O O15 0.000000 0.368563 0.349408
O O16 0.000000 0.942215 0.000000
#
# Coordination Sequence:
#
# PCOD9513132 Si02
#       6
#    32  16  32  32  32  16
#     4  11  23  39  60  84 113 150 192 241 293 344
#     4  10  21  38  58  79 110 147 190 240 290 341
#     4  11  23  37  53  75 108 150 192 233 280 336
#     4   9  19  36  59  88 121 154 188 228 274 332
#     4  11  22  37  58  85 116 148 187 235 285 338
#     4  12  23  34  53  76 105 146 190 236 284 335
#
# _framework density 19.131291000000001
#
# number of rings (size 3 to 8) (size 9 to 14) (size 15 to 20)
#    0.000    1.400    2.000    3.900    0.000    6.000 
#    0.000    2.000    0.000    0.600    0.000    4.200 
#    0.000    0.000    0.000    0.000    0.000    0.000 
#
# Total GULP energy -223195.415645 kJ/mol
# GULP energy per Si atom -5579.885391 kJ/mol
# Density = 1.908775 g / cm^3
# Si number density = 19.131291 Si / 1000 Ang^3
#
#
#
# Elastic Constant Matrix: (Units=GPa)
#
#
# Indices 1 2 3 4 5 6 
#
# 1 28.8696 29.4814 4.6328 0.0000 0.0000 0.0000
# 2 29.4814 143.4154 65.7830 0.0000 0.0000 0.0000
# 3 4.6328 65.7830 125.0387 0.0000 0.0000 0.0000
# 4 0.0000 0.0000 0.0000 -2.4975 0.0000 0.0000
# 5 0.0000 0.0000 0.0000 0.0000 23.2472 0.0000
# 6 0.0000 0.0000 0.0000 0.0000 0.0000 12.1265
#
#
#
# Elastic Compliance Matrix: (Units=1/GPa)
#
#
# Indices 1 2 3 4 5 6 
#
# 1 0.045504 -0.011310 0.004264 0.000000 0.000000 0.000000
# 2 -0.011310 0.012002 -0.005895 0.000000 0.000000 0.000000
# 3 0.004264 -0.005895 0.010941 0.000000 0.000000 0.000000
# 4 0.000000 0.000000 0.000000 -0.400399 0.000000 0.000000
# 5 0.000000 0.000000 0.000000 0.000000 0.043016 0.000000
# 6 0.000000 0.000000 0.000000 0.000000 0.000000 0.082464
#
#
# Mechanical properties :
#
#
# Convention : Reuss Voigt Hill
#
# Bulk Modulus (GPa) = 23.49354 55.23534 39.36444
# Shear Modulus (GPa) = -30.04764 19.73701 -5.15532
#
# Velocity S-wave (km/s) = -3.96738 3.21543 -1.64334
# Velocity P-wave (km/s) = 2.94618 6.53603 4.12552
#
# Compressibility (1/GPa) = 0.04256489
#
# Stress axis : x y z
#
# Youngs Moduli (GPa) = 21.97612 83.32136 91.39986
#
# Poissons Ratio (x) = 0.94237 -0.38975
# Poissons Ratio (y) = 0.24855 0.53881
# Poissons Ratio (z) = -0.09371 0.49119
#
# Static dielectric constant tensor:
#      x y z
#    x 1.673130 0.000000 0.000000 
#    y 0.000000 1.707680 0.000000 
#    z 0.000000 0.000000 1.694980 
# 
# From -- ./inp_files/5750.got.cif
#   From: 2010.05.17/outbox.cif.g08.bks.cpg/sg69_3_cif.got.tgz:5750.got - 2010.06.03 19:29:58.
