data_PCOD9513808
_publ_section_title
;
Structure prediction by ZEFSAII (Michael W. Deem and Ramdas Pophale) SiO2 
 PCOD9513808
Probable space group: F M M M
;
_chemical_formula_sum "Si O2"
_cell_formula_units_Z 104
_cell_length_a 13.964066
_cell_length_b 22.316534
_cell_length_c 16.391546
_cell_angle_alpha 90.000000
_cell_angle_beta 90.000000
_cell_angle_gamma 90.000000
_cell_volume 5108.090164
_symmetry_space_group_name_H-M "F M M M"
_symmetry_group_IT_number 69
_symmetry_cell_setting 'orthorhombic'
loop_
_space_group_symop_operation_xyz
x,y,z
-x,-y,z
x,-y,-z
-x,y,-z
-x,-y,-z
x,y,-z
-x,y,z
x,-y,z
x,1/2+y,1/2+z
-x,1/2-y,1/2+z
x,1/2-y,1/2-z
-x,1/2+y,1/2-z
-x,1/2-y,1/2-z
x,1/2+y,1/2-z
-x,1/2+y,1/2+z
x,1/2-y,1/2+z
1/2+x,y,1/2+z
1/2-x,-y,1/2+z
1/2+x,-y,1/2-z
1/2-x,y,1/2-z
1/2-x,-y,1/2-z
1/2+x,y,1/2-z
1/2-x,y,1/2+z
1/2+x,-y,1/2+z
1/2+x,1/2+y,z
1/2-x,1/2-y,z
1/2+x,1/2-y,-z
1/2-x,1/2+y,-z
1/2-x,1/2-y,-z
1/2+x,1/2+y,-z
1/2-x,1/2+y,z
1/2+x,1/2-y,z
loop_
_atom_site_type_symbol
_atom_site_label
_atom_site_fract_x
_atom_site_fract_y
_atom_site_fract_z
Si Si1 0.665775 0.000000 0.318118
Si Si2 0.892437 0.367970 0.693603
Si Si3 0.760540 0.500000 0.000000
Si Si4 0.710229 0.182617 0.855516
Si Si5 0.610900 0.120490 0.000000
O O1 0.750000 0.000000 0.250000
O O2 0.608420 0.060553 0.299772
O O3 0.702331 0.000000 0.412991
O O4 0.808403 0.354374 0.629559
O O5 0.846234 0.336377 0.773257
O O6 0.000000 0.346415 0.677542
O O7 0.826337 0.440221 0.000000
O O8 0.750000 0.250000 0.853824
O O9 0.637597 0.162538 0.924314
O O10 0.500000 0.103927 0.000000
#
# Coordination Sequence:
#
# PCOD9513808 Si02
#       5
#    16  32   8  32  16
#     4  12  21  42  67  96 138 174 223 286 345 398
#     4  11  22  40  66  94 127 174 220 271 332 397
#     4  12  23  44  71  98 136 176 219 288 349 398
#     4  11  24  42  64  95 134 171 220 280 330 398
#     4  12  24  43  69  98 129 172 222 280 342 406
#
# _framework density 20.359860999999999
#
# number of rings (size 3 to 8) (size 9 to 14) (size 15 to 20)
#    0.000    0.615    6.154    3.923    0.000    3.692 
#    0.000    8.462    0.000    0.000    0.000    0.000 
#    0.000    0.000    0.000    0.000    0.000    0.000 
#
# Total GULP energy -144926.033914 kJ/mol
# GULP energy per Si atom -5574.078227 kJ/mol
# Density = 2.031352 g / cm^3
# Si number density = 20.359861 Si / 1000 Ang^3
#
#
#
# Elastic Constant Matrix: (Units=GPa)
#
#
# Indices 1 2 3 4 5 6 
#
# 1 125.5495 4.0756 13.6960 0.0000 0.0000 0.0000
# 2 4.0756 134.9210 2.8350 0.0000 0.0000 0.0000
# 3 13.6960 2.8350 84.0561 0.0000 0.0000 0.0000
# 4 0.0000 0.0000 0.0000 20.8327 0.0000 0.0000
# 5 0.0000 0.0000 0.0000 0.0000 5.9493 0.0000
# 6 0.0000 0.0000 0.0000 0.0000 0.0000 10.6938
#
#
#
# Elastic Compliance Matrix: (Units=1/GPa)
#
#
# Indices 1 2 3 4 5 6 
#
# 1 0.008116 -0.000218 -0.001315 0.000000 0.000000 0.000000
# 2 -0.000218 0.007423 -0.000215 0.000000 0.000000 0.000000
# 3 -0.001315 -0.000215 0.012118 0.000000 0.000000 0.000000
# 4 0.000000 0.000000 0.000000 0.048001 0.000000 0.000000
# 5 0.000000 0.000000 0.000000 0.000000 0.168087 0.000000
# 6 0.000000 0.000000 0.000000 0.000000 0.000000 0.093512
#
#
# Mechanical properties :
#
#
# Convention : Reuss Voigt Hill
#
# Bulk Modulus (GPa) = 41.38762 42.85998 42.12380
# Shear Modulus (GPa) = 14.33460 29.08982 21.71221
#
# Velocity S-wave (km/s) = 2.65630 3.78403 3.26916
# Velocity P-wave (km/s) = 5.45711 6.33946 5.91476
#
# Compressibility (1/GPa) = 0.02416181
#
# Stress axis : x y z
#
# Youngs Moduli (GPa) = 123.22099 134.71952 82.51966
#
# Poissons Ratio (x) = 0.02930 0.10851
# Poissons Ratio (y) = 0.02680 0.01773
# Poissons Ratio (z) = 0.16203 0.02895
#
# Static dielectric constant tensor:
#      x y z
#    x 1.748340 0.000000 0.000000 
#    y 0.000000 1.768190 0.000000 
#    z 0.000000 0.000000 1.863900 
# 
# From -- ./inp_files/21375.got.cif
#   From: 2010.05.17/outbox.cif.g08.bks.cpg/sg69_11_cif.got.tgz:21375.got - 2010.06.03 19:29:58.
