data_PCOD9513862
_publ_section_title
;
Structure prediction by ZEFSAII (Michael W. Deem and Ramdas Pophale) SiO2 
 PCOD9513862
Probable space group: F M M M
;
_chemical_formula_sum "Si O2"
_cell_formula_units_Z 168
_cell_length_a 15.643886
_cell_length_b 25.726187
_cell_length_c 21.250683
_cell_angle_alpha 90.000000
_cell_angle_beta 90.000000
_cell_angle_gamma 90.000000
_cell_volume 8552.497532
_symmetry_space_group_name_H-M "F M M M"
_symmetry_group_IT_number 69
_symmetry_cell_setting 'orthorhombic'
loop_
_space_group_symop_operation_xyz
x,y,z
-x,-y,z
x,-y,-z
-x,y,-z
-x,-y,-z
x,y,-z
-x,y,z
x,-y,z
x,1/2+y,1/2+z
-x,1/2-y,1/2+z
x,1/2-y,1/2-z
-x,1/2+y,1/2-z
-x,1/2-y,1/2-z
x,1/2+y,1/2-z
-x,1/2+y,1/2+z
x,1/2-y,1/2+z
1/2+x,y,1/2+z
1/2-x,-y,1/2+z
1/2+x,-y,1/2-z
1/2-x,y,1/2-z
1/2-x,-y,1/2-z
1/2+x,y,1/2-z
1/2-x,y,1/2+z
1/2+x,-y,1/2+z
1/2+x,1/2+y,z
1/2-x,1/2-y,z
1/2+x,1/2-y,-z
1/2-x,1/2+y,-z
1/2-x,1/2-y,-z
1/2+x,1/2+y,-z
1/2-x,1/2+y,z
1/2+x,1/2-y,z
loop_
_atom_site_type_symbol
_atom_site_label
_atom_site_fract_x
_atom_site_fract_y
_atom_site_fract_z
Si Si1 0.000000 0.618359 0.500000
Si Si2 0.202699 0.304866 0.929662
Si Si3 0.841983 0.395069 0.404665
Si Si4 0.762150 0.000000 0.569834
Si Si5 0.147528 0.898815 0.758409
Si Si6 0.598425 0.708957 0.301551
Si Si7 0.402282 0.000000 0.179821
O O1 0.075755 0.616735 0.446113
O O2 0.250000 0.250000 0.934412
O O3 0.271106 0.349944 0.913970
O O4 0.141408 0.296929 0.869832
O O5 0.165284 0.315811 0.000000
O O6 0.796902 0.449197 0.423250
O O7 0.868550 0.400064 0.332319
O O8 0.834149 0.000000 0.623335
O O9 0.800736 0.000000 0.500000
O O10 0.250000 0.896169 0.750000
O O11 0.106634 0.847365 0.729648
O O12 0.114387 0.949405 0.722393
O O13 0.500000 0.724132 0.311348
O O14 0.635681 0.750000 0.250000
O O15 0.500000 0.000000 0.157248
#
# Coordination Sequence:
#
# PCOD9513862 Si02
#       7
#     8  32  32  16  32  32  16
#     4  12  28  45  66 104 146 176 226 293 332 416
#     4  11  23  44  67  94 131 179 227 270 342 412
#     4  12  25  44  67 100 135 182 226 275 340 404
#     4  12  23  44  70  94 135 179 225 264 341 416
#     4  12  23  43  71  95 132 181 224 276 338 407
#     4  11  25  43  67 103 134 172 229 285 336 402
#     4  12  26  43  65 105 134 168 229 285 337 402
#
# _framework density 19.643384000000001
#
# number of rings (size 3 to 8) (size 9 to 14) (size 15 to 20)
#    0.000    0.381    5.714    2.571    2.667    1.333 
#    1.714    0.000    0.000    4.571    0.000    0.000 
#    0.000    0.000    0.000    0.000    0.000    0.000 
#
# Total GULP energy -234249.554184 kJ/mol
# GULP energy per Si atom -5577.370338 kJ/mol
# Density = 1.959867 g / cm^3
# Si number density = 19.643384 Si / 1000 Ang^3
#
#
#
# Elastic Constant Matrix: (Units=GPa)
#
#
# Indices 1 2 3 4 5 6 
#
# 1 105.8700 11.0081 56.9149 0.0000 0.0000 0.0000
# 2 11.0081 129.0701 41.9308 0.0000 0.0000 0.0000
# 3 56.9149 41.9308 225.6799 0.0000 0.0000 0.0000
# 4 0.0000 0.0000 0.0000 89.2033 0.0000 0.0000
# 5 0.0000 0.0000 0.0000 0.0000 34.9026 0.0000
# 6 0.0000 0.0000 0.0000 0.0000 0.0000 17.9918
#
#
#
# Elastic Compliance Matrix: (Units=1/GPa)
#
#
# Indices 1 2 3 4 5 6 
#
# 1 0.010927 -0.000039 -0.002749 0.000000 0.000000 0.000000
# 2 -0.000039 0.008246 -0.001522 0.000000 0.000000 0.000000
# 3 -0.002749 -0.001522 0.005407 0.000000 0.000000 0.000000
# 4 0.000000 0.000000 0.000000 0.011210 0.000000 0.000000
# 5 0.000000 0.000000 0.000000 0.000000 0.028651 0.000000
# 6 0.000000 0.000000 0.000000 0.000000 0.000000 0.055581
#
#
# Mechanical properties :
#
#
# Convention : Reuss Voigt Hill
#
# Bulk Modulus (GPa) = 62.65531 75.59195 69.12363
# Shear Modulus (GPa) = 37.32408 51.80395 44.56401
#
# Velocity S-wave (km/s) = 4.36372 5.14096 4.76820
# Velocity P-wave (km/s) = 7.57331 8.59098 8.09815
#
# Compressibility (1/GPa) = 0.01596034
#
# Stress axis : x y z
#
# Youngs Moduli (GPa) = 91.51489 121.27742 184.94467
#
# Poissons Ratio (x) = 0.00474 0.50832
# Poissons Ratio (y) = 0.00357 0.28152
# Poissons Ratio (z) = 0.25153 0.18460
#
# Static dielectric constant tensor:
#      x y z
#    x 1.696430 0.000000 0.000000 
#    y 0.000000 1.669170 0.000000 
#    z 0.000000 0.000000 1.716880 
# 
# From -- ./inp_files/30013.got.cif
#   From: 2010.05.17/outbox.cif.g08.bks.cpg/sg69_16_cif.got.tgz:30013.got - 2010.06.03 19:29:58.
