data_PCOD9513561
_publ_section_title
;
Structure prediction by ZEFSAII (Michael W. Deem and Ramdas Pophale) SiO2 
 PCOD9513561
Probable space group: F M M M
;
_chemical_formula_sum "Si O2"
_cell_formula_units_Z 120
_cell_length_a 14.206115
_cell_length_b 32.329317
_cell_length_c 14.531268
_cell_angle_alpha 90.000000
_cell_angle_beta 90.000000
_cell_angle_gamma 90.000000
_cell_volume 6673.833509
_symmetry_space_group_name_H-M "F M M M"
_symmetry_group_IT_number 69
_symmetry_cell_setting 'orthorhombic'
loop_
_space_group_symop_operation_xyz
x,y,z
-x,-y,z
x,-y,-z
-x,y,-z
-x,-y,-z
x,y,-z
-x,y,z
x,-y,z
x,1/2+y,1/2+z
-x,1/2-y,1/2+z
x,1/2-y,1/2-z
-x,1/2+y,1/2-z
-x,1/2-y,1/2-z
x,1/2+y,1/2-z
-x,1/2+y,1/2+z
x,1/2-y,1/2+z
1/2+x,y,1/2+z
1/2-x,-y,1/2+z
1/2+x,-y,1/2-z
1/2-x,y,1/2-z
1/2-x,-y,1/2-z
1/2+x,y,1/2-z
1/2-x,y,1/2+z
1/2+x,-y,1/2+z
1/2+x,1/2+y,z
1/2-x,1/2-y,z
1/2+x,1/2-y,-z
1/2-x,1/2+y,-z
1/2-x,1/2-y,-z
1/2+x,1/2+y,-z
1/2-x,1/2+y,z
1/2+x,1/2-y,z
loop_
_atom_site_type_symbol
_atom_site_label
_atom_site_fract_x
_atom_site_fract_y
_atom_site_fract_z
Si Si1 0.500000 0.549513 0.388712
Si Si2 0.209604 0.428631 0.851084
Si Si3 0.749084 0.000000 0.000000
Si Si4 0.263609 0.334935 0.893667
Si Si5 0.891140 0.700797 0.764205
O O1 0.500000 0.500000 0.370046
O O2 0.500000 0.553456 0.500000
O O3 0.404227 0.569103 0.351450
O O4 0.250000 0.435965 0.750000
O O5 0.242993 0.463912 0.920359
O O6 0.244105 0.383703 0.883572
O O7 0.172306 0.312462 0.850575
O O8 0.347620 0.321551 0.825497
O O9 0.279757 0.324290 0.000000
O O10 0.882861 0.750000 0.750000
O O11 0.000000 0.690005 0.777011
#
# Coordination Sequence:
#
# PCOD9513561 Si02
#       5
#    16  32   8  32  32
#     4  11  20  38  60  88 117 158 212 264 304 356
#     4  12  23  39  64  92 126 165 210 261 315 361
#     4  12  22  41  60  95 126 164 212 263 306 373
#     4  11  22  39  63  94 125 162 206 257 307 369
#     4  10  23  43  65  92 126 162 204 254 312 377
#
# _framework density 17.98067
#
# number of rings (size 3 to 8) (size 9 to 14) (size 15 to 20)
#    0.000    0.933    6.667    2.000    1.867    3.200 
#    0.000    2.667    0.000    1.600    0.000    0.000 
#    0.000    0.000    0.000    0.000    0.000    0.000 
#
# Total GULP energy -167062.644378 kJ/mol
# GULP energy per Si atom -5568.754813 kJ/mol
# Density = 1.793975 g / cm^3
# Si number density = 17.980670 Si / 1000 Ang^3
#
#
#
# Elastic Constant Matrix: (Units=GPa)
#
#
# Indices 1 2 3 4 5 6 
#
# 1 51.9880 2.1358 -3.9762 0.0000 0.0000 0.0000
# 2 2.1358 75.0162 -7.3081 0.0000 0.0000 0.0000
# 3 -3.9762 -7.3081 97.7222 0.0000 0.0000 0.0000
# 4 0.0000 0.0000 0.0000 106.4201 0.0000 0.0000
# 5 0.0000 0.0000 0.0000 0.0000 -22.6775 0.0000
# 6 0.0000 0.0000 0.0000 0.0000 0.0000 -41.3520
#
#
#
# Elastic Compliance Matrix: (Units=1/GPa)
#
#
# Indices 1 2 3 4 5 6 
#
# 1 0.019312 -0.000477 0.000750 0.000000 0.000000 0.000000
# 2 -0.000477 0.013440 0.000986 0.000000 0.000000 0.000000
# 3 0.000750 0.000986 0.010337 0.000000 0.000000 0.000000
# 4 0.000000 0.000000 0.000000 0.009397 0.000000 0.000000
# 5 0.000000 0.000000 0.000000 0.000000 -0.044097 0.000000
# 6 0.000000 0.000000 0.000000 0.000000 0.000000 -0.024183
#
#
# Mechanical properties :
#
#
# Convention : Reuss Voigt Hill
#
# Bulk Modulus (GPa) = 21.92613 22.93661 22.43137
# Shear Modulus (GPa) = -1608.51544 24.06978 -792.22283
#
# Velocity S-wave (km/s) = -29.94198 3.66272 -21.01317
# Velocity P-wave (km/s) = 34.39684 5.53817 24.00491
#
# Compressibility (1/GPa) = 0.04560769
#
# Stress axis : x y z
#
# Youngs Moduli (GPa) = 51.78083 74.40442 96.73683
#
# Poissons Ratio (x) = 0.03547 -0.07256
# Poissons Ratio (y) = 0.02469 -0.09535
# Poissons Ratio (z) = -0.03884 -0.07334
#
# Static dielectric constant tensor:
#      x y z
#    x 1.618560 0.000000 0.000000 
#    y 0.000000 1.615460 0.000000 
#    z 0.000000 0.000000 1.585580 
# 
# From -- ./inp_files/14417.got.cif
#   From: 2010.05.17/outbox.cif.g08.bks.cpg/sg69_8_cif.got.tgz:14417.got - 2010.06.03 19:29:58.
