data_PCOD9513945
_publ_section_title
;
Structure prediction by ZEFSAII (Michael W. Deem and Ramdas Pophale) SiO2 
 PCOD9513945
Probable space group: F M M M
;
_chemical_formula_sum "Si O2"
_cell_formula_units_Z 144
_cell_length_a 23.376785
_cell_length_b 17.073723
_cell_length_c 14.232577
_cell_angle_alpha 90.000000
_cell_angle_beta 90.000000
_cell_angle_gamma 90.000000
_cell_volume 5680.630692
_symmetry_space_group_name_H-M "F M M M"
_symmetry_group_IT_number 69
_symmetry_cell_setting 'orthorhombic'
loop_
_space_group_symop_operation_xyz
x,y,z
-x,-y,z
x,-y,-z
-x,y,-z
-x,-y,-z
x,y,-z
-x,y,z
x,-y,z
x,1/2+y,1/2+z
-x,1/2-y,1/2+z
x,1/2-y,1/2-z
-x,1/2+y,1/2-z
-x,1/2-y,1/2-z
x,1/2+y,1/2-z
-x,1/2+y,1/2+z
x,1/2-y,1/2+z
1/2+x,y,1/2+z
1/2-x,-y,1/2+z
1/2+x,-y,1/2-z
1/2-x,y,1/2-z
1/2-x,-y,1/2-z
1/2+x,y,1/2-z
1/2-x,y,1/2+z
1/2+x,-y,1/2+z
1/2+x,1/2+y,z
1/2-x,1/2-y,z
1/2+x,1/2-y,-z
1/2-x,1/2+y,-z
1/2-x,1/2-y,-z
1/2+x,1/2+y,-z
1/2-x,1/2+y,z
1/2+x,1/2-y,z
loop_
_atom_site_type_symbol
_atom_site_label
_atom_site_fract_x
_atom_site_fract_y
_atom_site_fract_z
Si Si1 0.898993 0.835088 0.347772
Si Si2 0.250872 0.000000 0.393424
Si Si3 0.929405 0.000000 0.847243
Si Si4 0.565566 0.668730 0.866226
Si Si5 0.612785 0.500000 0.633822
Si Si6 0.271114 0.837162 0.885564
O O1 0.906559 0.750603 0.395159
O O2 0.930077 0.833022 0.247585
O O3 0.914071 0.917172 0.396948
O O4 0.831384 0.842490 0.333649
O O5 0.180499 0.000000 0.391389
O O6 0.265741 0.086456 0.355845
O O7 0.271445 0.000000 0.500000
O O8 0.913450 0.082472 0.894700
O O9 0.898345 0.000000 0.746133
O O10 0.000000 0.000000 0.836433
O O11 0.500000 0.674389 0.893646
O O12 0.250000 0.750000 0.867412
O O13 0.279359 0.843601 0.000000
#
# Coordination Sequence:
#
# PCOD9513945 Si02
#       6
#    32  16  16  32  16  32
#     4   9  15  25  41  61  82 106 133 164 198 237
#     4   8  14  26  43  58  74 101 133 163 199 240
#     4   8  14  24  39  58  79 105 133 160 194 236
#     4   9  16  27  43  62  84 108 134 164 199 239
#     4   8  14  22  36  57  79 101 130 161 193 234
#     4   9  17  29  44  61  81 106 136 168 201 238
#
# _framework density 25.349295999999999
#
# number of rings (size 3 to 8) (size 9 to 14) (size 15 to 20)
#    0.000    3.333    0.000    1.333    0.000    0.889 
#    0.000    3.333    0.000    3.000    0.000   38.889 
#    0.000    2.667    0.000    0.000    0.000    0.000 
#
# Total GULP energy -200652.759146 kJ/mol
# GULP energy per Si atom -5573.687754 kJ/mol
# Density = 2.529160 g / cm^3
# Si number density = 25.349296 Si / 1000 Ang^3
#
#
#
# Elastic Constant Matrix: (Units=GPa)
#
#
# Indices 1 2 3 4 5 6 
#
# 1 44.4630 18.3406 10.5595 0.0000 0.0000 0.0000
# 2 18.3406 354.6569 7.4452 0.0000 0.0000 0.0000
# 3 10.5595 7.4452 123.8329 0.0000 0.0000 0.0000
# 4 0.0000 0.0000 0.0000 -23.6226 0.0000 0.0000
# 5 0.0000 0.0000 0.0000 0.0000 -51.5484 0.0000
# 6 0.0000 0.0000 0.0000 0.0000 0.0000 35.3947
#
#
#
# Elastic Compliance Matrix: (Units=1/GPa)
#
#
# Indices 1 2 3 4 5 6 
#
# 1 0.023432 -0.001171 -0.001928 0.000000 0.000000 0.000000
# 2 -0.001171 0.002882 -0.000073 0.000000 0.000000 0.000000
# 3 -0.001928 -0.000073 0.008244 0.000000 0.000000 0.000000
# 4 0.000000 0.000000 0.000000 -0.042332 0.000000 0.000000
# 5 0.000000 0.000000 0.000000 0.000000 -0.019399 0.000000
# 6 0.000000 0.000000 0.000000 0.000000 0.000000 0.028253
#
#
# Mechanical properties :
#
#
# Convention : Reuss Voigt Hill
#
# Bulk Modulus (GPa) = 35.44477 66.18259 50.81368
# Shear Modulus (GPa) = 297.13037 24.48523 160.80780
#
# Velocity S-wave (km/s) = 10.83831 3.11129 7.97336
# Velocity P-wave (km/s) = 13.06285 6.25074 10.23987
#
# Compressibility (1/GPa) = 0.02821291
#
# Stress axis : x y z
#
# Youngs Moduli (GPa) = 42.67748 347.01281 121.29763
#
# Poissons Ratio (x) = 0.40644 0.23382
# Poissons Ratio (y) = 0.04999 0.00890
# Poissons Ratio (z) = 0.08227 0.02546
#
# Static dielectric constant tensor:
#      x y z
#    x 1.929990 0.000000 0.000000 
#    y 0.000000 2.168160 0.000000 
#    z 0.000000 0.000000 1.940290 
# 
# From -- ./inp_files/31697.got.cif
#   From: 2010.05.17/outbox.cif.g08.bks.cpg/sg69_16_cif.got.tgz:31697.got - 2010.06.03 19:29:58.
