data_PCOD9513341
_publ_section_title
;
Structure prediction by ZEFSAII (Michael W. Deem and Ramdas Pophale) SiO2 
 PCOD9513341
Probable space group: F M M M
;
_chemical_formula_sum "Si O2"
_cell_formula_units_Z 144
_cell_length_a 18.705444
_cell_length_b 23.838908
_cell_length_c 15.457384
_cell_angle_alpha 90.000000
_cell_angle_beta 90.000000
_cell_angle_gamma 90.000000
_cell_volume 6892.715844
_symmetry_space_group_name_H-M "F M M M"
_symmetry_group_IT_number 69
_symmetry_cell_setting 'orthorhombic'
loop_
_space_group_symop_operation_xyz
x,y,z
-x,-y,z
x,-y,-z
-x,y,-z
-x,-y,-z
x,y,-z
-x,y,z
x,-y,z
x,1/2+y,1/2+z
-x,1/2-y,1/2+z
x,1/2-y,1/2-z
-x,1/2+y,1/2-z
-x,1/2-y,1/2-z
x,1/2+y,1/2-z
-x,1/2+y,1/2+z
x,1/2-y,1/2+z
1/2+x,y,1/2+z
1/2-x,-y,1/2+z
1/2+x,-y,1/2-z
1/2-x,y,1/2-z
1/2-x,-y,1/2-z
1/2+x,y,1/2-z
1/2-x,y,1/2+z
1/2+x,-y,1/2+z
1/2+x,1/2+y,z
1/2-x,1/2-y,z
1/2+x,1/2-y,-z
1/2-x,1/2+y,-z
1/2-x,1/2-y,-z
1/2+x,1/2+y,-z
1/2-x,1/2+y,z
1/2+x,1/2-y,z
loop_
_atom_site_type_symbol
_atom_site_label
_atom_site_fract_x
_atom_site_fract_y
_atom_site_fract_z
Si Si1 0.085040 0.801312 0.500000
Si Si2 0.588110 0.124352 0.836092
Si Si3 0.350020 0.618331 0.148573
Si Si4 0.187263 0.296755 0.500000
Si Si5 0.915307 0.000000 0.668267
Si Si6 0.809698 0.500000 0.321500
Si Si7 0.000000 0.434973 0.398639
O O1 0.107099 0.833351 0.587480
O O2 0.115084 0.739379 0.500000
O O3 0.000000 0.801728 0.500000
O O4 0.500000 0.127886 0.818969
O O5 0.637279 0.133136 0.750435
O O6 0.603595 0.060769 0.869023
O O7 0.316482 0.664801 0.086105
O O8 0.307819 0.559749 0.132839
O O9 0.430528 0.600493 0.124677
O O10 0.250000 0.250000 0.500000
O O11 0.881066 0.000000 0.763151
O O12 0.000000 0.000000 0.672043
O O13 0.750000 0.500000 0.250000
O O14 0.000000 0.500000 0.368007
O O15 0.000000 0.440045 0.500000
#
# Coordination Sequence:
#
# PCOD9513341 Si02
#       7
#    16  32  32  16  16  16  16
#     4  10  24  43  61  91 126 170 238 295 323 382
#     4   9  18  35  63  96 129 162 211 279 346 399
#     4  11  22  40  70 100 137 175 217 276 349 418
#     4  12  30  47  61  89 133 184 233 283 335 398
#     4   8  16  31  59  91 123 162 208 267 333 403
#     4  10  22  37  61 103 138 166 205 263 344 431
#     4  11  20  34  70 116 142 162 210 287 370 428
#
# _framework density 20.891618999999999
#
# number of rings (size 3 to 8) (size 9 to 14) (size 15 to 20)
#    0.000    1.889    3.333    0.000    3.111    5.333 
#    0.000    5.556    0.000    6.667    0.000    0.000 
#    0.000    0.000    0.000    0.000    0.000    0.000 
#
# Total GULP energy -200573.920024 kJ/mol
# GULP energy per Si atom -5571.497778 kJ/mol
# Density = 2.084407 g / cm^3
# Si number density = 20.891619 Si / 1000 Ang^3
#
#
#
# Elastic Constant Matrix: (Units=GPa)
#
#
# Indices 1 2 3 4 5 6 
#
# 1 46.1901 27.3089 25.9342 0.0000 0.0000 0.0000
# 2 27.3089 154.3666 71.3883 0.0000 0.0000 0.0000
# 3 25.9342 71.3883 105.0828 0.0000 0.0000 0.0000
# 4 0.0000 0.0000 0.0000 53.2928 0.0000 0.0000
# 5 0.0000 0.0000 0.0000 0.0000 11.3605 0.0000
# 6 0.0000 0.0000 0.0000 0.0000 0.0000 29.7470
#
#
#
# Elastic Compliance Matrix: (Units=1/GPa)
#
#
# Indices 1 2 3 4 5 6 
#
# 1 0.025705 -0.002353 -0.004746 0.000000 0.000000 0.000000
# 2 -0.002353 0.009661 -0.005983 0.000000 0.000000 0.000000
# 3 -0.004746 -0.005983 0.014752 0.000000 0.000000 0.000000
# 4 0.000000 0.000000 0.000000 0.018764 0.000000 0.000000
# 5 0.000000 0.000000 0.000000 0.000000 0.088025 0.000000
# 6 0.000000 0.000000 0.000000 0.000000 0.000000 0.033617
#
#
# Mechanical properties :
#
#
# Convention : Reuss Voigt Hill
#
# Bulk Modulus (GPa) = 41.74313 61.65582 51.69947
# Shear Modulus (GPa) = 22.25475 30.94725 26.60100
#
# Velocity S-wave (km/s) = 3.26735 3.85297 3.57218
# Velocity P-wave (km/s) = 5.85306 7.02639 6.46639
#
# Compressibility (1/GPa) = 0.02395604
#
# Stress axis : x y z
#
# Youngs Moduli (GPa) = 38.90255 103.50868 67.78849
#
# Poissons Ratio (x) = 0.24354 0.32169
# Poissons Ratio (y) = 0.09153 0.40555
# Poissons Ratio (z) = 0.18461 0.61925
#
# Static dielectric constant tensor:
#      x y z
#    x 1.782030 0.000000 0.000000 
#    y 0.000000 1.789610 0.000000 
#    z 0.000000 0.000000 1.776520 
# 
# From -- ./inp_files/24547.got.cif
#   From: 2010.05.17/outbox.cif.g08.bks.cpg/sg69_13_cif.got.tgz:24547.got - 2010.06.03 19:29:58.
