data_PCOD9513241
_publ_section_title
;
Structure prediction by ZEFSAII (Michael W. Deem and Ramdas Pophale) SiO2 
 PCOD9513241
Probable space group: F M M M
;
_chemical_formula_sum "Si O2"
_cell_formula_units_Z 160
_cell_length_a 15.088848
_cell_length_b 30.468928
_cell_length_c 17.023515
_cell_angle_alpha 90.000000
_cell_angle_beta 90.000000
_cell_angle_gamma 90.000000
_cell_volume 7826.408207
_symmetry_space_group_name_H-M "F M M M"
_symmetry_group_IT_number 69
_symmetry_cell_setting 'orthorhombic'
loop_
_space_group_symop_operation_xyz
x,y,z
-x,-y,z
x,-y,-z
-x,y,-z
-x,-y,-z
x,y,-z
-x,y,z
x,-y,z
x,1/2+y,1/2+z
-x,1/2-y,1/2+z
x,1/2-y,1/2-z
-x,1/2+y,1/2-z
-x,1/2-y,1/2-z
x,1/2+y,1/2-z
-x,1/2+y,1/2+z
x,1/2-y,1/2+z
1/2+x,y,1/2+z
1/2-x,-y,1/2+z
1/2+x,-y,1/2-z
1/2-x,y,1/2-z
1/2-x,-y,1/2-z
1/2+x,y,1/2-z
1/2-x,y,1/2+z
1/2+x,-y,1/2+z
1/2+x,1/2+y,z
1/2-x,1/2-y,z
1/2+x,1/2-y,-z
1/2-x,1/2+y,-z
1/2-x,1/2-y,-z
1/2+x,1/2+y,-z
1/2-x,1/2+y,z
1/2+x,1/2-y,z
loop_
_atom_site_type_symbol
_atom_site_label
_atom_site_fract_x
_atom_site_fract_y
_atom_site_fract_z
Si Si1 0.363817 0.610989 0.327811
Si Si2 0.894437 0.549997 0.500000
Si Si3 0.860203 0.299135 0.092434
Si Si4 0.151573 0.391119 0.650718
Si Si5 0.000000 0.549133 0.907046
Si Si6 0.644506 0.202626 0.408748
O O1 0.390388 0.660277 0.354621
O O2 0.258363 0.609452 0.341477
O O3 0.383248 0.598868 0.237616
O O4 0.414837 0.576332 0.380301
O O5 0.858190 0.500000 0.500000
O O6 0.869191 0.576800 0.578586
O O7 0.000000 0.547201 0.500000
O O8 0.752368 0.298015 0.094292
O O9 0.887268 0.250316 0.119696
O O10 0.884669 0.305248 0.000000
O O11 0.117166 0.342055 0.632313
O O12 0.000000 0.500000 0.873797
O O13 0.000000 0.546623 0.000000
O O14 0.619414 0.199864 0.500000
#
# Coordination Sequence:
#
# PCOD9513241 Si02
#       6
#    32  16  32  32  16  32
#     4  10  22  38  62  93 124 158 199 252 304 357
#     4  11  26  44  66  88 113 157 203 251 314 369
#     4   8  14  26  52  86 121 159 197 237 285 353
#     4  10  21  39  64  92 122 158 200 251 303 362
#     4  11  26  44  64  86 117 161 203 253 313 362
#     4   8  13  26  52  86 120 157 198 237 285 350
#
# _framework density 20.443605000000002
#
# number of rings (size 3 to 8) (size 9 to 14) (size 15 to 20)
#    0.000    2.600    1.000    1.800    4.200    2.400 
#    0.000    6.000    2.200    1.200    0.000    0.000 
#    0.000    0.000    0.000    0.000    0.000    0.000 
#
# Total GULP energy -223143.786805 kJ/mol
# GULP energy per Si atom -5578.594670 kJ/mol
# Density = 2.039707 g / cm^3
# Si number density = 20.443605 Si / 1000 Ang^3
#
#
#
# Elastic Constant Matrix: (Units=GPa)
#
#
# Indices 1 2 3 4 5 6 
#
# 1 46.3325 21.8535 17.5723 0.0000 0.0000 0.0000
# 2 21.8535 164.6203 81.4404 0.0000 0.0000 0.0000
# 3 17.5723 81.4404 122.8941 0.0000 0.0000 0.0000
# 4 0.0000 0.0000 0.0000 -8.1989 0.0000 0.0000
# 5 0.0000 0.0000 0.0000 0.0000 14.4553 0.0000
# 6 0.0000 0.0000 0.0000 0.0000 0.0000 16.4986
#
#
#
# Elastic Compliance Matrix: (Units=1/GPa)
#
#
# Indices 1 2 3 4 5 6 
#
# 1 0.023322 -0.002152 -0.001909 0.000000 0.000000 0.000000
# 2 -0.002152 0.009236 -0.005813 0.000000 0.000000 0.000000
# 3 -0.001909 -0.005813 0.012262 0.000000 0.000000 0.000000
# 4 0.000000 0.000000 0.000000 -0.121968 0.000000 0.000000
# 5 0.000000 0.000000 0.000000 0.000000 0.069179 0.000000
# 6 0.000000 0.000000 0.000000 0.000000 0.000000 0.060611
#
#
# Mechanical properties :
#
#
# Convention : Reuss Voigt Hill
#
# Bulk Modulus (GPa) = 39.88316 63.95328 51.91822
# Shear Modulus (GPa) = 61.92174 18.74970 40.33572
#
# Velocity S-wave (km/s) = 5.50952 3.03172 4.44669
# Velocity P-wave (km/s) = 7.74753 6.60347 7.19827
#
# Compressibility (1/GPa) = 0.02507324
#
# Stress axis : x y z
#
# Youngs Moduli (GPa) = 42.87801 108.27248 81.55166
#
# Poissons Ratio (x) = 0.23297 0.15567
# Poissons Ratio (y) = 0.09226 0.47405
# Poissons Ratio (z) = 0.08185 0.62938
#
# Static dielectric constant tensor:
#      x y z
#    x 1.763070 0.000000 0.000000 
#    y 0.000000 1.732510 0.000000 
#    z 0.000000 0.000000 1.705450 
# 
# From -- ./inp_files/15713.got.cif
#   From: 2010.05.17/outbox.cif.g08.bks.cpg/sg69_8_cif.got.tgz:15713.got - 2010.06.03 19:29:58.
