data_PCOD9513612
_publ_section_title
;
Structure prediction by ZEFSAII (Michael W. Deem and Ramdas Pophale) SiO2 
 PCOD9513612
Probable space group: F M M M
;
_chemical_formula_sum "Si O2"
_cell_formula_units_Z 176
_cell_length_a 18.067656
_cell_length_b 25.752575
_cell_length_c 18.643953
_cell_angle_alpha 90.000000
_cell_angle_beta 90.000000
_cell_angle_gamma 90.000000
_cell_volume 8674.820024
_symmetry_space_group_name_H-M "F M M M"
_symmetry_group_IT_number 69
_symmetry_cell_setting 'orthorhombic'
loop_
_space_group_symop_operation_xyz
x,y,z
-x,-y,z
x,-y,-z
-x,y,-z
-x,-y,-z
x,y,-z
-x,y,z
x,-y,z
x,1/2+y,1/2+z
-x,1/2-y,1/2+z
x,1/2-y,1/2-z
-x,1/2+y,1/2-z
-x,1/2-y,1/2-z
x,1/2+y,1/2-z
-x,1/2+y,1/2+z
x,1/2-y,1/2+z
1/2+x,y,1/2+z
1/2-x,-y,1/2+z
1/2+x,-y,1/2-z
1/2-x,y,1/2-z
1/2-x,-y,1/2-z
1/2+x,y,1/2-z
1/2-x,y,1/2+z
1/2+x,-y,1/2+z
1/2+x,1/2+y,z
1/2-x,1/2-y,z
1/2+x,1/2-y,-z
1/2-x,1/2+y,-z
1/2-x,1/2-y,-z
1/2+x,1/2+y,-z
1/2-x,1/2+y,z
1/2+x,1/2-y,z
loop_
_atom_site_type_symbol
_atom_site_label
_atom_site_fract_x
_atom_site_fract_y
_atom_site_fract_z
Si Si1 0.709855 0.555812 0.826957
Si Si2 0.122817 0.663263 0.150542
Si Si3 0.360463 0.059005 0.085693
Si Si4 0.912964 0.286967 0.000000
Si Si5 0.795035 0.833634 0.157258
Si Si6 0.621372 0.750000 0.750000
Si Si7 0.692257 0.702198 0.000000
O O1 0.671044 0.500000 0.836947
O O2 0.750000 0.553444 0.750000
O O3 0.774826 0.559475 0.887204
O O4 0.668120 0.610747 0.825607
O O5 0.101362 0.603685 0.133982
O O6 0.119460 0.688286 0.071867
O O7 0.208203 0.663405 0.177591
O O8 0.083637 0.703490 0.204583
O O9 0.387646 0.000000 0.097282
O O10 0.365511 0.070047 0.000000
O O11 0.888879 0.227372 0.000000
O O12 0.000000 0.294900 0.000000
O O13 0.831817 0.782817 0.191397
O O14 0.796382 0.828622 0.072067
O O15 0.750000 0.750000 0.000000
#
# Coordination Sequence:
#
# PCOD9513612 Si02
#       7
#    32  32  32  16  32  16  16
#     4   9  18  29  41  68 110 144 168 209 271 324
#     4  11  19  33  52  76 106 140 175 225 265 318
#     4   9  17  28  47  71  99 138 181 213 258 317
#     4  12  24  38  53  76 111 148 180 219 273 327
#     4  11  19  29  52  78 104 137 180 221 258 319
#     4  12  21  30  51  84 107 136 187 226 271 322
#     4  12  20  34  53  77 105 137 181 220 267 314
#
# _framework density 20.288606000000001
#
# number of rings (size 3 to 8) (size 9 to 14) (size 15 to 20)
#    0.000    1.455    4.545    3.818    3.818    0.000 
#    0.000    0.455    0.000    1.091    0.000    0.000 
#    0.000    1.455    0.000    0.000    0.000    0.000 
#
# Total GULP energy -245174.404085 kJ/mol
# GULP energy per Si atom -5572.145547 kJ/mol
# Density = 2.024243 g / cm^3
# Si number density = 20.288606 Si / 1000 Ang^3
#
#
#
# Elastic Constant Matrix: (Units=GPa)
#
#
# Indices 1 2 3 4 5 6 
#
# 1 36.7414 13.3886 3.3948 0.0000 0.0000 0.0000
# 2 13.3886 193.9336 51.4318 0.0000 0.0000 0.0000
# 3 3.3948 51.4318 104.5958 0.0000 0.0000 0.0000
# 4 0.0000 0.0000 0.0000 40.5958 0.0000 0.0000
# 5 0.0000 0.0000 0.0000 0.0000 -31.4978 0.0000
# 6 0.0000 0.0000 0.0000 0.0000 0.0000 -4.5682
#
#
#
# Elastic Compliance Matrix: (Units=1/GPa)
#
#
# Indices 1 2 3 4 5 6 
#
# 1 0.027920 -0.001940 0.000048 0.000000 0.000000 0.000000
# 2 -0.001940 0.006064 -0.002919 0.000000 0.000000 0.000000
# 3 0.000048 -0.002919 0.010994 0.000000 0.000000 0.000000
# 4 0.000000 0.000000 0.000000 0.024633 0.000000 0.000000
# 5 0.000000 0.000000 0.000000 0.000000 -0.031748 0.000000
# 6 0.000000 0.000000 0.000000 0.000000 0.000000 -0.218903
#
#
# Mechanical properties :
#
#
# Convention : Reuss Voigt Hill
#
# Bulk Modulus (GPa) = 28.28380 52.41125 40.34752
# Shear Modulus (GPa) = -31.32219 18.70966 -6.30626
#
# Velocity S-wave (km/s) = -3.93342 3.04003 -1.76494
# Velocity P-wave (km/s) = 2.58033 6.18153 3.97198
#
# Compressibility (1/GPa) = 0.03535593
#
# Stress axis : x y z
#
# Youngs Moduli (GPa) = 35.81687 164.89423 90.95527
#
# Poissons Ratio (x) = 0.31993 -0.00435
# Poissons Ratio (y) = 0.06949 0.26550
# Poissons Ratio (z) = -0.00171 0.48134
#
# Static dielectric constant tensor:
#      x y z
#    x 1.706240 0.000000 0.000000 
#    y 0.000000 1.815470 0.000000 
#    z 0.000000 0.000000 1.750270 
# 
# From -- ./inp_files/23284.got.cif
#   From: 2010.05.17/outbox.cif.g08.bks.cpg/sg69_12_cif.got.tgz:23284.got - 2010.06.03 19:29:58.
