data_PCOD9513885
_publ_section_title
;
Structure prediction by ZEFSAII (Michael W. Deem and Ramdas Pophale) SiO2 
 PCOD9513885
Probable space group: F M M M
;
_chemical_formula_sum "Si O2"
_cell_formula_units_Z 100
_cell_length_a 14.429166
_cell_length_b 20.037640
_cell_length_c 17.874734
_cell_angle_alpha 90.000000
_cell_angle_beta 90.000000
_cell_angle_gamma 90.000000
_cell_volume 5168.058097
_symmetry_space_group_name_H-M "F M M M"
_symmetry_group_IT_number 69
_symmetry_cell_setting 'orthorhombic'
loop_
_space_group_symop_operation_xyz
x,y,z
-x,-y,z
x,-y,-z
-x,y,-z
-x,-y,-z
x,y,-z
-x,y,z
x,-y,z
x,1/2+y,1/2+z
-x,1/2-y,1/2+z
x,1/2-y,1/2-z
-x,1/2+y,1/2-z
-x,1/2-y,1/2-z
x,1/2+y,1/2-z
-x,1/2+y,1/2+z
x,1/2-y,1/2+z
1/2+x,y,1/2+z
1/2-x,-y,1/2+z
1/2+x,-y,1/2-z
1/2-x,y,1/2-z
1/2-x,-y,1/2-z
1/2+x,y,1/2-z
1/2-x,y,1/2+z
1/2+x,-y,1/2+z
1/2+x,1/2+y,z
1/2-x,1/2-y,z
1/2+x,1/2-y,-z
1/2-x,1/2+y,-z
1/2-x,1/2-y,-z
1/2+x,1/2+y,-z
1/2-x,1/2+y,z
1/2+x,1/2-y,z
loop_
_atom_site_type_symbol
_atom_site_label
_atom_site_fract_x
_atom_site_fract_y
_atom_site_fract_z
Si Si1 0.298438 0.076773 0.830034
Si Si2 0.000000 0.612866 0.867555
Si Si3 0.000000 0.763747 0.161076
Si Si4 0.000000 0.000000 0.500000
Si Si5 0.316791 0.686260 0.087209
O O1 0.250000 0.082505 0.750000
O O2 0.404800 0.099185 0.824143
O O3 0.243139 0.123082 0.887281
O O4 0.296164 0.000000 0.854860
O O5 0.000000 0.559863 0.935275
O O6 0.000000 0.692375 0.882855
O O7 0.000000 0.750000 0.250000
O O8 0.908020 0.802865 0.136604
O O9 0.250000 0.750000 0.097465
O O10 0.342259 0.681752 0.000000
#
# Coordination Sequence:
#
# PCOD9513885 Si02
#       5
#    32  16  16   4  32
#     4  11  24  43  67  98 136 177 225 279 340 409
#     4  12  24  42  69 100 132 171 229 285 343 395
#     4  12  25  43  71  96 136 180 229 289 334 410
#     4  12  28  36  72 108 136 174 224 300 356 392
#     4  11  25  41  65  98 134 175 219 276 343 405
#
# _framework density 19.349627999999999
#
# number of rings (size 3 to 8) (size 9 to 14) (size 15 to 20)
#    0.000    0.640    4.800    2.400    4.480    0.640 
#    0.000    0.800    0.000    1.920    0.000    0.000 
#    0.000    0.000    0.000    0.000    0.000    0.000 
#
# Total GULP energy -139503.783949 kJ/mol
# GULP energy per Si atom -5580.151358 kJ/mol
# Density = 1.930559 g / cm^3
# Si number density = 19.349628 Si / 1000 Ang^3
#
#
#
# Elastic Constant Matrix: (Units=GPa)
#
#
# Indices 1 2 3 4 5 6 
#
# 1 177.0123 40.3377 67.5700 0.0000 0.0000 0.0000
# 2 40.3377 93.0614 10.8549 0.0000 0.0000 0.0000
# 3 67.5700 10.8549 70.5889 0.0000 0.0000 0.0000
# 4 0.0000 0.0000 0.0000 31.7338 0.0000 0.0000
# 5 0.0000 0.0000 0.0000 0.0000 8.1712 0.0000
# 6 0.0000 0.0000 0.0000 0.0000 0.0000 22.4996
#
#
#
# Elastic Compliance Matrix: (Units=1/GPa)
#
#
# Indices 1 2 3 4 5 6 
#
# 1 0.009754 -0.003196 -0.008846 0.000000 0.000000 0.000000
# 2 -0.003196 0.011989 0.001216 0.000000 0.000000 0.000000
# 3 -0.008846 0.001216 0.022447 0.000000 0.000000 0.000000
# 4 0.000000 0.000000 0.000000 0.031512 0.000000 0.000000
# 5 0.000000 0.000000 0.000000 0.000000 0.122382 0.000000
# 6 0.000000 0.000000 0.000000 0.000000 0.000000 0.044445
#
#
# Mechanical properties :
#
#
# Convention : Reuss Voigt Hill
#
# Bulk Modulus (GPa) = 44.36870 64.24308 54.30589
# Shear Modulus (GPa) = 18.40305 27.27424 22.83865
#
# Velocity S-wave (km/s) = 3.08730 3.75847 3.43930
# Velocity P-wave (km/s) = 5.97398 7.21859 6.62557
#
# Compressibility (1/GPa) = 0.02253841
#
# Stress axis : x y z
#
# Youngs Moduli (GPa) = 102.51924 83.40855 44.54966
#
# Poissons Ratio (x) = 0.26659 0.39407
# Poissons Ratio (y) = 0.32768 -0.05417
# Poissons Ratio (z) = 0.90684 -0.10142
#
# Static dielectric constant tensor:
#      x y z
#    x 1.661080 0.000000 0.000000 
#    y 0.000000 1.675860 0.000000 
#    z 0.000000 0.000000 1.656350 
# 
# From -- ./inp_files/21387.got.cif
#   From: 2010.05.17/outbox.cif.g08.bks.cpg/sg69_11_cif.got.tgz:21387.got - 2010.06.03 19:29:58.
