data_PCOD9513046
_publ_section_title
;
Structure prediction by ZEFSAII (Michael W. Deem and Ramdas Pophale) SiO2 
 PCOD9513046
Probable space group: F M M M
;
_chemical_formula_sum "Si O2"
_cell_formula_units_Z 168
_cell_length_a 26.007486
_cell_length_b 24.435417
_cell_length_c 13.801079
_cell_angle_alpha 90.000000
_cell_angle_beta 90.000000
_cell_angle_gamma 90.000000
_cell_volume 8770.637673
_symmetry_space_group_name_H-M "F M M M"
_symmetry_group_IT_number 69
_symmetry_cell_setting 'orthorhombic'
loop_
_space_group_symop_operation_xyz
x,y,z
-x,-y,z
x,-y,-z
-x,y,-z
-x,-y,-z
x,y,-z
-x,y,z
x,-y,z
x,1/2+y,1/2+z
-x,1/2-y,1/2+z
x,1/2-y,1/2-z
-x,1/2+y,1/2-z
-x,1/2-y,1/2-z
x,1/2+y,1/2-z
-x,1/2+y,1/2+z
x,1/2-y,1/2+z
1/2+x,y,1/2+z
1/2-x,-y,1/2+z
1/2+x,-y,1/2-z
1/2-x,y,1/2-z
1/2-x,-y,1/2-z
1/2+x,y,1/2-z
1/2-x,y,1/2+z
1/2+x,-y,1/2+z
1/2+x,1/2+y,z
1/2-x,1/2-y,z
1/2+x,1/2-y,-z
1/2-x,1/2+y,-z
1/2-x,1/2-y,-z
1/2+x,1/2+y,-z
1/2-x,1/2+y,z
1/2+x,1/2-y,z
loop_
_atom_site_type_symbol
_atom_site_label
_atom_site_fract_x
_atom_site_fract_y
_atom_site_fract_z
Si Si1 0.941393 0.843134 0.293432
Si Si2 0.250000 0.500000 0.750000
Si Si3 0.253077 0.092507 0.613117
Si Si4 0.793742 0.290900 0.383132
Si Si5 0.368368 0.434370 0.385706
Si Si6 0.911425 0.272308 0.384995
O O1 0.903251 0.892426 0.324045
O O2 0.931309 0.788294 0.357739
O O3 0.935259 0.818910 0.184326
O O4 0.000000 0.861247 0.308109
O O5 0.275183 0.453283 0.818968
O O6 0.265431 0.084530 0.500000
O O7 0.276320 0.149345 0.646680
O O8 0.191078 0.085308 0.619605
O O9 0.792726 0.291012 0.500000
O O10 0.750000 0.250000 0.351114
O O11 0.851030 0.273907 0.358124
O O12 0.383293 0.430629 0.500000
O O13 0.369356 0.500000 0.359893
O O14 0.918070 0.282061 0.500000
#
# Coordination Sequence:
#
# PCOD9513046 Si02
#       6
#    32   8  32  32  32  32
#     4  11  24  39  59  86 112 145 197 249 291 348
#     4  12  22  32  58  82 114 162 192 222 272 328
#     4  10  21  37  56  84 118 152 191 229 272 335
#     4   9  18  34  56  82 114 148 182 224 272 332
#     4  10  21  39  61  85 118 152 187 237 293 344
#     4  10  21  38  59  84 117 152 186 234 293 347
#
# _framework density 19.154821999999999
#
# number of rings (size 3 to 8) (size 9 to 14) (size 15 to 20)
#    0.000    1.905    0.952    3.143    2.667    6.095 
#    0.000    0.952    0.000    0.571    0.000    1.333 
#    0.000    0.000    0.000    0.000    0.000    0.000 
#
# Total GULP energy -233829.612323 kJ/mol
# GULP energy per Si atom -5567.371722 kJ/mol
# Density = 1.911122 g / cm^3
# Si number density = 19.154822 Si / 1000 Ang^3
#
#
#
# Elastic Constant Matrix: (Units=GPa)
#
#
# Indices 1 2 3 4 5 6 
#
# 1 47.1170 -8.1252 -1.0145 0.0000 0.0000 0.0000
# 2 -8.1252 37.5623 6.8906 0.0000 0.0000 0.0000
# 3 -1.0145 6.8906 101.5260 0.0000 0.0000 0.0000
# 4 0.0000 0.0000 0.0000 30.0116 0.0000 0.0000
# 5 0.0000 0.0000 0.0000 0.0000 19.9249 0.0000
# 6 0.0000 0.0000 0.0000 0.0000 0.0000 27.7433
#
#
#
# Elastic Compliance Matrix: (Units=1/GPa)
#
#
# Indices 1 2 3 4 5 6 
#
# 1 0.022047 0.004788 -0.000105 0.000000 0.000000 0.000000
# 2 0.004788 0.027998 -0.001852 0.000000 0.000000 0.000000
# 3 -0.000105 -0.001852 0.009974 0.000000 0.000000 0.000000
# 4 0.000000 0.000000 0.000000 0.033321 0.000000 0.000000
# 5 0.000000 0.000000 0.000000 0.000000 0.050188 0.000000
# 6 0.000000 0.000000 0.000000 0.000000 0.000000 0.036045
#
#
# Mechanical properties :
#
#
# Convention : Reuss Voigt Hill
#
# Bulk Modulus (GPa) = 15.22486 20.18969 17.70728
# Shear Modulus (GPa) = 25.53564 28.09958 26.81761
#
# Velocity S-wave (km/s) = 3.65515 3.83426 3.74578
# Velocity P-wave (km/s) = 5.07731 5.49229 5.28887
#
# Compressibility (1/GPa) = 0.06568203
#
# Stress axis : x y z
#
# Youngs Moduli (GPa) = 45.35717 35.71684 100.25694
#
# Poissons Ratio (x) = -0.17102 0.01049
# Poissons Ratio (y) = -0.21718 0.18572
# Poissons Ratio (z) = 0.00475 0.06616
#
# Static dielectric constant tensor:
#      x y z
#    x 1.685520 0.000000 0.000000 
#    y 0.000000 1.625290 0.000000 
#    z 0.000000 0.000000 1.732650 
# 
# From -- ./inp_files/18850.got.cif
#   From: 2010.05.17/outbox.cif.g08.bks.cpg/sg69_10_cif.got.tgz:18850.got - 2010.06.03 19:29:58.
