data_PCOD9513918
_publ_section_title
;
Structure prediction by ZEFSAII (Michael W. Deem and Ramdas Pophale) SiO2 
 PCOD9513918
Probable space group: F M M M
;
_chemical_formula_sum "Si O2"
_cell_formula_units_Z 144
_cell_length_a 17.557679
_cell_length_b 14.444746
_cell_length_c 34.967521
_cell_angle_alpha 90.000000
_cell_angle_beta 90.000000
_cell_angle_gamma 90.000000
_cell_volume 8868.330272
_symmetry_space_group_name_H-M "F M M M"
_symmetry_group_IT_number 69
_symmetry_cell_setting 'orthorhombic'
loop_
_space_group_symop_operation_xyz
x,y,z
-x,-y,z
x,-y,-z
-x,y,-z
-x,-y,-z
x,y,-z
-x,y,z
x,-y,z
x,1/2+y,1/2+z
-x,1/2-y,1/2+z
x,1/2-y,1/2-z
-x,1/2+y,1/2-z
-x,1/2-y,1/2-z
x,1/2+y,1/2-z
-x,1/2+y,1/2+z
x,1/2-y,1/2+z
1/2+x,y,1/2+z
1/2-x,-y,1/2+z
1/2+x,-y,1/2-z
1/2-x,y,1/2-z
1/2-x,-y,1/2-z
1/2+x,y,1/2-z
1/2-x,y,1/2+z
1/2+x,-y,1/2+z
1/2+x,1/2+y,z
1/2-x,1/2-y,z
1/2+x,1/2-y,-z
1/2-x,1/2+y,-z
1/2-x,1/2-y,-z
1/2+x,1/2+y,-z
1/2-x,1/2+y,z
1/2+x,1/2-y,z
loop_
_atom_site_type_symbol
_atom_site_label
_atom_site_fract_x
_atom_site_fract_y
_atom_site_fract_z
Si Si1 0.408598 0.104493 0.808000
Si Si2 0.838227 0.274722 0.653457
Si Si3 0.592393 0.109603 0.415605
Si Si4 0.589273 0.388541 0.779139
Si Si5 0.912231 0.612201 0.500000
O O1 0.500000 0.101731 0.808053
O O2 0.380519 0.178296 0.838215
O O3 0.387514 0.132782 0.764522
O O4 0.380357 0.000000 0.814860
O O5 0.750000 0.250000 0.650640
O O6 0.869670 0.328193 0.616624
O O7 0.858874 0.339023 0.689834
O O8 0.500000 0.118327 0.414034
O O9 0.619484 0.137718 0.458420
O O10 0.608720 0.000000 0.409729
O O11 0.500000 0.360751 0.784636
O O12 0.592066 0.500000 0.783262
O O13 0.913925 0.500000 0.500000
O O14 0.000000 0.643915 0.500000
#
# Coordination Sequence:
#
# PCOD9513918 Si02
#       5
#    32  32  32  32  16
#     4   9  19  35  51  65  86 123 168 206 236 269
#     4  12  23  30  42  70 102 130 155 185 229 285
#     4   9  17  32  55  78  97 118 149 192 238 280
#     4   9  18  34  54  70  85 114 161 212 252 279
#     4   7  12  26  51  80  99 111 139 189 242 281
#
# _framework density 16.237553999999999
#
# number of rings (size 3 to 8) (size 9 to 14) (size 15 to 20)
#    0.000    2.556    0.000    6.000    0.000    7.111 
#    0.000    2.778    0.000    0.000    0.000    0.778 
#    0.000    4.444    0.000    0.000    0.000    0.667 
#
# Total GULP energy -200676.558017 kJ/mol
# GULP energy per Si atom -5574.348834 kJ/mol
# Density = 1.620060 g / cm^3
# Si number density = 16.237554 Si / 1000 Ang^3
#
#
#
# Elastic Constant Matrix: (Units=GPa)
#
#
# Indices 1 2 3 4 5 6 
#
# 1 42.1838 31.7976 50.4183 0.0000 0.0000 0.0000
# 2 31.7976 78.0627 80.2708 0.0000 0.0000 0.0000
# 3 50.4183 80.2708 144.8682 0.0000 0.0000 0.0000
# 4 0.0000 0.0000 0.0000 21.4797 0.0000 0.0000
# 5 0.0000 0.0000 0.0000 0.0000 -13.7789 0.0000
# 6 0.0000 0.0000 0.0000 0.0000 0.0000 -120.5293
#
#
#
# Elastic Compliance Matrix: (Units=1/GPa)
#
#
# Indices 1 2 3 4 5 6 
#
# 1 0.041334 -0.004752 -0.011753 0.000000 0.000000 0.000000
# 2 -0.004752 0.030321 -0.015147 0.000000 0.000000 0.000000
# 3 -0.011753 -0.015147 0.019386 0.000000 0.000000 0.000000
# 4 0.000000 0.000000 0.000000 0.046556 0.000000 0.000000
# 5 0.000000 0.000000 0.000000 0.000000 -0.072575 0.000000
# 6 0.000000 0.000000 0.000000 0.000000 0.000000 -0.008297
#
#
# Mechanical properties :
#
#
# Convention : Reuss Voigt Hill
#
# Bulk Modulus (GPa) = 36.05082 65.56535 50.80809
# Shear Modulus (GPa) = 38.67707 -15.72383 11.47662
#
# Velocity S-wave (km/s) = 4.88582 -3.11523 2.66145
# Velocity P-wave (km/s) = 7.35382 5.24662 6.38771
#
# Compressibility (1/GPa) = 0.02773862
#
# Stress axis : x y z
#
# Youngs Moduli (GPa) = 24.19290 32.97996 51.58354
#
# Poissons Ratio (x) = 0.15672 0.60624
# Poissons Ratio (y) = 0.11496 0.78134
# Poissons Ratio (z) = 0.28433 0.49955
#
# Static dielectric constant tensor:
#      x y z
#    x 1.533910 0.000000 0.000000 
#    y 0.000000 1.558130 0.000000 
#    z 0.000000 0.000000 1.558760 
# 
# From -- ./inp_files/19451.got.cif
#   From: 2010.05.17/outbox.cif.g08.bks.cpg/sg69_10_cif.got.tgz:19451.got - 2010.06.03 19:29:58.
