data_PCOD9513884
_publ_section_title
;
Structure prediction by ZEFSAII (Michael W. Deem and Ramdas Pophale) SiO2 
 PCOD9513884
Probable space group: F M M M
;
_chemical_formula_sum "Si O2"
_cell_formula_units_Z 144
_cell_length_a 22.411437
_cell_length_b 17.323326
_cell_length_c 17.241060
_cell_angle_alpha 90.000000
_cell_angle_beta 90.000000
_cell_angle_gamma 90.000000
_cell_volume 6693.679984
_symmetry_space_group_name_H-M "F M M M"
_symmetry_group_IT_number 69
_symmetry_cell_setting 'orthorhombic'
loop_
_space_group_symop_operation_xyz
x,y,z
-x,-y,z
x,-y,-z
-x,y,-z
-x,-y,-z
x,y,-z
-x,y,z
x,-y,z
x,1/2+y,1/2+z
-x,1/2-y,1/2+z
x,1/2-y,1/2-z
-x,1/2+y,1/2-z
-x,1/2-y,1/2-z
x,1/2+y,1/2-z
-x,1/2+y,1/2+z
x,1/2-y,1/2+z
1/2+x,y,1/2+z
1/2-x,-y,1/2+z
1/2+x,-y,1/2-z
1/2-x,y,1/2-z
1/2-x,-y,1/2-z
1/2+x,y,1/2-z
1/2-x,y,1/2+z
1/2+x,-y,1/2+z
1/2+x,1/2+y,z
1/2-x,1/2-y,z
1/2+x,1/2-y,-z
1/2-x,1/2+y,-z
1/2-x,1/2-y,-z
1/2+x,1/2+y,-z
1/2-x,1/2+y,z
1/2+x,1/2-y,z
loop_
_atom_site_type_symbol
_atom_site_label
_atom_site_fract_x
_atom_site_fract_y
_atom_site_fract_z
Si Si1 0.379362 0.646515 0.663341
Si Si2 0.345201 0.695205 0.088982
Si Si3 0.500000 0.912680 0.091903
Si Si4 0.754085 0.586942 0.157112
Si Si5 0.429677 0.592230 0.826656
O O1 0.358307 0.732911 0.645160
O O2 0.440364 0.629395 0.618763
O O3 0.323627 0.594773 0.636847
O O4 0.395079 0.625424 0.751764
O O5 0.285651 0.649921 0.113944
O O6 0.399104 0.634700 0.101412
O O7 0.341570 0.721164 0.000000
O O8 0.500000 0.000000 0.125726
O O9 0.500000 0.917413 0.000000
O O10 0.732548 0.500000 0.140819
O O11 0.750000 0.599644 0.250000
O O12 0.500000 0.609527 0.820176
O O13 0.422463 0.500000 0.829255
#
# Coordination Sequence:
#
# PCOD9513884 Si02
#       5
#    32  32  16  32  32
#     4  12  24  43  73 101 139 181 230 287 345 410
#     4  12  28  45  67 104 148 183 224 284 355 421
#     4  11  24  42  67 102 142 182 229 287 346 406
#     4  11  24  44  73 103 135 181 235 286 339 409
#     4  11  24  44  72 103 136 184 243 291 337 406
#
# _framework density 21.512830999999998
#
# number of rings (size 3 to 8) (size 9 to 14) (size 15 to 20)
#    0.000    0.556    3.333    4.667    1.556    6.667 
#    0.000    1.111    0.000    0.000    0.000    0.000 
#    0.000    0.000    0.000    0.000    0.000    0.000 
#
# Total GULP energy -201500.140934 kJ/mol
# GULP energy per Si atom -5597.226137 kJ/mol
# Density = 2.146387 g / cm^3
# Si number density = 21.512831 Si / 1000 Ang^3
#
#
#
# Elastic Constant Matrix: (Units=GPa)
#
#
# Indices 1 2 3 4 5 6 
#
# 1 138.4236 26.8322 -5.8612 0.0000 0.0000 0.0000
# 2 26.8322 76.9905 0.7473 0.0000 0.0000 0.0000
# 3 -5.8612 0.7473 19.6365 0.0000 0.0000 0.0000
# 4 0.0000 0.0000 0.0000 22.8613 0.0000 0.0000
# 5 0.0000 0.0000 0.0000 0.0000 26.6259 0.0000
# 6 0.0000 0.0000 0.0000 0.0000 0.0000 58.8159
#
#
#
# Elastic Compliance Matrix: (Units=1/GPa)
#
#
# Indices 1 2 3 4 5 6 
#
# 1 0.007864 -0.002764 0.002452 0.000000 0.000000 0.000000
# 2 -0.002764 0.013965 -0.001357 0.000000 0.000000 0.000000
# 3 0.002452 -0.001357 0.051709 0.000000 0.000000 0.000000
# 4 0.000000 0.000000 0.000000 0.043742 0.000000 0.000000
# 5 0.000000 0.000000 0.000000 0.000000 0.037557 0.000000
# 6 0.000000 0.000000 0.000000 0.000000 0.000000 0.017002
#
#
# Mechanical properties :
#
#
# Convention : Reuss Voigt Hill
#
# Bulk Modulus (GPa) = 14.24479 30.94303 22.59391
# Shear Modulus (GPa) = 25.17905 35.88277 30.53091
#
# Velocity S-wave (km/s) = 3.42485 4.08851 3.77131
# Velocity P-wave (km/s) = 4.71968 6.05827 5.43038
#
# Compressibility (1/GPa) = 0.07020110
#
# Stress axis : x y z
#
# Youngs Moduli (GPa) = 127.16304 71.60633 19.33890
#
# Poissons Ratio (x) = 0.19795 -0.04743
# Poissons Ratio (y) = 0.35154 0.02624
# Poissons Ratio (z) = -0.31186 0.09714
#
# Static dielectric constant tensor:
#      x y z
#    x 1.778440 0.000000 0.000000 
#    y 0.000000 1.784210 0.000000 
#    z 0.000000 0.000000 1.767620 
# 
# From -- ./inp_files/25583.got.cif
#   From: 2010.05.17/outbox.cif.g08.bks.cpg/sg69_13_cif.got.tgz:25583.got - 2010.06.03 19:29:58.
