data_PCOD9513152
_publ_section_title
;
Structure prediction by ZEFSAII (Michael W. Deem and Ramdas Pophale) SiO2 
 PCOD9513152
Probable space group: F M M M
;
_chemical_formula_sum "Si O2"
_cell_formula_units_Z 144
_cell_length_a 14.698209
_cell_length_b 29.583908
_cell_length_c 18.785464
_cell_angle_alpha 90.000000
_cell_angle_beta 90.000000
_cell_angle_gamma 90.000000
_cell_volume 8168.492005
_symmetry_space_group_name_H-M "F M M M"
_symmetry_group_IT_number 69
_symmetry_cell_setting 'orthorhombic'
loop_
_space_group_symop_operation_xyz
x,y,z
-x,-y,z
x,-y,-z
-x,y,-z
-x,-y,-z
x,y,-z
-x,y,z
x,-y,z
x,1/2+y,1/2+z
-x,1/2-y,1/2+z
x,1/2-y,1/2-z
-x,1/2+y,1/2-z
-x,1/2-y,1/2-z
x,1/2+y,1/2-z
-x,1/2+y,1/2+z
x,1/2-y,1/2+z
1/2+x,y,1/2+z
1/2-x,-y,1/2+z
1/2+x,-y,1/2-z
1/2-x,y,1/2-z
1/2-x,-y,1/2-z
1/2+x,y,1/2-z
1/2-x,y,1/2+z
1/2+x,-y,1/2+z
1/2+x,1/2+y,z
1/2-x,1/2-y,z
1/2+x,1/2-y,-z
1/2-x,1/2+y,-z
1/2-x,1/2-y,-z
1/2+x,1/2+y,-z
1/2-x,1/2+y,z
1/2+x,1/2-y,z
loop_
_atom_site_type_symbol
_atom_site_label
_atom_site_fract_x
_atom_site_fract_y
_atom_site_fract_z
Si Si1 0.352232 0.235549 0.149794
Si Si2 0.750000 0.390298 0.250000
Si Si3 0.109629 0.309135 0.000000
Si Si4 0.901247 0.675077 0.284521
Si Si5 0.390340 0.587193 0.500000
Si Si6 0.892557 0.946644 0.344284
O O1 0.250000 0.250000 0.167323
O O2 0.402603 0.282934 0.161472
O O3 0.386873 0.198909 0.207164
O O4 0.359345 0.215698 0.071437
O O5 0.816114 0.357760 0.296070
O O6 0.821474 0.419417 0.204245
O O7 0.142267 0.361028 0.000000
O O8 0.000000 0.309457 0.000000
O O9 0.000000 0.652236 0.285665
O O10 0.500000 0.588534 0.500000
O O11 0.366210 0.562792 0.573485
O O12 0.000000 0.933159 0.335258
O O13 0.887048 0.000000 0.329627
#
# Coordination Sequence:
#
# PCOD9513152 Si02
#       6
#    32  16  16  32  16  32
#     4  11  20  36  51  76 106 152 192 226 269 314
#     4  12  21  35  54  86 114 140 186 227 279 330
#     4  11  21  32  51  79 110 143 184 231 273 316
#     4  11  21  36  55  74 108 150 188 224 265 321
#     4   9  19  35  58  84 109 142 182 228 282 338
#     4  10  21  38  60  85 113 143 177 228 291 347
#
# _framework density 17.628713000000001
#
# number of rings (size 3 to 8) (size 9 to 14) (size 15 to 20)
#    0.000    1.333    2.222    6.333    0.000    3.111 
#    0.000    0.000    0.000    0.000    0.000    2.333 
#    0.000    8.889    0.000    0.000    0.000    0.000 
#
# Total GULP energy -200871.378209 kJ/mol
# GULP energy per Si atom -5579.760506 kJ/mol
# Density = 1.758859 g / cm^3
# Si number density = 17.628713 Si / 1000 Ang^3
#
#
#
# Elastic Constant Matrix: (Units=GPa)
#
#
# Indices 1 2 3 4 5 6 
#
# 1 121.2296 35.6306 5.9564 0.0000 0.0000 0.0000
# 2 35.6306 83.7398 29.1600 0.0000 0.0000 0.0000
# 3 5.9564 29.1600 49.8703 0.0000 0.0000 0.0000
# 4 0.0000 0.0000 0.0000 28.0151 0.0000 0.0000
# 5 0.0000 0.0000 0.0000 0.0000 60.3066 0.0000
# 6 0.0000 0.0000 0.0000 0.0000 0.0000 28.3550
#
#
#
# Elastic Compliance Matrix: (Units=1/GPa)
#
#
# Indices 1 2 3 4 5 6 
#
# 1 0.009522 -0.004590 0.001547 0.000000 0.000000 0.000000
# 2 -0.004590 0.017208 -0.009513 0.000000 0.000000 0.000000
# 3 0.001547 -0.009513 0.025430 0.000000 0.000000 0.000000
# 4 0.000000 0.000000 0.000000 0.035695 0.000000 0.000000
# 5 0.000000 0.000000 0.000000 0.000000 0.016582 0.000000
# 6 0.000000 0.000000 0.000000 0.000000 0.000000 0.035267
#
#
# Mechanical properties :
#
#
# Convention : Reuss Voigt Hill
#
# Bulk Modulus (GPa) = 36.97432 44.03708 40.50570
# Shear Modulus (GPa) = 28.76336 35.60817 32.18577
#
# Velocity S-wave (km/s) = 4.04371 4.49920 4.27752
# Velocity P-wave (km/s) = 6.54382 7.21283 6.88646
#
# Compressibility (1/GPa) = 0.02704580
#
# Stress axis : x y z
#
# Youngs Moduli (GPa) = 105.02124 58.11408 39.32379
#
# Poissons Ratio (x) = 0.26675 -0.06082
# Poissons Ratio (y) = 0.48205 0.37410
# Poissons Ratio (z) = -0.16243 0.55286
#
# Static dielectric constant tensor:
#      x y z
#    x 1.648420 0.000000 0.000000 
#    y 0.000000 1.621010 0.000000 
#    z 0.000000 0.000000 1.565010 
# 
# From -- ./inp_files/21820.got.cif
#   From: 2010.05.17/outbox.cif.g08.bks.cpg/sg69_11_cif.got.tgz:21820.got - 2010.06.03 19:29:58.
