data_PCOD9513905
_publ_section_title
;
Structure prediction by ZEFSAII (Michael W. Deem and Ramdas Pophale) SiO2 
 PCOD9513905
Probable space group: F M M M
;
_chemical_formula_sum "Si O2"
_cell_formula_units_Z 144
_cell_length_a 29.420456
_cell_length_b 14.123358
_cell_length_c 16.929971
_cell_angle_alpha 90.000000
_cell_angle_beta 90.000000
_cell_angle_gamma 90.000000
_cell_volume 7034.667610
_symmetry_space_group_name_H-M "F M M M"
_symmetry_group_IT_number 69
_symmetry_cell_setting 'orthorhombic'
loop_
_space_group_symop_operation_xyz
x,y,z
-x,-y,z
x,-y,-z
-x,y,-z
-x,-y,-z
x,y,-z
-x,y,z
x,-y,z
x,1/2+y,1/2+z
-x,1/2-y,1/2+z
x,1/2-y,1/2-z
-x,1/2+y,1/2-z
-x,1/2-y,1/2-z
x,1/2+y,1/2-z
-x,1/2+y,1/2+z
x,1/2-y,1/2+z
1/2+x,y,1/2+z
1/2-x,-y,1/2+z
1/2+x,-y,1/2-z
1/2-x,y,1/2-z
1/2-x,-y,1/2-z
1/2+x,y,1/2-z
1/2-x,y,1/2+z
1/2+x,-y,1/2+z
1/2+x,1/2+y,z
1/2-x,1/2-y,z
1/2+x,1/2-y,-z
1/2-x,1/2+y,-z
1/2-x,1/2-y,-z
1/2+x,1/2+y,-z
1/2-x,1/2+y,z
1/2+x,1/2-y,z
loop_
_atom_site_type_symbol
_atom_site_label
_atom_site_fract_x
_atom_site_fract_y
_atom_site_fract_z
Si Si1 0.948476 0.103769 0.094062
Si Si2 0.588008 0.713879 0.661072
Si Si3 0.500000 0.886829 0.092358
Si Si4 0.722550 0.105323 0.595809
Si Si5 0.318771 0.305287 0.595536
O O1 0.915420 0.188391 0.112653
O O2 0.000000 0.124626 0.123412
O O3 0.935009 0.000000 0.124765
O O4 0.951272 0.097473 0.000000
O O5 0.585371 0.750000 0.750000
O O6 0.544772 0.652517 0.635176
O O7 0.635187 0.665119 0.638345
O O8 0.500000 0.000000 0.093387
O O9 0.500000 0.854673 0.000000
O O10 0.719575 0.104150 0.500000
O O11 0.693642 0.197135 0.620440
O O12 0.774971 0.130731 0.614620
O O13 0.709939 0.000000 0.624242
O O14 0.324579 0.307398 0.500000
#
# Coordination Sequence:
#
# PCOD9513905 Si02
#       5
#    32  32  16  32  32
#     4   9  18  34  58  82 103 136 184 236 284 329
#     4  12  24  38  56  85 120 156 188 232 291 345
#     4  11  25  44  63  81 107 151 204 247 282 334
#     4   8  15  31  56  84 110 140 185 238 283 322
#     4   9  18  33  56  83 111 145 188 236 278 331
#
# _framework density 20.470050000000001
#
# number of rings (size 3 to 8) (size 9 to 14) (size 15 to 20)
#    0.000    2.333    1.111    4.333    0.000    2.667 
#    0.000    6.667    0.000    1.333    0.000    0.000 
#    0.000    0.000    0.000    0.000    0.000    0.000 
#
# Total GULP energy -200861.104831 kJ/mol
# GULP energy per Si atom -5579.475134 kJ/mol
# Density = 2.042346 g / cm^3
# Si number density = 20.470050 Si / 1000 Ang^3
#
#
#
# Elastic Constant Matrix: (Units=GPa)
#
#
# Indices 1 2 3 4 5 6 
#
# 1 101.3998 -5.3002 24.9871 0.0000 0.0000 0.0000
# 2 -5.3002 49.8172 -4.0742 0.0000 0.0000 0.0000
# 3 24.9871 -4.0742 49.6238 0.0000 0.0000 0.0000
# 4 0.0000 0.0000 0.0000 -198.2883 0.0000 0.0000
# 5 0.0000 0.0000 0.0000 0.0000 10.2527 0.0000
# 6 0.0000 0.0000 0.0000 0.0000 0.0000 10.3572
#
#
#
# Elastic Compliance Matrix: (Units=1/GPa)
#
#
# Indices 1 2 3 4 5 6 
#
# 1 0.011286 0.000741 -0.005622 0.000000 0.000000 0.000000
# 2 0.000741 0.020258 0.001290 0.000000 0.000000 0.000000
# 3 -0.005622 0.001290 0.023088 0.000000 0.000000 0.000000
# 4 0.000000 0.000000 0.000000 -0.005043 0.000000 0.000000
# 5 0.000000 0.000000 0.000000 0.000000 0.097535 0.000000
# 6 0.000000 0.000000 0.000000 0.000000 0.000000 0.096551
#
#
# Mechanical properties :
#
#
# Convention : Reuss Voigt Hill
#
# Bulk Modulus (GPa) = 21.07469 25.78511 23.42990
# Shear Modulus (GPa) = 18.74948 -23.18713 -2.21883
#
# Velocity S-wave (km/s) = 3.02974 -3.36926 -1.04225
# Velocity P-wave (km/s) = 4.74941 1.58495 3.16582
#
# Compressibility (1/GPa) = 0.04745029
#
# Stress axis : x y z
#
# Youngs Moduli (GPa) = 88.60481 49.36390 43.31178
#
# Poissons Ratio (x) = -0.03658 0.24350
# Poissons Ratio (y) = -0.06565 -0.05588
# Poissons Ratio (z) = 0.49814 -0.06368
#
# Static dielectric constant tensor:
#      x y z
#    x 1.765370 0.000000 0.000000 
#    y 0.000000 1.758290 0.000000 
#    z 0.000000 0.000000 1.717210 
# 
# From -- ./inp_files/19452.got.cif
#   From: 2010.05.17/outbox.cif.g08.bks.cpg/sg69_10_cif.got.tgz:19452.got - 2010.06.03 19:29:58.
