data_PCOD9513473
_publ_section_title
;
Structure prediction by ZEFSAII (Michael W. Deem and Ramdas Pophale) SiO2 
 PCOD9513473
Probable space group: F M M M
;
_chemical_formula_sum "Si O2"
_cell_formula_units_Z 100
_cell_length_a 10.179726
_cell_length_b 23.121315
_cell_length_c 22.266768
_cell_angle_alpha 90.000000
_cell_angle_beta 90.000000
_cell_angle_gamma 90.000000
_cell_volume 5240.899157
_symmetry_space_group_name_H-M "F M M M"
_symmetry_group_IT_number 69
_symmetry_cell_setting 'orthorhombic'
loop_
_space_group_symop_operation_xyz
x,y,z
-x,-y,z
x,-y,-z
-x,y,-z
-x,-y,-z
x,y,-z
-x,y,z
x,-y,z
x,1/2+y,1/2+z
-x,1/2-y,1/2+z
x,1/2-y,1/2-z
-x,1/2+y,1/2-z
-x,1/2-y,1/2-z
x,1/2+y,1/2-z
-x,1/2+y,1/2+z
x,1/2-y,1/2+z
1/2+x,y,1/2+z
1/2-x,-y,1/2+z
1/2+x,-y,1/2-z
1/2-x,y,1/2-z
1/2-x,-y,1/2-z
1/2+x,y,1/2-z
1/2-x,y,1/2+z
1/2+x,-y,1/2+z
1/2+x,1/2+y,z
1/2-x,1/2-y,z
1/2+x,1/2-y,-z
1/2-x,1/2+y,-z
1/2-x,1/2-y,-z
1/2+x,1/2+y,-z
1/2-x,1/2+y,z
1/2+x,1/2-y,z
loop_
_atom_site_type_symbol
_atom_site_label
_atom_site_fract_x
_atom_site_fract_y
_atom_site_fract_z
Si Si1 0.500000 0.829674 0.811709
Si Si2 0.500000 0.302608 0.829567
Si Si3 0.000000 0.500000 0.000000
Si Si4 0.740515 0.620916 0.130950
Si Si5 0.342907 0.500000 0.809710
Si Si6 0.645607 0.118056 0.000000
O O1 0.500000 0.765801 0.840562
O O2 0.500000 0.817164 0.741189
O O3 0.371449 0.864427 0.831408
O O4 0.628869 0.332880 0.854785
O O5 0.889144 0.449500 0.000000
O O6 0.691117 0.557513 0.151700
O O7 0.778337 0.627994 0.061438
O O8 0.500000 0.500000 0.794967
O O9 0.250000 0.500000 0.750000
O O10 0.500000 0.147583 0.000000
#
# Coordination Sequence:
#
# PCOD9513473 Si02
#       6
#    16  16   4  32  16  16
#     4  11  23  44  71  91 134 178 221 267 332 408
#     4  11  24  42  66 103 130 172 219 281 335 382
#     4   8  16  40  60  90 116 172 236 250 300 404
#     4  12  24  43  67  98 135 172 224 272 326 402
#     4  12  27  43  67 104 140 173 210 276 344 393
#     4  10  22  41  65  93 130 182 227 265 326 399
#
# _framework density 19.080696
#
# number of rings (size 3 to 8) (size 9 to 14) (size 15 to 20)
#    0.480    0.320    3.200    4.800    2.240    3.200 
#    0.000    5.600    0.000    0.000    0.000    0.000 
#    0.000    0.000    0.000    0.000    0.000    0.000 
#
# Total GULP energy -139374.763609 kJ/mol
# GULP energy per Si atom -5574.990544 kJ/mol
# Density = 1.903727 g / cm^3
# Si number density = 19.080696 Si / 1000 Ang^3
#
#
#
# Elastic Constant Matrix: (Units=GPa)
#
#
# Indices 1 2 3 4 5 6 
#
# 1 169.1966 56.6280 50.3671 0.0000 0.0000 0.0000
# 2 56.6280 104.7565 23.8746 0.0000 0.0000 0.0000
# 3 50.3671 23.8746 112.9939 0.0000 0.0000 0.0000
# 4 0.0000 0.0000 0.0000 -58.0939 0.0000 0.0000
# 5 0.0000 0.0000 0.0000 0.0000 16.0533 0.0000
# 6 0.0000 0.0000 0.0000 0.0000 0.0000 22.5820
#
#
#
# Elastic Compliance Matrix: (Units=1/GPa)
#
#
# Indices 1 2 3 4 5 6 
#
# 1 0.007966 -0.003674 -0.002775 0.000000 0.000000 0.000000
# 2 -0.003674 0.011723 -0.000839 0.000000 0.000000 0.000000
# 3 -0.002775 -0.000839 0.010264 0.000000 0.000000 0.000000
# 4 0.000000 0.000000 0.000000 -0.017214 0.000000 0.000000
# 5 0.000000 0.000000 0.000000 0.000000 0.062292 0.000000
# 6 0.000000 0.000000 0.000000 0.000000 0.000000 0.044283
#
#
# Mechanical properties :
#
#
# Convention : Reuss Voigt Hill
#
# Bulk Modulus (GPa) = 65.02916 72.07628 68.55272
# Shear Modulus (GPa) = 35.96703 13.18010 24.57357
#
# Velocity S-wave (km/s) = 4.34636 2.63107 3.59259
# Velocity P-wave (km/s) = 7.70344 6.86196 7.29484
#
# Compressibility (1/GPa) = 0.01537772
#
# Stress axis : x y z
#
# Youngs Moduli (GPa) = 125.53724 85.30129 97.42647
#
# Poissons Ratio (x) = 0.31337 0.27031
# Poissons Ratio (y) = 0.46119 0.08178
# Poissons Ratio (z) = 0.34831 0.07161
#
# Static dielectric constant tensor:
#      x y z
#    x 1.658750 0.000000 0.000000 
#    y 0.000000 1.635050 0.000000 
#    z 0.000000 0.000000 1.604280 
# 
# From -- ./inp_files/28495.got.cif
#   From: 2010.05.17/outbox.cif.g08.bks.cpg/sg69_15_cif.got.tgz:28495.got - 2010.06.03 19:29:58.
