data_PCOD9513587
_publ_section_title
;
Structure prediction by ZEFSAII (Michael W. Deem and Ramdas Pophale) SiO2 
 PCOD9513587
Probable space group: F M M M
;
_chemical_formula_sum "Si O2"
_cell_formula_units_Z 96
_cell_length_a 14.080717
_cell_length_b 27.777653
_cell_length_c 10.390297
_cell_angle_alpha 90.000000
_cell_angle_beta 90.000000
_cell_angle_gamma 90.000000
_cell_volume 4063.949289
_symmetry_space_group_name_H-M "F M M M"
_symmetry_group_IT_number 69
_symmetry_cell_setting 'orthorhombic'
loop_
_space_group_symop_operation_xyz
x,y,z
-x,-y,z
x,-y,-z
-x,y,-z
-x,-y,-z
x,y,-z
-x,y,z
x,-y,z
x,1/2+y,1/2+z
-x,1/2-y,1/2+z
x,1/2-y,1/2-z
-x,1/2+y,1/2-z
-x,1/2-y,1/2-z
x,1/2+y,1/2-z
-x,1/2+y,1/2+z
x,1/2-y,1/2+z
1/2+x,y,1/2+z
1/2-x,-y,1/2+z
1/2+x,-y,1/2-z
1/2-x,y,1/2-z
1/2-x,-y,1/2-z
1/2+x,y,1/2-z
1/2-x,y,1/2+z
1/2+x,-y,1/2+z
1/2+x,1/2+y,z
1/2-x,1/2-y,z
1/2+x,1/2-y,-z
1/2-x,1/2+y,-z
1/2-x,1/2-y,-z
1/2+x,1/2+y,-z
1/2-x,1/2+y,z
1/2+x,1/2-y,z
loop_
_atom_site_type_symbol
_atom_site_label
_atom_site_fract_x
_atom_site_fract_y
_atom_site_fract_z
Si Si1 0.386685 0.055736 0.296540
Si Si2 0.250000 0.870945 0.250000
Si Si3 0.610743 0.291524 0.353650
Si Si4 0.102279 0.442685 0.000000
O O1 0.500000 0.061479 0.316965
O O2 0.318863 0.097590 0.345289
O O3 0.363920 0.000000 0.332007
O O4 0.362759 0.063288 0.144725
O O5 0.320137 0.835827 0.171913
O O6 0.622502 0.273836 0.500000
O O7 0.500000 0.306112 0.337655
O O8 0.630099 0.250000 0.250000
O O9 0.090501 0.500000 0.000000
O O10 0.000000 0.417075 0.000000
#
# Coordination Sequence:
#
# PCOD9513587 Si02
#       4
#    32  16  32  16
#     4   9  18  33  53  83 128 178 223 268 319 381
#     4  12  22  32  60 100 130 164 220 276 332 384
#     4  10  24  47  71  96 131 173 218 273 340 412
#     4   7  12  26  48  72 104 155 213 263 306 354
#
# _framework density 23.622340999999999
#
# number of rings (size 3 to 8) (size 9 to 14) (size 15 to 20)
#    0.000    2.500    0.000    4.000    2.333    2.667 
#    0.000    0.000    0.000    3.000    0.000    2.333 
#    0.000    0.000    0.000    0.000    0.000    0.000 
#
# Total GULP energy -133744.056649 kJ/mol
# GULP energy per Si atom -5572.669027 kJ/mol
# Density = 2.356858 g / cm^3
# Si number density = 23.622341 Si / 1000 Ang^3
#
#
#
# Elastic Constant Matrix: (Units=GPa)
#
#
# Indices 1 2 3 4 5 6 
#
# 1 140.2159 86.4440 32.8769 0.0000 0.0000 0.0000
# 2 86.4440 162.4251 46.7572 0.0000 0.0000 0.0000
# 3 32.8769 46.7572 98.6821 0.0000 0.0000 0.0000
# 4 0.0000 0.0000 0.0000 -0.0807 0.0000 0.0000
# 5 0.0000 0.0000 0.0000 0.0000 -14.0500 0.0000
# 6 0.0000 0.0000 0.0000 0.0000 0.0000 59.2253
#
#
#
# Elastic Compliance Matrix: (Units=1/GPa)
#
#
# Indices 1 2 3 4 5 6 
#
# 1 0.010700 -0.005406 -0.001003 0.000000 0.000000 0.000000
# 2 -0.005406 0.009860 -0.002871 0.000000 0.000000 0.000000
# 3 -0.001003 -0.002871 0.011828 0.000000 0.000000 0.000000
# 4 0.000000 0.000000 0.000000-12.394731 0.000000 0.000000
# 5 0.000000 0.000000 0.000000 0.000000 -0.071174 0.000000
# 6 0.000000 0.000000 0.000000 0.000000 0.000000 0.016885
#
#
# Mechanical properties :
#
#
# Convention : Reuss Voigt Hill
#
# Bulk Modulus (GPa) = 72.31730 81.49772 76.90751
# Shear Modulus (GPa) = -0.40344 24.70191 12.14924
#
# Velocity S-wave (km/s) = -0.41371 3.23724 2.27030
# Velocity P-wave (km/s) = 5.51835 6.96765 6.28491
#
# Compressibility (1/GPa) = 0.01382795
#
# Stress axis : x y z
#
# Youngs Moduli (GPa) = 93.46010 101.41930 84.54417
#
# Poissons Ratio (x) = 0.54824 0.08484
# Poissons Ratio (y) = 0.50521 0.24272
# Poissons Ratio (z) = 0.09378 0.29117
#
# Static dielectric constant tensor:
#      x y z
#    x 2.380060 0.000000 0.000000 
#    y 0.000000 1.906120 0.000000 
#    z 0.000000 0.000000 1.210310 
# 
# From -- ./inp_files/7261.got.cif
#   From: 2010.05.17/outbox.cif.g08.bks.cpg/sg69_4_cif.got.tgz:7261.got - 2010.06.03 19:29:58.
