data_PCOD9513305
_publ_section_title
;
Structure prediction by ZEFSAII (Michael W. Deem and Ramdas Pophale) SiO2 
 PCOD9513305
Probable space group: F M M M
;
_chemical_formula_sum "Si O2"
_cell_formula_units_Z 76
_cell_length_a 5.443567
_cell_length_b 27.401419
_cell_length_c 23.305663
_cell_angle_alpha 90.000000
_cell_angle_beta 90.000000
_cell_angle_gamma 90.000000
_cell_volume 3476.306725
_symmetry_space_group_name_H-M "F M M M"
_symmetry_group_IT_number 69
_symmetry_cell_setting 'orthorhombic'
loop_
_space_group_symop_operation_xyz
x,y,z
-x,-y,z
x,-y,-z
-x,y,-z
-x,-y,-z
x,y,-z
-x,y,z
x,-y,z
x,1/2+y,1/2+z
-x,1/2-y,1/2+z
x,1/2-y,1/2-z
-x,1/2+y,1/2-z
-x,1/2-y,1/2-z
x,1/2+y,1/2-z
-x,1/2+y,1/2+z
x,1/2-y,1/2+z
1/2+x,y,1/2+z
1/2-x,-y,1/2+z
1/2+x,-y,1/2-z
1/2-x,y,1/2-z
1/2-x,-y,1/2-z
1/2+x,y,1/2-z
1/2-x,y,1/2+z
1/2+x,-y,1/2+z
1/2+x,1/2+y,z
1/2-x,1/2-y,z
1/2+x,1/2-y,-z
1/2-x,1/2+y,-z
1/2-x,1/2-y,-z
1/2+x,1/2+y,-z
1/2-x,1/2+y,z
1/2+x,1/2-y,z
loop_
_atom_site_type_symbol
_atom_site_label
_atom_site_fract_x
_atom_site_fract_y
_atom_site_fract_z
Si Si1 0.500000 0.281322 0.000000
Si Si2 0.500000 0.500000 0.500000
Si Si3 0.500000 0.770912 0.315799
Si Si4 0.000000 0.444205 0.229035
Si Si5 0.500000 0.355579 0.106263
Si Si6 0.000000 0.918228 0.599964
O O1 0.750000 0.250000 0.000000
O O2 0.500000 0.315304 0.056317
O O3 0.500000 0.457283 0.549668
O O4 0.500000 0.750000 0.250000
O O5 0.750000 0.750000 0.341803
O O6 0.500000 0.827729 0.332098
O O7 0.750000 0.420092 0.250000
O O8 0.000000 0.444578 0.161213
O O9 0.000000 0.500000 0.252840
O O10 0.749130 0.386673 0.098822
#
# Coordination Sequence:
#
# PCOD9513305 Si02
#       6
#     8   4  16  16  16  16
#     4  12  24  43  72  95 136 189 230 289 364 430
#     4  12  28  52  76 102 148 206 240 302 372 414
#     4  10  21  42  66  94 139 183 223 281 361 434
#     4  10  21  43  68  95 134 183 231 279 353 425
#     4  12  25  44  68 108 139 179 244 300 346 431
#     4  12  26  46  71 106 144 188 243 298 359 420
#
# _framework density 21.862280999999999
#
# number of rings (size 3 to 8) (size 9 to 14) (size 15 to 20)
#    0.000    0.842    1.053    6.316    0.000    1.684 
#   22.737    0.000    0.000    0.000    0.000    0.000 
#    0.000    0.000    0.000    0.000    0.000    0.000 
#
# Total GULP energy -105866.124714 kJ/mol
# GULP energy per Si atom -5571.901301 kJ/mol
# Density = 2.181252 g / cm^3
# Si number density = 21.862281 Si / 1000 Ang^3
#
#
#
# Elastic Constant Matrix: (Units=GPa)
#
#
# Indices 1 2 3 4 5 6 
#
# 1 253.5841 91.0329 43.3415 0.0000 0.0000 0.0000
# 2 91.0329 140.3668 57.7198 0.0000 0.0000 0.0000
# 3 43.3415 57.7198 156.2656 0.0000 0.0000 0.0000
# 4 0.0000 0.0000 0.0000 113.3569 0.0000 0.0000
# 5 0.0000 0.0000 0.0000 0.0000 15.7101 0.0000
# 6 0.0000 0.0000 0.0000 0.0000 0.0000 -42.2505
#
#
#
# Elastic Compliance Matrix: (Units=1/GPa)
#
#
# Indices 1 2 3 4 5 6 
#
# 1 0.005147 -0.003244 -0.000229 0.000000 0.000000 0.000000
# 2 -0.003244 0.010444 -0.002958 0.000000 0.000000 0.000000
# 3 -0.000229 -0.002958 0.007556 0.000000 0.000000 0.000000
# 4 0.000000 0.000000 0.000000 0.008822 0.000000 0.000000
# 5 0.000000 0.000000 0.000000 0.000000 0.063653 0.000000
# 6 0.000000 0.000000 0.000000 0.000000 0.000000 -0.023668
#
#
# Mechanical properties :
#
#
# Convention : Reuss Voigt Hill
#
# Bulk Modulus (GPa) = 97.23460 103.82277 100.52868
# Shear Modulus (GPa) = 56.66068 41.23810 48.94939
#
# Velocity S-wave (km/s) = 5.09641 4.34783 4.73693
# Velocity P-wave (km/s) = 8.89964 8.53214 8.71783
#
# Compressibility (1/GPa) = 0.01028441
#
# Stress axis : x y z
#
# Youngs Moduli (GPa) = 194.28258 95.74607 132.35134
#
# Poissons Ratio (x) = 0.31058 0.03037
# Poissons Ratio (y) = 0.63021 0.39151
# Poissons Ratio (z) = 0.04458 0.28323
#
# Static dielectric constant tensor:
#      x y z
#    x 1.748080 0.000000 0.000000 
#    y 0.000000 1.690110 0.000000 
#    z 0.000000 0.000000 1.701730 
# 
# From -- ./inp_files/34205.got.cif
#   From: 2010.05.17/outbox.cif.g08.bks.cpg/sg69_18_cif.got.tgz:34205.got - 2010.06.03 19:29:58.
