data_PCOD9513915
_publ_section_title
;
Structure prediction by ZEFSAII (Michael W. Deem and Ramdas Pophale) SiO2 
 PCOD9513915
Probable space group: F M M M
;
_chemical_formula_sum "Si O2"
_cell_formula_units_Z 144
_cell_length_a 15.500511
_cell_length_b 14.622064
_cell_length_c 35.975417
_cell_angle_alpha 90.000000
_cell_angle_beta 90.000000
_cell_angle_gamma 90.000000
_cell_volume 8153.808976
_symmetry_space_group_name_H-M "F M M M"
_symmetry_group_IT_number 69
_symmetry_cell_setting 'orthorhombic'
loop_
_space_group_symop_operation_xyz
x,y,z
-x,-y,z
x,-y,-z
-x,y,-z
-x,-y,-z
x,y,-z
-x,y,z
x,-y,z
x,1/2+y,1/2+z
-x,1/2-y,1/2+z
x,1/2-y,1/2-z
-x,1/2+y,1/2-z
-x,1/2-y,1/2-z
x,1/2+y,1/2-z
-x,1/2+y,1/2+z
x,1/2-y,1/2+z
1/2+x,y,1/2+z
1/2-x,-y,1/2+z
1/2+x,-y,1/2-z
1/2-x,y,1/2-z
1/2-x,-y,1/2-z
1/2+x,y,1/2-z
1/2-x,y,1/2+z
1/2+x,-y,1/2+z
1/2+x,1/2+y,z
1/2-x,1/2-y,z
1/2+x,1/2-y,-z
1/2-x,1/2+y,-z
1/2-x,1/2-y,-z
1/2+x,1/2+y,-z
1/2-x,1/2+y,z
1/2+x,1/2-y,z
loop_
_atom_site_type_symbol
_atom_site_label
_atom_site_fract_x
_atom_site_fract_y
_atom_site_fract_z
Si Si1 0.896493 0.000000 0.193959
Si Si2 0.895768 0.352361 0.755932
Si Si3 0.771434 0.645985 0.563631
Si Si4 0.736703 0.500000 0.872890
Si Si5 0.105375 0.500000 0.818150
Si Si6 0.862308 0.101166 0.500000
Si Si7 0.904372 0.813755 0.000000
O O1 0.875865 0.913178 0.219964
O O2 0.836150 0.000000 0.158535
O O3 0.000000 0.000000 0.186205
O O4 0.861975 0.250000 0.750000
O O5 0.872345 0.411338 0.792463
O O6 0.000000 0.347250 0.757902
O O7 0.750000 0.750000 0.573464
O O8 0.776925 0.586069 0.600103
O O9 0.697295 0.606600 0.536634
O O10 0.853788 0.652319 0.536435
O O11 0.831509 0.500000 0.853584
O O12 0.000000 0.500000 0.824946
O O13 0.905733 0.201968 0.500000
O O14 0.904471 0.000000 0.500000
O O15 0.000000 0.849477 0.000000
#
# Coordination Sequence:
#
# PCOD9513915 Si02
#       7
#    16  32  32  16  16  16  16
#     4   9  20  34  49  77 106 134 178 222 262 322
#     4   8  15  33  57  75 100 137 175 226 280 317
#     4   9  20  36  54  75 108 147 178 214 268 327
#     4  12  22  34  53  77 112 150 180 213 274 327
#     4   9  20  36  53  78 106 134 182 233 270 325
#     4   9  15  34  61  76  98 140 182 222 266 311
#     4   9  19  35  57  86 108 133 184 234 264 314
#
# _framework density 17.660458999999999
#
# number of rings (size 3 to 8) (size 9 to 14) (size 15 to 20)
#    0.000    2.889    1.111    2.667    0.000    4.667 
#    0.000    6.111    0.000    0.000    0.000    0.000 
#    0.000    0.000    0.000    0.000    0.000    0.000 
#
# Total GULP energy -200461.201793 kJ/mol
# GULP energy per Si atom -5568.366716 kJ/mol
# Density = 1.762026 g / cm^3
# Si number density = 17.660459 Si / 1000 Ang^3
#
#
#
# Elastic Constant Matrix: (Units=GPa)
#
#
# Indices 1 2 3 4 5 6 
#
# 1 91.3122 38.1787 63.9437 0.0000 0.0000 0.0000
# 2 38.1787 143.0830 72.2724 0.0000 0.0000 0.0000
# 3 63.9437 72.2724 133.0218 0.0000 0.0000 0.0000
# 4 0.0000 0.0000 0.0000 8.3837 0.0000 0.0000
# 5 0.0000 0.0000 0.0000 0.0000 0.7699 0.0000
# 6 0.0000 0.0000 0.0000 0.0000 0.0000 -0.2434
#
#
#
# Elastic Compliance Matrix: (Units=1/GPa)
#
#
# Indices 1 2 3 4 5 6 
#
# 1 0.016540 -0.000548 -0.007653 0.000000 0.000000 0.000000
# 2 -0.000548 0.009651 -0.004980 0.000000 0.000000 0.000000
# 3 -0.007653 -0.004980 0.013902 0.000000 0.000000 0.000000
# 4 0.000000 0.000000 0.000000 0.119279 0.000000 0.000000
# 5 0.000000 0.000000 0.000000 0.000000 1.298933 0.000000
# 6 0.000000 0.000000 0.000000 0.000000 0.000000 -4.107676
#
#
# Mechanical properties :
#
#
# Convention : Reuss Voigt Hill
#
# Bulk Modulus (GPa) = 72.82866 79.57849 76.20358
# Shear Modulus (GPa) = -1.90954 14.65017 6.37032
#
# Velocity S-wave (km/s) = -1.04096 2.88331 1.90130
# Velocity P-wave (km/s) = 6.31530 7.49951 6.93274
#
# Compressibility (1/GPa) = 0.01373086
#
# Stress axis : x y z
#
# Youngs Moduli (GPa) = 60.46056 103.62142 71.93139
#
# Poissons Ratio (x) = 0.05674 0.55050
# Poissons Ratio (y) = 0.03311 0.35822
# Poissons Ratio (z) = 0.46271 0.51604
#
# Static dielectric constant tensor:
#      x y z
#    x 1.617400 0.000000 0.000000 
#    y 0.000000 1.640360 0.000000 
#    z 0.000000 0.000000 1.592180 
# 
# From -- ./inp_files/46243.got.cif
#   From: 2010.05.17/outbox.cif.g08.bks.cpg/sg69_24_cif.got.tgz:46243.got - 2010.06.03 19:29:58.
