data_PCOD9513678
_publ_section_title
;
Structure prediction by ZEFSAII (Michael W. Deem and Ramdas Pophale) SiO2 
 PCOD9513678
Probable space group: F M M M
;
_chemical_formula_sum "Si O2"
_cell_formula_units_Z 160
_cell_length_a 22.861498
_cell_length_b 25.833587
_cell_length_c 15.498371
_cell_angle_alpha 90.000000
_cell_angle_beta 90.000000
_cell_angle_gamma 90.000000
_cell_volume 9153.252633
_symmetry_space_group_name_H-M "F M M M"
_symmetry_group_IT_number 69
_symmetry_cell_setting 'orthorhombic'
loop_
_space_group_symop_operation_xyz
x,y,z
-x,-y,z
x,-y,-z
-x,y,-z
-x,-y,-z
x,y,-z
-x,y,z
x,-y,z
x,1/2+y,1/2+z
-x,1/2-y,1/2+z
x,1/2-y,1/2-z
-x,1/2+y,1/2-z
-x,1/2-y,1/2-z
x,1/2+y,1/2-z
-x,1/2+y,1/2+z
x,1/2-y,1/2+z
1/2+x,y,1/2+z
1/2-x,-y,1/2+z
1/2+x,-y,1/2-z
1/2-x,y,1/2-z
1/2-x,-y,1/2-z
1/2+x,y,1/2-z
1/2-x,y,1/2+z
1/2+x,-y,1/2+z
1/2+x,1/2+y,z
1/2-x,1/2-y,z
1/2+x,1/2-y,-z
1/2-x,1/2+y,-z
1/2-x,1/2-y,-z
1/2+x,1/2+y,-z
1/2-x,1/2+y,z
1/2+x,1/2-y,z
loop_
_atom_site_type_symbol
_atom_site_label
_atom_site_fract_x
_atom_site_fract_y
_atom_site_fract_z
Si Si1 0.565552 0.391624 0.100255
Si Si2 0.565004 0.774779 0.000000
Si Si3 0.772600 0.333207 0.343263
Si Si4 0.102275 0.713998 0.335084
Si Si5 0.202498 0.702238 0.000000
Si Si6 0.684460 0.557369 0.102624
O O1 0.500000 0.411082 0.108144
O O2 0.575872 0.344014 0.165955
O O3 0.614776 0.434634 0.111757
O O4 0.573257 0.372263 0.000000
O O5 0.568388 0.741771 0.087688
O O6 0.500000 0.801246 0.000000
O O7 0.631889 0.796949 0.000000
O O8 0.750000 0.318506 0.250000
O O9 0.830177 0.298241 0.361392
O O10 0.722700 0.325804 0.413278
O O11 0.789751 0.393510 0.348138
O O12 0.100071 0.750000 0.250000
O O13 0.250000 0.750000 0.000000
O O14 0.702455 0.500000 0.130201
O O15 0.697674 0.562984 0.000000
#
# Coordination Sequence:
#
# PCOD9513678 Si02
#       6
#    32  16  32  32  16  32
#     4   9  17  30  48  72 106 144 182 221 268 325
#     4  12  24  36  52  76 108 148 189 225 266 314
#     4  11  22  36  57  84 108 143 189 230 274 331
#     4  11  21  34  52  77 109 148 189 226 265 319
#     4  12  22  38  59  78 113 152 186 227 274 317
#     4   9  18  34  54  77 107 137 174 229 284 330
#
# _framework density 17.480125999999998
#
# number of rings (size 3 to 8) (size 9 to 14) (size 15 to 20)
#    0.000    1.600    4.000    1.800    0.000    2.400 
#    0.000    2.000    0.000    0.000    0.000    0.000 
#    0.000    1.600    0.000    0.000    0.000    4.800 
#
# Total GULP energy -222683.161099 kJ/mol
# GULP energy per Si atom -5567.079027 kJ/mol
# Density = 1.744034 g / cm^3
# Si number density = 17.480126 Si / 1000 Ang^3
#
#
#
# Elastic Constant Matrix: (Units=GPa)
#
#
# Indices 1 2 3 4 5 6 
#
# 1 116.8126 13.7182 21.5939 0.0000 0.0000 0.0000
# 2 13.7182 55.4822 15.2040 0.0000 0.0000 0.0000
# 3 21.5939 15.2040 66.0295 0.0000 0.0000 0.0000
# 4 0.0000 0.0000 0.0000 20.2774 0.0000 0.0000
# 5 0.0000 0.0000 0.0000 0.0000 -0.2533 0.0000
# 6 0.0000 0.0000 0.0000 0.0000 0.0000 5.4192
#
#
#
# Elastic Compliance Matrix: (Units=1/GPa)
#
#
# Indices 1 2 3 4 5 6 
#
# 1 0.009235 -0.001554 -0.002662 0.000000 0.000000 0.000000
# 2 -0.001554 0.019499 -0.003982 0.000000 0.000000 0.000000
# 3 -0.002662 -0.003982 0.016932 0.000000 0.000000 0.000000
# 4 0.000000 0.000000 0.000000 0.049316 0.000000 0.000000
# 5 0.000000 0.000000 0.000000 0.000000 -3.947186 0.000000
# 6 0.000000 0.000000 0.000000 0.000000 0.000000 0.184529
#
#
# Mechanical properties :
#
#
# Convention : Reuss Voigt Hill
#
# Bulk Modulus (GPa) = 34.16388 37.70627 35.93507
# Shear Modulus (GPa) = -1.37305 17.60921 8.11808
#
# Velocity S-wave (km/s) = -0.88724 3.17738 2.15737
# Velocity P-wave (km/s) = 4.30549 5.92273 5.17764
#
# Compressibility (1/GPa) = 0.02927068
#
# Stress axis : x y z
#
# Youngs Moduli (GPa) = 108.27915 51.28434 59.05874
#
# Poissons Ratio (x) = 0.07969 0.15724
# Poissons Ratio (y) = 0.16825 0.23515
# Poissons Ratio (z) = 0.28829 0.20420
#
# Static dielectric constant tensor:
#      x y z
#    x 1.635370 0.000000 0.000000 
#    y 0.000000 1.603230 0.000000 
#    z 0.000000 0.000000 1.596560 
# 
# From -- ./inp_files/17799.got.cif
#   From: 2010.05.17/outbox.cif.g08.bks.cpg/sg69_9_cif.got.tgz:17799.got - 2010.06.03 19:29:58.
