data_PCOD9513006
_publ_section_title
;
Structure prediction by ZEFSAII (Michael W. Deem and Ramdas Pophale) SiO2 
 PCOD9513006
Probable space group: F M M M
;
_chemical_formula_sum "Si O2"
_cell_formula_units_Z 160
_cell_length_a 29.077041
_cell_length_b 19.225345
_cell_length_c 15.645720
_cell_angle_alpha 90.000000
_cell_angle_beta 90.000000
_cell_angle_gamma 90.000000
_cell_volume 8746.210077
_symmetry_space_group_name_H-M "F M M M"
_symmetry_group_IT_number 69
_symmetry_cell_setting 'orthorhombic'
loop_
_space_group_symop_operation_xyz
x,y,z
-x,-y,z
x,-y,-z
-x,y,-z
-x,-y,-z
x,y,-z
-x,y,z
x,-y,z
x,1/2+y,1/2+z
-x,1/2-y,1/2+z
x,1/2-y,1/2-z
-x,1/2+y,1/2-z
-x,1/2-y,1/2-z
x,1/2+y,1/2-z
-x,1/2+y,1/2+z
x,1/2-y,1/2+z
1/2+x,y,1/2+z
1/2-x,-y,1/2+z
1/2+x,-y,1/2-z
1/2-x,y,1/2-z
1/2-x,-y,1/2-z
1/2+x,y,1/2-z
1/2-x,y,1/2+z
1/2+x,-y,1/2+z
1/2+x,1/2+y,z
1/2-x,1/2-y,z
1/2+x,1/2-y,-z
1/2-x,1/2+y,-z
1/2-x,1/2-y,-z
1/2+x,1/2+y,-z
1/2-x,1/2+y,z
1/2+x,1/2-y,z
loop_
_atom_site_type_symbol
_atom_site_label
_atom_site_fract_x
_atom_site_fract_y
_atom_site_fract_z
Si Si1 0.951439 0.748630 0.000000
Si Si2 0.349041 0.797210 0.824459
Si Si3 0.221152 0.420643 0.837091
Si Si4 0.713023 0.580834 0.000000
Si Si5 0.052686 0.348368 0.832663
Si Si6 0.144901 0.209763 0.000000
Si Si7 0.944846 0.000000 0.403964
O O1 0.949606 0.696847 0.919486
O O2 0.909793 0.801557 0.000000
O O3 0.000000 0.785982 0.000000
O O4 0.327912 0.750000 0.750000
O O5 0.320043 0.866573 0.837750
O O6 0.400723 0.817760 0.792274
O O7 0.347415 0.755195 0.913986
O O8 0.203896 0.500000 0.842163
O O9 0.250000 0.413217 0.750000
O O10 0.255182 0.409389 0.916738
O O11 0.696619 0.500000 0.000000
O O12 0.674044 0.639614 0.000000
O O13 0.064312 0.428195 0.855512
O O14 0.000000 0.344387 0.795265
O O15 0.924551 0.000000 0.500000
O O16 0.000000 0.000000 0.413517
#
# Coordination Sequence:
#
# PCOD9513006 Si02
#       7
#    16  32  32  16  32  16  16
#     4   8  14  28  47  74 111 142 171 209 254 314
#     4  11  23  36  54  82 110 143 182 223 269 321
#     4  10  22  39  57  79 108 142 176 220 275 326
#     4  10  21  39  60  81 106 139 181 225 274 323
#     4   9  17  29  47  75 110 145 178 213 259 317
#     4  10  21  36  57  84 108 140 183 218 269 322
#     4   9  14  24  46  76 107 143 179 211 260 322
#
# _framework density 18.293638999999999
#
# number of rings (size 3 to 8) (size 9 to 14) (size 15 to 20)
#    0.000    2.300    1.000    1.800    1.400    4.000 
#    0.000    0.000    0.000    0.300    0.000    0.000 
#    0.000    0.000    0.000    0.000    0.000    0.000 
#
# Total GULP energy -222817.586428 kJ/mol
# GULP energy per Si atom -5570.439661 kJ/mol
# Density = 1.825200 g / cm^3
# Si number density = 18.293639 Si / 1000 Ang^3
#
#
#
# Elastic Constant Matrix: (Units=GPa)
#
#
# Indices 1 2 3 4 5 6 
#
# 1 109.4833 95.1159 26.7919 0.0000 0.0000 0.0000
# 2 95.1159 131.0628 35.4192 0.0000 0.0000 0.0000
# 3 26.7919 35.4192 78.3837 0.0000 0.0000 0.0000
# 4 0.0000 0.0000 0.0000 30.0309 0.0000 0.0000
# 5 0.0000 0.0000 0.0000 0.0000 11.4640 0.0000
# 6 0.0000 0.0000 0.0000 0.0000 0.0000 23.7867
#
#
#
# Elastic Compliance Matrix: (Units=1/GPa)
#
#
# Indices 1 2 3 4 5 6 
#
# 1 0.024729 -0.017841 -0.000391 0.000000 0.000000 0.000000
# 2 -0.017841 0.021563 -0.003645 0.000000 0.000000 0.000000
# 3 -0.000391 -0.003645 0.014539 0.000000 0.000000 0.000000
# 4 0.000000 0.000000 0.000000 0.033299 0.000000 0.000000
# 5 0.000000 0.000000 0.000000 0.000000 0.087230 0.000000
# 6 0.000000 0.000000 0.000000 0.000000 0.000000 0.042040
#
#
# Mechanical properties :
#
#
# Convention : Reuss Voigt Hill
#
# Bulk Modulus (GPa) = 58.56116 70.39820 64.47968
# Shear Modulus (GPa) = 18.32535 23.82986 21.07761
#
# Velocity S-wave (km/s) = 3.16845 3.61311 3.39806
# Velocity P-wave (km/s) = 6.74290 7.48144 7.12175
#
# Compressibility (1/GPa) = 0.01707616
#
# Stress axis : x y z
#
# Youngs Moduli (GPa) = 40.43794 46.37605 68.78265
#
# Poissons Ratio (x) = 0.82740 0.02688
# Poissons Ratio (y) = 0.72146 0.25074
# Poissons Ratio (z) = 0.01580 0.16906
#
# Static dielectric constant tensor:
#      x y z
#    x 1.672000 0.000000 0.000000 
#    y 0.000000 1.620900 0.000000 
#    z 0.000000 0.000000 1.632650 
# 
# From -- ./inp_files/23252.got.cif
#   From: 2010.05.17/outbox.cif.g08.bks.cpg/sg69_12_cif.got.tgz:23252.got - 2010.06.03 19:29:58.
