data_PCOD9513738
_publ_section_title
;
Structure prediction by ZEFSAII (Michael W. Deem and Ramdas Pophale) SiO2 
 PCOD9513738
Probable space group: F M M M
;
_chemical_formula_sum "Si O2"
_cell_formula_units_Z 144
_cell_length_a 18.013404
_cell_length_b 16.977183
_cell_length_c 23.731563
_cell_angle_alpha 90.000000
_cell_angle_beta 90.000000
_cell_angle_gamma 90.000000
_cell_volume 7257.511988
_symmetry_space_group_name_H-M "F M M M"
_symmetry_group_IT_number 69
_symmetry_cell_setting 'orthorhombic'
loop_
_space_group_symop_operation_xyz
x,y,z
-x,-y,z
x,-y,-z
-x,y,-z
-x,-y,-z
x,y,-z
-x,y,z
x,-y,z
x,1/2+y,1/2+z
-x,1/2-y,1/2+z
x,1/2-y,1/2-z
-x,1/2+y,1/2-z
-x,1/2-y,1/2-z
x,1/2+y,1/2-z
-x,1/2+y,1/2+z
x,1/2-y,1/2+z
1/2+x,y,1/2+z
1/2-x,-y,1/2+z
1/2+x,-y,1/2-z
1/2-x,y,1/2-z
1/2-x,-y,1/2-z
1/2+x,y,1/2-z
1/2-x,y,1/2+z
1/2+x,-y,1/2+z
1/2+x,1/2+y,z
1/2-x,1/2-y,z
1/2+x,1/2-y,-z
1/2-x,1/2+y,-z
1/2-x,1/2-y,-z
1/2+x,1/2+y,-z
1/2-x,1/2+y,z
1/2+x,1/2-y,z
loop_
_atom_site_type_symbol
_atom_site_label
_atom_site_fract_x
_atom_site_fract_y
_atom_site_fract_z
Si Si1 0.666505 0.908656 0.263290
Si Si2 0.911096 0.311798 0.362486
Si Si3 0.413668 0.000000 0.939439
Si Si4 0.221110 0.340425 0.436451
Si Si5 0.855777 0.131808 0.639565
O O1 0.750000 0.877996 0.250000
O O2 0.620952 0.857347 0.307813
O O3 0.632167 0.903877 0.201073
O O4 0.671406 0.000000 0.281750
O O5 0.863870 0.343340 0.415940
O O6 0.886043 0.220518 0.358603
O O7 0.000000 0.318892 0.366671
O O8 0.395860 0.921737 0.905649
O O9 0.500000 0.000000 0.946766
O O10 0.375029 0.000000 0.000000
O O11 0.230594 0.373119 0.500000
O O12 0.250000 0.250000 0.439700
O O13 0.271334 0.372735 0.384823
#
# Coordination Sequence:
#
# PCOD9513738 Si02
#       5
#    32  32  16  32  32
#     4  11  23  41  65  91 121 163 213 264 322 382
#     4  11  24  39  62  95 129 167 212 263 323 389
#     4  11  24  40  61  96 137 169 207 266 326 378
#     4   9  19  37  62  89 119 162 212 259 307 372
#     4  11  21  40  65  90 126 167 216 259 317 385
#
# _framework density 19.84151
#
# number of rings (size 3 to 8) (size 9 to 14) (size 15 to 20)
#    0.000    1.444    3.333    2.000    0.000    5.333 
#    0.000    0.000    0.000    0.000    0.000    1.556 
#    0.000    0.000    0.000    0.000    0.000    0.000 
#
# Total GULP energy -200714.675598 kJ/mol
# GULP energy per Si atom -5575.407655 kJ/mol
# Density = 1.979635 g / cm^3
# Si number density = 19.841510 Si / 1000 Ang^3
#
#
#
# Elastic Constant Matrix: (Units=GPa)
#
#
# Indices 1 2 3 4 5 6 
#
# 1 155.8219 34.2333 44.7654 0.0000 0.0000 0.0000
# 2 34.2333 76.3542 39.7889 0.0000 0.0000 0.0000
# 3 44.7654 39.7889 140.0948 0.0000 0.0000 0.0000
# 4 0.0000 0.0000 0.0000 57.9385 0.0000 0.0000
# 5 0.0000 0.0000 0.0000 0.0000 23.5623 0.0000
# 6 0.0000 0.0000 0.0000 0.0000 0.0000 -9.7178
#
#
#
# Elastic Compliance Matrix: (Units=1/GPa)
#
#
# Indices 1 2 3 4 5 6 
#
# 1 0.007441 -0.002461 -0.001678 0.000000 0.000000 0.000000
# 2 -0.002461 0.016186 -0.003811 0.000000 0.000000 0.000000
# 3 -0.001678 -0.003811 0.008757 0.000000 0.000000 0.000000
# 4 0.000000 0.000000 0.000000 0.017260 0.000000 0.000000
# 5 0.000000 0.000000 0.000000 0.000000 0.042441 0.000000
# 6 0.000000 0.000000 0.000000 0.000000 0.000000 -0.102904
#
#
# Mechanical properties :
#
#
# Convention : Reuss Voigt Hill
#
# Bulk Modulus (GPa) = 60.67037 67.76069 64.21553
# Shear Modulus (GPa) = 472.84145 31.25550 252.04847
#
# Velocity S-wave (km/s) = 15.45401 3.97326 11.28303
# Velocity P-wave (km/s) = 18.68366 7.43466 14.21889
#
# Compressibility (1/GPa) = 0.01648251
#
# Stress axis : x y z
#
# Youngs Moduli (GPa) = 134.39934 61.78140 114.19919
#
# Poissons Ratio (x) = 0.15206 0.19168
# Poissons Ratio (y) = 0.33079 0.43517
# Poissons Ratio (z) = 0.22559 0.23543
#
# Static dielectric constant tensor:
#      x y z
#    x 1.747010 0.000000 0.000000 
#    y 0.000000 1.634130 0.000000 
#    z 0.000000 0.000000 1.758450 
# 
# From -- ./inp_files/25605.got.cif
#   From: 2010.05.17/outbox.cif.g08.bks.cpg/sg69_13_cif.got.tgz:25605.got - 2010.06.03 19:29:58.
