data_PCOD9513599
_publ_section_title
;
Structure prediction by ZEFSAII (Michael W. Deem and Ramdas Pophale) SiO2 
 PCOD9513599
Probable space group: F M M M
;
_chemical_formula_sum "Si O2"
_cell_formula_units_Z 96
_cell_length_a 21.670853
_cell_length_b 14.317289
_cell_length_c 16.157693
_cell_angle_alpha 90.000000
_cell_angle_beta 90.000000
_cell_angle_gamma 90.000000
_cell_volume 5013.212915
_symmetry_space_group_name_H-M "F M M M"
_symmetry_group_IT_number 69
_symmetry_cell_setting 'orthorhombic'
loop_
_space_group_symop_operation_xyz
x,y,z
-x,-y,z
x,-y,-z
-x,y,-z
-x,-y,-z
x,y,-z
-x,y,z
x,-y,z
x,1/2+y,1/2+z
-x,1/2-y,1/2+z
x,1/2-y,1/2-z
-x,1/2+y,1/2-z
-x,1/2-y,1/2-z
x,1/2+y,1/2-z
-x,1/2+y,1/2+z
x,1/2-y,1/2+z
1/2+x,y,1/2+z
1/2-x,-y,1/2+z
1/2+x,-y,1/2-z
1/2-x,y,1/2-z
1/2-x,-y,1/2-z
1/2+x,y,1/2-z
1/2-x,y,1/2+z
1/2+x,-y,1/2+z
1/2+x,1/2+y,z
1/2-x,1/2-y,z
1/2+x,1/2-y,-z
1/2-x,1/2+y,-z
1/2-x,1/2-y,-z
1/2+x,1/2+y,-z
1/2-x,1/2+y,z
1/2+x,1/2-y,z
loop_
_atom_site_type_symbol
_atom_site_label
_atom_site_fract_x
_atom_site_fract_y
_atom_site_fract_z
Si Si1 0.000000 0.851084 0.000000
Si Si2 0.800728 0.500000 0.651958
Si Si3 0.870015 0.859044 0.737124
Si Si4 0.500000 0.890916 0.673443
Si Si5 0.159112 0.500000 0.098226
Si Si6 0.893075 0.000000 0.000000
O O1 0.000000 0.818057 0.904169
O O2 0.937020 0.910640 0.000000
O O3 0.818478 0.587612 0.708878
O O4 0.732645 0.500000 0.615453
O O5 0.849817 0.500000 0.578745
O O6 0.859368 0.750000 0.750000
O O7 0.866274 0.908271 0.647002
O O8 0.937999 0.878995 0.774226
O O9 0.500000 0.000000 0.643310
O O10 0.146825 0.500000 0.000000
#
# Coordination Sequence:
#
# PCOD9513599 Si02
#       6
#     8  16  32  16  16   8
#     4  11  16  30  62  90 116 147 202 265 320 348
#     4  11  21  39  65  85 123 166 205 255 315 368
#     4  11  23  41  64  92 126 166 211 257 321 381
#     4  12  18  37  65  91 123 163 203 264 320 383
#     4  11  25  44  63  89 130 174 215 257 311 379
#     4  11  16  32  60  92 110 143 202 264 306 349
#
# _framework density 19.149395999999999
#
# number of rings (size 3 to 8) (size 9 to 14) (size 15 to 20)
#    0.000    0.833    9.167    2.500    0.000    2.667 
#    6.000    3.333    0.000    0.000    0.000    0.000 
#    0.000    0.000    0.000    0.000    0.000    0.000 
#
# Total GULP energy -133808.473335 kJ/mol
# GULP energy per Si atom -5575.353056 kJ/mol
# Density = 1.910581 g / cm^3
# Si number density = 19.149396 Si / 1000 Ang^3
#
#
#
# Elastic Constant Matrix: (Units=GPa)
#
#
# Indices 1 2 3 4 5 6 
#
# 1 106.4169 16.7526 49.4772 0.0000 0.0000 0.0000
# 2 16.7526 139.1184 48.9371 0.0000 0.0000 0.0000
# 3 49.4772 48.9371 181.4865 0.0000 0.0000 0.0000
# 4 0.0000 0.0000 0.0000 0.9247 0.0000 0.0000
# 5 0.0000 0.0000 0.0000 0.0000 41.2442 0.0000
# 6 0.0000 0.0000 0.0000 0.0000 0.0000 2.3597
#
#
#
# Elastic Compliance Matrix: (Units=1/GPa)
#
#
# Indices 1 2 3 4 5 6 
#
# 1 0.010772 -0.000292 -0.002858 0.000000 0.000000 0.000000
# 2 -0.000292 0.007949 -0.002064 0.000000 0.000000 0.000000
# 3 -0.002858 -0.002064 0.006846 0.000000 0.000000 0.000000
# 4 0.000000 0.000000 0.000000 1.081451 0.000000 0.000000
# 5 0.000000 0.000000 0.000000 0.000000 0.024246 0.000000
# 6 0.000000 0.000000 0.000000 0.000000 0.000000 0.423783
#
#
# Mechanical properties :
#
#
# Convention : Reuss Voigt Hill
#
# Bulk Modulus (GPa) = 66.05295 73.03950 69.54622
# Shear Modulus (GPa) = 3.18366 29.69605 16.43986
#
# Velocity S-wave (km/s) = 1.29079 3.94224 2.93320
# Velocity P-wave (km/s) = 6.06547 7.67765 6.91868
#
# Compressibility (1/GPa) = 0.01513937
#
# Stress axis : x y z
#
# Youngs Moduli (GPa) = 92.83591 125.79746 146.07684
#
# Poissons Ratio (x) = 0.03671 0.41747
# Poissons Ratio (y) = 0.02709 0.30149
# Poissons Ratio (z) = 0.26532 0.25964
#
# Static dielectric constant tensor:
#      x y z
#    x 1.649920 0.000000 0.000000 
#    y 0.000000 1.712340 0.000000 
#    z 0.000000 0.000000 1.730220 
# 
# From -- ./inp_files/17210.got.cif
#   From: 2010.05.17/outbox.cif.g08.bks.cpg/sg69_9_cif.got.tgz:17210.got - 2010.06.03 19:29:58.
