data_PCOD9513582
_publ_section_title
;
Structure prediction by ZEFSAII (Michael W. Deem and Ramdas Pophale) SiO2 
 PCOD9513582
Probable space group: F M M M
;
_chemical_formula_sum "Si O2"
_cell_formula_units_Z 80
_cell_length_a 10.065029
_cell_length_b 15.833871
_cell_length_c 20.097040
_cell_angle_alpha 90.000000
_cell_angle_beta 90.000000
_cell_angle_gamma 90.000000
_cell_volume 3202.832523
_symmetry_space_group_name_H-M "F M M M"
_symmetry_group_IT_number 69
_symmetry_cell_setting 'orthorhombic'
loop_
_space_group_symop_operation_xyz
x,y,z
-x,-y,z
x,-y,-z
-x,y,-z
-x,-y,-z
x,y,-z
-x,y,z
x,-y,z
x,1/2+y,1/2+z
-x,1/2-y,1/2+z
x,1/2-y,1/2-z
-x,1/2+y,1/2-z
-x,1/2-y,1/2-z
x,1/2+y,1/2-z
-x,1/2+y,1/2+z
x,1/2-y,1/2+z
1/2+x,y,1/2+z
1/2-x,-y,1/2+z
1/2+x,-y,1/2-z
1/2-x,y,1/2-z
1/2-x,-y,1/2-z
1/2+x,y,1/2-z
1/2-x,y,1/2+z
1/2+x,-y,1/2+z
1/2+x,1/2+y,z
1/2-x,1/2-y,z
1/2+x,1/2-y,-z
1/2-x,1/2+y,-z
1/2-x,1/2-y,-z
1/2+x,1/2+y,-z
1/2-x,1/2+y,z
1/2+x,1/2-y,z
loop_
_atom_site_type_symbol
_atom_site_label
_atom_site_fract_x
_atom_site_fract_y
_atom_site_fract_z
Si Si1 0.000000 0.406882 0.861958
Si Si2 0.789830 0.092091 0.143672
Si Si3 0.666245 0.161240 0.500000
Si Si4 0.000000 0.270448 0.326627
O O1 0.857961 0.408101 0.826359
O O2 0.000000 0.500000 0.898478
O O3 0.000000 0.306623 0.880165
O O4 0.786215 0.107996 0.064159
O O5 0.873098 0.171368 0.164638
O O6 0.848340 0.000000 0.156964
O O7 0.500000 0.167685 0.500000
O O8 0.750000 0.250000 0.500000
O O9 0.000000 0.250000 0.250000
#
# Coordination Sequence:
#
# PCOD9513582 Si02
#       4
#    16  32  16  16
#     4  10  24  44  66  99 142 185 233 297 362 432
#     4  11  25  45  71 105 146 190 243 295 359 437
#     4  12  25  41  72 108 150 192 240 286 362 429
#     4  12  25  44  70 100 136 184 247 309 364 424
#
# _framework density 24.977891
#
# number of rings (size 3 to 8) (size 9 to 14) (size 15 to 20)
#    0.000    0.800    2.000    4.800    2.800    5.600 
#    0.000    7.000    0.000    0.000    0.000    0.000 
#    0.000    0.000    0.000    0.000    0.000    0.000 
#
# Total GULP energy -111440.144494 kJ/mol
# GULP energy per Si atom -5572.007225 kJ/mol
# Density = 2.492104 g / cm^3
# Si number density = 24.977891 Si / 1000 Ang^3
#
#
#
# Elastic Constant Matrix: (Units=GPa)
#
#
# Indices 1 2 3 4 5 6 
#
# 1 166.2915 65.1877 -9.1393 0.0000 0.0000 0.0000
# 2 65.1877 214.4048 17.4617 0.0000 0.0000 0.0000
# 3 -9.1393 17.4617 84.1657 0.0000 0.0000 0.0000
# 4 0.0000 0.0000 0.0000 18.6501 0.0000 0.0000
# 5 0.0000 0.0000 0.0000 0.0000 16.2657 0.0000
# 6 0.0000 0.0000 0.0000 0.0000 0.0000 47.3926
#
#
#
# Elastic Compliance Matrix: (Units=1/GPa)
#
#
# Indices 1 2 3 4 5 6 
#
# 1 0.006947 -0.002211 0.001213 0.000000 0.000000 0.000000
# 2 -0.002211 0.005448 -0.001370 0.000000 0.000000 0.000000
# 3 0.001213 -0.001370 0.012297 0.000000 0.000000 0.000000
# 4 0.000000 0.000000 0.000000 0.053619 0.000000 0.000000
# 5 0.000000 0.000000 0.000000 0.000000 0.061479 0.000000
# 6 0.000000 0.000000 0.000000 0.000000 0.000000 0.021100
#
#
# Mechanical properties :
#
#
# Convention : Reuss Voigt Hill
#
# Bulk Modulus (GPa) = 50.11103 67.98690 59.04897
# Shear Modulus (GPa) = 29.02270 42.55182 35.78726
#
# Velocity S-wave (km/s) = 3.41242 4.13192 3.78928
# Velocity P-wave (km/s) = 5.96924 7.07401 6.54498
#
# Compressibility (1/GPa) = 0.01995569
#
# Stress axis : x y z
#
# Youngs Moduli (GPa) = 143.94889 183.55723 81.31834
#
# Poissons Ratio (x) = 0.40583 -0.09864
# Poissons Ratio (y) = 0.31826 0.11143
# Poissons Ratio (z) = -0.17462 0.25154
#
# Static dielectric constant tensor:
#      x y z
#    x 1.991680 0.000000 0.000000 
#    y 0.000000 2.023060 0.000000 
#    z 0.000000 0.000000 2.047110 
# 
# From -- ./inp_files/34708.got.cif
#   From: 2010.05.17/outbox.cif.g08.bks.cpg/sg69_18_cif.got.tgz:34708.got - 2010.06.03 19:29:58.
