data_PCOD9513867
_publ_section_title
;
Structure prediction by ZEFSAII (Michael W. Deem and Ramdas Pophale) SiO2 
 PCOD9513867
Probable space group: F M M M
;
_chemical_formula_sum "Si O2"
_cell_formula_units_Z 176
_cell_length_a 14.514459
_cell_length_b 20.619918
_cell_length_c 32.983393
_cell_angle_alpha 90.000000
_cell_angle_beta 90.000000
_cell_angle_gamma 90.000000
_cell_volume 9871.499237
_symmetry_space_group_name_H-M "F M M M"
_symmetry_group_IT_number 69
_symmetry_cell_setting 'orthorhombic'
loop_
_space_group_symop_operation_xyz
x,y,z
-x,-y,z
x,-y,-z
-x,y,-z
-x,-y,-z
x,y,-z
-x,y,z
x,-y,z
x,1/2+y,1/2+z
-x,1/2-y,1/2+z
x,1/2-y,1/2-z
-x,1/2+y,1/2-z
-x,1/2-y,1/2-z
x,1/2+y,1/2-z
-x,1/2+y,1/2+z
x,1/2-y,1/2+z
1/2+x,y,1/2+z
1/2-x,-y,1/2+z
1/2+x,-y,1/2-z
1/2-x,y,1/2-z
1/2-x,-y,1/2-z
1/2+x,y,1/2-z
1/2-x,y,1/2+z
1/2+x,-y,1/2+z
1/2+x,1/2+y,z
1/2-x,1/2-y,z
1/2+x,1/2-y,-z
1/2-x,1/2+y,-z
1/2-x,1/2-y,-z
1/2+x,1/2+y,-z
1/2-x,1/2+y,z
1/2+x,1/2-y,z
loop_
_atom_site_type_symbol
_atom_site_label
_atom_site_fract_x
_atom_site_fract_y
_atom_site_fract_z
Si Si1 0.604839 0.374850 0.546933
Si Si2 0.606644 0.718474 0.953654
Si Si3 0.787294 0.114488 0.907511
Si Si4 0.104160 0.578741 0.238566
Si Si5 0.389992 0.000000 0.452997
Si Si6 0.224810 0.078560 0.815542
O O1 0.622994 0.393445 0.500000
O O2 0.500000 0.394611 0.556999
O O3 0.608580 0.296273 0.548544
O O4 0.684077 0.398880 0.576520
O O5 0.500000 0.698618 0.946694
O O6 0.675443 0.683238 0.923478
O O7 0.631430 0.699966 0.000000
O O8 0.851729 0.062167 0.929564
O O9 0.791459 0.107949 0.859416
O O10 0.102534 0.500000 0.237956
O O11 0.148129 0.596488 0.282024
O O12 0.176879 0.597971 0.203936
O O13 0.000000 0.602182 0.233251
O O14 0.500000 0.000000 0.452374
O O15 0.359747 0.000000 0.500000
O O16 0.223838 0.000000 0.819381
#
# Coordination Sequence:
#
# PCOD9513867 Si02
#       6
#    32  32  32  32  16  32
#     4   9  19  35  53  72  94 127 177 226 256 280
#     4   9  18  33  52  73  96 127 173 222 258 286
#     4  12  20  31  50  74 104 136 163 203 250 297
#     4   8  15  30  51  65  87 126 161 199 244 284
#     4  11  24  36  45  66 105 147 174 190 229 303
#     4   9  18  31  43  71 102 123 161 198 234 297
#
# _framework density 17.829105999999999
#
# number of rings (size 3 to 8) (size 9 to 14) (size 15 to 20)
#    0.000    2.455    0.909    4.909    0.000    5.091 
#    0.000    0.455    0.000    1.636    0.000   10.182 
#    0.000   17.455    0.000    0.000    0.000    0.000 
#
# Total GULP energy -245469.468526 kJ/mol
# GULP energy per Si atom -5578.851557 kJ/mol
# Density = 1.778853 g / cm^3
# Si number density = 17.829106 Si / 1000 Ang^3
#
#
#
# Elastic Constant Matrix: (Units=GPa)
#
#
# Indices 1 2 3 4 5 6 
#
# 1 89.8728 6.0373 46.7712 0.0000 0.0000 0.0000
# 2 6.0373 7.7700 9.9921 0.0000 0.0000 0.0000
# 3 46.7712 9.9921 124.4761 0.0000 0.0000 0.0000
# 4 0.0000 0.0000 0.0000 -229.5349 0.0000 0.0000
# 5 0.0000 0.0000 0.0000 0.0000 -0.4832 0.0000
# 6 0.0000 0.0000 0.0000 0.0000 0.0000 13.8199
#
#
#
# Elastic Compliance Matrix: (Units=1/GPa)
#
#
# Indices 1 2 3 4 5 6 
#
# 1 0.013976 -0.004579 -0.004884 0.000000 0.000000 0.000000
# 2 -0.004579 0.145015 -0.009920 0.000000 0.000000 0.000000
# 3 -0.004884 -0.009920 0.010665 0.000000 0.000000 0.000000
# 4 0.000000 0.000000 0.000000 -0.004357 0.000000 0.000000
# 5 0.000000 0.000000 0.000000 0.000000 -2.069695 0.000000
# 6 0.000000 0.000000 0.000000 0.000000 0.000000 0.072359
#
#
# Mechanical properties :
#
#
# Convention : Reuss Voigt Hill
#
# Bulk Modulus (GPa) = 7.64001 38.63559 23.13780
# Shear Modulus (GPa) = -2.85773 -32.61841 -17.73807
#
# Velocity S-wave (km/s) = -1.26741 -4.28191 -3.15762
# Velocity P-wave (km/s) = 1.46720 1.65207 0.53697
#
# Compressibility (1/GPa) = 0.13088980
#
# Stress axis : x y z
#
# Youngs Moduli (GPa) = 71.55085 6.89585 93.76380
#
# Poissons Ratio (x) = 0.03158 0.45793
# Poissons Ratio (y) = 0.32762 0.93017
# Poissons Ratio (z) = 0.34945 0.06841
#
# Static dielectric constant tensor:
#      x y z
#    x 1.639300 0.000000 0.000000 
#    y 0.000000 1.622950 0.000000 
#    z 0.000000 0.000000 1.577690 
# 
# From -- ./inp_files/41101.got.cif
#   From: 2010.05.17/outbox.cif.g08.bks.cpg/sg69_21_cif.got.tgz:41101.got - 2010.06.03 19:29:58.
