data_PCOD9513648
_publ_section_title
;
Structure prediction by ZEFSAII (Michael W. Deem and Ramdas Pophale) SiO2 
 PCOD9513648
Probable space group: F M M M
;
_chemical_formula_sum "Si O2"
_cell_formula_units_Z 224
_cell_length_a 27.402967
_cell_length_b 22.242384
_cell_length_c 18.955768
_cell_angle_alpha 90.000000
_cell_angle_beta 90.000000
_cell_angle_gamma 90.000000
_cell_volume 11553.679253
_symmetry_space_group_name_H-M "F M M M"
_symmetry_group_IT_number 69
_symmetry_cell_setting 'orthorhombic'
loop_
_space_group_symop_operation_xyz
x,y,z
-x,-y,z
x,-y,-z
-x,y,-z
-x,-y,-z
x,y,-z
-x,y,z
x,-y,z
x,1/2+y,1/2+z
-x,1/2-y,1/2+z
x,1/2-y,1/2-z
-x,1/2+y,1/2-z
-x,1/2-y,1/2-z
x,1/2+y,1/2-z
-x,1/2+y,1/2+z
x,1/2-y,1/2+z
1/2+x,y,1/2+z
1/2-x,-y,1/2+z
1/2+x,-y,1/2-z
1/2-x,y,1/2-z
1/2-x,-y,1/2-z
1/2+x,y,1/2-z
1/2-x,y,1/2+z
1/2+x,-y,1/2+z
1/2+x,1/2+y,z
1/2-x,1/2-y,z
1/2+x,1/2-y,-z
1/2-x,1/2+y,-z
1/2-x,1/2-y,-z
1/2+x,1/2+y,-z
1/2-x,1/2+y,z
1/2+x,1/2-y,z
loop_
_atom_site_type_symbol
_atom_site_label
_atom_site_fract_x
_atom_site_fract_y
_atom_site_fract_z
Si Si1 0.942597 0.268244 0.416708
Si Si2 0.731652 0.181314 0.418498
Si Si3 0.626304 0.631500 0.144153
Si Si4 0.775643 0.404605 0.174667
Si Si5 0.558851 0.627966 0.418722
Si Si6 0.385456 0.500000 0.923277
Si Si7 0.883135 0.431833 0.792199
Si Si8 0.270310 0.500000 0.923777
O O1 0.935974 0.280830 0.500000
O O2 0.911269 0.315842 0.374233
O O3 0.928634 0.198336 0.406439
O O4 0.000000 0.273622 0.400384
O O5 0.731057 0.158130 0.500000
O O6 0.750000 0.250000 0.424219
O O7 0.679116 0.158941 0.383811
O O8 0.773389 0.157581 0.365486
O O9 0.608743 0.567063 0.110357
O O10 0.622626 0.614338 0.226860
O O11 0.750000 0.402804 0.250000
O O12 0.828380 0.432641 0.178758
O O13 0.743799 0.444229 0.122717
O O14 0.573640 0.612358 0.500000
O O15 0.500000 0.622854 0.416316
O O16 0.582503 0.589825 0.355892
O O17 0.327437 0.500000 0.930967
O O18 0.410015 0.500000 0.000000
O O19 0.896274 0.500000 0.768763
O O20 0.246135 0.500000 0.000000
#
# Coordination Sequence:
#
# PCOD9513648 Si02
#       8
#    32  32  32  32  32  16  32  16
#     4   9  20  42  70  97 125 159 206 265 326 388
#     4  11  25  42  62  91 128 170 217 269 323 382
#     4  12  23  41  64  94 132 172 213 264 326 390
#     4  12  23  41  60  84 130 172 210 260 317 377
#     4   9  22  47  74  97 126 169 218 274 342 405
#     4  11  20  35  62  91 122 171 224 259 312 393
#     4  12  26  42  62  95 133 174 218 269 325 387
#     4  11  21  35  61  86 111 162 221 263 305 372
#
# _framework density 19.387763
#
# number of rings (size 3 to 8) (size 9 to 14) (size 15 to 20)
#    0.000    1.143    4.286    2.786    2.000    3.143 
#    0.000    2.500    0.000    1.286    0.000    0.000 
#    0.000    0.000    0.000    0.000    0.000    0.000 
#
# Total GULP energy -311738.182396 kJ/mol
# GULP energy per Si atom -5566.753257 kJ/mol
# Density = 1.934364 g / cm^3
# Si number density = 19.387763 Si / 1000 Ang^3
#
#
#
# Elastic Constant Matrix: (Units=GPa)
#
#
# Indices 1 2 3 4 5 6 
#
# 1 43.4073 31.8558 35.5712 0.0000 0.0000 0.0000
# 2 31.8558 82.5235 51.6379 0.0000 0.0000 0.0000
# 3 35.5712 51.6379 126.4041 0.0000 0.0000 0.0000
# 4 0.0000 0.0000 0.0000 21.4984 0.0000 0.0000
# 5 0.0000 0.0000 0.0000 0.0000 32.3101 0.0000
# 6 0.0000 0.0000 0.0000 0.0000 0.0000 36.2853
#
#
#
# Elastic Compliance Matrix: (Units=1/GPa)
#
#
# Indices 1 2 3 4 5 6 
#
# 1 0.035074 -0.009892 -0.005829 0.000000 0.000000 0.000000
# 2 -0.009892 0.019069 -0.005006 0.000000 0.000000 0.000000
# 3 -0.005829 -0.005006 0.011597 0.000000 0.000000 0.000000
# 4 0.000000 0.000000 0.000000 0.046515 0.000000 0.000000
# 5 0.000000 0.000000 0.000000 0.000000 0.030950 0.000000
# 6 0.000000 0.000000 0.000000 0.000000 0.000000 0.027559
#
#
# Mechanical properties :
#
#
# Convention : Reuss Voigt Hill
#
# Bulk Modulus (GPa) = 41.17776 54.49609 47.83693
# Shear Modulus (GPa) = 22.69499 26.90342 24.79921
#
# Velocity S-wave (km/s) = 3.42509 3.72916 3.58035
# Velocity P-wave (km/s) = 6.07674 6.83459 6.46678
#
# Compressibility (1/GPa) = 0.02428495
#
# Stress axis : x y z
#
# Youngs Moduli (GPa) = 28.51130 52.44177 86.23187
#
# Poissons Ratio (x) = 0.51874 0.50266
# Poissons Ratio (y) = 0.28203 0.43170
# Poissons Ratio (z) = 0.16620 0.26254
#
# Static dielectric constant tensor:
#      x y z
#    x 1.667590 0.000000 0.000000 
#    y 0.000000 1.685140 0.000000 
#    z 0.000000 0.000000 1.713840 
# 
# From -- ./inp_files/27967.got.cif
#   From: 2010.05.17/outbox.cif.g08.bks.cpg/sg69_14_cif.got.tgz:27967.got - 2010.06.03 19:29:58.
