data_PCOD9513698
_publ_section_title
;
Structure prediction by ZEFSAII (Michael W. Deem and Ramdas Pophale) SiO2 
 PCOD9513698
Probable space group: F M M M
;
_chemical_formula_sum "Si O2"
_cell_formula_units_Z 112
_cell_length_a 20.964287
_cell_length_b 20.097595
_cell_length_c 13.274267
_cell_angle_alpha 90.000000
_cell_angle_beta 90.000000
_cell_angle_gamma 90.000000
_cell_volume 5592.870140
_symmetry_space_group_name_H-M "F M M M"
_symmetry_group_IT_number 69
_symmetry_cell_setting 'orthorhombic'
loop_
_space_group_symop_operation_xyz
x,y,z
-x,-y,z
x,-y,-z
-x,y,-z
-x,-y,-z
x,y,-z
-x,y,z
x,-y,z
x,1/2+y,1/2+z
-x,1/2-y,1/2+z
x,1/2-y,1/2-z
-x,1/2+y,1/2-z
-x,1/2-y,1/2-z
x,1/2+y,1/2-z
-x,1/2+y,1/2+z
x,1/2-y,1/2+z
1/2+x,y,1/2+z
1/2-x,-y,1/2+z
1/2+x,-y,1/2-z
1/2-x,y,1/2-z
1/2-x,-y,1/2-z
1/2+x,y,1/2-z
1/2-x,y,1/2+z
1/2+x,-y,1/2+z
1/2+x,1/2+y,z
1/2-x,1/2-y,z
1/2+x,1/2-y,-z
1/2-x,1/2+y,-z
1/2-x,1/2-y,-z
1/2+x,1/2+y,-z
1/2-x,1/2+y,z
1/2+x,1/2-y,z
loop_
_atom_site_type_symbol
_atom_site_label
_atom_site_fract_x
_atom_site_fract_y
_atom_site_fract_z
Si Si1 0.929439 0.739322 0.500000
Si Si2 0.107070 0.387839 0.000000
Si Si3 0.250127 0.669465 0.500000
Si Si4 0.425388 0.574797 0.719570
Si Si5 0.159116 0.812408 0.822238
O O1 0.930425 0.818402 0.500000
O O2 0.890983 0.717287 0.402097
O O3 0.000000 0.710760 0.500000
O O4 0.088071 0.425305 0.899334
O O5 0.181381 0.365117 0.000000
O O6 0.250000 0.750000 0.500000
O O7 0.213829 0.656260 0.605819
O O8 0.500000 0.592150 0.737291
O O9 0.414545 0.500000 0.759976
O O10 0.377622 0.629894 0.763087
O O11 0.177772 0.750000 0.750000
#
# Coordination Sequence:
#
# PCOD9513698 Si02
#       5
#    16  16  16  32  32
#     4  11  21  35  59  94 125 150 199 259 303 354
#     4  12  22  38  61  93 124 161 202 251 308 359
#     4  11  22  41  59  92 128 162 202 255 305 358
#     4  11  24  42  63  91 126 162 202 253 313 366
#     4  11  22  39  64  91 122 162 208 251 302 364
#
# _framework density 20.025496
#
# number of rings (size 3 to 8) (size 9 to 14) (size 15 to 20)
#    0.000    0.857    5.714    2.571    0.000    6.286 
#    0.000    7.143    0.000    7.714    0.000    0.000 
#    0.000    0.000    0.000    0.000    0.000    0.000 
#
# Total GULP energy -156416.794121 kJ/mol
# GULP energy per Si atom -5586.314076 kJ/mol
# Density = 1.997992 g / cm^3
# Si number density = 20.025496 Si / 1000 Ang^3
#
#
#
# Elastic Constant Matrix: (Units=GPa)
#
#
# Indices 1 2 3 4 5 6 
#
# 1 116.7560 20.4987 26.1293 0.0000 0.0000 0.0000
# 2 20.4987 91.7787 24.5102 0.0000 0.0000 0.0000
# 3 26.1293 24.5102 102.4507 0.0000 0.0000 0.0000
# 4 0.0000 0.0000 0.0000 17.5735 0.0000 0.0000
# 5 0.0000 0.0000 0.0000 0.0000 32.1906 0.0000
# 6 0.0000 0.0000 0.0000 0.0000 0.0000 14.6321
#
#
#
# Elastic Compliance Matrix: (Units=1/GPa)
#
#
# Indices 1 2 3 4 5 6 
#
# 1 0.009283 -0.001539 -0.001999 0.000000 0.000000 0.000000
# 2 -0.001539 0.011895 -0.002453 0.000000 0.000000 0.000000
# 3 -0.001999 -0.002453 0.010858 0.000000 0.000000 0.000000
# 4 0.000000 0.000000 0.000000 0.056904 0.000000 0.000000
# 5 0.000000 0.000000 0.000000 0.000000 0.031065 0.000000
# 6 0.000000 0.000000 0.000000 0.000000 0.000000 0.068343
#
#
# Mechanical properties :
#
#
# Convention : Reuss Voigt Hill
#
# Bulk Modulus (GPa) = 49.87140 50.36243 50.11691
# Shear Modulus (GPa) = 24.15301 28.86906 26.51104
#
# Velocity S-wave (km/s) = 3.47668 3.80098 3.64244
# Velocity P-wave (km/s) = 6.40893 6.66836 6.53993
#
# Compressibility (1/GPa) = 0.02005157
#
# Stress axis : x y z
#
# Youngs Moduli (GPa) = 107.72918 84.07103 92.10197
#
# Poissons Ratio (x) = 0.12942 0.18413
# Poissons Ratio (y) = 0.16583 0.22593
# Poissons Ratio (z) = 0.21537 0.20623
#
# Static dielectric constant tensor:
#      x y z
#    x 1.736620 0.000000 0.000000 
#    y 0.000000 1.695650 0.000000 
#    z 0.000000 0.000000 1.758770 
# 
# From -- ./inp_files/9921.got.cif
#   From: 2010.05.17/outbox.cif.g08.bks.cpg/sg69_5_cif.got.tgz:9921.got - 2010.06.03 19:29:58.
