data_PCOD9513606
_publ_section_title
;
Structure prediction by ZEFSAII (Michael W. Deem and Ramdas Pophale) SiO2 
 PCOD9513606
Probable space group: F M M M
;
_chemical_formula_sum "Si O2"
_cell_formula_units_Z 192
_cell_length_a 25.210397
_cell_length_b 22.512459
_cell_length_c 20.156712
_cell_angle_alpha 90.000000
_cell_angle_beta 90.000000
_cell_angle_gamma 90.000000
_cell_volume 11439.902163
_symmetry_space_group_name_H-M "F M M M"
_symmetry_group_IT_number 69
_symmetry_cell_setting 'orthorhombic'
loop_
_space_group_symop_operation_xyz
x,y,z
-x,-y,z
x,-y,-z
-x,y,-z
-x,-y,-z
x,y,-z
-x,y,z
x,-y,z
x,1/2+y,1/2+z
-x,1/2-y,1/2+z
x,1/2-y,1/2-z
-x,1/2+y,1/2-z
-x,1/2-y,1/2-z
x,1/2+y,1/2-z
-x,1/2+y,1/2+z
x,1/2-y,1/2+z
1/2+x,y,1/2+z
1/2-x,-y,1/2+z
1/2+x,-y,1/2-z
1/2-x,y,1/2-z
1/2-x,-y,1/2-z
1/2+x,y,1/2-z
1/2-x,y,1/2+z
1/2+x,-y,1/2+z
1/2+x,1/2+y,z
1/2-x,1/2-y,z
1/2+x,1/2-y,-z
1/2-x,1/2+y,-z
1/2-x,1/2-y,-z
1/2+x,1/2+y,-z
1/2-x,1/2+y,z
1/2+x,1/2-y,z
loop_
_atom_site_type_symbol
_atom_site_label
_atom_site_fract_x
_atom_site_fract_y
_atom_site_fract_z
Si Si1 0.442056 0.069727 0.268021
Si Si2 0.673034 0.891456 0.302127
Si Si3 0.061402 0.568419 0.108131
Si Si4 0.217026 0.568501 0.839318
Si Si5 0.154055 0.655560 0.075112
Si Si6 0.313348 0.758391 0.326903
O O1 0.500000 0.096062 0.286056
O O2 0.388465 0.092140 0.301392
O O3 0.436180 0.074727 0.188229
O O4 0.444365 0.000000 0.282273
O O5 0.719294 0.930644 0.335165
O O6 0.692653 0.896510 0.224761
O O7 0.677092 0.827812 0.336755
O O8 0.077314 0.500000 0.091832
O O9 0.099111 0.619069 0.079885
O O10 0.000000 0.575074 0.088353
O O11 0.198554 0.500000 0.836902
O O12 0.196428 0.606102 0.900963
O O13 0.158631 0.711569 0.124720
O O14 0.163629 0.674803 0.000000
O O15 0.329333 0.750000 0.250000
O O16 0.250000 0.750000 0.331929
#
# Coordination Sequence:
#
# PCOD9513606 Si02
#       6
#    32  32  32  32  32  32
#     4   9  16  28  50  81 112 137 172 227 279 322
#     4  11  18  32  54  77 105 140 187 227 264 321
#     4   9  18  34  54  76 108 149 186 221 269 329
#     4  11  20  32  53  82 109 139 180 226 276 328
#     4  12  24  36  52  79 112 148 187 226 269 324
#     4  11  19  37  57  75 102 144 189 228 269 317
#
# _framework density 16.783359999999998
#
# number of rings (size 3 to 8) (size 9 to 14) (size 15 to 20)
#    0.000    1.500    5.000    4.500    0.000    2.000 
#    0.000    1.667    0.000    3.000    0.000    0.000 
#    0.000    0.667    0.000    9.167    0.000    1.167 
#
# Total GULP energy -267407.004925 kJ/mol
# GULP energy per Si atom -5570.979269 kJ/mol
# Density = 1.674516 g / cm^3
# Si number density = 16.783360 Si / 1000 Ang^3
#
#
#
# Elastic Constant Matrix: (Units=GPa)
#
#
# Indices 1 2 3 4 5 6 
#
# 1 116.0331 35.1109 33.5747 0.0000 0.0000 0.0000
# 2 35.1109 107.7892 47.2333 0.0000 0.0000 0.0000
# 3 33.5747 47.2333 70.4343 0.0000 0.0000 0.0000
# 4 0.0000 0.0000 0.0000 -195.3360 0.0000 0.0000
# 5 0.0000 0.0000 0.0000 0.0000 -149.6427 0.0000
# 6 0.0000 0.0000 0.0000 0.0000 0.0000 16.2770
#
#
#
# Elastic Compliance Matrix: (Units=1/GPa)
#
#
# Indices 1 2 3 4 5 6 
#
# 1 0.010210 -0.001690 -0.003734 0.000000 0.000000 0.000000
# 2 -0.001690 0.013418 -0.008193 0.000000 0.000000 0.000000
# 3 -0.003734 -0.008193 0.021471 0.000000 0.000000 0.000000
# 4 0.000000 0.000000 0.000000 -0.005119 0.000000 0.000000
# 5 0.000000 0.000000 0.000000 0.000000 -0.006683 0.000000
# 6 0.000000 0.000000 0.000000 0.000000 0.000000 0.061436
#
#
# Mechanical properties :
#
#
# Convention : Reuss Voigt Hill
#
# Bulk Modulus (GPa) = 55.96877 58.45494 57.21186
# Shear Modulus (GPa) = 39.08668 -53.85114 -7.38223
#
# Velocity S-wave (km/s) = 4.83110 -5.67060 -2.09955
# Velocity P-wave (km/s) = 8.03365 2.82304 5.31836
#
# Compressibility (1/GPa) = 0.01786711
#
# Stress axis : x y z
#
# Youngs Moduli (GPa) = 97.94434 74.52846 46.57357
#
# Poissons Ratio (x) = 0.12592 0.17390
# Poissons Ratio (y) = 0.16548 0.38156
# Poissons Ratio (z) = 0.36571 0.61058
#
# Static dielectric constant tensor:
#      x y z
#    x 1.624880 0.000000 0.000000 
#    y 0.000000 1.589660 0.000000 
#    z 0.000000 0.000000 1.579290 
# 
# From -- ./inp_files/32850.got.cif
#   From: 2010.05.17/outbox.cif.g08.bks.cpg/sg69_17_cif.got.tgz:32850.got - 2010.06.03 19:29:58.
