data_PCOD9513534
_publ_section_title
;
Structure prediction by ZEFSAII (Michael W. Deem and Ramdas Pophale) SiO2 
 PCOD9513534
Probable space group: F M M M
;
_chemical_formula_sum "Si O2"
_cell_formula_units_Z 168
_cell_length_a 14.879485
_cell_length_b 23.455303
_cell_length_c 26.309052
_cell_angle_alpha 90.000000
_cell_angle_beta 90.000000
_cell_angle_gamma 90.000000
_cell_volume 9181.933580
_symmetry_space_group_name_H-M "F M M M"
_symmetry_group_IT_number 69
_symmetry_cell_setting 'orthorhombic'
loop_
_space_group_symop_operation_xyz
x,y,z
-x,-y,z
x,-y,-z
-x,y,-z
-x,-y,-z
x,y,-z
-x,y,z
x,-y,z
x,1/2+y,1/2+z
-x,1/2-y,1/2+z
x,1/2-y,1/2-z
-x,1/2+y,1/2-z
-x,1/2-y,1/2-z
x,1/2+y,1/2-z
-x,1/2+y,1/2+z
x,1/2-y,1/2+z
1/2+x,y,1/2+z
1/2-x,-y,1/2+z
1/2+x,-y,1/2-z
1/2-x,y,1/2-z
1/2-x,-y,1/2-z
1/2+x,y,1/2-z
1/2-x,y,1/2+z
1/2+x,-y,1/2+z
1/2+x,1/2+y,z
1/2-x,1/2-y,z
1/2+x,1/2-y,-z
1/2-x,1/2+y,-z
1/2-x,1/2-y,-z
1/2+x,1/2+y,-z
1/2-x,1/2+y,z
1/2+x,1/2-y,z
loop_
_atom_site_type_symbol
_atom_site_label
_atom_site_fract_x
_atom_site_fract_y
_atom_site_fract_z
Si Si1 0.851069 0.225415 0.943535
Si Si2 0.251547 0.818736 0.690323
Si Si3 0.394809 0.626321 0.122537
Si Si4 0.253693 0.000000 0.000000
Si Si5 0.399796 0.333369 0.391384
Si Si6 0.107128 0.395466 0.000000
Si Si7 0.394723 0.500000 0.088011
O O1 0.750000 0.250000 0.943498
O O2 0.855751 0.160223 0.926288
O O3 0.900414 0.265951 0.903817
O O4 0.888376 0.231623 0.000000
O O5 0.250000 0.831561 0.750000
O O6 0.250000 0.750000 0.684659
O O7 0.342017 0.845697 0.668545
O O8 0.172105 0.842318 0.653476
O O9 0.500000 0.638201 0.124418
O O10 0.383328 0.558693 0.118598
O O11 0.321299 0.053670 0.000000
O O12 0.184234 0.000000 0.953236
O O13 0.500000 0.352281 0.376749
O O14 0.378394 0.361002 0.446932
O O15 0.000000 0.411620 0.000000
O O16 0.500000 0.500000 0.068840
#
# Coordination Sequence:
#
# PCOD9513534 Si02
#       7
#    32  32  32   8  32  16  16
#     4  11  21  32  57  85 120 154 194 231 287 356
#     4  11  23  39  58  87 121 150 196 248 297 361
#     4  11  22  40  59  81 115 156 196 241 294 344
#     4  12  22  36  62  76 126 170 194 226 304 338
#     4  11  20  36  58  86 120 152 192 241 294 351
#     4  10  23  37  59  91 122 154 201 245 285 356
#     4  10  25  39  56  85 116 153 207 247 278 349
#
# _framework density 18.296799
#
# number of rings (size 3 to 8) (size 9 to 14) (size 15 to 20)
#    0.000    1.143    4.762    2.000    1.333    1.905 
#    0.000    2.381    0.000    0.000    0.000    2.667 
#    0.000    0.000    0.000    0.000    0.000    0.000 
#
# Total GULP energy -234271.547993 kJ/mol
# GULP energy per Si atom -5577.894000 kJ/mol
# Density = 1.825516 g / cm^3
# Si number density = 18.296799 Si / 1000 Ang^3
#
#
#
# Elastic Constant Matrix: (Units=GPa)
#
#
# Indices 1 2 3 4 5 6 
#
# 1 116.9045 49.1041 58.1383 0.0000 0.0000 0.0000
# 2 49.1041 109.3753 34.2622 0.0000 0.0000 0.0000
# 3 58.1383 34.2622 127.7126 0.0000 0.0000 0.0000
# 4 0.0000 0.0000 0.0000 4.2349 0.0000 0.0000
# 5 0.0000 0.0000 0.0000 0.0000 8.3301 0.0000
# 6 0.0000 0.0000 0.0000 0.0000 0.0000 31.6533
#
#
#
# Elastic Compliance Matrix: (Units=1/GPa)
#
#
# Indices 1 2 3 4 5 6 
#
# 1 0.012621 -0.004221 -0.004613 0.000000 0.000000 0.000000
# 2 -0.004221 0.011393 -0.001135 0.000000 0.000000 0.000000
# 3 -0.004613 -0.001135 0.010235 0.000000 0.000000 0.000000
# 4 0.000000 0.000000 0.000000 0.236135 0.000000 0.000000
# 5 0.000000 0.000000 0.000000 0.000000 0.120047 0.000000
# 6 0.000000 0.000000 0.000000 0.000000 0.000000 0.031592
#
#
# Mechanical properties :
#
#
# Convention : Reuss Voigt Hill
#
# Bulk Modulus (GPa) = 69.87775 70.77795 70.32785
# Shear Modulus (GPa) = 11.19239 23.00949 17.10094
#
# Velocity S-wave (km/s) = 2.47597 3.55007 3.06051
# Velocity P-wave (km/s) = 6.81528 7.45461 7.14210
#
# Compressibility (1/GPa) = 0.01431071
#
# Stress axis : x y z
#
# Youngs Moduli (GPa) = 79.23178 87.76939 97.70813
#
# Poissons Ratio (x) = 0.37049 0.45073
# Poissons Ratio (y) = 0.33446 0.11090
# Poissons Ratio (z) = 0.36550 0.09962
#
# Static dielectric constant tensor:
#      x y z
#    x 1.670110 0.000000 0.000000 
#    y 0.000000 1.639490 0.000000 
#    z 0.000000 0.000000 1.638910 
# 
# From -- ./inp_files/41019.got.cif
#   From: 2010.05.17/outbox.cif.g08.bks.cpg/sg69_21_cif.got.tgz:41019.got - 2010.06.03 19:29:58.
