data_PCOD9513687
_publ_section_title
;
Structure prediction by ZEFSAII (Michael W. Deem and Ramdas Pophale) SiO2 
 PCOD9513687
Probable space group: F M M M
;
_chemical_formula_sum "Si O2"
_cell_formula_units_Z 176
_cell_length_a 15.982559
_cell_length_b 23.522679
_cell_length_c 24.875525
_cell_angle_alpha 90.000000
_cell_angle_beta 90.000000
_cell_angle_gamma 90.000000
_cell_volume 9352.018423
_symmetry_space_group_name_H-M "F M M M"
_symmetry_group_IT_number 69
_symmetry_cell_setting 'orthorhombic'
loop_
_space_group_symop_operation_xyz
x,y,z
-x,-y,z
x,-y,-z
-x,y,-z
-x,-y,-z
x,y,-z
-x,y,z
x,-y,z
x,1/2+y,1/2+z
-x,1/2-y,1/2+z
x,1/2-y,1/2-z
-x,1/2+y,1/2-z
-x,1/2-y,1/2-z
x,1/2+y,1/2-z
-x,1/2+y,1/2+z
x,1/2-y,1/2+z
1/2+x,y,1/2+z
1/2-x,-y,1/2+z
1/2+x,-y,1/2-z
1/2-x,y,1/2-z
1/2-x,-y,1/2-z
1/2+x,y,1/2-z
1/2-x,y,1/2+z
1/2+x,-y,1/2+z
1/2+x,1/2+y,z
1/2-x,1/2-y,z
1/2+x,1/2-y,-z
1/2-x,1/2+y,-z
1/2-x,1/2-y,-z
1/2+x,1/2+y,-z
1/2-x,1/2+y,z
1/2+x,1/2-y,z
loop_
_atom_site_type_symbol
_atom_site_label
_atom_site_fract_x
_atom_site_fract_y
_atom_site_fract_z
Si Si1 0.648751 0.563456 0.243551
Si Si2 0.399778 0.561659 0.062381
Si Si3 0.404085 0.750135 0.812958
Si Si4 0.126022 0.623099 0.852380
Si Si5 0.500000 0.931262 0.935484
Si Si6 0.676016 0.358112 0.854271
O O1 0.620169 0.500000 0.229688
O O2 0.750000 0.561840 0.250000
O O3 0.610874 0.584168 0.299782
O O4 0.635479 0.608692 0.196539
O O5 0.500000 0.561788 0.065343
O O6 0.370023 0.500000 0.084406
O O7 0.365270 0.614774 0.093823
O O8 0.376167 0.563976 0.000000
O O9 0.500000 0.728964 0.815606
O O10 0.378941 0.750000 0.750000
O O11 0.402093 0.813277 0.837028
O O12 0.344051 0.707525 0.844719
O O13 0.078837 0.596506 0.903566
O O14 0.226003 0.628031 0.857988
O O15 0.500000 0.000000 0.929002
O O16 0.500000 0.919569 0.000000
#
# Coordination Sequence:
#
# PCOD9513687 Si02
#       6
#    32  32  32  32  16  32
#     4   9  18  32  53  85 123 154 187 244 307 359
#     4   9  19  37  58  83 121 159 192 241 299 360
#     4  11  22  38  61  90 128 168 204 244 308 381
#     4  11  22  40  61  88 122 158 204 262 310 365
#     4  11  26  48  69  88 120 170 219 266 320 371
#     4  11  21  34  62  93 121 158 205 249 308 375
#
# _framework density 18.819467
#
# number of rings (size 3 to 8) (size 9 to 14) (size 15 to 20)
#    0.000    1.727    2.727    2.727    0.000    3.636 
#    1.636    2.727    0.000    2.182    0.000    0.000 
#    0.000    0.000    0.000    0.000    0.000    0.000 
#
# Total GULP energy -245612.508912 kJ/mol
# GULP energy per Si atom -5582.102475 kJ/mol
# Density = 1.877663 g / cm^3
# Si number density = 18.819467 Si / 1000 Ang^3
#
#
#
# Elastic Constant Matrix: (Units=GPa)
#
#
# Indices 1 2 3 4 5 6 
#
# 1 52.0242 29.3955 48.6018 0.0000 0.0000 0.0000
# 2 29.3955 123.1396 56.5656 0.0000 0.0000 0.0000
# 3 48.6018 56.5656 109.8663 0.0000 0.0000 0.0000
# 4 0.0000 0.0000 0.0000 58.4588 0.0000 0.0000
# 5 0.0000 0.0000 0.0000 0.0000 25.2486 0.0000
# 6 0.0000 0.0000 0.0000 0.0000 0.0000 53.6638
#
#
#
# Elastic Compliance Matrix: (Units=1/GPa)
#
#
# Indices 1 2 3 4 5 6 
#
# 1 0.032981 -0.001534 -0.013800 0.000000 0.000000 0.000000
# 2 -0.001534 0.010708 -0.004834 0.000000 0.000000 0.000000
# 3 -0.013800 -0.004834 0.017696 0.000000 0.000000 0.000000
# 4 0.000000 0.000000 0.000000 0.017106 0.000000 0.000000
# 5 0.000000 0.000000 0.000000 0.000000 0.039606 0.000000
# 6 0.000000 0.000000 0.000000 0.000000 0.000000 0.018635
#
#
# Mechanical properties :
#
#
# Convention : Reuss Voigt Hill
#
# Bulk Modulus (GPa) = 47.51136 61.57286 54.54211
# Shear Modulus (GPa) = 27.16159 37.50539 32.33349
#
# Velocity S-wave (km/s) = 3.80316 4.46904 4.14948
# Velocity P-wave (km/s) = 6.67728 7.70833 7.21126
#
# Compressibility (1/GPa) = 0.02104760
#
# Stress axis : x y z
#
# Youngs Moduli (GPa) = 30.32077 93.39006 56.51067
#
# Poissons Ratio (x) = 0.14325 0.77985
# Poissons Ratio (y) = 0.04651 0.27320
# Poissons Ratio (z) = 0.41843 0.45149
#
# Static dielectric constant tensor:
#      x y z
#    x 1.682410 0.000000 0.000000 
#    y 0.000000 1.633630 0.000000 
#    z 0.000000 0.000000 1.627630 
# 
# From -- ./inp_files/41093.got.cif
#   From: 2010.05.17/outbox.cif.g08.bks.cpg/sg69_21_cif.got.tgz:41093.got - 2010.06.03 19:29:58.
