data_PCOD9513607
_publ_section_title
;
Structure prediction by ZEFSAII (Michael W. Deem and Ramdas Pophale) SiO2 
 PCOD9513607
Probable space group: F M M M
;
_chemical_formula_sum "Si O2"
_cell_formula_units_Z 208
_cell_length_a 21.687550
_cell_length_b 17.633440
_cell_length_c 28.203184
_cell_angle_alpha 90.000000
_cell_angle_beta 90.000000
_cell_angle_gamma 90.000000
_cell_volume 10785.633994
_symmetry_space_group_name_H-M "F M M M"
_symmetry_group_IT_number 69
_symmetry_cell_setting 'orthorhombic'
loop_
_space_group_symop_operation_xyz
x,y,z
-x,-y,z
x,-y,-z
-x,y,-z
-x,-y,-z
x,y,-z
-x,y,z
x,-y,z
x,1/2+y,1/2+z
-x,1/2-y,1/2+z
x,1/2-y,1/2-z
-x,1/2+y,1/2-z
-x,1/2-y,1/2-z
x,1/2+y,1/2-z
-x,1/2+y,1/2+z
x,1/2-y,1/2+z
1/2+x,y,1/2+z
1/2-x,-y,1/2+z
1/2+x,-y,1/2-z
1/2-x,y,1/2-z
1/2-x,-y,1/2-z
1/2+x,y,1/2-z
1/2-x,y,1/2+z
1/2+x,-y,1/2+z
1/2+x,1/2+y,z
1/2-x,1/2-y,z
1/2+x,1/2-y,-z
1/2-x,1/2+y,-z
1/2-x,1/2-y,-z
1/2+x,1/2+y,-z
1/2-x,1/2+y,z
1/2+x,1/2-y,z
loop_
_atom_site_type_symbol
_atom_site_label
_atom_site_fract_x
_atom_site_fract_y
_atom_site_fract_z
Si Si1 0.071089 0.338360 0.088998
Si Si2 0.928391 0.838627 0.797721
Si Si3 0.104289 0.667210 0.806782
Si Si4 0.843128 0.587772 0.370765
Si Si5 0.320942 0.278152 0.943117
Si Si6 0.741585 0.338687 0.693534
Si Si7 0.070365 0.500000 0.056303
O O1 0.066564 0.343496 0.145714
O O2 0.123523 0.277737 0.074223
O O3 0.096196 0.419766 0.072031
O O4 0.000000 0.324803 0.070756
O O5 0.892452 0.758751 0.800911
O O6 0.919158 0.865047 0.743333
O O7 0.903232 0.891616 0.839161
O O8 0.000000 0.821442 0.804318
O O9 0.172213 0.637817 0.816905
O O10 0.842601 0.500000 0.383892
O O11 0.833842 0.643994 0.414953
O O12 0.788678 0.609353 0.334342
O O13 0.250000 0.250000 0.932914
O O14 0.325358 0.285981 0.000000
O O15 0.750000 0.343634 0.750000
O O16 0.750000 0.250000 0.680277
O O17 0.000000 0.500000 0.074975
O O18 0.068883 0.500000 0.000000
#
# Coordination Sequence:
#
# PCOD9513607 Si02
#       7
#    32  32  32  32  32  32  16
#     4  11  21  39  68  99 131 168 209 260 324 393
#     4  11  21  37  59  90 128 171 214 256 307 366
#     4  11  19  35  63  93 125 163 213 263 311 373
#     4  12  25  41  62  91 129 171 214 264 314 375
#     4  11  25  47  71  95 123 163 218 275 329 388
#     4  11  18  37  63  88 120 164 213 257 311 378
#     4   9  20  38  60  94 133 162 199 257 327 396
#
# _framework density 19.284911000000001
#
# number of rings (size 3 to 8) (size 9 to 14) (size 15 to 20)
#    0.000    1.000    4.615    4.615    0.000    1.846 
#    6.923    0.000    0.000    0.000    0.000    2.154 
#    0.000    0.000    0.000    0.000    0.000    0.000 
#
# Total GULP energy -290128.288088 kJ/mol
# GULP energy per Si atom -5579.390156 kJ/mol
# Density = 1.924102 g / cm^3
# Si number density = 19.284911 Si / 1000 Ang^3
#
#
#
# Elastic Constant Matrix: (Units=GPa)
#
#
# Indices 1 2 3 4 5 6 
#
# 1 90.4622 13.8661 19.8508 0.0000 0.0000 0.0000
# 2 13.8661 118.0119 48.3893 0.0000 0.0000 0.0000
# 3 19.8508 48.3893 125.1935 0.0000 0.0000 0.0000
# 4 0.0000 0.0000 0.0000 7.8753 0.0000 0.0000
# 5 0.0000 0.0000 0.0000 0.0000 26.5642 0.0000
# 6 0.0000 0.0000 0.0000 0.0000 0.0000 12.7549
#
#
#
# Elastic Compliance Matrix: (Units=1/GPa)
#
#
# Indices 1 2 3 4 5 6 
#
# 1 0.011504 -0.000717 -0.001547 0.000000 0.000000 0.000000
# 2 -0.000717 0.010114 -0.003796 0.000000 0.000000 0.000000
# 3 -0.001547 -0.003796 0.009700 0.000000 0.000000 0.000000
# 4 0.000000 0.000000 0.000000 0.126980 0.000000 0.000000
# 5 0.000000 0.000000 0.000000 0.000000 0.037645 0.000000
# 6 0.000000 0.000000 0.000000 0.000000 0.000000 0.078402
#
#
# Mechanical properties :
#
#
# Convention : Reuss Voigt Hill
#
# Bulk Modulus (GPa) = 52.08749 55.32000 53.70375
# Shear Modulus (GPa) = 17.07283 26.20963 21.64123
#
# Velocity S-wave (km/s) = 2.97862 3.69056 3.35354
# Velocity P-wave (km/s) = 6.23680 6.84896 6.55003
#
# Compressibility (1/GPa) = 0.01919847
#
# Stress axis : x y z
#
# Youngs Moduli (GPa) = 86.92843 98.86931 103.09334
#
# Poissons Ratio (x) = 0.07093 0.15946
# Poissons Ratio (y) = 0.06237 0.39130
# Poissons Ratio (z) = 0.13446 0.37527
#
# Static dielectric constant tensor:
#      x y z
#    x 1.687790 0.000000 0.000000 
#    y 0.000000 1.658250 0.000000 
#    z 0.000000 0.000000 1.696600 
# 
# From -- ./inp_files/42724.got.cif
#   From: 2010.05.17/outbox.cif.g08.bks.cpg/sg69_22_cif.got.tgz:42724.got - 2010.06.03 19:29:58.
