data_PCOD9513330
_publ_section_title
;
Structure prediction by ZEFSAII (Michael W. Deem and Ramdas Pophale) SiO2 
 PCOD9513330
Probable space group: F M M M
;
_chemical_formula_sum "Si O2"
_cell_formula_units_Z 112
_cell_length_a 10.562591
_cell_length_b 21.925798
_cell_length_c 30.077852
_cell_angle_alpha 90.000000
_cell_angle_beta 90.000000
_cell_angle_gamma 90.000000
_cell_volume 6965.827095
_symmetry_space_group_name_H-M "F M M M"
_symmetry_group_IT_number 69
_symmetry_cell_setting 'orthorhombic'
loop_
_space_group_symop_operation_xyz
x,y,z
-x,-y,z
x,-y,-z
-x,y,-z
-x,-y,-z
x,y,-z
-x,y,z
x,-y,z
x,1/2+y,1/2+z
-x,1/2-y,1/2+z
x,1/2-y,1/2-z
-x,1/2+y,1/2-z
-x,1/2-y,1/2-z
x,1/2+y,1/2-z
-x,1/2+y,1/2+z
x,1/2-y,1/2+z
1/2+x,y,1/2+z
1/2-x,-y,1/2+z
1/2+x,-y,1/2-z
1/2-x,y,1/2-z
1/2-x,-y,1/2-z
1/2+x,y,1/2-z
1/2-x,y,1/2+z
1/2+x,-y,1/2+z
1/2+x,1/2+y,z
1/2-x,1/2-y,z
1/2+x,1/2-y,-z
1/2-x,1/2+y,-z
1/2-x,1/2-y,-z
1/2+x,1/2+y,-z
1/2-x,1/2+y,z
1/2+x,1/2-y,z
loop_
_atom_site_type_symbol
_atom_site_label
_atom_site_fract_x
_atom_site_fract_y
_atom_site_fract_z
Si Si1 0.000000 0.566347 0.656848
Si Si2 0.000000 0.794146 0.447793
Si Si3 0.230252 0.613029 0.949302
Si Si4 0.714184 0.000000 0.698951
Si Si5 0.350693 0.500000 0.390915
Si Si6 0.500000 0.660316 0.920842
O O1 0.876311 0.557633 0.687107
O O2 0.000000 0.623957 0.625682
O O3 0.000000 0.500000 0.630405
O O4 0.124471 0.835274 0.440637
O O5 0.000000 0.733261 0.418877
O O6 0.000000 0.775432 0.500000
O O7 0.209861 0.558948 0.914383
O O8 0.371034 0.639603 0.944863
O O9 0.209661 0.591086 0.000000
O O10 0.750000 0.000000 0.750000
O O11 0.822425 0.000000 0.661660
O O12 0.500000 0.500000 0.399600
#
# Coordination Sequence:
#
# PCOD9513330 Si02
#       6
#    16  16  32  16  16  16
#     4   8  18  34  54  82 112 128 170 233 274 324
#     4  10  22  37  52  77 113 159 203 225 257 317
#     4  11  22  36  54  80 115 154 190 228 272 321
#     4   9  19  37  56  82 107 131 170 227 293 342
#     4  12  22  35  56  82 111 143 182 231 286 341
#     4  12  20  36  56  80 115 147 189 231 265 318
#
# _framework density 16.078493000000002
#
# number of rings (size 3 to 8) (size 9 to 14) (size 15 to 20)
#    0.857    0.571    4.286    2.571    2.000    2.857 
#    0.000    1.429    0.000    0.000    0.000    6.000 
#    0.000    0.000    0.000    0.000    0.000    0.000 
#
# Total GULP energy -156021.269335 kJ/mol
# GULP energy per Si atom -5572.188191 kJ/mol
# Density = 1.604190 g / cm^3
# Si number density = 16.078493 Si / 1000 Ang^3
#
#
#
# Elastic Constant Matrix: (Units=GPa)
#
#
# Indices 1 2 3 4 5 6 
#
# 1 115.9160 36.4471 25.7721 0.0000 0.0000 0.0000
# 2 36.4471 94.6352 56.9183 0.0000 0.0000 0.0000
# 3 25.7721 56.9183 109.6370 0.0000 0.0000 0.0000
# 4 0.0000 0.0000 0.0000 13.2368 0.0000 0.0000
# 5 0.0000 0.0000 0.0000 0.0000 15.2274 0.0000
# 6 0.0000 0.0000 0.0000 0.0000 0.0000 11.0639
#
#
#
# Elastic Compliance Matrix: (Units=1/GPa)
#
#
# Indices 1 2 3 4 5 6 
#
# 1 0.009835 -0.003486 -0.000502 0.000000 0.000000 0.000000
# 2 -0.003486 0.016600 -0.007798 0.000000 0.000000 0.000000
# 3 -0.000502 -0.007798 0.013288 0.000000 0.000000 0.000000
# 4 0.000000 0.000000 0.000000 0.075547 0.000000 0.000000
# 5 0.000000 0.000000 0.000000 0.000000 0.065671 0.000000
# 6 0.000000 0.000000 0.000000 0.000000 0.000000 0.090384
#
#
# Mechanical properties :
#
#
# Convention : Reuss Voigt Hill
#
# Bulk Modulus (GPa) = 61.92168 62.05147 61.98658
# Shear Modulus (GPa) = 16.65116 21.30901 18.98009
#
# Velocity S-wave (km/s) = 3.22159 3.64443 3.43952
# Velocity P-wave (km/s) = 7.24113 7.50905 7.37630
#
# Compressibility (1/GPa) = 0.01614943
#
# Stress axis : x y z
#
# Youngs Moduli (GPa) = 101.68235 60.24234 75.25803
#
# Poissons Ratio (x) = 0.20998 0.03780
# Poissons Ratio (y) = 0.35442 0.58689
# Poissons Ratio (z) = 0.05107 0.46979
#
# Static dielectric constant tensor:
#      x y z
#    x 1.576030 0.000000 0.000000 
#    y 0.000000 1.522610 0.000000 
#    z 0.000000 0.000000 1.520030 
# 
# From -- ./inp_files/44321.got.cif
#   From: 2010.05.17/outbox.cif.g08.bks.cpg/sg69_23_cif.got.tgz:44321.got - 2010.06.03 19:29:58.
