data_PCOD9513737
_publ_section_title
;
Structure prediction by ZEFSAII (Michael W. Deem and Ramdas Pophale) SiO2 
 PCOD9513737
Probable space group: F M M M
;
_chemical_formula_sum "Si O2"
_cell_formula_units_Z 160
_cell_length_a 17.823174
_cell_length_b 23.142120
_cell_length_c 20.237068
_cell_angle_alpha 90.000000
_cell_angle_beta 90.000000
_cell_angle_gamma 90.000000
_cell_volume 8347.103127
_symmetry_space_group_name_H-M "F M M M"
_symmetry_group_IT_number 69
_symmetry_cell_setting 'orthorhombic'
loop_
_space_group_symop_operation_xyz
x,y,z
-x,-y,z
x,-y,-z
-x,y,-z
-x,-y,-z
x,y,-z
-x,y,z
x,-y,z
x,1/2+y,1/2+z
-x,1/2-y,1/2+z
x,1/2-y,1/2-z
-x,1/2+y,1/2-z
-x,1/2-y,1/2-z
x,1/2+y,1/2-z
-x,1/2+y,1/2+z
x,1/2-y,1/2+z
1/2+x,y,1/2+z
1/2-x,-y,1/2+z
1/2+x,-y,1/2-z
1/2-x,y,1/2-z
1/2-x,-y,1/2-z
1/2+x,y,1/2-z
1/2-x,y,1/2+z
1/2+x,-y,1/2+z
1/2+x,1/2+y,z
1/2-x,1/2-y,z
1/2+x,1/2-y,-z
1/2-x,1/2+y,-z
1/2-x,1/2-y,-z
1/2+x,1/2+y,-z
1/2-x,1/2+y,z
1/2+x,1/2-y,z
loop_
_atom_site_type_symbol
_atom_site_label
_atom_site_fract_x
_atom_site_fract_y
_atom_site_fract_z
Si Si1 0.682502 0.296829 0.500000
Si Si2 0.913946 0.183684 0.262414
Si Si3 0.691023 0.124135 0.130010
Si Si4 0.189352 0.500000 0.923708
Si Si5 0.367210 0.622776 0.131614
Si Si6 0.088391 0.189665 0.000000
Si Si7 0.872172 0.000000 0.076355
O O1 0.750000 0.250000 0.500000
O O2 0.686518 0.336928 0.435817
O O3 0.608914 0.257020 0.500000
O O4 0.890629 0.250000 0.250000
O O5 0.859372 0.152815 0.313948
O O6 0.909389 0.150991 0.192650
O O7 0.000000 0.184122 0.286629
O O8 0.666340 0.058931 0.112277
O O9 0.778820 0.121495 0.149092
O O10 0.280766 0.500000 0.925536
O O11 0.164177 0.500000 0.000000
O O12 0.377482 0.660263 0.065273
O O13 0.394175 0.558482 0.113278
O O14 0.000000 0.180054 0.000000
O O15 0.897853 0.000000 0.000000
#
# Coordination Sequence:
#
# PCOD9513737 Si02
#       7
#    16  32  32  16  32  16  16
#     4  12  22  37  63  99 121 157 221 265 299 373
#     4  11  26  44  60  86 130 173 210 262 327 382
#     4  11  22  39  68  94 124 163 215 266 311 378
#     4   9  18  37  63  95 126 157 202 269 323 359
#     4  11  21  40  64  93 125 164 211 255 311 383
#     4  12  24  37  60  93 132 164 198 259 326 371
#     4   9  18  35  64  96 127 160 204 262 316 374
#
# _framework density 19.168327000000001
#
# number of rings (size 3 to 8) (size 9 to 14) (size 15 to 20)
#    0.000    1.200    4.000    2.400    0.000    4.000 
#    0.000    7.000    0.000    0.600    0.000    0.000 
#    0.000    0.000    0.000    0.000    0.000    0.000 
#
# Total GULP energy -223611.475240 kJ/mol
# GULP energy per Si atom -5590.286881 kJ/mol
# Density = 1.912470 g / cm^3
# Si number density = 19.168327 Si / 1000 Ang^3
#
#
#
# Elastic Constant Matrix: (Units=GPa)
#
#
# Indices 1 2 3 4 5 6 
#
# 1 66.9987 35.4247 31.3617 0.0000 0.0000 0.0000
# 2 35.4247 173.3018 60.5314 0.0000 0.0000 0.0000
# 3 31.3617 60.5314 106.1134 0.0000 0.0000 0.0000
# 4 0.0000 0.0000 0.0000 36.2362 0.0000 0.0000
# 5 0.0000 0.0000 0.0000 0.0000 -0.1900 0.0000
# 6 0.0000 0.0000 0.0000 0.0000 0.0000 -9.9724
#
#
#
# Elastic Compliance Matrix: (Units=1/GPa)
#
#
# Indices 1 2 3 4 5 6 
#
# 1 0.018013 -0.002276 -0.004025 0.000000 0.000000 0.000000
# 2 -0.002276 0.007494 -0.003602 0.000000 0.000000 0.000000
# 3 -0.004025 -0.003602 0.012668 0.000000 0.000000 0.000000
# 4 0.000000 0.000000 0.000000 0.027597 0.000000 0.000000
# 5 0.000000 0.000000 0.000000 0.000000 -5.262289 0.000000
# 6 0.000000 0.000000 0.000000 0.000000 0.000000 -0.100277
#
#
# Mechanical properties :
#
#
# Convention : Reuss Voigt Hill
#
# Bulk Modulus (GPa) = 54.44167 66.78328 60.61248
# Shear Modulus (GPa) = -0.94861 19.82116 9.43627
#
# Velocity S-wave (km/s) = -0.70424 3.21917 2.22116
# Velocity P-wave (km/s) = 5.27279 6.98093 6.18610
#
# Compressibility (1/GPa) = 0.01836828
#
# Stress axis : x y z
#
# Youngs Moduli (GPa) = 55.51423 133.44623 78.93704
#
# Poissons Ratio (x) = 0.30374 0.31776
# Poissons Ratio (y) = 0.12636 0.28433
# Poissons Ratio (z) = 0.22347 0.48067
#
# Static dielectric constant tensor:
#      x y z
#    x 1.672670 0.000000 0.000000 
#    y 0.000000 1.656410 0.000000 
#    z 0.000000 0.000000 1.630150 
# 
# From -- ./inp_files/24705.got.cif
#   From: 2010.05.17/outbox.cif.g08.bks.cpg/sg69_13_cif.got.tgz:24705.got - 2010.06.03 19:29:58.
