data_PCOD9513010
_publ_section_title
;
Structure prediction by ZEFSAII (Michael W. Deem and Ramdas Pophale) SiO2 
 PCOD9513010
Probable space group: F M M M
;
_chemical_formula_sum "Si O2"
_cell_formula_units_Z 176
_cell_length_a 23.042092
_cell_length_b 18.006290
_cell_length_c 19.100596
_cell_angle_alpha 90.000000
_cell_angle_beta 90.000000
_cell_angle_gamma 90.000000
_cell_volume 7924.886765
_symmetry_space_group_name_H-M "F M M M"
_symmetry_group_IT_number 69
_symmetry_cell_setting 'orthorhombic'
loop_
_space_group_symop_operation_xyz
x,y,z
-x,-y,z
x,-y,-z
-x,y,-z
-x,-y,-z
x,y,-z
-x,y,z
x,-y,z
x,1/2+y,1/2+z
-x,1/2-y,1/2+z
x,1/2-y,1/2-z
-x,1/2+y,1/2-z
-x,1/2-y,1/2-z
x,1/2+y,1/2-z
-x,1/2+y,1/2+z
x,1/2-y,1/2+z
1/2+x,y,1/2+z
1/2-x,-y,1/2+z
1/2+x,-y,1/2-z
1/2-x,y,1/2-z
1/2-x,-y,1/2-z
1/2+x,y,1/2-z
1/2-x,y,1/2+z
1/2+x,-y,1/2+z
1/2+x,1/2+y,z
1/2-x,1/2-y,z
1/2+x,1/2-y,-z
1/2-x,1/2+y,-z
1/2-x,1/2-y,-z
1/2+x,1/2+y,-z
1/2-x,1/2+y,z
1/2+x,1/2-y,z
loop_
_atom_site_type_symbol
_atom_site_label
_atom_site_fract_x
_atom_site_fract_y
_atom_site_fract_z
Si Si1 0.188740 0.415588 0.288634
Si Si2 0.000000 0.085109 0.584885
Si Si3 0.259117 0.411570 0.421927
Si Si4 0.397861 0.299467 0.190840
Si Si5 0.068849 0.583711 0.423512
Si Si6 0.380070 0.169973 0.084238
O O1 0.165353 0.500000 0.280356
O O2 0.250000 0.415294 0.250000
O O3 0.206830 0.398382 0.368750
O O4 0.149811 0.346755 0.266035
O O5 0.940038 0.126941 0.603858
O O6 0.000000 0.082331 0.500000
O O7 0.000000 0.000000 0.610723
O O8 0.244046 0.386521 0.500000
O O9 0.268005 0.500000 0.421613
O O10 0.321187 0.376317 0.403232
O O11 0.429513 0.250000 0.250000
O O12 0.424398 0.364836 0.143868
O O13 0.376844 0.242998 0.131110
O O14 0.090243 0.611928 0.500000
O O15 0.092656 0.500000 0.414214
O O16 0.000000 0.577155 0.430239
O O17 0.383207 0.184145 0.000000
#
# Coordination Sequence:
#
# PCOD9513010 Si02
#       6
#    32  16  32  32  32  32
#     4  10  22  41  62  82 112 162 214 249 295 371
#     4   9  18  36  61  84 111 153 203 242 280 354
#     4   9  18  34  57  84 114 149 198 260 312 359
#     4  12  25  38  58  90 129 162 196 254 320 379
#     4   9  20  42  70  93 118 162 215 262 309 368
#     4  10  21  36  57  86 118 158 203 253 314 375
#
# _framework density 22.208518000000002
#
# number of rings (size 3 to 8) (size 9 to 14) (size 15 to 20)
#    0.000    2.091    0.000    3.273    1.273    6.545 
#    0.000    6.364    0.000    0.000    0.000    0.000 
#    0.000    0.000    0.000    0.000    0.000    0.000 
#
# Total GULP energy -245390.800912 kJ/mol
# GULP energy per Si atom -5577.063657 kJ/mol
# Density = 2.215797 g / cm^3
# Si number density = 22.208518 Si / 1000 Ang^3
#
#
#
# Elastic Constant Matrix: (Units=GPa)
#
#
# Indices 1 2 3 4 5 6 
#
# 1 50.0637 31.6889 1.7981 0.0000 0.0000 0.0000
# 2 31.6889 107.2931 40.7183 0.0000 0.0000 0.0000
# 3 1.7981 40.7183 90.0866 0.0000 0.0000 0.0000
# 4 0.0000 0.0000 0.0000 36.0093 0.0000 0.0000
# 5 0.0000 0.0000 0.0000 0.0000 24.4779 0.0000
# 6 0.0000 0.0000 0.0000 0.0000 0.0000 113.7241
#
#
#
# Elastic Compliance Matrix: (Units=1/GPa)
#
#
# Indices 1 2 3 4 5 6 
#
# 1 0.025443 -0.008838 0.003487 0.000000 0.000000 0.000000
# 2 -0.008838 0.014320 -0.006296 0.000000 0.000000 0.000000
# 3 0.003487 -0.006296 0.013877 0.000000 0.000000 0.000000
# 4 0.000000 0.000000 0.000000 0.027771 0.000000 0.000000
# 5 0.000000 0.000000 0.000000 0.000000 0.040853 0.000000
# 6 0.000000 0.000000 0.000000 0.000000 0.000000 0.008793
#
#
# Mechanical properties :
#
#
# Convention : Reuss Voigt Hill
#
# Bulk Modulus (GPa) = 32.95372 43.98379 38.46876
# Shear Modulus (GPa) = 30.40130 46.39146 38.39638
#
# Velocity S-wave (km/s) = 3.70388 4.57541 4.16252
# Velocity P-wave (km/s) = 5.75866 6.91089 6.36092
#
# Compressibility (1/GPa) = 0.03034559
#
# Stress axis : x y z
#
# Youngs Moduli (GPa) = 39.30279 69.83270 72.06381
#
# Poissons Ratio (x) = 0.61718 -0.25127
# Poissons Ratio (y) = 0.34736 0.45372
# Poissons Ratio (z) = -0.13704 0.43967
#
# Static dielectric constant tensor:
#      x y z
#    x 1.842310 0.000000 0.000000 
#    y 0.000000 1.788900 0.000000 
#    z 0.000000 0.000000 1.921110 
# 
# From -- ./inp_files/26724.got.cif
#   From: 2010.05.17/outbox.cif.g08.bks.cpg/sg69_14_cif.got.tgz:26724.got - 2010.06.03 19:29:58.
