data_PCOD9513844
_publ_section_title
;
Structure prediction by ZEFSAII (Michael W. Deem and Ramdas Pophale) SiO2 
 PCOD9513844
Probable space group: F M M M
;
_chemical_formula_sum "Si O2"
_cell_formula_units_Z 104
_cell_length_a 7.555850
_cell_length_b 21.572258
_cell_length_c 29.036356
_cell_angle_alpha 90.000000
_cell_angle_beta 90.000000
_cell_angle_gamma 90.000000
_cell_volume 4732.831532
_symmetry_space_group_name_H-M "F M M M"
_symmetry_group_IT_number 69
_symmetry_cell_setting 'orthorhombic'
loop_
_space_group_symop_operation_xyz
x,y,z
-x,-y,z
x,-y,-z
-x,y,-z
-x,-y,-z
x,y,-z
-x,y,z
x,-y,z
x,1/2+y,1/2+z
-x,1/2-y,1/2+z
x,1/2-y,1/2-z
-x,1/2+y,1/2-z
-x,1/2-y,1/2-z
x,1/2+y,1/2-z
-x,1/2+y,1/2+z
x,1/2-y,1/2+z
1/2+x,y,1/2+z
1/2-x,-y,1/2+z
1/2+x,-y,1/2-z
1/2-x,y,1/2-z
1/2-x,-y,1/2-z
1/2+x,y,1/2-z
1/2-x,y,1/2+z
1/2+x,-y,1/2+z
1/2+x,1/2+y,z
1/2-x,1/2-y,z
1/2+x,1/2-y,-z
1/2-x,1/2+y,-z
1/2-x,1/2-y,-z
1/2+x,1/2+y,-z
1/2-x,1/2+y,z
1/2+x,1/2-y,z
loop_
_atom_site_type_symbol
_atom_site_label
_atom_site_fract_x
_atom_site_fract_y
_atom_site_fract_z
Si Si1 0.789473 0.680249 0.618142
Si Si2 0.215828 0.068945 0.946318
Si Si3 0.500000 0.000000 0.671467
Si Si4 0.200753 0.900448 0.696551
O O1 0.750000 0.750000 0.603397
O O2 0.721751 0.626788 0.583511
O O3 0.712764 0.662984 0.667921
O O4 0.000000 0.674703 0.620340
O O5 0.000000 0.068264 0.944015
O O6 0.272493 0.000000 0.930612
O O7 0.263510 0.075531 0.000000
O O8 0.655461 0.053681 0.674516
O O9 0.250000 0.893631 0.750000
O O10 0.000000 0.924318 0.694085
#
# Coordination Sequence:
#
# PCOD9513844 Si02
#       4
#    32  32   8  32
#     4  11  23  40  62  91 130 175 225 271 325 392
#     4   8  16  33  60  92 125 165 214 271 333 390
#     4  12  24  44  66 100 137 168 213 278 322 390
#     4  12  25  42  66  99 133 174 216 269 325 388
#
# _framework density 21.974159
#
# number of rings (size 3 to 8) (size 9 to 14) (size 15 to 20)
#    0.000    1.538    3.077    2.769    2.154    1.231 
#    0.000    3.077    0.000    2.769    0.000    8.615 
#    0.000    0.000    0.000    0.000    0.000    0.000 
#
# Total GULP energy -144843.498154 kJ/mol
# GULP energy per Si atom -5570.903775 kJ/mol
# Density = 2.192415 g / cm^3
# Si number density = 21.974159 Si / 1000 Ang^3
#
#
#
# Elastic Constant Matrix: (Units=GPa)
#
#
# Indices 1 2 3 4 5 6 
#
# 1 148.4756 30.7890 25.2509 0.0000 0.0000 0.0000
# 2 30.7890 186.2867 68.0123 0.0000 0.0000 0.0000
# 3 25.2509 68.0123 59.2428 0.0000 0.0000 0.0000
# 4 0.0000 0.0000 0.0000 93.9925 0.0000 0.0000
# 5 0.0000 0.0000 0.0000 0.0000 -0.4307 0.0000
# 6 0.0000 0.0000 0.0000 0.0000 0.0000 35.0645
#
#
#
# Elastic Compliance Matrix: (Units=1/GPa)
#
#
# Indices 1 2 3 4 5 6 
#
# 1 0.007263 -0.000121 -0.002957 0.000000 0.000000 0.000000
# 2 -0.000121 0.009244 -0.010560 0.000000 0.000000 0.000000
# 3 -0.002957 -0.010560 0.030264 0.000000 0.000000 0.000000
# 4 0.000000 0.000000 0.000000 0.010639 0.000000 0.000000
# 5 0.000000 0.000000 0.000000 0.000000 -2.322051 0.000000
# 6 0.000000 0.000000 0.000000 0.000000 0.000000 0.028519
#
#
# Mechanical properties :
#
#
# Convention : Reuss Voigt Hill
#
# Bulk Modulus (GPa) = 51.29818 71.34551 61.32184
# Shear Modulus (GPa) = -2.27030 43.72214 20.72592
#
# Velocity S-wave (km/s) = -1.01755 4.46545 3.07448
# Velocity P-wave (km/s) = 4.69200 7.68931 6.36947
#
# Compressibility (1/GPa) = 0.01949387
#
# Stress axis : x y z
#
# Youngs Moduli (GPa) = 137.68303 108.18315 33.04293
#
# Poissons Ratio (x) = 0.01307 0.09771
# Poissons Ratio (y) = 0.01664 0.34895
# Poissons Ratio (z) = 0.40713 1.14246
#
# Static dielectric constant tensor:
#      x y z
#    x 1.822220 0.000000 0.000000 
#    y 0.000000 1.805250 0.000000 
#    z 0.000000 0.000000 1.835450 
# 
# From -- ./inp_files/34549.got.cif
#   From: 2010.05.17/outbox.cif.g08.bks.cpg/sg69_18_cif.got.tgz:34549.got - 2010.06.03 19:29:58.
