data_PCOD9513899
_publ_section_title
;
Structure prediction by ZEFSAII (Michael W. Deem and Ramdas Pophale) SiO2 
 PCOD9513899
Probable space group: F M M M
;
_chemical_formula_sum "Si O2"
_cell_formula_units_Z 128
_cell_length_a 18.089117
_cell_length_b 15.350609
_cell_length_c 21.858176
_cell_angle_alpha 90.000000
_cell_angle_beta 90.000000
_cell_angle_gamma 90.000000
_cell_volume 6069.555628
_symmetry_space_group_name_H-M "F M M M"
_symmetry_group_IT_number 69
_symmetry_cell_setting 'orthorhombic'
loop_
_space_group_symop_operation_xyz
x,y,z
-x,-y,z
x,-y,-z
-x,y,-z
-x,-y,-z
x,y,-z
-x,y,z
x,-y,z
x,1/2+y,1/2+z
-x,1/2-y,1/2+z
x,1/2-y,1/2-z
-x,1/2+y,1/2-z
-x,1/2-y,1/2-z
x,1/2+y,1/2-z
-x,1/2+y,1/2+z
x,1/2-y,1/2+z
1/2+x,y,1/2+z
1/2-x,-y,1/2+z
1/2+x,-y,1/2-z
1/2-x,y,1/2-z
1/2-x,-y,1/2-z
1/2+x,y,1/2-z
1/2-x,y,1/2+z
1/2+x,-y,1/2+z
1/2+x,1/2+y,z
1/2-x,1/2-y,z
1/2+x,1/2-y,-z
1/2-x,1/2+y,-z
1/2-x,1/2-y,-z
1/2+x,1/2+y,-z
1/2-x,1/2+y,z
1/2+x,1/2-y,z
loop_
_atom_site_type_symbol
_atom_site_label
_atom_site_fract_x
_atom_site_fract_y
_atom_site_fract_z
Si Si1 0.410198 0.098505 0.000000
Si Si2 0.337086 0.395621 0.070088
Si Si3 0.000000 0.900032 0.074132
Si Si4 0.916601 0.893992 0.368825
Si Si5 0.232412 0.351400 0.184020
O O1 0.392040 0.140321 0.064190
O O2 0.500000 0.091524 0.000000
O O3 0.379020 0.000000 0.000000
O O4 0.345620 0.500000 0.064871
O O5 0.419237 0.360870 0.089402
O O6 0.277320 0.382249 0.123744
O O7 0.318633 0.364975 0.000000
O O8 0.000000 0.000000 0.097551
O O9 0.000000 0.902735 0.000000
O O10 0.854462 0.865231 0.323513
O O11 0.000000 0.866257 0.355522
O O12 0.917345 0.000000 0.372848
O O13 0.250000 0.392347 0.250000
O O14 0.250000 0.250000 0.186814
#
# Coordination Sequence:
#
# PCOD9513899 Si02
#       5
#    16  32  16  32  32
#     4   7  12  26  53  86 112 135 169 225 290 338
#     4   9  18  35  62  89 112 144 188 242 293 338
#     4   7  12  28  54  85 114 136 172 227 286 341
#     4   9  18  36  62  87 112 145 190 243 292 341
#     4  11  25  42  53  78 120 162 196 232 285 343
#
# _framework density 21.088858999999999
#
# number of rings (size 3 to 8) (size 9 to 14) (size 15 to 20)
#    0.000    3.000    0.000    3.750    1.750    2.500 
#    4.500    1.250    0.000    0.000    0.000    0.000 
#    0.000    0.000    0.000    0.000    0.000    0.000 
#
# Total GULP energy -178172.903963 kJ/mol
# GULP energy per Si atom -5567.903249 kJ/mol
# Density = 2.104086 g / cm^3
# Si number density = 21.088859 Si / 1000 Ang^3
#
#
#
# Elastic Constant Matrix: (Units=GPa)
#
#
# Indices 1 2 3 4 5 6 
#
# 1 146.5670 10.4434 82.3478 0.0000 0.0000 0.0000
# 2 10.4434 28.6877 8.5197 0.0000 0.0000 0.0000
# 3 82.3478 8.5197 126.1472 0.0000 0.0000 0.0000
# 4 0.0000 0.0000 0.0000 15.1017 0.0000 0.0000
# 5 0.0000 0.0000 0.0000 0.0000 41.0659 0.0000
# 6 0.0000 0.0000 0.0000 0.0000 0.0000 226.8838
#
#
#
# Elastic Compliance Matrix: (Units=1/GPa)
#
#
# Indices 1 2 3 4 5 6 
#
# 1 0.010874 -0.001888 -0.006971 0.000000 0.000000 0.000000
# 2 -0.001888 0.035900 -0.001192 0.000000 0.000000 0.000000
# 3 -0.006971 -0.001192 0.012558 0.000000 0.000000 0.000000
# 4 0.000000 0.000000 0.000000 0.066217 0.000000 0.000000
# 5 0.000000 0.000000 0.000000 0.000000 0.024351 0.000000
# 6 0.000000 0.000000 0.000000 0.000000 0.000000 0.004408
#
#
# Mechanical properties :
#
#
# Convention : Reuss Voigt Hill
#
# Bulk Modulus (GPa) = 25.49098 56.00263 40.74680
# Shear Modulus (GPa) = 26.66859 69.94969 48.30914
#
# Velocity S-wave (km/s) = 3.55995 5.76550 4.79136
# Velocity P-wave (km/s) = 5.38622 8.42227 7.06916
#
# Compressibility (1/GPa) = 0.03922957
#
# Stress axis : x y z
#
# Youngs Moduli (GPa) = 91.96328 27.85551 79.62890
#
# Poissons Ratio (x) = 0.05260 0.55508
# Poissons Ratio (y) = 0.17366 0.09491
# Poissons Ratio (z) = 0.64106 0.03320
#
# Static dielectric constant tensor:
#      x y z
#    x 1.785800 0.000000 0.000000 
#    y 0.000000 1.781240 0.000000 
#    z 0.000000 0.000000 1.801990 
# 
# From -- ./inp_files/30675.got.cif
#   From: 2010.05.17/outbox.cif.g08.bks.cpg/sg69_16_cif.got.tgz:30675.got - 2010.06.03 19:29:58.
