data_PCOD9513485
_publ_section_title
;
Structure prediction by ZEFSAII (Michael W. Deem and Ramdas Pophale) SiO2 
 PCOD9513485
Probable space group: F M M M
;
_chemical_formula_sum "Si O2"
_cell_formula_units_Z 176
_cell_length_a 25.125403
_cell_length_b 27.193001
_cell_length_c 14.974882
_cell_angle_alpha 90.000000
_cell_angle_beta 90.000000
_cell_angle_gamma 90.000000
_cell_volume 10231.365134
_symmetry_space_group_name_H-M "F M M M"
_symmetry_group_IT_number 69
_symmetry_cell_setting 'orthorhombic'
loop_
_space_group_symop_operation_xyz
x,y,z
-x,-y,z
x,-y,-z
-x,y,-z
-x,-y,-z
x,y,-z
-x,y,z
x,-y,z
x,1/2+y,1/2+z
-x,1/2-y,1/2+z
x,1/2-y,1/2-z
-x,1/2+y,1/2-z
-x,1/2-y,1/2-z
x,1/2+y,1/2-z
-x,1/2+y,1/2+z
x,1/2-y,1/2+z
1/2+x,y,1/2+z
1/2-x,-y,1/2+z
1/2+x,-y,1/2-z
1/2-x,y,1/2-z
1/2-x,-y,1/2-z
1/2+x,y,1/2-z
1/2-x,y,1/2+z
1/2+x,-y,1/2+z
1/2+x,1/2+y,z
1/2-x,1/2-y,z
1/2+x,1/2-y,-z
1/2-x,1/2+y,-z
1/2-x,1/2-y,-z
1/2+x,1/2+y,-z
1/2-x,1/2+y,z
1/2+x,1/2-y,z
loop_
_atom_site_type_symbol
_atom_site_label
_atom_site_fract_x
_atom_site_fract_y
_atom_site_fract_z
Si Si1 0.313537 0.808853 0.500000
Si Si2 0.141757 0.113814 0.864735
Si Si3 0.249536 0.056768 0.107137
Si Si4 0.814457 0.807096 0.500000
Si Si5 0.345874 0.623464 0.660166
Si Si6 0.058197 0.444997 0.893336
Si Si7 0.935719 0.440464 0.500000
O O1 0.339041 0.838124 0.417983
O O2 0.249533 0.815224 0.500000
O O3 0.324592 0.751050 0.500000
O O4 0.190137 0.074864 0.873423
O O5 0.138420 0.131255 0.762800
O O6 0.092200 0.086988 0.914681
O O7 0.291679 0.091800 0.154971
O O8 0.257091 0.000000 0.132142
O O9 0.258533 0.060963 0.000000
O O10 0.837332 0.832306 0.410054
O O11 0.393666 0.590062 0.625702
O O12 0.068022 0.500000 0.857593
O O13 0.000000 0.428350 0.860423
O O14 0.054949 0.448669 0.000000
O O15 0.924476 0.500000 0.500000
O O16 0.000000 0.434704 0.500000
#
# Coordination Sequence:
#
# PCOD9513485 Si02
#       7
#    16  32  32  16  32  32  16
#     4  10  22  42  57  79 113 150 193 240 295 349
#     4  11  22  37  58  83 115 148 189 245 290 340
#     4  11  20  33  53  79 117 156 186 222 281 350
#     4  11  22  38  61  82 112 150 189 239 296 362
#     4  12  21  34  56  87 116 148 191 234 291 349
#     4   9  18  33  52  77 115 156 187 219 264 326
#     4  10  22  42  64  86 117 162 207 241 277 329
#
# _framework density 17.202005
#
# number of rings (size 3 to 8) (size 9 to 14) (size 15 to 20)
#    0.000    1.364    5.455    2.182    0.000    6.545 
#    0.000    3.636    0.000    4.364    0.000    6.364 
#    0.000    0.000    0.000    0.000    0.000    0.000 
#
# Total GULP energy -245346.159351 kJ/mol
# GULP energy per Si atom -5576.049076 kJ/mol
# Density = 1.716285 g / cm^3
# Si number density = 17.202005 Si / 1000 Ang^3
#
#
#
# Elastic Constant Matrix: (Units=GPa)
#
#
# Indices 1 2 3 4 5 6 
#
# 1 94.6123 34.3163 24.9914 0.0000 0.0000 0.0000
# 2 34.3163 92.3128 35.3121 0.0000 0.0000 0.0000
# 3 24.9914 35.3121 116.6736 0.0000 0.0000 0.0000
# 4 0.0000 0.0000 0.0000 -7.0895 0.0000 0.0000
# 5 0.0000 0.0000 0.0000 0.0000 26.0032 0.0000
# 6 0.0000 0.0000 0.0000 0.0000 0.0000 26.0884
#
#
#
# Elastic Compliance Matrix: (Units=1/GPa)
#
#
# Indices 1 2 3 4 5 6 
#
# 1 0.012424 -0.004072 -0.001429 0.000000 0.000000 0.000000
# 2 -0.004072 0.013586 -0.003240 0.000000 0.000000 0.000000
# 3 -0.001429 -0.003240 0.009857 0.000000 0.000000 0.000000
# 4 0.000000 0.000000 0.000000 -0.141054 0.000000 0.000000
# 5 0.000000 0.000000 0.000000 0.000000 0.038457 0.000000
# 6 0.000000 0.000000 0.000000 0.000000 0.000000 0.038331
#
#
# Mechanical properties :
#
#
# Convention : Reuss Voigt Hill
#
# Bulk Modulus (GPa) = 54.38816 54.75983 54.57400
# Shear Modulus (GPa) = -1043.85432 22.93236 -510.46098
#
# Velocity S-wave (km/s) = -24.66047 3.65515 -17.24498
# Velocity P-wave (km/s) = 27.91354 7.05096 19.09777
#
# Compressibility (1/GPa) = 0.01838635
#
# Stress axis : x y z
#
# Youngs Moduli (GPa) = 80.49114 73.60720 101.44610
#
# Poissons Ratio (x) = 0.29972 0.14494
# Poissons Ratio (y) = 0.32775 0.32864
# Poissons Ratio (z) = 0.11500 0.23846
#
# Static dielectric constant tensor:
#      x y z
#    x 1.571120 0.000000 0.000000 
#    y 0.000000 1.564490 0.000000 
#    z 0.000000 0.000000 1.763790 
# 
# From -- ./inp_files/18160.got.cif
#   From: 2010.05.17/outbox.cif.g08.bks.cpg/sg69_10_cif.got.tgz:18160.got - 2010.06.03 19:29:58.
