data_PCOD9513445
_publ_section_title
;
Structure prediction by ZEFSAII (Michael W. Deem and Ramdas Pophale) SiO2 
 PCOD9513445
Probable space group: F M M M
;
_chemical_formula_sum "Si O2"
_cell_formula_units_Z 152
_cell_length_a 21.696799
_cell_length_b 25.375612
_cell_length_c 13.846383
_cell_angle_alpha 90.000000
_cell_angle_beta 90.000000
_cell_angle_gamma 90.000000
_cell_volume 7623.396900
_symmetry_space_group_name_H-M "F M M M"
_symmetry_group_IT_number 69
_symmetry_cell_setting 'orthorhombic'
loop_
_space_group_symop_operation_xyz
x,y,z
-x,-y,z
x,-y,-z
-x,y,-z
-x,-y,-z
x,y,-z
-x,y,z
x,-y,z
x,1/2+y,1/2+z
-x,1/2-y,1/2+z
x,1/2-y,1/2-z
-x,1/2+y,1/2-z
-x,1/2-y,1/2-z
x,1/2+y,1/2-z
-x,1/2+y,1/2+z
x,1/2-y,1/2+z
1/2+x,y,1/2+z
1/2-x,-y,1/2+z
1/2+x,-y,1/2-z
1/2-x,y,1/2-z
1/2-x,-y,1/2-z
1/2+x,y,1/2-z
1/2-x,y,1/2+z
1/2+x,-y,1/2+z
1/2+x,1/2+y,z
1/2-x,1/2-y,z
1/2+x,1/2-y,-z
1/2-x,1/2+y,-z
1/2-x,1/2-y,-z
1/2+x,1/2+y,-z
1/2-x,1/2+y,z
1/2+x,1/2-y,z
loop_
_atom_site_type_symbol
_atom_site_label
_atom_site_fract_x
_atom_site_fract_y
_atom_site_fract_z
Si Si1 0.184355 0.500000 0.885277
Si Si2 0.644286 0.214571 0.612184
Si Si3 0.926856 0.175629 0.610088
Si Si4 0.072163 0.000000 0.758549
Si Si5 0.115923 0.113433 0.792644
Si Si6 0.750000 0.081788 0.250000
Si Si7 0.750000 0.750000 0.750000
O O1 0.117157 0.500000 0.834784
O O2 0.222010 0.451735 0.838664
O O3 0.181868 0.500000 0.000000
O O4 0.661649 0.212588 0.500000
O O5 0.606921 0.268876 0.629371
O O6 0.603650 0.163231 0.638341
O O7 0.704308 0.218449 0.679663
O O8 0.911756 0.159603 0.500000
O O9 0.906643 0.132349 0.687383
O O10 0.000000 0.183325 0.616946
O O11 0.089081 0.944877 0.812374
O O12 0.000000 0.000000 0.735623
O O13 0.189694 0.109327 0.790302
#
# Coordination Sequence:
#
# PCOD9513445 Si02
#       7
#    16  32  32  16  32  16   8
#     4   9  19  39  62  83 118 164 210 266 314 361
#     4  11  24  40  65  97 128 166 211 261 322 387
#     4  10  22  40  63  93 125 163 213 265 323 389
#     4  10  23  39  62  94 128 171 220 260 309 378
#     4  11  21  40  61  88 127 171 206 263 318 371
#     4   9  21  36  54  86 120 153 211 250 304 380
#     4  12  20  44  64 104 136 162 202 272 326 382
#
# _framework density 19.938618000000002
#
# number of rings (size 3 to 8) (size 9 to 14) (size 15 to 20)
#    0.000    1.684    2.105    2.211    0.000    6.947 
#    0.000    0.526    0.000    0.632    0.000    0.000 
#    0.000    0.000    0.000    0.000    0.000    0.000 
#
# Total GULP energy -211933.898339 kJ/mol
# GULP energy per Si atom -5577.207851 kJ/mol
# Density = 1.989324 g / cm^3
# Si number density = 19.938618 Si / 1000 Ang^3
#
#
#
# Elastic Constant Matrix: (Units=GPa)
#
#
# Indices 1 2 3 4 5 6 
#
# 1 107.3190 26.6031 23.4462 0.0000 0.0000 0.0000
# 2 26.6031 131.8696 29.5027 0.0000 0.0000 0.0000
# 3 23.4462 29.5027 73.4074 0.0000 0.0000 0.0000
# 4 0.0000 0.0000 0.0000 -8.0231 0.0000 0.0000
# 5 0.0000 0.0000 0.0000 0.0000 -41.6856 0.0000
# 6 0.0000 0.0000 0.0000 0.0000 0.0000 -4.9306
#
#
#
# Elastic Compliance Matrix: (Units=1/GPa)
#
#
# Indices 1 2 3 4 5 6 
#
# 1 0.010270 -0.001470 -0.002689 0.000000 0.000000 0.000000
# 2 -0.001470 0.008543 -0.002964 0.000000 0.000000 0.000000
# 3 -0.002689 -0.002964 0.015673 0.000000 0.000000 0.000000
# 4 0.000000 0.000000 0.000000 -0.124640 0.000000 0.000000
# 5 0.000000 0.000000 0.000000 0.000000 -0.023989 0.000000
# 6 0.000000 0.000000 0.000000 0.000000 0.000000 -0.202817
#
#
# Mechanical properties :
#
#
# Convention : Reuss Voigt Hill
#
# Bulk Modulus (GPa) = 49.40975 52.41112 50.91043
# Shear Modulus (GPa) = -16.89375 4.60842 -6.14267
#
# Velocity S-wave (km/s) = -2.91398 1.52195 -1.75712
# Velocity P-wave (km/s) = 3.67601 5.42510 4.63383
#
# Compressibility (1/GPa) = 0.02023892
#
# Stress axis : x y z
#
# Youngs Moduli (GPa) = 97.37097 117.05577 63.80490
#
# Poissons Ratio (x) = 0.17209 0.17159
# Poissons Ratio (y) = 0.14315 0.18911
# Poissons Ratio (z) = 0.26187 0.34694
#
# Static dielectric constant tensor:
#      x y z
#    x 1.680410 0.000000 0.000000 
#    y 0.000000 1.774020 0.000000 
#    z 0.000000 0.000000 1.685550 
# 
# From -- ./inp_files/16841.got.cif
#   From: 2010.05.17/outbox.cif.g08.bks.cpg/sg69_9_cif.got.tgz:16841.got - 2010.06.03 19:29:58.
