data_PCOD9513504
_publ_section_title
;
Structure prediction by ZEFSAII (Michael W. Deem and Ramdas Pophale) SiO2 
 PCOD9513504
Probable space group: F M M M
;
_chemical_formula_sum "Si O2"
_cell_formula_units_Z 112
_cell_length_a 20.207403
_cell_length_b 22.241497
_cell_length_c 11.361195
_cell_angle_alpha 90.000000
_cell_angle_beta 90.000000
_cell_angle_gamma 90.000000
_cell_volume 5106.208351
_symmetry_space_group_name_H-M "F M M M"
_symmetry_group_IT_number 69
_symmetry_cell_setting 'orthorhombic'
loop_
_space_group_symop_operation_xyz
x,y,z
-x,-y,z
x,-y,-z
-x,y,-z
-x,-y,-z
x,y,-z
-x,y,z
x,-y,z
x,1/2+y,1/2+z
-x,1/2-y,1/2+z
x,1/2-y,1/2-z
-x,1/2+y,1/2-z
-x,1/2-y,1/2-z
x,1/2+y,1/2-z
-x,1/2+y,1/2+z
x,1/2-y,1/2+z
1/2+x,y,1/2+z
1/2-x,-y,1/2+z
1/2+x,-y,1/2-z
1/2-x,y,1/2-z
1/2-x,-y,1/2-z
1/2+x,y,1/2-z
1/2-x,y,1/2+z
1/2+x,-y,1/2+z
1/2+x,1/2+y,z
1/2-x,1/2-y,z
1/2+x,1/2-y,-z
1/2-x,1/2+y,-z
1/2-x,1/2-y,-z
1/2+x,1/2+y,-z
1/2-x,1/2+y,z
1/2+x,1/2-y,z
loop_
_atom_site_type_symbol
_atom_site_label
_atom_site_fract_x
_atom_site_fract_y
_atom_site_fract_z
Si Si1 0.926998 0.887408 0.000000
Si Si2 0.920758 0.063187 0.633182
Si Si3 0.775027 0.070167 0.000000
Si Si4 0.607752 0.317570 0.770869
Si Si5 0.750000 0.862428 0.750000
O O1 0.856451 0.922800 0.000000
O O2 0.922693 0.844123 0.111291
O O3 0.000000 0.918640 0.000000
O O4 0.896652 0.061384 0.500000
O O5 0.906512 0.128628 0.680910
O O6 0.000000 0.059577 0.633607
O O7 0.897002 0.000000 0.693151
O O8 0.749110 0.099114 0.874480
O O9 0.759010 0.000000 0.000000
O O10 0.584886 0.250000 0.750000
O O11 0.686912 0.320666 0.771443
#
# Coordination Sequence:
#
# PCOD9513504 Si02
#       5
#    16  32  16  32  16
#     4  10  24  42  59  91 134 170 212 268 339 402
#     4   9  20  39  62  91 125 162 209 266 325 380
#     4  10  22  42  67  97 128 172 226 275 329 398
#     4  11  24  41  64  93 127 176 220 271 323 392
#     4  10  24  42  62  92 133 170 221 276 335 392
#
# _framework density 21.934083999999999
#
# number of rings (size 3 to 8) (size 9 to 14) (size 15 to 20)
#    0.000    2.000    0.000    2.571    4.000    8.286 
#    0.000    4.286    0.000    0.000    0.000    0.000 
#    0.000    0.000    0.000    0.000    0.000    0.000 
#
# Total GULP energy -155903.816160 kJ/mol
# GULP energy per Si atom -5567.993434 kJ/mol
# Density = 2.188416 g / cm^3
# Si number density = 21.934084 Si / 1000 Ang^3
#
#
#
# Elastic Constant Matrix: (Units=GPa)
#
#
# Indices 1 2 3 4 5 6 
#
# 1 90.4309 -2.7437 6.9028 0.0000 0.0000 0.0000
# 2 -2.7437 179.3694 48.0949 0.0000 0.0000 0.0000
# 3 6.9028 48.0949 102.3612 0.0000 0.0000 0.0000
# 4 0.0000 0.0000 0.0000 24.8786 0.0000 0.0000
# 5 0.0000 0.0000 0.0000 0.0000 31.0290 0.0000
# 6 0.0000 0.0000 0.0000 0.0000 0.0000 7.8731
#
#
#
# Elastic Compliance Matrix: (Units=1/GPa)
#
#
# Indices 1 2 3 4 5 6 
#
# 1 0.011144 0.000426 -0.000951 0.000000 0.000000 0.000000
# 2 0.000426 0.006395 -0.003033 0.000000 0.000000 0.000000
# 3 -0.000951 -0.003033 0.011259 0.000000 0.000000 0.000000
# 4 0.000000 0.000000 0.000000 0.040195 0.000000 0.000000
# 5 0.000000 0.000000 0.000000 0.000000 0.032228 0.000000
# 6 0.000000 0.000000 0.000000 0.000000 0.000000 0.127015
#
#
# Mechanical properties :
#
#
# Convention : Reuss Voigt Hill
#
# Bulk Modulus (GPa) = 46.12788 52.96329 49.54558
# Shear Modulus (GPa) = 20.61170 34.08328 27.34749
#
# Velocity S-wave (km/s) = 3.06880 3.94623 3.53484
# Velocity P-wave (km/s) = 5.79936 6.70541 6.26878
#
# Compressibility (1/GPa) = 0.02167886
#
# Stress axis : x y z
#
# Youngs Moduli (GPa) = 89.73672 156.37326 88.81980
#
# Poissons Ratio (x) = -0.06655 0.08451
# Poissons Ratio (y) = -0.03819 0.26943
# Poissons Ratio (z) = 0.08538 0.47434
#
# Static dielectric constant tensor:
#      x y z
#    x 1.950250 0.000000 0.000000 
#    y 0.000000 1.235610 0.000000 
#    z 0.000000 0.000000 1.790610 
# 
# From -- ./inp_files/9932.got.cif
#   From: 2010.05.17/outbox.cif.g08.bks.cpg/sg69_5_cif.got.tgz:9932.got - 2010.06.03 19:29:58.
