data_PCOD9513991
_publ_section_title
;
Structure prediction by ZEFSAII (Michael W. Deem and Ramdas Pophale) SiO2 
 PCOD9513991
Probable space group: F M M M
;
_chemical_formula_sum "Si O2"
_cell_formula_units_Z 44
_cell_length_a 27.000000
_cell_length_b 18.000000
_cell_length_c 18.000000
_cell_angle_alpha 90.000000
_cell_angle_beta 90.000000
_cell_angle_gamma 90.000000
_cell_volume 8748.000000
_symmetry_space_group_name_H-M "F M M M"
_symmetry_group_IT_number 69
_symmetry_cell_setting 'orthorhombic'
loop_
_space_group_symop_operation_xyz
x,y,z
-x,-y,z
x,-y,-z
-x,y,-z
-x,-y,-z
x,y,-z
-x,y,z
x,-y,z
x,1/2+y,1/2+z
-x,1/2-y,1/2+z
x,1/2-y,1/2-z
-x,1/2+y,1/2-z
-x,1/2-y,1/2-z
x,1/2+y,1/2-z
-x,1/2+y,1/2+z
x,1/2-y,1/2+z
1/2+x,y,1/2+z
1/2-x,-y,1/2+z
1/2+x,-y,1/2-z
1/2-x,y,1/2-z
1/2-x,-y,1/2-z
1/2+x,y,1/2-z
1/2-x,y,1/2+z
1/2+x,-y,1/2+z
1/2+x,1/2+y,z
1/2-x,1/2-y,z
1/2+x,1/2-y,-z
1/2-x,1/2+y,-z
1/2-x,1/2-y,-z
1/2+x,1/2+y,-z
1/2-x,1/2+y,z
1/2+x,1/2-y,z
loop_
_atom_site_type_symbol
_atom_site_label
_atom_site_fract_x
_atom_site_fract_y
_atom_site_fract_z
Si Si1 0.444591 0.104493 0.914144
Si Si2 0.939311 0.000000 0.090477
Si Si3 0.256451 0.590121 0.087100
Si Si4 0.656854 0.085892 0.177888
Si Si5 0.135250 0.127302 0.845011
Si Si6 0.944784 0.218196 0.914311
O O1 0.500000 0.080625 0.886682
O O2 0.394338 0.085904 0.869692
O O3 0.447112 0.193375 0.915431
O O4 0.439758 0.080431 0.000000
O O5 0.906393 0.932378 0.125096
O O6 0.000000 0.000000 0.106735
O O7 0.935351 0.000000 0.000000
O O8 0.258404 0.500000 0.090734
O O9 0.206581 0.613019 0.133606
O O10 0.310434 0.617457 0.116979
O O11 0.250852 0.610916 0.000000
O O12 0.645376 0.123392 0.257063
O O13 0.667909 0.000000 0.196696
O O14 0.104184 0.199464 0.868053
O O15 0.000000 0.191435 0.888470
O O16 0.939199 0.191555 0.000000
#
# Coordination Sequence:
#
# PCOD9513991 Si02
#       6
#    32  16  32  32  32  32
#     4   9  20  40  62  82 109 149 196 242 285 335
#     4  11  22  34  51  80 117 153 189 226 266 324
#     4  10  20  36  59  81 109 151 198 237 279 337
#     4  11  23  38  55  85 118 151 185 238 291 340
#     4  12  21  35  56  85 118 152 183 230 288 342
#     4   9  19  37  60  84 112 150 194 235 279 338
#
# _framework density 5.0297210000000003
#
# number of rings (size 3 to 8) (size 9 to 14) (size 15 to 20)
#    0.000    1.727    1.818    4.364    0.000    6.545 
#    0.000    3.636    0.000    5.455    0.000    0.000 
#    0.000    0.000    0.000    0.000    0.000    0.000 
#
# Total GULP energy -245237.393581 kJ/mol
# GULP energy per Si atom -5573.577127 kJ/mol
# Density = 0.501827 g / cm^3
# Si number density = 5.029721 Si / 1000 Ang^3
#
#
#
# Elastic Constant Matrix: (Units=GPa)
#
#
# Indices 1 2 3 4 5 6 
#
# 1 231.0277 29.1223 100.9167 0.0000 0.0000 0.0000
# 2 29.1223 58.0600 22.4779 0.0000 0.0000 0.0000
# 3 100.9167 22.4779 142.2832 0.0000 0.0000 0.0000
# 4 0.0000 0.0000 0.0000 14.4467 0.0000 0.0000
# 5 0.0000 0.0000 0.0000 0.0000 42.3210 0.0000
# 6 0.0000 0.0000 0.0000 0.0000 0.0000 33.1144
#
#
#
# Elastic Compliance Matrix: (Units=1/GPa)
#
#
# Indices 1 2 3 4 5 6 
#
# 1 0.006399 -0.001547 -0.004294 0.000000 0.000000 0.000000
# 2 -0.001547 0.018720 -0.001860 0.000000 0.000000 0.000000
# 3 -0.004294 -0.001860 0.010368 0.000000 0.000000 0.000000
# 4 0.000000 0.000000 0.000000 0.069220 0.000000 0.000000
# 5 0.000000 0.000000 0.000000 0.000000 0.023629 0.000000
# 6 0.000000 0.000000 0.000000 0.000000 0.000000 0.030198
#
#
# Mechanical properties :
#
#
# Convention : Reuss Voigt Hill
#
# Bulk Modulus (GPa) = 49.79128 81.82277 65.80703
# Shear Modulus (GPa) = 27.68056 36.56668 32.12362
#
# Velocity S-wave (km/s) = 3.71327 4.26788 4.00020
# Velocity P-wave (km/s) = 6.57166 8.06500 7.35632
#
# Compressibility (1/GPa) = 0.02008384
#
# Stress axis : x y z
#
# Youngs Moduli (GPa) = 156.26429 53.41954 96.45087
#
# Poissons Ratio (x) = 0.08266 0.41420
# Poissons Ratio (y) = 0.24179 0.17939
# Poissons Ratio (z) = 0.67107 0.09936
#
# Static dielectric constant tensor:
#      x y z
#    x 1.695570 0.000000 0.000000 
#    y 0.000000 1.831060 0.000000 
#    z 0.000000 0.000000 1.712910 
# 
# From -- ./inp_files/17910.got.cif
#   From: 2010.05.17/outbox.ucp.g08.bks.cvg/sg69_9_cif.got.tgz:17910.got - 2010.06.11 16:51:34.
