data_PCOD9513555
_publ_section_title
;
Structure prediction by ZEFSAII (Michael W. Deem and Ramdas Pophale) SiO2 
 PCOD9513555
Probable space group: F M M M
;
_chemical_formula_sum "Si O2"
_cell_formula_units_Z 136
_cell_length_a 20.142679
_cell_length_b 16.013421
_cell_length_c 18.982861
_cell_angle_alpha 90.000000
_cell_angle_beta 90.000000
_cell_angle_gamma 90.000000
_cell_volume 6122.982540
_symmetry_space_group_name_H-M "F M M M"
_symmetry_group_IT_number 69
_symmetry_cell_setting 'orthorhombic'
loop_
_space_group_symop_operation_xyz
x,y,z
-x,-y,z
x,-y,-z
-x,y,-z
-x,-y,-z
x,y,-z
-x,y,z
x,-y,z
x,1/2+y,1/2+z
-x,1/2-y,1/2+z
x,1/2-y,1/2-z
-x,1/2+y,1/2-z
-x,1/2-y,1/2-z
x,1/2+y,1/2-z
-x,1/2+y,1/2+z
x,1/2-y,1/2+z
1/2+x,y,1/2+z
1/2-x,-y,1/2+z
1/2+x,-y,1/2-z
1/2-x,y,1/2-z
1/2-x,-y,1/2-z
1/2+x,y,1/2-z
1/2-x,y,1/2+z
1/2+x,-y,1/2+z
1/2+x,1/2+y,z
1/2-x,1/2-y,z
1/2+x,1/2-y,-z
1/2-x,1/2+y,-z
1/2-x,1/2-y,-z
1/2+x,1/2+y,-z
1/2-x,1/2+y,z
1/2+x,1/2-y,z
loop_
_atom_site_type_symbol
_atom_site_label
_atom_site_fract_x
_atom_site_fract_y
_atom_site_fract_z
Si Si1 0.500000 0.000000 0.843008
Si Si2 0.422556 0.764312 0.500000
Si Si3 0.379141 0.814230 0.350470
Si Si4 0.745388 0.092818 0.855870
Si Si5 0.337275 0.905398 0.000000
Si Si6 0.391538 0.127360 0.793454
O O1 0.558418 0.928284 0.837338
O O2 0.500000 0.746741 0.500000
O O3 0.404054 0.816099 0.430039
O O4 0.385042 0.674747 0.500000
O O5 0.301485 0.837683 0.349689
O O6 0.410700 0.871333 0.289071
O O7 0.391660 0.720514 0.323944
O O8 0.708604 0.100598 0.931102
O O9 0.684744 0.098937 0.801259
O O10 0.775671 0.000000 0.852176
O O11 0.368118 0.000000 0.000000
#
# Coordination Sequence:
#
# PCOD9513555 Si02
#       6
#     8  16  32  32  16  32
#     4  12  28  46  74 102 158 192 232 290 380 432
#     4  12  27  46  68 101 143 196 241 289 366 439
#     4  11  26  44  72 104 145 189 246 303 351 433
#     4  11  22  43  73 111 144 184 245 302 371 420
#     4  10  23  42  67 104 147 189 231 300 367 429
#     4  11  25  44  73 108 142 192 236 301 360 437
#
# _framework density 22.211397000000002
#
# number of rings (size 3 to 8) (size 9 to 14) (size 15 to 20)
#    0.000    0.941    3.529    2.118    4.941    4.941 
#    0.000    0.000    0.000    1.412    0.000    0.000 
#    0.000    0.000    0.000    0.000    0.000    0.000 
#
# Total GULP energy -189663.958632 kJ/mol
# GULP energy per Si atom -5578.351724 kJ/mol
# Density = 2.216084 g / cm^3
# Si number density = 22.211397 Si / 1000 Ang^3
#
#
#
# Elastic Constant Matrix: (Units=GPa)
#
#
# Indices 1 2 3 4 5 6 
#
# 1 90.8100 26.5065 -0.3113 0.0000 0.0000 0.0000
# 2 26.5065 64.3474 11.9783 0.0000 0.0000 0.0000
# 3 -0.3113 11.9783 147.1969 0.0000 0.0000 0.0000
# 4 0.0000 0.0000 0.0000 7.1760 0.0000 0.0000
# 5 0.0000 0.0000 0.0000 0.0000 -13.6679 0.0000
# 6 0.0000 0.0000 0.0000 0.0000 0.0000 38.7467
#
#
#
# Elastic Compliance Matrix: (Units=1/GPa)
#
#
# Indices 1 2 3 4 5 6 
#
# 1 0.012547 -0.005253 0.000454 0.000000 0.000000 0.000000
# 2 -0.005253 0.017979 -0.001474 0.000000 0.000000 0.000000
# 3 0.000454 -0.001474 0.006915 0.000000 0.000000 0.000000
# 4 0.000000 0.000000 0.000000 0.139354 0.000000 0.000000
# 5 0.000000 0.000000 0.000000 0.000000 -0.073164 0.000000
# 6 0.000000 0.000000 0.000000 0.000000 0.000000 0.025809
#
#
# Mechanical properties :
#
#
# Convention : Reuss Voigt Hill
#
# Bulk Modulus (GPa) = 40.17016 42.07794 41.12405
# Shear Modulus (GPa) = 33.27052 24.06301 28.66677
#
# Velocity S-wave (km/s) = 3.87447 3.29502 3.59644
# Velocity P-wave (km/s) = 6.17576 5.78460 5.98338
#
# Compressibility (1/GPa) = 0.02489410
#
# Stress axis : x y z
#
# Youngs Moduli (GPa) = 79.70145 55.62086 144.62275
#
# Poissons Ratio (x) = 0.29217 -0.06566
# Poissons Ratio (y) = 0.41866 0.21320
# Poissons Ratio (z) = -0.03618 0.08199
#
# Static dielectric constant tensor:
#      x y z
#    x 1.764190 0.000000 0.000000 
#    y 0.000000 1.817000 0.000000 
#    z 0.000000 0.000000 1.910180 
# 
# From -- ./inp_files/30532.got.cif
#   From: 2010.05.17/outbox.cif.g08.bks.cpg/sg69_16_cif.got.tgz:30532.got - 2010.06.03 19:29:58.
