data_PCOD9513876
_publ_section_title
;
Structure prediction by ZEFSAII (Michael W. Deem and Ramdas Pophale) SiO2 
 PCOD9513876
Probable space group: F M M M
;
_chemical_formula_sum "Si O2"
_cell_formula_units_Z 104
_cell_length_a 21.671606
_cell_length_b 7.631819
_cell_length_c 28.575509
_cell_angle_alpha 90.000000
_cell_angle_beta 90.000000
_cell_angle_gamma 90.000000
_cell_volume 4726.211290
_symmetry_space_group_name_H-M "F M M M"
_symmetry_group_IT_number 69
_symmetry_cell_setting 'orthorhombic'
loop_
_space_group_symop_operation_xyz
x,y,z
-x,-y,z
x,-y,-z
-x,y,-z
-x,-y,-z
x,y,-z
-x,y,z
x,-y,z
x,1/2+y,1/2+z
-x,1/2-y,1/2+z
x,1/2-y,1/2-z
-x,1/2+y,1/2-z
-x,1/2-y,1/2-z
x,1/2+y,1/2-z
-x,1/2+y,1/2+z
x,1/2-y,1/2+z
1/2+x,y,1/2+z
1/2-x,-y,1/2+z
1/2+x,-y,1/2-z
1/2-x,y,1/2-z
1/2-x,-y,1/2-z
1/2+x,y,1/2-z
1/2-x,y,1/2+z
1/2+x,-y,1/2+z
1/2+x,1/2+y,z
1/2-x,1/2-y,z
1/2+x,1/2-y,-z
1/2-x,1/2+y,-z
1/2-x,1/2-y,-z
1/2+x,1/2+y,-z
1/2-x,1/2+y,z
1/2+x,1/2-y,z
loop_
_atom_site_type_symbol
_atom_site_label
_atom_site_fract_x
_atom_site_fract_y
_atom_site_fract_z
Si Si1 0.403442 0.300068 0.944669
Si Si2 0.000000 0.000000 0.582466
Si Si3 0.680625 0.708583 0.631356
Si Si4 0.068512 0.710850 0.804859
O O1 0.425364 0.500000 0.938771
O O2 0.446785 0.154335 0.921434
O O3 0.337674 0.283376 0.919208
O O4 0.401754 0.262938 0.000000
O O5 0.676035 0.500000 0.629802
O O6 0.750000 0.750000 0.645942
O O7 0.627082 0.776890 0.666298
O O8 0.066115 0.500000 0.810931
O O9 0.075942 0.750000 0.750000
O O10 0.000000 0.776558 0.818898
#
# Coordination Sequence:
#
# PCOD9513876 Si02
#       4
#    32   8  32  32
#     4  11  24  41  65  98 133 173 219 265 324 391
#     4  12  23  42  68  98 136 170 212 278 332 378
#     4  11  24  41  64  91 129 173 221 271 326 389
#     4   9  20  39  64  92 123 161 208 265 330 392
#
# _framework density 22.004940999999999
#
# number of rings (size 3 to 8) (size 9 to 14) (size 15 to 20)
#    0.000    1.538    1.538    2.769    2.154    4.923 
#    0.000    3.077    0.000    0.000    0.000    0.000 
#    0.000    0.000    0.000    0.000    0.000    0.000 
#
# Total GULP energy -144826.609464 kJ/mol
# GULP energy per Si atom -5570.254210 kJ/mol
# Density = 2.195486 g / cm^3
# Si number density = 22.004941 Si / 1000 Ang^3
#
#
#
# Elastic Constant Matrix: (Units=GPa)
#
#
# Indices 1 2 3 4 5 6 
#
# 1 187.0579 31.6669 61.3125 0.0000 -0.0001 0.0003
# 2 31.6669 98.4678 18.1995 0.0000 -0.0001 0.0006
# 3 61.3125 18.1995 72.8919 0.0000 0.0000 0.0000
# 4 0.0000 0.0000 0.0000 21.8018 -0.0001 0.0000
# 5 -0.0001 -0.0001 0.0000 -0.0001 13.4619 0.0001
# 6 0.0003 0.0006 0.0000 0.0000 0.0001 29.5001
#
#
#
# Elastic Compliance Matrix: (Units=1/GPa)
#
#
# Indices 1 2 3 4 5 6 
#
# 1 0.007539 -0.001313 -0.006014 0.000000 0.000000 0.000000
# 2 -0.001313 0.010876 -0.001611 0.000000 0.000000 0.000000
# 3 -0.006014 -0.001611 0.019180 0.000000 0.000000 0.000000
# 4 0.000000 0.000000 0.000000 0.045868 0.000000 0.000000
# 5 0.000000 0.000000 0.000000 0.000000 0.074284 0.000000
# 6 0.000000 0.000000 0.000000 0.000000 0.000000 0.033898
#
#
# Mechanical properties :
#
#
# Convention : Reuss Voigt Hill
#
# Bulk Modulus (GPa) = 50.71255 64.53059 57.62157
# Shear Modulus (GPa) = 23.13816 29.43533 26.28675
#
# Velocity S-wave (km/s) = 3.24620 3.66138 3.46002
# Velocity P-wave (km/s) = 6.09479 6.87484 6.49653
#
# Compressibility (1/GPa) = 0.01971898
#
# Stress axis : x y z
#
# Youngs Moduli (GPa) = 132.63618 91.94865 52.13851
#
# Poissons Ratio (x) = 0.12074 0.31355
# Poissons Ratio (y) = 0.17417 0.08399
# Poissons Ratio (z) = 0.79766 0.14812
#
# Static dielectric constant tensor:
#      x y z
#    x 1.828280 0.000000 0.000000 
#    y 0.000000 1.801860 0.000000 
#    z 0.000000 0.000000 1.848530 
# 
# From -- ./inp_files/46854.got.cif
#   From: 2010.05.17/outbox.cif.g08.bks.cpg/sg69_24_cif.got.tgz:46854.got - 2010.06.03 19:29:58.
