data_PCOD9513318
_publ_section_title
;
Structure prediction by ZEFSAII (Michael W. Deem and Ramdas Pophale) SiO2 
 PCOD9513318
Probable space group: F M M M
;
_chemical_formula_sum "Si O2"
_cell_formula_units_Z 136
_cell_length_a 24.392461
_cell_length_b 25.671712
_cell_length_c 10.470153
_cell_angle_alpha 90.000000
_cell_angle_beta 90.000000
_cell_angle_gamma 90.000000
_cell_volume 6556.370376
_symmetry_space_group_name_H-M "F M M M"
_symmetry_group_IT_number 69
_symmetry_cell_setting 'orthorhombic'
loop_
_space_group_symop_operation_xyz
x,y,z
-x,-y,z
x,-y,-z
-x,y,-z
-x,-y,-z
x,y,-z
-x,y,z
x,-y,z
x,1/2+y,1/2+z
-x,1/2-y,1/2+z
x,1/2-y,1/2-z
-x,1/2+y,1/2-z
-x,1/2-y,1/2-z
x,1/2+y,1/2-z
-x,1/2+y,1/2+z
x,1/2-y,1/2+z
1/2+x,y,1/2+z
1/2-x,-y,1/2+z
1/2+x,-y,1/2-z
1/2-x,y,1/2-z
1/2-x,-y,1/2-z
1/2+x,y,1/2-z
1/2-x,y,1/2+z
1/2+x,-y,1/2+z
1/2+x,1/2+y,z
1/2-x,1/2-y,z
1/2+x,1/2-y,-z
1/2-x,1/2+y,-z
1/2-x,1/2-y,-z
1/2+x,1/2+y,-z
1/2-x,1/2+y,z
1/2+x,1/2-y,z
loop_
_atom_site_type_symbol
_atom_site_label
_atom_site_fract_x
_atom_site_fract_y
_atom_site_fract_z
Si Si1 0.294834 0.167470 0.853142
Si Si2 0.848701 0.442300 0.145973
Si Si3 0.916671 0.691492 0.222881
Si Si4 0.000000 0.336142 0.000000
Si Si5 0.935605 0.089967 0.144278
O O1 0.250000 0.183355 0.750000
O O2 0.306728 0.105312 0.839929
O O3 0.353578 0.192232 0.820508
O O4 0.279306 0.178384 0.000000
O O5 0.824444 0.500000 0.160421
O O6 0.896898 0.435209 0.248930
O O7 0.870509 0.438405 0.000000
O O8 0.934852 0.750000 0.250000
O O9 0.924990 0.652022 0.340292
O O10 0.952582 0.667006 0.110887
O O11 0.000000 0.079364 0.166141
O O12 0.921936 0.073490 0.000000
#
# Coordination Sequence:
#
# PCOD9513318 Si02
#       5
#    32  32  32   8  32
#     4  10  22  42  63  89 124 163 208 257 309 369
#     4   9  20  39  62  86 114 154 207 257 308 373
#     4  11  24  39  64  92 124 167 211 258 310 370
#     4  12  22  40  66  94 125 164 211 270 304 368
#     4  10  22  35  54  85 124 163 201 252 312 374
#
# _framework density 20.743185
#
# number of rings (size 3 to 8) (size 9 to 14) (size 15 to 20)
#    0.000    1.882    2.353    0.353    3.294    6.118 
#    0.000    3.529    0.000    0.000    0.000    0.000 
#    0.000    0.000    0.000    0.000    0.000    0.000 
#
# Total GULP energy -189360.286363 kJ/mol
# GULP energy per Si atom -5569.420187 kJ/mol
# Density = 2.069597 g / cm^3
# Si number density = 20.743185 Si / 1000 Ang^3
#
#
#
# Elastic Constant Matrix: (Units=GPa)
#
#
# Indices 1 2 3 4 5 6 
#
# 1 115.2838 -20.0666 67.0047 0.0000 0.0000 0.0003
# 2 -20.0666 60.3919 -12.6507 0.0000 0.0000 0.0011
# 3 67.0047 -12.6507 138.2442 0.0000 -0.0001 0.0046
# 4 0.0000 0.0000 0.0000 3.1922 0.0001 0.0017
# 5 0.0000 0.0000 -0.0001 0.0001 13.0172 0.0006
# 6 0.0003 0.0011 0.0046 0.0017 0.0006 -354.4366
#
#
#
# Elastic Compliance Matrix: (Units=1/GPa)
#
#
# Indices 1 2 3 4 5 6 
#
# 1 0.012574 0.002958 -0.005824 0.000000 0.000000 0.000000
# 2 0.002958 0.017578 0.000175 0.000000 0.000000 0.000000
# 3 -0.005824 0.000175 0.010072 0.000000 0.000000 0.000000
# 4 0.000000 0.000000 0.000000 0.313268 -0.000001 0.000001
# 5 0.000000 0.000000 0.000000 -0.000001 0.076821 0.000000
# 6 0.000000 0.000000 0.000000 0.000001 0.000000 -0.002821
#
#
# Mechanical properties :
#
#
# Convention : Reuss Voigt Hill
#
# Bulk Modulus (GPa) = 28.70049 42.49941 35.59995
# Shear Modulus (GPa) = 11.24890 -49.00329 -18.87719
#
# Velocity S-wave (km/s) = 2.33125 -4.86571 -3.01996
# Velocity P-wave (km/s) = 4.59483 3.32174 2.24483
#
# Compressibility (1/GPa) = 0.03484261
#
# Stress axis : x y z
#
# Youngs Moduli (GPa) = 79.52946 56.88919 99.28290
#
# Poissons Ratio (x) = -0.16828 0.57819
# Poissons Ratio (y) = -0.23525 -0.01736
# Poissons Ratio (z) = 0.46316 -0.00995
#
# Static dielectric constant tensor:
#      x y z
#    x 1.713540 0.000000 0.000000 
#    y 0.000000 1.782030 0.000000 
#    z 0.000000 0.000000 1.744860 
# 
# From -- ./inp_files/9352.got.cif
#   From: 2010.05.17/outbox.cif.g08.bks.cpg/sg69_5_cif.got.tgz:9352.got - 2010.06.03 19:29:58.
