data_PCOD9513727
_publ_section_title
;
Structure prediction by ZEFSAII (Michael W. Deem and Ramdas Pophale) SiO2 
 PCOD9513727
Probable space group: F M M M
;
_chemical_formula_sum "Si O2"
_cell_formula_units_Z 176
_cell_length_a 23.975813
_cell_length_b 14.330349
_cell_length_c 23.997335
_cell_angle_alpha 90.000000
_cell_angle_beta 90.000000
_cell_angle_gamma 90.000000
_cell_volume 8245.046783
_symmetry_space_group_name_H-M "F M M M"
_symmetry_group_IT_number 69
_symmetry_cell_setting 'orthorhombic'
loop_
_space_group_symop_operation_xyz
x,y,z
-x,-y,z
x,-y,-z
-x,y,-z
-x,-y,-z
x,y,-z
-x,y,z
x,-y,z
x,1/2+y,1/2+z
-x,1/2-y,1/2+z
x,1/2-y,1/2-z
-x,1/2+y,1/2-z
-x,1/2-y,1/2-z
x,1/2+y,1/2-z
-x,1/2+y,1/2+z
x,1/2-y,1/2+z
1/2+x,y,1/2+z
1/2-x,-y,1/2+z
1/2+x,-y,1/2-z
1/2-x,y,1/2-z
1/2-x,-y,1/2-z
1/2+x,y,1/2-z
1/2-x,y,1/2+z
1/2+x,-y,1/2+z
1/2+x,1/2+y,z
1/2-x,1/2-y,z
1/2+x,1/2-y,-z
1/2-x,1/2+y,-z
1/2-x,1/2-y,-z
1/2+x,1/2+y,-z
1/2-x,1/2+y,z
1/2+x,1/2-y,z
loop_
_atom_site_type_symbol
_atom_site_label
_atom_site_fract_x
_atom_site_fract_y
_atom_site_fract_z
Si Si1 0.662145 0.109297 0.107327
Si Si2 0.064790 0.752743 0.901822
Si Si3 0.812287 0.359993 0.762968
Si Si4 0.781917 0.886739 0.063099
Si Si5 0.566503 0.896380 0.500000
Si Si6 0.624482 0.104305 0.655096
O O1 0.607644 0.168382 0.091951
O O2 0.672224 0.119749 0.173558
O O3 0.718912 0.144553 0.077597
O O4 0.655004 0.000000 0.093874
O O5 0.078161 0.832264 0.947442
O O6 0.079147 0.813577 0.847360
O O7 0.000000 0.726184 0.905754
O O8 0.812794 0.250000 0.750000
O O9 0.750000 0.393744 0.750000
O O10 0.853055 0.401682 0.717312
O O11 0.824008 0.865332 0.114118
O O12 0.780035 0.000000 0.062703
O O13 0.797814 0.856948 0.000000
O O14 0.500000 0.908262 0.500000
O O15 0.592347 0.000000 0.500000
O O16 0.605250 0.000000 0.637590
#
# Coordination Sequence:
#
# PCOD9513727 Si02
#       6
#    32  32  32  32  16  32
#     4  11  23  41  66  93 129 175 215 261 323 388
#     4  11  25  43  62  92 130 168 219 269 311 373
#     4  11  21  38  64  94 130 165 216 263 324 395
#     4   9  20  37  60  95 131 161 200 255 325 396
#     4   9  20  42  69  92 121 167 218 268 318 367
#     4  11  22  38  65  95 125 164 208 262 329 390
#
# _framework density 21.346149
#
# number of rings (size 3 to 8) (size 9 to 14) (size 15 to 20)
#    0.000    1.545    3.636    1.091    2.545    2.909 
#    0.000    2.727    0.000    3.818    0.000    0.000 
#    0.000    0.000    0.000    0.000    0.000    0.000 
#
# Total GULP energy -245889.863971 kJ/mol
# GULP energy per Si atom -5588.405999 kJ/mol
# Density = 2.129756 g / cm^3
# Si number density = 21.346149 Si / 1000 Ang^3
#
#
#
# Elastic Constant Matrix: (Units=GPa)
#
#
# Indices 1 2 3 4 5 6 
#
# 1 115.4472 36.7102 16.0450 0.0000 0.0000 0.0000
# 2 36.7102 108.1308 -4.9385 0.0000 0.0000 0.0000
# 3 16.0450 -4.9385 87.5935 0.0000 0.0000 0.0000
# 4 0.0000 0.0000 0.0000 19.2922 0.0000 0.0000
# 5 0.0000 0.0000 0.0000 0.0000 27.4766 0.0000
# 6 0.0000 0.0000 0.0000 0.0000 0.0000 17.2774
#
#
#
# Elastic Compliance Matrix: (Units=1/GPa)
#
#
# Indices 1 2 3 4 5 6 
#
# 1 0.010061 -0.003509 -0.002041 0.000000 0.000000 0.000000
# 2 -0.003509 0.010496 0.001235 0.000000 0.000000 0.000000
# 3 -0.002041 0.001235 0.011860 0.000000 0.000000 0.000000
# 4 0.000000 0.000000 0.000000 0.051834 0.000000 0.000000
# 5 0.000000 0.000000 0.000000 0.000000 0.036395 0.000000
# 6 0.000000 0.000000 0.000000 0.000000 0.000000 0.057879
#
#
# Mechanical properties :
#
#
# Convention : Reuss Voigt Hill
#
# Bulk Modulus (GPa) = 42.04110 45.20055 43.62082
# Shear Modulus (GPa) = 25.62990 30.36622 27.99806
#
# Velocity S-wave (km/s) = 3.46884 3.77578 3.62556
# Velocity P-wave (km/s) = 5.98177 6.34269 6.16487
#
# Compressibility (1/GPa) = 0.02378625
#
# Stress axis : x y z
#
# Youngs Moduli (GPa) = 99.38954 95.27661 84.31837
#
# Poissons Ratio (x) = 0.33433 0.17208
# Poissons Ratio (y) = 0.34876 -0.10409
# Poissons Ratio (z) = 0.20284 -0.11762
#
# Static dielectric constant tensor:
#      x y z
#    x 1.777360 0.000000 0.000000 
#    y 0.000000 1.804460 0.000000 
#    z 0.000000 0.000000 1.885450 
# 
# From -- ./inp_files/17874.got.cif
#   From: 2010.05.17/outbox.cif.g08.bks.cpg/sg69_9_cif.got.tgz:17874.got - 2010.06.03 19:29:58.
