data_PCOD9513888
_publ_section_title
;
Structure prediction by ZEFSAII (Michael W. Deem and Ramdas Pophale) SiO2 
 PCOD9513888
Probable space group: F M M M
;
_chemical_formula_sum "Si O2"
_cell_formula_units_Z 176
_cell_length_a 14.863963
_cell_length_b 16.581394
_cell_length_c 31.857158
_cell_angle_alpha 90.000000
_cell_angle_beta 90.000000
_cell_angle_gamma 90.000000
_cell_volume 7851.681675
_symmetry_space_group_name_H-M "F M M M"
_symmetry_group_IT_number 69
_symmetry_cell_setting 'orthorhombic'
loop_
_space_group_symop_operation_xyz
x,y,z
-x,-y,z
x,-y,-z
-x,y,-z
-x,-y,-z
x,y,-z
-x,y,z
x,-y,z
x,1/2+y,1/2+z
-x,1/2-y,1/2+z
x,1/2-y,1/2-z
-x,1/2+y,1/2-z
-x,1/2-y,1/2-z
x,1/2+y,1/2-z
-x,1/2+y,1/2+z
x,1/2-y,1/2+z
1/2+x,y,1/2+z
1/2-x,-y,1/2+z
1/2+x,-y,1/2-z
1/2-x,y,1/2-z
1/2-x,-y,1/2-z
1/2+x,y,1/2-z
1/2-x,y,1/2+z
1/2+x,-y,1/2+z
1/2+x,1/2+y,z
1/2-x,1/2-y,z
1/2+x,1/2-y,-z
1/2-x,1/2+y,-z
1/2-x,1/2-y,-z
1/2+x,1/2+y,-z
1/2-x,1/2+y,z
1/2+x,1/2-y,z
loop_
_atom_site_type_symbol
_atom_site_label
_atom_site_fract_x
_atom_site_fract_y
_atom_site_fract_z
Si Si1 0.158525 0.635393 0.614417
Si Si2 0.399801 0.801400 0.077929
Si Si3 0.351551 0.404598 0.347129
Si Si4 0.610482 0.406333 0.500000
Si Si5 0.855225 0.846771 0.254854
Si Si6 0.890973 0.500000 0.549280
Si Si7 0.000000 0.616990 0.316031
O O1 0.152515 0.724588 0.595226
O O2 0.249293 0.618530 0.640226
O O3 0.146806 0.575507 0.575293
O O4 0.077849 0.622444 0.647208
O O5 0.500000 0.773095 0.065289
O O6 0.406643 0.862614 0.116406
O O7 0.360373 0.854396 0.040206
O O8 0.361048 0.500000 0.347012
O O9 0.379001 0.369874 0.302222
O O10 0.639686 0.500000 0.500000
O O11 0.500000 0.408591 0.500000
O O12 0.863444 0.750000 0.250000
O O13 0.750000 0.869271 0.250000
O O14 0.920902 0.885112 0.220706
O O15 0.867562 0.500000 0.500000
O O16 0.000000 0.500000 0.552247
#
# Coordination Sequence:
#
# PCOD9513888 Si02
#       7
#    32  32  32  16  32  16  16
#     4  12  24  46  72 104 147 195 237 303 365 438
#     4  11  24  43  75 105 141 187 247 297 367 437
#     4  12  27  48  69 104 148 189 238 304 366 434
#     4   9  20  42  69 105 147 192 237 299 367 443
#     4  11  25  43  72 102 140 186 242 299 357 437
#     4  11  24  44  72 107 148 190 242 295 359 426
#     4  12  23  45  70 102 142 186 241 292 374 429
#
# _framework density 22.415579999999999
#
# number of rings (size 3 to 8) (size 9 to 14) (size 15 to 20)
#    0.000    0.727    4.545    2.455    5.091    1.455 
#    4.909    0.909    0.000    0.000    0.000    0.000 
#    0.000    0.000    0.000    0.000    0.000    0.000 
#
# Total GULP energy -245203.037500 kJ/mol
# GULP energy per Si atom -5572.796307 kJ/mol
# Density = 2.236456 g / cm^3
# Si number density = 22.415580 Si / 1000 Ang^3
#
#
#
# Elastic Constant Matrix: (Units=GPa)
#
#
# Indices 1 2 3 4 5 6 
#
# 1 118.6755 18.8713 34.2058 0.0000 0.0000 0.0000
# 2 18.8713 153.1620 89.2255 0.0000 0.0000 0.0000
# 3 34.2058 89.2255 238.9669 0.0000 0.0000 0.0000
# 4 0.0000 0.0000 0.0000 -18.2625 0.0000 0.0000
# 5 0.0000 0.0000 0.0000 0.0000 87.3047 0.0000
# 6 0.0000 0.0000 0.0000 0.0000 0.0000 11.3765
#
#
#
# Elastic Compliance Matrix: (Units=1/GPa)
#
#
# Indices 1 2 3 4 5 6 
#
# 1 0.008813 -0.000449 -0.001094 0.000000 0.000000 0.000000
# 2 -0.000449 0.008367 -0.003060 0.000000 0.000000 0.000000
# 3 -0.001094 -0.003060 0.005484 0.000000 0.000000 0.000000
# 4 0.000000 0.000000 0.000000 -0.054757 0.000000 0.000000
# 5 0.000000 0.000000 0.000000 0.000000 0.011454 0.000000
# 6 0.000000 0.000000 0.000000 0.000000 0.000000 0.087900
#
#
# Mechanical properties :
#
#
# Convention : Reuss Voigt Hill
#
# Bulk Modulus (GPa) = 74.30059 88.37884 81.33971
# Shear Modulus (GPa) = 61.76526 40.65055 51.20791
#
# Velocity S-wave (km/s) = 5.25494 4.26314 4.78481
# Velocity P-wave (km/s) = 8.36887 7.98407 8.17874
#
# Compressibility (1/GPa) = 0.01345884
#
# Stress axis : x y z
#
# Youngs Moduli (GPa) = 113.46885 119.52002 182.35718
#
# Poissons Ratio (x) = 0.05361 0.19950
# Poissons Ratio (y) = 0.05089 0.55798
# Poissons Ratio (z) = 0.12414 0.36571
#
# Static dielectric constant tensor:
#      x y z
#    x 1.951840 0.000000 0.000000 
#    y 0.000000 1.934240 0.000000 
#    z 0.000000 0.000000 1.755760 
# 
# From -- ./inp_files/41888.got.cif
#   From: 2010.05.17/outbox.cif.g08.bks.cpg/sg69_21_cif.got.tgz:41888.got - 2010.06.03 19:29:58.
