data_PCOD9513743
_publ_section_title
;
Structure prediction by ZEFSAII (Michael W. Deem and Ramdas Pophale) SiO2 
 PCOD9513743
Probable space group: F M M M
;
_chemical_formula_sum "Si O2"
_cell_formula_units_Z 152
_cell_length_a 15.290254
_cell_length_b 23.164926
_cell_length_c 20.988135
_cell_angle_alpha 90.000000
_cell_angle_beta 90.000000
_cell_angle_gamma 90.000000
_cell_volume 7433.947097
_symmetry_space_group_name_H-M "F M M M"
_symmetry_group_IT_number 69
_symmetry_cell_setting 'orthorhombic'
loop_
_space_group_symop_operation_xyz
x,y,z
-x,-y,z
x,-y,-z
-x,y,-z
-x,-y,-z
x,y,-z
-x,y,z
x,-y,z
x,1/2+y,1/2+z
-x,1/2-y,1/2+z
x,1/2-y,1/2-z
-x,1/2+y,1/2-z
-x,1/2-y,1/2-z
x,1/2+y,1/2-z
-x,1/2+y,1/2+z
x,1/2-y,1/2+z
1/2+x,y,1/2+z
1/2-x,-y,1/2+z
1/2+x,-y,1/2-z
1/2-x,y,1/2-z
1/2-x,-y,1/2-z
1/2+x,y,1/2-z
1/2-x,y,1/2+z
1/2+x,-y,1/2+z
1/2+x,1/2+y,z
1/2-x,1/2-y,z
1/2+x,1/2-y,-z
1/2-x,1/2+y,-z
1/2-x,1/2-y,-z
1/2+x,1/2+y,-z
1/2-x,1/2+y,z
1/2+x,1/2-y,z
loop_
_atom_site_type_symbol
_atom_site_label
_atom_site_fract_x
_atom_site_fract_y
_atom_site_fract_z
Si Si1 0.638133 0.876740 0.615618
Si Si2 0.000000 0.433818 0.924133
Si Si3 0.602072 0.932766 0.748465
Si Si4 0.333561 0.630553 0.366638
Si Si5 0.500000 0.611025 0.000000
Si Si6 0.395586 0.749115 0.175529
O O1 0.616042 0.918391 0.674767
O O2 0.740914 0.882700 0.602076
O O3 0.576120 0.887593 0.556141
O O4 0.622562 0.812247 0.643412
O O5 0.913898 0.400540 0.901191
O O6 0.000000 0.500000 0.899849
O O7 0.000000 0.435458 0.000000
O O8 0.500000 0.919430 0.763214
O O9 0.661239 0.894349 0.794624
O O10 0.618354 0.000000 0.760576
O O11 0.349230 0.698809 0.361053
O O12 0.500000 0.759775 0.173747
O O13 0.369255 0.750000 0.250000
#
# Coordination Sequence:
#
# PCOD9513743 Si02
#       6
#    32  16  32  32   8  32
#     4  12  26  45  70 100 142 191 237 283 348 423
#     4  11  26  48  68  97 141 180 227 294 355 415
#     4  11  22  42  71 105 140 174 227 299 360 408
#     4  12  24  42  74 105 134 178 233 296 356 421
#     4  12  28  52  67  92 148 198 231 282 332 434
#     4  11  21  41  70 103 143 178 221 291 366 417
#
# _framework density 20.446743000000001
#
# number of rings (size 3 to 8) (size 9 to 14) (size 15 to 20)
#    0.000    0.526    6.316    1.895    1.474    3.368 
#    3.789    2.105    0.000    0.000    0.000    0.000 
#    0.000    0.000    0.000    0.000    0.000    0.000 
#
# Total GULP energy -212149.559722 kJ/mol
# GULP energy per Si atom -5582.883151 kJ/mol
# Density = 2.040020 g / cm^3
# Si number density = 20.446743 Si / 1000 Ang^3
#
#
#
# Elastic Constant Matrix: (Units=GPa)
#
#
# Indices 1 2 3 4 5 6 
#
# 1 154.3498 6.2555 39.6125 0.0000 0.0000 0.0000
# 2 6.2555 42.0785 -3.1090 0.0000 0.0000 0.0000
# 3 39.6125 -3.1090 107.5621 0.0000 0.0000 0.0000
# 4 0.0000 0.0000 0.0000 2.1353 0.0000 0.0000
# 5 0.0000 0.0000 0.0000 0.0000 16.0076 0.0000
# 6 0.0000 0.0000 0.0000 0.0000 0.0000-1861.9434
#
#
#
# Elastic Compliance Matrix: (Units=1/GPa)
#
#
# Indices 1 2 3 4 5 6 
#
# 1 0.007222 -0.001273 -0.002697 0.000000 0.000000 0.000000
# 2 -0.001273 0.024040 0.001164 0.000000 0.000000 0.000000
# 3 -0.002697 0.001164 0.010324 0.000000 0.000000 0.000000
# 4 0.000000 0.000000 0.000000 0.468325 0.000000 0.000000
# 5 0.000000 0.000000 0.000000 0.000000 0.062470 0.000000
# 6 0.000000 0.000000 0.000000 0.000000 0.000000 -0.000537
#
#
# Mechanical properties :
#
#
# Convention : Reuss Voigt Hill
#
# Bulk Modulus (GPa) = 27.79737 43.27870 35.53804
# Shear Modulus (GPa) = 8.48251 -351.34468 -171.43108
#
# Velocity S-wave (km/s) = 2.03902 -13.12277 -9.16650
# Velocity P-wave (km/s) = 4.37813 14.43596 9.72700
#
# Compressibility (1/GPa) = 0.03597462
#
# Stress axis : x y z
#
# Youngs Moduli (GPa) = 138.45714 41.59678 96.86450
#
# Poissons Ratio (x) = 0.05295 0.26121
# Poissons Ratio (y) = 0.17625 -0.11272
# Poissons Ratio (z) = 0.37337 -0.04840
#
# Static dielectric constant tensor:
#      x y z
#    x 1.745450 0.000000 0.000000 
#    y 0.000000 1.712580 0.000000 
#    z 0.000000 0.000000 1.708360 
# 
# From -- ./inp_files/29951.got.cif
#   From: 2010.05.17/outbox.cif.g08.bks.cpg/sg69_15_cif.got.tgz:29951.got - 2010.06.03 19:29:58.
