data_PCOD9513463
_publ_section_title
;
Structure prediction by ZEFSAII (Michael W. Deem and Ramdas Pophale) SiO2 
 PCOD9513463
Probable space group: F M M M
;
_chemical_formula_sum "Si O2"
_cell_formula_units_Z 160
_cell_length_a 22.477040
_cell_length_b 20.420039
_cell_length_c 17.816854
_cell_angle_alpha 90.000000
_cell_angle_beta 90.000000
_cell_angle_gamma 90.000000
_cell_volume 8177.615878
_symmetry_space_group_name_H-M "F M M M"
_symmetry_group_IT_number 69
_symmetry_cell_setting 'orthorhombic'
loop_
_space_group_symop_operation_xyz
x,y,z
-x,-y,z
x,-y,-z
-x,y,-z
-x,-y,-z
x,y,-z
-x,y,z
x,-y,z
x,1/2+y,1/2+z
-x,1/2-y,1/2+z
x,1/2-y,1/2-z
-x,1/2+y,1/2-z
-x,1/2-y,1/2-z
x,1/2+y,1/2-z
-x,1/2+y,1/2+z
x,1/2-y,1/2+z
1/2+x,y,1/2+z
1/2-x,-y,1/2+z
1/2+x,-y,1/2-z
1/2-x,y,1/2-z
1/2-x,-y,1/2-z
1/2+x,y,1/2-z
1/2-x,y,1/2+z
1/2+x,-y,1/2+z
1/2+x,1/2+y,z
1/2-x,1/2-y,z
1/2+x,1/2-y,-z
1/2-x,1/2+y,-z
1/2-x,1/2-y,-z
1/2+x,1/2+y,-z
1/2-x,1/2+y,z
1/2+x,1/2-y,z
loop_
_atom_site_type_symbol
_atom_site_label
_atom_site_fract_x
_atom_site_fract_y
_atom_site_fract_z
Si Si1 0.000000 0.077428 0.868095
Si Si2 0.428222 0.921103 0.000000
Si Si3 0.500000 0.733999 0.410648
Si Si4 0.179694 0.823301 0.233399
Si Si5 0.105201 0.338230 0.414650
Si Si6 0.123457 0.426500 0.845961
Si Si7 0.000000 0.887879 0.295724
O O1 0.060331 0.099706 0.909189
O O2 0.000000 0.122142 0.792814
O O3 0.000000 0.000000 0.852995
O O4 0.391694 0.897949 0.927897
O O5 0.500000 0.911136 0.000000
O O6 0.423317 0.000000 0.000000
O O7 0.500000 0.716553 0.500000
O O8 0.559626 0.777485 0.401232
O O9 0.500000 0.675773 0.349575
O O10 0.156531 0.750000 0.250000
O O11 0.250000 0.821975 0.250000
O O12 0.155247 0.840323 0.150097
O O13 0.156234 0.876601 0.292156
O O14 0.128551 0.333456 0.500000
O O15 0.149383 0.500000 0.849780
O O16 0.057594 0.429706 0.812757
#
# Coordination Sequence:
#
# PCOD9513463 Si02
#       7
#    16  16  16  32  32  32  16
#     4  11  22  36  61  96 130 163 201 244 302 370
#     4   9  18  34  58  93 132 162 193 239 304 384
#     4   9  21  36  57  93 128 163 199 245 314 374
#     4  11  25  46  64  87 119 162 213 264 309 357
#     4  10  22  41  63  89 124 161 204 253 305 371
#     4  11  22  38  61  90 125 163 201 246 305 369
#     4  12  20  30  59  93 126 159 194 240 301 369
#
# _framework density 19.565605000000001
#
# number of rings (size 3 to 8) (size 9 to 14) (size 15 to 20)
#    0.000    1.500    3.000    3.000    1.400    2.000 
#    3.600    1.000    0.000    0.000    0.000    0.000 
#    0.000    0.000    0.000    0.000    0.000    0.000 
#
# Total GULP energy -222981.570461 kJ/mol
# GULP energy per Si atom -5574.539262 kJ/mol
# Density = 1.952107 g / cm^3
# Si number density = 19.565605 Si / 1000 Ang^3
#
#
#
# Elastic Constant Matrix: (Units=GPa)
#
#
# Indices 1 2 3 4 5 6 
#
# 1 75.6402 31.7427 55.5516 0.0000 0.0000 0.0000
# 2 31.7427 116.2465 55.3498 0.0000 0.0000 0.0000
# 3 55.5516 55.3498 189.9814 0.0000 0.0000 0.0000
# 4 0.0000 0.0000 0.0000 4.6280 0.0000 0.0000
# 5 0.0000 0.0000 0.0000 0.0000 5.8947 0.0000
# 6 0.0000 0.0000 0.0000 0.0000 0.0000 -0.8864
#
#
#
# Elastic Compliance Matrix: (Units=1/GPa)
#
#
# Indices 1 2 3 4 5 6 
#
# 1 0.017550 -0.002727 -0.004337 0.000000 0.000000 0.000000
# 2 -0.002727 0.010412 -0.002236 0.000000 0.000000 0.000000
# 3 -0.004337 -0.002236 0.007183 0.000000 0.000000 0.000000
# 4 0.000000 0.000000 0.000000 0.216078 0.000000 0.000000
# 5 0.000000 0.000000 0.000000 0.000000 0.169644 0.000000
# 6 0.000000 0.000000 0.000000 0.000000 0.000000 -1.128153
#
#
# Mechanical properties :
#
#
# Convention : Reuss Voigt Hill
#
# Bulk Modulus (GPa) = 60.44269 74.12848 67.28559
# Shear Modulus (GPa) = -7.31882 17.87551 5.27835
#
# Velocity S-wave (km/s) = -1.93618 3.02589 1.64427
# Velocity P-wave (km/s) = 5.09520 7.08360 6.17003
#
# Compressibility (1/GPa) = 0.01654460
#
# Stress axis : x y z
#
# Youngs Moduli (GPa) = 56.97897 96.04550 139.21102
#
# Poissons Ratio (x) = 0.26194 0.60379
# Poissons Ratio (y) = 0.15539 0.31127
# Poissons Ratio (z) = 0.24713 0.21475
#
# Static dielectric constant tensor:
#      x y z
#    x 1.687160 0.000000 0.000000 
#    y 0.000000 1.753750 0.000000 
#    z 0.000000 0.000000 1.827880 
# 
# From -- ./inp_files/24715.got.cif
#   From: 2010.05.17/outbox.cif.g08.bks.cpg/sg69_13_cif.got.tgz:24715.got - 2010.06.03 19:29:58.
