data_PCOD9513024
_publ_section_title
;
Structure prediction by ZEFSAII (Michael W. Deem and Ramdas Pophale) SiO2 
 PCOD9513024
Probable space group: F M M M
;
_chemical_formula_sum "Si O2"
_cell_formula_units_Z 160
_cell_length_a 15.873665
_cell_length_b 16.185435
_cell_length_c 29.558544
_cell_angle_alpha 90.000000
_cell_angle_beta 90.000000
_cell_angle_gamma 90.000000
_cell_volume 7594.245357
_symmetry_space_group_name_H-M "F M M M"
_symmetry_group_IT_number 69
_symmetry_cell_setting 'orthorhombic'
loop_
_space_group_symop_operation_xyz
x,y,z
-x,-y,z
x,-y,-z
-x,y,-z
-x,-y,-z
x,y,-z
-x,y,z
x,-y,z
x,1/2+y,1/2+z
-x,1/2-y,1/2+z
x,1/2-y,1/2-z
-x,1/2+y,1/2-z
-x,1/2-y,1/2-z
x,1/2+y,1/2-z
-x,1/2+y,1/2+z
x,1/2-y,1/2+z
1/2+x,y,1/2+z
1/2-x,-y,1/2+z
1/2+x,-y,1/2-z
1/2-x,y,1/2-z
1/2-x,-y,1/2-z
1/2+x,y,1/2-z
1/2-x,y,1/2+z
1/2+x,-y,1/2+z
1/2+x,1/2+y,z
1/2-x,1/2-y,z
1/2+x,1/2-y,-z
1/2-x,1/2+y,-z
1/2-x,1/2-y,-z
1/2+x,1/2+y,-z
1/2-x,1/2+y,z
1/2+x,1/2-y,z
loop_
_atom_site_type_symbol
_atom_site_label
_atom_site_fract_x
_atom_site_fract_y
_atom_site_fract_z
Si Si1 0.162678 0.700767 0.051423
Si Si2 0.897987 0.403495 0.132678
Si Si3 0.899510 0.666799 0.226933
Si Si4 0.596363 0.374601 0.049771
Si Si5 0.896485 0.000000 0.124994
Si Si6 0.841232 0.000000 0.773359
O O1 0.250000 0.750000 0.057817
O O2 0.144646 0.631797 0.087942
O O3 0.097903 0.776613 0.056223
O O4 0.159226 0.669371 0.000000
O O5 0.879834 0.500000 0.140155
O O6 0.868081 0.351895 0.176339
O O7 0.000000 0.395719 0.128637
O O8 0.865029 0.750000 0.250000
O O9 0.884044 0.584346 0.255888
O O10 0.000000 0.677287 0.222800
O O11 0.500000 0.402329 0.046753
O O12 0.629255 0.422433 0.093392
O O13 0.636096 0.391659 0.000000
O O14 0.849293 0.000000 0.172543
O O15 0.000000 0.000000 0.132988
O O16 0.750000 0.000000 0.750000
#
# Coordination Sequence:
#
# PCOD9513024 Si02
#       6
#    32  32  32  32  16  16
#     4  10  22  39  57  86 126 164 201 245 306 376
#     4  10  21  40  66  91 118 158 210 264 312 362
#     4  10  22  43  67  87 119 165 211 262 314 368
#     4   9  18  35  59  88 122 156 198 254 305 356
#     4  10  21  36  62  91 117 156 205 246 298 373
#     4  12  26  41  59  94 132 160 205 262 316 379
#
# _framework density 21.068584000000001
#
# number of rings (size 3 to 8) (size 9 to 14) (size 15 to 20)
#    0.000    2.000    1.000    1.800    2.800    4.800 
#    1.800    1.000    0.000    0.000    0.000    0.000 
#    0.000    0.000    0.000    0.000    0.000    0.000 
#
# Total GULP energy -223274.466152 kJ/mol
# GULP energy per Si atom -5581.861654 kJ/mol
# Density = 2.102063 g / cm^3
# Si number density = 21.068584 Si / 1000 Ang^3
#
#
#
# Elastic Constant Matrix: (Units=GPa)
#
#
# Indices 1 2 3 4 5 6 
#
# 1 33.2236 16.7984 33.3048 0.0000 0.0000 0.0000
# 2 16.7984 117.0444 74.1130 0.0000 0.0000 0.0000
# 3 33.3048 74.1130 192.5427 0.0000 0.0000 0.0000
# 4 0.0000 0.0000 0.0000 42.5213 0.0000 0.0000
# 5 0.0000 0.0000 0.0000 0.0000 -62.4389 0.0000
# 6 0.0000 0.0000 0.0000 0.0000 0.0000 59.5503
#
#
#
# Elastic Compliance Matrix: (Units=1/GPa)
#
#
# Indices 1 2 3 4 5 6 
#
# 1 0.036652 -0.001647 -0.005706 0.000000 0.000000 0.000000
# 2 -0.001647 0.011371 -0.004092 0.000000 0.000000 0.000000
# 3 -0.005706 -0.004092 0.007756 0.000000 0.000000 0.000000
# 4 0.000000 0.000000 0.000000 0.023518 0.000000 0.000000
# 5 0.000000 0.000000 0.000000 0.000000 -0.016016 0.000000
# 6 0.000000 0.000000 0.000000 0.000000 0.000000 0.016793
#
#
# Mechanical properties :
#
#
# Convention : Reuss Voigt Hill
#
# Bulk Modulus (GPa) = 30.40594 65.69368 48.04981
# Shear Modulus (GPa) = 43.88811 22.49952 33.19381
#
# Velocity S-wave (km/s) = 4.56906 3.27145 3.97358
# Velocity P-wave (km/s) = 6.50371 6.74673 6.62634
#
# Compressibility (1/GPa) = 0.03288831
#
# Stress axis : x y z
#
# Youngs Moduli (GPa) = 27.28395 87.94064 128.93799
#
# Poissons Ratio (x) = 0.14488 0.73567
# Poissons Ratio (y) = 0.04495 0.52762
# Poissons Ratio (z) = 0.15567 0.35986
#
# Static dielectric constant tensor:
#      x y z
#    x 2.462130 0.000000 0.000000 
#    y 0.000000 1.756110 0.000000 
#    z 0.000000 0.000000 1.755190 
# 
# From -- ./inp_files/19578.got.cif
#   From: 2010.05.17/outbox.cif.g08.bks.cpg/sg69_10_cif.got.tgz:19578.got - 2010.06.03 19:29:58.
