data_PCOD9513243
_publ_section_title
;
Structure prediction by ZEFSAII (Michael W. Deem and Ramdas Pophale) SiO2 
 PCOD9513243
Probable space group: F M M M
;
_chemical_formula_sum "Si O2"
_cell_formula_units_Z 168
_cell_length_a 16.903485
_cell_length_b 27.431756
_cell_length_c 18.943019
_cell_angle_alpha 90.000000
_cell_angle_beta 90.000000
_cell_angle_gamma 90.000000
_cell_volume 8783.731596
_symmetry_space_group_name_H-M "F M M M"
_symmetry_group_IT_number 69
_symmetry_cell_setting 'orthorhombic'
loop_
_space_group_symop_operation_xyz
x,y,z
-x,-y,z
x,-y,-z
-x,y,-z
-x,-y,-z
x,y,-z
-x,y,z
x,-y,z
x,1/2+y,1/2+z
-x,1/2-y,1/2+z
x,1/2-y,1/2-z
-x,1/2+y,1/2-z
-x,1/2-y,1/2-z
x,1/2+y,1/2-z
-x,1/2+y,1/2+z
x,1/2-y,1/2+z
1/2+x,y,1/2+z
1/2-x,-y,1/2+z
1/2+x,-y,1/2-z
1/2-x,y,1/2-z
1/2-x,-y,1/2-z
1/2+x,y,1/2-z
1/2-x,y,1/2+z
1/2+x,-y,1/2+z
1/2+x,1/2+y,z
1/2-x,1/2-y,z
1/2+x,1/2-y,-z
1/2-x,1/2+y,-z
1/2-x,1/2-y,-z
1/2+x,1/2+y,-z
1/2-x,1/2+y,z
1/2+x,1/2-y,z
loop_
_atom_site_type_symbol
_atom_site_label
_atom_site_fract_x
_atom_site_fract_y
_atom_site_fract_z
Si Si1 0.910498 0.573379 0.611176
Si Si2 0.592764 0.943107 0.221830
Si Si3 0.409525 0.236001 0.832267
Si Si4 0.846083 0.000000 0.000000
Si Si5 0.341432 0.326573 0.917791
Si Si6 0.200411 0.642982 0.822967
O O1 0.895588 0.564914 0.694035
O O2 0.853479 0.542526 0.561680
O O3 0.904743 0.630585 0.594894
O O4 0.000000 0.556430 0.595301
O O5 0.500000 0.931261 0.207342
O O6 0.653561 0.907712 0.182769
O O7 0.605284 0.000000 0.205885
O O8 0.500000 0.232133 0.857668
O O9 0.411236 0.250000 0.750000
O O10 0.364615 0.278235 0.875014
O O11 0.363431 0.185373 0.833926
O O12 0.262649 0.350507 0.885496
O O13 0.333919 0.315604 0.000000
O O14 0.250000 0.649910 0.750000
#
# Coordination Sequence:
#
# PCOD9513243 Si02
#       6
#    32  32  32   8  32  32
#     4  11  20  34  56  88 128 169 209 251 313 385
#     4  10  21  39  64  94 125 164 220 269 306 371
#     4  11  23  41  66  90 119 165 215 256 303 375
#     4  12  21  32  56  86 134 182 201 252 331 396
#     4  12  26  41  61  94 129 166 208 265 326 384
#     4  12  23  40  63  92 126 168 207 260 324 377
#
# _framework density 19.126266999999999
#
# number of rings (size 3 to 8) (size 9 to 14) (size 15 to 20)
#    0.000    0.762    5.714    2.571    0.000    6.095 
#    1.714    0.000    0.000    1.714    0.000    1.333 
#    0.000    0.000    0.000    0.000    0.000    0.000 
#
# Total GULP energy -234219.836615 kJ/mol
# GULP energy per Si atom -5576.662777 kJ/mol
# Density = 1.908273 g / cm^3
# Si number density = 19.126267 Si / 1000 Ang^3
#
#
#
# Elastic Constant Matrix: (Units=GPa)
#
#
# Indices 1 2 3 4 5 6 
#
# 1 101.2163 56.5911 49.5959 0.0000 0.0000 0.0000
# 2 56.5911 125.9250 52.7230 0.0000 0.0000 0.0000
# 3 49.5959 52.7230 81.1559 0.0000 0.0000 0.0000
# 4 0.0000 0.0000 0.0000 14.2040 0.0000 0.0000
# 5 0.0000 0.0000 0.0000 0.0000 104.8993 0.0000
# 6 0.0000 0.0000 0.0000 0.0000 0.0000 24.1712
#
#
#
# Elastic Compliance Matrix: (Units=1/GPa)
#
#
# Indices 1 2 3 4 5 6 
#
# 1 0.015521 -0.004126 -0.006805 0.000000 0.000000 0.000000
# 2 -0.004126 0.012005 -0.005278 0.000000 0.000000 0.000000
# 3 -0.006805 -0.005278 0.019909 0.000000 0.000000 0.000000
# 4 0.000000 0.000000 0.000000 0.070403 0.000000 0.000000
# 5 0.000000 0.000000 0.000000 0.000000 0.009533 0.000000
# 6 0.000000 0.000000 0.000000 0.000000 0.000000 0.041372
#
#
# Mechanical properties :
#
#
# Convention : Reuss Voigt Hill
#
# Bulk Modulus (GPa) = 66.58490 69.56858 68.07674
# Shear Modulus (GPa) = 24.25235 38.61405 31.43320
#
# Velocity S-wave (km/s) = 3.56478 4.49809 4.05836
# Velocity P-wave (km/s) = 7.19948 7.96426 7.59150
#
# Compressibility (1/GPa) = 0.01501842
#
# Stress axis : x y z
#
# Youngs Moduli (GPa) = 64.42841 83.29706 50.22855
#
# Poissons Ratio (x) = 0.34370 0.34179
# Poissons Ratio (y) = 0.26585 0.26509
# Poissons Ratio (z) = 0.43841 0.43961
#
# Static dielectric constant tensor:
#      x y z
#    x 1.709050 0.000000 0.000000 
#    y 0.000000 1.680330 0.000000 
#    z 0.000000 0.000000 1.646190 
# 
# From -- ./inp_files/29973.got.cif
#   From: 2010.05.17/outbox.cif.g08.bks.cpg/sg69_15_cif.got.tgz:29973.got - 2010.06.03 19:29:58.
