data_PCOD9513312
_publ_section_title
;
Structure prediction by ZEFSAII (Michael W. Deem and Ramdas Pophale) SiO2 
 PCOD9513312
Probable space group: F M M M
;
_chemical_formula_sum "Si O2"
_cell_formula_units_Z 192
_cell_length_a 19.168813
_cell_length_b 13.901688
_cell_length_c 33.807671
_cell_angle_alpha 90.000000
_cell_angle_beta 90.000000
_cell_angle_gamma 90.000000
_cell_volume 9009.029548
_symmetry_space_group_name_H-M "F M M M"
_symmetry_group_IT_number 69
_symmetry_cell_setting 'orthorhombic'
loop_
_space_group_symop_operation_xyz
x,y,z
-x,-y,z
x,-y,-z
-x,y,-z
-x,-y,-z
x,y,-z
-x,y,z
x,-y,z
x,1/2+y,1/2+z
-x,1/2-y,1/2+z
x,1/2-y,1/2-z
-x,1/2+y,1/2-z
-x,1/2-y,1/2-z
x,1/2+y,1/2-z
-x,1/2+y,1/2+z
x,1/2-y,1/2+z
1/2+x,y,1/2+z
1/2-x,-y,1/2+z
1/2+x,-y,1/2-z
1/2-x,y,1/2-z
1/2-x,-y,1/2-z
1/2+x,y,1/2-z
1/2-x,y,1/2+z
1/2+x,-y,1/2+z
1/2+x,1/2+y,z
1/2-x,1/2-y,z
1/2+x,1/2-y,-z
1/2-x,1/2+y,-z
1/2-x,1/2-y,-z
1/2+x,1/2+y,-z
1/2-x,1/2+y,z
1/2+x,1/2-y,z
loop_
_atom_site_type_symbol
_atom_site_label
_atom_site_fract_x
_atom_site_fract_y
_atom_site_fract_z
Si Si1 0.889265 0.607480 0.916106
Si Si2 0.371546 0.252961 0.140705
Si Si3 0.417206 0.615324 0.702587
Si Si4 0.417721 0.693618 0.500000
Si Si5 0.583064 0.893752 0.708715
Si Si6 0.275869 0.891129 0.411662
Si Si7 0.169553 0.612620 0.500000
O O1 0.916002 0.500000 0.907547
O O2 0.918700 0.697369 0.891560
O O3 0.896158 0.633150 0.961714
O O4 0.806989 0.609825 0.905763
O O5 0.364046 0.164871 0.172148
O O6 0.402108 0.330240 0.170903
O O7 0.314754 0.312823 0.115352
O O8 0.500000 0.643911 0.696473
O O9 0.415421 0.500000 0.698772
O O10 0.395849 0.640416 0.747513
O O11 0.500000 0.703237 0.500000
O O12 0.385225 0.800322 0.500000
O O13 0.500000 0.900994 0.712315
O O14 0.613150 0.000000 0.702803
O O15 0.289060 0.874469 0.458645
O O16 0.301362 0.000000 0.402915
O O17 0.144900 0.500000 0.500000
#
# Coordination Sequence:
#
# PCOD9513312 Si02
#       7
#    32  32  32  16  32  32  16
#     4  11  25  43  63  89 124 163 206 256 305 359
#     4  12  20  32  59  92 122 153 201 260 310 368
#     4   9  19  36  57  84 123 169 212 254 307 370
#     4  12  26  44  67  94 125 163 204 248 307 367
#     4   9  19  36  57  84 121 165 212 260 308 364
#     4  10  22  41  66  92 117 157 210 259 303 354
#     4  10  21  43  70  93 122 159 205 253 297 353
#
# _framework density 21.311952000000002
#
# number of rings (size 3 to 8) (size 9 to 14) (size 15 to 20)
#    0.000    1.667    1.667    4.250    0.000    5.500 
#    0.000    0.000    0.000    8.000    0.000   18.667 
#    0.000    0.000    0.000    0.000    0.000    0.000 
#
# Total GULP energy -267550.050190 kJ/mol
# GULP energy per Si atom -5573.959379 kJ/mol
# Density = 2.126345 g / cm^3
# Si number density = 21.311952 Si / 1000 Ang^3
#
#
#
# Elastic Constant Matrix: (Units=GPa)
#
#
# Indices 1 2 3 4 5 6 
#
# 1 63.3905 39.4456 34.3098 0.0000 0.0000 0.0000
# 2 39.4456 142.6403 60.2563 0.0000 0.0000 0.0000
# 3 34.3098 60.2563 170.7100 0.0000 0.0000 0.0000
# 4 0.0000 0.0000 0.0000 78.1147 0.0000 0.0000
# 5 0.0000 0.0000 0.0000 0.0000 18.5666 0.0000
# 6 0.0000 0.0000 0.0000 0.0000 0.0000 12.8390
#
#
#
# Elastic Compliance Matrix: (Units=1/GPa)
#
#
# Indices 1 2 3 4 5 6 
#
# 1 0.019866 -0.004474 -0.002413 0.000000 0.000000 0.000000
# 2 -0.004474 0.009247 -0.002365 0.000000 0.000000 0.000000
# 3 -0.002413 -0.002365 0.007178 0.000000 0.000000 0.000000
# 4 0.000000 0.000000 0.000000 0.012802 0.000000 0.000000
# 5 0.000000 0.000000 0.000000 0.000000 0.053860 0.000000
# 6 0.000000 0.000000 0.000000 0.000000 0.000000 0.077888
#
#
# Mechanical properties :
#
#
# Convention : Reuss Voigt Hill
#
# Bulk Modulus (GPa) = 56.22514 71.64047 63.93280
# Shear Modulus (GPa) = 24.35787 38.08602 31.22194
#
# Velocity S-wave (km/s) = 3.38438 4.23196 3.83168
# Velocity P-wave (km/s) = 6.45843 7.58733 7.04552
#
# Compressibility (1/GPa) = 0.01778564
#
# Stress axis : x y z
#
# Youngs Moduli (GPa) = 50.33848 108.14521 139.32225
#
# Poissons Ratio (x) = 0.48385 0.33624
# Poissons Ratio (y) = 0.22522 0.32945
# Poissons Ratio (z) = 0.12149 0.25573
#
# Static dielectric constant tensor:
#      x y z
#    x 1.754530 0.000000 0.000000 
#    y 0.000000 1.840810 0.000000 
#    z 0.000000 0.000000 1.802000 
# 
# From -- ./inp_files/43232.got.cif
#   From: 2010.05.17/outbox.cif.g08.bks.cpg/sg69_22_cif.got.tgz:43232.got - 2010.06.03 19:29:58.
