data_PCOD9513611
_publ_section_title
;
Structure prediction by ZEFSAII (Michael W. Deem and Ramdas Pophale) SiO2 
 PCOD9513611
Probable space group: F M M M
;
_chemical_formula_sum "Si O2"
_cell_formula_units_Z 160
_cell_length_a 28.668316
_cell_length_b 20.637239
_cell_length_c 17.616424
_cell_angle_alpha 90.000000
_cell_angle_beta 90.000000
_cell_angle_gamma 90.000000
_cell_volume 10422.491058
_symmetry_space_group_name_H-M "F M M M"
_symmetry_group_IT_number 69
_symmetry_cell_setting 'orthorhombic'
loop_
_space_group_symop_operation_xyz
x,y,z
-x,-y,z
x,-y,-z
-x,y,-z
-x,-y,-z
x,y,-z
-x,y,z
x,-y,z
x,1/2+y,1/2+z
-x,1/2-y,1/2+z
x,1/2-y,1/2-z
-x,1/2+y,1/2-z
-x,1/2-y,1/2-z
x,1/2+y,1/2-z
-x,1/2+y,1/2+z
x,1/2-y,1/2+z
1/2+x,y,1/2+z
1/2-x,-y,1/2+z
1/2+x,-y,1/2-z
1/2-x,y,1/2-z
1/2-x,-y,1/2-z
1/2+x,y,1/2-z
1/2-x,y,1/2+z
1/2+x,-y,1/2+z
1/2+x,1/2+y,z
1/2-x,1/2-y,z
1/2+x,1/2-y,-z
1/2-x,1/2+y,-z
1/2-x,1/2-y,-z
1/2+x,1/2+y,-z
1/2-x,1/2+y,z
1/2+x,1/2-y,z
loop_
_atom_site_type_symbol
_atom_site_label
_atom_site_fract_x
_atom_site_fract_y
_atom_site_fract_z
Si Si1 0.305369 0.240827 0.584700
Si Si2 0.793719 0.500000 0.410808
Si Si3 0.054278 0.423864 0.090941
Si Si4 0.644638 0.631937 0.347713
Si Si5 0.682731 0.500000 0.416653
Si Si6 0.299387 0.123121 0.299855
O O1 0.323011 0.223343 0.500000
O O2 0.250000 0.250000 0.577310
O O3 0.331578 0.305494 0.613468
O O4 0.306226 0.185382 0.647464
O O5 0.811694 0.500000 0.500000
O O6 0.738104 0.500000 0.419422
O O7 0.803672 0.562212 0.357120
O O8 0.063971 0.500000 0.108915
O O9 0.090338 0.377098 0.133113
O O10 0.000000 0.411722 0.108851
O O11 0.059920 0.416459 0.000000
O O12 0.667467 0.566353 0.379543
O O13 0.659170 0.628688 0.260544
O O14 0.661773 0.500000 0.500000
O O15 0.250000 0.121878 0.250000
#
# Coordination Sequence:
#
# PCOD9513611 Si02
#       6
#    32  16  32  32  16  32
#     4  11  22  35  50  71 103 148 189 219 258 321
#     4  11  22  36  50  70 105 148 180 217 262 316
#     4   9  18  33  53  80 112 140 172 219 276 333
#     4  12  21  31  54  77 108 140 177 219 265 318
#     4  11  19  29  46  74 103 133 177 213 250 312
#     4  12  22  35  50  73 106 140 180 227 268 309
#
# _framework density 15.351416
#
# number of rings (size 3 to 8) (size 9 to 14) (size 15 to 20)
#    0.000    1.000    5.000    4.500    0.000    3.200 
#    0.000    0.000    0.000    2.400    0.000    0.000 
#    0.000    3.200    0.000    0.000    0.000    0.200 
#
# Total GULP energy -222825.120790 kJ/mol
# GULP energy per Si atom -5570.628020 kJ/mol
# Density = 1.531648 g / cm^3
# Si number density = 15.351416 Si / 1000 Ang^3
#
#
#
# Elastic Constant Matrix: (Units=GPa)
#
#
# Indices 1 2 3 4 5 6 
#
# 1 95.8692 39.3815 42.1314 0.0000 0.0000 0.0000
# 2 39.3815 117.3534 69.4562 0.0000 0.0000 0.0000
# 3 42.1314 69.4562 139.2863 0.0000 0.0000 0.0000
# 4 0.0000 0.0000 0.0000 30.1923 0.0000 0.0000
# 5 0.0000 0.0000 0.0000 0.0000 22.2852 0.0000
# 6 0.0000 0.0000 0.0000 0.0000 0.0000 25.2499
#
#
#
# Elastic Compliance Matrix: (Units=1/GPa)
#
#
# Indices 1 2 3 4 5 6 
#
# 1 0.012651 -0.002810 -0.002426 0.000000 0.000000 0.000000
# 2 -0.002810 0.012713 -0.005490 0.000000 0.000000 0.000000
# 3 -0.002426 -0.005490 0.010651 0.000000 0.000000 0.000000
# 4 0.000000 0.000000 0.000000 0.033121 0.000000 0.000000
# 5 0.000000 0.000000 0.000000 0.000000 0.044873 0.000000
# 6 0.000000 0.000000 0.000000 0.000000 0.000000 0.039604
#
#
# Mechanical properties :
#
#
# Convention : Reuss Voigt Hill
#
# Bulk Modulus (GPa) = 68.65858 72.71635 70.68746
# Shear Modulus (GPa) = 27.79046 28.98148 28.38597
#
# Velocity S-wave (km/s) = 4.25936 4.34968 4.30476
# Velocity P-wave (km/s) = 8.30730 8.52625 8.41749
#
# Compressibility (1/GPa) = 0.01456482
#
# Stress axis : x y z
#
# Youngs Moduli (GPa) = 79.04470 78.65791 93.89153
#
# Poissons Ratio (x) = 0.22102 0.22774
# Poissons Ratio (y) = 0.22211 0.51543
# Poissons Ratio (z) = 0.19173 0.43180
#
# Static dielectric constant tensor:
#      x y z
#    x 1.527440 0.000000 0.000000 
#    y 0.000000 1.501430 0.000000 
#    z 0.000000 0.000000 1.587430 
# 
# From -- ./inp_files/23480.got.cif
#   From: 2010.05.17/outbox.cif.g08.bks.cpg/sg69_12_cif.got.tgz:23480.got - 2010.06.03 19:29:58.
