data_PCOD9513974
_publ_section_title
;
Structure prediction by ZEFSAII (Michael W. Deem and Ramdas Pophale) SiO2 
 PCOD9513974
Probable space group: F M M M
;
_chemical_formula_sum "Si O2"
_cell_formula_units_Z 40
_cell_length_a 24.000000
_cell_length_b 24.000000
_cell_length_c 15.000000
_cell_angle_alpha 90.000000
_cell_angle_beta 90.000000
_cell_angle_gamma 90.000000
_cell_volume 8640.000000
_symmetry_space_group_name_H-M "F M M M"
_symmetry_group_IT_number 69
_symmetry_cell_setting 'orthorhombic'
loop_
_space_group_symop_operation_xyz
x,y,z
-x,-y,z
x,-y,-z
-x,y,-z
-x,-y,-z
x,y,-z
-x,y,z
x,-y,z
x,1/2+y,1/2+z
-x,1/2-y,1/2+z
x,1/2-y,1/2-z
-x,1/2+y,1/2-z
-x,1/2-y,1/2-z
x,1/2+y,1/2-z
-x,1/2+y,1/2+z
x,1/2-y,1/2+z
1/2+x,y,1/2+z
1/2-x,-y,1/2+z
1/2+x,-y,1/2-z
1/2-x,y,1/2-z
1/2-x,-y,1/2-z
1/2+x,y,1/2-z
1/2-x,y,1/2+z
1/2+x,-y,1/2+z
1/2+x,1/2+y,z
1/2-x,1/2-y,z
1/2+x,1/2-y,-z
1/2-x,1/2+y,-z
1/2-x,1/2-y,-z
1/2+x,1/2+y,-z
1/2-x,1/2+y,z
1/2+x,1/2-y,z
loop_
_atom_site_type_symbol
_atom_site_label
_atom_site_fract_x
_atom_site_fract_y
_atom_site_fract_z
Si Si1 0.893714 0.565997 0.600967
Si Si2 0.500000 0.433016 0.210780
Si Si3 0.811993 0.774676 0.102289
Si Si4 0.123344 0.338836 0.100876
Si Si5 0.500000 0.122696 0.100155
Si Si6 0.685566 0.379066 0.229721
O O1 0.891243 0.588363 0.500000
O O2 0.901639 0.500000 0.593751
O O3 0.839892 0.577420 0.660459
O O4 0.945908 0.588577 0.657777
O O5 0.500000 0.500000 0.206184
O O6 0.500000 0.417011 0.314226
O O7 0.750000 0.750000 0.113517
O O8 0.854373 0.723695 0.111841
O O9 0.820894 0.820947 0.176467
O O10 0.815498 0.796107 0.000000
O O11 0.056883 0.342559 0.106777
O O12 0.151707 0.375294 0.178012
O O13 0.139623 0.356724 0.000000
O O14 0.500000 0.096643 0.000000
O O15 0.750000 0.388359 0.250000
#
# Coordination Sequence:
#
# PCOD9513974 Si02
#       6
#    32  16  32  32  16  32
#     4  10  22  40  61  85 114 148 188 238 294 346
#     4  10  19  37  63  88 109 142 192 241 288 343
#     4  10  20  35  55  83 116 149 190 234 274 330
#     4  10  21  36  55  81 118 153 187 228 279 339
#     4  10  20  38  59  84 117 154 187 230 290 340
#     4  12  22  34  59  86 115 149 196 234 282 334
#
# _framework density 4.6296299999999997
#
# number of rings (size 3 to 8) (size 9 to 14) (size 15 to 20)
#    0.000    1.600    4.000    1.500    0.000    2.600 
#    0.000    3.000    0.000    3.000    0.000    0.000 
#    0.000    0.000    0.000    0.000    0.000    0.000 
#
# Total GULP energy -223073.680215 kJ/mol
# GULP energy per Si atom -5576.842005 kJ/mol
# Density = 0.461909 g / cm^3
# Si number density = 4.629630 Si / 1000 Ang^3
#
#
#
# Elastic Constant Matrix: (Units=GPa)
#
#
# Indices 1 2 3 4 5 6 
#
# 1 113.6430 19.3347 68.6599 0.0000 0.0000 0.0000
# 2 19.3347 21.6597 25.4534 0.0000 0.0000 0.0000
# 3 68.6599 25.4534 155.2743 0.0000 0.0000 0.0000
# 4 0.0000 0.0000 0.0000 27.3417 0.0000 0.0000
# 5 0.0000 0.0000 0.0000 0.0000 23.2356 0.0000
# 6 0.0000 0.0000 0.0000 0.0000 0.0000 18.6088
#
#
#
# Elastic Compliance Matrix: (Units=1/GPa)
#
#
# Indices 1 2 3 4 5 6 
#
# 1 0.012571 -0.005808 -0.004607 0.000000 0.000000 0.000000
# 2 -0.005808 0.059868 -0.007246 0.000000 0.000000 0.000000
# 3 -0.004607 -0.007246 0.009665 0.000000 0.000000 0.000000
# 4 0.000000 0.000000 0.000000 0.036574 0.000000 0.000000
# 5 0.000000 0.000000 0.000000 0.000000 0.043037 0.000000
# 6 0.000000 0.000000 0.000000 0.000000 0.000000 0.053738
#
#
# Mechanical properties :
#
#
# Convention : Reuss Voigt Hill
#
# Bulk Modulus (GPa) = 21.37516 57.49701 39.43609
# Shear Modulus (GPa) = 18.77101 25.64581 22.20841
#
# Velocity S-wave (km/s) = 3.18722 3.72543 3.46678
# Velocity P-wave (km/s) = 5.01120 7.04421 6.11281
#
# Compressibility (1/GPa) = 0.04678327
#
# Stress axis : x y z
#
# Youngs Moduli (GPa) = 79.54956 16.70338 103.46722
#
# Poissons Ratio (x) = 0.09701 0.47662
# Poissons Ratio (y) = 0.46203 0.74969
# Poissons Ratio (z) = 0.36645 0.12103
#
# Static dielectric constant tensor:
#      x y z
#    x 1.642250 0.000000 0.000000 
#    y 0.000000 1.646210 0.000000 
#    z 0.000000 0.000000 1.663150 
# 
# From -- ./inp_files/17785.got.cif
#   From: 2010.05.17/outbox.ucp.g08.bks.cvg/sg69_9_cif.got.tgz:17785.got - 2010.06.11 16:51:34.
