data_PCOD9513242
_publ_section_title
;
Structure prediction by ZEFSAII (Michael W. Deem and Ramdas Pophale) SiO2 
 PCOD9513242
Probable space group: F M M M
;
_chemical_formula_sum "Si O2"
_cell_formula_units_Z 136
_cell_length_a 17.330685
_cell_length_b 18.812105
_cell_length_c 21.063242
_cell_angle_alpha 90.000000
_cell_angle_beta 90.000000
_cell_angle_gamma 90.000000
_cell_volume 6867.178563
_symmetry_space_group_name_H-M "F M M M"
_symmetry_group_IT_number 69
_symmetry_cell_setting 'orthorhombic'
loop_
_space_group_symop_operation_xyz
x,y,z
-x,-y,z
x,-y,-z
-x,y,-z
-x,-y,-z
x,y,-z
-x,y,z
x,-y,z
x,1/2+y,1/2+z
-x,1/2-y,1/2+z
x,1/2-y,1/2-z
-x,1/2+y,1/2-z
-x,1/2-y,1/2-z
x,1/2+y,1/2-z
-x,1/2+y,1/2+z
x,1/2-y,1/2+z
1/2+x,y,1/2+z
1/2-x,-y,1/2+z
1/2+x,-y,1/2-z
1/2-x,y,1/2-z
1/2-x,-y,1/2-z
1/2+x,y,1/2-z
1/2-x,y,1/2+z
1/2+x,-y,1/2+z
1/2+x,1/2+y,z
1/2-x,1/2-y,z
1/2+x,1/2-y,-z
1/2-x,1/2+y,-z
1/2-x,1/2-y,-z
1/2+x,1/2+y,-z
1/2-x,1/2+y,z
1/2+x,1/2-y,z
loop_
_atom_site_type_symbol
_atom_site_label
_atom_site_fract_x
_atom_site_fract_y
_atom_site_fract_z
Si Si1 0.909112 0.000000 0.112066
Si Si2 0.592308 0.500000 0.263993
Si Si3 0.694155 0.129408 0.573237
Si Si4 0.336167 0.634948 0.335066
Si Si5 0.750000 0.750000 0.750000
Si Si6 0.913642 0.737751 0.925303
O O1 0.895524 0.000000 0.188096
O O2 0.869184 0.068706 0.082227
O O3 0.000000 0.000000 0.100553
O O4 0.500000 0.500000 0.275174
O O5 0.630860 0.430436 0.295148
O O6 0.720058 0.132232 0.500000
O O7 0.764477 0.113998 0.620030
O O8 0.652117 0.203947 0.588461
O O9 0.303950 0.697437 0.290320
O O10 0.399032 0.670184 0.381380
O O11 0.000000 0.766839 0.914262
O O12 0.907723 0.720188 0.000000
#
# Coordination Sequence:
#
# PCOD9513242 Si02
#       6
#    16  16  32  32   8  32
#     4  11  24  42  60  90 129 167 211 260 318 381
#     4  11  27  45  64  90 132 179 213 259 314 374
#     4  11  22  39  65  95 126 164 207 265 325 377
#     4  12  23  43  64  94 128 166 219 259 312 382
#     4  12  24  38  68 100 120 174 214 266 316 366
#     4  10  21  39  64  93 126 163 208 266 322 374
#
# _framework density 19.804348000000001
#
# number of rings (size 3 to 8) (size 9 to 14) (size 15 to 20)
#    0.000    0.941    2.353    4.588    0.000    5.176 
#    0.000    2.941    0.000    4.235    0.000    0.000 
#    0.000    0.000    0.000    0.000    0.000    0.000 
#
# Total GULP energy -190173.695264 kJ/mol
# GULP energy per Si atom -5593.343978 kJ/mol
# Density = 1.975927 g / cm^3
# Si number density = 19.804348 Si / 1000 Ang^3
#
#
#
# Elastic Constant Matrix: (Units=GPa)
#
#
# Indices 1 2 3 4 5 6 
#
# 1 87.6519 13.7095 29.0637 0.0000 0.0000 0.0000
# 2 13.7095 86.1587 21.6206 0.0000 0.0000 0.0000
# 3 29.0637 21.6206 47.7421 0.0000 0.0000 0.0000
# 4 0.0000 0.0000 0.0000 52.5883 0.0000 0.0000
# 5 0.0000 0.0000 0.0000 0.0000 43.9901 0.0000
# 6 0.0000 0.0000 0.0000 0.0000 0.0000 31.4689
#
#
#
# Elastic Compliance Matrix: (Units=1/GPa)
#
#
# Indices 1 2 3 4 5 6 
#
# 1 0.014295 -0.000103 -0.008656 0.000000 0.000000 0.000000
# 2 -0.000103 0.013095 -0.005868 0.000000 0.000000 0.000000
# 3 -0.008656 -0.005868 0.028873 0.000000 0.000000 0.000000
# 4 0.000000 0.000000 0.000000 0.019016 0.000000 0.000000
# 5 0.000000 0.000000 0.000000 0.000000 0.022732 0.000000
# 6 0.000000 0.000000 0.000000 0.000000 0.000000 0.031777
#
#
# Mechanical properties :
#
#
# Convention : Reuss Voigt Hill
#
# Bulk Modulus (GPa) = 37.02298 38.92669 37.97484
# Shear Modulus (GPa) = 29.75410 36.08674 32.92042
#
# Velocity S-wave (km/s) = 3.88029 4.27331 4.08153
# Velocity P-wave (km/s) = 6.22981 6.63676 6.43650
#
# Compressibility (1/GPa) = 0.02701025
#
# Stress axis : x y z
#
# Youngs Moduli (GPa) = 69.95512 76.36329 34.63497
#
# Poissons Ratio (x) = 0.00783 0.29979
# Poissons Ratio (y) = 0.00717 0.20324
# Poissons Ratio (z) = 0.60552 0.44810
#
# Static dielectric constant tensor:
#      x y z
#    x 1.694770 0.000000 0.000000 
#    y 0.000000 1.672880 0.000000 
#    z 0.000000 0.000000 1.689280 
# 
# From -- ./inp_files/22619.got.cif
#   From: 2010.05.17/outbox.cif.g08.bks.cpg/sg69_12_cif.got.tgz:22619.got - 2010.06.03 19:29:58.
