data_PCOD9513487
_publ_section_title
;
Structure prediction by ZEFSAII (Michael W. Deem and Ramdas Pophale) SiO2 
 PCOD9513487
Probable space group: F M M M
;
_chemical_formula_sum "Si O2"
_cell_formula_units_Z 192
_cell_length_a 27.940743
_cell_length_b 15.313498
_cell_length_c 23.790501
_cell_angle_alpha 90.000000
_cell_angle_beta 90.000000
_cell_angle_gamma 90.000000
_cell_volume 10179.253845
_symmetry_space_group_name_H-M "F M M M"
_symmetry_group_IT_number 69
_symmetry_cell_setting 'orthorhombic'
loop_
_space_group_symop_operation_xyz
x,y,z
-x,-y,z
x,-y,-z
-x,y,-z
-x,-y,-z
x,y,-z
-x,y,z
x,-y,z
x,1/2+y,1/2+z
-x,1/2-y,1/2+z
x,1/2-y,1/2-z
-x,1/2+y,1/2-z
-x,1/2-y,1/2-z
x,1/2+y,1/2-z
-x,1/2+y,1/2+z
x,1/2-y,1/2+z
1/2+x,y,1/2+z
1/2-x,-y,1/2+z
1/2+x,-y,1/2-z
1/2-x,y,1/2-z
1/2-x,-y,1/2-z
1/2+x,y,1/2-z
1/2-x,y,1/2+z
1/2+x,-y,1/2+z
1/2+x,1/2+y,z
1/2-x,1/2-y,z
1/2+x,1/2-y,-z
1/2-x,1/2+y,-z
1/2-x,1/2-y,-z
1/2+x,1/2+y,-z
1/2-x,1/2+y,z
1/2+x,1/2-y,z
loop_
_atom_site_type_symbol
_atom_site_label
_atom_site_fract_x
_atom_site_fract_y
_atom_site_fract_z
Si Si1 0.500000 0.899151 0.813900
Si Si2 0.104621 0.254897 0.935065
Si Si3 0.740004 0.893851 0.686634
Si Si4 0.400455 0.850357 0.760946
Si Si5 0.662136 0.101310 0.134356
Si Si6 0.865148 0.599965 0.644575
Si Si7 0.500000 0.834225 0.936994
O O1 0.452504 0.855478 0.789068
O O2 0.500000 0.893864 0.881637
O O3 0.500000 0.000000 0.796886
O O4 0.133529 0.334500 0.906416
O O5 0.115418 0.167660 0.900557
O O6 0.048358 0.277912 0.932706
O O7 0.118467 0.246097 0.000000
O O8 0.750000 0.862020 0.750000
O O9 0.783453 0.869155 0.645700
O O10 0.687829 0.869962 0.664315
O O11 0.740797 0.000000 0.689148
O O12 0.387352 0.750000 0.750000
O O13 0.363895 0.892765 0.805019
O O14 0.397103 0.896175 0.700860
O O15 0.660955 0.000000 0.115785
O O16 0.862516 0.500000 0.624478
O O17 0.500000 0.875280 0.000000
#
# Coordination Sequence:
#
# PCOD9513487 Si02
#       7
#    16  32  32  32  32  32  16
#     4  12  23  36  58  92 126 161 204 251 309 377
#     4  11  25  44  63  87 118 162 211 256 306 359
#     4   9  18  33  59  92 125 158 199 248 296 363
#     4  12  22  37  58  90 129 162 195 249 311 368
#     4  11  21  38  62  91 123 156 199 251 308 364
#     4  11  22  40  63  91 125 164 205 248 303 364
#     4  10  22  42  63  83 120 163 206 258 302 354
#
# _framework density 18.861892999999998
#
# number of rings (size 3 to 8) (size 9 to 14) (size 15 to 20)
#    0.000    1.167    5.000    1.750    0.000    2.167 
#    0.000    6.250    0.000    4.500    0.000    0.000 
#    0.000    0.000    0.000    0.000    0.000    0.000 
#
# Total GULP energy -268190.925819 kJ/mol
# GULP energy per Si atom -5587.310955 kJ/mol
# Density = 1.881896 g / cm^3
# Si number density = 18.861893 Si / 1000 Ang^3
#
#
#
# Elastic Constant Matrix: (Units=GPa)
#
#
# Indices 1 2 3 4 5 6 
#
# 1 96.1446 15.1793 40.5602 0.0000 0.0000 0.0000
# 2 15.1793 82.4943 41.7201 0.0000 0.0000 0.0000
# 3 40.5602 41.7201 129.0599 0.0000 0.0000 0.0000
# 4 0.0000 0.0000 0.0000 8.2286 0.0000 0.0000
# 5 0.0000 0.0000 0.0000 0.0000 19.2838 0.0000
# 6 0.0000 0.0000 0.0000 0.0000 0.0000 8.4974
#
#
#
# Elastic Compliance Matrix: (Units=1/GPa)
#
#
# Indices 1 2 3 4 5 6 
#
# 1 0.012000 -0.000360 -0.003655 0.000000 0.000000 0.000000
# 2 -0.000360 0.014502 -0.004575 0.000000 0.000000 0.000000
# 3 -0.003655 -0.004575 0.010376 0.000000 0.000000 0.000000
# 4 0.000000 0.000000 0.000000 0.121527 0.000000 0.000000
# 5 0.000000 0.000000 0.000000 0.000000 0.051857 0.000000
# 6 0.000000 0.000000 0.000000 0.000000 0.000000 0.117683
#
#
# Mechanical properties :
#
#
# Convention : Reuss Voigt Hill
#
# Bulk Modulus (GPa) = 50.76499 55.84644 53.30572
# Shear Modulus (GPa) = 14.21710 21.21792 17.71751
#
# Velocity S-wave (km/s) = 2.74842 3.35761 3.06817
# Velocity P-wave (km/s) = 6.08640 6.68608 6.39328
#
# Compressibility (1/GPa) = 0.01969861
#
# Stress axis : x y z
#
# Youngs Moduli (GPa) = 83.33565 68.95660 96.37739
#
# Poissons Ratio (x) = 0.02479 0.35225
# Poissons Ratio (y) = 0.02996 0.44092
# Poissons Ratio (z) = 0.30459 0.31547
#
# Static dielectric constant tensor:
#      x y z
#    x 1.748780 0.000000 0.000000 
#    y 0.000000 1.648210 0.000000 
#    z 0.000000 0.000000 1.632640 
# 
# From -- ./inp_files/38391.got.cif
#   From: 2010.05.17/outbox.cif.g08.bks.cpg/sg69_20_cif.got.tgz:38391.got - 2010.06.03 19:29:58.
