data_PCOD9513913
_publ_section_title
;
Structure prediction by ZEFSAII (Michael W. Deem and Ramdas Pophale) SiO2 
 PCOD9513913
Probable space group: F M M M
;
_chemical_formula_sum "Si O2"
_cell_formula_units_Z 104
_cell_length_a 7.775349
_cell_length_b 29.429838
_cell_length_c 23.562997
_cell_angle_alpha 90.000000
_cell_angle_beta 90.000000
_cell_angle_gamma 90.000000
_cell_volume 5391.856075
_symmetry_space_group_name_H-M "F M M M"
_symmetry_group_IT_number 69
_symmetry_cell_setting 'orthorhombic'
loop_
_space_group_symop_operation_xyz
x,y,z
-x,-y,z
x,-y,-z
-x,y,-z
-x,-y,-z
x,y,-z
-x,y,z
x,-y,z
x,1/2+y,1/2+z
-x,1/2-y,1/2+z
x,1/2-y,1/2-z
-x,1/2+y,1/2-z
-x,1/2-y,1/2-z
x,1/2+y,1/2-z
-x,1/2+y,1/2+z
x,1/2-y,1/2+z
1/2+x,y,1/2+z
1/2-x,-y,1/2+z
1/2+x,-y,1/2-z
1/2-x,y,1/2-z
1/2-x,-y,1/2-z
1/2+x,y,1/2-z
1/2-x,y,1/2+z
1/2+x,-y,1/2+z
1/2+x,1/2+y,z
1/2-x,1/2-y,z
1/2+x,1/2-y,-z
1/2-x,1/2+y,-z
1/2-x,1/2-y,-z
1/2+x,1/2+y,-z
1/2-x,1/2+y,z
1/2+x,1/2-y,z
loop_
_atom_site_type_symbol
_atom_site_label
_atom_site_fract_x
_atom_site_fract_y
_atom_site_fract_z
Si Si1 0.294970 0.300626 0.620496
Si Si2 0.694984 0.162823 0.500000
Si Si3 0.302095 0.390986 0.184177
Si Si4 0.000000 0.946974 0.624733
Si Si5 0.000000 0.410272 0.000000
O O1 0.500000 0.306581 0.619235
O O2 0.250000 0.250000 0.639913
O O3 0.225006 0.308201 0.556815
O O4 0.217955 0.340175 0.659424
O O5 0.500000 0.145389 0.500000
O O6 0.833857 0.122604 0.500000
O O7 0.500000 0.405556 0.177549
O O8 0.250000 0.391383 0.250000
O O9 0.167707 0.422307 0.150468
O O10 0.000000 0.938993 0.557321
O O11 0.000000 0.000000 0.638704
#
# Coordination Sequence:
#
# PCOD9513913 Si02
#       5
#    32  16  32  16   8
#     4  12  23  40  63  99 137 183 232 276 335 401
#     4  12  21  38  64  93 135 181 222 285 337 395
#     4  12  24  46  70  99 140 180 228 285 337 404
#     4  12  27  48  74 102 135 178 228 286 350 408
#     4  12  23  46  72  98 138 176 224 282 351 402
#
# _framework density 19.288347999999999
#
# number of rings (size 3 to 8) (size 9 to 14) (size 15 to 20)
#    0.000    0.000    7.692    3.462    0.000    1.846 
#    0.000    3.077    0.000    2.769    0.000    0.000 
#    0.000    0.000    0.000    0.000    0.000    0.000 
#
# Total GULP energy -145530.627823 kJ/mol
# GULP energy per Si atom -5597.331839 kJ/mol
# Density = 1.924445 g / cm^3
# Si number density = 19.288348 Si / 1000 Ang^3
#
#
#
# Elastic Constant Matrix: (Units=GPa)
#
#
# Indices 1 2 3 4 5 6 
#
# 1 191.7804 44.7801 41.4614 0.0000 0.0000 0.0000
# 2 44.7801 134.2178 46.2604 0.0000 0.0000 0.0000
# 3 41.4614 46.2604 133.8453 0.0000 0.0000 0.0000
# 4 0.0000 0.0000 0.0000 -8.5724 0.0000 0.0000
# 5 0.0000 0.0000 0.0000 0.0000 16.5280 0.0000
# 6 0.0000 0.0000 0.0000 0.0000 0.0000 19.3984
#
#
#
# Elastic Compliance Matrix: (Units=1/GPa)
#
#
# Indices 1 2 3 4 5 6 
#
# 1 0.005845 -0.001505 -0.001290 0.000000 0.000000 0.000000
# 2 -0.001505 0.008846 -0.002591 0.000000 0.000000 0.000000
# 3 -0.001290 -0.002591 0.008767 0.000000 0.000000 0.000000
# 4 0.000000 0.000000 0.000000 -0.116653 0.000000 0.000000
# 5 0.000000 0.000000 0.000000 0.000000 0.060503 0.000000
# 6 0.000000 0.000000 0.000000 0.000000 0.000000 0.051551
#
#
# Mechanical properties :
#
#
# Convention : Reuss Voigt Hill
#
# Bulk Modulus (GPa) = 78.84027 80.53859 79.68943
# Shear Modulus (GPa) = 147.67155 27.29357 87.48256
#
# Velocity S-wave (km/s) = 8.75935 3.76577 6.74193
# Velocity P-wave (km/s) = 11.96933 7.79447 10.09996
#
# Compressibility (1/GPa) = 0.01268387
#
# Stress axis : x y z
#
# Youngs Moduli (GPa) = 171.09444 113.04725 114.07017
#
# Poissons Ratio (x) = 0.17017 0.14718
# Poissons Ratio (y) = 0.25755 0.29556
# Poissons Ratio (z) = 0.22076 0.29291
#
# Static dielectric constant tensor:
#      x y z
#    x 1.666230 0.000000 0.000000 
#    y 0.000000 1.645580 0.000000 
#    z 0.000000 0.000000 1.658880 
# 
# From -- ./inp_files/34475.got.cif
#   From: 2010.05.17/outbox.cif.g08.bks.cpg/sg69_18_cif.got.tgz:34475.got - 2010.06.03 19:29:58.
