data_PCOD9513402
_publ_section_title
;
Structure prediction by ZEFSAII (Michael W. Deem and Ramdas Pophale) SiO2 
 PCOD9513402
Probable space group: F M M M
;
_chemical_formula_sum "Si O2"
_cell_formula_units_Z 176
_cell_length_a 27.087316
_cell_length_b 17.118418
_cell_length_c 20.677235
_cell_angle_alpha 90.000000
_cell_angle_beta 90.000000
_cell_angle_gamma 90.000000
_cell_volume 9587.868406
_symmetry_space_group_name_H-M "F M M M"
_symmetry_group_IT_number 69
_symmetry_cell_setting 'orthorhombic'
loop_
_space_group_symop_operation_xyz
x,y,z
-x,-y,z
x,-y,-z
-x,y,-z
-x,-y,-z
x,y,-z
-x,y,z
x,-y,z
x,1/2+y,1/2+z
-x,1/2-y,1/2+z
x,1/2-y,1/2-z
-x,1/2+y,1/2-z
-x,1/2-y,1/2-z
x,1/2+y,1/2-z
-x,1/2+y,1/2+z
x,1/2-y,1/2+z
1/2+x,y,1/2+z
1/2-x,-y,1/2+z
1/2+x,-y,1/2-z
1/2-x,y,1/2-z
1/2-x,-y,1/2-z
1/2+x,y,1/2-z
1/2-x,y,1/2+z
1/2+x,-y,1/2+z
1/2+x,1/2+y,z
1/2-x,1/2-y,z
1/2+x,1/2-y,-z
1/2-x,1/2+y,-z
1/2-x,1/2-y,-z
1/2+x,1/2+y,-z
1/2-x,1/2+y,z
1/2+x,1/2-y,z
loop_
_atom_site_type_symbol
_atom_site_label
_atom_site_fract_x
_atom_site_fract_y
_atom_site_fract_z
Si Si1 0.557491 0.500000 0.074730
Si Si2 0.945089 0.756928 0.000000
Si Si3 0.055848 0.156068 0.745173
Si Si4 0.307994 0.240921 0.827188
Si Si5 0.367658 0.090274 0.141110
Si Si6 0.606021 0.156007 0.617583
Si Si7 0.414462 0.914167 0.000000
O O1 0.500000 0.500000 0.104702
O O2 0.593365 0.573459 0.086431
O O3 0.547539 0.500000 0.000000
O O4 0.918702 0.784249 0.066127
O O5 0.946677 0.663446 0.000000
O O6 0.000000 0.791264 0.000000
O O7 0.054461 0.250000 0.750000
O O8 0.087756 0.122432 0.686233
O O9 0.080369 0.139638 0.813553
O O10 0.000000 0.126783 0.740202
O O11 0.317370 0.250000 0.750000
O O12 0.250000 0.250000 0.839035
O O13 0.325413 0.154292 0.847190
O O14 0.341291 0.305336 0.864528
O O15 0.382849 0.090299 0.065898
O O16 0.356306 0.000000 0.159049
O O17 0.438925 0.000000 0.000000
#
# Coordination Sequence:
#
# PCOD9513402 Si02
#       7
#    16  16  32  32  32  32  16
#     4  11  24  40  62  95 138 173 207 262 325 386
#     4  12  22  36  64  92 127 173 209 243 314 393
#     4  11  21  36  60  89 125 165 208 252 307 376
#     4  11  23  45  69  94 124 165 213 272 327 374
#     4  11  22  41  63  92 126 162 207 262 315 374
#     4  12  22  41  62  91 129 166 212 257 319 379
#     4  10  22  39  61  85 128 162 199 252 306 364
#
# _framework density 18.356531
#
# number of rings (size 3 to 8) (size 9 to 14) (size 15 to 20)
#    0.000    0.818    6.364    1.636    1.273    2.727 
#    1.636    4.545    0.000    0.000    0.000    0.000 
#    0.000    0.000    0.000    0.000    0.000    0.000 
#
# Total GULP energy -245048.625124 kJ/mol
# GULP energy per Si atom -5569.286935 kJ/mol
# Density = 1.831475 g / cm^3
# Si number density = 18.356531 Si / 1000 Ang^3
#
#
#
# Elastic Constant Matrix: (Units=GPa)
#
#
# Indices 1 2 3 4 5 6 
#
# 1 151.6007 65.7495 57.1680 0.0000 0.0000 0.0000
# 2 65.7495 152.3598 37.2796 0.0000 0.0000 0.0000
# 3 57.1680 37.2796 126.4741 0.0000 0.0000 0.0000
# 4 0.0000 0.0000 0.0000 17.6257 0.0000 0.0000
# 5 0.0000 0.0000 0.0000 0.0000 22.4847 0.0000
# 6 0.0000 0.0000 0.0000 0.0000 0.0000 4.7001
#
#
#
# Elastic Compliance Matrix: (Units=1/GPa)
#
#
# Indices 1 2 3 4 5 6 
#
# 1 0.009187 -0.003178 -0.003216 0.000000 0.000000 0.000000
# 2 -0.003178 0.008173 -0.000973 0.000000 0.000000 0.000000
# 3 -0.003216 -0.000973 0.009647 0.000000 0.000000 0.000000
# 4 0.000000 0.000000 0.000000 0.056735 0.000000 0.000000
# 5 0.000000 0.000000 0.000000 0.000000 0.044475 0.000000
# 6 0.000000 0.000000 0.000000 0.000000 0.000000 0.212759
#
#
# Mechanical properties :
#
#
# Convention : Reuss Voigt Hill
#
# Bulk Modulus (GPa) = 81.47150 83.42542 82.44846
# Shear Modulus (GPa) = 13.89658 26.97794 20.43726
#
# Velocity S-wave (km/s) = 2.75442 3.83778 3.34031
# Velocity P-wave (km/s) = 7.38884 8.07366 7.73883
#
# Compressibility (1/GPa) = 0.01227423
#
# Stress axis : x y z
#
# Youngs Moduli (GPa) = 108.84657 122.35831 103.65748
#
# Poissons Ratio (x) = 0.38882 0.33337
# Poissons Ratio (y) = 0.34589 0.10082
# Poissons Ratio (z) = 0.35006 0.11901
#
# Static dielectric constant tensor:
#      x y z
#    x 1.622060 0.000000 0.000000 
#    y 0.000000 1.909710 0.000000 
#    z 0.000000 0.000000 1.614040 
# 
# From -- ./inp_files/26816.got.cif
#   From: 2010.05.17/outbox.cif.g08.bks.cpg/sg69_14_cif.got.tgz:26816.got - 2010.06.03 19:29:58.
