data_PCOD9513882
_publ_section_title
;
Structure prediction by ZEFSAII (Michael W. Deem and Ramdas Pophale) SiO2 
 PCOD9513882
Probable space group: F M M M
;
_chemical_formula_sum "Si O2"
_cell_formula_units_Z 176
_cell_length_a 28.969985
_cell_length_b 17.459595
_cell_length_c 17.814642
_cell_angle_alpha 90.000000
_cell_angle_beta 90.000000
_cell_angle_gamma 90.000000
_cell_volume 9010.720839
_symmetry_space_group_name_H-M "F M M M"
_symmetry_group_IT_number 69
_symmetry_cell_setting 'orthorhombic'
loop_
_space_group_symop_operation_xyz
x,y,z
-x,-y,z
x,-y,-z
-x,y,-z
-x,-y,-z
x,y,-z
-x,y,z
x,-y,z
x,1/2+y,1/2+z
-x,1/2-y,1/2+z
x,1/2-y,1/2-z
-x,1/2+y,1/2-z
-x,1/2-y,1/2-z
x,1/2+y,1/2-z
-x,1/2+y,1/2+z
x,1/2-y,1/2+z
1/2+x,y,1/2+z
1/2-x,-y,1/2+z
1/2+x,-y,1/2-z
1/2-x,y,1/2-z
1/2-x,-y,1/2-z
1/2+x,y,1/2-z
1/2-x,y,1/2+z
1/2+x,-y,1/2+z
1/2+x,1/2+y,z
1/2-x,1/2-y,z
1/2+x,1/2-y,-z
1/2-x,1/2+y,-z
1/2-x,1/2-y,-z
1/2+x,1/2+y,-z
1/2-x,1/2+y,z
1/2+x,1/2-y,z
loop_
_atom_site_type_symbol
_atom_site_label
_atom_site_fract_x
_atom_site_fract_y
_atom_site_fract_z
Si Si1 0.200874 0.150548 0.588178
Si Si2 0.555005 0.500000 0.914537
Si Si3 0.898330 0.139553 0.169193
Si Si4 0.609474 0.909454 0.839903
Si Si5 0.944954 0.220372 0.413032
Si Si6 0.694682 0.164808 0.588201
O O1 0.194993 0.131690 0.500000
O O2 0.161997 0.108535 0.635583
O O3 0.254206 0.135511 0.608587
O O4 0.194610 0.242545 0.595034
O O5 0.500000 0.500000 0.915943
O O6 0.572633 0.574276 0.871863
O O7 0.572303 0.500000 0.000000
O O8 0.899316 0.124874 0.257427
O O9 0.919579 0.219720 0.141425
O O10 0.846025 0.134186 0.139394
O O11 0.576414 0.862522 0.895912
O O12 0.601121 0.000000 0.840210
O O13 0.935459 0.241670 0.500000
O O14 0.000000 0.221738 0.401560
O O15 0.686607 0.147546 0.500000
#
# Coordination Sequence:
#
# PCOD9513882 Si02
#       6
#    32  16  32  32  32  32
#     4   9  19  38  64  95 127 167 216 261 313 377
#     4  11  24  42  66  93 127 171 213 264 325 382
#     4  12  23  42  65  98 132 165 212 267 326 388
#     4  12  26  43  61  95 140 178 210 256 325 391
#     4  11  25  45  71  97 121 163 222 277 325 382
#     4   9  18  36  67  97 123 162 215 269 314 370
#
# _framework density 19.532288000000001
#
# number of rings (size 3 to 8) (size 9 to 14) (size 15 to 20)
#    0.000    1.364    2.727    4.364    0.000    6.182 
#    1.636    3.636    0.000    0.000    0.000    0.000 
#    0.000    0.000    0.000    0.000    0.000    0.000 
#
# Total GULP energy -245984.351819 kJ/mol
# GULP energy per Si atom -5590.553450 kJ/mol
# Density = 1.948783 g / cm^3
# Si number density = 19.532288 Si / 1000 Ang^3
#
#
#
# Elastic Constant Matrix: (Units=GPa)
#
#
# Indices 1 2 3 4 5 6 
#
# 1 92.5102 37.4185 40.5844 0.0000 0.0000 0.0000
# 2 37.4185 93.9857 41.5493 0.0000 0.0000 0.0000
# 3 40.5844 41.5493 69.2354 0.0000 0.0000 0.0000
# 4 0.0000 0.0000 0.0000 30.7860 0.0000 0.0000
# 5 0.0000 0.0000 0.0000 0.0000 -17.0821 0.0000
# 6 0.0000 0.0000 0.0000 0.0000 0.0000 -6.4151
#
#
#
# Elastic Compliance Matrix: (Units=1/GPa)
#
#
# Indices 1 2 3 4 5 6 
#
# 1 0.015095 -0.002856 -0.007134 0.000000 0.000000 0.000000
# 2 -0.002856 0.015022 -0.007341 0.000000 0.000000 0.000000
# 3 -0.007134 -0.007341 0.023031 0.000000 0.000000 0.000000
# 4 0.000000 0.000000 0.000000 0.032482 0.000000 0.000000
# 5 0.000000 0.000000 0.000000 0.000000 -0.058541 0.000000
# 6 0.000000 0.000000 0.000000 0.000000 0.000000 -0.155881
#
#
# Mechanical properties :
#
#
# Convention : Reuss Voigt Hill
#
# Bulk Modulus (GPa) = 54.09661 54.98174 54.53918
# Shear Modulus (GPa) = -56.83925 10.53634 -23.15145
#
# Velocity S-wave (km/s) = -5.40031 2.32509 -3.44654
# Velocity P-wave (km/s) = 3.33591 5.95133 3.48497
#
# Compressibility (1/GPa) = 0.01848545
#
# Stress axis : x y z
#
# Youngs Moduli (GPa) = 66.24918 66.56810 43.41950
#
# Poissons Ratio (x) = 0.19009 0.30977
# Poissons Ratio (y) = 0.18918 0.31875
# Poissons Ratio (z) = 0.47265 0.48869
#
# Static dielectric constant tensor:
#      x y z
#    x 1.734620 0.000000 0.000000 
#    y 0.000000 1.679810 0.000000 
#    z 0.000000 0.000000 1.666000 
# 
# From -- ./inp_files/27662.got.cif
#   From: 2010.05.17/outbox.cif.g08.bks.cpg/sg69_14_cif.got.tgz:27662.got - 2010.06.03 19:29:58.
