data_PCOD9513276
_publ_section_title
;
Structure prediction by ZEFSAII (Michael W. Deem and Ramdas Pophale) SiO2 
 PCOD9513276
Probable space group: F M M M
;
_chemical_formula_sum "Si O2"
_cell_formula_units_Z 192
_cell_length_a 25.408908
_cell_length_b 13.402696
_cell_length_c 24.982846
_cell_angle_alpha 90.000000
_cell_angle_beta 90.000000
_cell_angle_gamma 90.000000
_cell_volume 8507.854982
_symmetry_space_group_name_H-M "F M M M"
_symmetry_group_IT_number 69
_symmetry_cell_setting 'orthorhombic'
loop_
_space_group_symop_operation_xyz
x,y,z
-x,-y,z
x,-y,-z
-x,y,-z
-x,-y,-z
x,y,-z
-x,y,z
x,-y,z
x,1/2+y,1/2+z
-x,1/2-y,1/2+z
x,1/2-y,1/2-z
-x,1/2+y,1/2-z
-x,1/2-y,1/2-z
x,1/2+y,1/2-z
-x,1/2+y,1/2+z
x,1/2-y,1/2+z
1/2+x,y,1/2+z
1/2-x,-y,1/2+z
1/2+x,-y,1/2-z
1/2-x,y,1/2-z
1/2-x,-y,1/2-z
1/2+x,y,1/2-z
1/2-x,y,1/2+z
1/2+x,-y,1/2+z
1/2+x,1/2+y,z
1/2-x,1/2-y,z
1/2+x,1/2-y,-z
1/2-x,1/2+y,-z
1/2-x,1/2-y,-z
1/2+x,1/2+y,-z
1/2-x,1/2+y,z
1/2+x,1/2-y,z
loop_
_atom_site_type_symbol
_atom_site_label
_atom_site_fract_x
_atom_site_fract_y
_atom_site_fract_z
Si Si1 0.000000 0.229874 0.688496
Si Si2 0.677105 0.378674 0.437223
Si Si3 0.310946 0.381054 0.235412
Si Si4 0.109876 0.879452 0.667396
Si Si5 0.711569 0.378446 0.115925
Si Si6 0.608277 0.612797 0.062602
Si Si7 0.000000 0.619166 0.395018
O O1 0.000000 0.250000 0.750000
O O2 0.946872 0.171228 0.673354
O O3 0.000000 0.341159 0.664272
O O4 0.671474 0.345341 0.500000
O O5 0.677987 0.500000 0.440623
O O6 0.633682 0.356165 0.391439
O O7 0.732093 0.349484 0.408154
O O8 0.319445 0.500000 0.232894
O O9 0.250000 0.364342 0.250000
O O10 0.350983 0.348576 0.282767
O O11 0.310122 0.344875 0.173928
O O12 0.105384 0.000000 0.670673
O O13 0.715555 0.500000 0.118946
O O14 0.665104 0.346345 0.076535
O O15 0.608506 0.500000 0.086606
O O16 0.554030 0.660700 0.080925
O O17 0.604451 0.604400 0.000000
O O18 0.000000 0.500000 0.402610
#
# Coordination Sequence:
#
# PCOD9513276 Si02
#       7
#    16  32  32  32  32  32  16
#     4  12  29  46  63  90 122 157 214 266 323 384
#     4   9  16  29  54  91 134 174 211 251 297 359
#     4   9  15  27  52  89 127 164 204 244 294 359
#     4  10  21  40  65  94 131 170 208 255 311 371
#     4   9  15  24  47  89 130 162 200 247 301 364
#     4   9  17  31  55  87 120 154 196 248 309 375
#     4  10  23  43  64  84 114 158 209 264 318 374
#
# _framework density 22.56738
#
# number of rings (size 3 to 8) (size 9 to 14) (size 15 to 20)
#    0.000    2.500    1.667    1.000    2.333    3.667 
#    0.000    2.083    0.000    5.500    0.000    2.333 
#    0.000    0.667    0.000    0.000    0.000    0.000 
#
# Total GULP energy -267725.363204 kJ/mol
# GULP energy per Si atom -5577.611733 kJ/mol
# Density = 2.251602 g / cm^3
# Si number density = 22.567380 Si / 1000 Ang^3
#
#
#
# Elastic Constant Matrix: (Units=GPa)
#
#
# Indices 1 2 3 4 5 6 
#
# 1 202.4650 19.3126 91.5147 0.0000 0.0000 0.0000
# 2 19.3126 66.0349 21.6929 0.0000 0.0000 0.0000
# 3 91.5147 21.6929 171.5653 0.0000 0.0000 0.0000
# 4 0.0000 0.0000 0.0000 27.3050 0.0000 0.0000
# 5 0.0000 0.0000 0.0000 0.0000 22.6898 0.0000
# 6 0.0000 0.0000 0.0000 0.0000 0.0000 -0.4389
#
#
#
# Elastic Compliance Matrix: (Units=1/GPa)
#
#
# Indices 1 2 3 4 5 6 
#
# 1 0.006549 -0.000801 -0.003392 0.000000 0.000000 0.000000
# 2 -0.000801 0.015898 -0.001583 0.000000 0.000000 0.000000
# 3 -0.003392 -0.001583 0.007838 0.000000 0.000000 0.000000
# 4 0.000000 0.000000 0.000000 0.036623 0.000000 0.000000
# 5 0.000000 0.000000 0.000000 0.000000 0.044073 0.000000
# 6 0.000000 0.000000 0.000000 0.000000 0.000000 -2.278346
#
#
# Mechanical properties :
#
#
# Convention : Reuss Voigt Hill
#
# Bulk Modulus (GPa) = 53.38150 78.34504 65.86327
# Shear Modulus (GPa) = -2.32605 30.41417 14.04406
#
# Velocity S-wave (km/s) = -1.01634 3.67509 2.49733
# Velocity P-wave (km/s) = 4.72529 7.26635 6.12896
#
# Compressibility (1/GPa) = 0.01873308
#
# Stress axis : x y z
#
# Youngs Moduli (GPa) = 152.70322 62.90195 127.58247
#
# Poissons Ratio (x) = 0.05038 0.43274
# Poissons Ratio (y) = 0.12231 0.20195
# Poissons Ratio (z) = 0.51794 0.09957
#
# Static dielectric constant tensor:
#      x y z
#    x 1.852600 0.000000 0.000000 
#    y 0.000000 1.971620 0.000000 
#    z 0.000000 0.000000 1.899210 
# 
# From -- ./inp_files/38375.got.cif
#   From: 2010.05.17/outbox.cif.g08.bks.cpg/sg69_20_cif.got.tgz:38375.got - 2010.06.03 19:29:58.
