data_PCOD9513877
_publ_section_title
;
Structure prediction by ZEFSAII (Michael W. Deem and Ramdas Pophale) SiO2 
 PCOD9513877
Probable space group: F M M M
;
_chemical_formula_sum "Si O2"
_cell_formula_units_Z 112
_cell_length_a 15.588408
_cell_length_b 13.844120
_cell_length_c 24.988126
_cell_angle_alpha 90.000000
_cell_angle_beta 90.000000
_cell_angle_gamma 90.000000
_cell_volume 5392.632272
_symmetry_space_group_name_H-M "F M M M"
_symmetry_group_IT_number 69
_symmetry_cell_setting 'orthorhombic'
loop_
_space_group_symop_operation_xyz
x,y,z
-x,-y,z
x,-y,-z
-x,y,-z
-x,-y,-z
x,y,-z
-x,y,z
x,-y,z
x,1/2+y,1/2+z
-x,1/2-y,1/2+z
x,1/2-y,1/2-z
-x,1/2+y,1/2-z
-x,1/2-y,1/2-z
x,1/2+y,1/2-z
-x,1/2+y,1/2+z
x,1/2-y,1/2+z
1/2+x,y,1/2+z
1/2-x,-y,1/2+z
1/2+x,-y,1/2-z
1/2-x,y,1/2-z
1/2-x,-y,1/2-z
1/2+x,y,1/2-z
1/2-x,y,1/2+z
1/2+x,-y,1/2+z
1/2+x,1/2+y,z
1/2-x,1/2-y,z
1/2+x,1/2-y,-z
1/2-x,1/2+y,-z
1/2-x,1/2-y,-z
1/2+x,1/2+y,-z
1/2-x,1/2+y,z
1/2+x,1/2-y,z
loop_
_atom_site_type_symbol
_atom_site_label
_atom_site_fract_x
_atom_site_fract_y
_atom_site_fract_z
Si Si1 0.399123 0.104148 0.000000
Si Si2 0.677986 0.108184 0.205743
Si Si3 0.500000 0.363535 0.238788
Si Si4 0.848084 0.232952 0.599104
Si Si5 0.000000 0.612935 0.612743
O O1 0.380096 0.159726 0.945592
O O2 0.500000 0.092786 0.000000
O O3 0.354948 0.000000 0.000000
O O4 0.750000 0.135794 0.250000
O O5 0.587447 0.100751 0.235304
O O6 0.661029 0.183067 0.157652
O O7 0.702162 0.000000 0.185448
O O8 0.500000 0.250000 0.250000
O O9 0.500000 0.387880 0.176822
O O10 0.750000 0.250000 0.583440
O O11 0.914255 0.323867 0.598525
O O12 0.000000 0.500000 0.593841
#
# Coordination Sequence:
#
# PCOD9513877 Si02
#       5
#    16  32  16  32  16
#     4  11  25  48  76 103 132 172 236 304 356 416
#     4  11  24  41  67 103 140 179 230 288 352 424
#     4  12  22  39  63  92 133 187 228 275 344 414
#     4  12  25  45  73 100 140 186 234 289 360 422
#     4  12  26  44  66 101 146 190 238 291 354 427
#
# _framework density 20.769078
#
# number of rings (size 3 to 8) (size 9 to 14) (size 15 to 20)
#    0.000    0.429    4.286    4.286    0.000    4.571 
#    0.000    1.429    0.000    0.857    0.000    0.000 
#    0.000    0.000    0.000    0.000    0.000    0.000 
#
# Total GULP energy -156313.968282 kJ/mol
# GULP energy per Si atom -5582.641724 kJ/mol
# Density = 2.072181 g / cm^3
# Si number density = 20.769078 Si / 1000 Ang^3
#
#
#
# Elastic Constant Matrix: (Units=GPa)
#
#
# Indices 1 2 3 4 5 6 
#
# 1 169.1862 62.2138 43.6687 0.0000 0.0000 0.0000
# 2 62.2138 187.3167 50.0754 0.0000 0.0000 0.0000
# 3 43.6687 50.0754 89.5851 0.0000 0.0000 0.0000
# 4 0.0000 0.0000 0.0000 23.2781 0.0000 0.0000
# 5 0.0000 0.0000 0.0000 0.0000 -34.3817 0.0000
# 6 0.0000 0.0000 0.0000 0.0000 0.0000 -6.5564
#
#
#
# Elastic Compliance Matrix: (Units=1/GPa)
#
#
# Indices 1 2 3 4 5 6 
#
# 1 0.007198 -0.001708 -0.002554 0.000000 0.000000 0.000000
# 2 -0.001708 0.006682 -0.002902 0.000000 0.000000 0.000000
# 3 -0.002554 -0.002902 0.014030 0.000000 0.000000 0.000000
# 4 0.000000 0.000000 0.000000 0.042959 0.000000 0.000000
# 5 0.000000 0.000000 0.000000 0.000000 -0.029085 0.000000
# 6 0.000000 0.000000 0.000000 0.000000 0.000000 -0.152523
#
#
# Mechanical properties :
#
#
# Convention : Reuss Voigt Hill
#
# Bulk Modulus (GPa) = 73.63241 84.22267 78.92754
# Shear Modulus (GPa) = -54.41612 15.81003 -19.30305
#
# Velocity S-wave (km/s) = -5.12420 2.76203 -3.05193
# Velocity P-wave (km/s) = 0.72109 7.12824 5.06615
#
# Compressibility (1/GPa) = 0.01358098
#
# Stress axis : x y z
#
# Youngs Moduli (GPa) = 138.92960 149.66298 71.27663
#
# Poissons Ratio (x) = 0.25561 0.18204
# Poissons Ratio (y) = 0.23728 0.20687
# Poissons Ratio (z) = 0.35482 0.43437
#
# Static dielectric constant tensor:
#      x y z
#    x 1.810810 0.000000 0.000000 
#    y 0.000000 1.279700 0.000000 
#    z 0.000000 0.000000 1.696320 
# 
# From -- ./inp_files/17242.got.cif
#   From: 2010.05.17/outbox.cif.g08.bks.cpg/sg69_9_cif.got.tgz:17242.got - 2010.06.03 19:29:58.
