data_PCOD9513373
_publ_section_title
;
Structure prediction by ZEFSAII (Michael W. Deem and Ramdas Pophale) SiO2 
 PCOD9513373
Probable space group: F M M M
;
_chemical_formula_sum "Si O2"
_cell_formula_units_Z 192
_cell_length_a 17.912407
_cell_length_b 20.109769
_cell_length_c 27.273540
_cell_angle_alpha 90.000000
_cell_angle_beta 90.000000
_cell_angle_gamma 90.000000
_cell_volume 9824.320947
_symmetry_space_group_name_H-M "F M M M"
_symmetry_group_IT_number 69
_symmetry_cell_setting 'orthorhombic'
loop_
_space_group_symop_operation_xyz
x,y,z
-x,-y,z
x,-y,-z
-x,y,-z
-x,-y,-z
x,y,-z
-x,y,z
x,-y,z
x,1/2+y,1/2+z
-x,1/2-y,1/2+z
x,1/2-y,1/2-z
-x,1/2+y,1/2-z
-x,1/2-y,1/2-z
x,1/2+y,1/2-z
-x,1/2+y,1/2+z
x,1/2-y,1/2+z
1/2+x,y,1/2+z
1/2-x,-y,1/2+z
1/2+x,-y,1/2-z
1/2-x,y,1/2-z
1/2-x,-y,1/2-z
1/2+x,y,1/2-z
1/2-x,y,1/2+z
1/2+x,-y,1/2+z
1/2+x,1/2+y,z
1/2-x,1/2-y,z
1/2+x,1/2-y,-z
1/2-x,1/2+y,-z
1/2-x,1/2-y,-z
1/2+x,1/2+y,-z
1/2-x,1/2+y,z
1/2+x,1/2-y,z
loop_
_atom_site_type_symbol
_atom_site_label
_atom_site_fract_x
_atom_site_fract_y
_atom_site_fract_z
Si Si1 0.314229 0.418543 0.684707
Si Si2 0.915852 0.361778 0.102654
Si Si3 0.660092 0.118874 0.630129
Si Si4 0.124352 0.500000 0.943012
Si Si5 0.416367 0.079699 0.724354
Si Si6 0.195885 0.500000 0.441345
Si Si7 0.661851 0.237720 0.554951
O O1 0.316708 0.500000 0.678527
O O2 0.372235 0.377162 0.652165
O O3 0.235419 0.393270 0.662806
O O4 0.346549 0.405848 0.739284
O O5 0.911290 0.433570 0.077489
O O6 0.876455 0.306934 0.069224
O O7 0.000000 0.341122 0.111630
O O8 0.596674 0.110363 0.670909
O O9 0.663942 0.063094 0.587717
O O10 0.651702 0.186341 0.599507
O O11 0.214001 0.500000 0.934188
O O12 0.113440 0.500000 0.000000
O O13 0.500000 0.096869 0.743473
O O14 0.414740 0.000000 0.718389
O O15 0.181943 0.500000 0.500000
O O16 0.637539 0.215489 0.500000
O O17 0.750000 0.250000 0.552366
#
# Coordination Sequence:
#
# PCOD9513373 Si02
#       7
#    32  32  32  16  32  16  32
#     4  11  20  38  64 100 127 162 205 259 320 384
#     4  12  23  38  61  92 129 166 208 259 319 384
#     4  12  20  39  66  92 121 168 218 262 310 373
#     4  11  21  36  58  89 130 164 200 254 319 381
#     4  10  22  38  62  95 132 166 204 261 326 380
#     4  11  20  35  61  96 126 158 214 271 311 360
#     4  11  24  42  62  86 124 172 216 258 313 378
#
# _framework density 19.543336
#
# number of rings (size 3 to 8) (size 9 to 14) (size 15 to 20)
#    0.000    0.833    5.833    2.250    0.000    7.000 
#    0.000    0.833    0.000    4.000    0.000    0.000 
#    0.000    0.000    0.000    0.000    0.000    0.000 
#
# Total GULP energy -267687.503986 kJ/mol
# GULP energy per Si atom -5576.823000 kJ/mol
# Density = 1.949885 g / cm^3
# Si number density = 19.543336 Si / 1000 Ang^3
#
#
#
# Elastic Constant Matrix: (Units=GPa)
#
#
# Indices 1 2 3 4 5 6 
#
# 1 57.9168 30.3080 20.5565 0.0000 0.0000 0.0000
# 2 30.3080 72.2027 33.3512 0.0000 0.0000 0.0000
# 3 20.5565 33.3512 137.7097 0.0000 0.0000 0.0000
# 4 0.0000 0.0000 0.0000 41.9990 0.0000 0.0000
# 5 0.0000 0.0000 0.0000 0.0000 -408.3879 0.0000
# 6 0.0000 0.0000 0.0000 0.0000 0.0000 1.0622
#
#
#
# Elastic Compliance Matrix: (Units=1/GPa)
#
#
# Indices 1 2 3 4 5 6 
#
# 1 0.022300 -0.008808 -0.001196 0.000000 0.000000 0.000000
# 2 -0.008808 0.019074 -0.003304 0.000000 0.000000 0.000000
# 3 -0.001196 -0.003304 0.008240 0.000000 0.000000 0.000000
# 4 0.000000 0.000000 0.000000 0.023810 0.000000 0.000000
# 5 0.000000 0.000000 0.000000 0.000000 -0.002449 0.000000
# 6 0.000000 0.000000 0.000000 0.000000 0.000000 0.941432
#
#
# Mechanical properties :
#
#
# Convention : Reuss Voigt Hill
#
# Bulk Modulus (GPa) = 43.48365 48.47340 45.97853
# Shear Modulus (GPa) = 4.77696 -60.82445 -28.02374
#
# Velocity S-wave (km/s) = 1.56512 -5.58484 -3.79083
# Velocity P-wave (km/s) = 5.05611 4.09028 2.10166
#
# Compressibility (1/GPa) = 0.02299715
#
# Stress axis : x y z
#
# Youngs Moduli (GPa) = 44.84307 52.42808 121.35315
#
# Poissons Ratio (x) = 0.46181 0.14508
# Poissons Ratio (y) = 0.39500 0.40101
# Poissons Ratio (z) = 0.05361 0.17325
#
# Static dielectric constant tensor:
#      x y z
#    x 1.709690 0.000000 0.000000 
#    y 0.000000 1.641740 0.000000 
#    z 0.000000 0.000000 1.709040 
# 
# From -- ./inp_files/46424.got.cif
#   From: 2010.05.17/outbox.cif.g08.bks.cpg/sg69_24_cif.got.tgz:46424.got - 2010.06.03 19:29:58.
