data_PCOD9513407
_publ_section_title
;
Structure prediction by ZEFSAII (Michael W. Deem and Ramdas Pophale) SiO2 
 PCOD9513407
Probable space group: F M M M
;
_chemical_formula_sum "Si O2"
_cell_formula_units_Z 208
_cell_length_a 21.204610
_cell_length_b 18.300950
_cell_length_c 28.309628
_cell_angle_alpha 90.000000
_cell_angle_beta 90.000000
_cell_angle_gamma 90.000000
_cell_volume 10985.961844
_symmetry_space_group_name_H-M "F M M M"
_symmetry_group_IT_number 69
_symmetry_cell_setting 'orthorhombic'
loop_
_space_group_symop_operation_xyz
x,y,z
-x,-y,z
x,-y,-z
-x,y,-z
-x,-y,-z
x,y,-z
-x,y,z
x,-y,z
x,1/2+y,1/2+z
-x,1/2-y,1/2+z
x,1/2-y,1/2-z
-x,1/2+y,1/2-z
-x,1/2-y,1/2-z
x,1/2+y,1/2-z
-x,1/2+y,1/2+z
x,1/2-y,1/2+z
1/2+x,y,1/2+z
1/2-x,-y,1/2+z
1/2+x,-y,1/2-z
1/2-x,y,1/2-z
1/2-x,-y,1/2-z
1/2+x,y,1/2-z
1/2-x,y,1/2+z
1/2+x,-y,1/2+z
1/2+x,1/2+y,z
1/2-x,1/2-y,z
1/2+x,1/2-y,-z
1/2-x,1/2+y,-z
1/2-x,1/2-y,-z
1/2+x,1/2+y,-z
1/2-x,1/2+y,z
1/2+x,1/2-y,z
loop_
_atom_site_type_symbol
_atom_site_label
_atom_site_fract_x
_atom_site_fract_y
_atom_site_fract_z
Si Si1 0.575196 0.167944 0.612308
Si Si2 0.766295 0.912897 0.364008
Si Si3 0.429834 0.666351 0.732656
Si Si4 0.500000 0.912025 0.056238
Si Si5 0.167916 0.913160 0.052525
Si Si6 0.649964 0.912668 0.695775
Si Si7 0.399397 0.836011 0.123808
O O1 0.500000 0.167668 0.614438
O O2 0.604080 0.126453 0.567608
O O3 0.604970 0.126750 0.657472
O O4 0.599356 0.250810 0.611032
O O5 0.721164 0.897069 0.408757
O O6 0.721958 0.895092 0.318906
O O7 0.829842 0.868485 0.370233
O O8 0.779629 0.000000 0.362947
O O9 0.500000 0.643647 0.749415
O O10 0.420675 0.750000 0.750000
O O11 0.375099 0.617000 0.754745
O O12 0.428754 0.660843 0.676311
O O13 0.440120 0.879518 0.084843
O O14 0.500000 0.000000 0.059598
O O15 0.500000 0.893076 0.000000
O O16 0.157581 0.000000 0.054465
O O17 0.188103 0.892813 0.000000
O O18 0.643295 0.000000 0.692190
#
# Coordination Sequence:
#
# PCOD9513407 Si02
#       7
#    32  32  32  16  32  32  32
#     4  11  21  37  59  89 129 164 199 255 319 379
#     4   9  21  41  63  89 126 165 211 265 316 375
#     4  11  22  40  63  91 131 170 211 260 313 373
#     4  11  26  46  65  92 127 167 224 281 326 374
#     4   9  20  39  62  89 120 159 209 261 317 387
#     4  10  22  39  61  93 128 168 208 250 311 382
#     4  12  23  42  66  92 124 169 213 264 325 381
#
# _framework density 18.933254000000002
#
# number of rings (size 3 to 8) (size 9 to 14) (size 15 to 20)
#    0.000    1.615    3.077    2.308    0.000    8.000 
#    0.000    5.385    0.000    0.000    0.000    0.000 
#    0.000    0.000    0.000    0.000    0.000    0.000 
#
# Total GULP energy -290302.146285 kJ/mol
# GULP energy per Si atom -5582.733582 kJ/mol
# Density = 1.889016 g / cm^3
# Si number density = 18.933254 Si / 1000 Ang^3
#
#
#
# Elastic Constant Matrix: (Units=GPa)
#
#
# Indices 1 2 3 4 5 6 
#
# 1 137.3496 51.5789 28.6075 0.0000 0.0000 0.0000
# 2 51.5789 61.3851 32.9454 0.0000 0.0000 0.0000
# 3 28.6075 32.9454 105.7936 0.0000 0.0000 0.0000
# 4 0.0000 0.0000 0.0000 17.8282 0.0000 0.0000
# 5 0.0000 0.0000 0.0000 0.0000 15.7168 0.0000
# 6 0.0000 0.0000 0.0000 0.0000 0.0000 29.7783
#
#
#
# Elastic Compliance Matrix: (Units=1/GPa)
#
#
# Indices 1 2 3 4 5 6 
#
# 1 0.010638 -0.008879 -0.000112 0.000000 0.000000 0.000000
# 2 -0.008879 0.026970 -0.005998 0.000000 0.000000 0.000000
# 3 -0.000112 -0.005998 0.011350 0.000000 0.000000 0.000000
# 4 0.000000 0.000000 0.000000 0.056091 0.000000 0.000000
# 5 0.000000 0.000000 0.000000 0.000000 0.063626 0.000000
# 6 0.000000 0.000000 0.000000 0.000000 0.000000 0.033582
#
#
# Mechanical properties :
#
#
# Convention : Reuss Voigt Hill
#
# Bulk Modulus (GPa) = 52.68185 58.97690 55.82937
# Shear Modulus (GPa) = 20.95897 25.42443 23.19170
#
# Velocity S-wave (km/s) = 3.33076 3.66846 3.50368
# Velocity P-wave (km/s) = 6.53279 7.01149 6.77637
#
# Compressibility (1/GPa) = 0.01898187
#
# Stress axis : x y z
#
# Youngs Moduli (GPa) = 94.00059 37.07802 88.10273
#
# Poissons Ratio (x) = 0.32921 0.00984
# Poissons Ratio (y) = 0.83462 0.52843
# Poissons Ratio (z) = 0.01050 0.22239
#
# Static dielectric constant tensor:
#      x y z
#    x 1.649460 0.000000 0.000000 
#    y 0.000000 1.637190 0.000000 
#    z 0.000000 0.000000 1.696120 
# 
# From -- ./inp_files/42728.got.cif
#   From: 2010.05.17/outbox.cif.g08.bks.cpg/sg69_22_cif.got.tgz:42728.got - 2010.06.03 19:29:58.
