data_PCOD9513179
_publ_section_title
;
Structure prediction by ZEFSAII (Michael W. Deem and Ramdas Pophale) SiO2 
 PCOD9513179
Probable space group: F M M M
;
_chemical_formula_sum "Si O2"
_cell_formula_units_Z 112
_cell_length_a 25.704956
_cell_length_b 15.765263
_cell_length_c 13.438301
_cell_angle_alpha 90.000000
_cell_angle_beta 90.000000
_cell_angle_gamma 90.000000
_cell_volume 5445.809553
_symmetry_space_group_name_H-M "F M M M"
_symmetry_group_IT_number 69
_symmetry_cell_setting 'orthorhombic'
loop_
_space_group_symop_operation_xyz
x,y,z
-x,-y,z
x,-y,-z
-x,y,-z
-x,-y,-z
x,y,-z
-x,y,z
x,-y,z
x,1/2+y,1/2+z
-x,1/2-y,1/2+z
x,1/2-y,1/2-z
-x,1/2+y,1/2-z
-x,1/2-y,1/2-z
x,1/2+y,1/2-z
-x,1/2+y,1/2+z
x,1/2-y,1/2+z
1/2+x,y,1/2+z
1/2-x,-y,1/2+z
1/2+x,-y,1/2-z
1/2-x,y,1/2-z
1/2-x,-y,1/2-z
1/2+x,y,1/2-z
1/2-x,y,1/2+z
1/2+x,-y,1/2+z
1/2+x,1/2+y,z
1/2-x,1/2-y,z
1/2+x,1/2-y,-z
1/2-x,1/2+y,-z
1/2-x,1/2-y,-z
1/2+x,1/2+y,-z
1/2-x,1/2+y,z
1/2+x,1/2-y,z
loop_
_atom_site_type_symbol
_atom_site_label
_atom_site_fract_x
_atom_site_fract_y
_atom_site_fract_z
Si Si1 0.616003 0.000000 0.878399
Si Si2 0.097299 0.154537 0.232110
Si Si3 0.264143 0.500000 0.618612
Si Si4 0.707773 0.674603 0.880364
Si Si5 0.000000 0.599865 0.606012
O O1 0.597512 0.912191 0.825003
O O2 0.676705 0.000000 0.849991
O O3 0.608956 0.000000 0.000000
O O4 0.078933 0.250000 0.250000
O O5 0.154055 0.169504 0.181090
O O6 0.053947 0.118876 0.159270
O O7 0.266171 0.500000 0.500000
O O8 0.235286 0.413987 0.644166
O O9 0.750000 0.750000 0.860731
O O10 0.696590 0.679283 0.000000
O O11 0.000000 0.500000 0.595503
O O12 0.000000 0.644938 0.500000
#
# Coordination Sequence:
#
# PCOD9513179 Si02
#       5
#    16  32  16  32  16
#     4  11  25  44  64  96 143 188 230 283 346 414
#     4  12  25  43  70 100 136 181 232 283 343 417
#     4   9  19  35  57  86 129 179 220 264 328 402
#     4  10  21  38  63 100 140 176 223 283 348 413
#     4  11  25  48  74  99 130 168 226 296 352 406
#
# _framework density 20.566272000000001
#
# number of rings (size 3 to 8) (size 9 to 14) (size 15 to 20)
#    0.000    1.286    1.429    3.857    0.000    9.714 
#    0.000    1.429    0.000    0.857    0.000    0.000 
#    0.000    0.000    0.000    0.000    0.000    0.000 
#
# Total GULP energy -156122.333468 kJ/mol
# GULP energy per Si atom -5575.797624 kJ/mol
# Density = 2.051946 g / cm^3
# Si number density = 20.566272 Si / 1000 Ang^3
#
#
#
# Elastic Constant Matrix: (Units=GPa)
#
#
# Indices 1 2 3 4 5 6 
#
# 1 92.6842 36.4698 33.1115 0.0000 0.0000 0.0000
# 2 36.4698 171.3010 45.6612 0.0000 0.0000 0.0000
# 3 33.1115 45.6612 130.8830 0.0000 0.0000 0.0000
# 4 0.0000 0.0000 0.0000 233.7941 0.0000 0.0000
# 5 0.0000 0.0000 0.0000 0.0000 68.6792 0.0000
# 6 0.0000 0.0000 0.0000 0.0000 0.0000 -119.1922
#
#
#
# Elastic Compliance Matrix: (Units=1/GPa)
#
#
# Indices 1 2 3 4 5 6 
#
# 1 0.012452 -0.001997 -0.002453 0.000000 0.000000 0.000000
# 2 -0.001997 0.006756 -0.001852 0.000000 0.000000 0.000000
# 3 -0.002453 -0.001852 0.008907 0.000000 0.000000 0.000000
# 4 0.000000 0.000000 0.000000 0.004277 0.000000 0.000000
# 5 0.000000 0.000000 0.000000 0.000000 0.014560 0.000000
# 6 0.000000 0.000000 0.000000 0.000000 0.000000 -0.008390
#
#
# Mechanical properties :
#
#
# Convention : Reuss Voigt Hill
#
# Bulk Modulus (GPa) = 64.47181 69.48368 66.97775
# Shear Modulus (GPa) = 88.75023 55.29794 72.02408
#
# Velocity S-wave (km/s) = 6.57624 5.19096 5.92423
# Velocity P-wave (km/s) = 9.43817 8.35384 8.91251
#
# Compressibility (1/GPa) = 0.01551065
#
# Stress axis : x y z
#
# Youngs Moduli (GPa) = 80.31111 148.00629 112.26922
#
# Poissons Ratio (x) = 0.29556 0.27544
# Poissons Ratio (y) = 0.16038 0.20791
# Poissons Ratio (z) = 0.19703 0.27410
#
# Static dielectric constant tensor:
#      x y z
#    x 1.700180 0.000000 0.000000 
#    y 0.000000 1.825320 0.000000 
#    z 0.000000 0.000000 1.863070 
# 
# From -- ./inp_files/17252.got.cif
#   From: 2010.05.17/outbox.cif.g08.bks.cpg/sg69_9_cif.got.tgz:17252.got - 2010.06.03 19:29:58.
