data_PCOD9513641
_publ_section_title
;
Structure prediction by ZEFSAII (Michael W. Deem and Ramdas Pophale) SiO2 
 PCOD9513641
Probable space group: F M M M
;
_chemical_formula_sum "Si O2"
_cell_formula_units_Z 112
_cell_length_a 20.881798
_cell_length_b 14.488047
_cell_length_c 19.729411
_cell_angle_alpha 90.000000
_cell_angle_beta 90.000000
_cell_angle_gamma 90.000000
_cell_volume 5968.866376
_symmetry_space_group_name_H-M "F M M M"
_symmetry_group_IT_number 69
_symmetry_cell_setting 'orthorhombic'
loop_
_space_group_symop_operation_xyz
x,y,z
-x,-y,z
x,-y,-z
-x,y,-z
-x,-y,-z
x,y,-z
-x,y,z
x,-y,z
x,1/2+y,1/2+z
-x,1/2-y,1/2+z
x,1/2-y,1/2-z
-x,1/2+y,1/2-z
-x,1/2-y,1/2-z
x,1/2+y,1/2-z
-x,1/2+y,1/2+z
x,1/2-y,1/2+z
1/2+x,y,1/2+z
1/2-x,-y,1/2+z
1/2+x,-y,1/2-z
1/2-x,y,1/2-z
1/2-x,-y,1/2-z
1/2+x,y,1/2-z
1/2-x,y,1/2+z
1/2+x,-y,1/2+z
1/2+x,1/2+y,z
1/2-x,1/2-y,z
1/2+x,1/2-y,-z
1/2-x,1/2+y,-z
1/2-x,1/2-y,-z
1/2+x,1/2+y,-z
1/2-x,1/2+y,z
1/2+x,1/2-y,z
loop_
_atom_site_type_symbol
_atom_site_label
_atom_site_fract_x
_atom_site_fract_y
_atom_site_fract_z
Si Si1 0.927796 0.649263 0.284937
Si Si2 0.250000 0.750000 0.389695
Si Si3 0.690850 0.402166 0.697859
Si Si4 0.641141 0.890548 0.424401
O O1 0.929399 0.750000 0.250000
O O2 0.873747 0.599805 0.240676
O O3 0.903339 0.643624 0.362574
O O4 0.000000 0.612121 0.281368
O O5 0.299364 0.688647 0.346085
O O6 0.294745 0.827519 0.423758
O O7 0.694328 0.500000 0.659604
O O8 0.750000 0.399861 0.750000
O O9 0.612401 0.881843 0.500000
O O10 0.654855 0.000000 0.413207
#
# Coordination Sequence:
#
# PCOD9513641 Si02
#       4
#    32  16  32  32
#     4  11  22  39  61  87 119 157 200 250 305 357
#     4  12  20  38  56  90 120 158 192 252 294 350
#     4  11  20  33  59  87 114 151 194 244 298 349
#     4  11  24  40  60  88 122 162 203 244 299 360
#
# _framework density 18.764032
#
# number of rings (size 3 to 8) (size 9 to 14) (size 15 to 20)
#    0.000    0.857    5.714    2.571    0.000    2.857 
#    0.000    1.429    0.000    0.000    0.000    0.000 
#    0.000    4.571    0.000    0.000    0.000    0.000 
#
# Total GULP energy -156054.745232 kJ/mol
# GULP energy per Si atom -5573.383758 kJ/mol
# Density = 1.872132 g / cm^3
# Si number density = 18.764032 Si / 1000 Ang^3
#
#
#
# Elastic Constant Matrix: (Units=GPa)
#
#
# Indices 1 2 3 4 5 6 
#
# 1 134.6001 37.8860 42.2950 0.0000 0.0000 0.0000
# 2 37.8860 138.0112 56.4471 0.0000 0.0000 0.0000
# 3 42.2950 56.4471 112.4965 0.0000 0.0000 0.0000
# 4 0.0000 0.0000 0.0000 22.2331 0.0000 0.0000
# 5 0.0000 0.0000 0.0000 0.0000 11.0119 0.0000
# 6 0.0000 0.0000 0.0000 0.0000 0.0000 172.2554
#
#
#
# Elastic Compliance Matrix: (Units=1/GPa)
#
#
# Indices 1 2 3 4 5 6 
#
# 1 0.008608 -0.001308 -0.002580 0.000000 0.000000 0.000000
# 2 -0.001308 0.009315 -0.004183 0.000000 0.000000 0.000000
# 3 -0.002580 -0.004183 0.011958 0.000000 0.000000 0.000000
# 4 0.000000 0.000000 0.000000 0.044978 0.000000 0.000000
# 5 0.000000 0.000000 0.000000 0.000000 0.090811 0.000000
# 6 0.000000 0.000000 0.000000 0.000000 0.000000 0.005805
#
#
# Mechanical properties :
#
#
# Convention : Reuss Voigt Hill
#
# Bulk Modulus (GPa) = 72.77702 73.15156 72.96429
# Shear Modulus (GPa) = 26.01496 57.66540 41.84018
#
# Velocity S-wave (km/s) = 3.72751 5.54965 4.72721
# Velocity P-wave (km/s) = 7.57598 8.95178 8.29246
#
# Compressibility (1/GPa) = 0.01374060
#
# Stress axis : x y z
#
# Youngs Moduli (GPa) = 116.16700 107.34856 83.62672
#
# Poissons Ratio (x) = 0.14039 0.21578
# Poissons Ratio (y) = 0.15192 0.34977
# Poissons Ratio (z) = 0.29974 0.44899
#
# Static dielectric constant tensor:
#      x y z
#    x 1.662240 0.000000 0.000000 
#    y 0.000000 1.689810 0.000000 
#    z 0.000000 0.000000 1.665100 
# 
# From -- ./inp_files/25418.got.cif
#   From: 2010.05.17/outbox.cif.g08.bks.cpg/sg69_13_cif.got.tgz:25418.got - 2010.06.03 19:29:58.
