data_PCOD9513466
_publ_section_title
;
Structure prediction by ZEFSAII (Michael W. Deem and Ramdas Pophale) SiO2 
 PCOD9513466
Probable space group: F M M M
;
_chemical_formula_sum "Si O2"
_cell_formula_units_Z 116
_cell_length_a 9.594579
_cell_length_b 21.896946
_cell_length_c 27.897965
_cell_angle_alpha 90.000000
_cell_angle_beta 90.000000
_cell_angle_gamma 90.000000
_cell_volume 5861.138656
_symmetry_space_group_name_H-M "F M M M"
_symmetry_group_IT_number 69
_symmetry_cell_setting 'orthorhombic'
loop_
_space_group_symop_operation_xyz
x,y,z
-x,-y,z
x,-y,-z
-x,y,-z
-x,-y,-z
x,y,-z
-x,y,z
x,-y,z
x,1/2+y,1/2+z
-x,1/2-y,1/2+z
x,1/2-y,1/2-z
-x,1/2+y,1/2-z
-x,1/2-y,1/2-z
x,1/2+y,1/2-z
-x,1/2+y,1/2+z
x,1/2-y,1/2+z
1/2+x,y,1/2+z
1/2-x,-y,1/2+z
1/2+x,-y,1/2-z
1/2-x,y,1/2-z
1/2-x,-y,1/2-z
1/2+x,y,1/2-z
1/2-x,y,1/2+z
1/2+x,-y,1/2+z
1/2+x,1/2+y,z
1/2-x,1/2-y,z
1/2+x,1/2-y,-z
1/2-x,1/2+y,-z
1/2-x,1/2-y,-z
1/2+x,1/2+y,-z
1/2-x,1/2+y,z
1/2+x,1/2-y,z
loop_
_atom_site_type_symbol
_atom_site_label
_atom_site_fract_x
_atom_site_fract_y
_atom_site_fract_z
Si Si1 0.206119 0.000000 0.053810
Si Si2 0.500000 0.352929 0.444675
Si Si3 0.330993 0.812013 0.700476
Si Si4 0.212929 0.623655 0.605125
Si Si5 0.000000 0.500000 0.000000
Si Si6 0.000000 0.792790 0.946103
O O1 0.163746 0.940440 0.083697
O O2 0.373220 0.000000 0.041695
O O3 0.146892 0.000000 0.000000
O O4 0.500000 0.379451 0.500000
O O5 0.367669 0.371331 0.414542
O O6 0.500000 0.279744 0.448182
O O7 0.500000 0.802613 0.705947
O O8 0.250000 0.826210 0.750000
O O9 0.250000 0.750000 0.683565
O O10 0.306119 0.864506 0.661259
O O11 0.131036 0.679655 0.580926
O O12 0.000000 0.816812 0.000000
#
# Coordination Sequence:
#
# PCOD9513466 Si02
#       6
#    16  16  32  32   4  16
#     4  10  22  41  63  93 127 182 229 268 309 382
#     4  11  23  37  62  92 128 172 217 271 324 399
#     4  11  24  44  69 101 131 169 221 278 343 403
#     4  12  24  39  65  92 132 173 221 270 325 391
#     4   8  20  44  60  90 124 172 248 266 304 358
#     4  11  22  38  56  93 132 166 207 265 339 400
#
# _framework density 19.791377000000001
#
# number of rings (size 3 to 8) (size 9 to 14) (size 15 to 20)
#    0.414    0.552    1.379    7.448    5.793    2.759 
#    0.000    2.069    0.000    0.000    0.000    0.000 
#    0.000    0.000    0.000    0.000    0.000    0.000 
#
# Total GULP energy -161677.769459 kJ/mol
# GULP energy per Si atom -5575.095499 kJ/mol
# Density = 1.974633 g / cm^3
# Si number density = 19.791377 Si / 1000 Ang^3
#
#
#
# Elastic Constant Matrix: (Units=GPa)
#
#
# Indices 1 2 3 4 5 6 
#
# 1 175.6474 17.7583 41.8169 0.0000 0.0000 0.0000
# 2 17.7583 93.3910 65.0433 0.0000 0.0000 0.0000
# 3 41.8169 65.0433 137.4991 0.0000 0.0000 0.0000
# 4 0.0000 0.0000 0.0000 42.8547 0.0000 0.0000
# 5 0.0000 0.0000 0.0000 0.0000 22.1669 0.0000
# 6 0.0000 0.0000 0.0000 0.0000 0.0000 20.4807
#
#
#
# Elastic Compliance Matrix: (Units=1/GPa)
#
#
# Indices 1 2 3 4 5 6 
#
# 1 0.006140 0.000198 -0.001961 0.000000 0.000000 0.000000
# 2 0.000198 0.015975 -0.007617 0.000000 0.000000 0.000000
# 3 -0.001961 -0.007617 0.011473 0.000000 0.000000 0.000000
# 4 0.000000 0.000000 0.000000 0.023335 0.000000 0.000000
# 5 0.000000 0.000000 0.000000 0.000000 0.045112 0.000000
# 6 0.000000 0.000000 0.000000 0.000000 0.000000 0.048826
#
#
# Mechanical properties :
#
#
# Convention : Reuss Voigt Hill
#
# Bulk Modulus (GPa) = 67.44217 72.86380 70.15298
# Shear Modulus (GPa) = 28.64282 35.89507 32.26894
#
# Velocity S-wave (km/s) = 3.80838 4.26334 4.04227
# Velocity P-wave (km/s) = 7.31361 7.81861 7.57032
#
# Compressibility (1/GPa) = 0.01482752
#
# Stress axis : x y z
#
# Youngs Moduli (GPa) = 162.86448 62.59743 87.16475
#
# Poissons Ratio (x) = -0.01242 0.17095
# Poissons Ratio (y) = -0.03230 0.66396
# Poissons Ratio (z) = 0.31941 0.47682
#
# Static dielectric constant tensor:
#      x y z
#    x 1.881040 0.000000 0.000000 
#    y 0.000000 1.801050 0.000000 
#    z 0.000000 0.000000 1.703430 
# 
# From -- ./inp_files/44327.got.cif
#   From: 2010.05.17/outbox.cif.g08.bks.cpg/sg69_23_cif.got.tgz:44327.got - 2010.06.03 19:29:58.
