data_PCOD9513898
_publ_section_title
;
Structure prediction by ZEFSAII (Michael W. Deem and Ramdas Pophale) SiO2 
 PCOD9513898
Probable space group: F M M M
;
_chemical_formula_sum "Si O2"
_cell_formula_units_Z 112
_cell_length_a 30.248602
_cell_length_b 15.017612
_cell_length_c 11.112841
_cell_angle_alpha 90.000000
_cell_angle_beta 90.000000
_cell_angle_gamma 90.000000
_cell_volume 5048.138804
_symmetry_space_group_name_H-M "F M M M"
_symmetry_group_IT_number 69
_symmetry_cell_setting 'orthorhombic'
loop_
_space_group_symop_operation_xyz
x,y,z
-x,-y,z
x,-y,-z
-x,y,-z
-x,-y,-z
x,y,-z
-x,y,z
x,-y,z
x,1/2+y,1/2+z
-x,1/2-y,1/2+z
x,1/2-y,1/2-z
-x,1/2+y,1/2-z
-x,1/2-y,1/2-z
x,1/2+y,1/2-z
-x,1/2+y,1/2+z
x,1/2-y,1/2+z
1/2+x,y,1/2+z
1/2-x,-y,1/2+z
1/2+x,-y,1/2-z
1/2-x,y,1/2-z
1/2-x,-y,1/2-z
1/2+x,y,1/2-z
1/2-x,y,1/2+z
1/2+x,-y,1/2+z
1/2+x,1/2+y,z
1/2-x,1/2-y,z
1/2+x,1/2-y,-z
1/2-x,1/2+y,-z
1/2-x,1/2-y,-z
1/2+x,1/2+y,-z
1/2-x,1/2+y,z
1/2+x,1/2-y,z
loop_
_atom_site_type_symbol
_atom_site_label
_atom_site_fract_x
_atom_site_fract_y
_atom_site_fract_z
Si Si1 0.550522 0.607801 0.733516
Si Si2 0.946491 0.398497 0.500000
Si Si3 0.634190 0.691982 0.368927
Si Si4 0.727415 0.894187 0.870133
O O1 0.500000 0.635695 0.707273
O O2 0.550686 0.500000 0.736362
O O3 0.587206 0.643230 0.644172
O O4 0.563581 0.640528 0.868853
O O5 0.928760 0.500000 0.500000
O O6 0.000000 0.404330 0.500000
O O7 0.636628 0.737939 0.500000
O O8 0.639886 0.750000 0.250000
O O9 0.675202 0.623913 0.365399
O O10 0.750000 0.857063 0.750000
O O11 0.735183 0.000000 0.870853
O O12 0.743952 0.859079 0.000000
#
# Coordination Sequence:
#
# PCOD9513898 Si02
#       4
#    32  16  32  32
#     4   9  18  35  60  86 113 149 196 245 290 338
#     4   7  12  26  50  80 108 135 173 229 287 328
#     4  11  25  40  56  83 120 158 193 235 287 343
#     4   9  19  39  65  90 115 144 185 237 288 339
#
# _framework density 22.186395000000001
#
# number of rings (size 3 to 8) (size 9 to 14) (size 15 to 20)
#    0.000    2.714    0.000    2.571    2.000    4.571 
#    0.000    4.286    0.000    0.000    0.000    0.000 
#    0.000    0.000    0.000    0.000    0.000    0.000 
#
# Total GULP energy -156195.473823 kJ/mol
# GULP energy per Si atom -5578.409779 kJ/mol
# Density = 2.213590 g / cm^3
# Si number density = 22.186395 Si / 1000 Ang^3
#
#
#
# Elastic Constant Matrix: (Units=GPa)
#
#
# Indices 1 2 3 4 5 6 
#
# 1 80.4451 1.4360 59.9387 0.0000 0.0000 0.0000
# 2 1.4360 36.4265 20.2824 0.0000 0.0000 0.0000
# 3 59.9387 20.2824 198.1391 0.0000 0.0000 0.0000
# 4 0.0000 0.0000 0.0000 10.0355 0.0000 0.0000
# 5 0.0000 0.0000 0.0000 0.0000 29.9191 0.0000
# 6 0.0000 0.0000 0.0000 0.0000 0.0000 57.2195
#
#
#
# Elastic Compliance Matrix: (Units=1/GPa)
#
#
# Indices 1 2 3 4 5 6 
#
# 1 0.016215 0.002218 -0.005132 0.000000 0.000000 0.000000
# 2 0.002218 0.029415 -0.003682 0.000000 0.000000 0.000000
# 3 -0.005132 -0.003682 0.006976 0.000000 0.000000 0.000000
# 4 0.000000 0.000000 0.000000 0.099646 0.000000 0.000000
# 5 0.000000 0.000000 0.000000 0.000000 0.033423 0.000000
# 6 0.000000 0.000000 0.000000 0.000000 0.000000 0.017477
#
#
# Mechanical properties :
#
#
# Convention : Reuss Voigt Hill
#
# Bulk Modulus (GPa) = 25.37108 53.14722 39.25915
# Shear Modulus (GPa) = 21.78806 34.99174 28.38990
#
# Velocity S-wave (km/s) = 3.13716 3.97567 3.58104
# Velocity P-wave (km/s) = 4.95809 6.71427 5.90187
#
# Compressibility (1/GPa) = 0.03941496
#
# Stress axis : x y z
#
# Youngs Moduli (GPa) = 61.67017 33.99589 143.33901
#
# Poissons Ratio (x) = -0.07542 0.73567
# Poissons Ratio (y) = -0.13681 0.52780
# Poissons Ratio (z) = 0.31651 0.12518
#
# Static dielectric constant tensor:
#      x y z
#    x 1.773710 0.000000 0.000000 
#    y 0.000000 1.823350 0.000000 
#    z 0.000000 0.000000 1.885210 
# 
# From -- ./inp_files/8311.got.cif
#   From: 2010.05.17/outbox.cif.g08.bks.cpg/sg69_5_cif.got.tgz:8311.got - 2010.06.03 19:29:58.
