data_PCOD9513014
_publ_section_title
;
Structure prediction by ZEFSAII (Michael W. Deem and Ramdas Pophale) SiO2 
 PCOD9513014
Probable space group: F M M M
;
_chemical_formula_sum "Si O2"
_cell_formula_units_Z 192
_cell_length_a 15.085991
_cell_length_b 27.684669
_cell_length_c 25.067324
_cell_angle_alpha 90.000000
_cell_angle_beta 90.000000
_cell_angle_gamma 90.000000
_cell_volume 10469.384598
_symmetry_space_group_name_H-M "F M M M"
_symmetry_group_IT_number 69
_symmetry_cell_setting 'orthorhombic'
loop_
_space_group_symop_operation_xyz
x,y,z
-x,-y,z
x,-y,-z
-x,y,-z
-x,-y,-z
x,y,-z
-x,y,z
x,-y,z
x,1/2+y,1/2+z
-x,1/2-y,1/2+z
x,1/2-y,1/2-z
-x,1/2+y,1/2-z
-x,1/2-y,1/2-z
x,1/2+y,1/2-z
-x,1/2+y,1/2+z
x,1/2-y,1/2+z
1/2+x,y,1/2+z
1/2-x,-y,1/2+z
1/2+x,-y,1/2-z
1/2-x,y,1/2-z
1/2-x,-y,1/2-z
1/2+x,y,1/2-z
1/2-x,y,1/2+z
1/2+x,-y,1/2+z
1/2+x,1/2+y,z
1/2-x,1/2-y,z
1/2+x,1/2-y,-z
1/2-x,1/2+y,-z
1/2-x,1/2-y,-z
1/2+x,1/2+y,-z
1/2-x,1/2+y,z
1/2+x,1/2-y,z
loop_
_atom_site_type_symbol
_atom_site_label
_atom_site_fract_x
_atom_site_fract_y
_atom_site_fract_z
Si Si1 0.803838 0.899229 0.937378
Si Si2 0.245562 0.557483 0.832376
Si Si3 0.679399 0.791174 0.603911
Si Si4 0.500000 0.600834 0.936002
Si Si5 0.894392 0.405650 0.251394
Si Si6 0.395616 0.201849 0.282003
Si Si7 0.000000 0.788961 0.936748
O O1 0.742416 0.922048 0.892335
O O2 0.805672 0.841087 0.928137
O O3 0.903365 0.919317 0.923327
O O4 0.786120 0.908854 0.000000
O O5 0.252348 0.500000 0.832605
O O6 0.158556 0.572504 0.798715
O O7 0.333231 0.577894 0.801598
O O8 0.750000 0.750000 0.596786
O O9 0.664233 0.803521 0.665741
O O10 0.588987 0.766798 0.583897
O O11 0.500000 0.655746 0.914922
O O12 0.500000 0.604004 0.000000
O O13 0.888374 0.347451 0.248975
O O14 0.000000 0.418081 0.255738
O O15 0.500000 0.206543 0.297418
O O16 0.371396 0.250000 0.250000
O O17 0.000000 0.791043 0.000000
#
# Coordination Sequence:
#
# PCOD9513014 Si02
#       7
#    32  32  32  16  32  32  16
#     4  10  21  38  59  85 118 154 197 247 302 358
#     4  11  24  39  60  91 118 151 201 248 301 355
#     4  11  21  33  58  84 113 153 195 237 288 353
#     4   7  14  30  55  79 106 144 185 231 287 347
#     4  10  22  41  64  87 119 159 196 240 296 353
#     4  10  21  36  58  87 118 154 192 234 286 345
#     4   9  18  34  51  74 111 149 191 238 277 332
#
# _framework density 18.339186999999999
#
# number of rings (size 3 to 8) (size 9 to 14) (size 15 to 20)
#    0.000    2.000    2.500    2.500    3.500    3.333 
#    0.000    0.000    0.000    2.000    0.000    1.167 
#    0.000    0.000    0.000    0.000    0.000    0.000 
#
# Total GULP energy -267548.924622 kJ/mol
# GULP energy per Si atom -5573.935930 kJ/mol
# Density = 1.829745 g / cm^3
# Si number density = 18.339187 Si / 1000 Ang^3
#
#
#
# Elastic Constant Matrix: (Units=GPa)
#
#
# Indices 1 2 3 4 5 6 
#
# 1 92.9932 38.5001 33.3529 0.0000 0.0000 0.0000
# 2 38.5001 87.6447 34.2390 0.0000 0.0000 0.0000
# 3 33.3529 34.2390 110.7564 0.0000 0.0000 0.0000
# 4 0.0000 0.0000 0.0000 2.4766 0.0000 0.0000
# 5 0.0000 0.0000 0.0000 0.0000 20.9619 0.0000
# 6 0.0000 0.0000 0.0000 0.0000 0.0000 15.6321
#
#
#
# Elastic Compliance Matrix: (Units=1/GPa)
#
#
# Indices 1 2 3 4 5 6 
#
# 1 0.013767 -0.005036 -0.002589 0.000000 0.000000 0.000000
# 2 -0.005036 0.014819 -0.003065 0.000000 0.000000 0.000000
# 3 -0.002589 -0.003065 0.010756 0.000000 0.000000 0.000000
# 4 0.000000 0.000000 0.000000 0.403772 0.000000 0.000000
# 5 0.000000 0.000000 0.000000 0.000000 0.047706 0.000000
# 6 0.000000 0.000000 0.000000 0.000000 0.000000 0.063971
#
#
# Mechanical properties :
#
#
# Convention : Reuss Voigt Hill
#
# Bulk Modulus (GPa) = 55.67081 55.95314 55.81197
# Shear Modulus (GPa) = 8.58875 20.16761 14.37818
#
# Velocity S-wave (km/s) = 2.16644 3.31977 2.80306
# Velocity P-wave (km/s) = 6.05640 6.72836 6.40121
#
# Compressibility (1/GPa) = 0.01796273
#
# Stress axis : x y z
#
# Youngs Moduli (GPa) = 72.63740 67.48028 92.97288
#
# Poissons Ratio (x) = 0.33984 0.24070
# Poissons Ratio (y) = 0.36581 0.28492
# Poissons Ratio (z) = 0.18805 0.20680
#
# Static dielectric constant tensor:
#      x y z
#    x 1.671280 0.000000 0.000000 
#    y 0.000000 1.614410 0.000000 
#    z 0.000000 0.000000 1.647370 
# 
# From -- ./inp_files/36105.got.cif
#   From: 2010.05.17/outbox.cif.g08.bks.cpg/sg69_19_cif.got.tgz:36105.got - 2010.06.03 19:29:58.
