data_PCOD9513271
_publ_section_title
;
Structure prediction by ZEFSAII (Michael W. Deem and Ramdas Pophale) SiO2 
 PCOD9513271
Probable space group: F M M M
;
_chemical_formula_sum "Si O2"
_cell_formula_units_Z 144
_cell_length_a 25.684300
_cell_length_b 10.330261
_cell_length_c 30.198063
_cell_angle_alpha 90.000000
_cell_angle_beta 90.000000
_cell_angle_gamma 90.000000
_cell_volume 8012.316847
_symmetry_space_group_name_H-M "F M M M"
_symmetry_group_IT_number 69
_symmetry_cell_setting 'orthorhombic'
loop_
_space_group_symop_operation_xyz
x,y,z
-x,-y,z
x,-y,-z
-x,y,-z
-x,-y,-z
x,y,-z
-x,y,z
x,-y,z
x,1/2+y,1/2+z
-x,1/2-y,1/2+z
x,1/2-y,1/2-z
-x,1/2+y,1/2-z
-x,1/2-y,1/2-z
x,1/2+y,1/2-z
-x,1/2+y,1/2+z
x,1/2-y,1/2+z
1/2+x,y,1/2+z
1/2-x,-y,1/2+z
1/2+x,-y,1/2-z
1/2-x,y,1/2-z
1/2-x,-y,1/2-z
1/2+x,y,1/2-z
1/2-x,y,1/2+z
1/2+x,-y,1/2+z
1/2+x,1/2+y,z
1/2-x,1/2-y,z
1/2+x,1/2-y,-z
1/2-x,1/2+y,-z
1/2-x,1/2-y,-z
1/2+x,1/2+y,-z
1/2-x,1/2+y,z
1/2+x,1/2-y,z
loop_
_atom_site_type_symbol
_atom_site_label
_atom_site_fract_x
_atom_site_fract_y
_atom_site_fract_z
Si Si1 0.706508 0.352490 0.190618
Si Si2 0.174442 0.000000 0.052140
Si Si3 0.701349 0.500000 0.446177
Si Si4 0.651061 0.747942 0.602859
Si Si5 0.619195 0.250000 0.250000
Si Si6 0.559508 0.154482 0.163714
O O1 0.725795 0.500000 0.186949
O O2 0.750000 0.250000 0.204114
O O3 0.686201 0.297558 0.143837
O O4 0.658385 0.347123 0.224749
O O5 0.236544 0.000000 0.062585
O O6 0.148660 0.871318 0.071306
O O7 0.170290 0.000000 0.000000
O O8 0.693801 0.500000 0.500000
O O9 0.676267 0.373320 0.423071
O O10 0.596523 0.710161 0.625400
O O11 0.584361 0.189362 0.211301
O O12 0.500000 0.201146 0.161112
O O13 0.559825 0.000000 0.159436
#
# Coordination Sequence:
#
# PCOD9513271 Si02
#       6
#    32  16  16  32  16  32
#     4  11  23  36  55  83 122 164 199 234 283 350
#     4  11  22  38  61  90 125 158 189 232 289 351
#     4  11  22  38  61  92 123 156 193 232 285 353
#     4  11  22  38  60  89 121 156 197 241 288 344
#     4  10  22  36  58  86 118 146 198 248 298 338
#     4  10  21  40  64  85 112 152 200 250 296 344
#
# _framework density 17.972328999999998
#
# number of rings (size 3 to 8) (size 9 to 14) (size 15 to 20)
#    0.000    1.333    2.222    4.000    1.556    4.444 
#    0.000    0.556    0.000    4.000    0.000    0.000 
#    0.000    0.000    0.000    0.000    0.000    0.000 
#
# Total GULP energy -201040.807182 kJ/mol
# GULP energy per Si atom -5584.466866 kJ/mol
# Density = 1.793142 g / cm^3
# Si number density = 17.972329 Si / 1000 Ang^3
#
#
#
# Elastic Constant Matrix: (Units=GPa)
#
#
# Indices 1 2 3 4 5 6 
#
# 1 126.5528 64.6267 66.7219 0.0000 0.0000 0.0000
# 2 64.6267 156.5779 62.3097 0.0000 0.0000 0.0000
# 3 66.7219 62.3097 122.4622 0.0000 0.0000 0.0000
# 4 0.0000 0.0000 0.0000 21.1622 0.0000 0.0000
# 5 0.0000 0.0000 0.0000 0.0000 -34.2358 0.0000
# 6 0.0000 0.0000 0.0000 0.0000 0.0000 29.2003
#
#
#
# Elastic Compliance Matrix: (Units=1/GPa)
#
#
# Indices 1 2 3 4 5 6 
#
# 1 0.012097 -0.002972 -0.005079 0.000000 0.000000 0.000000
# 2 -0.002972 0.008738 -0.002827 0.000000 0.000000 0.000000
# 3 -0.005079 -0.002827 0.012371 0.000000 0.000000 0.000000
# 4 0.000000 0.000000 0.000000 0.047254 0.000000 0.000000
# 5 0.000000 0.000000 0.000000 0.000000 -0.029209 0.000000
# 6 0.000000 0.000000 0.000000 0.000000 0.000000 0.034246
#
#
# Mechanical properties :
#
#
# Convention : Reuss Voigt Hill
#
# Bulk Modulus (GPa) = 87.32572 88.10105 87.71338
# Shear Modulus (GPa) = 45.01662 17.35432 31.18547
#
# Velocity S-wave (km/s) = 5.01020 3.11080 4.17008
# Velocity P-wave (km/s) = 9.06443 7.87589 8.49098
#
# Compressibility (1/GPa) = 0.01145138
#
# Stress axis : x y z
#
# Youngs Moduli (GPa) = 82.66357 114.44033 80.83262
#
# Poissons Ratio (x) = 0.34011 0.41054
# Poissons Ratio (y) = 0.24567 0.22850
# Poissons Ratio (z) = 0.41984 0.32350
#
# Static dielectric constant tensor:
#      x y z
#    x 1.617110 0.000000 0.000000 
#    y 0.000000 1.529500 0.000000 
#    z 0.000000 0.000000 1.626570 
# 
# From -- ./inp_files/47449.got.cif
#   From: 2010.05.17/outbox.cif.g08.bks.cpg/sg69_24_cif.got.tgz:47449.got - 2010.06.03 19:29:58.
