data_PCOD9513515
_publ_section_title
;
Structure prediction by ZEFSAII (Michael W. Deem and Ramdas Pophale) SiO2 
 PCOD9513515
Probable space group: F M M M
;
_chemical_formula_sum "Si O2"
_cell_formula_units_Z 192
_cell_length_a 17.230882
_cell_length_b 33.630500
_cell_length_c 15.820566
_cell_angle_alpha 90.000000
_cell_angle_beta 90.000000
_cell_angle_gamma 90.000000
_cell_volume 9167.751849
_symmetry_space_group_name_H-M "F M M M"
_symmetry_group_IT_number 69
_symmetry_cell_setting 'orthorhombic'
loop_
_space_group_symop_operation_xyz
x,y,z
-x,-y,z
x,-y,-z
-x,y,-z
-x,-y,-z
x,y,-z
-x,y,z
x,-y,z
x,1/2+y,1/2+z
-x,1/2-y,1/2+z
x,1/2-y,1/2-z
-x,1/2+y,1/2-z
-x,1/2-y,1/2-z
x,1/2+y,1/2-z
-x,1/2+y,1/2+z
x,1/2-y,1/2+z
1/2+x,y,1/2+z
1/2-x,-y,1/2+z
1/2+x,-y,1/2-z
1/2-x,y,1/2-z
1/2-x,-y,1/2-z
1/2+x,y,1/2-z
1/2-x,y,1/2+z
1/2+x,-y,1/2+z
1/2+x,1/2+y,z
1/2-x,1/2-y,z
1/2+x,1/2-y,-z
1/2-x,1/2+y,-z
1/2-x,1/2-y,-z
1/2+x,1/2+y,-z
1/2-x,1/2+y,z
1/2+x,1/2-y,z
loop_
_atom_site_type_symbol
_atom_site_label
_atom_site_fract_x
_atom_site_fract_y
_atom_site_fract_z
Si Si1 0.085665 0.246761 0.851429
Si Si2 0.816287 0.453721 0.321386
Si Si3 0.704856 0.819918 0.596145
Si Si4 0.267870 0.453384 0.500000
Si Si5 0.873276 0.334391 0.851096
Si Si6 0.089014 0.605152 0.000000
Si Si7 0.911500 0.876506 0.823236
O O1 0.090690 0.250000 0.750000
O O2 0.155518 0.219479 0.883176
O O3 0.092644 0.292202 0.880142
O O4 0.000000 0.230583 0.874033
O O5 0.842035 0.500000 0.319157
O O6 0.750000 0.448972 0.250000
O O7 0.780076 0.445603 0.414127
O O8 0.881545 0.420872 0.304623
O O9 0.732621 0.818210 0.500000
O O10 0.780718 0.827405 0.652097
O O11 0.645765 0.856056 0.610202
O O12 0.286224 0.500000 0.500000
O O13 0.346683 0.428811 0.500000
O O14 0.895392 0.367696 0.918287
O O15 0.903178 0.349042 0.760388
O O16 0.000000 0.591292 0.000000
O O17 0.000000 0.876751 0.851180
#
# Coordination Sequence:
#
# PCOD9513515 Si02
#       7
#    32  32  32  16  32  16  32
#     4  11  24  43  65  92 129 169 217 275 335 386
#     4  10  22  42  69  98 131 173 218 268 327 397
#     4  12  26  43  66  96 127 174 226 272 322 391
#     4  10  22  43  69  97 132 174 223 268 323 400
#     4  12  25  44  66  94 130 174 222 270 328 394
#     4  12  24  39  65  98 135 171 214 273 331 384
#     4  12  25  42  67  97 133 171 217 271 329 389
#
# _framework density 20.942975000000001
#
# number of rings (size 3 to 8) (size 9 to 14) (size 15 to 20)
#    0.000    0.667    2.500    6.000    2.333    3.167 
#    0.000    0.000    0.000    6.500    0.000    0.000 
#    0.000    0.000    0.000    0.000    0.000    0.000 
#
# Total GULP energy -268668.269888 kJ/mol
# GULP energy per Si atom -5597.255623 kJ/mol
# Density = 2.089531 g / cm^3
# Si number density = 20.942975 Si / 1000 Ang^3
#
#
#
# Elastic Constant Matrix: (Units=GPa)
#
#
# Indices 1 2 3 4 5 6 
#
# 1 101.7996 29.3191 -17.4956 0.0000 0.0000 0.0000
# 2 29.3191 99.0910 -7.5820 0.0000 0.0000 0.0000
# 3 -17.4956 -7.5820 57.3987 0.0000 0.0000 0.0000
# 4 0.0000 0.0000 0.0000 8.7773 0.0000 0.0000
# 5 0.0000 0.0000 0.0000 0.0000 49.0096 0.0000
# 6 0.0000 0.0000 0.0000 0.0000 0.0000 -7.0957
#
#
#
# Elastic Compliance Matrix: (Units=1/GPa)
#
#
# Indices 1 2 3 4 5 6 
#
# 1 0.011232 -0.003093 0.003015 0.000000 0.000000 0.000000
# 2 -0.003093 0.011046 0.000516 0.000000 0.000000 0.000000
# 3 0.003015 0.000516 0.018409 0.000000 0.000000 0.000000
# 4 0.000000 0.000000 0.000000 0.113930 0.000000 0.000000
# 5 0.000000 0.000000 0.000000 0.000000 0.020404 0.000000
# 6 0.000000 0.000000 0.000000 0.000000 0.000000 -0.140930
#
#
# Mechanical properties :
#
#
# Convention : Reuss Voigt Hill
#
# Bulk Modulus (GPa) = 24.05838 29.64136 26.84987
# Shear Modulus (GPa) = 106.22691 27.07476 66.65084
#
# Velocity S-wave (km/s) = 7.12966 3.59943 5.64748
# Velocity P-wave (km/s) = 8.90442 5.60880 7.44135
#
# Compressibility (1/GPa) = 0.04156555
#
# Stress axis : x y z
#
# Youngs Moduli (GPa) = 89.03037 90.52791 54.32055
#
# Poissons Ratio (x) = 0.27997 -0.16378
# Poissons Ratio (y) = 0.27534 -0.02806
# Poissons Ratio (z) = -0.26844 -0.04676
#
# Static dielectric constant tensor:
#      x y z
#    x 1.725570 0.000000 0.000000 
#    y 0.000000 1.754590 0.000000 
#    z 0.000000 0.000000 1.755480 
# 
# From -- ./inp_files/23743.got.cif
#   From: 2010.05.17/outbox.cif.g08.bks.cpg/sg69_12_cif.got.tgz:23743.got - 2010.06.03 19:29:58.
