data_PCOD9513649
_publ_section_title
;
Structure prediction by ZEFSAII (Michael W. Deem and Ramdas Pophale) SiO2 
 PCOD9513649
Probable space group: F M M M
;
_chemical_formula_sum "Si O2"
_cell_formula_units_Z 160
_cell_length_a 22.296838
_cell_length_b 19.229522
_cell_length_c 20.156495
_cell_angle_alpha 90.000000
_cell_angle_beta 90.000000
_cell_angle_gamma 90.000000
_cell_volume 8642.249148
_symmetry_space_group_name_H-M "F M M M"
_symmetry_group_IT_number 69
_symmetry_cell_setting 'orthorhombic'
loop_
_space_group_symop_operation_xyz
x,y,z
-x,-y,z
x,-y,-z
-x,y,-z
-x,-y,-z
x,y,-z
-x,y,z
x,-y,z
x,1/2+y,1/2+z
-x,1/2-y,1/2+z
x,1/2-y,1/2-z
-x,1/2+y,1/2-z
-x,1/2-y,1/2-z
x,1/2+y,1/2-z
-x,1/2+y,1/2+z
x,1/2-y,1/2+z
1/2+x,y,1/2+z
1/2-x,-y,1/2+z
1/2+x,-y,1/2-z
1/2-x,y,1/2-z
1/2-x,-y,1/2-z
1/2+x,y,1/2-z
1/2-x,y,1/2+z
1/2+x,-y,1/2+z
1/2+x,1/2+y,z
1/2-x,1/2-y,z
1/2+x,1/2-y,-z
1/2-x,1/2+y,-z
1/2-x,1/2-y,-z
1/2+x,1/2+y,-z
1/2-x,1/2+y,z
1/2+x,1/2-y,z
loop_
_atom_site_type_symbol
_atom_site_label
_atom_site_fract_x
_atom_site_fract_y
_atom_site_fract_z
Si Si1 0.885683 0.151451 0.574943
Si Si2 0.071104 0.500000 0.734312
Si Si3 0.435153 0.236968 0.329143
Si Si4 0.657236 0.128674 0.702123
Si Si5 0.069340 0.000000 0.394192
Si Si6 0.777349 0.827629 0.337424
O O1 0.896805 0.174916 0.500000
O O2 0.925653 0.194305 0.627555
O O3 0.900083 0.070244 0.581211
O O4 0.817626 0.164587 0.598016
O O5 0.110550 0.566212 0.711472
O O6 0.071321 0.500000 0.814218
O O7 0.000000 0.500000 0.714258
O O8 0.500000 0.205724 0.345996
O O9 0.435830 0.250000 0.250000
O O10 0.379239 0.186575 0.338438
O O11 0.721468 0.119148 0.666845
O O12 0.679011 0.156461 0.774634
O O13 0.000000 0.000000 0.415036
O O14 0.750000 0.750000 0.331103
#
# Coordination Sequence:
#
# PCOD9513649 Si02
#       6
#    32  16  32  32  16  32
#     4  12  25  40  60  89 127 168 208 249 313 379
#     4  11  22  37  61  95 127 156 202 260 317 371
#     4  11  20  36  60  85 115 158 210 255 299 355
#     4  11  20  36  61  89 119 155 200 255 313 364
#     4  11  23  41  59  85 129 168 201 243 302 384
#     4  11  21  37  61  86 120 158 206 254 306 360
#
# _framework density 18.513698999999999
#
# number of rings (size 3 to 8) (size 9 to 14) (size 15 to 20)
#    0.000    0.800    6.000    2.700    0.000    8.000 
#    0.000    0.000    0.000    0.000    0.000    0.700 
#    0.000    4.800    0.000    0.000    0.000    0.000 
#
# Total GULP energy -223182.844328 kJ/mol
# GULP energy per Si atom -5579.571108 kJ/mol
# Density = 1.847156 g / cm^3
# Si number density = 18.513699 Si / 1000 Ang^3
#
#
#
# Elastic Constant Matrix: (Units=GPa)
#
#
# Indices 1 2 3 4 5 6 
#
# 1 145.8311 48.3261 23.4533 0.0000 0.0000 0.0000
# 2 48.3261 99.1791 29.9873 0.0000 0.0000 0.0000
# 3 23.4533 29.9873 77.2697 0.0000 0.0000 0.0000
# 4 0.0000 0.0000 0.0000 -14.1768 0.0000 0.0000
# 5 0.0000 0.0000 0.0000 0.0000 -3.6946 0.0000
# 6 0.0000 0.0000 0.0000 0.0000 0.0000 28.7493
#
#
#
# Elastic Compliance Matrix: (Units=1/GPa)
#
#
# Indices 1 2 3 4 5 6 
#
# 1 0.008255 -0.003699 -0.001070 0.000000 0.000000 0.000000
# 2 -0.003699 0.013080 -0.003954 0.000000 0.000000 0.000000
# 3 -0.001070 -0.003954 0.014801 0.000000 0.000000 0.000000
# 4 0.000000 0.000000 0.000000 -0.070538 0.000000 0.000000
# 5 0.000000 0.000000 0.000000 0.000000 -0.270667 0.000000
# 6 0.000000 0.000000 0.000000 0.000000 0.000000 0.034783
#
#
# Mechanical properties :
#
#
# Convention : Reuss Voigt Hill
#
# Bulk Modulus (GPa) = 53.50133 58.42371 55.96252
# Shear Modulus (GPa) = -20.27505 16.87645 -1.69930
#
# Velocity S-wave (km/s) = -3.31288 3.02249 -0.95909
# Velocity P-wave (km/s) = 3.78516 6.61862 5.39136
#
# Compressibility (1/GPa) = 0.01869112
#
# Stress axis : x y z
#
# Youngs Moduli (GPa) = 121.13742 76.44987 67.56359
#
# Poissons Ratio (x) = 0.28277 0.07230
# Poissons Ratio (y) = 0.44806 0.26712
# Poissons Ratio (z) = 0.12964 0.30226
#
# Static dielectric constant tensor:
#      x y z
#    x 1.676770 0.000000 0.000000 
#    y 0.000000 1.665750 0.000000 
#    z 0.000000 0.000000 1.636930 
# 
# From -- ./inp_files/32673.got.cif
#   From: 2010.05.17/outbox.cif.g08.bks.cpg/sg69_17_cif.got.tgz:32673.got - 2010.06.03 19:29:58.
