data_PCOD9513017
_publ_section_title
;
Structure prediction by ZEFSAII (Michael W. Deem and Ramdas Pophale) SiO2 
 PCOD9513017
Probable space group: F M M M
;
_chemical_formula_sum "Si O2"
_cell_formula_units_Z 200
_cell_length_a 21.704071
_cell_length_b 14.741276
_cell_length_c 30.900871
_cell_angle_alpha 90.000000
_cell_angle_beta 90.000000
_cell_angle_gamma 90.000000
_cell_volume 9886.600832
_symmetry_space_group_name_H-M "F M M M"
_symmetry_group_IT_number 69
_symmetry_cell_setting 'orthorhombic'
loop_
_space_group_symop_operation_xyz
x,y,z
-x,-y,z
x,-y,-z
-x,y,-z
-x,-y,-z
x,y,-z
-x,y,z
x,-y,z
x,1/2+y,1/2+z
-x,1/2-y,1/2+z
x,1/2-y,1/2-z
-x,1/2+y,1/2-z
-x,1/2-y,1/2-z
x,1/2+y,1/2-z
-x,1/2+y,1/2+z
x,1/2-y,1/2+z
1/2+x,y,1/2+z
1/2-x,-y,1/2+z
1/2+x,-y,1/2-z
1/2-x,y,1/2-z
1/2-x,-y,1/2-z
1/2+x,y,1/2-z
1/2-x,y,1/2+z
1/2+x,-y,1/2+z
1/2+x,1/2+y,z
1/2-x,1/2-y,z
1/2+x,1/2-y,-z
1/2-x,1/2+y,-z
1/2-x,1/2-y,-z
1/2+x,1/2+y,-z
1/2-x,1/2+y,z
1/2+x,1/2-y,z
loop_
_atom_site_type_symbol
_atom_site_label
_atom_site_fract_x
_atom_site_fract_y
_atom_site_fract_z
Si Si1 0.229180 0.390135 0.371770
Si Si2 0.933218 0.815629 0.708876
Si Si3 0.686567 0.108074 0.950231
Si Si4 0.909956 0.168028 0.135952
Si Si5 0.298128 0.891670 0.213595
Si Si6 0.931153 0.732833 0.049711
Si Si7 0.500000 0.500000 0.154176
O O1 0.223833 0.500000 0.371430
O O2 0.260469 0.363944 0.416974
O O3 0.162519 0.350031 0.363409
O O4 0.273969 0.361398 0.333075
O O5 0.936832 0.750000 0.750000
O O6 0.925966 0.753754 0.666148
O O7 0.870049 0.868919 0.717064
O O8 0.000000 0.864820 0.706360
O O9 0.623296 0.161525 0.941844
O O10 0.676133 0.000000 0.944886
O O11 0.704693 0.124375 0.000000
O O12 0.926976 0.190616 0.086281
O O13 0.946744 0.080506 0.152311
O O14 0.250000 0.857044 0.250000
O O15 0.293486 0.000000 0.214892
O O16 0.000000 0.692057 0.052672
O O17 0.923866 0.765927 0.000000
#
# Coordination Sequence:
#
# PCOD9513017 Si02
#       7
#    32  32  32  32  32  32   8
#     4  10  21  36  59  85 113 154 201 244 300 359
#     4  11  24  41  61  93 123 156 205 253 302 359
#     4   9  19  36  57  86 122 157 199 248 303 371
#     4  12  23  42  64  87 120 159 207 260 307 369
#     4  10  22  41  62  90 126 161 198 243 299 366
#     4  10  21  37  58  87 121 158 203 254 305 364
#     4  12  24  44  67  88 116 166 206 254 317 368
#
# _framework density 20.229399999999998
#
# number of rings (size 3 to 8) (size 9 to 14) (size 15 to 20)
#    0.000    1.600    2.400    1.920    0.000    5.440 
#    1.440    4.000    0.000    4.800    0.000    0.000 
#    0.000    0.000    0.000    0.000    0.000    0.000 
#
# Total GULP energy -278692.902045 kJ/mol
# GULP energy per Si atom -5573.858041 kJ/mol
# Density = 2.018336 g / cm^3
# Si number density = 20.229400 Si / 1000 Ang^3
#
#
#
# Elastic Constant Matrix: (Units=GPa)
#
#
# Indices 1 2 3 4 5 6 
#
# 1 174.1799 10.1657 30.3603 0.0000 0.0000 0.0000
# 2 10.1657 32.5786 3.7485 0.0000 0.0000 0.0000
# 3 30.3603 3.7485 62.1014 0.0000 0.0000 0.0000
# 4 0.0000 0.0000 0.0000 4.0516 0.0000 0.0000
# 5 0.0000 0.0000 0.0000 0.0000 39.4770 0.0000
# 6 0.0000 0.0000 0.0000 0.0000 0.0000 30.6633
#
#
#
# Elastic Compliance Matrix: (Units=1/GPa)
#
#
# Indices 1 2 3 4 5 6 
#
# 1 0.006362 -0.001639 -0.003011 0.000000 0.000000 0.000000
# 2 -0.001639 0.031332 -0.001090 0.000000 0.000000 0.000000
# 3 -0.003011 -0.001090 0.017641 0.000000 0.000000 0.000000
# 4 0.000000 0.000000 0.000000 0.246816 0.000000 0.000000
# 5 0.000000 0.000000 0.000000 0.000000 0.025331 0.000000
# 6 0.000000 0.000000 0.000000 0.000000 0.000000 0.032612
#
#
# Mechanical properties :
#
#
# Convention : Reuss Voigt Hill
#
# Bulk Modulus (GPa) = 22.80286 39.71209 31.25748
# Shear Modulus (GPa) = 12.94696 29.81075 21.37886
#
# Velocity S-wave (km/s) = 2.53258 3.84296 3.25441
# Velocity P-wave (km/s) = 4.45517 6.27412 5.44119
#
# Compressibility (1/GPa) = 0.04385414
#
# Stress axis : x y z
#
# Youngs Moduli (GPa) = 157.19088 31.91651 56.68730
#
# Poissons Ratio (x) = 0.05230 0.17070
# Poissons Ratio (y) = 0.25757 0.06180
# Poissons Ratio (z) = 0.47333 0.03479
#
# Static dielectric constant tensor:
#      x y z
#    x 1.737050 0.000000 0.000000 
#    y 0.000000 1.703750 0.000000 
#    z 0.000000 0.000000 1.732380 
# 
# From -- ./inp_files/42721.got.cif
#   From: 2010.05.17/outbox.cif.g08.bks.cpg/sg69_22_cif.got.tgz:42721.got - 2010.06.03 19:29:58.
