data_PCOD9513744
_publ_section_title
;
Structure prediction by ZEFSAII (Michael W. Deem and Ramdas Pophale) SiO2 
 PCOD9513744
Probable space group: F M M M
;
_chemical_formula_sum "Si O2"
_cell_formula_units_Z 160
_cell_length_a 33.624607
_cell_length_b 14.370836
_cell_length_c 18.943875
_cell_angle_alpha 90.000000
_cell_angle_beta 90.000000
_cell_angle_gamma 90.000000
_cell_volume 9153.940173
_symmetry_space_group_name_H-M "F M M M"
_symmetry_group_IT_number 69
_symmetry_cell_setting 'orthorhombic'
loop_
_space_group_symop_operation_xyz
x,y,z
-x,-y,z
x,-y,-z
-x,y,-z
-x,-y,-z
x,y,-z
-x,y,z
x,-y,z
x,1/2+y,1/2+z
-x,1/2-y,1/2+z
x,1/2-y,1/2-z
-x,1/2+y,1/2-z
-x,1/2-y,1/2-z
x,1/2+y,1/2-z
-x,1/2+y,1/2+z
x,1/2-y,1/2+z
1/2+x,y,1/2+z
1/2-x,-y,1/2+z
1/2+x,-y,1/2-z
1/2-x,y,1/2-z
1/2-x,-y,1/2-z
1/2+x,y,1/2-z
1/2-x,y,1/2+z
1/2+x,-y,1/2+z
1/2+x,1/2+y,z
1/2-x,1/2-y,z
1/2+x,1/2-y,-z
1/2-x,1/2+y,-z
1/2-x,1/2-y,-z
1/2+x,1/2+y,-z
1/2-x,1/2+y,z
1/2+x,1/2-y,z
loop_
_atom_site_type_symbol
_atom_site_label
_atom_site_fract_x
_atom_site_fract_y
_atom_site_fract_z
Si Si1 0.000000 0.393109 0.085733
Si Si2 0.145650 0.701021 0.675007
Si Si3 0.432481 0.246497 0.585198
Si Si4 0.773678 0.500000 0.144167
Si Si5 0.500000 0.897783 0.585175
Si Si6 0.208187 0.302543 0.078415
Si Si7 0.184041 0.500000 0.297213
O O1 0.040185 0.336246 0.105424
O O2 0.000000 0.500000 0.109880
O O3 0.000000 0.392650 0.000000
O O4 0.139516 0.750000 0.750000
O O5 0.107704 0.725831 0.626688
O O6 0.182043 0.750970 0.636010
O O7 0.158365 0.592843 0.685774
O O8 0.426146 0.250380 0.500000
O O9 0.461264 0.160470 0.602910
O O10 0.784501 0.591898 0.101088
O O11 0.799744 0.500000 0.216370
O O12 0.726231 0.500000 0.160529
O O13 0.500000 0.903318 0.500000
O O14 0.500000 0.000000 0.615910
O O15 0.250000 0.250000 0.076278
O O16 0.189977 0.297834 0.000000
#
# Coordination Sequence:
#
# PCOD9513744 Si02
#       7
#    16  32  32  16  16  32  16
#     4   8  15  35  64  88 117 157 201 245 294 358
#     4  12  24  41  59  85 124 159 199 248 305 364
#     4   9  19  36  59  88 118 150 192 244 299 354
#     4  11  21  42  64  84 113 162 219 249 294 370
#     4   8  15  31  56  84 111 145 184 225 285 354
#     4  11  23  40  62  88 118 154 200 260 312 355
#     4  11  24  38  64  87 115 167 208 241 301 368
#
# _framework density 17.478812000000001
#
# number of rings (size 3 to 8) (size 9 to 14) (size 15 to 20)
#    0.000    1.800    4.000    2.100    1.400    0.400 
#    3.600    3.500    0.000    1.200    0.000    0.000 
#    0.000    0.000    0.000    0.000    0.000    0.000 
#
# Total GULP energy -222959.382243 kJ/mol
# GULP energy per Si atom -5573.984556 kJ/mol
# Density = 1.743903 g / cm^3
# Si number density = 17.478812 Si / 1000 Ang^3
#
#
#
# Elastic Constant Matrix: (Units=GPa)
#
#
# Indices 1 2 3 4 5 6 
#
# 1 110.4390 55.8020 40.5874 0.0000 0.0000 0.0000
# 2 55.8020 176.8690 38.3689 0.0000 0.0000 0.0000
# 3 40.5874 38.3689 75.3124 0.0000 0.0000 0.0000
# 4 0.0000 0.0000 0.0000 26.7215 0.0000 0.0000
# 5 0.0000 0.0000 0.0000 0.0000 11.9787 0.0000
# 6 0.0000 0.0000 0.0000 0.0000 0.0000 -2.1070
#
#
#
# Elastic Compliance Matrix: (Units=1/GPa)
#
#
# Indices 1 2 3 4 5 6 
#
# 1 0.012388 -0.002766 -0.005267 0.000000 0.000000 0.000000
# 2 -0.002766 0.006974 -0.002062 0.000000 0.000000 0.000000
# 3 -0.005267 -0.002062 0.017167 0.000000 0.000000 0.000000
# 4 0.000000 0.000000 0.000000 0.037423 0.000000 0.000000
# 5 0.000000 0.000000 0.000000 0.000000 0.083481 0.000000
# 6 0.000000 0.000000 0.000000 0.000000 0.000000 -0.474612
#
#
# Mechanical properties :
#
#
# Convention : Reuss Voigt Hill
#
# Bulk Modulus (GPa) = 61.20465 70.23744 65.72105
# Shear Modulus (GPa) = -17.15023 22.50946 2.67962
#
# Velocity S-wave (km/s) = -3.13581 3.59251 1.23951
# Velocity P-wave (km/s) = 4.68843 7.58154 6.30322
#
# Compressibility (1/GPa) = 0.01633863
#
# Stress axis : x y z
#
# Youngs Moduli (GPa) = 80.72367 143.39166 58.25035
#
# Poissons Ratio (x) = 0.39659 0.30681
# Poissons Ratio (y) = 0.22326 0.12014
# Poissons Ratio (z) = 0.42518 0.29573
#
# Static dielectric constant tensor:
#      x y z
#    x 1.463870 0.000000 0.000000 
#    y 0.000000 1.591460 0.000000 
#    z 0.000000 0.000000 1.589310 
# 
# From -- ./inp_files/27532.got.cif
#   From: 2010.05.17/outbox.cif.g08.bks.cpg/sg69_14_cif.got.tgz:27532.got - 2010.06.03 19:29:58.
