data_PCOD9513701
_publ_section_title
;
Structure prediction by ZEFSAII (Michael W. Deem and Ramdas Pophale) SiO2 
 PCOD9513701
Probable space group: F M M M
;
_chemical_formula_sum "Si O2"
_cell_formula_units_Z 84
_cell_length_a 18.169140
_cell_length_b 9.749500
_cell_length_c 29.531175
_cell_angle_alpha 90.000000
_cell_angle_beta 90.000000
_cell_angle_gamma 90.000000
_cell_volume 5231.153238
_symmetry_space_group_name_H-M "F M M M"
_symmetry_group_IT_number 69
_symmetry_cell_setting 'orthorhombic'
loop_
_space_group_symop_operation_xyz
x,y,z
-x,-y,z
x,-y,-z
-x,y,-z
-x,-y,-z
x,y,-z
-x,y,z
x,-y,z
x,1/2+y,1/2+z
-x,1/2-y,1/2+z
x,1/2-y,1/2-z
-x,1/2+y,1/2-z
-x,1/2-y,1/2-z
x,1/2+y,1/2-z
-x,1/2+y,1/2+z
x,1/2-y,1/2+z
1/2+x,y,1/2+z
1/2-x,-y,1/2+z
1/2+x,-y,1/2-z
1/2-x,y,1/2-z
1/2-x,-y,1/2-z
1/2+x,y,1/2-z
1/2-x,y,1/2+z
1/2+x,-y,1/2+z
1/2+x,1/2+y,z
1/2-x,1/2-y,z
1/2+x,1/2-y,-z
1/2-x,1/2+y,-z
1/2-x,1/2-y,-z
1/2+x,1/2+y,-z
1/2-x,1/2+y,z
1/2+x,1/2-y,z
loop_
_atom_site_type_symbol
_atom_site_label
_atom_site_fract_x
_atom_site_fract_y
_atom_site_fract_z
Si Si1 0.164564 0.723376 0.649068
Si Si2 0.669416 0.500000 0.772779
Si Si3 0.500000 0.500000 0.000000
Si Si4 0.912661 0.500000 0.179889
Si Si5 0.581376 0.500000 0.906364
O O1 0.250000 0.750000 0.638574
O O2 0.162191 0.631773 0.694824
O O3 0.123126 0.865249 0.657739
O O4 0.125377 0.632501 0.610786
O O5 0.750000 0.500000 0.750000
O O6 0.610804 0.500000 0.732598
O O7 0.562947 0.500000 0.040661
O O8 0.000000 0.500000 0.174850
O O9 0.500000 0.500000 0.883391
#
# Coordination Sequence:
#
# PCOD9513701 Si02
#       5
#    32  16   4  16  16
#     4  11  21  36  59  83 117 158 194 242 282 341
#     4  11  21  36  53  77 119 172 204 225 268 329
#     4   8  20  44  72  82 104 152 182 242 304 396
#     4  12  24  33  52  86 122 156 203 245 279 320
#     4   9  20  40  65  83 109 146 192 229 306 363
#
# _framework density 16.057644
#
# number of rings (size 3 to 8) (size 9 to 14) (size 15 to 20)
#    0.571    0.762    3.810    3.429    0.000    6.095 
#    0.000    0.952    0.000    2.286    0.000    0.000 
#    0.000    0.000    0.000    0.000    0.000    0.000 
#
# Total GULP energy -116941.375427 kJ/mol
# GULP energy per Si atom -5568.636925 kJ/mol
# Density = 1.602110 g / cm^3
# Si number density = 16.057644 Si / 1000 Ang^3
#
#
#
# Elastic Constant Matrix: (Units=GPa)
#
#
# Indices 1 2 3 4 5 6 
#
# 1 175.0971 84.0370 62.5767 0.0000 0.0000 0.0000
# 2 84.0370 155.7481 66.5927 0.0000 0.0000 0.0000
# 3 62.5767 66.5927 123.6710 0.0000 0.0000 0.0000
# 4 0.0000 0.0000 0.0000 3.3448 0.0000 0.0000
# 5 0.0000 0.0000 0.0000 0.0000 35.0498 0.0000
# 6 0.0000 0.0000 0.0000 0.0000 0.0000 11.4991
#
#
#
# Elastic Compliance Matrix: (Units=1/GPa)
#
#
# Indices 1 2 3 4 5 6 
#
# 1 0.008177 -0.003433 -0.002289 0.000000 0.000000 0.000000
# 2 -0.003433 0.009783 -0.003530 0.000000 0.000000 0.000000
# 3 -0.002289 -0.003530 0.011145 0.000000 0.000000 0.000000
# 4 0.000000 0.000000 0.000000 0.298968 0.000000 0.000000
# 5 0.000000 0.000000 0.000000 0.000000 0.028531 0.000000
# 6 0.000000 0.000000 0.000000 0.000000 0.000000 0.086964
#
#
# Mechanical properties :
#
#
# Convention : Reuss Voigt Hill
#
# Bulk Modulus (GPa) = 94.34263 97.88098 96.11180
# Shear Modulus (GPa) = 10.73870 26.06606 18.40238
#
# Velocity S-wave (km/s) = 2.58884 4.03337 3.38896
# Velocity P-wave (km/s) = 8.23506 9.09830 8.67742
#
# Compressibility (1/GPa) = 0.01059966
#
# Stress axis : x y z
#
# Youngs Moduli (GPa) = 122.29548 102.22163 89.72652
#
# Poissons Ratio (x) = 0.35097 0.20535
# Poissons Ratio (y) = 0.41990 0.31676
# Poissons Ratio (z) = 0.27989 0.36088
#
# Static dielectric constant tensor:
#      x y z
#    x 1.536650 0.000000 0.000000 
#    y 0.000000 1.531510 0.000000 
#    z 0.000000 0.000000 1.503710 
# 
# From -- ./inp_files/46030.got.cif
#   From: 2010.05.17/outbox.cif.g08.bks.cpg/sg69_24_cif.got.tgz:46030.got - 2010.06.03 19:29:58.
