data_PCOD9513263
_publ_section_title
;
Structure prediction by ZEFSAII (Michael W. Deem and Ramdas Pophale) SiO2 
 PCOD9513263
Probable space group: F M M M
;
_chemical_formula_sum "Si O2"
_cell_formula_units_Z 68
_cell_length_a 27.862117
_cell_length_b 5.347228
_cell_length_c 22.145307
_cell_angle_alpha 90.000000
_cell_angle_beta 90.000000
_cell_angle_gamma 90.000000
_cell_volume 3299.320604
_symmetry_space_group_name_H-M "F M M M"
_symmetry_group_IT_number 69
_symmetry_cell_setting 'orthorhombic'
loop_
_space_group_symop_operation_xyz
x,y,z
-x,-y,z
x,-y,-z
-x,y,-z
-x,-y,-z
x,y,-z
-x,y,z
x,-y,z
x,1/2+y,1/2+z
-x,1/2-y,1/2+z
x,1/2-y,1/2-z
-x,1/2+y,1/2-z
-x,1/2-y,1/2-z
x,1/2+y,1/2-z
-x,1/2+y,1/2+z
x,1/2-y,1/2+z
1/2+x,y,1/2+z
1/2-x,-y,1/2+z
1/2+x,-y,1/2-z
1/2-x,y,1/2-z
1/2-x,-y,1/2-z
1/2+x,y,1/2-z
1/2-x,y,1/2+z
1/2+x,-y,1/2+z
1/2+x,1/2+y,z
1/2-x,1/2-y,z
1/2+x,1/2-y,-z
1/2-x,1/2+y,-z
1/2-x,1/2-y,-z
1/2+x,1/2+y,-z
1/2-x,1/2+y,z
1/2+x,1/2-y,z
loop_
_atom_site_type_symbol
_atom_site_label
_atom_site_fract_x
_atom_site_fract_y
_atom_site_fract_z
Si Si1 0.078826 0.000000 0.392093
Si Si2 0.000000 0.500000 0.000000
Si Si3 0.270714 0.000000 0.318283
Si Si4 0.782545 0.500000 0.500000
Si Si5 0.857712 0.000000 0.889380
Si Si6 0.500000 0.000000 0.789474
O O1 0.110734 0.250456 0.394158
O O2 0.046803 0.000000 0.331871
O O3 0.041883 0.000000 0.447486
O O4 0.250000 0.000000 0.250000
O O5 0.250000 0.750000 0.347234
O O6 0.327489 0.000000 0.326767
O O7 0.750000 0.750000 0.500000
O O8 0.817956 0.500000 0.442127
O O9 0.500000 0.250000 0.750000
#
# Coordination Sequence:
#
# PCOD9513263 Si02
#       6
#    16   4  16   8  16   8
#     4  11  25  43  72 100 130 178 217 288 327 413
#     4  10  24  48  72  98 140 168 220 270 364 392
#     4  10  21  40  59  85 129 172 215 269 321 370
#     4  12  24  39  66  93 142 183 208 283 340 394
#     4  12  23  42  64 102 129 169 239 263 331 401
#     4  11  24  49  66  95 140 173 218 274 362 395
#
# _framework density 20.610302999999998
#
# number of rings (size 3 to 8) (size 9 to 14) (size 15 to 20)
#    0.000    0.941    0.000    7.059    0.000    3.765 
#   25.412    0.000    0.000    0.000    0.000    0.000 
#    0.000    0.000    0.000    0.000    0.000    0.000 
#
# Total GULP energy -94767.520616 kJ/mol
# GULP energy per Si atom -5574.560036 kJ/mol
# Density = 2.056339 g / cm^3
# Si number density = 20.610303 Si / 1000 Ang^3
#
#
#
# Elastic Constant Matrix: (Units=GPa)
#
#
# Indices 1 2 3 4 5 6 
#
# 1 202.1594 127.9910 90.8064 -0.2033 -0.0003 0.0021
# 2 127.9910 257.9204 64.8679 -0.4934 -0.0006 0.0062
# 3 90.8064 64.8679 150.1051 -0.2345 -0.0003 -0.0005
# 4 -0.2033 -0.4934 -0.2345 280.0143 0.0199 0.3508
# 5 -0.0003 -0.0006 -0.0003 0.0199 -6.9851 -0.0001
# 6 0.0021 0.0062 -0.0005 0.3508 -0.0001 22.8483
#
#
#
# Elastic Compliance Matrix: (Units=1/GPa)
#
#
# Indices 1 2 3 4 5 6 
#
# 1 0.008852 -0.003418 -0.003878 -0.000003 0.000000 0.000000
# 2 -0.003418 0.005669 -0.000383 0.000007 0.000000 -0.000001
# 3 -0.003878 -0.000383 0.009174 0.000004 0.000000 0.000001
# 4 -0.000003 0.000007 0.000004 0.003571 0.000010 -0.000055
# 5 0.000000 0.000000 0.000000 0.000010 -0.143162 -0.000001
# 6 0.000000 -0.000001 0.000001 -0.000055 -0.000001 0.043768
#
#
# Mechanical properties :
#
#
# Convention : Reuss Voigt Hill
#
# Bulk Modulus (GPa) = 119.92781 130.83506 125.38143
# Shear Modulus (GPa) = -92.60718 80.94347 -5.83185
#
# Velocity S-wave (km/s) = -6.71044 6.27364 -1.68396
# Velocity P-wave (km/s) = 1.31355 10.77480 7.56211
#
# Compressibility (1/GPa) = 0.00833835
#
# Stress axis : x y z
#
# Youngs Moduli (GPa) = 112.96384 176.38858 109.00876
#
# Poissons Ratio (x) = 0.60281 0.42278
# Poissons Ratio (y) = 0.38605 0.04170
# Poissons Ratio (z) = 0.43812 0.06748
#
# Static dielectric constant tensor:
#      x y z
#    x 1.710170 0.000000 0.000000 
#    y 0.000000 1.727800 0.000000 
#    z 0.000000 0.000000 1.669440 
# 
# From -- ./inp_files/702.got.cif
#   From: 2010.05.17/outbox.cif.g08.bks.cpg/sg69_1_cif.got.tgz:702.got - 2010.06.03 19:29:58.
