data_PCOD9513146
_publ_section_title
;
Structure prediction by ZEFSAII (Michael W. Deem and Ramdas Pophale) SiO2 
 PCOD9513146
Probable space group: F M M M
;
_chemical_formula_sum "Si O2"
_cell_formula_units_Z 168
_cell_length_a 19.584641
_cell_length_b 15.334801
_cell_length_c 27.454538
_cell_angle_alpha 90.000000
_cell_angle_beta 90.000000
_cell_angle_gamma 90.000000
_cell_volume 8245.327294
_symmetry_space_group_name_H-M "F M M M"
_symmetry_group_IT_number 69
_symmetry_cell_setting 'orthorhombic'
loop_
_space_group_symop_operation_xyz
x,y,z
-x,-y,z
x,-y,-z
-x,y,-z
-x,-y,-z
x,y,-z
-x,y,z
x,-y,z
x,1/2+y,1/2+z
-x,1/2-y,1/2+z
x,1/2-y,1/2-z
-x,1/2+y,1/2-z
-x,1/2-y,1/2-z
x,1/2+y,1/2-z
-x,1/2+y,1/2+z
x,1/2-y,1/2+z
1/2+x,y,1/2+z
1/2-x,-y,1/2+z
1/2+x,-y,1/2-z
1/2-x,y,1/2-z
1/2-x,-y,1/2-z
1/2+x,y,1/2-z
1/2-x,y,1/2+z
1/2+x,-y,1/2+z
1/2+x,1/2+y,z
1/2-x,1/2-y,z
1/2+x,1/2-y,-z
1/2-x,1/2+y,-z
1/2-x,1/2-y,-z
1/2+x,1/2+y,-z
1/2-x,1/2+y,z
1/2+x,1/2-y,z
loop_
_atom_site_type_symbol
_atom_site_label
_atom_site_fract_x
_atom_site_fract_y
_atom_site_fract_z
Si Si1 0.419362 0.265159 0.445463
Si Si2 0.080887 0.904472 0.365794
Si Si3 0.291914 0.839657 0.428784
Si Si4 0.776642 0.100586 0.180773
Si Si5 0.759744 0.000000 0.000000
Si Si6 0.357670 0.344568 0.267960
O O1 0.413340 0.304442 0.500000
O O2 0.500000 0.245508 0.438013
O O3 0.394210 0.330978 0.403246
O O4 0.370032 0.182288 0.443376
O O5 0.093849 0.883385 0.309250
O O6 0.000000 0.907547 0.373858
O O7 0.109913 0.000000 0.377222
O O8 0.250000 0.750000 0.438085
O O9 0.292018 0.862456 0.371845
O O10 0.263601 0.921905 0.458095
O O11 0.714603 0.155943 0.203416
O O12 0.839635 0.104837 0.218458
O O13 0.754014 0.000000 0.178692
O O14 0.379858 0.250000 0.250000
#
# Coordination Sequence:
#
# PCOD9513146 Si02
#       6
#    32  32  32  32   8  32
#     4  10  22  41  64  90 125 168 212 259 310 373
#     4  10  21  38  59  87 123 160 204 257 314 375
#     4  12  24  45  66  95 130 168 207 265 318 377
#     4  11  21  36  61  87 121 155 205 254 303 373
#     4  12  26  44  65  96 133 162 214 262 320 374
#     4  11  21  36  56  86 116 160 202 249 313 372
#
# _framework density 20.375177000000001
#
# number of rings (size 3 to 8) (size 9 to 14) (size 15 to 20)
#    0.000    1.143    1.905    7.143    0.000    0.762 
#    1.714    3.810    0.000    1.143    0.000    0.000 
#    0.000    0.000    0.000    0.000    0.000    0.000 
#
# Total GULP energy -233977.475687 kJ/mol
# GULP energy per Si atom -5570.892278 kJ/mol
# Density = 2.032880 g / cm^3
# Si number density = 20.375177 Si / 1000 Ang^3
#
#
#
# Elastic Constant Matrix: (Units=GPa)
#
#
# Indices 1 2 3 4 5 6 
#
# 1 35.4221 8.2200 8.0677 0.0000 0.0000 0.0000
# 2 8.2200 100.5678 26.1989 0.0000 0.0000 0.0000
# 3 8.0677 26.1989 145.9036 0.0000 0.0000 0.0000
# 4 0.0000 0.0000 0.0000 10.8044 0.0000 0.0000
# 5 0.0000 0.0000 0.0000 0.0000 11.5801 0.0000
# 6 0.0000 0.0000 0.0000 0.0000 0.0000 6.1722
#
#
#
# Elastic Compliance Matrix: (Units=1/GPa)
#
#
# Indices 1 2 3 4 5 6 
#
# 1 0.028987 -0.002048 -0.001235 0.000000 0.000000 0.000000
# 2 -0.002048 0.010576 -0.001786 0.000000 0.000000 0.000000
# 3 -0.001235 -0.001786 0.007243 0.000000 0.000000 0.000000
# 4 0.000000 0.000000 0.000000 0.092555 0.000000 0.000000
# 5 0.000000 0.000000 0.000000 0.000000 0.086355 0.000000
# 6 0.000000 0.000000 0.000000 0.000000 0.000000 0.162017
#
#
# Mechanical properties :
#
#
# Convention : Reuss Voigt Hill
#
# Bulk Modulus (GPa) = 27.27084 40.76297 34.01690
# Shear Modulus (GPa) = 12.19235 21.67180 16.93207
#
# Velocity S-wave (km/s) = 2.44886 3.26488 2.88586
# Velocity P-wave (km/s) = 4.62702 5.85340 5.27596
#
# Compressibility (1/GPa) = 0.03666921
#
# Stress axis : x y z
#
# Youngs Moduli (GPa) = 34.49767 94.55248 138.06780
#
# Poissons Ratio (x) = 0.19360 0.17054
# Poissons Ratio (y) = 0.07064 0.24657
# Poissons Ratio (z) = 0.04261 0.16886
#
# Static dielectric constant tensor:
#      x y z
#    x 1.775970 0.000000 0.000000 
#    y 0.000000 1.731160 0.000000 
#    z 0.000000 0.000000 1.733910 
# 
# From -- ./inp_files/18852.got.cif
#   From: 2010.05.17/outbox.cif.g08.bks.cpg/sg69_10_cif.got.tgz:18852.got - 2010.06.03 19:29:58.
