data_PCOD9513096
_publ_section_title
;
Structure prediction by ZEFSAII (Michael W. Deem and Ramdas Pophale) SiO2 
 PCOD9513096
Probable space group: F M M M
;
_chemical_formula_sum "Si O2"
_cell_formula_units_Z 160
_cell_length_a 16.168814
_cell_length_b 22.874817
_cell_length_c 19.207894
_cell_angle_alpha 90.000000
_cell_angle_beta 90.000000
_cell_angle_gamma 90.000000
_cell_volume 7104.205962
_symmetry_space_group_name_H-M "F M M M"
_symmetry_group_IT_number 69
_symmetry_cell_setting 'orthorhombic'
loop_
_space_group_symop_operation_xyz
x,y,z
-x,-y,z
x,-y,-z
-x,y,-z
-x,-y,-z
x,y,-z
-x,y,z
x,-y,z
x,1/2+y,1/2+z
-x,1/2-y,1/2+z
x,1/2-y,1/2-z
-x,1/2+y,1/2-z
-x,1/2-y,1/2-z
x,1/2+y,1/2-z
-x,1/2+y,1/2+z
x,1/2-y,1/2+z
1/2+x,y,1/2+z
1/2-x,-y,1/2+z
1/2+x,-y,1/2-z
1/2-x,y,1/2-z
1/2-x,-y,1/2-z
1/2+x,y,1/2-z
1/2-x,y,1/2+z
1/2+x,-y,1/2+z
1/2+x,1/2+y,z
1/2-x,1/2-y,z
1/2+x,1/2-y,-z
1/2-x,1/2+y,-z
1/2-x,1/2-y,-z
1/2+x,1/2+y,-z
1/2-x,1/2+y,z
1/2+x,1/2-y,z
loop_
_atom_site_type_symbol
_atom_site_label
_atom_site_fract_x
_atom_site_fract_y
_atom_site_fract_z
Si Si1 0.242729 0.067890 0.421034
Si Si2 0.097996 0.310335 0.784141
Si Si3 0.151847 0.261674 0.078742
Si Si4 0.590782 0.633285 0.915781
Si Si5 0.342426 0.435561 0.719937
O O1 0.221705 0.088327 0.500000
O O2 0.324877 0.101157 0.395370
O O3 0.171120 0.069515 0.363592
O O4 0.266607 0.000000 0.425825
O O5 0.132599 0.250000 0.750000
O O6 0.129932 0.307710 0.863030
O O7 0.119587 0.374279 0.754535
O O8 0.000000 0.305624 0.783226
O O9 0.250000 0.250000 0.079736
O O10 0.104296 0.201890 0.097894
O O11 0.128758 0.277626 0.000000
O O12 0.500000 0.614410 0.889680
O O13 0.589053 0.626747 0.000000
O O14 0.380752 0.500000 0.735356
O O15 0.250000 0.437719 0.750000
#
# Coordination Sequence:
#
# PCOD9513096 Si02
#       5
#    32  32  32  32  32
#     4   9  18  34  57  86 117 152 203 256 298 357
#     4  11  26  42  62  95 128 163 207 258 314 368
#     4  10  21  37  60  89 121 161 204 250 310 370
#     4   9  17  29  48  78 117 155 189 235 297 358
#     4  10  23  43  65  88 119 163 207 250 309 371
#
# _framework density 22.521868999999999
#
# number of rings (size 3 to 8) (size 9 to 14) (size 15 to 20)
#    0.000    2.200    0.000    1.800    5.600    4.400 
#    0.000    2.000    0.000    3.600    0.000    4.200 
#    0.000    0.000    0.000    0.000    0.000    0.000 
#
# Total GULP energy -223264.623581 kJ/mol
# GULP energy per Si atom -5581.615590 kJ/mol
# Density = 2.247061 g / cm^3
# Si number density = 22.521869 Si / 1000 Ang^3
#
#
#
# Elastic Constant Matrix: (Units=GPa)
#
#
# Indices 1 2 3 4 5 6 
#
# 1 25.6190 13.9736 -6.6029 0.0000 0.0000 0.0000
# 2 13.9736 155.6853 29.7183 0.0000 0.0000 0.0000
# 3 -6.6029 29.7183 79.9895 0.0000 0.0000 0.0000
# 4 0.0000 0.0000 0.0000 26.1579 0.0000 0.0000
# 5 0.0000 0.0000 0.0000 0.0000 34.9794 0.0000
# 6 0.0000 0.0000 0.0000 0.0000 0.0000 -10.6959
#
#
#
# Elastic Compliance Matrix: (Units=1/GPa)
#
#
# Indices 1 2 3 4 5 6 
#
# 1 0.043088 -0.004893 0.005375 0.000000 0.000000 0.000000
# 2 -0.004893 0.007469 -0.003179 0.000000 0.000000 0.000000
# 3 0.005375 -0.003179 0.014126 0.000000 0.000000 0.000000
# 4 0.000000 0.000000 0.000000 0.038229 0.000000 0.000000
# 5 0.000000 0.000000 0.000000 0.000000 0.028588 0.000000
# 6 0.000000 0.000000 0.000000 0.000000 0.000000 -0.093494
#
#
# Mechanical properties :
#
#
# Convention : Reuss Voigt Hill
#
# Bulk Modulus (GPa) = 16.86669 37.27464 27.07067
# Shear Modulus (GPa) = 79.15753 25.03526 52.09640
#
# Velocity S-wave (km/s) = 5.93492 3.33768 4.81474
# Velocity P-wave (km/s) = 7.38036 5.60712 6.55399
#
# Compressibility (1/GPa) = 0.05928845
#
# Stress axis : x y z
#
# Youngs Moduli (GPa) = 23.20841 133.88234 70.78945
#
# Poissons Ratio (x) = 0.65513 -0.38048
# Poissons Ratio (y) = 0.11357 0.22504
# Poissons Ratio (z) = -0.12474 0.42561
#
# Static dielectric constant tensor:
#      x y z
#    x 1.775970 0.000000 0.000000 
#    y 0.000000 1.962550 0.000000 
#    z 0.000000 0.000000 1.923200 
# 
# From -- ./inp_files/24603.got.cif
#   From: 2010.05.17/outbox.cif.g08.bks.cpg/sg69_13_cif.got.tgz:24603.got - 2010.06.03 19:29:58.
