data_PCOD9513008
_publ_section_title
;
Structure prediction by ZEFSAII (Michael W. Deem and Ramdas Pophale) SiO2 
 PCOD9513008
Probable space group: F M M M
;
_chemical_formula_sum "Si O2"
_cell_formula_units_Z 224
_cell_length_a 34.101090
_cell_length_b 20.766736
_cell_length_c 18.050813
_cell_angle_alpha 90.000000
_cell_angle_beta 90.000000
_cell_angle_gamma 90.000000
_cell_volume 12783.014158
_symmetry_space_group_name_H-M "F M M M"
_symmetry_group_IT_number 69
_symmetry_cell_setting 'orthorhombic'
loop_
_space_group_symop_operation_xyz
x,y,z
-x,-y,z
x,-y,-z
-x,y,-z
-x,-y,-z
x,y,-z
-x,y,z
x,-y,z
x,1/2+y,1/2+z
-x,1/2-y,1/2+z
x,1/2-y,1/2-z
-x,1/2+y,1/2-z
-x,1/2-y,1/2-z
x,1/2+y,1/2-z
-x,1/2+y,1/2+z
x,1/2-y,1/2+z
1/2+x,y,1/2+z
1/2-x,-y,1/2+z
1/2+x,-y,1/2-z
1/2-x,y,1/2-z
1/2-x,-y,1/2-z
1/2+x,y,1/2-z
1/2-x,y,1/2+z
1/2+x,-y,1/2+z
1/2+x,1/2+y,z
1/2-x,1/2-y,z
1/2+x,1/2-y,-z
1/2-x,1/2+y,-z
1/2-x,1/2-y,-z
1/2+x,1/2+y,-z
1/2-x,1/2+y,z
1/2+x,1/2-y,z
loop_
_atom_site_type_symbol
_atom_site_label
_atom_site_fract_x
_atom_site_fract_y
_atom_site_fract_z
Si Si1 0.145631 0.071646 0.288363
Si Si2 0.233631 0.425181 0.166573
Si Si3 0.920882 0.746504 0.084850
Si Si4 0.222134 0.688118 0.586996
Si Si5 0.587263 0.904591 0.080993
Si Si6 0.500000 0.782735 0.171039
Si Si7 0.855329 0.194966 0.187083
Si Si8 0.500000 0.427435 0.633825
O O1 0.186970 0.085573 0.328878
O O2 0.111481 0.070646 0.349365
O O3 0.139055 0.127077 0.228478
O O4 0.149280 0.000000 0.254902
O O5 0.240892 0.500000 0.147130
O O6 0.250000 0.414812 0.250000
O O7 0.254423 0.375331 0.112456
O O8 0.906676 0.672354 0.082936
O O9 0.891366 0.788063 0.133568
O O10 0.962455 0.740034 0.124979
O O11 0.924128 0.768912 0.000000
O O12 0.211844 0.685240 0.500000
O O13 0.250000 0.750000 0.598509
O O14 0.183956 0.694176 0.638221
O O15 0.540977 0.920762 0.089272
O O16 0.600557 0.927238 0.000000
O O17 0.500000 0.750000 0.250000
O O18 0.500000 0.860730 0.180330
O O19 0.852767 0.250000 0.250000
O O20 0.500000 0.500000 0.667109
#
# Coordination Sequence:
#
# PCOD9513008 Si02
#       8
#    32  32  32  32  32  16  32  16
#     4  11  23  37  58  87 116 152 198 242 288 347
#     4  10  21  40  61  82 112 153 195 237 291 352
#     4  10  21  37  59  85 117 154 193 238 288 344
#     4  11  25  39  58  89 117 145 191 244 295 352
#     4  10  21  37  57  85 122 157 189 233 290 352
#     4  10  21  37  60  86 119 153 197 239 290 355
#     4  12  22  38  61  84 114 156 195 240 289 343
#     4  10  21  36  57  85 117 156 196 236 287 348
#
# _framework density 17.523254000000001
#
# number of rings (size 3 to 8) (size 9 to 14) (size 15 to 20)
#    0.000    1.429    2.857    2.571    2.000    4.000 
#    0.000    1.429    0.000    1.286    0.000    0.000 
#    0.000    1.714    0.000    0.000    0.000    0.000 
#
# Total GULP energy -312604.065811 kJ/mol
# GULP energy per Si atom -5582.215461 kJ/mol
# Density = 1.748337 g / cm^3
# Si number density = 17.523254 Si / 1000 Ang^3
#
#
#
# Elastic Constant Matrix: (Units=GPa)
#
#
# Indices 1 2 3 4 5 6 
#
# 1 100.8914 48.7334 59.4426 0.0000 0.0000 0.0000
# 2 48.7334 118.4226 76.9261 0.0000 0.0000 0.0000
# 3 59.4426 76.9261 132.2345 0.0000 0.0000 0.0000
# 4 0.0000 0.0000 0.0000 6.3091 0.0000 0.0000
# 5 0.0000 0.0000 0.0000 0.0000 21.6273 0.0000
# 6 0.0000 0.0000 0.0000 0.0000 0.0000 24.7402
#
#
#
# Elastic Compliance Matrix: (Units=1/GPa)
#
#
# Indices 1 2 3 4 5 6 
#
# 1 0.013996 -0.002689 -0.004727 0.000000 0.000000 0.000000
# 2 -0.002689 0.014090 -0.006988 0.000000 0.000000 0.000000
# 3 -0.004727 -0.006988 0.013753 0.000000 0.000000 0.000000
# 4 0.000000 0.000000 0.000000 0.158501 0.000000 0.000000
# 5 0.000000 0.000000 0.000000 0.000000 0.046238 0.000000
# 6 0.000000 0.000000 0.000000 0.000000 0.000000 0.040420
#
#
# Mechanical properties :
#
#
# Convention : Reuss Voigt Hill
#
# Bulk Modulus (GPa) = 76.74505 80.19476 78.46991
# Shear Modulus (GPa) = 15.61771 21.63175 18.62473
#
# Velocity S-wave (km/s) = 2.98863 3.51730 3.26369
# Velocity P-wave (km/s) = 7.46997 7.89679 7.68634
#
# Compressibility (1/GPa) = 0.01303016
#
# Stress axis : x y z
#
# Youngs Moduli (GPa) = 71.45150 70.97092 72.71327
#
# Poissons Ratio (x) = 0.19082 0.34373
# Poissons Ratio (y) = 0.19211 0.50814
# Poissons Ratio (z) = 0.33777 0.49596
#
# Static dielectric constant tensor:
#      x y z
#    x 1.603250 0.000000 0.000000 
#    y 0.000000 1.607340 0.000000 
#    z 0.000000 0.000000 1.574110 
# 
# From -- ./inp_files/27997.got.cif
#   From: 2010.05.17/outbox.cif.g08.bks.cpg/sg69_14_cif.got.tgz:27997.got - 2010.06.03 19:29:58.
