data_PCOD9513116
_publ_section_title
;
Structure prediction by ZEFSAII (Michael W. Deem and Ramdas Pophale) SiO2 
 PCOD9513116
Probable space group: F M M M
;
_chemical_formula_sum "Si O2"
_cell_formula_units_Z 136
_cell_length_a 21.685755
_cell_length_b 15.718464
_cell_length_c 18.817206
_cell_angle_alpha 90.000000
_cell_angle_beta 90.000000
_cell_angle_gamma 90.000000
_cell_volume 6414.160028
_symmetry_space_group_name_H-M "F M M M"
_symmetry_group_IT_number 69
_symmetry_cell_setting 'orthorhombic'
loop_
_space_group_symop_operation_xyz
x,y,z
-x,-y,z
x,-y,-z
-x,y,-z
-x,-y,-z
x,y,-z
-x,y,z
x,-y,z
x,1/2+y,1/2+z
-x,1/2-y,1/2+z
x,1/2-y,1/2-z
-x,1/2+y,1/2-z
-x,1/2-y,1/2-z
x,1/2+y,1/2-z
-x,1/2+y,1/2+z
x,1/2-y,1/2+z
1/2+x,y,1/2+z
1/2-x,-y,1/2+z
1/2+x,-y,1/2-z
1/2-x,y,1/2-z
1/2-x,-y,1/2-z
1/2+x,y,1/2-z
1/2-x,y,1/2+z
1/2+x,-y,1/2+z
1/2+x,1/2+y,z
1/2-x,1/2-y,z
1/2+x,1/2-y,-z
1/2-x,1/2+y,-z
1/2-x,1/2-y,-z
1/2+x,1/2+y,-z
1/2-x,1/2+y,z
1/2+x,1/2-y,z
loop_
_atom_site_type_symbol
_atom_site_label
_atom_site_fract_x
_atom_site_fract_y
_atom_site_fract_z
Si Si1 0.750718 0.095564 0.114025
Si Si2 0.071061 0.264786 0.919893
Si Si3 0.352031 0.337452 0.709087
Si Si4 0.250000 0.250000 0.000000
Si Si5 0.104391 0.406555 0.348471
O O1 0.707214 0.112216 0.181917
O O2 0.743082 0.174829 0.061405
O O3 0.822768 0.095558 0.133959
O O4 0.736498 0.000000 0.086446
O O5 0.110262 0.314415 0.861816
O O6 0.073874 0.167064 0.894532
O O7 0.000000 0.292514 0.920291
O O8 0.097123 0.271311 0.000000
O O9 0.334755 0.250000 0.750000
O O10 0.396004 0.385607 0.764780
O O11 0.079959 0.500000 0.363655
#
# Coordination Sequence:
#
# PCOD9513116 Si02
#       5
#    32  32  32   8  32
#     4  11  24  38  60  94 133 166 202 251 310 379
#     4  10  23  41  60  86 118 160 209 256 308 365
#     4  10  21  37  63  90 120 164 206 253 304 369
#     4  12  22  36  54  86 130 168 208 240 300 364
#     4  10  22  38  60  90 124 158 197 251 309 367
#
# _framework density 21.203087
#
# number of rings (size 3 to 8) (size 9 to 14) (size 15 to 20)
#    0.000    1.647    0.000    4.588    6.588    9.882 
#    0.000    1.176    0.000    2.118    0.000    6.588 
#    0.000    0.000    0.000    0.000    0.000    0.000 
#
# Total GULP energy -189519.198660 kJ/mol
# GULP energy per Si atom -5574.094078 kJ/mol
# Density = 2.115483 g / cm^3
# Si number density = 21.203087 Si / 1000 Ang^3
#
#
#
# Elastic Constant Matrix: (Units=GPa)
#
#
# Indices 1 2 3 4 5 6 
#
# 1 56.5155 19.9555 29.0689 0.0000 0.0000 0.0000
# 2 19.9555 104.0092 32.1023 0.0000 0.0000 0.0000
# 3 29.0689 32.1023 145.5506 0.0000 0.0000 0.0000
# 4 0.0000 0.0000 0.0000 2.5875 0.0000 0.0000
# 5 0.0000 0.0000 0.0000 0.0000 15.0152 0.0000
# 6 0.0000 0.0000 0.0000 0.0000 0.0000 5.2183
#
#
#
# Elastic Compliance Matrix: (Units=1/GPa)
#
#
# Indices 1 2 3 4 5 6 
#
# 1 0.020485 -0.002862 -0.003460 0.000000 0.000000 0.000000
# 2 -0.002862 0.010717 -0.001792 0.000000 0.000000 0.000000
# 3 -0.003460 -0.001792 0.007957 0.000000 0.000000 0.000000
# 4 0.000000 0.000000 0.000000 0.386479 0.000000 0.000000
# 5 0.000000 0.000000 0.000000 0.000000 0.066599 0.000000
# 6 0.000000 0.000000 0.000000 0.000000 0.000000 0.191632
#
#
# Mechanical properties :
#
#
# Convention : Reuss Voigt Hill
#
# Bulk Modulus (GPa) = 43.61156 52.03651 47.82403
# Shear Modulus (GPa) = 7.06474 19.56077 13.31275
#
# Velocity S-wave (km/s) = 1.82734 3.04064 2.50845
# Velocity P-wave (km/s) = 5.00653 6.07639 5.56722
#
# Compressibility (1/GPa) = 0.02292970
#
# Stress axis : x y z
#
# Youngs Moduli (GPa) = 48.81736 93.31136 125.68047
#
# Poissons Ratio (x) = 0.26709 0.43483
# Poissons Ratio (y) = 0.13973 0.22522
# Poissons Ratio (z) = 0.16890 0.16722
#
# Static dielectric constant tensor:
#      x y z
#    x 1.777820 0.000000 0.000000 
#    y 0.000000 1.778010 0.000000 
#    z 0.000000 0.000000 1.768180 
# 
# From -- ./inp_files/24214.got.cif
#   From: 2010.05.17/outbox.cif.g08.bks.cpg/sg69_13_cif.got.tgz:24214.got - 2010.06.03 19:29:58.
