data_PCOD9513085
_publ_section_title
;
Structure prediction by ZEFSAII (Michael W. Deem and Ramdas Pophale) SiO2 
 PCOD9513085
Probable space group: F M M M
;
_chemical_formula_sum "Si O2"
_cell_formula_units_Z 100
_cell_length_a 26.820125
_cell_length_b 8.764188
_cell_length_c 23.409147
_cell_angle_alpha 90.000000
_cell_angle_beta 90.000000
_cell_angle_gamma 90.000000
_cell_volume 5502.474917
_symmetry_space_group_name_H-M "F M M M"
_symmetry_group_IT_number 69
_symmetry_cell_setting 'orthorhombic'
loop_
_space_group_symop_operation_xyz
x,y,z
-x,-y,z
x,-y,-z
-x,y,-z
-x,-y,-z
x,y,-z
-x,y,z
x,-y,z
x,1/2+y,1/2+z
-x,1/2-y,1/2+z
x,1/2-y,1/2-z
-x,1/2+y,1/2-z
-x,1/2-y,1/2-z
x,1/2+y,1/2-z
-x,1/2+y,1/2+z
x,1/2-y,1/2+z
1/2+x,y,1/2+z
1/2-x,-y,1/2+z
1/2+x,-y,1/2-z
1/2-x,y,1/2-z
1/2-x,-y,1/2-z
1/2+x,y,1/2-z
1/2-x,y,1/2+z
1/2+x,-y,1/2+z
1/2+x,1/2+y,z
1/2-x,1/2-y,z
1/2+x,1/2-y,-z
1/2-x,1/2+y,-z
1/2-x,1/2-y,-z
1/2+x,1/2+y,-z
1/2-x,1/2+y,z
1/2+x,1/2-y,z
loop_
_atom_site_type_symbol
_atom_site_label
_atom_site_fract_x
_atom_site_fract_y
_atom_site_fract_z
Si Si1 0.101558 0.830918 0.500000
Si Si2 0.902335 0.182150 0.121819
Si Si3 0.000000 0.500000 0.000000
Si Si4 0.199694 0.318076 0.313303
Si Si5 0.500000 0.816256 0.185066
O O1 0.109191 0.739439 0.441948
O O2 0.126854 0.000000 0.500000
O O3 0.043320 0.871006 0.500000
O O4 0.852350 0.219119 0.156863
O O5 0.950750 0.260890 0.150618
O O6 0.910487 0.000000 0.122714
O O7 0.204725 0.500000 0.310703
O O8 0.197145 0.250000 0.250000
O O9 0.250000 0.250000 0.340912
O O10 0.500000 0.750000 0.250000
O O11 0.500000 0.000000 0.187284
#
# Coordination Sequence:
#
# PCOD9513085 Si02
#       5
#    16  32   4  32  16
#     4  10  21  37  60  84 115 152 197 239 286 346
#     4  11  23  39  60  87 119 155 196 243 296 352
#     4   8  20  36  54  80 112 140 198 228 276 336
#     4  10  21  37  60  87 117 153 198 241 295 350
#     4  12  25  39  58  86 119 154 193 239 295 355
#
# _framework density 18.173639999999999
#
# number of rings (size 3 to 8) (size 9 to 14) (size 15 to 20)
#    0.480    0.960    0.000    6.720    2.240    7.680 
#    0.000    3.200    0.000    0.000    0.000    0.000 
#    0.000    0.000    0.000    0.000    0.000    0.000 
#
# Total GULP energy -139196.274740 kJ/mol
# GULP energy per Si atom -5567.850990 kJ/mol
# Density = 1.813228 g / cm^3
# Si number density = 18.173640 Si / 1000 Ang^3
#
#
#
# Elastic Constant Matrix: (Units=GPa)
#
#
# Indices 1 2 3 4 5 6 
#
# 1 156.2873 78.7334 68.8899 0.0000 0.0000 0.0000
# 2 78.7334 95.6629 57.1575 0.0000 -0.0007 0.0000
# 3 68.8899 57.1575 129.0516 0.0000 0.0005 0.0000
# 4 0.0000 0.0000 0.0000 142.8898 0.0014 0.0000
# 5 0.0000 -0.0007 0.0005 0.0014 4671.1065 0.0003
# 6 0.0000 0.0000 0.0000 0.0000 0.0003 30.8211
#
#
#
# Elastic Compliance Matrix: (Units=1/GPa)
#
#
# Indices 1 2 3 4 5 6 
#
# 1 0.011566 -0.007928 -0.002663 0.000000 0.000000 0.000000
# 2 -0.007928 0.019650 -0.004471 0.000000 0.000000 0.000000
# 3 -0.002663 -0.004471 0.011150 0.000000 0.000000 0.000000
# 4 0.000000 0.000000 0.000000 0.006998 0.000000 0.000000
# 5 0.000000 0.000000 0.000000 0.000000 0.000214 0.000000
# 6 0.000000 0.000000 0.000000 0.000000 0.000000 0.032445
#
#
# Mechanical properties :
#
#
# Convention : Reuss Voigt Hill
#
# Bulk Modulus (GPa) = 81.68073 87.84039 84.76056
# Shear Modulus (GPa) = 43.01844 980.71154 511.86499
#
# Velocity S-wave (km/s) = 4.87054 23.25523 16.80071
# Velocity P-wave (km/s) = 8.75624 27.74010 20.56921
#
# Compressibility (1/GPa) = 0.01224279
#
# Stress axis : x y z
#
# Youngs Moduli (GPa) = 86.45771 50.89072 89.68329
#
# Poissons Ratio (x) = 0.40349 0.23880
# Poissons Ratio (y) = 0.68548 0.40095
# Poissons Ratio (z) = 0.23022 0.22752
#
# Static dielectric constant tensor:
#      x y z
#    x 1.613200 0.000000 0.000000 
#    y 0.000000 1.642780 0.000000 
#    z 0.000000 0.000000 1.584560 
# 
# From -- ./inp_files/2958.got.cif
#   From: 2010.05.17/outbox.cif.g08.bks.cpg/sg69_2_cif.got.tgz:2958.got - 2010.06.03 19:29:58.
