data_PCOD9513350
_publ_section_title
;
Structure prediction by ZEFSAII (Michael W. Deem and Ramdas Pophale) SiO2 
 PCOD9513350
Probable space group: F M M M
;
_chemical_formula_sum "Si O2"
_cell_formula_units_Z 112
_cell_length_a 11.792129
_cell_length_b 12.915857
_cell_length_c 34.013868
_cell_angle_alpha 90.000000
_cell_angle_beta 90.000000
_cell_angle_gamma 90.000000
_cell_volume 5180.497536
_symmetry_space_group_name_H-M "F M M M"
_symmetry_group_IT_number 69
_symmetry_cell_setting 'orthorhombic'
loop_
_space_group_symop_operation_xyz
x,y,z
-x,-y,z
x,-y,-z
-x,y,-z
-x,-y,-z
x,y,-z
-x,y,z
x,-y,z
x,1/2+y,1/2+z
-x,1/2-y,1/2+z
x,1/2-y,1/2-z
-x,1/2+y,1/2-z
-x,1/2-y,1/2-z
x,1/2+y,1/2-z
-x,1/2+y,1/2+z
x,1/2-y,1/2+z
1/2+x,y,1/2+z
1/2-x,-y,1/2+z
1/2+x,-y,1/2-z
1/2-x,y,1/2-z
1/2-x,-y,1/2-z
1/2+x,y,1/2-z
1/2-x,y,1/2+z
1/2+x,-y,1/2+z
1/2+x,1/2+y,z
1/2-x,1/2-y,z
1/2+x,1/2-y,-z
1/2-x,1/2+y,-z
1/2-x,1/2-y,-z
1/2+x,1/2+y,-z
1/2-x,1/2+y,z
1/2+x,1/2-y,z
loop_
_atom_site_type_symbol
_atom_site_label
_atom_site_fract_x
_atom_site_fract_y
_atom_site_fract_z
Si Si1 0.873320 0.306329 0.169759
Si Si2 0.374537 0.667800 0.044404
Si Si3 0.157578 0.615543 0.918259
Si Si4 0.372888 0.500000 0.728515
O O1 0.750000 0.250000 0.173870
O O2 0.873285 0.353485 0.125785
O O3 0.872656 0.398596 0.201133
O O4 0.000000 0.253097 0.174086
O O5 0.500000 0.626604 0.047518
O O6 0.292828 0.619981 0.076449
O O7 0.378139 0.791006 0.053117
O O8 0.333506 0.648601 0.000000
O O9 0.120252 0.500000 0.927960
O O10 0.500000 0.500000 0.748956
O O11 0.250000 0.500000 0.750000
#
# Coordination Sequence:
#
# PCOD9513350 Si02
#       4
#    32  32  32  16
#     4  11  23  41  67  97 129 166 210 259 314 371
#     4  10  22  38  55  82 123 166 210 263 320 378
#     4  11  21  35  59  87 117 158 209 262 312 371
#     4  10  24  46  70 100 135 170 203 253 312 375
#
# _framework density 21.619546
#
# number of rings (size 3 to 8) (size 9 to 14) (size 15 to 20)
#    0.000    1.429    4.286    2.571    0.000    6.286 
#    0.000    5.714    0.000    0.000    0.000    0.000 
#    0.000    0.000    0.000    0.000    0.000    0.000 
#
# Total GULP energy -156006.904907 kJ/mol
# GULP energy per Si atom -5571.675175 kJ/mol
# Density = 2.157034 g / cm^3
# Si number density = 21.619546 Si / 1000 Ang^3
#
#
#
# Elastic Constant Matrix: (Units=GPa)
#
#
# Indices 1 2 3 4 5 6 
#
# 1 225.4231 38.0662 46.3613 0.0000 0.0000 0.0000
# 2 38.0662 95.7509 -1.7326 0.0000 0.0000 0.0000
# 3 46.3613 -1.7326 60.7640 0.0000 0.0000 0.0000
# 4 0.0000 0.0000 0.0000 38.8508 0.0000 0.0000
# 5 0.0000 0.0000 0.0000 0.0000 23.5223 0.0000
# 6 0.0000 0.0000 0.0000 0.0000 0.0000 -18.1039
#
#
#
# Elastic Compliance Matrix: (Units=1/GPa)
#
#
# Indices 1 2 3 4 5 6 
#
# 1 0.005752 -0.002368 -0.004456 0.000000 0.000000 0.000000
# 2 -0.002368 0.011424 0.002132 0.000000 0.000000 0.000000
# 3 -0.004456 0.002132 0.019918 0.000000 0.000000 0.000000
# 4 0.000000 0.000000 0.000000 0.025739 0.000000 0.000000
# 5 0.000000 0.000000 0.000000 0.000000 0.042513 0.000000
# 6 0.000000 0.000000 0.000000 0.000000 0.000000 -0.055237
#
#
# Mechanical properties :
#
#
# Convention : Reuss Voigt Hill
#
# Bulk Modulus (GPa) = 36.08771 60.81420 48.45095
# Shear Modulus (GPa) = 72.74814 28.80338 50.77576
#
# Velocity S-wave (km/s) = 5.80709 3.65401 4.85150
# Velocity P-wave (km/s) = 7.85439 6.78179 7.33772
#
# Compressibility (1/GPa) = 0.02771027
#
# Stress axis : x y z
#
# Youngs Moduli (GPa) = 173.83955 87.53830 50.20568
#
# Poissons Ratio (x) = 0.20725 0.22374
# Poissons Ratio (y) = 0.41157 -0.10704
# Poissons Ratio (z) = 0.77471 -0.18664
#
# Static dielectric constant tensor:
#      x y z
#    x 1.955430 0.000000 0.000000 
#    y 0.000000 1.810730 0.000000 
#    z 0.000000 0.000000 1.717610 
# 
# From -- ./inp_files/44821.got.cif
#   From: 2010.05.17/outbox.cif.g08.bks.cpg/sg69_23_cif.got.tgz:44821.got - 2010.06.03 19:29:58.
