data_PCOD9513928
_publ_section_title
;
Structure prediction by ZEFSAII (Michael W. Deem and Ramdas Pophale) SiO2 
 PCOD9513928
Probable space group: F M M M
;
_chemical_formula_sum "Si O2"
_cell_formula_units_Z 144
_cell_length_a 27.957851
_cell_length_b 8.638265
_cell_length_c 32.867259
_cell_angle_alpha 90.000000
_cell_angle_beta 90.000000
_cell_angle_gamma 90.000000
_cell_volume 7937.683826
_symmetry_space_group_name_H-M "F M M M"
_symmetry_group_IT_number 69
_symmetry_cell_setting 'orthorhombic'
loop_
_space_group_symop_operation_xyz
x,y,z
-x,-y,z
x,-y,-z
-x,y,-z
-x,-y,-z
x,y,-z
-x,y,z
x,-y,z
x,1/2+y,1/2+z
-x,1/2-y,1/2+z
x,1/2-y,1/2-z
-x,1/2+y,1/2-z
-x,1/2-y,1/2-z
x,1/2+y,1/2-z
-x,1/2+y,1/2+z
x,1/2-y,1/2+z
1/2+x,y,1/2+z
1/2-x,-y,1/2+z
1/2+x,-y,1/2-z
1/2-x,y,1/2-z
1/2-x,-y,1/2-z
1/2+x,y,1/2-z
1/2-x,y,1/2+z
1/2+x,-y,1/2+z
1/2+x,1/2+y,z
1/2-x,1/2-y,z
1/2+x,1/2-y,-z
1/2-x,1/2+y,-z
1/2-x,1/2-y,-z
1/2+x,1/2+y,-z
1/2-x,1/2+y,z
1/2+x,1/2-y,z
loop_
_atom_site_type_symbol
_atom_site_label
_atom_site_fract_x
_atom_site_fract_y
_atom_site_fract_z
Si Si1 0.946863 0.311380 0.622269
Si Si2 0.099797 0.313505 0.293435
Si Si3 0.196488 0.316090 0.000000
Si Si4 0.301680 0.686171 0.832991
Si Si5 0.651000 0.312772 0.081846
O O1 0.946969 0.500000 0.621833
O O2 0.932763 0.265486 0.668297
O O3 0.903141 0.264479 0.593276
O O4 0.000000 0.257984 0.611337
O O5 0.099272 0.500000 0.292266
O O6 0.084772 0.250000 0.250000
O O7 0.154144 0.263659 0.304523
O O8 0.250000 0.250000 0.000000
O O9 0.169926 0.257846 0.040422
O O10 0.198636 0.500000 0.000000
O O11 0.300240 0.500000 0.831858
O O12 0.250000 0.750000 0.821864
O O13 0.316361 0.730993 0.879192
O O14 0.652075 0.500000 0.078937
#
# Coordination Sequence:
#
# PCOD9513928 Si02
#       5
#    32  32  16  32  32
#     4   8  15  31  55  77  98 129 168 208 247 289
#     4   9  18  31  46  69  99 127 161 205 249 292
#     4  12  24  36  53  78 107 135 162 197 243 292
#     4   9  18  31  47  67  93 127 164 203 245 291
#     4   9  18  34  54  76 101 129 166 207 245 290
#
# _framework density 18.141313
#
# number of rings (size 3 to 8) (size 9 to 14) (size 15 to 20)
#    0.000    2.889    0.000    4.333    0.000    4.444 
#    0.000    6.111    0.000    5.333    0.000    0.000 
#    0.000    0.000    0.000    0.000    0.000    0.000 
#
# Total GULP energy -200739.593973 kJ/mol
# GULP energy per Si atom -5576.099833 kJ/mol
# Density = 1.810002 g / cm^3
# Si number density = 18.141313 Si / 1000 Ang^3
#
#
#
# Elastic Constant Matrix: (Units=GPa)
#
#
# Indices 1 2 3 4 5 6 
#
# 1 115.2258 13.6885 32.9599 0.0001 0.0000 -0.0003
# 2 13.6885 16.7294 19.5365 0.0001 0.0000 -0.0001
# 3 32.9599 19.5365 99.9504 0.0000 0.0000 -0.0001
# 4 0.0001 0.0001 0.0000 25.1982 0.0000 -0.0001
# 5 0.0000 0.0000 0.0000 0.0000 7.9730 0.0000
# 6 -0.0003 -0.0001 -0.0001 -0.0001 0.0000 14.4072
#
#
#
# Elastic Compliance Matrix: (Units=1/GPa)
#
#
# Indices 1 2 3 4 5 6 
#
# 1 0.009971 -0.005596 -0.002194 0.000000 0.000000 0.000000
# 2 -0.005596 0.080595 -0.013908 0.000000 0.000000 0.000001
# 3 -0.002194 -0.013908 0.013447 0.000000 0.000000 0.000000
# 4 0.000000 0.000000 0.000000 0.039685 0.000000 0.000000
# 5 0.000000 0.000000 0.000000 0.000000 0.125423 0.000000
# 6 0.000000 0.000001 0.000000 0.000000 0.000000 0.069410
#
#
# Mechanical properties :
#
#
# Convention : Reuss Voigt Hill
#
# Bulk Modulus (GPa) = 16.49709 40.47505 28.48607
# Shear Modulus (GPa) = 12.43367 20.56373 16.49870
#
# Velocity S-wave (km/s) = 2.62081 3.37045 3.01899
# Velocity P-wave (km/s) = 4.27453 6.12421 5.28098
#
# Compressibility (1/GPa) = 0.06061675
#
# Stress axis : x y z
#
# Youngs Moduli (GPa) = 100.29002 12.40767 74.36601
#
# Poissons Ratio (x) = 0.06944 0.16318
# Poissons Ratio (y) = 0.56124 1.03427
# Poissons Ratio (z) = 0.22006 0.17256
#
# Static dielectric constant tensor:
#      x y z
#    x 1.628600 0.000000 0.000000 
#    y 0.000000 1.620520 0.000000 
#    z 0.000000 0.000000 1.601500 
# 
# From -- ./inp_files/5532.got.cif
#   From: 2010.05.17/outbox.cif.g08.bks.cpg/sg69_3_cif.got.tgz:5532.got - 2010.06.03 19:29:58.
