data_PCOD9513097
_publ_section_title
;
Structure prediction by ZEFSAII (Michael W. Deem and Ramdas Pophale) SiO2 
 PCOD9513097
Probable space group: F M M M
;
_chemical_formula_sum "Si O2"
_cell_formula_units_Z 128
_cell_length_a 20.148861
_cell_length_b 13.899109
_cell_length_c 20.801818
_cell_angle_alpha 90.000000
_cell_angle_beta 90.000000
_cell_angle_gamma 90.000000
_cell_volume 5825.574411
_symmetry_space_group_name_H-M "F M M M"
_symmetry_group_IT_number 69
_symmetry_cell_setting 'orthorhombic'
loop_
_space_group_symop_operation_xyz
x,y,z
-x,-y,z
x,-y,-z
-x,y,-z
-x,-y,-z
x,y,-z
-x,y,z
x,-y,z
x,1/2+y,1/2+z
-x,1/2-y,1/2+z
x,1/2-y,1/2-z
-x,1/2+y,1/2-z
-x,1/2-y,1/2-z
x,1/2+y,1/2-z
-x,1/2+y,1/2+z
x,1/2-y,1/2+z
1/2+x,y,1/2+z
1/2-x,-y,1/2+z
1/2+x,-y,1/2-z
1/2-x,y,1/2-z
1/2-x,-y,1/2-z
1/2+x,y,1/2-z
1/2-x,y,1/2+z
1/2+x,-y,1/2+z
1/2+x,1/2+y,z
1/2-x,1/2-y,z
1/2+x,1/2-y,-z
1/2-x,1/2+y,-z
1/2-x,1/2-y,-z
1/2+x,1/2+y,-z
1/2-x,1/2+y,z
1/2+x,1/2-y,z
loop_
_atom_site_type_symbol
_atom_site_label
_atom_site_fract_x
_atom_site_fract_y
_atom_site_fract_z
Si Si1 0.140220 0.385950 0.500000
Si Si2 0.925216 0.172854 0.132435
Si Si3 0.209112 0.615232 0.000000
Si Si4 0.674199 0.364679 0.754360
Si Si5 0.388412 0.108702 0.119041
O O1 0.145250 0.500000 0.500000
O O2 0.100343 0.356226 0.562723
O O3 0.215746 0.345169 0.500000
O O4 0.872777 0.126064 0.183061
O O5 0.927066 0.290323 0.128728
O O6 0.000000 0.139890 0.146832
O O7 0.166319 0.634419 0.064280
O O8 0.216455 0.500000 0.000000
O O9 0.677975 0.250000 0.750000
O O10 0.750000 0.398689 0.750000
O O11 0.641306 0.401540 0.689766
O O12 0.415591 0.000000 0.101891
#
# Coordination Sequence:
#
# PCOD9513097 Si02
#       5
#    16  32  16  32  32
#     4  11  24  42  65  90 120 159 203 254 313 370
#     4  11  24  40  60  90 126 163 206 253 304 369
#     4   9  19  37  62  93 121 152 202 258 307 363
#     4   9  19  36  59  87 119 158 204 253 304 357
#     4  10  21  37  60  89 122 160 201 248 304 361
#
# _framework density 21.972083000000001
#
# number of rings (size 3 to 8) (size 9 to 14) (size 15 to 20)
#    0.000    2.000    0.000    2.625    0.000   11.500 
#    0.000    0.000    0.000    3.750    0.000    0.000 
#    0.000    0.000    0.000    0.000    0.000    0.000 
#
# Total GULP energy -178218.440900 kJ/mol
# GULP energy per Si atom -5569.326278 kJ/mol
# Density = 2.192207 g / cm^3
# Si number density = 21.972083 Si / 1000 Ang^3
#
#
#
# Elastic Constant Matrix: (Units=GPa)
#
#
# Indices 1 2 3 4 5 6 
#
# 1 163.7049 25.2253 85.2210 0.0000 0.0000 0.0000
# 2 25.2253 110.2508 18.2329 0.0000 0.0000 0.0000
# 3 85.2210 18.2329 185.9505 0.0000 0.0000 0.0000
# 4 0.0000 0.0000 0.0000 27.9045 0.0000 0.0000
# 5 0.0000 0.0000 0.0000 0.0000 21.5448 0.0000
# 6 0.0000 0.0000 0.0000 0.0000 0.0000 3.6095
#
#
#
# Elastic Compliance Matrix: (Units=1/GPa)
#
#
# Indices 1 2 3 4 5 6 
#
# 1 0.008195 -0.001275 -0.003631 0.000000 0.000000 0.000000
# 2 -0.001275 0.009418 -0.000339 0.000000 0.000000 0.000000
# 3 -0.003631 -0.000339 0.007075 0.000000 0.000000 0.000000
# 4 0.000000 0.000000 0.000000 0.035837 0.000000 0.000000
# 5 0.000000 0.000000 0.000000 0.000000 0.046415 0.000000
# 6 0.000000 0.000000 0.000000 0.000000 0.000000 0.277046
#
#
# Mechanical properties :
#
#
# Convention : Reuss Voigt Hill
#
# Bulk Modulus (GPa) = 70.42918 79.69607 75.06262
# Shear Modulus (GPa) = 12.52480 32.69356 22.60918
#
# Velocity S-wave (km/s) = 2.39013 3.86159 3.21128
# Velocity P-wave (km/s) = 6.30400 7.49885 6.92724
#
# Compressibility (1/GPa) = 0.01419866
#
# Stress axis : x y z
#
# Youngs Moduli (GPa) = 122.02447 106.18002 141.34172
#
# Poissons Ratio (x) = 0.13533 0.51319
# Poissons Ratio (y) = 0.15553 0.04796
# Poissons Ratio (z) = 0.44305 0.03603
#
# Static dielectric constant tensor:
#      x y z
#    x 1.828180 0.000000 0.000000 
#    y 0.000000 2.295400 0.000000 
#    z 0.000000 0.000000 1.739820 
# 
# From -- ./inp_files/31497.got.cif
#   From: 2010.05.17/outbox.cif.g08.bks.cpg/sg69_16_cif.got.tgz:31497.got - 2010.06.03 19:29:58.
