data_PCOD9513679
_publ_section_title
;
Structure prediction by ZEFSAII (Michael W. Deem and Ramdas Pophale) SiO2 
 PCOD9513679
Probable space group: F M M M
;
_chemical_formula_sum "Si O2"
_cell_formula_units_Z 112
_cell_length_a 28.726846
_cell_length_b 23.452702
_cell_length_c 8.143116
_cell_angle_alpha 90.000000
_cell_angle_beta 90.000000
_cell_angle_gamma 90.000000
_cell_volume 5486.197690
_symmetry_space_group_name_H-M "F M M M"
_symmetry_group_IT_number 69
_symmetry_cell_setting 'orthorhombic'
loop_
_space_group_symop_operation_xyz
x,y,z
-x,-y,z
x,-y,-z
-x,y,-z
-x,-y,-z
x,y,-z
-x,y,z
x,-y,z
x,1/2+y,1/2+z
-x,1/2-y,1/2+z
x,1/2-y,1/2-z
-x,1/2+y,1/2-z
-x,1/2-y,1/2-z
x,1/2+y,1/2-z
-x,1/2+y,1/2+z
x,1/2-y,1/2+z
1/2+x,y,1/2+z
1/2-x,-y,1/2+z
1/2+x,-y,1/2-z
1/2-x,y,1/2-z
1/2-x,-y,1/2-z
1/2+x,y,1/2-z
1/2-x,y,1/2+z
1/2+x,-y,1/2+z
1/2+x,1/2+y,z
1/2-x,1/2-y,z
1/2+x,1/2-y,-z
1/2-x,1/2+y,-z
1/2-x,1/2-y,-z
1/2+x,1/2+y,-z
1/2-x,1/2+y,z
1/2+x,1/2-y,z
loop_
_atom_site_type_symbol
_atom_site_label
_atom_site_fract_x
_atom_site_fract_y
_atom_site_fract_z
Si Si1 0.871383 0.398468 0.685556
Si Si2 0.695411 0.000000 0.807861
Si Si3 0.945970 0.686571 0.301309
Si Si4 0.799162 0.315202 0.196197
O O1 0.881718 0.416855 0.500000
O O2 0.837766 0.446531 0.760605
O O3 0.918055 0.369602 0.760246
O O4 0.838585 0.343626 0.696556
O O5 0.750000 0.000000 0.750000
O O6 0.700221 0.000000 0.000000
O O7 0.943620 0.684892 0.500000
O O8 0.928400 0.750000 0.250000
O O9 0.000000 0.683596 0.250087
O O10 0.797739 0.250000 0.250000
O O11 0.750000 0.341892 0.250000
O O12 0.806056 0.321137 0.000000
#
# Coordination Sequence:
#
# PCOD9513679 Si02
#       4
#    32  16  32  32
#     4  11  22  38  59  83 113 150 193 238 288 343
#     4  12  26  44  63  84 113 151 198 245 293 346
#     4   9  19  36  60  90 122 155 191 234 286 344
#     4  11  21  34  52  78 111 145 184 230 285 345
#
# _framework density 20.414867999999998
#
# number of rings (size 3 to 8) (size 9 to 14) (size 15 to 20)
#    0.000    1.429    0.000    7.286    0.000    4.571 
#    0.000    0.714    0.000    4.286    0.000    0.000 
#    0.000    0.000    0.000    0.000    0.000    0.000 
#
# Total GULP energy -155931.064221 kJ/mol
# GULP energy per Si atom -5568.966579 kJ/mol
# Density = 2.036840 g / cm^3
# Si number density = 20.414868 Si / 1000 Ang^3
#
#
#
# Elastic Constant Matrix: (Units=GPa)
#
#
# Indices 1 2 3 4 5 6 
#
# 1 110.4868 62.3313 11.3354 -0.0003 0.0001 0.0000
# 2 62.3313 108.7245 20.4924 -0.0012 0.0004 0.0006
# 3 11.3354 20.4924 71.1206 -0.0027 0.0008 0.0014
# 4 -0.0003 -0.0012 -0.0027 31.6313 0.0006 0.0010
# 5 0.0001 0.0004 0.0008 0.0006 18.6084 -0.0002
# 6 0.0000 0.0006 0.0014 0.0010 -0.0002 0.7297
#
#
#
# Elastic Compliance Matrix: (Units=1/GPa)
#
#
# Indices 1 2 3 4 5 6 
#
# 1 0.013378 -0.007685 0.000082 0.000000 0.000000 0.000006
# 2 -0.007685 0.014140 -0.002850 0.000000 0.000000 -0.000006
# 3 0.000082 -0.002850 0.014869 0.000001 -0.000001 -0.000027
# 4 0.000000 0.000000 0.000001 0.031614 -0.000001 -0.000044
# 5 0.000000 0.000000 -0.000001 -0.000001 0.053739 0.000011
# 6 0.000006 -0.000006 -0.000027 -0.000044 0.000011 1.370444
#
#
# Mechanical properties :
#
#
# Convention : Reuss Voigt Hill
#
# Bulk Modulus (GPa) = 46.55026 53.18334 49.86680
# Shear Modulus (GPa) = 3.27600 23.27206 13.27403
#
# Velocity S-wave (km/s) = 1.26815 3.37999 2.55270
# Velocity P-wave (km/s) = 4.99959 6.42964 5.75917
#
# Compressibility (1/GPa) = 0.02148216
#
# Stress axis : x y z
#
# Youngs Moduli (GPa) = 74.74999 70.71932 67.25588
#
# Poissons Ratio (x) = 0.54348 -0.00552
# Poissons Ratio (y) = 0.57445 0.19165
# Poissons Ratio (z) = -0.00614 0.20152
#
# Static dielectric constant tensor:
#      x y z
#    x 1.811360 0.000000 0.000000 
#    y 0.000000 1.666340 0.000000 
#    z 0.000000 0.000000 1.741370 
# 
# From -- ./inp_files/3687.got.cif
#   From: 2010.05.17/outbox.cif.g08.bks.cpg/sg69_2_cif.got.tgz:3687.got - 2010.06.03 19:29:58.
