data_PCOD9513207
_publ_section_title
;
Structure prediction by ZEFSAII (Michael W. Deem and Ramdas Pophale) SiO2 
 PCOD9513207
Probable space group: F M M M
;
_chemical_formula_sum "Si O2"
_cell_formula_units_Z 84
_cell_length_a 14.618394
_cell_length_b 11.104805
_cell_length_c 20.136068
_cell_angle_alpha 90.000000
_cell_angle_beta 90.000000
_cell_angle_gamma 90.000000
_cell_volume 3268.776815
_symmetry_space_group_name_H-M "F M M M"
_symmetry_group_IT_number 69
_symmetry_cell_setting 'orthorhombic'
loop_
_space_group_symop_operation_xyz
x,y,z
-x,-y,z
x,-y,-z
-x,y,-z
-x,-y,-z
x,y,-z
-x,y,z
x,-y,z
x,1/2+y,1/2+z
-x,1/2-y,1/2+z
x,1/2-y,1/2-z
-x,1/2+y,1/2-z
-x,1/2-y,1/2-z
x,1/2+y,1/2-z
-x,1/2+y,1/2+z
x,1/2-y,1/2+z
1/2+x,y,1/2+z
1/2-x,-y,1/2+z
1/2+x,-y,1/2-z
1/2-x,y,1/2-z
1/2-x,-y,1/2-z
1/2+x,y,1/2-z
1/2-x,y,1/2+z
1/2+x,-y,1/2+z
1/2+x,1/2+y,z
1/2-x,1/2-y,z
1/2+x,1/2-y,-z
1/2-x,1/2+y,-z
1/2-x,1/2-y,-z
1/2+x,1/2+y,-z
1/2-x,1/2+y,z
1/2+x,1/2-y,z
loop_
_atom_site_type_symbol
_atom_site_label
_atom_site_fract_x
_atom_site_fract_y
_atom_site_fract_z
Si Si1 0.000000 0.500000 0.000000
Si Si2 0.644365 0.259547 0.145271
Si Si3 0.819441 0.000000 0.812061
Si Si4 0.390015 0.141514 0.500000
Si Si5 0.129431 0.500000 0.872289
O O1 0.079879 0.500000 0.942413
O O2 0.750000 0.250000 0.165302
O O3 0.617838 0.382544 0.181109
O O4 0.603718 0.128856 0.159157
O O5 0.638309 0.288265 0.066618
O O6 0.750000 0.000000 0.750000
O O7 0.741503 0.000000 0.871472
O O8 0.500000 0.143707 0.500000
O O9 0.362956 0.000000 0.500000
#
# Coordination Sequence:
#
# PCOD9513207 Si02
#       5
#     4  32  16  16  16
#     4  12  24  44  60  94 156 176 214 252 348 424
#     4  10  21  39  60  93 124 163 217 262 330 381
#     4  10  22  44  70  89 119 164 230 285 322 377
#     4  11  22  35  58  90 131 166 208 262 326 396
#     4  10  24  36  64  94 129 177 206 271 328 397
#
# _framework density 25.697686999999998
#
# number of rings (size 3 to 8) (size 9 to 14) (size 15 to 20)
#    0.000    1.714    1.905    1.714    5.333   11.429 
#    0.000    0.000    4.190    2.286    0.000    0.000 
#    0.000    0.000    0.000    0.000    0.000    0.000 
#
# Total GULP energy -116970.892165 kJ/mol
# GULP energy per Si atom -5570.042484 kJ/mol
# Density = 2.563920 g / cm^3
# Si number density = 25.697687 Si / 1000 Ang^3
#
#
#
# Elastic Constant Matrix: (Units=GPa)
#
#
# Indices 1 2 3 4 5 6 
#
# 1 83.1590 11.6254 14.9394 0.0000 0.0000 0.0000
# 2 11.6254 326.8839 49.2666 0.0000 0.0000 0.0000
# 3 14.9394 49.2666 144.9786 0.0000 0.0000 0.0000
# 4 0.0000 0.0000 0.0000 0.1315 0.0000 0.0000
# 5 0.0000 0.0000 0.0000 0.0000 132.0719 0.0000
# 6 0.0000 0.0000 0.0000 0.0000 0.0000 -20.4751
#
#
#
# Elastic Compliance Matrix: (Units=1/GPa)
#
#
# Indices 1 2 3 4 5 6 
#
# 1 0.012273 -0.000259 -0.001177 0.000000 0.000000 0.000000
# 2 -0.000259 0.003230 -0.001071 0.000000 0.000000 0.000000
# 3 -0.001177 -0.001071 0.007383 0.000000 0.000000 0.000000
# 4 0.000000 0.000000 0.000000 7.602534 0.000000 0.000000
# 5 0.000000 0.000000 0.000000 0.000000 0.007572 0.000000
# 6 0.000000 0.000000 0.000000 0.000000 0.000000 -0.048840
#
#
# Mechanical properties :
#
#
# Convention : Reuss Voigt Hill
#
# Bulk Modulus (GPa) = 55.95314 78.52050 67.23682
# Shear Modulus (GPa) = 0.65832 54.29168 27.47500
#
# Velocity S-wave (km/s) = 0.50669 4.60141 3.27335
# Velocity P-wave (km/s) = 4.70778 7.67153 6.36457
#
# Compressibility (1/GPa) = 0.01787210
#
# Stress axis : x y z
#
# Youngs Moduli (GPa) = 81.48128 309.61668 135.45163
#
# Poissons Ratio (x) = 0.08023 0.15937
# Poissons Ratio (y) = 0.02112 0.14505
# Poissons Ratio (z) = 0.09587 0.33155
#
# Static dielectric constant tensor:
#      x y z
#    x 1.933450 0.000000 0.000000 
#    y 0.000000 2.223600 0.000000 
#    z 0.000000 0.000000 2.046890 
# 
# From -- ./inp_files/7880.got.cif
#   From: 2010.05.17/outbox.cif.g08.bks.cpg/sg69_4_cif.got.tgz:7880.got - 2010.06.03 19:29:58.
