data_PCOD9513084
_publ_section_title
;
Structure prediction by ZEFSAII (Michael W. Deem and Ramdas Pophale) SiO2 
 PCOD9513084
Probable space group: F M M M
;
_chemical_formula_sum "Si O2"
_cell_formula_units_Z 176
_cell_length_a 16.852729
_cell_length_b 18.139191
_cell_length_c 25.492210
_cell_angle_alpha 90.000000
_cell_angle_beta 90.000000
_cell_angle_gamma 90.000000
_cell_volume 7792.837827
_symmetry_space_group_name_H-M "F M M M"
_symmetry_group_IT_number 69
_symmetry_cell_setting 'orthorhombic'
loop_
_space_group_symop_operation_xyz
x,y,z
-x,-y,z
x,-y,-z
-x,y,-z
-x,-y,-z
x,y,-z
-x,y,z
x,-y,z
x,1/2+y,1/2+z
-x,1/2-y,1/2+z
x,1/2-y,1/2-z
-x,1/2+y,1/2-z
-x,1/2-y,1/2-z
x,1/2+y,1/2-z
-x,1/2+y,1/2+z
x,1/2-y,1/2+z
1/2+x,y,1/2+z
1/2-x,-y,1/2+z
1/2+x,-y,1/2-z
1/2-x,y,1/2-z
1/2-x,-y,1/2-z
1/2+x,y,1/2-z
1/2-x,y,1/2+z
1/2+x,-y,1/2+z
1/2+x,1/2+y,z
1/2-x,1/2-y,z
1/2+x,1/2-y,-z
1/2-x,1/2+y,-z
1/2-x,1/2-y,-z
1/2+x,1/2+y,-z
1/2-x,1/2+y,z
1/2+x,1/2-y,z
loop_
_atom_site_type_symbol
_atom_site_label
_atom_site_fract_x
_atom_site_fract_y
_atom_site_fract_z
Si Si1 0.840355 0.336361 0.736989
Si Si2 0.596275 0.663801 0.561664
Si Si3 0.322480 0.206474 0.374851
Si Si4 0.000000 0.087012 0.241670
Si Si5 0.163728 0.916602 0.938004
Si Si6 0.594130 0.000000 0.063074
Si Si7 0.000000 0.087429 0.115968
O O1 0.848484 0.250000 0.750000
O O2 0.750000 0.361744 0.750000
O O3 0.851570 0.340713 0.674319
O O4 0.916761 0.377937 0.761499
O O5 0.619626 0.673914 0.500000
O O6 0.500000 0.663007 0.562229
O O7 0.623894 0.731701 0.597719
O O8 0.622794 0.581173 0.580213
O O9 0.250000 0.250000 0.349565
O O10 0.284892 0.150655 0.417238
O O11 0.000000 0.098606 0.178216
O O12 0.000000 0.000000 0.251975
O O13 0.078327 0.889447 0.915780
O O14 0.181109 0.000000 0.919107
O O15 0.162623 0.919096 0.000000
O O16 0.500000 0.000000 0.072928
O O17 0.606359 0.000000 0.000000
O O18 0.000000 0.000000 0.108990
#
# Coordination Sequence:
#
# PCOD9513084 Si02
#       7
#    32  32  32  16  32  16  16
#     4  11  24  47  72  98 132 179 227 284 353 412
#     4   9  19  35  61  95 129 169 217 267 324 392
#     4  12  24  40  63  91 126 168 222 270 327 401
#     4  11  23  42  77 111 131 169 226 282 348 420
#     4  10  21  37  59  92 136 177 210 256 319 392
#     4   7  12  30  56  84 123 168 209 255 312 375
#     4   9  17  33  60  96 127 162 205 249 310 397
#
# _framework density 22.584841000000001
#
# number of rings (size 3 to 8) (size 9 to 14) (size 15 to 20)
#    0.000    1.909    3.636    2.182    2.545    2.909 
#    1.636    0.000    2.000    0.000    0.000    0.000 
#    0.000    0.000    0.000    0.000    0.000    0.364 
#
# Total GULP energy -245165.869776 kJ/mol
# GULP energy per Si atom -5571.951586 kJ/mol
# Density = 2.253344 g / cm^3
# Si number density = 22.584841 Si / 1000 Ang^3
#
#
#
# Elastic Constant Matrix: (Units=GPa)
#
#
# Indices 1 2 3 4 5 6 
#
# 1 110.8818 67.7895 4.9636 0.0000 0.0000 0.0000
# 2 67.7895 118.5571 30.2491 0.0000 0.0000 0.0000
# 3 4.9636 30.2491 54.5869 0.0000 0.0000 0.0000
# 4 0.0000 0.0000 0.0000 26.9247 0.0000 0.0000
# 5 0.0000 0.0000 0.0000 0.0000 22.4959 0.0000
# 6 0.0000 0.0000 0.0000 0.0000 0.0000 31.1515
#
#
#
# Elastic Compliance Matrix: (Units=1/GPa)
#
#
# Indices 1 2 3 4 5 6 
#
# 1 0.014519 -0.009276 0.003820 0.000000 0.000000 0.000000
# 2 -0.009276 0.015751 -0.007885 0.000000 0.000000 0.000000
# 3 0.003820 -0.007885 0.022341 0.000000 0.000000 0.000000
# 4 0.000000 0.000000 0.000000 0.037141 0.000000 0.000000
# 5 0.000000 0.000000 0.000000 0.000000 0.044453 0.000000
# 6 0.000000 0.000000 0.000000 0.000000 0.000000 0.032101
#
#
# Mechanical properties :
#
#
# Convention : Reuss Voigt Hill
#
# Bulk Modulus (GPa) = 38.56654 54.44780 46.50717
# Shear Modulus (GPa) = 24.79791 28.18266 26.49028
#
# Velocity S-wave (km/s) = 3.31719 3.53633 3.42851
# Velocity P-wave (km/s) = 5.63782 6.39020 6.02576
#
# Compressibility (1/GPa) = 0.02592921
#
# Stress axis : x y z
#
# Youngs Moduli (GPa) = 68.87556 63.48947 44.76029
#
# Poissons Ratio (x) = 0.58896 -0.17100
# Poissons Ratio (y) = 0.63892 0.35292
# Poissons Ratio (z) = -0.26312 0.50059
#
# Static dielectric constant tensor:
#      x y z
#    x 2.198000 0.000000 0.000000 
#    y 0.000000 2.007540 0.000000 
#    z 0.000000 0.000000 1.768670 
# 
# From -- ./inp_files/26828.got.cif
#   From: 2010.05.17/outbox.cif.g08.bks.cpg/sg69_14_cif.got.tgz:26828.got - 2010.06.03 19:29:58.
