data_PCOD9513683
_publ_section_title
;
Structure prediction by ZEFSAII (Michael W. Deem and Ramdas Pophale) SiO2 
 PCOD9513683
Probable space group: F M M M
;
_chemical_formula_sum "Si O2"
_cell_formula_units_Z 136
_cell_length_a 14.712140
_cell_length_b 25.317128
_cell_length_c 19.712345
_cell_angle_alpha 90.000000
_cell_angle_beta 90.000000
_cell_angle_gamma 90.000000
_cell_volume 7342.240023
_symmetry_space_group_name_H-M "F M M M"
_symmetry_group_IT_number 69
_symmetry_cell_setting 'orthorhombic'
loop_
_space_group_symop_operation_xyz
x,y,z
-x,-y,z
x,-y,-z
-x,y,-z
-x,-y,-z
x,y,-z
-x,y,z
x,-y,z
x,1/2+y,1/2+z
-x,1/2-y,1/2+z
x,1/2-y,1/2-z
-x,1/2+y,1/2-z
-x,1/2-y,1/2-z
x,1/2+y,1/2-z
-x,1/2+y,1/2+z
x,1/2-y,1/2+z
1/2+x,y,1/2+z
1/2-x,-y,1/2+z
1/2+x,-y,1/2-z
1/2-x,y,1/2-z
1/2-x,-y,1/2-z
1/2+x,y,1/2-z
1/2-x,y,1/2+z
1/2+x,-y,1/2+z
1/2+x,1/2+y,z
1/2-x,1/2-y,z
1/2+x,1/2-y,-z
1/2-x,1/2+y,-z
1/2-x,1/2-y,-z
1/2+x,1/2+y,-z
1/2-x,1/2+y,z
1/2+x,1/2-y,z
loop_
_atom_site_type_symbol
_atom_site_label
_atom_site_fract_x
_atom_site_fract_y
_atom_site_fract_z
Si Si1 0.351069 0.304768 0.220020
Si Si2 0.250000 0.500000 0.750000
Si Si3 0.110538 0.144221 0.424489
Si Si4 0.103779 0.588379 0.210768
Si Si5 0.110197 0.767054 0.923685
O O1 0.391815 0.250000 0.250000
O O2 0.250000 0.307281 0.250000
O O3 0.397817 0.357627 0.245818
O O4 0.352042 0.299755 0.139024
O O5 0.171315 0.453933 0.758765
O O6 0.139995 0.128083 0.500000
O O7 0.139273 0.106696 0.363607
O O8 0.136404 0.205490 0.413889
O O9 0.000000 0.144066 0.423682
O O10 0.000000 0.569115 0.204391
O O11 0.000000 0.769670 0.921052
O O12 0.138202 0.782873 0.000000
#
# Coordination Sequence:
#
# PCOD9513683 Si02
#       5
#    32   8  32  32  32
#     4  11  21  34  55  89 128 157 195 243 303 368
#     4  12  26  44  56  80 116 146 218 268 292 364
#     4   8  15  30  55  88 120 151 191 240 300 369
#     4  11  22  39  64  86 117 162 199 252 310 355
#     4   9  17  31  54  86 124 162 198 238 293 369
#
# _framework density 18.522957999999999
#
# number of rings (size 3 to 8) (size 9 to 14) (size 15 to 20)
#    0.000    2.118    3.529    2.471    0.000    0.941 
#    0.000    4.118    0.000    4.235    0.000    0.000 
#    0.000    7.529    0.000    0.000    0.000    0.000 
#
# Total GULP energy -189297.673787 kJ/mol
# GULP energy per Si atom -5567.578641 kJ/mol
# Density = 1.848080 g / cm^3
# Si number density = 18.522958 Si / 1000 Ang^3
#
#
#
# Elastic Constant Matrix: (Units=GPa)
#
#
# Indices 1 2 3 4 5 6 
#
# 1 79.0675 35.3489 43.2761 0.0000 0.0000 0.0000
# 2 35.3489 105.1960 44.5098 0.0000 0.0000 0.0000
# 3 43.2761 44.5098 113.5841 0.0000 0.0000 0.0000
# 4 0.0000 0.0000 0.0000 -1.5558 0.0000 0.0000
# 5 0.0000 0.0000 0.0000 0.0000 17.8478 0.0000
# 6 0.0000 0.0000 0.0000 0.0000 0.0000 86.6925
#
#
#
# Elastic Compliance Matrix: (Units=1/GPa)
#
#
# Indices 1 2 3 4 5 6 
#
# 1 0.017029 -0.003569 -0.005090 0.000000 0.000000 0.000000
# 2 -0.003569 0.012143 -0.003399 0.000000 0.000000 0.000000
# 3 -0.005090 -0.003399 0.012075 0.000000 0.000000 0.000000
# 4 0.000000 0.000000 0.000000 -0.642738 0.000000 0.000000
# 5 0.000000 0.000000 0.000000 0.000000 0.056029 0.000000
# 6 0.000000 0.000000 0.000000 0.000000 0.000000 0.011535
#
#
# Mechanical properties :
#
#
# Convention : Reuss Voigt Hill
#
# Bulk Modulus (GPa) = 58.36740 60.45745 59.41243
# Shear Modulus (GPa) = -9.91863 32.24442 11.16289
#
# Velocity S-wave (km/s) = -2.31655 4.17679 2.45756
# Velocity P-wave (km/s) = 4.94207 7.48137 6.34015
#
# Compressibility (1/GPa) = 0.01713285
#
# Stress axis : x y z
#
# Youngs Moduli (GPa) = 58.72502 82.34958 82.81508
#
# Poissons Ratio (x) = 0.29388 0.42149
# Poissons Ratio (y) = 0.20957 0.28148
# Poissons Ratio (z) = 0.29888 0.27990
#
# Static dielectric constant tensor:
#      x y z
#    x 1.709870 0.000000 0.000000 
#    y 0.000000 1.612090 0.000000 
#    z 0.000000 0.000000 1.674410 
# 
# From -- ./inp_files/29770.got.cif
#   From: 2010.05.17/outbox.cif.g08.bks.cpg/sg69_15_cif.got.tgz:29770.got - 2010.06.03 19:29:58.
