data_PCOD9513000
_publ_section_title
;
Structure prediction by ZEFSAII (Michael W. Deem and Ramdas Pophale) SiO2 
 PCOD9513000
Probable space group: F M M M
;
_chemical_formula_sum "Si O2"
_cell_formula_units_Z 208
_cell_length_a 18.568508
_cell_length_b 20.602493
_cell_length_c 28.193345
_cell_angle_alpha 90.000000
_cell_angle_beta 90.000000
_cell_angle_gamma 90.000000
_cell_volume 10785.577161
_symmetry_space_group_name_H-M "F M M M"
_symmetry_group_IT_number 69
_symmetry_cell_setting 'orthorhombic'
loop_
_space_group_symop_operation_xyz
x,y,z
-x,-y,z
x,-y,-z
-x,y,-z
-x,-y,-z
x,y,-z
-x,y,z
x,-y,z
x,1/2+y,1/2+z
-x,1/2-y,1/2+z
x,1/2-y,1/2-z
-x,1/2+y,1/2-z
-x,1/2-y,1/2-z
x,1/2+y,1/2-z
-x,1/2+y,1/2+z
x,1/2-y,1/2+z
1/2+x,y,1/2+z
1/2-x,-y,1/2+z
1/2+x,-y,1/2-z
1/2-x,y,1/2-z
1/2-x,-y,1/2-z
1/2+x,y,1/2-z
1/2-x,y,1/2+z
1/2+x,-y,1/2+z
1/2+x,1/2+y,z
1/2-x,1/2-y,z
1/2+x,1/2-y,-z
1/2-x,1/2+y,-z
1/2-x,1/2-y,-z
1/2+x,1/2+y,-z
1/2-x,1/2+y,z
1/2+x,1/2-y,z
loop_
_atom_site_type_symbol
_atom_site_label
_atom_site_fract_x
_atom_site_fract_y
_atom_site_fract_z
Si Si1 0.586986 0.186153 0.944336
Si Si2 0.331307 0.074447 0.404934
Si Si3 0.917024 0.309233 0.275600
Si Si4 0.336424 0.424472 0.617317
Si Si5 0.581680 0.809082 0.382340
Si Si6 0.831616 0.575048 0.230881
Si Si7 0.418069 0.922353 0.500000
O O1 0.500000 0.183493 0.942598
O O2 0.618408 0.127025 0.913266
O O3 0.607553 0.254575 0.919223
O O4 0.608588 0.183685 0.000000
O O5 0.245747 0.079333 0.401813
O O6 0.368112 0.128933 0.373974
O O7 0.369114 0.092155 0.454779
O O8 0.350430 0.000000 0.393119
O O9 0.878270 0.250000 0.250000
O O10 0.921405 0.283523 0.329231
O O11 0.878318 0.375384 0.261502
O O12 0.000000 0.316897 0.259327
O O13 0.359996 0.500000 0.611015
O O14 0.335836 0.410917 0.674065
O O15 0.500000 0.829092 0.396108
O O16 0.854675 0.500000 0.237162
O O17 0.750000 0.579526 0.250000
O O18 0.500000 0.895026 0.500000
O O19 0.426178 0.000000 0.500000
#
# Coordination Sequence:
#
# PCOD9513000 Si02
#       7
#    32  32  32  32  32  32  16
#     4  10  23  42  62  85 117 158 204 253 301 353
#     4  10  21  36  56  85 119 152 188 234 282 344
#     4  10  21  37  58  84 115 151 194 246 299 353
#     4  10  22  39  61  87 118 156 198 248 301 351
#     4  10  21  37  59  85 116 155 194 240 296 352
#     4  10  21  38  60  87 120 157 195 241 298 361
#     4   9  18  32  52  79 111 151 190 225 273 331
#
# _framework density 19.285014
#
# number of rings (size 3 to 8) (size 9 to 14) (size 15 to 20)
#    0.000    2.077    0.000    2.308    2.154    6.462 
#    0.000    7.692    0.000    0.000    0.000    0.000 
#    0.000    0.000    0.000    0.000    0.000    0.000 
#
# Total GULP energy -289638.834380 kJ/mol
# GULP energy per Si atom -5569.977584 kJ/mol
# Density = 1.924112 g / cm^3
# Si number density = 19.285014 Si / 1000 Ang^3
#
#
#
# Elastic Constant Matrix: (Units=GPa)
#
#
# Indices 1 2 3 4 5 6 
#
# 1 33.1675 37.6075 25.5350 0.0000 0.0000 0.0000
# 2 37.6075 111.6396 51.1882 0.0000 0.0000 0.0000
# 3 25.5350 51.1882 118.1964 0.0000 0.0000 0.0000
# 4 0.0000 0.0000 0.0000 33.6320 0.0000 0.0000
# 5 0.0000 0.0000 0.0000 0.0000 36.6514 0.0000
# 6 0.0000 0.0000 0.0000 0.0000 0.0000 41.7305
#
#
#
# Elastic Compliance Matrix: (Units=1/GPa)
#
#
# Indices 1 2 3 4 5 6 
#
# 1 0.050574 -0.015007 -0.004427 0.000000 0.000000 0.000000
# 2 -0.015007 0.015630 -0.003527 0.000000 0.000000 0.000000
# 3 -0.004427 -0.003527 0.010944 0.000000 0.000000 0.000000
# 4 0.000000 0.000000 0.000000 0.029734 0.000000 0.000000
# 5 0.000000 0.000000 0.000000 0.000000 0.027284 0.000000
# 6 0.000000 0.000000 0.000000 0.000000 0.000000 0.023963
#
#
# Mechanical properties :
#
#
# Convention : Reuss Voigt Hill
#
# Bulk Modulus (GPa) = 32.02363 54.62946 43.32655
# Shear Modulus (GPa) = 23.31449 32.31428 27.81439
#
# Velocity S-wave (km/s) = 3.48076 4.09787 3.80186
# Velocity P-wave (km/s) = 5.72676 7.12594 6.46431
#
# Compressibility (1/GPa) = 0.03122694
#
# Stress axis : x y z
#
# Youngs Moduli (GPa) = 19.77305 63.98039 91.37214
#
# Poissons Ratio (x) = 0.96014 0.40449
# Poissons Ratio (y) = 0.29673 0.32226
# Poissons Ratio (z) = 0.08753 0.22565
#
# Static dielectric constant tensor:
#      x y z
#    x 1.671010 0.000000 0.000000 
#    y 0.000000 1.703230 0.000000 
#    z 0.000000 0.000000 1.773950 
# 
# From -- ./inp_files/41990.got.cif
#   From: 2010.05.17/outbox.cif.g08.bks.cpg/sg69_21_cif.got.tgz:41990.got - 2010.06.03 19:29:58.
