data_PCOD9513231
_publ_section_title
;
Structure prediction by ZEFSAII (Michael W. Deem and Ramdas Pophale) SiO2 
 PCOD9513231
Probable space group: F M M M
;
_chemical_formula_sum "Si O2"
_cell_formula_units_Z 104
_cell_length_a 12.275373
_cell_length_b 29.604746
_cell_length_c 13.763457
_cell_angle_alpha 90.000000
_cell_angle_beta 90.000000
_cell_angle_gamma 90.000000
_cell_volume 5001.768270
_symmetry_space_group_name_H-M "F M M M"
_symmetry_group_IT_number 69
_symmetry_cell_setting 'orthorhombic'
loop_
_space_group_symop_operation_xyz
x,y,z
-x,-y,z
x,-y,-z
-x,y,-z
-x,-y,-z
x,y,-z
-x,y,z
x,-y,z
x,1/2+y,1/2+z
-x,1/2-y,1/2+z
x,1/2-y,1/2-z
-x,1/2+y,1/2-z
-x,1/2-y,1/2-z
x,1/2+y,1/2-z
-x,1/2+y,1/2+z
x,1/2-y,1/2+z
1/2+x,y,1/2+z
1/2-x,-y,1/2+z
1/2+x,-y,1/2-z
1/2-x,y,1/2-z
1/2-x,-y,1/2-z
1/2+x,y,1/2-z
1/2-x,y,1/2+z
1/2+x,-y,1/2+z
1/2+x,1/2+y,z
1/2-x,1/2-y,z
1/2+x,1/2-y,-z
1/2-x,1/2+y,-z
1/2-x,1/2-y,-z
1/2+x,1/2+y,-z
1/2-x,1/2+y,z
1/2+x,1/2-y,z
loop_
_atom_site_type_symbol
_atom_site_label
_atom_site_fract_x
_atom_site_fract_y
_atom_site_fract_z
Si Si1 0.876770 0.000000 0.118714
Si Si2 0.772108 0.915876 0.382713
Si Si3 0.750000 0.250000 0.750000
Si Si4 0.370205 0.821506 0.883568
Si Si5 0.500000 0.053058 0.890349
O O1 0.815527 0.953557 0.146760
O O2 0.000000 0.000000 0.155372
O O3 0.879519 0.000000 0.000000
O O4 0.769950 0.918721 0.500000
O O5 0.785210 0.862755 0.361893
O O6 0.888050 0.933047 0.344901
O O7 0.672784 0.219628 0.819000
O O8 0.500000 0.831918 0.863667
O O9 0.364097 0.812849 0.000000
O O10 0.500000 0.000000 0.900684
O O11 0.500000 0.073588 0.000000
#
# Coordination Sequence:
#
# PCOD9513231 Si02
#       5
#    16  32   8  32  16
#     4   9  16  25  41  76 125 163 188 226 288 357
#     4   9  15  26  48  78 112 149 196 243 282 340
#     4  12  24  40  60  90 124 152 192 260 332 374
#     4  10  21  39  63  89 118 157 205 253 303 363
#     4   9  12  18  40  77 108 136 183 244 285 319
#
# _framework density 20.792646000000001
#
# number of rings (size 3 to 8) (size 9 to 14) (size 15 to 20)
#    0.000    2.462    3.077    0.923    0.000    0.000 
#    0.000    3.077    0.000    8.308    0.000    0.000 
#    0.000    0.000    0.000    0.000    0.000    1.846 
#
# Total GULP energy -144781.325374 kJ/mol
# GULP energy per Si atom -5568.512514 kJ/mol
# Density = 2.074532 g / cm^3
# Si number density = 20.792646 Si / 1000 Ang^3
#
#
#
# Elastic Constant Matrix: (Units=GPa)
#
#
# Indices 1 2 3 4 5 6 
#
# 1 133.8107 84.5336 41.4276 0.0000 0.0000 0.0000
# 2 84.5336 161.4990 49.9277 0.0000 0.0000 0.0000
# 3 41.4276 49.9277 111.4918 0.0000 0.0000 0.0000
# 4 0.0000 0.0000 0.0000 -98.8248 0.0000 0.0000
# 5 0.0000 0.0000 0.0000 0.0000 11.2969 0.0000
# 6 0.0000 0.0000 0.0000 0.0000 0.0000 -43.8698
#
#
#
# Elastic Compliance Matrix: (Units=1/GPa)
#
#
# Indices 1 2 3 4 5 6 
#
# 1 0.011477 -0.005443 -0.001827 0.000000 0.000000 0.000000
# 2 -0.005443 0.009768 -0.002352 0.000000 0.000000 0.000000
# 3 -0.001827 -0.002352 0.010701 0.000000 0.000000 0.000000
# 4 0.000000 0.000000 0.000000 -0.010119 0.000000 0.000000
# 5 0.000000 0.000000 0.000000 0.000000 0.088520 0.000000
# 6 0.000000 0.000000 0.000000 0.000000 0.000000 -0.022795
#
#
# Mechanical properties :
#
#
# Convention : Reuss Voigt Hill
#
# Bulk Modulus (GPa) = 78.72203 84.28657 81.50430
# Shear Modulus (GPa) = 45.03249 -10.88537 17.07356
#
# Velocity S-wave (km/s) = 4.65885 -2.29054 2.86865
# Velocity P-wave (km/s) = 8.17818 5.79908 7.08914
#
# Compressibility (1/GPa) = 0.01270292
#
# Stress axis : x y z
#
# Youngs Moduli (GPa) = 87.12819 102.37583 93.44496
#
# Poissons Ratio (x) = 0.55720 0.17076
# Poissons Ratio (y) = 0.47421 0.21977
# Poissons Ratio (z) = 0.15922 0.24077
#
# Static dielectric constant tensor:
#      x y z
#    x 1.743640 0.000000 0.000000 
#    y 0.000000 1.791040 0.000000 
#    z 0.000000 0.000000 1.768200 
# 
# From -- ./inp_files/21548.got.cif
#   From: 2010.05.17/outbox.cif.g08.bks.cpg/sg69_11_cif.got.tgz:21548.got - 2010.06.03 19:29:58.
