data_PCOD9513706
_publ_section_title
;
Structure prediction by ZEFSAII (Michael W. Deem and Ramdas Pophale) SiO2 
 PCOD9513706
Probable space group: F M M M
;
_chemical_formula_sum "Si O2"
_cell_formula_units_Z 136
_cell_length_a 22.866518
_cell_length_b 14.106723
_cell_length_c 26.003105
_cell_angle_alpha 90.000000
_cell_angle_beta 90.000000
_cell_angle_gamma 90.000000
_cell_volume 8387.864105
_symmetry_space_group_name_H-M "F M M M"
_symmetry_group_IT_number 69
_symmetry_cell_setting 'orthorhombic'
loop_
_space_group_symop_operation_xyz
x,y,z
-x,-y,z
x,-y,-z
-x,y,-z
-x,-y,-z
x,y,-z
-x,y,z
x,-y,z
x,1/2+y,1/2+z
-x,1/2-y,1/2+z
x,1/2-y,1/2-z
-x,1/2+y,1/2-z
-x,1/2-y,1/2-z
x,1/2+y,1/2-z
-x,1/2+y,1/2+z
x,1/2-y,1/2+z
1/2+x,y,1/2+z
1/2-x,-y,1/2+z
1/2+x,-y,1/2-z
1/2-x,y,1/2-z
1/2-x,-y,1/2-z
1/2+x,y,1/2-z
1/2-x,y,1/2+z
1/2+x,-y,1/2+z
1/2+x,1/2+y,z
1/2-x,1/2-y,z
1/2+x,1/2-y,-z
1/2-x,1/2+y,-z
1/2-x,1/2-y,-z
1/2+x,1/2+y,-z
1/2-x,1/2+y,z
1/2+x,1/2-y,z
loop_
_atom_site_type_symbol
_atom_site_label
_atom_site_fract_x
_atom_site_fract_y
_atom_site_fract_z
Si Si1 0.316731 0.286317 0.192277
Si Si2 0.219199 0.500000 0.500000
Si Si3 0.123882 0.190920 0.597260
Si Si4 0.283703 0.000000 0.304116
Si Si5 0.801652 0.500000 0.900708
Si Si6 0.683068 0.789245 0.500000
Si Si7 0.000000 0.613869 0.062240
O O1 0.328765 0.250000 0.250000
O O2 0.250000 0.250000 0.179877
O O3 0.360592 0.243677 0.150325
O O4 0.317479 0.400502 0.191778
O O5 0.259825 0.500000 0.449866
O O6 0.184011 0.402585 0.500000
O O7 0.150621 0.251111 0.550385
O O8 0.057199 0.163729 0.585672
O O9 0.158867 0.092509 0.597882
O O10 0.250000 0.000000 0.250000
O O11 0.236865 0.000000 0.349714
O O12 0.750000 0.750000 0.500000
O O13 0.000000 0.500000 0.072697
O O14 0.000000 0.624141 0.000000
#
# Coordination Sequence:
#
# PCOD9513706 Si02
#       7
#    32   8  32  16  16  16  16
#     4  11  21  36  58  89 123 157 187 237 298 355
#     4  12  24  32  50  88 120 152 180 226 304 374
#     4  12  22  38  57  86 118 152 196 245 297 346
#     4  12  20  34  57  88 125 158 192 224 292 371
#     4  12  20  31  57  84 118 150 187 237 287 364
#     4  12  22  35  55  83 119 151 184 237 303 364
#     4  11  24  40  63  86 114 158 208 255 299 336
#
# _framework density 16.213901
#
# number of rings (size 3 to 8) (size 9 to 14) (size 15 to 20)
#    0.000    0.353    9.412    2.118    0.000    0.000 
#    0.000    0.588    0.000    3.529    0.000    0.000 
#    0.000    0.000    0.000    0.000    0.000    0.000 
#
# Total GULP energy -189976.983668 kJ/mol
# GULP energy per Si atom -5587.558343 kJ/mol
# Density = 1.617700 g / cm^3
# Si number density = 16.213901 Si / 1000 Ang^3
#
#
#
# Elastic Constant Matrix: (Units=GPa)
#
#
# Indices 1 2 3 4 5 6 
#
# 1 118.2497 69.1570 84.8603 0.0000 0.0000 0.0000
# 2 69.1570 186.3557 64.4588 0.0000 0.0000 0.0000
# 3 84.8603 64.4588 144.0863 0.0000 0.0000 0.0000
# 4 0.0000 0.0000 0.0000 30.7763 0.0000 0.0000
# 5 0.0000 0.0000 0.0000 0.0000 17.9792 0.0000
# 6 0.0000 0.0000 0.0000 0.0000 0.0000 265.5376
#
#
#
# Elastic Compliance Matrix: (Units=1/GPa)
#
#
# Indices 1 2 3 4 5 6 
#
# 1 0.016105 -0.003189 -0.008058 0.000000 0.000000 0.000000
# 2 -0.003189 0.006980 -0.001244 0.000000 0.000000 0.000000
# 3 -0.008058 -0.001244 0.012243 0.000000 0.000000 0.000000
# 4 0.000000 0.000000 0.000000 0.032492 0.000000 0.000000
# 5 0.000000 0.000000 0.000000 0.000000 0.055620 0.000000
# 6 0.000000 0.000000 0.000000 0.000000 0.000000 0.003766
#
#
# Mechanical properties :
#
#
# Convention : Reuss Voigt Hill
#
# Bulk Modulus (GPa) = 96.67314 98.40488 97.53901
# Shear Modulus (GPa) = 32.12599 78.20635 55.16617
#
# Velocity S-wave (km/s) = 4.45610 6.95261 5.83934
# Velocity P-wave (km/s) = 9.28595 11.19264 10.28358
#
# Compressibility (1/GPa) = 0.01034413
#
# Stress axis : x y z
#
# Youngs Moduli (GPa) = 62.09347 143.26649 81.68036
#
# Poissons Ratio (x) = 0.45691 0.65820
# Poissons Ratio (y) = 0.19803 0.10163
# Poissons Ratio (z) = 0.50036 0.17826
#
# Static dielectric constant tensor:
#      x y z
#    x 1.512420 0.000000 0.000000 
#    y 0.000000 1.551430 0.000000 
#    z 0.000000 0.000000 1.542620 
# 
# From -- ./inp_files/16659.got.cif
#   From: 2010.05.17/outbox.cif.g08.bks.cpg/sg69_9_cif.got.tgz:16659.got - 2010.06.03 19:29:58.
