data_PCOD9513725
_publ_section_title
;
Structure prediction by ZEFSAII (Michael W. Deem and Ramdas Pophale) SiO2 
 PCOD9513725
Probable space group: F M M M
;
_chemical_formula_sum "Si O2"
_cell_formula_units_Z 144
_cell_length_a 17.477828
_cell_length_b 15.070451
_cell_length_c 27.913579
_cell_angle_alpha 90.000000
_cell_angle_beta 90.000000
_cell_angle_gamma 90.000000
_cell_volume 7352.401829
_symmetry_space_group_name_H-M "F M M M"
_symmetry_group_IT_number 69
_symmetry_cell_setting 'orthorhombic'
loop_
_space_group_symop_operation_xyz
x,y,z
-x,-y,z
x,-y,-z
-x,y,-z
-x,-y,-z
x,y,-z
-x,y,z
x,-y,z
x,1/2+y,1/2+z
-x,1/2-y,1/2+z
x,1/2-y,1/2-z
-x,1/2+y,1/2-z
-x,1/2-y,1/2-z
x,1/2+y,1/2-z
-x,1/2+y,1/2+z
x,1/2-y,1/2+z
1/2+x,y,1/2+z
1/2-x,-y,1/2+z
1/2+x,-y,1/2-z
1/2-x,y,1/2-z
1/2-x,-y,1/2-z
1/2+x,y,1/2-z
1/2-x,y,1/2+z
1/2+x,-y,1/2+z
1/2+x,1/2+y,z
1/2-x,1/2-y,z
1/2+x,1/2-y,-z
1/2-x,1/2+y,-z
1/2-x,1/2-y,-z
1/2+x,1/2+y,-z
1/2-x,1/2+y,z
1/2+x,1/2-y,z
loop_
_atom_site_type_symbol
_atom_site_label
_atom_site_fract_x
_atom_site_fract_y
_atom_site_fract_z
Si Si1 0.909716 0.105747 0.877605
Si Si2 0.862771 0.399142 0.120645
Si Si3 0.275468 0.352822 0.945159
Si Si4 0.342357 0.747563 0.805180
Si Si5 0.500000 0.608061 0.553502
O O1 0.859886 0.133399 0.923970
O O2 0.875164 0.163246 0.833872
O O3 0.000000 0.124371 0.882973
O O4 0.900396 0.000000 0.869986
O O5 0.880542 0.500000 0.134366
O O6 0.782346 0.397143 0.092657
O O7 0.865914 0.334602 0.165466
O O8 0.925048 0.366276 0.082392
O O9 0.250000 0.250000 0.944637
O O10 0.268184 0.385000 0.000000
O O11 0.366977 0.750000 0.750000
O O12 0.250000 0.750000 0.806616
O O13 0.500000 0.500000 0.550959
O O14 0.500000 0.643371 0.500000
#
# Coordination Sequence:
#
# PCOD9513725 Si02
#       5
#    32  32  32  32  16
#     4  11  24  43  65  91 128 169 211 259 309 373
#     4  11  21  38  63  92 126 162 205 259 320 380
#     4  11  22  39  64  93 125 167 214 255 310 376
#     4  11  24  43  66  91 121 160 210 268 323 375
#     4   9  20  36  57  92 129 159 198 247 308 378
#
# _framework density 19.585436999999999
#
# number of rings (size 3 to 8) (size 9 to 14) (size 15 to 20)
#    0.000    1.222    4.444    1.333    1.556    4.444 
#    0.000    3.333    0.000    0.000    0.000    0.000 
#    0.000    0.000    0.000    0.000    0.000    0.000 
#
# Total GULP energy -201169.285728 kJ/mol
# GULP energy per Si atom -5588.035715 kJ/mol
# Density = 1.954086 g / cm^3
# Si number density = 19.585437 Si / 1000 Ang^3
#
#
#
# Elastic Constant Matrix: (Units=GPa)
#
#
# Indices 1 2 3 4 5 6 
#
# 1 116.2142 34.7051 50.7035 0.0000 0.0000 0.0000
# 2 34.7051 110.2575 64.9680 0.0000 0.0000 0.0000
# 3 50.7035 64.9680 171.9763 0.0000 0.0000 0.0000
# 4 0.0000 0.0000 0.0000 -16.4317 0.0000 0.0000
# 5 0.0000 0.0000 0.0000 0.0000 4.3351 0.0000
# 6 0.0000 0.0000 0.0000 0.0000 0.0000 26.3878
#
#
#
# Elastic Compliance Matrix: (Units=1/GPa)
#
#
# Indices 1 2 3 4 5 6 
#
# 1 0.010158 -0.001843 -0.002299 0.000000 0.000000 0.000000
# 2 -0.001843 0.012001 -0.003990 0.000000 0.000000 0.000000
# 3 -0.002299 -0.003990 0.008000 0.000000 0.000000 0.000000
# 4 0.000000 0.000000 0.000000 -0.060858 0.000000 0.000000
# 5 0.000000 0.000000 0.000000 0.000000 0.230676 0.000000
# 6 0.000000 0.000000 0.000000 0.000000 0.000000 0.037896
#
#
# Mechanical properties :
#
#
# Convention : Reuss Voigt Hill
#
# Bulk Modulus (GPa) = 71.96757 77.68901 74.82829
# Shear Modulus (GPa) = 19.32226 19.39632 19.35929
#
# Velocity S-wave (km/s) = 3.14437 3.15039 3.14738
# Velocity P-wave (km/s) = 7.07163 7.27915 7.17614
#
# Compressibility (1/GPa) = 0.01389515
#
# Stress axis : x y z
#
# Youngs Moduli (GPa) = 98.44409 83.32633 125.00149
#
# Poissons Ratio (x) = 0.15356 0.28734
# Poissons Ratio (y) = 0.18142 0.49880
# Poissons Ratio (z) = 0.22629 0.33250
#
# Static dielectric constant tensor:
#      x y z
#    x 1.703220 0.000000 0.000000 
#    y 0.000000 1.706890 0.000000 
#    z 0.000000 0.000000 1.658420 
# 
# From -- ./inp_files/15544.got.cif
#   From: 2010.05.17/outbox.cif.g08.bks.cpg/sg69_8_cif.got.tgz:15544.got - 2010.06.03 19:29:58.
