data_PCOD9513813
_publ_section_title
;
Structure prediction by ZEFSAII (Michael W. Deem and Ramdas Pophale) SiO2 
 PCOD9513813
Probable space group: F M M M
;
_chemical_formula_sum "Si O2"
_cell_formula_units_Z 152
_cell_length_a 17.754064
_cell_length_b 14.799473
_cell_length_c 27.924685
_cell_angle_alpha 90.000000
_cell_angle_beta 90.000000
_cell_angle_gamma 90.000000
_cell_volume 7337.233067
_symmetry_space_group_name_H-M "F M M M"
_symmetry_group_IT_number 69
_symmetry_cell_setting 'orthorhombic'
loop_
_space_group_symop_operation_xyz
x,y,z
-x,-y,z
x,-y,-z
-x,y,-z
-x,-y,-z
x,y,-z
-x,y,z
x,-y,z
x,1/2+y,1/2+z
-x,1/2-y,1/2+z
x,1/2-y,1/2-z
-x,1/2+y,1/2-z
-x,1/2-y,1/2-z
x,1/2+y,1/2-z
-x,1/2+y,1/2+z
x,1/2-y,1/2+z
1/2+x,y,1/2+z
1/2-x,-y,1/2+z
1/2+x,-y,1/2-z
1/2-x,y,1/2-z
1/2-x,-y,1/2-z
1/2+x,y,1/2-z
1/2-x,y,1/2+z
1/2+x,-y,1/2+z
1/2+x,1/2+y,z
1/2-x,1/2-y,z
1/2+x,1/2-y,-z
1/2-x,1/2+y,-z
1/2-x,1/2-y,-z
1/2+x,1/2+y,-z
1/2-x,1/2+y,z
1/2+x,1/2-y,z
loop_
_atom_site_type_symbol
_atom_site_label
_atom_site_fract_x
_atom_site_fract_y
_atom_site_fract_z
Si Si1 0.082843 0.361242 0.803443
Si Si2 0.110163 0.349568 0.307540
Si Si3 0.000000 0.000000 0.156255
Si Si4 0.760600 0.396436 0.147102
Si Si5 0.500000 0.896230 0.941697
Si Si6 0.834980 0.889037 0.554944
O O1 0.094999 0.380538 0.747056
O O2 0.082858 0.253174 0.810041
O O3 0.156289 0.395996 0.830198
O O4 0.000000 0.395142 0.818063
O O5 0.065215 0.419819 0.340103
O O6 0.198096 0.347797 0.321347
O O7 0.735609 0.500000 0.144228
O O8 0.773151 0.360522 0.093374
O O9 0.581342 0.855856 0.929306
O O10 0.500000 0.000000 0.924968
O O11 0.500000 0.899178 0.000000
O O12 0.820934 0.862859 0.500000
O O13 0.838096 0.000000 0.555798
#
# Coordination Sequence:
#
# PCOD9513813 Si02
#       6
#    32  32   8  32  16  32
#     4  11  23  39  56  80 117 154 184 230 291 339
#     4  11  22  41  58  81 110 153 194 234 282 329
#     4  12  20  38  70  78 107 148 209 240 260 336
#     4  11  23  32  55  89 116 148 190 233 281 340
#     4   7  10  20  40  61  95 141 173 200 257 328
#     4   8  15  29  47  75 112 148 184 230 283 336
#
# _framework density 20.716256000000001
#
# number of rings (size 3 to 8) (size 9 to 14) (size 15 to 20)
#    0.000    2.000    3.158    3.158    2.947    2.947 
#    0.000    0.000    0.000    2.526    0.000    1.474 
#    0.000    0.000    0.000    0.000    0.000    0.000 
#
# Total GULP energy -211557.828576 kJ/mol
# GULP energy per Si atom -5567.311278 kJ/mol
# Density = 2.066910 g / cm^3
# Si number density = 20.716256 Si / 1000 Ang^3
#
#
#
# Elastic Constant Matrix: (Units=GPa)
#
#
# Indices 1 2 3 4 5 6 
#
# 1 157.5728 13.6277 43.0687 0.0000 0.0000 0.0000
# 2 13.6277 54.2493 3.3247 0.0000 0.0000 0.0000
# 3 43.0687 3.3247 47.8772 0.0000 0.0000 0.0000
# 4 0.0000 0.0000 0.0000 17.0295 0.0000 0.0000
# 5 0.0000 0.0000 0.0000 0.0000 26.1992 0.0000
# 6 0.0000 0.0000 0.0000 0.0000 0.0000 26.2289
#
#
#
# Elastic Compliance Matrix: (Units=1/GPa)
#
#
# Indices 1 2 3 4 5 6 
#
# 1 0.008566 -0.001687 -0.007589 0.000000 0.000000 0.000000
# 2 -0.001687 0.018844 0.000209 0.000000 0.000000 0.000000
# 3 -0.007589 0.000209 0.027699 0.000000 0.000000 0.000000
# 4 0.000000 0.000000 0.000000 0.058722 0.000000 0.000000
# 5 0.000000 0.000000 0.000000 0.000000 0.038169 0.000000
# 6 0.000000 0.000000 0.000000 0.000000 0.000000 0.038126
#
#
# Mechanical properties :
#
#
# Convention : Reuss Voigt Hill
#
# Bulk Modulus (GPa) = 27.04465 42.19352 34.61908
# Shear Modulus (GPa) = 22.66692 27.20338 24.93515
#
# Velocity S-wave (km/s) = 3.31140 3.62766 3.47313
# Velocity P-wave (km/s) = 5.26342 6.16102 5.72982
#
# Compressibility (1/GPa) = 0.03697589
#
# Stress axis : x y z
#
# Youngs Moduli (GPa) = 116.73503 53.06622 36.10242
#
# Poissons Ratio (x) = 0.08951 0.27398
# Poissons Ratio (y) = 0.19691 -0.00754
# Poissons Ratio (z) = 0.88589 -0.01108
#
# Static dielectric constant tensor:
#      x y z
#    x 1.769730 0.000000 0.000000 
#    y 0.000000 1.755430 0.000000 
#    z 0.000000 0.000000 1.771820 
# 
# From -- ./inp_files/46320.got.cif
#   From: 2010.05.17/outbox.cif.g08.bks.cpg/sg69_24_cif.got.tgz:46320.got - 2010.06.03 19:29:58.
