data_PCOD9513268
_publ_section_title
;
Structure prediction by ZEFSAII (Michael W. Deem and Ramdas Pophale) SiO2 
 PCOD9513268
Probable space group: F M M M
;
_chemical_formula_sum "Si O2"
_cell_formula_units_Z 200
_cell_length_a 31.826398
_cell_length_b 16.688190
_cell_length_c 18.940854
_cell_angle_alpha 90.000000
_cell_angle_beta 90.000000
_cell_angle_gamma 90.000000
_cell_volume 10059.960642
_symmetry_space_group_name_H-M "F M M M"
_symmetry_group_IT_number 69
_symmetry_cell_setting 'orthorhombic'
loop_
_space_group_symop_operation_xyz
x,y,z
-x,-y,z
x,-y,-z
-x,y,-z
-x,-y,-z
x,y,-z
-x,y,z
x,-y,z
x,1/2+y,1/2+z
-x,1/2-y,1/2+z
x,1/2-y,1/2-z
-x,1/2+y,1/2-z
-x,1/2-y,1/2-z
x,1/2+y,1/2-z
-x,1/2+y,1/2+z
x,1/2-y,1/2+z
1/2+x,y,1/2+z
1/2-x,-y,1/2+z
1/2+x,-y,1/2-z
1/2-x,y,1/2-z
1/2-x,-y,1/2-z
1/2+x,y,1/2-z
1/2-x,y,1/2+z
1/2+x,-y,1/2+z
1/2+x,1/2+y,z
1/2-x,1/2-y,z
1/2+x,1/2-y,-z
1/2-x,1/2+y,-z
1/2-x,1/2-y,-z
1/2+x,1/2+y,-z
1/2-x,1/2+y,z
1/2+x,1/2-y,z
loop_
_atom_site_type_symbol
_atom_site_label
_atom_site_fract_x
_atom_site_fract_y
_atom_site_fract_z
Si Si1 0.648375 0.830359 0.415592
Si Si2 0.790527 0.407231 0.207366
Si Si3 0.126334 0.190451 0.312974
Si Si4 0.453456 0.595867 0.285388
Si Si5 0.742680 0.344675 0.916743
Si Si6 0.562297 0.906293 0.619660
Si Si7 0.000000 0.650555 0.500000
O O1 0.647983 0.821929 0.500000
O O2 0.640030 0.745035 0.378617
O O3 0.694551 0.861759 0.395422
O O4 0.611328 0.888612 0.391312
O O5 0.796287 0.500000 0.226415
O O6 0.750000 0.374372 0.250000
O O7 0.833815 0.360080 0.214308
O O8 0.775258 0.396530 0.127039
O O9 0.114560 0.250000 0.250000
O O10 0.085319 0.136768 0.324923
O O11 0.500000 0.623347 0.307854
O O12 0.451112 0.500000 0.294172
O O13 0.448993 0.610864 0.200999
O O14 0.750000 0.250000 0.902741
O O15 0.747254 0.357439 0.000000
O O16 0.536363 0.856254 0.562535
O O17 0.552735 0.000000 0.605719
#
# Coordination Sequence:
#
# PCOD9513268 Si02
#       7
#    32  32  32  32  32  32   8
#     4  11  23  38  58  89 122 157 196 244 299 358
#     4  11  25  40  60  91 121 156 203 249 295 357
#     4  12  23  39  61  88 119 161 200 244 303 359
#     4  10  22  40  60  84 117 157 201 249 299 354
#     4  10  21  40  63  84 118 160 199 243 300 356
#     4  11  21  35  57  86 121 159 195 235 291 361
#     4  12  21  36  60  86 126 170 197 232 301 366
#
# _framework density 19.880794000000002
#
# number of rings (size 3 to 8) (size 9 to 14) (size 15 to 20)
#    0.000    1.120    4.800    2.160    0.000    1.280 
#    1.440    1.600    0.000    1.440    0.000    1.120 
#    0.000    0.000    0.000    0.000    0.000    0.000 
#
# Total GULP energy -278911.117361 kJ/mol
# GULP energy per Si atom -5578.222347 kJ/mol
# Density = 1.983554 g / cm^3
# Si number density = 19.880794 Si / 1000 Ang^3
#
#
#
# Elastic Constant Matrix: (Units=GPa)
#
#
# Indices 1 2 3 4 5 6 
#
# 1 110.6459 22.1252 -11.0775 0.0000 0.0000 0.0000
# 2 22.1252 31.5577 1.3947 0.0000 0.0000 0.0000
# 3 -11.0775 1.3947 17.5819 0.0000 0.0000 0.0000
# 4 0.0000 0.0000 0.0000 14.8227 0.0000 0.0000
# 5 0.0000 0.0000 0.0000 0.0000 21.6378 0.0000
# 6 0.0000 0.0000 0.0000 0.0000 0.0000 7.9165
#
#
#
# Elastic Compliance Matrix: (Units=1/GPa)
#
#
# Indices 1 2 3 4 5 6 
#
# 1 0.011516 -0.008424 0.007924 0.000000 0.000000 0.000000
# 2 -0.008424 0.037962 -0.008319 0.000000 0.000000 0.000000
# 3 0.007924 -0.008319 0.062529 0.000000 0.000000 0.000000
# 4 0.000000 0.000000 0.000000 0.067464 0.000000 0.000000
# 5 0.000000 0.000000 0.000000 0.000000 0.046215 0.000000
# 6 0.000000 0.000000 0.000000 0.000000 0.000000 0.126319
#
#
# Mechanical properties :
#
#
# Convention : Reuss Voigt Hill
#
# Bulk Modulus (GPa) = 10.59681 20.51893 15.55787
# Shear Modulus (GPa) = 12.46577 18.69827 15.58202
#
# Velocity S-wave (km/s) = 2.50676 3.07012 2.80263
# Velocity P-wave (km/s) = 3.70408 4.78653 4.27967
#
# Compressibility (1/GPa) = 0.09436805
#
# Stress axis : x y z
#
# Youngs Moduli (GPa) = 86.83894 26.34240 15.99264
#
# Poissons Ratio (x) = 0.22190 -0.12672
# Poissons Ratio (y) = 0.73151 0.13304
# Poissons Ratio (z) = -0.68808 0.21914
#
# Static dielectric constant tensor:
#      x y z
#    x 1.725910 0.000000 0.000000 
#    y 0.000000 1.715550 0.000000 
#    z 0.000000 0.000000 1.699400 
# 
# From -- ./inp_files/34002.got.cif
#   From: 2010.05.17/outbox.cif.g08.bks.cpg/sg69_18_cif.got.tgz:34002.got - 2010.06.03 19:29:58.
