data_PCOD9513422
_publ_section_title
;
Structure prediction by ZEFSAII (Michael W. Deem and Ramdas Pophale) SiO2 
 PCOD9513422
Probable space group: F M M M
;
_chemical_formula_sum "Si O2"
_cell_formula_units_Z 120
_cell_length_a 11.571563
_cell_length_b 21.176955
_cell_length_c 26.440022
_cell_angle_alpha 90.000000
_cell_angle_beta 90.000000
_cell_angle_gamma 90.000000
_cell_volume 6479.139790
_symmetry_space_group_name_H-M "F M M M"
_symmetry_group_IT_number 69
_symmetry_cell_setting 'orthorhombic'
loop_
_space_group_symop_operation_xyz
x,y,z
-x,-y,z
x,-y,-z
-x,y,-z
-x,-y,-z
x,y,-z
-x,y,z
x,-y,z
x,1/2+y,1/2+z
-x,1/2-y,1/2+z
x,1/2-y,1/2-z
-x,1/2+y,1/2-z
-x,1/2-y,1/2-z
x,1/2+y,1/2-z
-x,1/2+y,1/2+z
x,1/2-y,1/2+z
1/2+x,y,1/2+z
1/2-x,-y,1/2+z
1/2+x,-y,1/2-z
1/2-x,y,1/2-z
1/2-x,-y,1/2-z
1/2+x,y,1/2-z
1/2-x,y,1/2+z
1/2+x,-y,1/2+z
1/2+x,1/2+y,z
1/2-x,1/2-y,z
1/2+x,1/2-y,-z
1/2-x,1/2+y,-z
1/2-x,1/2-y,-z
1/2+x,1/2+y,-z
1/2-x,1/2+y,z
1/2+x,1/2-y,z
loop_
_atom_site_type_symbol
_atom_site_label
_atom_site_fract_x
_atom_site_fract_y
_atom_site_fract_z
Si Si1 0.242595 0.391419 0.895904
Si Si2 0.000000 0.261836 0.809351
Si Si3 0.250000 0.250000 0.856623
Si Si4 0.500000 0.500000 0.263466
Si Si5 0.000000 0.402704 0.146362
Si Si6 0.870480 0.500000 0.336307
Si Si7 0.367025 0.924321 0.500000
O O1 0.240150 0.316274 0.886138
O O2 0.111704 0.413841 0.887785
O O3 0.310472 0.436066 0.855694
O O4 0.300034 0.403360 0.949844
O O5 0.000000 0.250000 0.750000
O O6 0.872404 0.238863 0.827514
O O7 0.000000 0.332387 0.831319
O O8 0.500000 0.557129 0.302345
O O9 0.392884 0.500000 0.224072
O O10 0.000000 0.500000 0.359121
O O11 0.500000 0.901092 0.500000
O O12 0.370152 0.000000 0.500000
#
# Coordination Sequence:
#
# PCOD9513422 Si02
#       7
#    32  16  16   8  16  16  16
#     4  11  23  44  65  97 133 169 219 275 325 394
#     4  10  22  40  59  93 125 184 220 262 319 387
#     4  10  25  39  68  90 138 172 218 274 328 386
#     4  10  24  38  62  98 124 182 218 260 338 378
#     4  10  24  41  59  96 133 169 218 263 329 392
#     4  10  23  38  65  94 132 173 216 278 311 379
#     4  11  24  42  71 101 123 167 216 269 341 387
#
# _framework density 18.520977999999999
#
# number of rings (size 3 to 8) (size 9 to 14) (size 15 to 20)
#    0.400    1.200    1.333    2.000    7.467    3.200 
#    0.000    0.667    0.000    0.000    0.000    0.000 
#    0.000    0.000    0.000    0.000    0.000    0.000 
#
# Total GULP energy -167010.944806 kJ/mol
# GULP energy per Si atom -5567.031494 kJ/mol
# Density = 1.847882 g / cm^3
# Si number density = 18.520978 Si / 1000 Ang^3
#
#
#
# Elastic Constant Matrix: (Units=GPa)
#
#
# Indices 1 2 3 4 5 6 
#
# 1 189.9690 43.2470 88.6375 0.0000 0.0000 0.0000
# 2 43.2470 81.3019 36.7660 0.0000 0.0000 0.0000
# 3 88.6375 36.7660 148.6498 0.0000 0.0000 0.0000
# 4 0.0000 0.0000 0.0000 4299.7165 0.0000 0.0000
# 5 0.0000 0.0000 0.0000 0.0000 52.7975 0.0000
# 6 0.0000 0.0000 0.0000 0.0000 0.0000 29.1094
#
#
#
# Elastic Compliance Matrix: (Units=1/GPa)
#
#
# Indices 1 2 3 4 5 6 
#
# 1 0.007644 -0.002257 -0.004000 0.000000 0.000000 0.000000
# 2 -0.002257 0.014515 -0.002244 0.000000 0.000000 0.000000
# 3 -0.004000 -0.002244 0.009667 0.000000 0.000000 0.000000
# 4 0.000000 0.000000 0.000000 0.000233 0.000000 0.000000
# 5 0.000000 0.000000 0.000000 0.000000 0.018940 0.000000
# 6 0.000000 0.000000 0.000000 0.000000 0.000000 0.034353
#
#
# Mechanical properties :
#
#
# Convention : Reuss Voigt Hill
#
# Bulk Modulus (GPa) = 67.45667 84.13574 75.79620
# Shear Modulus (GPa) = 46.59969 893.07602 469.83786
#
# Velocity S-wave (km/s) = 5.02147 21.98281 15.94457
# Velocity P-wave (km/s) = 8.37383 26.26501 19.49323
#
# Compressibility (1/GPa) = 0.01482433
#
# Stress axis : x y z
#
# Youngs Moduli (GPa) = 130.81862 68.89218 103.44201
#
# Poissons Ratio (x) = 0.15552 0.41374
# Poissons Ratio (y) = 0.29531 0.23213
# Poissons Ratio (z) = 0.52324 0.15460
#
# Static dielectric constant tensor:
#      x y z
#    x 1.708410 0.000000 0.000000 
#    y 0.000000 -0.183520 0.000000 
#    z 0.000000 0.000000 1.593120 
# 
# From -- ./inp_files/34930.got.cif
#   From: 2010.05.17/outbox.cif.g08.bks.cpg/sg69_18_cif.got.tgz:34930.got - 2010.06.03 19:29:58.
