data_PCOD9513605
_publ_section_title
;
Structure prediction by ZEFSAII (Michael W. Deem and Ramdas Pophale) SiO2 
 PCOD9513605
Probable space group: F M M M
;
_chemical_formula_sum "Si O2"
_cell_formula_units_Z 176
_cell_length_a 14.385417
_cell_length_b 25.360613
_cell_length_c 29.550516
_cell_angle_alpha 90.000000
_cell_angle_beta 90.000000
_cell_angle_gamma 90.000000
_cell_volume 10780.707703
_symmetry_space_group_name_H-M "F M M M"
_symmetry_group_IT_number 69
_symmetry_cell_setting 'orthorhombic'
loop_
_space_group_symop_operation_xyz
x,y,z
-x,-y,z
x,-y,-z
-x,y,-z
-x,-y,-z
x,y,-z
-x,y,z
x,-y,z
x,1/2+y,1/2+z
-x,1/2-y,1/2+z
x,1/2-y,1/2-z
-x,1/2+y,1/2-z
-x,1/2-y,1/2-z
x,1/2+y,1/2-z
-x,1/2+y,1/2+z
x,1/2-y,1/2+z
1/2+x,y,1/2+z
1/2-x,-y,1/2+z
1/2+x,-y,1/2-z
1/2-x,y,1/2-z
1/2-x,-y,1/2-z
1/2+x,y,1/2-z
1/2-x,y,1/2+z
1/2+x,-y,1/2+z
1/2+x,1/2+y,z
1/2-x,1/2-y,z
1/2+x,1/2-y,-z
1/2-x,1/2+y,-z
1/2-x,1/2-y,-z
1/2+x,1/2+y,-z
1/2-x,1/2+y,z
1/2+x,1/2-y,z
loop_
_atom_site_type_symbol
_atom_site_label
_atom_site_fract_x
_atom_site_fract_y
_atom_site_fract_z
Si Si1 0.600960 0.346178 0.554865
Si Si2 0.643886 0.730417 0.948813
Si Si3 0.803594 0.121315 0.914471
Si Si4 0.104625 0.563828 0.228843
Si Si5 0.390610 0.937110 0.500000
Si Si6 0.208897 0.063654 0.821295
O O1 0.612940 0.348127 0.500000
O O2 0.500000 0.370432 0.565817
O O3 0.596565 0.284073 0.566974
O O4 0.692958 0.370255 0.576953
O O5 0.750000 0.750000 0.952419
O O6 0.646196 0.678274 0.918751
O O7 0.612655 0.716619 0.000000
O O8 0.842885 0.086997 0.955693
O O9 0.818097 0.092925 0.866965
O O10 0.102141 0.500000 0.226996
O O11 0.141269 0.576731 0.279244
O O12 0.186541 0.579369 0.194364
O O13 0.000000 0.583330 0.220222
O O14 0.500000 0.924227 0.500000
O O15 0.380544 0.000000 0.500000
O O16 0.206898 0.000000 0.827297
#
# Coordination Sequence:
#
# PCOD9513605 Si02
#       6
#    32  32  32  32  16  32
#     4   9  17  30  50  72  94 123 161 207 252 284
#     4   8  14  27  45  66  91 122 159 200 235 269
#     4  11  18  32  49  70 100 131 163 198 234 285
#     4   8  15  31  50  67  90 117 153 205 252 284
#     4  11  24  36  44  61  97 143 176 192 218 269
#     4   9  18  29  47  73  95 124 160 194 238 285
#
# _framework density 16.325458999999999
#
# number of rings (size 3 to 8) (size 9 to 14) (size 15 to 20)
#    0.000    2.818    1.818    2.727    0.000    2.182 
#    0.000    1.818    0.000    2.182    0.000   22.909 
#    0.000   18.909    0.000    0.000    0.000    0.000 
#
# Total GULP energy -244935.862684 kJ/mol
# GULP energy per Si atom -5566.724152 kJ/mol
# Density = 1.628830 g / cm^3
# Si number density = 16.325459 Si / 1000 Ang^3
#
#
#
# Elastic Constant Matrix: (Units=GPa)
#
#
# Indices 1 2 3 4 5 6 
#
# 1 69.0940 10.9656 3.1941 0.0000 0.0000 0.0000
# 2 10.9656 47.5063 30.9828 0.0000 0.0000 0.0000
# 3 3.1941 30.9828 84.0487 0.0000 0.0000 0.0000
# 4 0.0000 0.0000 0.0000 9.1916 0.0000 0.0000
# 5 0.0000 0.0000 0.0000 0.0000 0.2305 0.0000
# 6 0.0000 0.0000 0.0000 0.0000 0.0000 11.9281
#
#
#
# Elastic Compliance Matrix: (Units=1/GPa)
#
#
# Indices 1 2 3 4 5 6 
#
# 1 0.015079 -0.004090 0.000935 0.000000 0.000000 0.000000
# 2 -0.004090 0.028822 -0.010469 0.000000 0.000000 0.000000
# 3 0.000935 -0.010469 0.015722 0.000000 0.000000 0.000000
# 4 0.000000 0.000000 0.000000 0.108795 0.000000 0.000000
# 5 0.000000 0.000000 0.000000 0.000000 4.339147 0.000000
# 6 0.000000 0.000000 0.000000 0.000000 0.000000 0.083835
#
#
# Mechanical properties :
#
#
# Convention : Reuss Voigt Hill
#
# Bulk Modulus (GPa) = 30.88985 32.32601 31.60793
# Shear Modulus (GPa) = 1.08004 14.63714 7.85859
#
# Velocity S-wave (km/s) = 0.81425 2.99755 2.19640
# Velocity P-wave (km/s) = 4.45493 5.64131 5.08285
#
# Compressibility (1/GPa) = 0.03237310
#
# Stress axis : x y z
#
# Youngs Moduli (GPa) = 66.31757 34.69609 63.60700
#
# Poissons Ratio (x) = 0.14191 -0.05945
# Poissons Ratio (y) = 0.27125 0.66591
# Poissons Ratio (z) = -0.06199 0.36324
#
# Static dielectric constant tensor:
#      x y z
#    x 1.629880 0.000000 0.000000 
#    y 0.000000 1.539710 0.000000 
#    z 0.000000 0.000000 1.521040 
# 
# From -- ./inp_files/19019.got.cif
#   From: 2010.05.17/outbox.cif.g08.bks.cpg/sg69_10_cif.got.tgz:19019.got - 2010.06.03 19:29:58.
