data_PCOD9513892
_publ_section_title
;
Structure prediction by ZEFSAII (Michael W. Deem and Ramdas Pophale) SiO2 
 PCOD9513892
Probable space group: F M M M
;
_chemical_formula_sum "Si O2"
_cell_formula_units_Z 160
_cell_length_a 17.877478
_cell_length_b 22.574666
_cell_length_c 17.081544
_cell_angle_alpha 90.000000
_cell_angle_beta 90.000000
_cell_angle_gamma 90.000000
_cell_volume 6893.736983
_symmetry_space_group_name_H-M "F M M M"
_symmetry_group_IT_number 69
_symmetry_cell_setting 'orthorhombic'
loop_
_space_group_symop_operation_xyz
x,y,z
-x,-y,z
x,-y,-z
-x,y,-z
-x,-y,-z
x,y,-z
-x,y,z
x,-y,z
x,1/2+y,1/2+z
-x,1/2-y,1/2+z
x,1/2-y,1/2-z
-x,1/2+y,1/2-z
-x,1/2-y,1/2-z
x,1/2+y,1/2-z
-x,1/2+y,1/2+z
x,1/2-y,1/2+z
1/2+x,y,1/2+z
1/2-x,-y,1/2+z
1/2+x,-y,1/2-z
1/2-x,y,1/2-z
1/2-x,-y,1/2-z
1/2+x,y,1/2-z
1/2-x,y,1/2+z
1/2+x,-y,1/2+z
1/2+x,1/2+y,z
1/2-x,1/2-y,z
1/2+x,1/2-y,-z
1/2-x,1/2+y,-z
1/2-x,1/2-y,-z
1/2+x,1/2+y,-z
1/2-x,1/2+y,z
1/2+x,1/2-y,z
loop_
_atom_site_type_symbol
_atom_site_label
_atom_site_fract_x
_atom_site_fract_y
_atom_site_fract_z
Si Si1 0.348180 0.874656 0.406102
Si Si2 0.410325 0.065313 0.000000
Si Si3 0.912708 0.928890 0.677231
Si Si4 0.702047 0.837197 0.177181
Si Si5 0.415025 0.000000 0.595031
Si Si6 0.082624 0.744562 0.655837
O O1 0.354462 0.872285 0.500000
O O2 0.263005 0.864330 0.380728
O O3 0.375765 0.939532 0.380303
O O4 0.398028 0.821293 0.371823
O O5 0.396375 0.089193 0.086111
O O6 0.500000 0.058925 0.000000
O O7 0.374539 0.000000 0.000000
O O8 0.852149 0.886801 0.716241
O O9 0.000000 0.915980 0.694922
O O10 0.902715 0.000000 0.685363
O O11 0.750000 0.812728 0.250000
O O12 0.650723 0.788114 0.135705
O O13 0.500000 0.000000 0.624267
O O14 0.416604 0.000000 0.500000
O O15 0.079799 0.750000 0.750000
O O16 0.000000 0.762260 0.625999
#
# Coordination Sequence:
#
# PCOD9513892 Si02
#       6
#    32  16  32  32  16  32
#     4  11  25  45  74 109 141 178 230 292 350 410
#     4   7  12  28  54  82 113 160 216 273 330 385
#     4   9  19  37  60  88 128 178 232 283 335 406
#     4  12  25  41  64  96 143 183 225 284 351 415
#     4   9  20  44  73 104 143 183 227 286 349 407
#     4  11  24  46  73  96 130 187 238 281 343 420
#
# _framework density 23.209472999999999
#
# number of rings (size 3 to 8) (size 9 to 14) (size 15 to 20)
#    0.000    1.800    2.000    3.000    2.800    3.200 
#    0.000    0.000    0.000    0.000    0.000    0.000 
#    0.000    0.000    0.000    0.000    0.000    0.000 
#
# Total GULP energy -223544.361975 kJ/mol
# GULP energy per Si atom -5588.609049 kJ/mol
# Density = 2.315665 g / cm^3
# Si number density = 23.209473 Si / 1000 Ang^3
#
#
#
# Elastic Constant Matrix: (Units=GPa)
#
#
# Indices 1 2 3 4 5 6 
#
# 1 172.7100 99.6742 23.1502 0.0000 0.0000 0.0000
# 2 99.6742 186.1058 41.5426 0.0000 0.0000 0.0000
# 3 23.1502 41.5426 60.7744 0.0000 0.0000 0.0000
# 4 0.0000 0.0000 0.0000 24.3351 0.0000 0.0000
# 5 0.0000 0.0000 0.0000 0.0000 17.1137 0.0000
# 6 0.0000 0.0000 0.0000 0.0000 0.0000 39.7325
#
#
#
# Elastic Compliance Matrix: (Units=1/GPa)
#
#
# Indices 1 2 3 4 5 6 
#
# 1 0.008381 -0.004456 -0.000147 0.000000 0.000000 0.000000
# 2 -0.004456 0.008710 -0.004256 0.000000 0.000000 0.000000
# 3 -0.000147 -0.004256 0.019420 0.000000 0.000000 0.000000
# 4 0.000000 0.000000 0.000000 0.041093 0.000000 0.000000
# 5 0.000000 0.000000 0.000000 0.000000 0.058433 0.000000
# 6 0.000000 0.000000 0.000000 0.000000 0.000000 0.025168
#
#
# Mechanical properties :
#
#
# Convention : Reuss Voigt Hill
#
# Bulk Modulus (GPa) = 53.21186 83.14712 68.17949
# Shear Modulus (GPa) = 26.99962 33.25112 30.12537
#
# Velocity S-wave (km/s) = 3.41442 3.78915 3.60665
# Velocity P-wave (km/s) = 6.20652 7.41929 6.83984
#
# Compressibility (1/GPa) = 0.01879280
#
# Stress axis : x y z
#
# Youngs Moduli (GPa) = 119.31087 114.81019 51.49442
#
# Poissons Ratio (x) = 0.51162 0.00755
# Poissons Ratio (y) = 0.53167 0.21918
# Poissons Ratio (z) = 0.01749 0.48867
#
# Static dielectric constant tensor:
#      x y z
#    x 1.874450 0.000000 0.000000 
#    y 0.000000 1.881080 0.000000 
#    z 0.000000 0.000000 2.046590 
# 
# From -- ./inp_files/30823.got.cif
#   From: 2010.05.17/outbox.cif.g08.bks.cpg/sg69_16_cif.got.tgz:30823.got - 2010.06.03 19:29:58.
