data_PCOD9513294
_publ_section_title
;
Structure prediction by ZEFSAII (Michael W. Deem and Ramdas Pophale) SiO2 
 PCOD9513294
Probable space group: F M M M
;
_chemical_formula_sum "Si O2"
_cell_formula_units_Z 168
_cell_length_a 20.369707
_cell_length_b 13.769538
_cell_length_c 29.551638
_cell_angle_alpha 90.000000
_cell_angle_beta 90.000000
_cell_angle_gamma 90.000000
_cell_volume 8288.686412
_symmetry_space_group_name_H-M "F M M M"
_symmetry_group_IT_number 69
_symmetry_cell_setting 'orthorhombic'
loop_
_space_group_symop_operation_xyz
x,y,z
-x,-y,z
x,-y,-z
-x,y,-z
-x,-y,-z
x,y,-z
-x,y,z
x,-y,z
x,1/2+y,1/2+z
-x,1/2-y,1/2+z
x,1/2-y,1/2-z
-x,1/2+y,1/2-z
-x,1/2-y,1/2-z
x,1/2+y,1/2-z
-x,1/2+y,1/2+z
x,1/2-y,1/2+z
1/2+x,y,1/2+z
1/2-x,-y,1/2+z
1/2+x,-y,1/2-z
1/2-x,y,1/2-z
1/2-x,-y,1/2-z
1/2+x,y,1/2-z
1/2-x,y,1/2+z
1/2+x,-y,1/2+z
1/2+x,1/2+y,z
1/2-x,1/2-y,z
1/2+x,1/2-y,-z
1/2-x,1/2+y,-z
1/2-x,1/2-y,-z
1/2+x,1/2+y,-z
1/2-x,1/2+y,z
1/2+x,1/2-y,z
loop_
_atom_site_type_symbol
_atom_site_label
_atom_site_fract_x
_atom_site_fract_y
_atom_site_fract_z
Si Si1 0.125151 0.382395 0.769997
Si Si2 0.171574 0.768567 0.449982
Si Si3 0.576380 0.883347 0.592340
Si Si4 0.804078 0.116453 0.636796
Si Si5 0.000000 0.750000 0.250000
Si Si6 0.835027 0.616851 0.672260
O O1 0.118142 0.500000 0.769715
O O2 0.159628 0.355694 0.816943
O O3 0.165336 0.355079 0.724528
O O4 0.057086 0.328400 0.764607
O O5 0.153876 0.806370 0.500000
O O6 0.250000 0.750000 0.451023
O O7 0.126638 0.674500 0.439606
O O8 0.162958 0.839645 0.407554
O O9 0.500000 0.858084 0.585481
O O10 0.599718 0.858617 0.643760
O O11 0.583056 0.000000 0.586476
O O12 0.728278 0.147812 0.643733
O O13 0.804593 0.000000 0.633220
O O14 0.832306 0.500000 0.672834
#
# Coordination Sequence:
#
# PCOD9513294 Si02
#       6
#    32  32  32  32   8  32
#     4  10  23  39  59  89 125 166 210 253 308 377
#     4  11  24  40  63  93 125 165 217 273 325 382
#     4  10  22  40  66  97 131 170 209 260 327 394
#     4  10  21  41  64  89 124 165 210 262 314 376
#     4  12  26  36  58  90 126 174 210 256 308 372
#     4   9  18  36  62  91 124 161 203 250 307 376
#
# _framework density 20.268591000000001
#
# number of rings (size 3 to 8) (size 9 to 14) (size 15 to 20)
#    0.000    1.905    1.905    0.857    4.000    3.429 
#    0.000    3.810    0.000    0.000    0.000    1.333 
#    0.000    0.000    0.000    0.000    0.000    0.000 
#
# Total GULP energy -234011.432086 kJ/mol
# GULP energy per Si atom -5571.700764 kJ/mol
# Density = 2.022246 g / cm^3
# Si number density = 20.268591 Si / 1000 Ang^3
#
#
#
# Elastic Constant Matrix: (Units=GPa)
#
#
# Indices 1 2 3 4 5 6 
#
# 1 114.2574 42.9874 52.2228 0.0000 0.0000 0.0000
# 2 42.9874 66.5988 41.4499 0.0000 0.0000 0.0000
# 3 52.2228 41.4499 159.2641 0.0000 0.0000 0.0000
# 4 0.0000 0.0000 0.0000 24.6243 0.0000 0.0000
# 5 0.0000 0.0000 0.0000 0.0000 -5.0933 0.0000
# 6 0.0000 0.0000 0.0000 0.0000 0.0000 32.2213
#
#
#
# Elastic Compliance Matrix: (Units=1/GPa)
#
#
# Indices 1 2 3 4 5 6 
#
# 1 0.012247 -0.006451 -0.002337 0.000000 0.000000 0.000000
# 2 -0.006451 0.021315 -0.003432 0.000000 0.000000 0.000000
# 3 -0.002337 -0.003432 0.007938 0.000000 0.000000 0.000000
# 4 0.000000 0.000000 0.000000 0.040610 0.000000 0.000000
# 5 0.000000 0.000000 0.000000 0.000000 -0.196338 0.000000
# 6 0.000000 0.000000 0.000000 0.000000 0.000000 0.031035
#
#
# Mechanical properties :
#
#
# Convention : Reuss Voigt Hill
#
# Bulk Modulus (GPa) = 58.61347 68.16005 63.38676
# Shear Modulus (GPa) = -94.22597 23.91447 -35.15575
#
# Velocity S-wave (km/s) = -6.82566 3.43866 -4.16924
# Velocity P-wave (km/s) = 5.75659 7.03330 2.85736
#
# Compressibility (1/GPa) = 0.01706093
#
# Stress axis : x y z
#
# Youngs Moduli (GPa) = 81.65052 46.91484 125.96862
#
# Poissons Ratio (x) = 0.30263 0.29439
# Poissons Ratio (y) = 0.52670 0.43236
# Poissons Ratio (z) = 0.19082 0.16103
#
# Static dielectric constant tensor:
#      x y z
#    x 1.691430 0.000000 0.000000 
#    y 0.000000 1.769760 0.000000 
#    z 0.000000 0.000000 1.740370 
# 
# From -- ./inp_files/16870.got.cif
#   From: 2010.05.17/outbox.cif.g08.bks.cpg/sg69_9_cif.got.tgz:16870.got - 2010.06.03 19:29:58.
