data_PCOD9513027
_publ_section_title
;
Structure prediction by ZEFSAII (Michael W. Deem and Ramdas Pophale) SiO2 
 PCOD9513027
Probable space group: F M M M
;
_chemical_formula_sum "Si O2"
_cell_formula_units_Z 160
_cell_length_a 13.826295
_cell_length_b 26.254198
_cell_length_c 22.072418
_cell_angle_alpha 90.000000
_cell_angle_beta 90.000000
_cell_angle_gamma 90.000000
_cell_volume 8012.249914
_symmetry_space_group_name_H-M "F M M M"
_symmetry_group_IT_number 69
_symmetry_cell_setting 'orthorhombic'
loop_
_space_group_symop_operation_xyz
x,y,z
-x,-y,z
x,-y,-z
-x,y,-z
-x,-y,-z
x,y,-z
-x,y,z
x,-y,z
x,1/2+y,1/2+z
-x,1/2-y,1/2+z
x,1/2-y,1/2-z
-x,1/2+y,1/2-z
-x,1/2-y,1/2-z
x,1/2+y,1/2-z
-x,1/2+y,1/2+z
x,1/2-y,1/2+z
1/2+x,y,1/2+z
1/2-x,-y,1/2+z
1/2+x,-y,1/2-z
1/2-x,y,1/2-z
1/2-x,-y,1/2-z
1/2+x,y,1/2-z
1/2-x,y,1/2+z
1/2+x,-y,1/2+z
1/2+x,1/2+y,z
1/2-x,1/2-y,z
1/2+x,1/2-y,-z
1/2-x,1/2+y,-z
1/2-x,1/2-y,-z
1/2+x,1/2+y,-z
1/2-x,1/2+y,z
1/2+x,1/2-y,z
loop_
_atom_site_type_symbol
_atom_site_label
_atom_site_fract_x
_atom_site_fract_y
_atom_site_fract_z
Si Si1 0.387792 0.906016 0.768232
Si Si2 0.228452 0.500000 0.563820
Si Si3 0.608167 0.421764 0.409137
Si Si4 0.381835 0.292926 0.701308
Si Si5 0.617437 0.000000 0.688051
Si Si6 0.613608 0.698897 0.433270
O O1 0.500000 0.899442 0.750149
O O2 0.387186 0.927432 0.836432
O O3 0.349220 0.848600 0.775389
O O4 0.348746 0.948516 0.722492
O O5 0.174638 0.500000 0.500000
O O6 0.302283 0.452756 0.566276
O O7 0.159208 0.500000 0.621047
O O8 0.500000 0.438450 0.427974
O O9 0.616409 0.362496 0.426317
O O10 0.500000 0.295429 0.697425
O O11 0.357714 0.250000 0.750000
O O12 0.348040 0.282501 0.632160
O O13 0.500000 0.000000 0.689054
O O14 0.654518 0.712477 0.500000
O O15 0.500000 0.713416 0.435019
#
# Coordination Sequence:
#
# PCOD9513027 Si02
#       6
#    32  16  32  32  16  32
#     4   8  15  29  49  71  95 127 161 197 250 299
#     4  12  24  32  45  70  94 129 173 201 240 291
#     4   9  17  29  46  73 106 127 146 187 243 310
#     4   8  13  22  40  68  98 124 157 203 244 282
#     4  10  21  37  52  65  90 128 172 216 242 270
#     4   8  13  22  37  59  94 136 159 174 224 298
#
# _framework density 19.969422000000002
#
# number of rings (size 3 to 8) (size 9 to 14) (size 15 to 20)
#    0.000    3.200    0.000    3.900    0.000    5.000 
#    0.000    0.000    0.000    1.200    0.000   16.800 
#    0.000    8.000    0.000    0.200    0.000    0.200 
#
# Total GULP energy -222871.416242 kJ/mol
# GULP energy per Si atom -5571.785406 kJ/mol
# Density = 1.992397 g / cm^3
# Si number density = 19.969422 Si / 1000 Ang^3
#
#
#
# Elastic Constant Matrix: (Units=GPa)
#
#
# Indices 1 2 3 4 5 6 
#
# 1 63.1107 10.3437 29.2859 0.0000 0.0000 0.0000
# 2 10.3437 78.1012 77.4778 0.0000 0.0000 0.0000
# 3 29.2859 77.4778 209.5578 0.0000 0.0000 0.0000
# 4 0.0000 0.0000 0.0000 151.5449 0.0000 0.0000
# 5 0.0000 0.0000 0.0000 0.0000 11.4133 0.0000
# 6 0.0000 0.0000 0.0000 0.0000 0.0000 -33.2968
#
#
#
# Elastic Compliance Matrix: (Units=1/GPa)
#
#
# Indices 1 2 3 4 5 6 
#
# 1 0.016945 0.000166 -0.002429 0.000000 0.000000 0.000000
# 2 0.000166 0.020222 -0.007500 0.000000 0.000000 0.000000
# 3 -0.002429 -0.007500 0.007884 0.000000 0.000000 0.000000
# 4 0.000000 0.000000 0.000000 0.006599 0.000000 0.000000
# 5 0.000000 0.000000 0.000000 0.000000 0.087617 0.000000
# 6 0.000000 0.000000 0.000000 0.000000 0.000000 -0.030033
#
#
# Mechanical properties :
#
#
# Convention : Reuss Voigt Hill
#
# Bulk Modulus (GPa) = 39.17748 64.99828 52.08788
# Shear Modulus (GPa) = 36.42486 41.50976 38.96731
#
# Velocity S-wave (km/s) = 4.27550 4.56419 4.42220
# Velocity P-wave (km/s) = 6.63585 7.77144 7.22599
#
# Compressibility (1/GPa) = 0.02552487
#
# Stress axis : x y z
#
# Youngs Moduli (GPa) = 59.01324 49.45213 126.83612
#
# Poissons Ratio (x) = -0.00820 0.30814
# Poissons Ratio (y) = -0.00979 0.95121
# Poissons Ratio (z) = 0.14337 0.37087
#
# Static dielectric constant tensor:
#      x y z
#    x 1.699550 0.000000 0.000000 
#    y 0.000000 1.705820 0.000000 
#    z 0.000000 0.000000 1.740490 
# 
# From -- ./inp_files/21864.got.cif
#   From: 2010.05.17/outbox.cif.g08.bks.cpg/sg69_11_cif.got.tgz:21864.got - 2010.06.03 19:29:58.
