data_PCOD9513533
_publ_section_title
;
Structure prediction by ZEFSAII (Michael W. Deem and Ramdas Pophale) SiO2 
 PCOD9513533
Probable space group: F M M M
;
_chemical_formula_sum "Si O2"
_cell_formula_units_Z 100
_cell_length_a 23.810852
_cell_length_b 26.815724
_cell_length_c 8.034777
_cell_angle_alpha 90.000000
_cell_angle_beta 90.000000
_cell_angle_gamma 90.000000
_cell_volume 5130.247180
_symmetry_space_group_name_H-M "F M M M"
_symmetry_group_IT_number 69
_symmetry_cell_setting 'orthorhombic'
loop_
_space_group_symop_operation_xyz
x,y,z
-x,-y,z
x,-y,-z
-x,y,-z
-x,-y,-z
x,y,-z
-x,y,z
x,-y,z
x,1/2+y,1/2+z
-x,1/2-y,1/2+z
x,1/2-y,1/2-z
-x,1/2+y,1/2-z
-x,1/2-y,1/2-z
x,1/2+y,1/2-z
-x,1/2+y,1/2+z
x,1/2-y,1/2+z
1/2+x,y,1/2+z
1/2-x,-y,1/2+z
1/2+x,-y,1/2-z
1/2-x,y,1/2-z
1/2-x,-y,1/2-z
1/2+x,y,1/2-z
1/2-x,y,1/2+z
1/2+x,-y,1/2+z
1/2+x,1/2+y,z
1/2-x,1/2-y,z
1/2+x,1/2-y,-z
1/2-x,1/2+y,-z
1/2-x,1/2-y,-z
1/2+x,1/2+y,-z
1/2-x,1/2+y,z
1/2+x,1/2-y,z
loop_
_atom_site_type_symbol
_atom_site_label
_atom_site_fract_x
_atom_site_fract_y
_atom_site_fract_z
Si Si1 0.315579 0.500000 0.299228
Si Si2 0.882326 0.400288 0.803428
Si Si3 0.684966 0.695515 0.802616
Si Si4 0.000000 0.577277 0.312452
Si Si5 0.500000 0.500000 0.500000
O O1 0.317197 0.500000 0.500000
O O2 0.250000 0.500000 0.250000
O O3 0.348682 0.450016 0.243711
O O4 0.845947 0.351030 0.778849
O O5 0.941148 0.394369 0.709253
O O6 0.892469 0.407770 0.000000
O O7 0.662928 0.750000 0.750000
O O8 0.750000 0.693709 0.750000
O O9 0.681184 0.690839 0.000000
O O10 0.000000 0.555764 0.500000
O O11 0.000000 0.541666 0.150991
#
# Coordination Sequence:
#
# PCOD9513533 Si02
#       5
#    16  32  32  16   4
#     4  10  23  37  58  86 123 163 202 249 318 376
#     4  11  22  41  64  90 129 168 209 268 322 381
#     4  11  22  39  63  94 124 167 216 268 327 387
#     4  12  25  41  66  95 124 174 222 263 323 386
#     4  12  22  44  60  90 128 164 214 268 308 366
#
# _framework density 19.492239000000001
#
# number of rings (size 3 to 8) (size 9 to 14) (size 15 to 20)
#    0.000    0.960    1.600    6.960    2.240    5.120 
#    0.000    0.800    0.000    0.000    0.000    0.000 
#    0.000    0.000    0.000    0.000    0.000    0.000 
#
# Total GULP energy -139348.339229 kJ/mol
# GULP energy per Si atom -5573.933569 kJ/mol
# Density = 1.944787 g / cm^3
# Si number density = 19.492239 Si / 1000 Ang^3
#
#
#
# Elastic Constant Matrix: (Units=GPa)
#
#
# Indices 1 2 3 4 5 6 
#
# 1 126.6152 72.7054 13.7537 0.0032 0.0002 0.0012
# 2 72.7054 150.7784 9.9984 0.0051 -0.0004 0.0015
# 3 13.7537 9.9984 107.7486 0.0088 -0.0001 0.0089
# 4 0.0032 0.0051 0.0088 -41.6979 -0.0063 0.0112
# 5 0.0002 -0.0004 -0.0001 -0.0063 31.5243 -0.0043
# 6 0.0012 0.0015 0.0089 0.0112 -0.0043 107.3276
#
#
#
# Elastic Compliance Matrix: (Units=1/GPa)
#
#
# Indices 1 2 3 4 5 6 
#
# 1 0.011012 -0.005249 -0.000919 0.000000 0.000000 0.000000
# 2 -0.005249 0.009175 -0.000181 0.000001 0.000000 0.000000
# 3 -0.000919 -0.000181 0.009415 0.000002 0.000000 -0.000001
# 4 0.000000 0.000001 0.000002 -0.023982 -0.000005 0.000003
# 5 0.000000 0.000000 0.000000 -0.000005 0.031722 0.000001
# 6 0.000000 0.000000 -0.000001 0.000003 0.000001 0.009317
#
#
# Mechanical properties :
#
#
# Convention : Reuss Voigt Hill
#
# Bulk Modulus (GPa) = 59.15680 64.22860 61.69270
# Shear Modulus (GPa) = 76.93311 38.67645 57.80478
#
# Velocity S-wave (km/s) = 6.28922 4.45927 5.45157
# Velocity P-wave (km/s) = 9.11887 7.71594 8.44659
#
# Compressibility (1/GPa) = 0.01690423
#
# Stress axis : x y z
#
# Youngs Moduli (GPa) = 90.81156 108.98778 106.21413
#
# Poissons Ratio (x) = 0.57208 0.09756
# Poissons Ratio (y) = 0.47667 0.01927
# Poissons Ratio (z) = 0.08341 0.01977
#
# Static dielectric constant tensor:
#      x y z
#    x 1.687480 0.000000 0.000000 
#    y 0.000000 1.675650 0.000000 
#    z 0.000000 0.000000 1.686580 
# 
# From -- ./inp_files/2983.got.cif
#   From: 2010.05.17/outbox.cif.g08.bks.cpg/sg69_2_cif.got.tgz:2983.got - 2010.06.03 19:29:58.
