data_PCOD9513942
_publ_section_title
;
Structure prediction by ZEFSAII (Michael W. Deem and Ramdas Pophale) SiO2 
 PCOD9513942
Probable space group: F M M M
;
_chemical_formula_sum "Si O2"
_cell_formula_units_Z 192
_cell_length_a 14.107610
_cell_length_b 25.350363
_cell_length_c 23.052492
_cell_angle_alpha 90.000000
_cell_angle_beta 90.000000
_cell_angle_gamma 90.000000
_cell_volume 8244.332668
_symmetry_space_group_name_H-M "F M M M"
_symmetry_group_IT_number 69
_symmetry_cell_setting 'orthorhombic'
loop_
_space_group_symop_operation_xyz
x,y,z
-x,-y,z
x,-y,-z
-x,y,-z
-x,-y,-z
x,y,-z
-x,y,z
x,-y,z
x,1/2+y,1/2+z
-x,1/2-y,1/2+z
x,1/2-y,1/2-z
-x,1/2+y,1/2-z
-x,1/2-y,1/2-z
x,1/2+y,1/2-z
-x,1/2+y,1/2+z
x,1/2-y,1/2+z
1/2+x,y,1/2+z
1/2-x,-y,1/2+z
1/2+x,-y,1/2-z
1/2-x,y,1/2-z
1/2-x,-y,1/2-z
1/2+x,y,1/2-z
1/2-x,y,1/2+z
1/2+x,-y,1/2+z
1/2+x,1/2+y,z
1/2-x,1/2-y,z
1/2+x,1/2-y,-z
1/2-x,1/2+y,-z
1/2-x,1/2-y,-z
1/2+x,1/2+y,-z
1/2-x,1/2+y,z
1/2+x,1/2-y,z
loop_
_atom_site_type_symbol
_atom_site_label
_atom_site_fract_x
_atom_site_fract_y
_atom_site_fract_z
Si Si1 0.388892 0.757980 0.435827
Si Si2 0.806214 0.372372 0.434922
Si Si3 0.385837 0.400331 0.178166
Si Si4 0.113953 0.000000 0.384928
Si Si5 0.895516 0.385987 0.068452
Si Si6 0.615416 0.721234 0.808995
Si Si7 0.115833 0.000000 0.745939
O O1 0.351879 0.739035 0.500000
O O2 0.500000 0.744291 0.436983
O O3 0.372886 0.821143 0.437479
O O4 0.356488 0.749287 0.369038
O O5 0.801420 0.394395 0.500000
O O6 0.846556 0.410396 0.386144
O O7 0.699473 0.354239 0.417152
O O8 0.500000 0.400077 0.176965
O O9 0.354302 0.340367 0.192585
O O10 0.356105 0.446406 0.221538
O O11 0.134373 0.945782 0.417161
O O12 0.151268 0.000000 0.319806
O O13 0.000000 0.000000 0.381022
O O14 0.000000 0.375010 0.095258
O O15 0.907060 0.380993 0.000000
O O16 0.500000 0.720441 0.810308
O O17 0.643810 0.750000 0.750000
O O18 0.000000 0.000000 0.744779
#
# Coordination Sequence:
#
# PCOD9513942 Si02
#       7
#    32  32  32  16  32  32  16
#     4   8  13  22  38  63  97 135 169 201 246 310
#     4   9  16  26  42  64  93 129 167 206 249 299
#     4   9  17  29  44  65  98 135 171 209 246 297
#     4   9  17  31  49  64  84 121 166 208 260 316
#     4   9  17  29  45  65  87 113 155 214 266 303
#     4   8  13  22  39  64  93 129 172 213 252 294
#     4   9  18  32  47  64  93 136 173 202 249 310
#
# _framework density 23.288726
#
# number of rings (size 3 to 8) (size 9 to 14) (size 15 to 20)
#    0.000    3.333    0.000    1.750    0.000    2.667 
#    0.000    2.917    0.000    1.500    0.000    2.333 
#    0.000   40.000    0.000   37.167    0.000   48.500 
#
# Total GULP energy -267541.389274 kJ/mol
# GULP energy per Si atom -5573.778943 kJ/mol
# Density = 2.323572 g / cm^3
# Si number density = 23.288726 Si / 1000 Ang^3
#
#
#
# Elastic Constant Matrix: (Units=GPa)
#
#
# Indices 1 2 3 4 5 6 
#
# 1 71.9780 22.8566 20.7164 0.0000 0.0000 0.0000
# 2 22.8566 94.0603 23.7014 0.0000 0.0000 0.0000
# 3 20.7164 23.7014 92.5429 0.0000 0.0000 0.0000
# 4 0.0000 0.0000 0.0000 10.4619 0.0000 0.0000
# 5 0.0000 0.0000 0.0000 0.0000 2.0364 0.0000
# 6 0.0000 0.0000 0.0000 0.0000 0.0000 -11.1692
#
#
#
# Elastic Compliance Matrix: (Units=1/GPa)
#
#
# Indices 1 2 3 4 5 6 
#
# 1 0.015664 -0.003124 -0.002706 0.000000 0.000000 0.000000
# 2 -0.003124 0.011988 -0.002371 0.000000 0.000000 0.000000
# 3 -0.002706 -0.002371 0.012019 0.000000 0.000000 0.000000
# 4 0.000000 0.000000 0.000000 0.095585 0.000000 0.000000
# 5 0.000000 0.000000 0.000000 0.000000 0.491061 0.000000
# 6 0.000000 0.000000 0.000000 0.000000 0.000000 -0.089532
#
#
# Mechanical properties :
#
#
# Convention : Reuss Voigt Hill
#
# Bulk Modulus (GPa) = 42.97774 43.68112 43.32943
# Shear Modulus (GPa) = 8.91354 13.01961 10.96657
#
# Velocity S-wave (km/s) = 1.95850 2.36699 2.17237
# Velocity P-wave (km/s) = 4.85887 5.12516 4.99379
#
# Compressibility (1/GPa) = 0.02326786
#
# Stress axis : x y z
#
# Youngs Moduli (GPa) = 63.83972 83.41578 83.20262
#
# Poissons Ratio (x) = 0.26063 0.22517
# Poissons Ratio (y) = 0.19946 0.19726
# Poissons Ratio (z) = 0.17277 0.19777
#
# Static dielectric constant tensor:
#      x y z
#    x 1.911900 0.000000 0.000000 
#    y 0.000000 1.902920 0.000000 
#    z 0.000000 0.000000 1.899040 
# 
# From -- ./inp_files/36095.got.cif
#   From: 2010.05.17/outbox.cif.g08.bks.cpg/sg69_19_cif.got.tgz:36095.got - 2010.06.03 19:29:58.
