data_PCOD9513282
_publ_section_title
;
Structure prediction by ZEFSAII (Michael W. Deem and Ramdas Pophale) SiO2 
 PCOD9513282
Probable space group: F M M M
;
_chemical_formula_sum "Si O2"
_cell_formula_units_Z 200
_cell_length_a 22.363807
_cell_length_b 15.895520
_cell_length_c 26.888582
_cell_angle_alpha 90.000000
_cell_angle_beta 90.000000
_cell_angle_gamma 90.000000
_cell_volume 9558.469865
_symmetry_space_group_name_H-M "F M M M"
_symmetry_group_IT_number 69
_symmetry_cell_setting 'orthorhombic'
loop_
_space_group_symop_operation_xyz
x,y,z
-x,-y,z
x,-y,-z
-x,y,-z
-x,-y,-z
x,y,-z
-x,y,z
x,-y,z
x,1/2+y,1/2+z
-x,1/2-y,1/2+z
x,1/2-y,1/2-z
-x,1/2+y,1/2-z
-x,1/2-y,1/2-z
x,1/2+y,1/2-z
-x,1/2+y,1/2+z
x,1/2-y,1/2+z
1/2+x,y,1/2+z
1/2-x,-y,1/2+z
1/2+x,-y,1/2-z
1/2-x,y,1/2-z
1/2-x,-y,1/2-z
1/2+x,y,1/2-z
1/2-x,y,1/2+z
1/2+x,-y,1/2+z
1/2+x,1/2+y,z
1/2-x,1/2-y,z
1/2+x,1/2-y,-z
1/2-x,1/2+y,-z
1/2-x,1/2-y,-z
1/2+x,1/2+y,-z
1/2-x,1/2+y,z
1/2+x,1/2-y,z
loop_
_atom_site_type_symbol
_atom_site_label
_atom_site_fract_x
_atom_site_fract_y
_atom_site_fract_z
Si Si1 0.065945 0.863436 0.204530
Si Si2 0.933336 0.627175 0.925349
Si Si3 0.226207 0.398237 0.806044
Si Si4 0.067952 0.325585 0.442886
Si Si5 0.337253 0.906484 0.630237
Si Si6 0.905076 0.332922 0.185368
Si Si7 0.118738 0.500000 0.000000
O O1 0.119361 0.910383 0.178005
O O2 0.075727 0.765003 0.189406
O O3 0.070601 0.872087 0.263711
O O4 0.000000 0.889506 0.188436
O O5 0.929894 0.724769 0.940010
O O6 0.926819 0.626356 0.865806
O O7 0.000000 0.596737 0.939197
O O8 0.886990 0.572821 0.956227
O O9 0.215982 0.500000 0.810681
O O10 0.250000 0.383871 0.750000
O O11 0.275384 0.372540 0.847280
O O12 0.165971 0.346035 0.813199
O O13 0.074492 0.352719 0.500000
O O14 0.122283 0.358585 0.409662
O O15 0.000000 0.350222 0.426538
O O16 0.325364 0.000000 0.610913
#
# Coordination Sequence:
#
# PCOD9513282 Si02
#       7
#    32  32  32  32  32  32   8
#     4  11  22  38  59  95 135 166 204 265 331 393
#     4  11  21  38  61  91 128 165 208 262 323 388
#     4  10  22  42  62  86 125 172 219 262 311 375
#     4  10  21  40  66  93 126 167 211 270 337 392
#     4  11  23  41  64  89 127 172 217 267 320 385
#     4  11  22  37  63  89 126 169 211 260 316 393
#     4  12  25  40  64  92 126 174 220 264 323 398
#
# _framework density 20.923850999999999
#
# number of rings (size 3 to 8) (size 9 to 14) (size 15 to 20)
#    0.000    1.280    4.000    3.120    1.120    2.240 
#    0.000    0.800    1.760    0.960    0.000    0.000 
#    0.000    0.000    0.000    0.000    0.000    0.000 
#
# Total GULP energy -278801.693838 kJ/mol
# GULP energy per Si atom -5576.033877 kJ/mol
# Density = 2.087623 g / cm^3
# Si number density = 20.923851 Si / 1000 Ang^3
#
#
#
# Elastic Constant Matrix: (Units=GPa)
#
#
# Indices 1 2 3 4 5 6 
#
# 1 115.4213 12.7005 11.5891 0.0000 0.0000 0.0000
# 2 12.7005 39.6694 17.0269 0.0000 0.0000 0.0000
# 3 11.5891 17.0269 132.5025 0.0000 0.0000 0.0000
# 4 0.0000 0.0000 0.0000 19.5837 0.0000 0.0000
# 5 0.0000 0.0000 0.0000 0.0000 20.0042 0.0000
# 6 0.0000 0.0000 0.0000 0.0000 0.0000 -12.9386
#
#
#
# Elastic Compliance Matrix: (Units=1/GPa)
#
#
# Indices 1 2 3 4 5 6 
#
# 1 0.009005 -0.002693 -0.000441 0.000000 0.000000 0.000000
# 2 -0.002693 0.027486 -0.003296 0.000000 0.000000 0.000000
# 3 -0.000441 -0.003296 0.008009 0.000000 0.000000 0.000000
# 4 0.000000 0.000000 0.000000 0.051063 0.000000 0.000000
# 5 0.000000 0.000000 0.000000 0.000000 0.049990 0.000000
# 6 0.000000 0.000000 0.000000 0.000000 0.000000 -0.077288
#
#
# Mechanical properties :
#
#
# Convention : Reuss Voigt Hill
#
# Bulk Modulus (GPa) = 31.60872 41.13624 36.37248
# Shear Modulus (GPa) = 54.54227 21.74829 38.14528
#
# Velocity S-wave (km/s) = 5.11113 3.22747 4.27435
# Velocity P-wave (km/s) = 7.06901 5.79581 6.46383
#
# Compressibility (1/GPa) = 0.03163684
#
# Stress axis : x y z
#
# Youngs Moduli (GPa) = 111.05418 36.38279 124.85592
#
# Poissons Ratio (x) = 0.09799 0.05512
# Poissons Ratio (y) = 0.29912 0.41157
# Poissons Ratio (z) = 0.04903 0.11993
#
# Static dielectric constant tensor:
#      x y z
#    x 1.737610 0.000000 0.000000 
#    y 0.000000 1.769420 0.000000 
#    z 0.000000 0.000000 1.763390 
# 
# From -- ./inp_files/42730.got.cif
#   From: 2010.05.17/outbox.cif.g08.bks.cpg/sg69_22_cif.got.tgz:42730.got - 2010.06.03 19:29:58.
