data_PCOD9513565
_publ_section_title
;
Structure prediction by ZEFSAII (Michael W. Deem and Ramdas Pophale) SiO2 
 PCOD9513565
Probable space group: F M M M
;
_chemical_formula_sum "Si O2"
_cell_formula_units_Z 44
_cell_length_a 13.128018
_cell_length_b 22.807285
_cell_length_c 5.272794
_cell_angle_alpha 90.000000
_cell_angle_beta 90.000000
_cell_angle_gamma 90.000000
_cell_volume 1578.750705
_symmetry_space_group_name_H-M "F M M M"
_symmetry_group_IT_number 69
_symmetry_cell_setting 'orthorhombic'
loop_
_space_group_symop_operation_xyz
x,y,z
-x,-y,z
x,-y,-z
-x,y,-z
-x,-y,-z
x,y,-z
-x,y,z
x,-y,z
x,1/2+y,1/2+z
-x,1/2-y,1/2+z
x,1/2-y,1/2-z
-x,1/2+y,1/2-z
-x,1/2-y,1/2-z
x,1/2+y,1/2-z
-x,1/2+y,1/2+z
x,1/2-y,1/2+z
1/2+x,y,1/2+z
1/2-x,-y,1/2+z
1/2+x,-y,1/2-z
1/2-x,y,1/2-z
1/2-x,-y,1/2-z
1/2+x,y,1/2-z
1/2-x,y,1/2+z
1/2+x,-y,1/2+z
1/2+x,1/2+y,z
1/2-x,1/2-y,z
1/2+x,1/2-y,-z
1/2-x,1/2+y,-z
1/2-x,1/2-y,-z
1/2+x,1/2+y,-z
1/2-x,1/2+y,z
1/2+x,1/2-y,z
loop_
_atom_site_type_symbol
_atom_site_label
_atom_site_fract_x
_atom_site_fract_y
_atom_site_fract_z
Si Si1 0.000000 0.413764 0.000000
Si Si2 0.276748 0.104379 0.000000
Si Si3 0.500000 0.500000 0.000000
Si Si4 0.883051 0.789429 0.000000
O O1 0.105561 0.378789 0.000000
O O2 0.000000 0.450102 0.734389
O O3 0.250000 0.068999 0.750000
O O4 0.199158 0.158696 0.000000
O O5 0.869856 0.750000 0.750000
O O6 0.000000 0.811191 0.000000
#
# Coordination Sequence:
#
# PCOD9513565 Si02
#       4
#     8  16   4  16
#     4  11  26  52  78 119 142 193 246 310 388 479
#     4  12  27  44  76 111 153 198 251 315 375 435
#     4  10  24  54  88 104 158 184 236 314 396 480
#     4  10  23  44  69 103 153 210 263 304 356 425
#
# _framework density 27.870135999999999
#
# number of rings (size 3 to 8) (size 9 to 14) (size 15 to 20)
#    0.000    1.091    0.000    4.364    5.091    4.364 
#    0.000   20.000    0.000    0.000    0.000    0.000 
#    0.000    0.000    0.000    0.000    0.000    0.000 
#
# Total GULP energy -61505.871364 kJ/mol
# GULP energy per Si atom -5591.442851 kJ/mol
# Density = 2.780670 g / cm^3
# Si number density = 27.870136 Si / 1000 Ang^3
#
#
#
# Elastic Constant Matrix: (Units=GPa)
#
#
# Indices 1 2 3 4 5 6 
#
# 1 282.4841 85.1088 53.6970 0.0003 -0.0008 -0.0002
# 2 85.1088 156.5497 67.9474 0.0000 -0.0001 0.0001
# 3 53.6970 67.9474 343.2768 0.0008 -0.0027 0.0000
# 4 0.0003 0.0000 0.0008 17.6964 -0.0005 0.0001
# 5 -0.0008 -0.0001 -0.0027 -0.0005 37.4356 0.0002
# 6 -0.0002 0.0001 0.0000 0.0001 0.0002 -90.7279
#
#
#
# Elastic Compliance Matrix: (Units=1/GPa)
#
#
# Indices 1 2 3 4 5 6 
#
# 1 0.004250 -0.002212 -0.000227 0.000000 0.000000 0.000000
# 2 -0.002212 0.008139 -0.001265 0.000000 0.000000 0.000000
# 3 -0.000227 -0.001265 0.003199 0.000000 0.000000 0.000000
# 4 0.000000 0.000000 0.000000 0.056509 0.000001 0.000000
# 5 0.000000 0.000000 0.000000 0.000001 0.026713 0.000000
# 6 0.000000 0.000000 0.000000 0.000000 0.000000 -0.011022
#
#
# Mechanical properties :
#
#
# Convention : Reuss Voigt Hill
#
# Bulk Modulus (GPa) = 122.24628 132.86855 127.55742
# Shear Modulus (GPa) = 51.06134 31.25132 41.15633
#
# Velocity S-wave (km/s) = 4.28497 3.35224 3.84698
# Velocity P-wave (km/s) = 8.27280 7.92219 8.09939
#
# Compressibility (1/GPa) = 0.00818021
#
# Stress axis : x y z
#
# Youngs Moduli (GPa) = 235.31948 122.86099 312.59679
#
# Poissons Ratio (x) = 0.27174 0.07094
# Poissons Ratio (y) = 0.52048 0.39546
# Poissons Ratio (z) = 0.05340 0.15543
#
# Static dielectric constant tensor:
#      x y z
#    x 2.151960 0.000000 0.000000 
#    y 0.000000 2.077500 0.000000 
#    z 0.000000 0.000000 2.435350 
# 
# From -- ./inp_files/139.got.cif
#   From: 2010.05.17/outbox.cif.g08.bks.cpg/sg69_1_cif.got.tgz:139.got - 2010.06.03 19:29:58.
