data_PCOD9513719
_publ_section_title
;
Structure prediction by ZEFSAII (Michael W. Deem and Ramdas Pophale) SiO2 
 PCOD9513719
Probable space group: F M M M
;
_chemical_formula_sum "Si O2"
_cell_formula_units_Z 128
_cell_length_a 23.261936
_cell_length_b 18.974257
_cell_length_c 14.889255
_cell_angle_alpha 90.000000
_cell_angle_beta 90.000000
_cell_angle_gamma 90.000000
_cell_volume 6571.788878
_symmetry_space_group_name_H-M "F M M M"
_symmetry_group_IT_number 69
_symmetry_cell_setting 'orthorhombic'
loop_
_space_group_symop_operation_xyz
x,y,z
-x,-y,z
x,-y,-z
-x,y,-z
-x,-y,-z
x,y,-z
-x,y,z
x,-y,z
x,1/2+y,1/2+z
-x,1/2-y,1/2+z
x,1/2-y,1/2-z
-x,1/2+y,1/2-z
-x,1/2-y,1/2-z
x,1/2+y,1/2-z
-x,1/2+y,1/2+z
x,1/2-y,1/2+z
1/2+x,y,1/2+z
1/2-x,-y,1/2+z
1/2+x,-y,1/2-z
1/2-x,y,1/2-z
1/2-x,-y,1/2-z
1/2+x,y,1/2-z
1/2-x,y,1/2+z
1/2+x,-y,1/2+z
1/2+x,1/2+y,z
1/2-x,1/2-y,z
1/2+x,1/2-y,-z
1/2-x,1/2+y,-z
1/2-x,1/2-y,-z
1/2+x,1/2+y,-z
1/2-x,1/2+y,z
1/2+x,1/2-y,z
loop_
_atom_site_type_symbol
_atom_site_label
_atom_site_fract_x
_atom_site_fract_y
_atom_site_fract_z
Si Si1 0.933203 0.605634 0.500000
Si Si2 0.629195 0.819013 0.814998
Si Si3 0.932788 0.275212 0.000000
Si Si4 0.860437 0.579559 0.326087
Si Si5 0.250301 0.164600 0.104587
O O1 0.927858 0.690662 0.500000
O O2 0.900543 0.578869 0.412880
O O3 0.000000 0.587295 0.500000
O O4 0.632915 0.750000 0.750000
O O5 0.604844 0.880578 0.752351
O O6 0.691138 0.850036 0.843562
O O7 0.597187 0.801240 0.907919
O O8 0.000000 0.294343 0.000000
O O9 0.843294 0.500000 0.302611
O O10 0.804997 0.627362 0.352701
O O11 0.250000 0.250000 0.107584
O O12 0.252916 0.144001 0.000000
#
# Coordination Sequence:
#
# PCOD9513719 Si02
#       5
#    16  32  16  32  32
#     4  11  23  43  69  96 132 171 220 289 340 382
#     4  12  23  41  67  98 132 176 216 269 332 397
#     4  11  24  44  71 104 130 168 235 285 320 381
#     4  12  26  42  64 101 139 174 220 271 335 407
#     4  11  21  37  64  94 132 172 211 263 330 395
#
# _framework density 19.477193
#
# number of rings (size 3 to 8) (size 9 to 14) (size 15 to 20)
#    0.000    0.500    7.500    1.125    0.000    4.500 
#    0.000    0.625    0.000    0.750    0.000    0.000 
#    0.000    0.000    0.000    0.000    0.000    0.000 
#
# Total GULP energy -178714.203024 kJ/mol
# GULP energy per Si atom -5584.818845 kJ/mol
# Density = 1.943286 g / cm^3
# Si number density = 19.477193 Si / 1000 Ang^3
#
#
#
# Elastic Constant Matrix: (Units=GPa)
#
#
# Indices 1 2 3 4 5 6 
#
# 1 98.2815 36.7825 44.7251 0.0000 0.0000 0.0000
# 2 36.7825 112.5863 56.3810 0.0000 0.0000 0.0000
# 3 44.7251 56.3810 160.3858 0.0000 0.0000 0.0000
# 4 0.0000 0.0000 0.0000 -39.9965 0.0000 0.0000
# 5 0.0000 0.0000 0.0000 0.0000 -20.1012 0.0000
# 6 0.0000 0.0000 0.0000 0.0000 0.0000 9.0562
#
#
#
# Elastic Compliance Matrix: (Units=1/GPa)
#
#
# Indices 1 2 3 4 5 6 
#
# 1 0.012341 -0.002802 -0.002457 0.000000 0.000000 0.000000
# 2 -0.002802 0.011416 -0.003232 0.000000 0.000000 0.000000
# 3 -0.002457 -0.003232 0.008056 0.000000 0.000000 0.000000
# 4 0.000000 0.000000 0.000000 -0.025002 0.000000 0.000000
# 5 0.000000 0.000000 0.000000 0.000000 -0.049748 0.000000
# 6 0.000000 0.000000 0.000000 0.000000 0.000000 0.110421
#
#
# Mechanical properties :
#
#
# Convention : Reuss Voigt Hill
#
# Bulk Modulus (GPa) = 67.41701 71.89230 69.65465
# Shear Modulus (GPa) = 55.92311 5.34938 30.63624
#
# Velocity S-wave (km/s) = 5.36418 1.65905 3.97032
# Velocity P-wave (km/s) = 8.54718 6.37660 7.54041
#
# Compressibility (1/GPa) = 0.01483305
#
# Stress axis : x y z
#
# Youngs Moduli (GPa) = 81.02836 87.59766 124.12988
#
# Poissons Ratio (x) = 0.24543 0.30494
# Poissons Ratio (y) = 0.22702 0.40116
# Poissons Ratio (z) = 0.19905 0.28309
#
# Static dielectric constant tensor:
#      x y z
#    x 1.718080 0.000000 0.000000 
#    y 0.000000 1.715500 0.000000 
#    z 0.000000 0.000000 1.716630 
# 
# From -- ./inp_files/16378.got.cif
#   From: 2010.05.17/outbox.cif.g08.bks.cpg/sg69_9_cif.got.tgz:16378.got - 2010.06.03 19:29:58.
