data_PCOD9513161
_publ_section_title
;
Structure prediction by ZEFSAII (Michael W. Deem and Ramdas Pophale) SiO2 
 PCOD9513161
Probable space group: F M M M
;
_chemical_formula_sum "Si O2"
_cell_formula_units_Z 192
_cell_length_a 16.976395
_cell_length_b 18.702437
_cell_length_c 33.466241
_cell_angle_alpha 90.000000
_cell_angle_beta 90.000000
_cell_angle_gamma 90.000000
_cell_volume 10625.530111
_symmetry_space_group_name_H-M "F M M M"
_symmetry_group_IT_number 69
_symmetry_cell_setting 'orthorhombic'
loop_
_space_group_symop_operation_xyz
x,y,z
-x,-y,z
x,-y,-z
-x,y,-z
-x,-y,-z
x,y,-z
-x,y,z
x,-y,z
x,1/2+y,1/2+z
-x,1/2-y,1/2+z
x,1/2-y,1/2-z
-x,1/2+y,1/2-z
-x,1/2-y,1/2-z
x,1/2+y,1/2-z
-x,1/2+y,1/2+z
x,1/2-y,1/2+z
1/2+x,y,1/2+z
1/2-x,-y,1/2+z
1/2+x,-y,1/2-z
1/2-x,y,1/2-z
1/2-x,-y,1/2-z
1/2+x,y,1/2-z
1/2-x,y,1/2+z
1/2+x,-y,1/2+z
1/2+x,1/2+y,z
1/2-x,1/2-y,z
1/2+x,1/2-y,-z
1/2-x,1/2+y,-z
1/2-x,1/2-y,-z
1/2+x,1/2+y,-z
1/2-x,1/2+y,z
1/2+x,1/2-y,z
loop_
_atom_site_type_symbol
_atom_site_label
_atom_site_fract_x
_atom_site_fract_y
_atom_site_fract_z
Si Si1 0.657027 0.331412 0.758784
Si Si2 0.669326 0.704761 0.452258
Si Si3 0.851611 0.917472 0.839769
Si Si4 0.000000 0.581382 0.602023
Si Si5 0.592704 0.919281 0.186011
Si Si6 0.809516 0.415277 0.111631
Si Si7 0.000000 0.780126 0.952049
O O1 0.632789 0.250000 0.750000
O O2 0.750000 0.336279 0.750000
O O3 0.643621 0.362571 0.802992
O O4 0.614091 0.378777 0.725967
O O5 0.667944 0.692847 0.500000
O O6 0.750000 0.750000 0.443717
O O7 0.679153 0.632182 0.427334
O O8 0.584033 0.741101 0.441775
O O9 0.774947 0.906192 0.867136
O O10 0.925241 0.910896 0.869062
O O11 0.848843 0.000000 0.824335
O O12 0.000000 0.642960 0.569175
O O13 0.000000 0.500000 0.585562
O O14 0.500000 0.921564 0.181248
O O15 0.630515 0.888912 0.145859
O O16 0.624688 0.000000 0.189579
O O17 0.821364 0.500000 0.103670
O O18 0.000000 0.787676 0.000000
#
# Coordination Sequence:
#
# PCOD9513161 Si02
#       7
#    32  32  32  16  32  32  16
#     4  11  23  38  55  81 113 148 194 242 286 342
#     4  10  22  40  62  89 122 156 192 237 293 357
#     4  10  21  39  60  84 115 153 194 240 295 346
#     4  10  22  39  61  92 119 147 194 244 290 346
#     4  10  22  38  57  80 109 150 194 235 283 336
#     4  10  21  38  61  86 115 154 200 241 285 346
#     4  10  22  41  63  91 122 158 195 231 293 358
#
# _framework density 18.069686000000001
#
# number of rings (size 3 to 8) (size 9 to 14) (size 15 to 20)
#    0.000    1.833    1.667    1.500    2.333    4.167 
#    0.000    0.000    0.000    7.500    0.000    0.000 
#    0.000    0.000    0.000    0.000    0.000    0.000 
#
# Total GULP energy -267745.111305 kJ/mol
# GULP energy per Si atom -5578.023152 kJ/mol
# Density = 1.802856 g / cm^3
# Si number density = 18.069686 Si / 1000 Ang^3
#
#
#
# Elastic Constant Matrix: (Units=GPa)
#
#
# Indices 1 2 3 4 5 6 
#
# 1 93.4663 51.2234 41.5356 0.0000 0.0000 0.0000
# 2 51.2234 97.5642 62.6965 0.0000 0.0000 0.0000
# 3 41.5356 62.6965 68.0226 0.0000 0.0000 0.0000
# 4 0.0000 0.0000 0.0000 43.6003 0.0000 0.0000
# 5 0.0000 0.0000 0.0000 0.0000 -39.9843 0.0000
# 6 0.0000 0.0000 0.0000 0.0000 0.0000 31.5176
#
#
#
# Elastic Compliance Matrix: (Units=1/GPa)
#
#
# Indices 1 2 3 4 5 6 
#
# 1 0.015651 -0.005091 -0.004864 0.000000 0.000000 0.000000
# 2 -0.005091 0.026797 -0.021590 0.000000 0.000000 0.000000
# 3 -0.004864 -0.021590 0.037570 0.000000 0.000000 0.000000
# 4 0.000000 0.000000 0.000000 0.022936 0.000000 0.000000
# 5 0.000000 0.000000 0.000000 0.000000 -0.025010 0.000000
# 6 0.000000 0.000000 0.000000 0.000000 0.000000 0.031728
#
#
# Mechanical properties :
#
#
# Convention : Reuss Voigt Hill
#
# Bulk Modulus (GPa) = 59.07438 63.32934 61.20186
# Shear Modulus (GPa) = 28.02628 13.93322 20.97975
#
# Velocity S-wave (km/s) = 3.94256 2.77985 3.41111
# Velocity P-wave (km/s) = 7.31359 6.73994 7.03261
#
# Compressibility (1/GPa) = 0.01692781
#
# Stress axis : x y z
#
# Youngs Moduli (GPa) = 63.89453 37.31810 26.61691
#
# Poissons Ratio (x) = 0.19000 0.12946
# Poissons Ratio (y) = 0.32531 0.57465
# Poissons Ratio (z) = 0.31077 0.80568
#
# Static dielectric constant tensor:
#      x y z
#    x 1.574890 0.000000 0.000000 
#    y 0.000000 1.686440 0.000000 
#    z 0.000000 0.000000 1.577270 
# 
# From -- ./inp_files/27786.got.cif
#   From: 2010.05.17/outbox.cif.g08.bks.cpg/sg69_14_cif.got.tgz:27786.got - 2010.06.03 19:29:58.
