data_PCOD9513901
_publ_section_title
;
Structure prediction by ZEFSAII (Michael W. Deem and Ramdas Pophale) SiO2 
 PCOD9513901
Probable space group: F M M M
;
_chemical_formula_sum "Si O2"
_cell_formula_units_Z 200
_cell_length_a 15.895589
_cell_length_b 22.824766
_cell_length_c 29.803437
_cell_angle_alpha 90.000000
_cell_angle_beta 90.000000
_cell_angle_gamma 90.000000
_cell_volume 10813.077349
_symmetry_space_group_name_H-M "F M M M"
_symmetry_group_IT_number 69
_symmetry_cell_setting 'orthorhombic'
loop_
_space_group_symop_operation_xyz
x,y,z
-x,-y,z
x,-y,-z
-x,y,-z
-x,-y,-z
x,y,-z
-x,y,z
x,-y,z
x,1/2+y,1/2+z
-x,1/2-y,1/2+z
x,1/2-y,1/2-z
-x,1/2+y,1/2-z
-x,1/2-y,1/2-z
x,1/2+y,1/2-z
-x,1/2+y,1/2+z
x,1/2-y,1/2+z
1/2+x,y,1/2+z
1/2-x,-y,1/2+z
1/2+x,-y,1/2-z
1/2-x,y,1/2-z
1/2-x,-y,1/2-z
1/2+x,y,1/2-z
1/2-x,y,1/2+z
1/2+x,-y,1/2+z
1/2+x,1/2+y,z
1/2-x,1/2-y,z
1/2+x,1/2-y,-z
1/2-x,1/2+y,-z
1/2-x,1/2-y,-z
1/2+x,1/2+y,-z
1/2-x,1/2+y,z
1/2+x,1/2-y,z
loop_
_atom_site_type_symbol
_atom_site_label
_atom_site_fract_x
_atom_site_fract_y
_atom_site_fract_z
Si Si1 0.840068 0.421767 0.270687
Si Si2 0.399453 0.384626 0.052087
Si Si3 0.902686 0.687954 0.226587
Si Si4 0.788378 0.566059 0.371106
Si Si5 0.398873 0.747151 0.448780
Si Si6 0.000000 0.000000 0.251853
Si Si7 0.807344 0.691259 0.866740
O O1 0.750000 0.440023 0.250000
O O2 0.849956 0.354532 0.258229
O O3 0.837237 0.432753 0.323699
O O4 0.923464 0.450960 0.250438
O O5 0.500000 0.390816 0.057381
O O6 0.350415 0.424470 0.087036
O O7 0.378624 0.315760 0.060547
O O8 0.379112 0.397087 0.000000
O O9 0.898097 0.750000 0.250000
O O10 0.866218 0.688926 0.176732
O O11 0.000000 0.670710 0.224619
O O12 0.749062 0.500000 0.374075
O O13 0.733472 0.626099 0.370009
O O14 0.372470 0.734479 0.500000
O O15 0.500000 0.742374 0.446638
O O16 0.356548 0.705606 0.412619
O O17 0.750000 0.750000 0.860698
#
# Coordination Sequence:
#
# PCOD9513901 Si02
#       7
#    32  32  32  32  32   8  32
#     4  12  25  45  66  92 130 172 224 268 315 388
#     4   9  20  39  63  92 127 166 207 256 317 388
#     4  11  25  42  63  94 127 165 215 268 330 386
#     4  12  26  39  61  92 129 168 209 262 321 380
#     4   9  19  38  65  93 121 159 211 266 317 385
#     4  12  26  44  70  90 117 188 223 266 320 374
#     4  12  23  40  63  93 123 170 209 262 329 381
#
# _framework density 18.496122
#
# number of rings (size 3 to 8) (size 9 to 14) (size 15 to 20)
#    0.000    1.120    4.800    2.640    1.120    1.600 
#    0.000    0.800    0.000    1.440    0.000    1.120 
#    0.000    0.000    0.000    0.000    0.000    0.000 
#
# Total GULP energy -278348.855219 kJ/mol
# GULP energy per Si atom -5566.977104 kJ/mol
# Density = 1.845402 g / cm^3
# Si number density = 18.496122 Si / 1000 Ang^3
#
#
#
# Elastic Constant Matrix: (Units=GPa)
#
#
# Indices 1 2 3 4 5 6 
#
# 1 83.3894 55.9055 26.1924 0.0000 0.0000 0.0000
# 2 55.9055 133.9396 54.1967 0.0000 0.0000 0.0000
# 3 26.1924 54.1967 97.1347 0.0000 0.0000 0.0000
# 4 0.0000 0.0000 0.0000 75.6680 0.0000 0.0000
# 5 0.0000 0.0000 0.0000 0.0000 34.5905 0.0000
# 6 0.0000 0.0000 0.0000 0.0000 0.0000 111.6714
#
#
#
# Elastic Compliance Matrix: (Units=1/GPa)
#
#
# Indices 1 2 3 4 5 6 
#
# 1 0.016699 -0.006649 -0.000793 0.000000 0.000000 0.000000
# 2 -0.006649 0.012291 -0.005065 0.000000 0.000000 0.000000
# 3 -0.000793 -0.005065 0.013335 0.000000 0.000000 0.000000
# 4 0.000000 0.000000 0.000000 0.013216 0.000000 0.000000
# 5 0.000000 0.000000 0.000000 0.000000 0.028910 0.000000
# 6 0.000000 0.000000 0.000000 0.000000 0.000000 0.008955
#
#
# Mechanical properties :
#
#
# Convention : Reuss Voigt Hill
#
# Bulk Modulus (GPa) = 57.76814 65.22812 61.49813
# Shear Modulus (GPa) = 40.26163 56.26391 48.26277
#
# Velocity S-wave (km/s) = 4.67064 5.52135 5.11372
# Velocity P-wave (km/s) = 7.77090 8.71720 8.25761
#
# Compressibility (1/GPa) = 0.01731058
#
# Stress axis : x y z
#
# Youngs Moduli (GPa) = 59.88525 81.36242 74.99247
#
# Poissons Ratio (x) = 0.54098 0.05946
# Poissons Ratio (y) = 0.39818 0.37982
# Poissons Ratio (z) = 0.04748 0.41208
#
# Static dielectric constant tensor:
#      x y z
#    x 1.644150 0.000000 0.000000 
#    y 0.000000 1.664500 0.000000 
#    z 0.000000 0.000000 1.614680 
# 
# From -- ./inp_files/46526.got.cif
#   From: 2010.05.17/outbox.cif.g08.bks.cpg/sg69_24_cif.got.tgz:46526.got - 2010.06.03 19:29:58.
