data_PCOD9513745
_publ_section_title
;
Structure prediction by ZEFSAII (Michael W. Deem and Ramdas Pophale) SiO2 
 PCOD9513745
Probable space group: F M M M
;
_chemical_formula_sum "Si O2"
_cell_formula_units_Z 136
_cell_length_a 15.999034
_cell_length_b 23.996382
_cell_length_c 17.868908
_cell_angle_alpha 90.000000
_cell_angle_beta 90.000000
_cell_angle_gamma 90.000000
_cell_volume 6860.212066
_symmetry_space_group_name_H-M "F M M M"
_symmetry_group_IT_number 69
_symmetry_cell_setting 'orthorhombic'
loop_
_space_group_symop_operation_xyz
x,y,z
-x,-y,z
x,-y,-z
-x,y,-z
-x,-y,-z
x,y,-z
-x,y,z
x,-y,z
x,1/2+y,1/2+z
-x,1/2-y,1/2+z
x,1/2-y,1/2-z
-x,1/2+y,1/2-z
-x,1/2-y,1/2-z
x,1/2+y,1/2-z
-x,1/2+y,1/2+z
x,1/2-y,1/2+z
1/2+x,y,1/2+z
1/2-x,-y,1/2+z
1/2+x,-y,1/2-z
1/2-x,y,1/2-z
1/2-x,-y,1/2-z
1/2+x,y,1/2-z
1/2-x,y,1/2+z
1/2+x,-y,1/2+z
1/2+x,1/2+y,z
1/2-x,1/2-y,z
1/2+x,1/2-y,-z
1/2-x,1/2+y,-z
1/2-x,1/2-y,-z
1/2+x,1/2+y,-z
1/2-x,1/2+y,z
1/2+x,1/2-y,z
loop_
_atom_site_type_symbol
_atom_site_label
_atom_site_fract_x
_atom_site_fract_y
_atom_site_fract_z
Si Si1 0.842413 0.317890 0.845041
Si Si2 0.000000 0.000000 0.643273
Si Si3 0.904012 0.878097 0.201795
Si Si4 0.661377 0.303540 0.089225
Si Si5 0.000000 0.621794 0.084907
Si Si6 0.349519 0.000000 0.262731
O O1 0.849831 0.339570 0.759422
O O2 0.753019 0.325248 0.884998
O O3 0.858070 0.252859 0.863954
O O4 0.915843 0.353207 0.881472
O O5 0.000000 0.944062 0.596037
O O6 0.914926 0.000000 0.692987
O O7 0.900014 0.849970 0.120844
O O8 0.000000 0.879012 0.228875
O O9 0.870728 0.941020 0.198913
O O10 0.659079 0.293589 0.000000
O O11 0.000000 0.638566 0.000000
O O12 0.250000 0.000000 0.250000
#
# Coordination Sequence:
#
# PCOD9513745 Si02
#       6
#    32   8  32  32  16  16
#     4  11  21  43  65  93 128 167 213 262 316 389
#     4  12  23  44  62 100 131 156 228 274 327 404
#     4  12  24  42  68  95 125 166 222 265 316 386
#     4  11  25  41  62  96 133 171 212 261 316 380
#     4  12  23  38  66  97 133 167 201 274 345 385
#     4  12  22  43  68  90 122 170 214 278 318 374
#
# _framework density 19.824459999999998
#
# number of rings (size 3 to 8) (size 9 to 14) (size 15 to 20)
#    0.000    0.471    4.706    5.824    1.647    3.294 
#    0.000    0.588    0.000    1.412    0.000    0.000 
#    0.000    0.000    0.000    0.000    0.000    0.000 
#
# Total GULP energy -189714.529402 kJ/mol
# GULP energy per Si atom -5579.839100 kJ/mol
# Density = 1.977934 g / cm^3
# Si number density = 19.824460 Si / 1000 Ang^3
#
#
#
# Elastic Constant Matrix: (Units=GPa)
#
#
# Indices 1 2 3 4 5 6 
#
# 1 82.9020 59.4463 13.6597 0.0000 0.0000 0.0000
# 2 59.4463 127.7560 49.2289 0.0000 0.0000 0.0000
# 3 13.6597 49.2289 79.4746 0.0000 0.0000 0.0000
# 4 0.0000 0.0000 0.0000 83.7620 0.0000 0.0000
# 5 0.0000 0.0000 0.0000 0.0000 22.1096 0.0000
# 6 0.0000 0.0000 0.0000 0.0000 0.0000 49.2753
#
#
#
# Elastic Compliance Matrix: (Units=1/GPa)
#
#
# Indices 1 2 3 4 5 6 
#
# 1 0.018578 -0.009739 0.002839 0.000000 0.000000 0.000000
# 2 -0.009739 0.015386 -0.007857 0.000000 0.000000 0.000000
# 3 0.002839 -0.007857 0.016961 0.000000 0.000000 0.000000
# 4 0.000000 0.000000 0.000000 0.011939 0.000000 0.000000
# 5 0.000000 0.000000 0.000000 0.000000 0.045229 0.000000
# 6 0.000000 0.000000 0.000000 0.000000 0.000000 0.020294
#
#
# Mechanical properties :
#
#
# Convention : Reuss Voigt Hill
#
# Bulk Modulus (GPa) = 46.70017 59.42249 53.06133
# Shear Modulus (GPa) = 30.29608 42.21589 36.25598
#
# Velocity S-wave (km/s) = 3.91348 4.61964 4.28115
# Velocity P-wave (km/s) = 6.63539 7.64815 7.15970
#
# Compressibility (1/GPa) = 0.02141320
#
# Stress axis : x y z
#
# Youngs Moduli (GPa) = 53.82778 64.99233 58.95705
#
# Poissons Ratio (x) = 0.63293 -0.16739
# Poissons Ratio (y) = 0.52420 0.46323
# Poissons Ratio (z) = -0.15283 0.51064
#
# Static dielectric constant tensor:
#      x y z
#    x 1.760240 0.000000 0.000000 
#    y 0.000000 1.691400 0.000000 
#    z 0.000000 0.000000 1.706920 
# 
# From -- ./inp_files/22912.got.cif
#   From: 2010.05.17/outbox.cif.g08.bks.cpg/sg69_12_cif.got.tgz:22912.got - 2010.06.03 19:29:58.
