data_PCOD9513468
_publ_section_title
;
Structure prediction by ZEFSAII (Michael W. Deem and Ramdas Pophale) SiO2 
 PCOD9513468
Probable space group: F M M M
;
_chemical_formula_sum "Si O2"
_cell_formula_units_Z 100
_cell_length_a 10.269311
_cell_length_b 22.657632
_cell_length_c 22.437504
_cell_angle_alpha 90.000000
_cell_angle_beta 90.000000
_cell_angle_gamma 90.000000
_cell_volume 5220.719603
_symmetry_space_group_name_H-M "F M M M"
_symmetry_group_IT_number 69
_symmetry_cell_setting 'orthorhombic'
loop_
_space_group_symop_operation_xyz
x,y,z
-x,-y,z
x,-y,-z
-x,y,-z
-x,-y,-z
x,y,-z
-x,y,z
x,-y,z
x,1/2+y,1/2+z
-x,1/2-y,1/2+z
x,1/2-y,1/2-z
-x,1/2+y,1/2-z
-x,1/2-y,1/2-z
x,1/2+y,1/2-z
-x,1/2+y,1/2+z
x,1/2-y,1/2+z
1/2+x,y,1/2+z
1/2-x,-y,1/2+z
1/2+x,-y,1/2-z
1/2-x,y,1/2-z
1/2-x,-y,1/2-z
1/2+x,y,1/2-z
1/2-x,y,1/2+z
1/2+x,-y,1/2+z
1/2+x,1/2+y,z
1/2-x,1/2-y,z
1/2+x,1/2-y,-z
1/2-x,1/2+y,-z
1/2-x,1/2-y,-z
1/2+x,1/2+y,-z
1/2-x,1/2+y,z
1/2+x,1/2-y,z
loop_
_atom_site_type_symbol
_atom_site_label
_atom_site_fract_x
_atom_site_fract_y
_atom_site_fract_z
Si Si1 0.228830 0.872114 0.119285
Si Si2 0.500000 0.317265 0.665252
Si Si3 0.000000 0.000000 0.500000
Si Si4 0.651076 0.303695 0.000000
Si Si5 0.000000 0.680748 0.691565
Si Si6 0.765342 0.000000 0.067276
O O1 0.372372 0.848260 0.136997
O O2 0.183358 0.841148 0.058369
O O3 0.129164 0.851669 0.169605
O O4 0.212639 0.941112 0.104929
O O5 0.500000 0.320644 0.737082
O O6 0.500000 0.245655 0.659736
O O7 0.113745 0.000000 0.550485
O O8 0.750000 0.250000 0.000000
O O9 0.500000 0.285526 0.000000
O O10 0.829841 0.000000 0.000000
#
# Coordination Sequence:
#
# PCOD9513468 Si02
#       6
#    32  16   4  16  16  16
#     4  12  24  42  68  99 132 177 224 271 335 398
#     4  11  25  44  72  92 132 180 228 276 330 398
#     4   8  16  40  60  86 128 172 224 246 312 396
#     4  12  25  41  64 101 139 166 216 279 344 400
#     4  11  24  46  65 100 134 174 222 281 344 389
#     4  10  22  41  63  96 136 179 216 267 330 406
#
# _framework density 19.154447999999999
#
# number of rings (size 3 to 8) (size 9 to 14) (size 15 to 20)
#    0.480    0.320    3.200    4.800    2.240    3.200 
#    0.000    6.400    0.000    0.000    0.000    0.000 
#    0.000    0.000    0.000    0.000    0.000    0.000 
#
# Total GULP energy -139294.720026 kJ/mol
# GULP energy per Si atom -5571.788801 kJ/mol
# Density = 1.911085 g / cm^3
# Si number density = 19.154448 Si / 1000 Ang^3
#
#
#
# Elastic Constant Matrix: (Units=GPa)
#
#
# Indices 1 2 3 4 5 6 
#
# 1 156.7549 59.4625 39.6795 0.0000 0.0000 0.0000
# 2 59.4625 173.3414 39.2271 0.0000 0.0000 0.0000
# 3 39.6795 39.2271 81.3384 0.0000 0.0000 0.0000
# 4 0.0000 0.0000 0.0000 63.8598 0.0000 0.0000
# 5 0.0000 0.0000 0.0000 0.0000 29.8214 0.0000
# 6 0.0000 0.0000 0.0000 0.0000 0.0000 -8.7493
#
#
#
# Elastic Compliance Matrix: (Units=1/GPa)
#
#
# Indices 1 2 3 4 5 6 
#
# 1 0.007882 -0.002058 -0.002853 0.000000 0.000000 0.000000
# 2 -0.002058 0.007013 -0.002378 0.000000 0.000000 0.000000
# 3 -0.002853 -0.002378 0.014833 0.000000 0.000000 0.000000
# 4 0.000000 0.000000 0.000000 0.015659 0.000000 0.000000
# 5 0.000000 0.000000 0.000000 0.000000 0.033533 0.000000
# 6 0.000000 0.000000 0.000000 0.000000 0.000000 -0.114294
#
#
# Mechanical properties :
#
#
# Convention : Reuss Voigt Hill
#
# Bulk Modulus (GPa) = 66.00578 76.46368 71.23473
# Shear Modulus (GPa) = -317.54565 35.19076 -141.17745
#
# Velocity S-wave (km/s) = -12.88959 4.29092 -8.59446
# Velocity P-wave (km/s) = 13.67434 8.03465 7.82407
#
# Compressibility (1/GPa) = 0.01515019
#
# Stress axis : x y z
#
# Youngs Moduli (GPa) = 126.86715 142.58762 67.41831
#
# Poissons Ratio (x) = 0.29350 0.19231
# Poissons Ratio (y) = 0.26114 0.16033
# Poissons Ratio (z) = 0.36189 0.33909
#
# Static dielectric constant tensor:
#      x y z
#    x 1.649560 0.000000 0.000000 
#    y 0.000000 1.705320 0.000000 
#    z 0.000000 0.000000 1.665120 
# 
# From -- ./inp_files/28505.got.cif
#   From: 2010.05.17/outbox.cif.g08.bks.cpg/sg69_15_cif.got.tgz:28505.got - 2010.06.03 19:29:58.
