data_PCOD9513363
_publ_section_title
;
Structure prediction by ZEFSAII (Michael W. Deem and Ramdas Pophale) SiO2 
 PCOD9513363
Probable space group: F M M M
;
_chemical_formula_sum "Si O2"
_cell_formula_units_Z 160
_cell_length_a 20.613842
_cell_length_b 17.033593
_cell_length_c 25.224817
_cell_angle_alpha 90.000000
_cell_angle_beta 90.000000
_cell_angle_gamma 90.000000
_cell_volume 8857.134367
_symmetry_space_group_name_H-M "F M M M"
_symmetry_group_IT_number 69
_symmetry_cell_setting 'orthorhombic'
loop_
_space_group_symop_operation_xyz
x,y,z
-x,-y,z
x,-y,-z
-x,y,-z
-x,-y,-z
x,y,-z
-x,y,z
x,-y,z
x,1/2+y,1/2+z
-x,1/2-y,1/2+z
x,1/2-y,1/2-z
-x,1/2+y,1/2-z
-x,1/2-y,1/2-z
x,1/2+y,1/2-z
-x,1/2+y,1/2+z
x,1/2-y,1/2+z
1/2+x,y,1/2+z
1/2-x,-y,1/2+z
1/2+x,-y,1/2-z
1/2-x,y,1/2-z
1/2-x,-y,1/2-z
1/2+x,y,1/2-z
1/2-x,y,1/2+z
1/2+x,-y,1/2+z
1/2+x,1/2+y,z
1/2-x,1/2-y,z
1/2+x,1/2-y,-z
1/2-x,1/2+y,-z
1/2-x,1/2-y,-z
1/2+x,1/2+y,-z
1/2-x,1/2+y,z
1/2+x,1/2-y,z
loop_
_atom_site_type_symbol
_atom_site_label
_atom_site_fract_x
_atom_site_fract_y
_atom_site_fract_z
Si Si1 0.575483 0.592880 0.291612
Si Si2 0.229176 0.907785 0.000000
Si Si3 0.189321 0.594022 0.287933
Si Si4 0.191017 0.811751 0.897068
Si Si5 0.385336 0.092495 0.000000
Si Si6 0.575321 0.308716 0.397855
O O1 0.500000 0.604372 0.277222
O O2 0.584843 0.500000 0.303260
O O3 0.624117 0.613917 0.244459
O O4 0.589430 0.642747 0.344134
O O5 0.201223 0.866776 0.947804
O O6 0.307306 0.897974 0.000000
O O7 0.215132 0.000000 0.000000
O O8 0.190633 0.500000 0.296995
O O9 0.250000 0.613600 0.250000
O O10 0.192903 0.638913 0.343066
O O11 0.250000 0.750000 0.896617
O O12 0.124423 0.763486 0.901336
O O13 0.412758 0.134637 0.052094
O O14 0.400533 0.000000 0.000000
O O15 0.500000 0.284831 0.396863
#
# Coordination Sequence:
#
# PCOD9513363 Si02
#       6
#    32  16  32  32  16  32
#     4   9  19  37  58  83 119 158 194 236 287 344
#     4  11  24  42  65  87 113 153 199 242 289 348
#     4  10  22  38  59  85 114 152 200 246 285 335
#     4  12  23  40  61  86 119 155 190 240 298 351
#     4  11  22  38  62  88 117 156 197 239 292 356
#     4  11  23  37  58  90 124 156 191 241 296 348
#
# _framework density 18.064533999999998
#
# number of rings (size 3 to 8) (size 9 to 14) (size 15 to 20)
#    0.000    1.400    2.000    3.600    0.000    5.200 
#    0.000    2.000    0.000    2.400    0.000    0.000 
#    0.000    0.000    0.000    0.000    0.000    0.000 
#
# Total GULP energy -223649.478362 kJ/mol
# GULP energy per Si atom -5591.236959 kJ/mol
# Density = 1.802342 g / cm^3
# Si number density = 18.064534 Si / 1000 Ang^3
#
#
#
# Elastic Constant Matrix: (Units=GPa)
#
#
# Indices 1 2 3 4 5 6 
#
# 1 105.1199 72.7501 77.0983 0.0000 0.0000 0.0000
# 2 72.7501 87.7487 89.9841 0.0000 0.0000 0.0000
# 3 77.0983 89.9841 175.8646 0.0000 0.0000 0.0000
# 4 0.0000 0.0000 0.0000 58.0368 0.0000 0.0000
# 5 0.0000 0.0000 0.0000 0.0000 14.1982 0.0000
# 6 0.0000 0.0000 0.0000 0.0000 0.0000 19.4319
#
#
#
# Elastic Compliance Matrix: (Units=1/GPa)
#
#
# Indices 1 2 3 4 5 6 
#
# 1 0.022356 -0.017851 -0.000667 0.000000 0.000000 0.000000
# 2 -0.017851 0.038230 -0.011735 0.000000 0.000000 0.000000
# 3 -0.000667 -0.011735 0.011983 0.000000 0.000000 0.000000
# 4 0.000000 0.000000 0.000000 0.017230 0.000000 0.000000
# 5 0.000000 0.000000 0.000000 0.000000 0.070431 0.000000
# 6 0.000000 0.000000 0.000000 0.000000 0.000000 0.051462
#
#
# Mechanical properties :
#
#
# Convention : Reuss Voigt Hill
#
# Bulk Modulus (GPa) = 82.89862 94.26646 88.58254
# Shear Modulus (GPa) = 18.10145 26.92677 22.51411
#
# Velocity S-wave (km/s) = 3.16894 3.86500 3.53415
# Velocity P-wave (km/s) = 7.70581 8.49789 8.11152
#
# Compressibility (1/GPa) = 0.01206293
#
# Stress axis : x y z
#
# Youngs Moduli (GPa) = 44.73027 26.15741 83.44922
#
# Poissons Ratio (x) = 0.46693 0.05568
# Poissons Ratio (y) = 0.79847 0.97931
# Poissons Ratio (z) = 0.02985 0.30697
#
# Static dielectric constant tensor:
#      x y z
#    x 1.611650 0.000000 0.000000 
#    y 0.000000 1.599030 0.000000 
#    z 0.000000 0.000000 1.580610 
# 
# From -- ./inp_files/24884.got.cif
#   From: 2010.05.17/outbox.cif.g08.bks.cpg/sg69_13_cif.got.tgz:24884.got - 2010.06.03 19:29:58.
