data_PCOD9513513
_publ_section_title
;
Structure prediction by ZEFSAII (Michael W. Deem and Ramdas Pophale) SiO2 
 PCOD9513513
Probable space group: F M M M
;
_chemical_formula_sum "Si O2"
_cell_formula_units_Z 168
_cell_length_a 20.914162
_cell_length_b 15.225197
_cell_length_c 23.799716
_cell_angle_alpha 90.000000
_cell_angle_beta 90.000000
_cell_angle_gamma 90.000000
_cell_volume 7578.358798
_symmetry_space_group_name_H-M "F M M M"
_symmetry_group_IT_number 69
_symmetry_cell_setting 'orthorhombic'
loop_
_space_group_symop_operation_xyz
x,y,z
-x,-y,z
x,-y,-z
-x,y,-z
-x,-y,-z
x,y,-z
-x,y,z
x,-y,z
x,1/2+y,1/2+z
-x,1/2-y,1/2+z
x,1/2-y,1/2-z
-x,1/2+y,1/2-z
-x,1/2-y,1/2-z
x,1/2+y,1/2-z
-x,1/2+y,1/2+z
x,1/2-y,1/2+z
1/2+x,y,1/2+z
1/2-x,-y,1/2+z
1/2+x,-y,1/2-z
1/2-x,y,1/2-z
1/2-x,-y,1/2-z
1/2+x,y,1/2-z
1/2-x,y,1/2+z
1/2+x,-y,1/2+z
1/2+x,1/2+y,z
1/2-x,1/2-y,z
1/2+x,1/2-y,-z
1/2-x,1/2+y,-z
1/2-x,1/2-y,-z
1/2+x,1/2+y,-z
1/2-x,1/2+y,z
1/2+x,1/2-y,z
loop_
_atom_site_type_symbol
_atom_site_label
_atom_site_fract_x
_atom_site_fract_y
_atom_site_fract_z
Si Si1 0.403160 0.851159 0.263050
Si Si2 0.122275 0.902819 0.933752
Si Si3 0.429282 0.716980 0.566543
Si Si4 0.856707 0.593836 0.853925
Si Si5 0.279946 0.846476 0.341485
Si Si6 0.500000 0.000000 0.303404
O O1 0.424267 0.750000 0.250000
O O2 0.398153 0.893301 0.201588
O O3 0.333653 0.844655 0.293107
O O4 0.445025 0.920115 0.298409
O O5 0.075530 0.821324 0.923581
O O6 0.183850 0.882816 0.896209
O O7 0.095807 0.000000 0.921292
O O8 0.138219 0.900882 0.000000
O O9 0.420692 0.702235 0.500000
O O10 0.500000 0.685628 0.582948
O O11 0.375609 0.669482 0.602711
O O12 0.870004 0.500000 0.880919
O O13 0.783752 0.597619 0.833414
O O14 0.250000 0.750000 0.348452
#
# Coordination Sequence:
#
# PCOD9513513 Si02
#       6
#    32  32  32  32  32   8
#     4  12  26  48  71 102 142 185 240 292 361 426
#     4  10  22  42  69 102 141 185 234 291 357 430
#     4  10  23  44  69 102 143 190 242 296 358 429
#     4  12  26  43  72 100 139 185 237 298 359 427
#     4  12  24  45  72 105 139 186 237 300 360 419
#     4  12  30  48  70 106 142 196 232 302 352 434
#
# _framework density 22.168386999999999
#
# number of rings (size 3 to 8) (size 9 to 14) (size 15 to 20)
#    0.000    0.762    4.762    1.429    4.000    3.048 
#    5.143    2.857    0.000    0.000    0.000    0.000 
#    0.000    0.000    0.000    0.000    0.000    0.000 
#
# Total GULP energy -234170.146655 kJ/mol
# GULP energy per Si atom -5575.479682 kJ/mol
# Density = 2.211793 g / cm^3
# Si number density = 22.168387 Si / 1000 Ang^3
#
#
#
# Elastic Constant Matrix: (Units=GPa)
#
#
# Indices 1 2 3 4 5 6 
#
# 1 94.4700 34.7488 24.2467 0.0000 0.0000 0.0000
# 2 34.7488 166.4063 31.1944 0.0000 0.0000 0.0000
# 3 24.2467 31.1944 63.9367 0.0000 0.0000 0.0000
# 4 0.0000 0.0000 0.0000 27.2367 0.0000 0.0000
# 5 0.0000 0.0000 0.0000 0.000010073.9245 0.0000
# 6 0.0000 0.0000 0.0000 0.0000 0.0000 9.3826
#
#
#
# Elastic Compliance Matrix: (Units=1/GPa)
#
#
# Indices 1 2 3 4 5 6 
#
# 1 0.012225 -0.001853 -0.003732 0.000000 0.000000 0.000000
# 2 -0.001853 0.006895 -0.002661 0.000000 0.000000 0.000000
# 3 -0.003732 -0.002661 0.018354 0.000000 0.000000 0.000000
# 4 0.000000 0.000000 0.000000 0.036715 0.000000 0.000000
# 5 0.000000 0.000000 0.000000 0.000000 0.000099 0.000000
# 6 0.000000 0.000000 0.000000 0.000000 0.000000 0.106580
#
#
# Mechanical properties :
#
#
# Convention : Reuss Voigt Hill
#
# Bulk Modulus (GPa) = 47.66123 56.13253 51.89688
# Shear Modulus (GPa) = 24.46721 2037.75030 1031.10875
#
# Velocity S-wave (km/s) = 3.32580 30.35144 21.59017
# Velocity P-wave (km/s) = 6.02447 35.40701 25.39636
#
# Compressibility (1/GPa) = 0.02098141
#
# Stress axis : x y z
#
# Youngs Moduli (GPa) = 81.80057 145.02689 54.48356
#
# Poissons Ratio (x) = 0.26877 0.20332
# Poissons Ratio (y) = 0.15159 0.14500
# Poissons Ratio (z) = 0.30527 0.38597
#
# Static dielectric constant tensor:
#      x y z
#    x 1.811290 0.000000 0.000000 
#    y 0.000000 1.870430 0.000000 
#    z 0.000000 0.000000 1.798740 
# 
# From -- ./inp_files/37847.got.cif
#   From: 2010.05.17/outbox.cif.g08.bks.cpg/sg69_19_cif.got.tgz:37847.got - 2010.06.03 19:29:58.
