data_PCOD9513045
_publ_section_title
;
Structure prediction by ZEFSAII (Michael W. Deem and Ramdas Pophale) SiO2 
 PCOD9513045
Probable space group: F M M M
;
_chemical_formula_sum "Si O2"
_cell_formula_units_Z 168
_cell_length_a 22.987673
_cell_length_b 13.706294
_cell_length_c 29.851191
_cell_angle_alpha 90.000000
_cell_angle_beta 90.000000
_cell_angle_gamma 90.000000
_cell_volume 9405.388020
_symmetry_space_group_name_H-M "F M M M"
_symmetry_group_IT_number 69
_symmetry_cell_setting 'orthorhombic'
loop_
_space_group_symop_operation_xyz
x,y,z
-x,-y,z
x,-y,-z
-x,y,-z
-x,-y,-z
x,y,-z
-x,y,z
x,-y,z
x,1/2+y,1/2+z
-x,1/2-y,1/2+z
x,1/2-y,1/2-z
-x,1/2+y,1/2-z
-x,1/2-y,1/2-z
x,1/2+y,1/2-z
-x,1/2+y,1/2+z
x,1/2-y,1/2+z
1/2+x,y,1/2+z
1/2-x,-y,1/2+z
1/2+x,-y,1/2-z
1/2-x,y,1/2-z
1/2-x,-y,1/2-z
1/2+x,y,1/2-z
1/2-x,y,1/2+z
1/2+x,-y,1/2+z
1/2+x,1/2+y,z
1/2-x,1/2-y,z
1/2+x,1/2-y,-z
1/2-x,1/2+y,-z
1/2-x,1/2-y,-z
1/2+x,1/2+y,-z
1/2-x,1/2+y,z
1/2+x,1/2-y,z
loop_
_atom_site_type_symbol
_atom_site_label
_atom_site_fract_x
_atom_site_fract_y
_atom_site_fract_z
Si Si1 0.680007 0.387459 0.817137
Si Si2 0.659703 0.308959 0.551625
Si Si3 0.785439 0.387771 0.420068
Si Si4 0.068644 0.113829 0.376598
Si Si5 0.250000 0.250000 0.750000
Si Si6 0.932681 0.226047 0.802309
O O1 0.685762 0.500000 0.804004
O O2 0.707320 0.375552 0.866531
O O3 0.711400 0.317736 0.781931
O O4 0.612840 0.354939 0.817884
O O5 0.646637 0.330181 0.500000
O O6 0.719630 0.362941 0.565535
O O7 0.673790 0.194079 0.557783
O O8 0.608919 0.343641 0.584384
O O9 0.799258 0.500000 0.431390
O O10 0.078589 0.177690 0.332066
O O11 0.000000 0.121602 0.387711
O O12 0.082204 0.000000 0.369256
O O13 0.924549 0.250000 0.750000
O O14 0.000000 0.197283 0.808896
#
# Coordination Sequence:
#
# PCOD9513045 Si02
#       6
#    32  32  32  32   8  32
#     4  11  23  38  60  86 116 161 199 236 295 349
#     4  11  22  37  61  89 116 153 196 241 294 349
#     4  10  21  37  56  83 118 153 192 236 289 349
#     4  10  22  40  61  86 119 156 192 240 301 353
#     4  12  22  40  54  86 130 152 190 246 288 354
#     4  10  21  40  62  86 117 153 199 249 290 342
#
# _framework density 17.862100999999999
#
# number of rings (size 3 to 8) (size 9 to 14) (size 15 to 20)
#    0.000    1.524    2.857    3.143    0.000    4.190 
#    0.000    2.857    0.000    0.571    0.000    1.333 
#    0.000    0.000    0.000    0.000    0.000    0.000 
#
# Total GULP energy -234600.097614 kJ/mol
# GULP energy per Si atom -5585.716610 kJ/mol
# Density = 1.782145 g / cm^3
# Si number density = 17.862101 Si / 1000 Ang^3
#
#
#
# Elastic Constant Matrix: (Units=GPa)
#
#
# Indices 1 2 3 4 5 6 
#
# 1 67.9386 51.7426 61.5701 0.0000 0.0000 0.0000
# 2 51.7426 113.0022 58.9606 0.0000 0.0000 0.0000
# 3 61.5701 58.9606 134.4867 0.0000 0.0000 0.0000
# 4 0.0000 0.0000 0.0000 9.3794 0.0000 0.0000
# 5 0.0000 0.0000 0.0000 0.0000 68.8822 0.0000
# 6 0.0000 0.0000 0.0000 0.0000 0.0000 20.6101
#
#
#
# Elastic Compliance Matrix: (Units=1/GPa)
#
#
# Indices 1 2 3 4 5 6 
#
# 1 0.030560 -0.008678 -0.010186 0.000000 0.000000 0.000000
# 2 -0.008678 0.013939 -0.002138 0.000000 0.000000 0.000000
# 3 -0.010186 -0.002138 0.013036 0.000000 0.000000 0.000000
# 4 0.000000 0.000000 0.000000 0.106617 0.000000 0.000000
# 5 0.000000 0.000000 0.000000 0.000000 0.014518 0.000000
# 6 0.000000 0.000000 0.000000 0.000000 0.000000 0.048520
#
#
# Mechanical properties :
#
#
# Convention : Reuss Voigt Hill
#
# Bulk Modulus (GPa) = 64.39019 73.33047 68.86033
# Shear Modulus (GPa) = 18.22355 29.31795 23.77075
#
# Velocity S-wave (km/s) = 3.19758 4.05575 3.65196
# Velocity P-wave (km/s) = 7.05404 7.94197 7.51114
#
# Compressibility (1/GPa) = 0.01553032
#
# Stress axis : x y z
#
# Youngs Moduli (GPa) = 32.72252 71.74366 76.70910
#
# Poissons Ratio (x) = 0.62262 0.78137
# Poissons Ratio (y) = 0.28398 0.16398
# Poissons Ratio (z) = 0.33332 0.15337
#
# Static dielectric constant tensor:
#      x y z
#    x 1.600450 0.000000 0.000000 
#    y 0.000000 1.602020 0.000000 
#    z 0.000000 0.000000 1.590350 
# 
# From -- ./inp_files/40976.got.cif
#   From: 2010.05.17/outbox.cif.g08.bks.cpg/sg69_21_cif.got.tgz:40976.got - 2010.06.03 19:29:58.
