data_PCOD9513910
_publ_section_title
;
Structure prediction by ZEFSAII (Michael W. Deem and Ramdas Pophale) SiO2 
 PCOD9513910
Probable space group: F M M M
;
_chemical_formula_sum "Si O2"
_cell_formula_units_Z 112
_cell_length_a 16.758678
_cell_length_b 24.037452
_cell_length_c 13.489007
_cell_angle_alpha 90.000000
_cell_angle_beta 90.000000
_cell_angle_gamma 90.000000
_cell_volume 5433.856518
_symmetry_space_group_name_H-M "F M M M"
_symmetry_group_IT_number 69
_symmetry_cell_setting 'orthorhombic'
loop_
_space_group_symop_operation_xyz
x,y,z
-x,-y,z
x,-y,-z
-x,y,-z
-x,-y,-z
x,y,-z
-x,y,z
x,-y,z
x,1/2+y,1/2+z
-x,1/2-y,1/2+z
x,1/2-y,1/2-z
-x,1/2+y,1/2-z
-x,1/2-y,1/2-z
x,1/2+y,1/2-z
-x,1/2+y,1/2+z
x,1/2-y,1/2+z
1/2+x,y,1/2+z
1/2-x,-y,1/2+z
1/2+x,-y,1/2-z
1/2-x,y,1/2-z
1/2-x,-y,1/2-z
1/2+x,y,1/2-z
1/2-x,y,1/2+z
1/2+x,-y,1/2+z
1/2+x,1/2+y,z
1/2-x,1/2-y,z
1/2+x,1/2-y,-z
1/2-x,1/2+y,-z
1/2-x,1/2-y,-z
1/2+x,1/2+y,-z
1/2-x,1/2+y,z
1/2+x,1/2-y,z
loop_
_atom_site_type_symbol
_atom_site_label
_atom_site_fract_x
_atom_site_fract_y
_atom_site_fract_z
Si Si1 0.905739 0.354874 0.892364
Si Si2 0.406852 0.272847 0.116702
Si Si3 0.664008 0.618515 0.799791
Si Si4 0.093528 0.433540 0.500000
O O1 0.879184 0.290951 0.874333
O O2 0.890410 0.391874 0.796703
O O3 0.000000 0.349910 0.902077
O O4 0.872732 0.373404 0.000000
O O5 0.500000 0.278581 0.150152
O O6 0.351502 0.317480 0.169118
O O7 0.406724 0.285418 0.000000
O O8 0.750000 0.609942 0.750000
O O9 0.638110 0.586236 0.899228
O O10 0.091967 0.500000 0.500000
O O11 0.000000 0.413610 0.500000
#
# Coordination Sequence:
#
# PCOD9513910 Si02
#       4
#    32  32  32  16
#     4   9  19  34  56  88 129 176 217 246 290 364
#     4   9  17  33  57  86 124 176 224 253 282 349
#     4  12  24  36  62  92 128 158 198 260 326 366
#     4  11  26  50  76  93 109 155 221 268 311 380
#
# _framework density 20.611512999999999
#
# number of rings (size 3 to 8) (size 9 to 14) (size 15 to 20)
#    0.000    1.857    1.429    5.143    2.000    5.143 
#    0.000    2.857    0.000    0.000    0.000    4.000 
#    0.000    0.000    0.000    0.000    0.000    0.000 
#
# Total GULP energy -156047.226264 kJ/mol
# GULP energy per Si atom -5573.115224 kJ/mol
# Density = 2.056460 g / cm^3
# Si number density = 20.611513 Si / 1000 Ang^3
#
#
#
# Elastic Constant Matrix: (Units=GPa)
#
#
# Indices 1 2 3 4 5 6 
#
# 1 70.8493 26.8853 62.6244 0.0000 0.0000 0.0000
# 2 26.8853 4.7805 84.8337 0.0000 0.0000 0.0000
# 3 62.6244 84.8337 202.8873 0.0000 0.0000 0.0000
# 4 0.0000 0.0000 0.0000 19.2518 0.0000 0.0000
# 5 0.0000 0.0000 0.0000 0.0000 33.1730 0.0000
# 6 0.0000 0.0000 0.0000 0.0000 0.0000 37.6622
#
#
#
# Elastic Compliance Matrix: (Units=1/GPa)
#
#
# Indices 1 2 3 4 5 6 
#
# 1 0.019404 0.000443 -0.006174 0.000000 0.000000 0.000000
# 2 0.000443 -0.032573 0.013483 0.000000 0.000000 0.000000
# 3 -0.006174 0.013483 0.001197 0.000000 0.000000 0.000000
# 4 0.000000 0.000000 0.000000 0.051943 0.000000 0.000000
# 5 0.000000 0.000000 0.000000 0.000000 0.030145 0.000000
# 6 0.000000 0.000000 0.000000 0.000000 0.000000 0.026552
#
#
# Mechanical properties :
#
#
# Convention : Reuss Voigt Hill
#
# Bulk Modulus (GPa) = 283.21086 69.68933 176.45010
# Shear Modulus (GPa) = 60.72135 24.96231 42.84183
#
# Velocity S-wave (km/s) = 5.43359 3.48384 4.56405
# Velocity P-wave (km/s) = 13.30668 7.07581 10.65680
#
# Compressibility (1/GPa) = 0.00353094
#
# Stress axis : x y z
#
# Youngs Moduli (GPa) = 51.53523 -30.70070 835.41451
#
# Poissons Ratio (x) = 0.01359 5.15825
# Poissons Ratio (y) = -0.02281 -11.26391
# Poissons Ratio (z) = 0.31820 0.41394
#
# Static dielectric constant tensor:
#      x y z
#    x 1.826910 0.000000 0.000000 
#    y 0.000000 1.720330 0.000000 
#    z 0.000000 0.000000 1.803750 
# 
# From -- ./inp_files/14288.got.cif
#   From: 2010.05.17/outbox.cif.g08.bks.cpg/sg69_8_cif.got.tgz:14288.got - 2010.06.03 19:29:58.
