data_PCOD9513273
_publ_section_title
;
Structure prediction by ZEFSAII (Michael W. Deem and Ramdas Pophale) SiO2 
 PCOD9513273
Probable space group: F M M M
;
_chemical_formula_sum "Si O2"
_cell_formula_units_Z 136
_cell_length_a 17.130841
_cell_length_b 20.752900
_cell_length_c 19.613688
_cell_angle_alpha 90.000000
_cell_angle_beta 90.000000
_cell_angle_gamma 90.000000
_cell_volume 6972.953036
_symmetry_space_group_name_H-M "F M M M"
_symmetry_group_IT_number 69
_symmetry_cell_setting 'orthorhombic'
loop_
_space_group_symop_operation_xyz
x,y,z
-x,-y,z
x,-y,-z
-x,y,-z
-x,-y,-z
x,y,-z
-x,y,z
x,-y,z
x,1/2+y,1/2+z
-x,1/2-y,1/2+z
x,1/2-y,1/2-z
-x,1/2+y,1/2-z
-x,1/2-y,1/2-z
x,1/2+y,1/2-z
-x,1/2+y,1/2+z
x,1/2-y,1/2+z
1/2+x,y,1/2+z
1/2-x,-y,1/2+z
1/2+x,-y,1/2-z
1/2-x,y,1/2-z
1/2-x,-y,1/2-z
1/2+x,y,1/2-z
1/2-x,y,1/2+z
1/2+x,-y,1/2+z
1/2+x,1/2+y,z
1/2-x,1/2-y,z
1/2+x,1/2-y,-z
1/2-x,1/2+y,-z
1/2-x,1/2-y,-z
1/2+x,1/2+y,-z
1/2-x,1/2+y,z
1/2+x,1/2-y,z
loop_
_atom_site_type_symbol
_atom_site_label
_atom_site_fract_x
_atom_site_fract_y
_atom_site_fract_z
Si Si1 0.586624 0.611625 0.637821
Si Si2 0.161955 0.000000 0.723077
Si Si3 0.656526 0.248373 0.170235
Si Si4 0.000000 0.412175 0.000000
Si Si5 0.407390 0.500000 0.129236
Si Si6 0.594396 0.362266 0.077382
O O1 0.500000 0.612878 0.671979
O O2 0.640959 0.562294 0.678110
O O3 0.622047 0.682828 0.638984
O O4 0.566656 0.589541 0.561026
O O5 0.250000 0.000000 0.750000
O O6 0.109275 0.000000 0.790709
O O7 0.634717 0.250000 0.250000
O O8 0.750000 0.250000 0.165638
O O9 0.624037 0.309707 0.130288
O O10 0.500000 0.500000 0.116821
O O11 0.376784 0.566243 0.096867
O O12 0.500000 0.362378 0.079688
O O13 0.617834 0.346134 0.000000
#
# Coordination Sequence:
#
# PCOD9513273 Si02
#       6
#    32  16  32   8  16  32
#     4  10  23  44  70  97 135 184 239 286 344 427
#     4  12  26  39  69 100 136 175 218 291 354 411
#     4  11  25  40  62  96 140 180 226 288 353 410
#     4   8  24  45  76  96 136 177 260 274 354 411
#     4  10  21  40  64  96 130 168 220 269 338 416
#     4  10  22  40  67  92 126 170 222 277 334 408
#
# _framework density 19.503931000000001
#
# number of rings (size 3 to 8) (size 9 to 14) (size 15 to 20)
#    0.706    0.941    0.000    3.529    8.235    6.588 
#    0.000    0.000    2.588    0.000    0.000    0.000 
#    0.000    0.000    0.000    0.000    0.000    0.000 
#
# Total GULP energy -189283.814932 kJ/mol
# GULP energy per Si atom -5567.171027 kJ/mol
# Density = 1.945954 g / cm^3
# Si number density = 19.503931 Si / 1000 Ang^3
#
#
#
# Elastic Constant Matrix: (Units=GPa)
#
#
# Indices 1 2 3 4 5 6 
#
# 1 64.4524 50.2010 40.8881 0.0000 0.0000 0.0000
# 2 50.2010 156.8885 71.0646 0.0000 0.0000 0.0000
# 3 40.8881 71.0646 154.5446 0.0000 0.0000 0.0000
# 4 0.0000 0.0000 0.0000 66.8259 0.0000 0.0000
# 5 0.0000 0.0000 0.0000 0.0000 16.5992 0.0000
# 6 0.0000 0.0000 0.0000 0.0000 0.0000 3.8618
#
#
#
# Elastic Compliance Matrix: (Units=1/GPa)
#
#
# Indices 1 2 3 4 5 6 
#
# 1 0.021883 -0.005532 -0.003246 0.000000 0.000000 0.000000
# 2 -0.005532 0.009449 -0.002881 0.000000 0.000000 0.000000
# 3 -0.003246 -0.002881 0.008654 0.000000 0.000000 0.000000
# 4 0.000000 0.000000 0.000000 0.014964 0.000000 0.000000
# 5 0.000000 0.000000 0.000000 0.000000 0.060244 0.000000
# 6 0.000000 0.000000 0.000000 0.000000 0.000000 0.258946
#
#
# Mechanical properties :
#
#
# Convention : Reuss Voigt Hill
#
# Bulk Modulus (GPa) = 59.99426 77.79920 68.89673
# Shear Modulus (GPa) = 12.40647 31.70618 22.05633
#
# Velocity S-wave (km/s) = 2.52484 4.03628 3.36648
# Velocity P-wave (km/s) = 6.27109 7.85479 7.10719
#
# Compressibility (1/GPa) = 0.01666826
#
# Stress axis : x y z
#
# Youngs Moduli (GPa) = 45.69709 105.82859 115.54797
#
# Poissons Ratio (x) = 0.58543 0.37506
# Poissons Ratio (y) = 0.25279 0.33295
# Poissons Ratio (z) = 0.14833 0.30494
#
# Static dielectric constant tensor:
#      x y z
#    x 1.673370 0.000000 0.000000 
#    y 0.000000 1.686290 0.000000 
#    z 0.000000 0.000000 1.657160 
# 
# From -- ./inp_files/22629.got.cif
#   From: 2010.05.17/outbox.cif.g08.bks.cpg/sg69_12_cif.got.tgz:22629.got - 2010.06.03 19:29:58.
