data_PCOD9513797
_publ_section_title
;
Structure prediction by ZEFSAII (Michael W. Deem and Ramdas Pophale) SiO2 
 PCOD9513797
Probable space group: F M M M
;
_chemical_formula_sum "Si O2"
_cell_formula_units_Z 120
_cell_length_a 14.228033
_cell_length_b 29.327690
_cell_length_c 14.280293
_cell_angle_alpha 90.000000
_cell_angle_beta 90.000000
_cell_angle_gamma 90.000000
_cell_volume 5958.814133
_symmetry_space_group_name_H-M "F M M M"
_symmetry_group_IT_number 69
_symmetry_cell_setting 'orthorhombic'
loop_
_space_group_symop_operation_xyz
x,y,z
-x,-y,z
x,-y,-z
-x,y,-z
-x,-y,-z
x,y,-z
-x,y,z
x,-y,z
x,1/2+y,1/2+z
-x,1/2-y,1/2+z
x,1/2-y,1/2-z
-x,1/2+y,1/2-z
-x,1/2-y,1/2-z
x,1/2+y,1/2-z
-x,1/2+y,1/2+z
x,1/2-y,1/2+z
1/2+x,y,1/2+z
1/2-x,-y,1/2+z
1/2+x,-y,1/2-z
1/2-x,y,1/2-z
1/2-x,-y,1/2-z
1/2+x,y,1/2-z
1/2-x,y,1/2+z
1/2+x,-y,1/2+z
1/2+x,1/2+y,z
1/2-x,1/2-y,z
1/2+x,1/2-y,-z
1/2-x,1/2+y,-z
1/2-x,1/2-y,-z
1/2+x,1/2+y,-z
1/2-x,1/2+y,z
1/2+x,1/2-y,z
loop_
_atom_site_type_symbol
_atom_site_label
_atom_site_fract_x
_atom_site_fract_y
_atom_site_fract_z
Si Si1 0.500000 0.383048 0.500000
Si Si2 0.810296 0.819232 0.500000
Si Si3 0.354420 0.109438 0.710743
Si Si4 0.000000 0.946947 0.680629
Si Si5 0.610525 0.133186 0.500000
Si Si6 0.608175 0.794070 0.810501
O O1 0.399652 0.355663 0.500000
O O2 0.500000 0.415091 0.589956
O O3 0.701321 0.833725 0.500000
O O4 0.827799 0.795180 0.598329
O O5 0.250000 0.105157 0.750000
O O6 0.412130 0.069283 0.758468
O O7 0.372501 0.107936 0.599405
O O8 0.384848 0.159531 0.749708
O O9 0.000000 0.000000 0.658506
O O10 0.500000 0.149100 0.500000
O O11 0.500000 0.790541 0.842641
O O12 0.630008 0.750000 0.750000
#
# Coordination Sequence:
#
# PCOD9513797 Si02
#       6
#     8  16  32  16  16  32
#     4  12  19  44  76 110 144 184 246 308 389 432
#     4  12  20  42  72 104 146 197 246 309 358 439
#     4  12  23  45  68  99 145 192 245 301 363 436
#     4  12  25  43  72 107 143 186 243 310 377 443
#     4  12  24  41  72 102 139 205 249 289 369 444
#     4  11  22  39  68 103 143 187 236 300 368 432
#
# _framework density 20.138235999999999
#
# number of rings (size 3 to 8) (size 9 to 14) (size 15 to 20)
#    0.000    0.267    9.333    0.200    0.000    2.133 
#    0.000    4.000    0.000    0.800    0.000    0.000 
#    0.000    0.000    0.000    0.000    0.000    0.000 
#
# Total GULP energy -167512.248386 kJ/mol
# GULP energy per Si atom -5583.741613 kJ/mol
# Density = 2.009240 g / cm^3
# Si number density = 20.138236 Si / 1000 Ang^3
#
#
#
# Elastic Constant Matrix: (Units=GPa)
#
#
# Indices 1 2 3 4 5 6 
#
# 1 185.6464 34.4648 47.3777 0.0000 0.0000 0.0000
# 2 34.4648 72.1271 9.1378 0.0000 0.0000 0.0000
# 3 47.3777 9.1378 142.1396 0.0000 0.0000 0.0000
# 4 0.0000 0.0000 0.0000 14.1674 0.0000 0.0000
# 5 0.0000 0.0000 0.0000 0.0000 96.4132 0.0000
# 6 0.0000 0.0000 0.0000 0.0000 0.0000 17.9926
#
#
#
# Elastic Compliance Matrix: (Units=1/GPa)
#
#
# Indices 1 2 3 4 5 6 
#
# 1 0.006408 -0.002814 -0.001955 0.000000 0.000000 0.000000
# 2 -0.002814 0.015214 -0.000040 0.000000 0.000000 0.000000
# 3 -0.001955 -0.000040 0.007690 0.000000 0.000000 0.000000
# 4 0.000000 0.000000 0.000000 0.070584 0.000000 0.000000
# 5 0.000000 0.000000 0.000000 0.000000 0.010372 0.000000
# 6 0.000000 0.000000 0.000000 0.000000 0.000000 0.055578
#
#
# Mechanical properties :
#
#
# Convention : Reuss Voigt Hill
#
# Bulk Modulus (GPa) = 50.77900 64.65265 57.71582
# Shear Modulus (GPa) = 27.46811 46.31018 36.88914
#
# Velocity S-wave (km/s) = 3.69721 4.80063 4.28459
# Velocity P-wave (km/s) = 6.59514 7.93109 7.29377
#
# Compressibility (1/GPa) = 0.01969318
#
# Stress axis : x y z
#
# Youngs Moduli (GPa) = 156.05588 65.72794 130.04686
#
# Poissons Ratio (x) = 0.18498 0.25424
# Poissons Ratio (y) = 0.43918 0.00521
# Poissons Ratio (z) = 0.30508 0.00263
#
# Static dielectric constant tensor:
#      x y z
#    x 1.887290 0.000000 0.000000 
#    y 0.000000 1.688880 0.000000 
#    z 0.000000 0.000000 1.721870 
# 
# From -- ./inp_files/14477.got.cif
#   From: 2010.05.17/outbox.cif.g08.bks.cpg/sg69_8_cif.got.tgz:14477.got - 2010.06.03 19:29:58.
