data_PCOD9513001
_publ_section_title
;
Structure prediction by ZEFSAII (Michael W. Deem and Ramdas Pophale) SiO2 
 PCOD9513001
Probable space group: F M M M
;
_chemical_formula_sum "Si O2"
_cell_formula_units_Z 160
_cell_length_a 19.921416
_cell_length_b 13.932347
_cell_length_c 23.421265
_cell_angle_alpha 90.000000
_cell_angle_beta 90.000000
_cell_angle_gamma 90.000000
_cell_volume 6500.620827
_symmetry_space_group_name_H-M "F M M M"
_symmetry_group_IT_number 69
_symmetry_cell_setting 'orthorhombic'
loop_
_space_group_symop_operation_xyz
x,y,z
-x,-y,z
x,-y,-z
-x,y,-z
-x,-y,-z
x,y,-z
-x,y,z
x,-y,z
x,1/2+y,1/2+z
-x,1/2-y,1/2+z
x,1/2-y,1/2-z
-x,1/2+y,1/2-z
-x,1/2-y,1/2-z
x,1/2+y,1/2-z
-x,1/2+y,1/2+z
x,1/2-y,1/2+z
1/2+x,y,1/2+z
1/2-x,-y,1/2+z
1/2+x,-y,1/2-z
1/2-x,y,1/2-z
1/2-x,-y,1/2-z
1/2+x,y,1/2-z
1/2-x,y,1/2+z
1/2+x,-y,1/2+z
1/2+x,1/2+y,z
1/2-x,1/2-y,z
1/2+x,1/2-y,-z
1/2-x,1/2+y,-z
1/2-x,1/2-y,-z
1/2+x,1/2+y,-z
1/2-x,1/2+y,z
1/2+x,1/2-y,z
loop_
_atom_site_type_symbol
_atom_site_label
_atom_site_fract_x
_atom_site_fract_y
_atom_site_fract_z
Si Si1 0.854377 0.700857 0.064207
Si Si2 0.118263 0.886504 0.793909
Si Si3 0.397050 0.608285 0.325884
Si Si4 0.425953 0.611257 0.918191
Si Si5 0.250590 0.610294 0.856794
O O1 0.904788 0.663024 0.114255
O O2 0.868940 0.814495 0.062930
O O3 0.782963 0.662837 0.088573
O O4 0.864872 0.664068 0.000000
O O5 0.084317 0.850953 0.735625
O O6 0.073059 0.882166 0.849689
O O7 0.188792 0.845581 0.819770
O O8 0.130434 0.000000 0.782852
O O9 0.421803 0.500000 0.333556
O O10 0.315812 0.605369 0.318157
O O11 0.500000 0.637961 0.939183
O O12 0.413160 0.500000 0.933016
O O13 0.269076 0.500000 0.872185
#
# Coordination Sequence:
#
# PCOD9513001 Si02
#       5
#    32  32  32  32  32
#     4  10  21  36  56  85 119 153 193 240 290 348
#     4   9  16  33  60  91 122 151 190 235 286 352
#     4   8  16  31  58  93 125 157 184 217 282 363
#     4  10  23  42  62  81 105 148 206 264 310 345
#     4   8  16  31  58  93 125 155 182 221 283 360
#
# _framework density 24.613033999999999
#
# number of rings (size 3 to 8) (size 9 to 14) (size 15 to 20)
#    1.200    1.800    0.000    0.600    0.000    6.400 
#    0.000    5.000    4.400    7.200    0.000    5.600 
#    0.000    0.000    0.000    0.400    0.000    0.000 
#
# Total GULP energy -222690.221290 kJ/mol
# GULP energy per Si atom -5567.255532 kJ/mol
# Density = 2.455701 g / cm^3
# Si number density = 24.613034 Si / 1000 Ang^3
#
#
#
# Elastic Constant Matrix: (Units=GPa)
#
#
# Indices 1 2 3 4 5 6 
#
# 1 98.9161 17.5389 13.8017 0.0000 0.0000 0.0000
# 2 17.5389 134.4037 50.9900 0.0000 0.0000 0.0000
# 3 13.8017 50.9900 238.7515 0.0000 0.0000 0.0000
# 4 0.0000 0.0000 0.0000 20.3865 0.0000 0.0000
# 5 0.0000 0.0000 0.0000 0.0000 -46.8857 0.0000
# 6 0.0000 0.0000 0.0000 0.0000 0.0000 -12.5709
#
#
#
# Elastic Compliance Matrix: (Units=1/GPa)
#
#
# Indices 1 2 3 4 5 6 
#
# 1 0.010374 -0.001226 -0.000338 0.000000 0.000000 0.000000
# 2 -0.001226 0.008241 -0.001689 0.000000 0.000000 0.000000
# 3 -0.000338 -0.001689 0.004569 0.000000 0.000000 0.000000
# 4 0.000000 0.000000 0.000000 0.049052 0.000000 0.000000
# 5 0.000000 0.000000 0.000000 0.000000 -0.021328 0.000000
# 6 0.000000 0.000000 0.000000 0.000000 0.000000 -0.079549
#
#
# Mechanical properties :
#
#
# Convention : Reuss Voigt Hill
#
# Bulk Modulus (GPa) = 59.95761 70.74807 65.35284
# Shear Modulus (GPa) = -301.62852 18.16870 -141.72991
#
# Velocity S-wave (km/s) = -11.08216 2.71988 -7.59660
# Velocity P-wave (km/s) = 11.80421 6.21854 7.09469
#
# Compressibility (1/GPa) = 0.01667845
#
# Stress axis : x y z
#
# Youngs Moduli (GPa) = 96.39453 121.34390 218.87819
#
# Poissons Ratio (x) = 0.14871 0.07397
# Poissons Ratio (y) = 0.11813 0.36973
# Poissons Ratio (z) = 0.03258 0.20497
#
# Static dielectric constant tensor:
#      x y z
#    x 1.923660 0.000000 0.000000 
#    y 0.000000 2.014710 0.000000 
#    z 0.000000 0.000000 2.012000 
# 
# From -- ./inp_files/37769.got.cif
#   From: 2010.05.17/outbox.cif.g08.bks.cpg/sg69_19_cif.got.tgz:37769.got - 2010.06.03 19:29:58.
