data_PCOD9513126
_publ_section_title
;
Structure prediction by ZEFSAII (Michael W. Deem and Ramdas Pophale) SiO2 
 PCOD9513126
Probable space group: F M M M
;
_chemical_formula_sum "Si O2"
_cell_formula_units_Z 160
_cell_length_a 30.709016
_cell_length_b 8.605833
_cell_length_c 30.692650
_cell_angle_alpha 90.000000
_cell_angle_beta 90.000000
_cell_angle_gamma 90.000000
_cell_volume 8111.351130
_symmetry_space_group_name_H-M "F M M M"
_symmetry_group_IT_number 69
_symmetry_cell_setting 'orthorhombic'
loop_
_space_group_symop_operation_xyz
x,y,z
-x,-y,z
x,-y,-z
-x,y,-z
-x,-y,-z
x,y,-z
-x,y,z
x,-y,z
x,1/2+y,1/2+z
-x,1/2-y,1/2+z
x,1/2-y,1/2-z
-x,1/2+y,1/2-z
-x,1/2-y,1/2-z
x,1/2+y,1/2-z
-x,1/2+y,1/2+z
x,1/2-y,1/2+z
1/2+x,y,1/2+z
1/2-x,-y,1/2+z
1/2+x,-y,1/2-z
1/2-x,y,1/2-z
1/2-x,-y,1/2-z
1/2+x,y,1/2-z
1/2-x,y,1/2+z
1/2+x,-y,1/2+z
1/2+x,1/2+y,z
1/2-x,1/2-y,z
1/2+x,1/2-y,-z
1/2-x,1/2+y,-z
1/2-x,1/2-y,-z
1/2+x,1/2+y,-z
1/2-x,1/2+y,z
1/2+x,1/2-y,z
loop_
_atom_site_type_symbol
_atom_site_label
_atom_site_fract_x
_atom_site_fract_y
_atom_site_fract_z
Si Si1 0.000000 0.813307 0.798451
Si Si2 0.296402 0.813263 0.105436
Si Si3 0.884354 0.817923 0.072804
Si Si4 0.320428 0.683174 0.703595
Si Si5 0.411425 0.684190 0.663814
Si Si6 0.948859 0.686300 0.000000
O O1 0.000000 0.750000 0.750000
O O2 0.957251 0.742149 0.819800
O O3 0.000000 0.000000 0.800261
O O4 0.250000 0.750000 0.090570
O O5 0.335877 0.754913 0.075001
O O6 0.302730 0.758919 0.156412
O O7 0.297559 0.000000 0.106074
O O8 0.900510 0.782991 0.121396
O O9 0.881342 0.000000 0.063520
O O10 0.920048 0.743603 0.040836
O O11 0.311499 0.500000 0.704789
O O12 0.305423 0.750000 0.750000
O O13 0.372471 0.707123 0.698314
O O14 0.411592 0.500000 0.653054
O O15 0.949913 0.500000 0.000000
O O16 0.000000 0.739493 0.000000
#
# Coordination Sequence:
#
# PCOD9513126 Si02
#       6
#    16  32  32  32  32  16
#     4  12  24  36  52  79 112 153 204 256 304 360
#     4  10  21  39  61  88 122 163 209 254 309 369
#     4  11  23  41  65  94 126 159 199 250 305 366
#     4   9  19  33  52  78 112 154 201 252 302 355
#     4  10  21  38  57  79 113 157 202 250 305 364
#     4  11  25  45  70  97 128 165 201 243 300 362
#
# _framework density 19.725445000000001
#
# number of rings (size 3 to 8) (size 9 to 14) (size 15 to 20)
#    0.000    1.700    0.000    6.000    1.400    7.600 
#    0.000    2.500    0.000    0.000    0.000    0.000 
#    0.000    0.000    0.000    0.000    0.000    0.000 
#
# Total GULP energy -223246.615610 kJ/mol
# GULP energy per Si atom -5581.165390 kJ/mol
# Density = 1.968055 g / cm^3
# Si number density = 19.725445 Si / 1000 Ang^3
#
#
#
# Elastic Constant Matrix: (Units=GPa)
#
#
# Indices 1 2 3 4 5 6 
#
# 1 164.8719 42.2059 33.0468 0.0001 0.0000 -0.0003
# 2 42.2059 78.5867 19.6579 0.0000 0.0000 -0.0002
# 3 33.0468 19.6579 61.6286 0.0000 0.0000 0.0000
# 4 0.0001 0.0000 0.0000 24.9354 0.0000 0.0000
# 5 0.0000 0.0000 0.0000 0.0000 3.3598 0.0000
# 6 -0.0003 -0.0002 0.0000 0.0000 0.0000 29.1951
#
#
#
# Elastic Compliance Matrix: (Units=1/GPa)
#
#
# Indices 1 2 3 4 5 6 
#
# 1 0.007503 -0.003285 -0.002975 0.000000 0.000000 0.000000
# 2 -0.003285 0.015267 -0.003108 0.000000 0.000000 0.000000
# 3 -0.002975 -0.003108 0.018813 0.000000 0.000000 0.000000
# 4 0.000000 0.000000 0.000000 0.040104 0.000000 0.000000
# 5 0.000000 0.000000 0.000000 0.000000 0.297638 0.000000
# 6 0.000000 0.000000 0.000000 0.000000 0.000000 0.034252
#
#
# Mechanical properties :
#
#
# Convention : Reuss Voigt Hill
#
# Bulk Modulus (GPa) = 43.77256 54.98984 49.38120
# Shear Modulus (GPa) = 11.36549 25.50981 18.43765
#
# Velocity S-wave (km/s) = 2.40299 3.60007 3.06063
# Velocity P-wave (km/s) = 5.47158 6.72449 6.13013
#
# Compressibility (1/GPa) = 0.02284536
#
# Stress axis : x y z
#
# Youngs Moduli (GPa) = 133.28644 65.50250 53.15467
#
# Poissons Ratio (x) = 0.21519 0.15815
# Poissons Ratio (y) = 0.43787 0.16521
# Poissons Ratio (z) = 0.39656 0.20359
#
# Static dielectric constant tensor:
#      x y z
#    x 1.886010 0.000000 0.000000 
#    y 0.000000 1.675970 0.000000 
#    z 0.000000 0.000000 1.684300 
# 
# From -- ./inp_files/47489.got.cif
#   From: 2010.05.17/outbox.cif.g08.bks.cpg/sg69_24_cif.got.tgz:47489.got - 2010.06.03 19:29:58.
