data_PCOD9513639
_publ_section_title
;
Structure prediction by ZEFSAII (Michael W. Deem and Ramdas Pophale) SiO2 
 PCOD9513639
Probable space group: F M M M
;
_chemical_formula_sum "Si O2"
_cell_formula_units_Z 168
_cell_length_a 21.349913
_cell_length_b 28.300785
_cell_length_c 15.860511
_cell_angle_alpha 90.000000
_cell_angle_beta 90.000000
_cell_angle_gamma 90.000000
_cell_volume 9583.226816
_symmetry_space_group_name_H-M "F M M M"
_symmetry_group_IT_number 69
_symmetry_cell_setting 'orthorhombic'
loop_
_space_group_symop_operation_xyz
x,y,z
-x,-y,z
x,-y,-z
-x,y,-z
-x,-y,-z
x,y,-z
-x,y,z
x,-y,z
x,1/2+y,1/2+z
-x,1/2-y,1/2+z
x,1/2-y,1/2-z
-x,1/2+y,1/2-z
-x,1/2-y,1/2-z
x,1/2+y,1/2-z
-x,1/2+y,1/2+z
x,1/2-y,1/2+z
1/2+x,y,1/2+z
1/2-x,-y,1/2+z
1/2+x,-y,1/2-z
1/2-x,y,1/2-z
1/2-x,-y,1/2-z
1/2+x,y,1/2-z
1/2-x,y,1/2+z
1/2+x,-y,1/2+z
1/2+x,1/2+y,z
1/2-x,1/2-y,z
1/2+x,1/2-y,-z
1/2-x,1/2+y,-z
1/2-x,1/2-y,-z
1/2+x,1/2+y,-z
1/2-x,1/2+y,z
1/2+x,1/2-y,z
loop_
_atom_site_type_symbol
_atom_site_label
_atom_site_fract_x
_atom_site_fract_y
_atom_site_fract_z
Si Si1 0.000000 0.844211 0.500000
Si Si2 0.388006 0.172699 0.863577
Si Si3 0.073844 0.229979 0.904384
Si Si4 0.427715 0.055093 0.601211
Si Si5 0.751535 0.193655 0.096773
Si Si6 0.865720 0.642403 0.321725
O O1 0.943842 0.842432 0.573828
O O2 0.399412 0.228595 0.847157
O O3 0.317979 0.172349 0.900389
O O4 0.384842 0.145761 0.775506
O O5 0.090191 0.178457 0.873337
O O6 0.000000 0.236238 0.907288
O O7 0.097285 0.238260 0.000000
O O8 0.423495 0.059794 0.500000
O O9 0.500000 0.066957 0.624831
O O10 0.379129 0.090422 0.643854
O O11 0.417298 0.000000 0.621984
O O12 0.750000 0.250000 0.117786
O O13 0.797535 0.164464 0.157858
O O14 0.774672 0.189936 0.000000
#
# Coordination Sequence:
#
# PCOD9513639 Si02
#       6
#     8  32  32  32  32  32
#     4  12  24  44  56  72 123 178 207 238 302 358
#     4  12  23  38  54  78 117 164 208 245 289 353
#     4  11  20  33  48  75 118 157 195 238 291 350
#     4   9  19  38  60  87 123 157 193 248 322 379
#     4  11  22  38  56  80 121 168 204 247 303 364
#     4  12  24  32  59  90 115 148 206 257 295 357
#
# _framework density 17.530629999999999
#
# number of rings (size 3 to 8) (size 9 to 14) (size 15 to 20)
#    0.000    0.952    4.762    4.000    2.667    3.048 
#    0.000    0.000    0.000    2.286    0.000    1.333 
#    0.000    0.000    0.000    0.000    0.000    0.000 
#
# Total GULP energy -233890.079981 kJ/mol
# GULP energy per Si atom -5568.811428 kJ/mol
# Density = 1.749073 g / cm^3
# Si number density = 17.530630 Si / 1000 Ang^3
#
#
#
# Elastic Constant Matrix: (Units=GPa)
#
#
# Indices 1 2 3 4 5 6 
#
# 1 126.6533 37.2752 53.1701 0.0000 0.0000 0.0000
# 2 37.2752 68.3258 33.6469 0.0000 0.0000 0.0000
# 3 53.1701 33.6469 86.3587 0.0000 0.0000 0.0000
# 4 0.0000 0.0000 0.0000 24.2424 0.0000 0.0000
# 5 0.0000 0.0000 0.0000 0.0000 16.0668 0.0000
# 6 0.0000 0.0000 0.0000 0.0000 0.0000 19.8102
#
#
#
# Elastic Compliance Matrix: (Units=1/GPa)
#
#
# Indices 1 2 3 4 5 6 
#
# 1 0.011242 -0.003371 -0.005608 0.000000 0.000000 0.000000
# 2 -0.003371 0.019122 -0.005374 0.000000 0.000000 0.000000
# 3 -0.005608 -0.005374 0.017126 0.000000 0.000000 0.000000
# 4 0.000000 0.000000 0.000000 0.041250 0.000000 0.000000
# 5 0.000000 0.000000 0.000000 0.000000 0.062240 0.000000
# 6 0.000000 0.000000 0.000000 0.000000 0.000000 0.050479
#
#
# Mechanical properties :
#
#
# Convention : Reuss Voigt Hill
#
# Bulk Modulus (GPa) = 53.24141 58.83579 56.03860
# Shear Modulus (GPa) = 21.14809 22.50693 21.82751
#
# Velocity S-wave (km/s) = 3.47702 3.58699 3.53244
# Velocity P-wave (km/s) = 6.82320 7.12670 6.97660
#
# Compressibility (1/GPa) = 0.01878237
#
# Stress axis : x y z
#
# Youngs Moduli (GPa) = 88.95104 52.29671 58.38940
#
# Poissons Ratio (x) = 0.17632 0.32745
# Poissons Ratio (y) = 0.29990 0.31381
# Poissons Ratio (z) = 0.49884 0.28106
#
# Static dielectric constant tensor:
#      x y z
#    x 1.641340 0.000000 0.000000 
#    y 0.000000 1.572130 0.000000 
#    z 0.000000 0.000000 1.620740 
# 
# From -- ./inp_files/16926.got.cif
#   From: 2010.05.17/outbox.cif.g08.bks.cpg/sg69_9_cif.got.tgz:16926.got - 2010.06.03 19:29:58.
