data_PCOD9513728
_publ_section_title
;
Structure prediction by ZEFSAII (Michael W. Deem and Ramdas Pophale) SiO2 
 PCOD9513728
Probable space group: F M M M
;
_chemical_formula_sum "Si O2"
_cell_formula_units_Z 144
_cell_length_a 19.919953
_cell_length_b 17.772333
_cell_length_c 21.484734
_cell_angle_alpha 90.000000
_cell_angle_beta 90.000000
_cell_angle_gamma 90.000000
_cell_volume 7606.112287
_symmetry_space_group_name_H-M "F M M M"
_symmetry_group_IT_number 69
_symmetry_cell_setting 'orthorhombic'
loop_
_space_group_symop_operation_xyz
x,y,z
-x,-y,z
x,-y,-z
-x,y,-z
-x,-y,-z
x,y,-z
-x,y,z
x,-y,z
x,1/2+y,1/2+z
-x,1/2-y,1/2+z
x,1/2-y,1/2-z
-x,1/2+y,1/2-z
-x,1/2-y,1/2-z
x,1/2+y,1/2-z
-x,1/2+y,1/2+z
x,1/2-y,1/2+z
1/2+x,y,1/2+z
1/2-x,-y,1/2+z
1/2+x,-y,1/2-z
1/2-x,y,1/2-z
1/2-x,-y,1/2-z
1/2+x,y,1/2-z
1/2-x,y,1/2+z
1/2+x,-y,1/2+z
1/2+x,1/2+y,z
1/2-x,1/2-y,z
1/2+x,1/2-y,-z
1/2-x,1/2+y,-z
1/2-x,1/2-y,-z
1/2+x,1/2+y,-z
1/2-x,1/2+y,z
1/2+x,1/2-y,z
loop_
_atom_site_type_symbol
_atom_site_label
_atom_site_fract_x
_atom_site_fract_y
_atom_site_fract_z
Si Si1 0.308016 0.331804 0.073469
Si Si2 0.837051 0.661662 0.113054
Si Si3 0.420373 0.909555 0.000000
Si Si4 0.420729 0.090345 0.221216
Si Si5 0.573962 0.910197 0.634984
O O1 0.240286 0.363532 0.104757
O O2 0.329259 0.250940 0.101605
O O3 0.370169 0.384554 0.087651
O O4 0.295353 0.323172 0.000000
O O5 0.883354 0.625451 0.059597
O O6 0.871742 0.636796 0.176871
O O7 0.500000 0.892626 0.000000
O O8 0.413081 0.000000 0.000000
O O9 0.500000 0.103496 0.206808
O O10 0.410126 0.111192 0.293523
O O11 0.409573 0.000000 0.213697
O O12 0.500000 0.879867 0.619337
O O13 0.570446 0.000000 0.635316
#
# Coordination Sequence:
#
# PCOD9513728 Si02
#       5
#    32  32  16  32  32
#     4  11  23  41  58  79 119 162 197 236 283 337
#     4  11  21  39  58  82 120 155 187 235 290 348
#     4  11  22  35  56  88 118 147 186 231 284 348
#     4   9  19  38  62  88 119 149 184 241 302 351
#     4   9  21  41  61  84 114 149 197 250 291 336
#
# _framework density 18.932141999999999
#
# number of rings (size 3 to 8) (size 9 to 14) (size 15 to 20)
#    0.000    1.889    2.222    3.333    0.000    8.000 
#    0.000    7.778    0.000    0.000    0.000    0.000 
#    0.000    0.000    0.000    0.000    0.000    0.000 
#
# Total GULP energy -200911.305853 kJ/mol
# GULP energy per Si atom -5580.869607 kJ/mol
# Density = 1.888905 g / cm^3
# Si number density = 18.932142 Si / 1000 Ang^3
#
#
#
# Elastic Constant Matrix: (Units=GPa)
#
#
# Indices 1 2 3 4 5 6 
#
# 1 117.6668 31.8882 39.5975 0.0000 0.0000 0.0000
# 2 31.8882 22.5313 11.7651 0.0000 0.0000 0.0000
# 3 39.5975 11.7651 31.0540 0.0000 0.0000 0.0000
# 4 0.0000 0.0000 0.0000 36.4219 0.0000 0.0000
# 5 0.0000 0.0000 0.0000 0.0000 -1.4536 0.0000
# 6 0.0000 0.0000 0.0000 0.0000 0.0000 36.3755
#
#
#
# Elastic Compliance Matrix: (Units=1/GPa)
#
#
# Indices 1 2 3 4 5 6 
#
# 1 0.019456 -0.018177 -0.017922 0.000000 0.000000 0.000000
# 2 -0.018177 0.072311 -0.004218 0.000000 0.000000 0.000000
# 3 -0.017922 -0.004218 0.056652 0.000000 0.000000 0.000000
# 4 0.000000 0.000000 0.000000 0.027456 0.000000 0.000000
# 5 0.000000 0.000000 0.000000 0.000000 -0.687959 0.000000
# 6 0.000000 0.000000 0.000000 0.000000 0.000000 0.027491
#
#
# Mechanical properties :
#
#
# Convention : Reuss Voigt Hill
#
# Bulk Modulus (GPa) = 14.75238 37.52818 26.14028
# Shear Modulus (GPa) = -13.11079 20.13553 3.51237
#
# Velocity S-wave (km/s) = -2.63442 3.26477 1.36355
# Velocity P-wave (km/s) = 1.20184 5.83756 4.03935
#
# Compressibility (1/GPa) = 0.06778568
#
# Stress axis : x y z
#
# Youngs Moduli (GPa) = 51.39879 13.82920 17.65159
#
# Poissons Ratio (x) = 0.25138 0.31635
# Poissons Ratio (y) = 0.93429 0.07445
# Poissons Ratio (z) = 0.92115 0.05833
#
# Static dielectric constant tensor:
#      x y z
#    x 1.661470 0.000000 0.000000 
#    y 0.000000 1.659630 0.000000 
#    z 0.000000 0.000000 1.651360 
# 
# From -- ./inp_files/30726.got.cif
#   From: 2010.05.17/outbox.cif.g08.bks.cpg/sg69_16_cif.got.tgz:30726.got - 2010.06.03 19:29:58.
