data_PCOD9513643
_publ_section_title
;
Structure prediction by ZEFSAII (Michael W. Deem and Ramdas Pophale) SiO2 
 PCOD9513643
Probable space group: F M M M
;
_chemical_formula_sum "Si O2"
_cell_formula_units_Z 144
_cell_length_a 18.256440
_cell_length_b 15.479027
_cell_length_c 25.672347
_cell_angle_alpha 90.000000
_cell_angle_beta 90.000000
_cell_angle_gamma 90.000000
_cell_volume 7254.798027
_symmetry_space_group_name_H-M "F M M M"
_symmetry_group_IT_number 69
_symmetry_cell_setting 'orthorhombic'
loop_
_space_group_symop_operation_xyz
x,y,z
-x,-y,z
x,-y,-z
-x,y,-z
-x,-y,-z
x,y,-z
-x,y,z
x,-y,z
x,1/2+y,1/2+z
-x,1/2-y,1/2+z
x,1/2-y,1/2-z
-x,1/2+y,1/2-z
-x,1/2-y,1/2-z
x,1/2+y,1/2-z
-x,1/2+y,1/2+z
x,1/2-y,1/2+z
1/2+x,y,1/2+z
1/2-x,-y,1/2+z
1/2+x,-y,1/2-z
1/2-x,y,1/2-z
1/2-x,-y,1/2-z
1/2+x,y,1/2-z
1/2-x,y,1/2+z
1/2+x,-y,1/2+z
1/2+x,1/2+y,z
1/2-x,1/2-y,z
1/2+x,1/2-y,-z
1/2-x,1/2+y,-z
1/2-x,1/2-y,-z
1/2+x,1/2+y,-z
1/2-x,1/2+y,z
1/2+x,1/2-y,z
loop_
_atom_site_type_symbol
_atom_site_label
_atom_site_fract_x
_atom_site_fract_y
_atom_site_fract_z
Si Si1 0.587367 0.399381 0.000000
Si Si2 0.588494 0.500000 0.295945
Si Si3 0.412124 0.154035 0.873007
Si Si4 0.147235 0.660524 0.610407
Si Si5 0.411361 0.500000 0.176095
Si Si6 0.787785 0.102247 0.440682
O O1 0.613548 0.353630 0.947396
O O2 0.613155 0.500000 0.000000
O O3 0.500000 0.400863 0.000000
O O4 0.500000 0.500000 0.294930
O O5 0.609464 0.414163 0.327951
O O6 0.612791 0.500000 0.236309
O O7 0.500000 0.155620 0.877404
O O8 0.381040 0.250118 0.865920
O O9 0.370942 0.120049 0.924417
O O10 0.118930 0.583216 0.646294
O O11 0.233480 0.650100 0.599024
O O12 0.500000 0.500000 0.173467
O O13 0.774115 0.130178 0.500000
O O14 0.773104 0.000000 0.437129
#
# Coordination Sequence:
#
# PCOD9513643 Si02
#       6
#    16  16  32  32  16  32
#     4  11  20  34  57  89 136 170 199 249 313 391
#     4   9  22  45  66  89 127 173 222 276 320 364
#     4  11  24  43  66  93 129 172 222 270 315 378
#     4  12  23  39  63 100 134 166 209 262 331 389
#     4  11  22  40  68  97 128 171 219 269 328 385
#     4  11  23  42  65  92 132 178 212 259 322 388
#
# _framework density 19.848934
#
# number of rings (size 3 to 8) (size 9 to 14) (size 15 to 20)
#    0.000    1.000    4.444    2.667    1.556    2.222 
#    0.000    6.667    0.000    2.667    0.000    0.000 
#    0.000    0.000    0.000    0.000    0.000    0.000 
#
# Total GULP energy -201191.759445 kJ/mol
# GULP energy per Si atom -5588.659985 kJ/mol
# Density = 1.980376 g / cm^3
# Si number density = 19.848934 Si / 1000 Ang^3
#
#
#
# Elastic Constant Matrix: (Units=GPa)
#
#
# Indices 1 2 3 4 5 6 
#
# 1 92.2169 40.8939 42.3563 0.0000 0.0000 0.0000
# 2 40.8939 165.3859 83.2135 0.0000 0.0000 0.0000
# 3 42.3563 83.2135 125.4848 0.0000 0.0000 0.0000
# 4 0.0000 0.0000 0.0000 -4.2520 0.0000 0.0000
# 5 0.0000 0.0000 0.0000 0.0000 26.6661 0.0000
# 6 0.0000 0.0000 0.0000 0.0000 0.0000 27.9762
#
#
#
# Elastic Compliance Matrix: (Units=1/GPa)
#
#
# Indices 1 2 3 4 5 6 
#
# 1 0.013084 -0.001520 -0.003408 0.000000 0.000000 0.000000
# 2 -0.001520 0.009251 -0.005621 0.000000 0.000000 0.000000
# 3 -0.003408 -0.005621 0.012847 0.000000 0.000000 0.000000
# 4 0.000000 0.000000 0.000000 -0.235185 0.000000 0.000000
# 5 0.000000 0.000000 0.000000 0.000000 0.037501 0.000000
# 6 0.000000 0.000000 0.000000 0.000000 0.000000 0.035745
#
#
# Mechanical properties :
#
#
# Convention : Reuss Voigt Hill
#
# Bulk Modulus (GPa) = 71.01247 79.55720 75.28483
# Shear Modulus (GPa) = -49.52255 24.51965 -12.50145
#
# Velocity S-wave (km/s) = -5.00039 3.51852 -2.51236
# Velocity P-wave (km/s) = 1.58607 7.52828 5.44016
#
# Compressibility (1/GPa) = 0.01408203
#
# Stress axis : x y z
#
# Youngs Moduli (GPa) = 76.43186 108.09938 77.83825
#
# Poissons Ratio (x) = 0.16435 0.26528
# Poissons Ratio (y) = 0.11620 0.43755
# Poissons Ratio (z) = 0.26048 0.60766
#
# Static dielectric constant tensor:
#      x y z
#    x 1.726540 0.000000 0.000000 
#    y 0.000000 1.702910 0.000000 
#    z 0.000000 0.000000 1.659580 
# 
# From -- ./inp_files/46192.got.cif
#   From: 2010.05.17/outbox.cif.g08.bks.cpg/sg69_24_cif.got.tgz:46192.got - 2010.06.03 19:29:58.
