data_PCOD9513935
_publ_section_title
;
Structure prediction by ZEFSAII (Michael W. Deem and Ramdas Pophale) SiO2 
 PCOD9513935
Probable space group: F M M M
;
_chemical_formula_sum "Si O2"
_cell_formula_units_Z 160
_cell_length_a 7.389527
_cell_length_b 39.175146
_cell_length_c 28.350888
_cell_angle_alpha 90.000000
_cell_angle_beta 90.000000
_cell_angle_gamma 90.000000
_cell_volume 8207.179468
_symmetry_space_group_name_H-M "F M M M"
_symmetry_group_IT_number 69
_symmetry_cell_setting 'orthorhombic'
loop_
_space_group_symop_operation_xyz
x,y,z
-x,-y,z
x,-y,-z
-x,y,-z
-x,-y,-z
x,y,-z
-x,y,z
x,-y,z
x,1/2+y,1/2+z
-x,1/2-y,1/2+z
x,1/2-y,1/2-z
-x,1/2+y,1/2-z
-x,1/2-y,1/2-z
x,1/2+y,1/2-z
-x,1/2+y,1/2+z
x,1/2-y,1/2+z
1/2+x,y,1/2+z
1/2-x,-y,1/2+z
1/2+x,-y,1/2-z
1/2-x,y,1/2-z
1/2-x,-y,1/2-z
1/2+x,y,1/2-z
1/2-x,y,1/2+z
1/2+x,-y,1/2+z
1/2+x,1/2+y,z
1/2-x,1/2-y,z
1/2+x,1/2-y,-z
1/2-x,1/2+y,-z
1/2-x,1/2-y,-z
1/2+x,1/2+y,-z
1/2-x,1/2+y,z
1/2+x,1/2-y,z
loop_
_atom_site_type_symbol
_atom_site_label
_atom_site_fract_x
_atom_site_fract_y
_atom_site_fract_z
Si Si1 0.279237 0.855953 0.104052
Si Si2 0.283787 0.711756 0.446152
Si Si3 0.284388 0.106445 0.803899
Si Si4 0.279985 0.425256 0.552811
Si Si5 0.220797 0.961948 0.647744
O O1 0.500000 0.855112 0.104473
O O2 0.215573 0.819517 0.085242
O O3 0.218313 0.867293 0.156190
O O4 0.228710 0.887043 0.069201
O O5 0.213632 0.709764 0.500000
O O6 0.500000 0.707871 0.448845
O O7 0.250000 0.750000 0.428095
O O8 0.500000 0.105233 0.809732
O O9 0.250000 0.115300 0.750000
O O10 0.218202 0.068458 0.817763
O O11 0.217485 0.433042 0.500000
O O12 0.500000 0.425978 0.552113
O O13 0.225255 0.450647 0.594783
O O14 0.000000 0.962325 0.648539
O O15 0.282328 0.000000 0.659440
#
# Coordination Sequence:
#
# PCOD9513935 Si02
#       5
#    32  32  32  32  32
#     4   8  14  25  40  57  79 107 135 163 196 235
#     4   9  16  26  42  64  88 111 133 157 189 232
#     4   9  17  29  44  60  78 103 136 170 203 238
#     4   8  12  18  31  52  77 106 137 162 188 231
#     4   8  14  23  34  52  79 106 130 161 202 241
#
# _framework density 19.495127
#
# number of rings (size 3 to 8) (size 9 to 14) (size 15 to 20)
#    0.000    3.600    0.000    3.000    0.000    3.200 
#    0.000    3.000    0.000    0.600    0.000    4.200 
#    0.000    7.200    0.000    7.200    0.000    8.000 
#
# Total GULP energy -222966.236748 kJ/mol
# GULP energy per Si atom -5574.155919 kJ/mol
# Density = 1.945076 g / cm^3
# Si number density = 19.495127 Si / 1000 Ang^3
#
#
#
# Elastic Constant Matrix: (Units=GPa)
#
#
# Indices 1 2 3 4 5 6 
#
# 1 65.1527 5.5549 1.0939 0.0000 0.0000 0.0000
# 2 5.5549 131.2349 31.6314 0.0000 0.0000 0.0000
# 3 1.0939 31.6314 80.2740 0.0000 0.0000 0.0000
# 4 0.0000 0.0000 0.0000 11.6755 0.0000 0.0000
# 5 0.0000 0.0000 0.0000 0.0000 5.1026 0.0000
# 6 0.0000 0.0000 0.0000 0.0000 0.0000 -3.5374
#
#
#
# Elastic Compliance Matrix: (Units=1/GPa)
#
#
# Indices 1 2 3 4 5 6 
#
# 1 0.015404 -0.000665 0.000052 0.000000 0.000000 0.000000
# 2 -0.000665 0.008448 -0.003320 0.000000 0.000000 0.000000
# 3 0.000052 -0.003320 0.013765 0.000000 0.000000 0.000000
# 4 0.000000 0.000000 0.000000 0.085649 0.000000 0.000000
# 5 0.000000 0.000000 0.000000 0.000000 0.195979 0.000000
# 6 0.000000 0.000000 0.000000 0.000000 0.000000 -0.282695
#
#
# Mechanical properties :
#
#
# Convention : Reuss Voigt Hill
#
# Bulk Modulus (GPa) = 33.61078 39.24689 36.42883
# Shear Modulus (GPa) = 92.02456 18.54025 55.28240
#
# Velocity S-wave (km/s) = 6.87796 3.08721 5.33091
# Velocity P-wave (km/s) = 8.96399 5.73438 7.52450
#
# Compressibility (1/GPa) = 0.02975236
#
# Stress axis : x y z
#
# Youngs Moduli (GPa) = 64.91679 118.36774 72.64905
#
# Poissons Ratio (x) = 0.07866 -0.00377
# Poissons Ratio (y) = 0.04314 0.24119
# Poissons Ratio (z) = -0.00337 0.39297
#
# Static dielectric constant tensor:
#      x y z
#    x 1.757990 0.000000 0.000000 
#    y 0.000000 1.668770 0.000000 
#    z 0.000000 0.000000 1.675350 
# 
# From -- ./inp_files/10505.got.cif
#   From: 2010.05.17/outbox.cif.g08.bks.cpg/sg69_6_cif.got.tgz:10505.got - 2010.06.03 19:29:58.
