data_PCOD9513100
_publ_section_title
;
Structure prediction by ZEFSAII (Michael W. Deem and Ramdas Pophale) SiO2 
 PCOD9513100
Probable space group: F M M M
;
_chemical_formula_sum "Si O2"
_cell_formula_units_Z 208
_cell_length_a 16.221178
_cell_length_b 21.651496
_cell_length_c 29.228263
_cell_angle_alpha 90.000000
_cell_angle_beta 90.000000
_cell_angle_gamma 90.000000
_cell_volume 10265.339228
_symmetry_space_group_name_H-M "F M M M"
_symmetry_group_IT_number 69
_symmetry_cell_setting 'orthorhombic'
loop_
_space_group_symop_operation_xyz
x,y,z
-x,-y,z
x,-y,-z
-x,y,-z
-x,-y,-z
x,y,-z
-x,y,z
x,-y,z
x,1/2+y,1/2+z
-x,1/2-y,1/2+z
x,1/2-y,1/2-z
-x,1/2+y,1/2-z
-x,1/2-y,1/2-z
x,1/2+y,1/2-z
-x,1/2+y,1/2+z
x,1/2-y,1/2+z
1/2+x,y,1/2+z
1/2-x,-y,1/2+z
1/2+x,-y,1/2-z
1/2-x,y,1/2-z
1/2-x,-y,1/2-z
1/2+x,y,1/2-z
1/2-x,y,1/2+z
1/2+x,-y,1/2+z
1/2+x,1/2+y,z
1/2-x,1/2-y,z
1/2+x,1/2-y,-z
1/2-x,1/2+y,-z
1/2-x,1/2-y,-z
1/2+x,1/2+y,-z
1/2-x,1/2+y,z
1/2+x,1/2-y,z
loop_
_atom_site_type_symbol
_atom_site_label
_atom_site_fract_x
_atom_site_fract_y
_atom_site_fract_z
Si Si1 0.900911 0.932786 0.736422
Si Si2 0.099658 0.754884 0.866787
Si Si3 0.201722 0.069607 0.551768
Si Si4 0.353758 0.660186 0.053449
Si Si5 0.402085 0.391842 0.636776
Si Si6 0.161027 0.308086 0.724872
Si Si7 0.000000 0.569564 0.444474
O O1 0.870878 0.919875 0.684617
O O2 0.876991 0.874658 0.766733
O O3 0.000000 0.934089 0.734622
O O4 0.871355 0.000000 0.752234
O O5 0.131736 0.780962 0.914943
O O6 0.113130 0.681720 0.862495
O O7 0.152263 0.789911 0.827868
O O8 0.000000 0.765939 0.862063
O O9 0.167206 0.074740 0.500000
O O10 0.267930 0.124165 0.557214
O O11 0.137743 0.078038 0.592395
O O12 0.238865 0.000000 0.554631
O O13 0.420999 0.609375 0.068528
O O14 0.367224 0.675393 0.000000
O O15 0.500000 0.401230 0.635079
O O16 0.116561 0.250000 0.750000
O O17 0.250000 0.311152 0.750000
O O18 0.000000 0.500000 0.426577
O O19 0.000000 0.565964 0.500000
#
# Coordination Sequence:
#
# PCOD9513100 Si02
#       7
#    32  32  32  32  32  32  16
#     4  10  21  40  64  87 116 158 207 257 310 372
#     4  11  23  40  65  93 125 163 209 259 316 382
#     4  10  22  39  59  87 125 167 212 263 317 374
#     4  10  21  37  60  91 127 165 205 256 312 376
#     4  10  22  39  62  88 117 163 210 257 318 382
#     4  11  24  40  64  94 124 164 204 255 314 382
#     4   9  16  32  58  84 117 164 207 241 296 371
#
# _framework density 20.262360000000001
#
# number of rings (size 3 to 8) (size 9 to 14) (size 15 to 20)
#    0.000    1.769    2.308    1.385    2.154    5.231 
#    0.000    5.385    0.000    0.000    0.000    0.000 
#    0.000    0.000    0.000    0.000    0.000    0.000 
#
# Total GULP energy -290271.716988 kJ/mol
# GULP energy per Si atom -5582.148404 kJ/mol
# Density = 2.021624 g / cm^3
# Si number density = 20.262360 Si / 1000 Ang^3
#
#
#
# Elastic Constant Matrix: (Units=GPa)
#
#
# Indices 1 2 3 4 5 6 
#
# 1 29.6674 17.7900 19.3531 0.0000 0.0000 0.0000
# 2 17.7900 114.3577 22.2752 0.0000 0.0000 0.0000
# 3 19.3531 22.2752 67.7950 0.0000 0.0000 0.0000
# 4 0.0000 0.0000 0.0000 25.2151 0.0000 0.0000
# 5 0.0000 0.0000 0.0000 0.0000 16.0245 0.0000
# 6 0.0000 0.0000 0.0000 0.0000 0.0000 17.3553
#
#
#
# Elastic Compliance Matrix: (Units=1/GPa)
#
#
# Indices 1 2 3 4 5 6 
#
# 1 0.043626 -0.004659 -0.010923 0.000000 0.000000 0.000000
# 2 -0.004659 0.009840 -0.001903 0.000000 0.000000 0.000000
# 3 -0.010923 -0.001903 0.018494 0.000000 0.000000 0.000000
# 4 0.000000 0.000000 0.000000 0.039659 0.000000 0.000000
# 5 0.000000 0.000000 0.000000 0.000000 0.062405 0.000000
# 6 0.000000 0.000000 0.000000 0.000000 0.000000 0.057619
#
#
# Mechanical properties :
#
#
# Convention : Reuss Voigt Hill
#
# Bulk Modulus (GPa) = 27.03447 36.73962 31.88705
# Shear Modulus (GPa) = 17.92484 21.87911 19.90197
#
# Velocity S-wave (km/s) = 2.97751 3.28958 3.13743
# Velocity P-wave (km/s) = 5.01916 5.70962 5.37549
#
# Compressibility (1/GPa) = 0.03698981
#
# Stress axis : x y z
#
# Youngs Moduli (GPa) = 22.92197 101.62632 54.07226
#
# Poissons Ratio (x) = 0.47348 0.59063
# Poissons Ratio (y) = 0.10679 0.10291
# Poissons Ratio (z) = 0.25038 0.19341
#
# Static dielectric constant tensor:
#      x y z
#    x 1.757080 0.000000 0.000000 
#    y 0.000000 1.730040 0.000000 
#    z 0.000000 0.000000 1.704530 
# 
# From -- ./inp_files/42038.got.cif
#   From: 2010.05.17/outbox.cif.g08.bks.cpg/sg69_22_cif.got.tgz:42038.got - 2010.06.03 19:29:58.
