data_PCOD9513139
_publ_section_title
;
Structure prediction by ZEFSAII (Michael W. Deem and Ramdas Pophale) SiO2 
 PCOD9513139
Probable space group: F M M M
;
_chemical_formula_sum "Si O2"
_cell_formula_units_Z 96
_cell_length_a 13.092210
_cell_length_b 13.860134
_cell_length_c 27.017966
_cell_angle_alpha 90.000000
_cell_angle_beta 90.000000
_cell_angle_gamma 90.000000
_cell_volume 4902.674300
_symmetry_space_group_name_H-M "F M M M"
_symmetry_group_IT_number 69
_symmetry_cell_setting 'orthorhombic'
loop_
_space_group_symop_operation_xyz
x,y,z
-x,-y,z
x,-y,-z
-x,y,-z
-x,-y,-z
x,y,-z
-x,y,z
x,-y,z
x,1/2+y,1/2+z
-x,1/2-y,1/2+z
x,1/2-y,1/2-z
-x,1/2+y,1/2-z
-x,1/2-y,1/2-z
x,1/2+y,1/2-z
-x,1/2+y,1/2+z
x,1/2-y,1/2+z
1/2+x,y,1/2+z
1/2-x,-y,1/2+z
1/2+x,-y,1/2-z
1/2-x,y,1/2-z
1/2-x,-y,1/2-z
1/2+x,y,1/2-z
1/2-x,y,1/2+z
1/2+x,-y,1/2+z
1/2+x,1/2+y,z
1/2-x,1/2-y,z
1/2+x,1/2-y,-z
1/2-x,1/2+y,-z
1/2-x,1/2-y,-z
1/2+x,1/2+y,-z
1/2-x,1/2+y,z
1/2+x,1/2-y,z
loop_
_atom_site_type_symbol
_atom_site_label
_atom_site_fract_x
_atom_site_fract_y
_atom_site_fract_z
Si Si1 0.714384 0.383017 0.195689
Si Si2 0.886153 0.612031 0.882620
Si Si3 0.500000 0.751982 0.443263
Si Si4 0.000000 0.616368 0.650835
O O1 0.712080 0.500000 0.196176
O O2 0.750000 0.353252 0.250000
O O3 0.798309 0.357134 0.154577
O O4 0.601803 0.351584 0.179539
O O5 0.869413 0.500000 0.897062
O O6 0.000000 0.615567 0.857938
O O7 0.903712 0.683144 0.928716
O O8 0.500000 0.780235 0.500000
O O9 0.500000 0.838008 0.403747
O O10 0.000000 0.500000 0.647758
#
# Coordination Sequence:
#
# PCOD9513139 Si02
#       4
#    32  32  16  16
#     4   9  18  34  58  83 113 150 177 213 270 327
#     4   8  17  34  57  83 112 136 176 228 268 317
#     4  10  21  38  59  80 106 143 185 234 281 315
#     4  10  22  37  54  81 113 144 185 221 261 329
#
# _framework density 19.581150000000001
#
# number of rings (size 3 to 8) (size 9 to 14) (size 15 to 20)
#    1.000    2.000    0.000    0.000    2.333    3.000 
#    0.000    8.333    0.000    6.000    0.000    0.000 
#    0.000    0.000    0.000    0.000    0.000    0.000 
#
# Total GULP energy -133706.829343 kJ/mol
# GULP energy per Si atom -5571.117889 kJ/mol
# Density = 1.953658 g / cm^3
# Si number density = 19.581150 Si / 1000 Ang^3
#
#
#
# Elastic Constant Matrix: (Units=GPa)
#
#
# Indices 1 2 3 4 5 6 
#
# 1 128.4464 25.3569 70.4483 0.0000 0.0000 0.0000
# 2 25.3569 76.5843 23.8982 0.0000 0.0000 0.0000
# 3 70.4483 23.8982 147.9867 0.0000 0.0000 0.0000
# 4 0.0000 0.0000 0.0000 26.3652 0.0000 0.0000
# 5 0.0000 0.0000 0.0000 0.0000 20.8984 0.0000
# 6 0.0000 0.0000 0.0000 0.0000 0.0000 0.6217
#
#
#
# Elastic Compliance Matrix: (Units=1/GPa)
#
#
# Indices 1 2 3 4 5 6 
#
# 1 0.010843 -0.002084 -0.004825 0.000000 0.000000 0.000000
# 2 -0.002084 0.014151 -0.001293 0.000000 0.000000 0.000000
# 3 -0.004825 -0.001293 0.009263 0.000000 0.000000 0.000000
# 4 0.000000 0.000000 0.000000 0.037929 0.000000 0.000000
# 5 0.000000 0.000000 0.000000 0.000000 0.047851 0.000000
# 6 0.000000 0.000000 0.000000 0.000000 0.000000 1.608489
#
#
# Mechanical properties :
#
#
# Convention : Reuss Voigt Hill
#
# Bulk Modulus (GPa) = 56.01528 65.82490 60.92009
# Shear Modulus (GPa) = 2.85570 25.13132 13.99351
#
# Velocity S-wave (km/s) = 1.20895 3.58641 2.67618
# Velocity P-wave (km/s) = 5.53332 7.13016 6.38188
#
# Compressibility (1/GPa) = 0.01785227
#
# Stress axis : x y z
#
# Youngs Moduli (GPa) = 92.22232 70.66567 107.95383
#
# Poissons Ratio (x) = 0.14730 0.52091
# Poissons Ratio (y) = 0.19224 0.13958
# Poissons Ratio (z) = 0.44500 0.09137
#
# Static dielectric constant tensor:
#      x y z
#    x 1.687660 0.000000 0.000000 
#    y 0.000000 1.758830 0.000000 
#    z 0.000000 0.000000 1.631950 
# 
# From -- ./inp_files/19260.got.cif
#   From: 2010.05.17/outbox.cif.g08.bks.cpg/sg69_10_cif.got.tgz:19260.got - 2010.06.03 19:29:58.
