data_PCOD9513819
_publ_section_title
;
Structure prediction by ZEFSAII (Michael W. Deem and Ramdas Pophale) SiO2 
 PCOD9513819
Probable space group: F M M M
;
_chemical_formula_sum "Si O2"
_cell_formula_units_Z 160
_cell_length_a 20.774470
_cell_length_b 24.583083
_cell_length_c 16.453505
_cell_angle_alpha 90.000000
_cell_angle_beta 90.000000
_cell_angle_gamma 90.000000
_cell_volume 8402.813564
_symmetry_space_group_name_H-M "F M M M"
_symmetry_group_IT_number 69
_symmetry_cell_setting 'orthorhombic'
loop_
_space_group_symop_operation_xyz
x,y,z
-x,-y,z
x,-y,-z
-x,y,-z
-x,-y,-z
x,y,-z
-x,y,z
x,-y,z
x,1/2+y,1/2+z
-x,1/2-y,1/2+z
x,1/2-y,1/2-z
-x,1/2+y,1/2-z
-x,1/2-y,1/2-z
x,1/2+y,1/2-z
-x,1/2+y,1/2+z
x,1/2-y,1/2+z
1/2+x,y,1/2+z
1/2-x,-y,1/2+z
1/2+x,-y,1/2-z
1/2-x,y,1/2-z
1/2-x,-y,1/2-z
1/2+x,y,1/2-z
1/2-x,y,1/2+z
1/2+x,-y,1/2+z
1/2+x,1/2+y,z
1/2-x,1/2-y,z
1/2+x,1/2-y,-z
1/2-x,1/2+y,-z
1/2-x,1/2-y,-z
1/2+x,1/2+y,-z
1/2-x,1/2+y,z
1/2+x,1/2-y,z
loop_
_atom_site_type_symbol
_atom_site_label
_atom_site_fract_x
_atom_site_fract_y
_atom_site_fract_z
Si Si1 0.000000 0.328865 0.092638
Si Si2 0.381702 0.865721 0.350713
Si Si3 0.748178 0.312629 0.348770
Si Si4 0.076031 0.000000 0.597297
Si Si5 0.625111 0.385916 0.337341
Si Si6 0.577059 0.561146 0.000000
Si Si7 0.500000 0.282841 0.164921
O O1 0.062652 0.351318 0.137506
O O2 0.000000 0.263959 0.097532
O O3 0.000000 0.348648 0.000000
O O4 0.314178 0.839763 0.376257
O O5 0.372488 0.889888 0.260422
O O6 0.401917 0.908196 0.418708
O O7 0.437053 0.820073 0.342575
O O8 0.750000 0.310206 0.250000
O O9 0.750000 0.250000 0.377652
O O10 0.686841 0.350982 0.367637
O O11 0.112628 0.945818 0.627120
O O12 0.074927 0.000000 0.500000
O O13 0.000000 0.000000 0.624628
O O14 0.602430 0.500000 0.000000
O O15 0.500000 0.560090 0.000000
O O16 0.500000 0.250000 0.250000
#
# Coordination Sequence:
#
# PCOD9513819 Si02
#       7
#    16  32  32  16  32  16  16
#     4  12  24  37  63  96 132 163 209 268 332 392
#     4  11  23  43  63  95 130 166 225 264 323 385
#     4   9  20  40  67  94 131 171 211 260 321 400
#     4  11  24  42  67  95 133 164 213 281 337 390
#     4  11  22  42  67  96 126 173 214 261 331 402
#     4  11  26  46  65  86 124 171 224 283 315 365
#     4  12  22  38  66  98 125 168 214 273 329 392
#
# _framework density 19.041242
#
# number of rings (size 3 to 8) (size 9 to 14) (size 15 to 20)
#    0.000    1.200    4.000    1.800    5.600    0.000 
#    5.400    2.000    0.000    0.000    0.000    0.000 
#    0.000    0.000    0.000    0.000    0.000    0.000 
#
# Total GULP energy -223416.875836 kJ/mol
# GULP energy per Si atom -5585.421896 kJ/mol
# Density = 1.899790 g / cm^3
# Si number density = 19.041242 Si / 1000 Ang^3
#
#
#
# Elastic Constant Matrix: (Units=GPa)
#
#
# Indices 1 2 3 4 5 6 
#
# 1 170.5363 89.9004 31.5125 0.0000 0.0000 0.0000
# 2 89.9004 179.2092 53.1523 0.0000 0.0000 0.0000
# 3 31.5125 53.1523 85.8641 0.0000 0.0000 0.0000
# 4 0.0000 0.0000 0.0000 27.8205 0.0000 0.0000
# 5 0.0000 0.0000 0.0000 0.0000 95.6567 0.0000
# 6 0.0000 0.0000 0.0000 0.0000 0.0000 31.3389
#
#
#
# Elastic Compliance Matrix: (Units=1/GPa)
#
#
# Indices 1 2 3 4 5 6 
#
# 1 0.007993 -0.003846 -0.000553 0.000000 0.000000 0.000000
# 2 -0.003846 0.008685 -0.003965 0.000000 0.000000 0.000000
# 3 -0.000553 -0.003965 0.014304 0.000000 0.000000 0.000000
# 4 0.000000 0.000000 0.000000 0.035945 0.000000 0.000000
# 5 0.000000 0.000000 0.000000 0.000000 0.010454 0.000000
# 6 0.000000 0.000000 0.000000 0.000000 0.000000 0.031909
#
#
# Mechanical properties :
#
#
# Convention : Reuss Voigt Hill
#
# Bulk Modulus (GPa) = 70.15168 87.19334 78.67251
# Shear Modulus (GPa) = 38.23512 48.36619 43.30066
#
# Velocity S-wave (km/s) = 4.48595 5.04538 4.77387
# Velocity P-wave (km/s) = 7.98459 8.93490 8.47308
#
# Compressibility (1/GPa) = 0.01425483
#
# Stress axis : x y z
#
# Youngs Moduli (GPa) = 125.10244 115.13595 69.91203
#
# Poissons Ratio (x) = 0.44281 0.03865
# Poissons Ratio (y) = 0.48114 0.27720
# Poissons Ratio (z) = 0.06917 0.45652
#
# Static dielectric constant tensor:
#      x y z
#    x 1.644050 0.000000 0.000000 
#    y 0.000000 1.654400 0.000000 
#    z 0.000000 0.000000 1.663570 
# 
# From -- ./inp_files/24686.got.cif
#   From: 2010.05.17/outbox.cif.g08.bks.cpg/sg69_13_cif.got.tgz:24686.got - 2010.06.03 19:29:58.
