data_PCOD9513150
_publ_section_title
;
Structure prediction by ZEFSAII (Michael W. Deem and Ramdas Pophale) SiO2 
 PCOD9513150
Probable space group: F M M M
;
_chemical_formula_sum "Si O2"
_cell_formula_units_Z 144
_cell_length_a 32.199896
_cell_length_b 29.176953
_cell_length_c 8.651346
_cell_angle_alpha 90.000000
_cell_angle_beta 90.000000
_cell_angle_gamma 90.000000
_cell_volume 8127.895032
_symmetry_space_group_name_H-M "F M M M"
_symmetry_group_IT_number 69
_symmetry_cell_setting 'orthorhombic'
loop_
_space_group_symop_operation_xyz
x,y,z
-x,-y,z
x,-y,-z
-x,y,-z
-x,-y,-z
x,y,-z
-x,y,z
x,-y,z
x,1/2+y,1/2+z
-x,1/2-y,1/2+z
x,1/2-y,1/2-z
-x,1/2+y,1/2-z
-x,1/2-y,1/2-z
x,1/2+y,1/2-z
-x,1/2+y,1/2+z
x,1/2-y,1/2+z
1/2+x,y,1/2+z
1/2-x,-y,1/2+z
1/2+x,-y,1/2-z
1/2-x,y,1/2-z
1/2-x,-y,1/2-z
1/2+x,y,1/2-z
1/2-x,y,1/2+z
1/2+x,-y,1/2+z
1/2+x,1/2+y,z
1/2-x,1/2-y,z
1/2+x,1/2-y,-z
1/2-x,1/2+y,-z
1/2-x,1/2-y,-z
1/2+x,1/2+y,-z
1/2-x,1/2+y,z
1/2+x,1/2-y,z
loop_
_atom_site_type_symbol
_atom_site_label
_atom_site_fract_x
_atom_site_fract_y
_atom_site_fract_z
Si Si1 0.000000 0.801602 0.186167
Si Si2 0.546596 0.445213 0.685393
Si Si3 0.408949 0.801136 0.686573
Si Si4 0.294365 0.053189 0.815191
Si Si5 0.626901 0.106127 0.314962
O O1 0.000000 0.750000 0.250000
O O2 0.045020 0.819260 0.236201
O O3 0.000000 0.801961 0.000000
O O4 0.548987 0.438499 0.500000
O O5 0.500000 0.430662 0.736601
O O6 0.549855 0.500000 0.712990
O O7 0.584884 0.419816 0.763973
O O8 0.408861 0.798081 0.500000
O O9 0.402354 0.750000 0.750000
O O10 0.377267 0.840655 0.734150
O O11 0.250000 0.069068 0.750000
O O12 0.333070 0.082063 0.755747
O O13 0.299826 0.000000 0.766002
O O14 0.293173 0.054431 0.000000
O O15 0.629470 0.104567 0.500000
#
# Coordination Sequence:
#
# PCOD9513150 Si02
#       5
#    16  32  32  32  32
#     4   8  14  28  46  64  91 128 171 217 260 297
#     4   9  19  35  51  70 102 143 184 222 260 309
#     4   9  19  33  50  72 102 139 179 224 267 311
#     4  10  21  38  60  84 110 139 173 216 265 318
#     4  11  22  33  52  81 110 140 176 219 268 322
#
# _framework density 17.716764000000001
#
# number of rings (size 3 to 8) (size 9 to 14) (size 15 to 20)
#    0.000    2.444    0.000    2.667    1.556    6.667 
#    0.000    1.111    0.000    0.667    0.000    4.667 
#    0.000    0.000    0.000    0.000    0.000    0.000 
#
# Total GULP energy -200754.772635 kJ/mol
# GULP energy per Si atom -5576.521462 kJ/mol
# Density = 1.767644 g / cm^3
# Si number density = 17.716764 Si / 1000 Ang^3
#
#
#
# Elastic Constant Matrix: (Units=GPa)
#
#
# Indices 1 2 3 4 5 6 
#
# 1 151.6808 82.0947 37.5531 -0.0027 0.0025 0.0021
# 2 82.0947 87.0004 25.9309 -0.0137 0.0071 0.0075
# 3 37.5531 25.9309 26.4135 -0.0253 0.0146 0.0097
# 4 -0.0027 -0.0137 -0.0253 22.4065 0.0102 0.0087
# 5 0.0025 0.0071 0.0146 0.0102 32.3494 -0.0039
# 6 0.0021 0.0075 0.0097 0.0087 -0.0039 25.9408
#
#
#
# Elastic Compliance Matrix: (Units=1/GPa)
#
#
# Indices 1 2 3 4 5 6 
#
# 1 0.015372 -0.011297 -0.010765 -0.000017 0.000006 0.000006
# 2 -0.011297 0.024551 -0.008041 0.000005 -0.000001 -0.000003
# 3 -0.010765 -0.008041 0.061058 0.000063 -0.000025 -0.000020
# 4 -0.000017 0.000005 0.000063 0.044630 -0.000014 -0.000015
# 5 0.000006 -0.000001 -0.000025 -0.000014 0.030912 0.000005
# 6 0.000006 -0.000003 -0.000020 -0.000015 0.000005 0.038549
#
#
# Mechanical properties :
#
#
# Convention : Reuss Voigt Hill
#
# Bulk Modulus (GPa) = 24.52426 61.80580 43.16503
# Shear Modulus (GPa) = 17.30881 24.10708 20.70795
#
# Velocity S-wave (km/s) = 3.12905 3.69276 3.42253
# Velocity P-wave (km/s) = 5.18913 7.28994 6.32733
#
# Compressibility (1/GPa) = 0.04077596
#
# Stress axis : x y z
#
# Youngs Moduli (GPa) = 65.05247 40.73195 16.37780
#
# Poissons Ratio (x) = 0.46015 0.17630
# Poissons Ratio (y) = 0.73489 0.13169
# Poissons Ratio (z) = 0.70028 0.32752
#
# Static dielectric constant tensor:
#      x y z
#    x 1.600060 0.000000 0.000000 
#    y 0.000000 1.607180 0.000000 
#    z 0.000000 0.000000 1.604580 
# 
# From -- ./inp_files/5543.got.cif
#   From: 2010.05.17/outbox.cif.g08.bks.cpg/sg69_3_cif.got.tgz:5543.got - 2010.06.03 19:29:58.
