data_PCOD9513221
_publ_section_title
;
Structure prediction by ZEFSAII (Michael W. Deem and Ramdas Pophale) SiO2 
 PCOD9513221
Probable space group: F M M M
;
_chemical_formula_sum "Si O2"
_cell_formula_units_Z 176
_cell_length_a 18.772355
_cell_length_b 19.728920
_cell_length_c 25.483210
_cell_angle_alpha 90.000000
_cell_angle_beta 90.000000
_cell_angle_gamma 90.000000
_cell_volume 9437.918079
_symmetry_space_group_name_H-M "F M M M"
_symmetry_group_IT_number 69
_symmetry_cell_setting 'orthorhombic'
loop_
_space_group_symop_operation_xyz
x,y,z
-x,-y,z
x,-y,-z
-x,y,-z
-x,-y,-z
x,y,-z
-x,y,z
x,-y,z
x,1/2+y,1/2+z
-x,1/2-y,1/2+z
x,1/2-y,1/2-z
-x,1/2+y,1/2-z
-x,1/2-y,1/2-z
x,1/2+y,1/2-z
-x,1/2+y,1/2+z
x,1/2-y,1/2+z
1/2+x,y,1/2+z
1/2-x,-y,1/2+z
1/2+x,-y,1/2-z
1/2-x,y,1/2-z
1/2-x,-y,1/2-z
1/2+x,y,1/2-z
1/2-x,y,1/2+z
1/2+x,-y,1/2+z
1/2+x,1/2+y,z
1/2-x,1/2-y,z
1/2+x,1/2-y,-z
1/2-x,1/2+y,-z
1/2-x,1/2-y,-z
1/2+x,1/2+y,-z
1/2-x,1/2+y,z
1/2+x,1/2-y,z
loop_
_atom_site_type_symbol
_atom_site_label
_atom_site_fract_x
_atom_site_fract_y
_atom_site_fract_z
Si Si1 0.321159 0.577595 0.285178
Si Si2 0.585566 0.179010 0.720642
Si Si3 0.421616 0.223325 0.060752
Si Si4 0.868999 0.356067 0.398313
Si Si5 0.914776 0.000000 0.938998
Si Si6 0.717977 0.320499 0.376607
O O1 0.340405 0.500000 0.297571
O O2 0.250000 0.576429 0.250000
O O3 0.382648 0.617580 0.254464
O O4 0.300582 0.622802 0.334774
O O5 0.500000 0.177612 0.717919
O O6 0.605922 0.250000 0.750000
O O7 0.615200 0.167879 0.661663
O O8 0.500000 0.203689 0.081861
O O9 0.413623 0.304388 0.066198
O O10 0.353875 0.194995 0.091797
O O11 0.417817 0.203850 0.000000
O O12 0.889412 0.432843 0.409117
O O13 0.785331 0.345930 0.410094
O O14 0.000000 0.000000 0.939224
O O15 0.890500 0.000000 0.000000
O O16 0.750000 0.250000 0.353218
#
# Coordination Sequence:
#
# PCOD9513221 Si02
#       6
#    32  32  32  32  16  32
#     4  11  24  39  59  86 123 162 200 243 301 365
#     4  11  23  38  60  89 119 157 208 252 301 363
#     4  10  21  39  62  89 121 155 199 256 308 354
#     4  11  22  37  60  86 121 158 197 252 302 364
#     4  11  24  38  56  85 121 161 199 238 303 380
#     4  10  22  38  63  90 117 159 207 251 301 362
#
# _framework density 18.64818
#
# number of rings (size 3 to 8) (size 9 to 14) (size 15 to 20)
#    0.000    1.364    1.818    4.364    2.545    8.000 
#    0.000    0.000    0.000    0.000    0.000    1.273 
#    0.000    0.000    0.000    0.000    0.000    0.000 
#
# Total GULP energy -245581.597119 kJ/mol
# GULP energy per Si atom -5581.399935 kJ/mol
# Density = 1.860574 g / cm^3
# Si number density = 18.648180 Si / 1000 Ang^3
#
#
#
# Elastic Constant Matrix: (Units=GPa)
#
#
# Indices 1 2 3 4 5 6 
#
# 1 137.4369 54.7568 39.1624 0.0000 0.0000 0.0000
# 2 54.7568 145.1515 51.2604 0.0000 0.0000 0.0000
# 3 39.1624 51.2604 69.3394 0.0000 0.0000 0.0000
# 4 0.0000 0.0000 0.0000 7.5412 0.0000 0.0000
# 5 0.0000 0.0000 0.0000 0.0000 18.7270 0.0000
# 6 0.0000 0.0000 0.0000 0.0000 0.0000 113.0595
#
#
#
# Elastic Compliance Matrix: (Units=1/GPa)
#
#
# Indices 1 2 3 4 5 6 
#
# 1 0.009165 -0.002205 -0.003546 0.000000 0.000000 0.000000
# 2 -0.002205 0.009854 -0.006039 0.000000 0.000000 0.000000
# 3 -0.003546 -0.006039 0.020889 0.000000 0.000000 0.000000
# 4 0.000000 0.000000 0.000000 0.132605 0.000000 0.000000
# 5 0.000000 0.000000 0.000000 0.000000 0.053399 0.000000
# 6 0.000000 0.000000 0.000000 0.000000 0.000000 0.008845
#
#
# Mechanical properties :
#
#
# Convention : Reuss Voigt Hill
#
# Bulk Modulus (GPa) = 61.24752 71.36521 66.30637
# Shear Modulus (GPa) = 18.95510 41.64874 30.30192
#
# Velocity S-wave (km/s) = 3.19165 4.73101 4.03541
# Velocity P-wave (km/s) = 6.81889 8.25806 7.57274
#
# Compressibility (1/GPa) = 0.01632719
#
# Stress axis : x y z
#
# Youngs Moduli (GPa) = 109.10964 101.48182 47.87121
#
# Poissons Ratio (x) = 0.22377 0.16976
# Poissons Ratio (y) = 0.24059 0.28911
# Poissons Ratio (z) = 0.38693 0.61288
#
# Static dielectric constant tensor:
#      x y z
#    x 1.655620 0.000000 0.000000 
#    y 0.000000 1.636890 0.000000 
#    z 0.000000 0.000000 1.653580 
# 
# From -- ./inp_files/26781.got.cif
#   From: 2010.05.17/outbox.cif.g08.bks.cpg/sg69_14_cif.got.tgz:26781.got - 2010.06.03 19:29:58.
