data_PCOD9513327
_publ_section_title
;
Structure prediction by ZEFSAII (Michael W. Deem and Ramdas Pophale) SiO2 
 PCOD9513327
Probable space group: F M M M
;
_chemical_formula_sum "Si O2"
_cell_formula_units_Z 116
_cell_length_a 25.210785
_cell_length_b 26.072323
_cell_length_c 9.641093
_cell_angle_alpha 90.000000
_cell_angle_beta 90.000000
_cell_angle_gamma 90.000000
_cell_volume 6337.126386
_symmetry_space_group_name_H-M "F M M M"
_symmetry_group_IT_number 69
_symmetry_cell_setting 'orthorhombic'
loop_
_space_group_symop_operation_xyz
x,y,z
-x,-y,z
x,-y,-z
-x,y,-z
-x,-y,-z
x,y,-z
-x,y,z
x,-y,z
x,1/2+y,1/2+z
-x,1/2-y,1/2+z
x,1/2-y,1/2-z
-x,1/2+y,1/2-z
-x,1/2-y,1/2-z
x,1/2+y,1/2-z
-x,1/2+y,1/2+z
x,1/2-y,1/2+z
1/2+x,y,1/2+z
1/2-x,-y,1/2+z
1/2+x,-y,1/2-z
1/2-x,y,1/2-z
1/2-x,-y,1/2-z
1/2+x,y,1/2-z
1/2-x,y,1/2+z
1/2+x,-y,1/2+z
1/2+x,1/2+y,z
1/2-x,1/2-y,z
1/2+x,1/2-y,-z
1/2-x,1/2+y,-z
1/2-x,1/2-y,-z
1/2+x,1/2+y,-z
1/2-x,1/2+y,z
1/2+x,1/2-y,z
loop_
_atom_site_type_symbol
_atom_site_label
_atom_site_fract_x
_atom_site_fract_y
_atom_site_fract_z
Si Si1 0.110754 0.942973 0.000000
Si Si2 0.500000 0.000000 0.500000
Si Si3 0.436905 0.057641 0.000000
Si Si4 0.600937 0.128368 0.247494
Si Si5 0.500000 0.302969 0.163953
Si Si6 0.800405 0.803209 0.665942
O O1 0.122465 0.907753 0.130826
O O2 0.135877 0.000000 0.000000
O O3 0.047448 0.956116 0.000000
O O4 0.420291 0.089448 0.132927
O O5 0.500000 0.053783 0.000000
O O6 0.414781 0.000000 0.000000
O O7 0.552373 0.164006 0.298701
O O8 0.647604 0.162851 0.185893
O O9 0.500000 0.250000 0.250000
O O10 0.500000 0.291932 0.000000
O O11 0.790551 0.796200 0.500000
O O12 0.809524 0.750000 0.750000
O O13 0.750000 0.826084 0.750000
#
# Coordination Sequence:
#
# PCOD9513327 Si02
#       6
#    16   4  16  32  16  32
#     4  10  22  36  65  89 126 162 218 253 307 367
#     4   8  20  36  56  94 128 164 212 258 296 370
#     4  11  24  38  63  95 133 170 212 260 312 374
#     4  12  23  41  63  95 130 167 209 261 321 378
#     4  12  27  39  59  91 131 171 208 256 318 388
#     4  11  25  43  69  96 126 165 216 264 318 385
#
# _framework density 18.304825999999998
#
# number of rings (size 3 to 8) (size 9 to 14) (size 15 to 20)
#    0.414    0.414    4.138    4.138    5.793    2.207 
#    0.000    0.000    0.000    4.966    0.000    0.000 
#    0.000    0.000    0.000    0.000    0.000    0.000 
#
# Total GULP energy -161596.367184 kJ/mol
# GULP energy per Si atom -5572.288524 kJ/mol
# Density = 1.826316 g / cm^3
# Si number density = 18.304826 Si / 1000 Ang^3
#
#
#
# Elastic Constant Matrix: (Units=GPa)
#
#
# Indices 1 2 3 4 5 6 
#
# 1 87.8581 41.3321 36.6525 -0.0001 0.0000 0.0000
# 2 41.3321 125.0763 74.0357 -0.0001 0.0001 -0.0001
# 3 36.6525 74.0357 190.2791 -0.0003 0.0002 -0.0003
# 4 -0.0001 -0.0001 -0.0003 39.8244 0.0003 -0.0001
# 5 0.0000 0.0001 0.0002 0.0003 9.3232 0.0002
# 6 0.0000 -0.0001 -0.0003 -0.0001 0.0002 14.8574
#
#
#
# Elastic Compliance Matrix: (Units=1/GPa)
#
#
# Indices 1 2 3 4 5 6 
#
# 1 0.013664 -0.003842 -0.001137 0.000000 0.000000 0.000000
# 2 -0.003842 0.011468 -0.003722 0.000000 0.000000 0.000000
# 3 -0.001137 -0.003722 0.006923 0.000000 0.000000 0.000000
# 4 0.000000 0.000000 0.000000 0.025110 -0.000001 0.000000
# 5 0.000000 0.000000 0.000000 -0.000001 0.107259 -0.000001
# 6 0.000000 0.000000 0.000000 0.000000 -0.000001 0.067306
#
#
# Mechanical properties :
#
#
# Convention : Reuss Voigt Hill
#
# Bulk Modulus (GPa) = 68.25013 78.58378 73.41695
# Shear Modulus (GPa) = 19.68376 29.54722 24.61549
#
# Velocity S-wave (km/s) = 3.28278 4.02204 3.67107
# Velocity P-wave (km/s) = 7.19271 8.03697 7.62653
#
# Compressibility (1/GPa) = 0.01465199
#
# Stress axis : x y z
#
# Youngs Moduli (GPa) = 73.18561 87.19969 144.45388
#
# Poissons Ratio (x) = 0.33505 0.16425
# Poissons Ratio (y) = 0.28120 0.53765
# Poissons Ratio (z) = 0.08321 0.32455
#
# Static dielectric constant tensor:
#      x y z
#    x 1.621070 0.000000 0.000000 
#    y 0.000000 1.629740 0.000000 
#    z 0.000000 0.000000 1.617150 
# 
# From -- ./inp_files/3841.got.cif
#   From: 2010.05.17/outbox.cif.g08.bks.cpg/sg69_2_cif.got.tgz:3841.got - 2010.06.03 19:29:58.
