data_PCOD9513065
_publ_section_title
;
Structure prediction by ZEFSAII (Michael W. Deem and Ramdas Pophale) SiO2 
 PCOD9513065
Probable space group: F M M M
;
_chemical_formula_sum "Si O2"
_cell_formula_units_Z 160
_cell_length_a 15.890412
_cell_length_b 14.925524
_cell_length_c 31.276092
_cell_angle_alpha 90.000000
_cell_angle_beta 90.000000
_cell_angle_gamma 90.000000
_cell_volume 7417.835988
_symmetry_space_group_name_H-M "F M M M"
_symmetry_group_IT_number 69
_symmetry_cell_setting 'orthorhombic'
loop_
_space_group_symop_operation_xyz
x,y,z
-x,-y,z
x,-y,-z
-x,y,-z
-x,-y,-z
x,y,-z
-x,y,z
x,-y,z
x,1/2+y,1/2+z
-x,1/2-y,1/2+z
x,1/2-y,1/2-z
-x,1/2+y,1/2-z
-x,1/2-y,1/2-z
x,1/2+y,1/2-z
-x,1/2+y,1/2+z
x,1/2-y,1/2+z
1/2+x,y,1/2+z
1/2-x,-y,1/2+z
1/2+x,-y,1/2-z
1/2-x,y,1/2-z
1/2-x,-y,1/2-z
1/2+x,y,1/2-z
1/2-x,y,1/2+z
1/2+x,-y,1/2+z
1/2+x,1/2+y,z
1/2-x,1/2-y,z
1/2+x,1/2-y,-z
1/2-x,1/2+y,-z
1/2-x,1/2-y,-z
1/2+x,1/2+y,-z
1/2-x,1/2+y,z
1/2+x,1/2-y,z
loop_
_atom_site_type_symbol
_atom_site_label
_atom_site_fract_x
_atom_site_fract_y
_atom_site_fract_z
Si Si1 0.905403 0.678409 0.092298
Si Si2 0.850801 0.246357 0.683485
Si Si3 0.678374 0.183062 0.549155
Si Si4 0.147151 0.397437 0.746668
Si Si5 0.099082 0.000000 0.947480
Si Si6 0.103573 0.000000 0.549374
O O1 0.873575 0.725412 0.135145
O O2 0.900932 0.751482 0.054764
O O3 0.864466 0.587808 0.074111
O O4 0.000000 0.652083 0.102153
O O5 0.750000 0.250000 0.686543
O O6 0.878643 0.340092 0.704836
O O7 0.880637 0.164010 0.713381
O O8 0.701539 0.167622 0.500000
O O9 0.750000 0.250000 0.567802
O O10 0.649662 0.088136 0.567436
O O11 0.117866 0.500000 0.747152
O O12 0.250000 0.400022 0.750000
O O13 0.000000 0.000000 0.934982
O O14 0.098978 0.000000 0.000000
O O15 0.131534 0.000000 0.500000
O O16 0.000000 0.000000 0.547920
#
# Coordination Sequence:
#
# PCOD9513065 Si02
#       6
#    32  32  32  32  16  16
#     4  11  22  36  55  80 114 154 195 248 309 371
#     4   9  18  33  54  83 113 141 188 238 288 357
#     4  10  21  37  58  84 114 151 200 255 309 366
#     4   8  15  31  56  81 109 148 184 228 287 353
#     4   9  18  35  59  85 113 152 199 243 302 379
#     4   9  20  37  55  77 105 145 198 245 292 354
#
# _framework density 21.569633
#
# number of rings (size 3 to 8) (size 9 to 14) (size 15 to 20)
#    0.000    2.600    0.000    3.000    1.400    2.800 
#    1.800    4.000    0.000    1.200    0.000    0.000 
#    0.000    0.000    0.000    0.000    0.000    0.000 
#
# Total GULP energy -222826.332422 kJ/mol
# GULP energy per Si atom -5570.658311 kJ/mol
# Density = 2.152054 g / cm^3
# Si number density = 21.569633 Si / 1000 Ang^3
#
#
#
# Elastic Constant Matrix: (Units=GPa)
#
#
# Indices 1 2 3 4 5 6 
#
# 1 50.0102 36.8106 15.9711 0.0000 0.0000 0.0000
# 2 36.8106 220.1708 41.7852 0.0000 0.0000 0.0000
# 3 15.9711 41.7852 81.1776 0.0000 0.0000 0.0000
# 4 0.0000 0.0000 0.0000 19.9323 0.0000 0.0000
# 5 0.0000 0.0000 0.0000 0.0000 13.4796 0.0000
# 6 0.0000 0.0000 0.0000 0.0000 0.0000 18.1542
#
#
#
# Elastic Compliance Matrix: (Units=1/GPa)
#
#
# Indices 1 2 3 4 5 6 
#
# 1 0.023390 -0.003366 -0.002869 0.000000 0.000000 0.000000
# 2 -0.003366 0.005518 -0.002178 0.000000 0.000000 0.000000
# 3 -0.002869 -0.002178 0.014004 0.000000 0.000000 0.000000
# 4 0.000000 0.000000 0.000000 0.050170 0.000000 0.000000
# 5 0.000000 0.000000 0.000000 0.000000 0.074186 0.000000
# 6 0.000000 0.000000 0.000000 0.000000 0.000000 0.055084
#
#
# Mechanical properties :
#
#
# Convention : Reuss Voigt Hill
#
# Bulk Modulus (GPa) = 38.33533 60.05472 49.19502
# Shear Modulus (GPa) = 20.17157 27.43267 23.80212
#
# Velocity S-wave (km/s) = 3.06139 3.57013 3.32550
# Velocity P-wave (km/s) = 5.50523 6.70053 6.13208
#
# Compressibility (1/GPa) = 0.02608560
#
# Stress axis : x y z
#
# Youngs Moduli (GPa) = 42.75364 181.22258 71.40661
#
# Poissons Ratio (x) = 0.61000 0.20488
# Poissons Ratio (y) = 0.14391 0.15553
# Poissons Ratio (z) = 0.12267 0.39472
#
# Static dielectric constant tensor:
#      x y z
#    x 1.930230 0.000000 0.000000 
#    y 0.000000 1.796150 0.000000 
#    z 0.000000 0.000000 1.784990 
# 
# From -- ./inp_files/46277.got.cif
#   From: 2010.05.17/outbox.cif.g08.bks.cpg/sg69_24_cif.got.tgz:46277.got - 2010.06.03 19:29:58.
