data_PCOD9513144
_publ_section_title
;
Structure prediction by ZEFSAII (Michael W. Deem and Ramdas Pophale) SiO2 
 PCOD9513144
Probable space group: F M M M
;
_chemical_formula_sum "Si O2"
_cell_formula_units_Z 100
_cell_length_a 25.898227
_cell_length_b 23.287928
_cell_length_c 9.289126
_cell_angle_alpha 90.000000
_cell_angle_beta 90.000000
_cell_angle_gamma 90.000000
_cell_volume 5602.420941
_symmetry_space_group_name_H-M "F M M M"
_symmetry_group_IT_number 69
_symmetry_cell_setting 'orthorhombic'
loop_
_space_group_symop_operation_xyz
x,y,z
-x,-y,z
x,-y,-z
-x,y,-z
-x,-y,-z
x,y,-z
-x,y,z
x,-y,z
x,1/2+y,1/2+z
-x,1/2-y,1/2+z
x,1/2-y,1/2-z
-x,1/2+y,1/2-z
-x,1/2-y,1/2-z
x,1/2+y,1/2-z
-x,1/2+y,1/2+z
x,1/2-y,1/2+z
1/2+x,y,1/2+z
1/2-x,-y,1/2+z
1/2+x,-y,1/2-z
1/2-x,y,1/2-z
1/2-x,-y,1/2-z
1/2+x,y,1/2-z
1/2-x,y,1/2+z
1/2+x,-y,1/2+z
1/2+x,1/2+y,z
1/2-x,1/2-y,z
1/2+x,1/2-y,-z
1/2-x,1/2+y,-z
1/2-x,1/2-y,-z
1/2+x,1/2+y,-z
1/2-x,1/2+y,z
1/2+x,1/2-y,z
loop_
_atom_site_type_symbol
_atom_site_label
_atom_site_fract_x
_atom_site_fract_y
_atom_site_fract_z
Si Si1 0.591020 0.126873 0.663025
Si Si2 0.000000 0.500000 0.000000
Si Si3 0.441991 0.500000 0.792836
Si Si4 0.301553 0.311232 0.827631
Si Si5 0.000000 0.188517 0.327951
O O1 0.576992 0.145954 0.500000
O O2 0.648278 0.149591 0.693062
O O3 0.549883 0.153485 0.773172
O O4 0.586654 0.058341 0.668136
O O5 0.955471 0.500000 0.124998
O O6 0.500000 0.500000 0.856788
O O7 0.311349 0.250000 0.750000
O O8 0.250000 0.334274 0.750000
O O9 0.293601 0.303918 0.000000
O O10 0.000000 0.250000 0.250000
O O11 0.000000 0.193862 0.500000
#
# Coordination Sequence:
#
# PCOD9513144 Si02
#       5
#    32   4  16  32  16
#     4  11  23  38  61  86 118 155 197 237 292 347
#     4   8  20  36  50  84 116 144 202 232 276 340
#     4  10  21  38  59  84 120 156 199 232 290 343
#     4  10  21  39  60  88 114 152 195 240 293 349
#     4  12  25  37  56  84 120 151 192 240 295 349
#
# _framework density 17.849425
#
# number of rings (size 3 to 8) (size 9 to 14) (size 15 to 20)
#    0.480    0.960    1.600    4.800    4.480    5.760 
#    0.000    0.800    0.000    0.000    0.000    0.000 
#    0.000    0.000    0.000    0.000    0.000    0.000 
#
# Total GULP energy -139249.689081 kJ/mol
# GULP energy per Si atom -5569.987563 kJ/mol
# Density = 1.780880 g / cm^3
# Si number density = 17.849425 Si / 1000 Ang^3
#
#
#
# Elastic Constant Matrix: (Units=GPa)
#
#
# Indices 1 2 3 4 5 6 
#
# 1 153.8812 78.3797 76.8450 -0.0001 0.0002 -0.0002
# 2 78.3797 116.7701 45.3147 -0.0003 0.0002 -0.0001
# 3 76.8450 45.3147 171.2038 -0.0007 0.0006 -0.0003
# 4 -0.0001 -0.0003 -0.0007 16.3068 0.0003 0.0001
# 5 0.0002 0.0002 0.0006 0.0003 29.9684 0.0007
# 6 -0.0002 -0.0001 -0.0003 0.0001 0.0007 -61.4813
#
#
#
# Elastic Compliance Matrix: (Units=1/GPa)
#
#
# Indices 1 2 3 4 5 6 
#
# 1 0.011463 -0.006350 -0.003464 0.000000 0.000000 0.000000
# 2 -0.006350 0.013062 -0.000607 0.000000 0.000000 0.000000
# 3 -0.003464 -0.000607 0.007557 0.000000 0.000000 0.000000
# 4 0.000000 0.000000 0.000000 0.061324 -0.000001 0.000000
# 5 0.000000 0.000000 0.000000 -0.000001 0.033369 0.000000
# 6 0.000000 0.000000 0.000000 0.000000 0.000000 -0.016265
#
#
# Mechanical properties :
#
#
# Convention : Reuss Voigt Hill
#
# Bulk Modulus (GPa) = 88.97943 93.65931 91.31937
# Shear Modulus (GPa) = 37.01034 13.04649 25.02842
#
# Velocity S-wave (km/s) = 4.55848 2.70649 3.74866
# Velocity P-wave (km/s) = 8.81275 7.89636 8.36711
#
# Compressibility (1/GPa) = 0.01123855
#
# Stress axis : x y z
#
# Youngs Moduli (GPa) = 87.23825 76.56034 132.33310
#
# Poissons Ratio (x) = 0.48614 0.45846
# Poissons Ratio (y) = 0.55394 0.08034
# Poissons Ratio (z) = 0.30223 0.04648
#
# Static dielectric constant tensor:
#      x y z
#    x 1.595560 0.000000 0.000000 
#    y 0.000000 1.610070 0.000000 
#    z 0.000000 0.000000 1.621820 
# 
# From -- ./inp_files/4350.got.cif
#   From: 2010.05.17/outbox.cif.g08.bks.cpg/sg69_3_cif.got.tgz:4350.got - 2010.06.03 19:29:58.
