data_PCOD9513431
_publ_section_title
;
Structure prediction by ZEFSAII (Michael W. Deem and Ramdas Pophale) SiO2 
 PCOD9513431
Probable space group: F M M M
;
_chemical_formula_sum "Si O2"
_cell_formula_units_Z 200
_cell_length_a 20.639252
_cell_length_b 20.639251
_cell_length_c 26.026799
_cell_angle_alpha 90.000000
_cell_angle_beta 90.000000
_cell_angle_gamma 90.000000
_cell_volume 11086.862068
_symmetry_space_group_name_H-M "F M M M"
_symmetry_group_IT_number 69
_symmetry_cell_setting 'orthorhombic'
loop_
_space_group_symop_operation_xyz
x,y,z
-x,-y,z
x,-y,-z
-x,y,-z
-x,-y,-z
x,y,-z
-x,y,z
x,-y,z
x,1/2+y,1/2+z
-x,1/2-y,1/2+z
x,1/2-y,1/2-z
-x,1/2+y,1/2-z
-x,1/2-y,1/2-z
x,1/2+y,1/2-z
-x,1/2+y,1/2+z
x,1/2-y,1/2+z
1/2+x,y,1/2+z
1/2-x,-y,1/2+z
1/2+x,-y,1/2-z
1/2-x,y,1/2-z
1/2-x,-y,1/2-z
1/2+x,y,1/2-z
1/2-x,y,1/2+z
1/2+x,-y,1/2+z
1/2+x,1/2+y,z
1/2-x,1/2-y,z
1/2+x,1/2-y,-z
1/2-x,1/2+y,-z
1/2-x,1/2-y,-z
1/2+x,1/2+y,-z
1/2-x,1/2+y,z
1/2+x,1/2-y,z
loop_
_atom_site_type_symbol
_atom_site_label
_atom_site_fract_x
_atom_site_fract_y
_atom_site_fract_z
Si Si1 0.184139 0.924119 0.282054
Si Si2 0.073147 0.767846 0.398922
Si Si3 0.767846 0.926853 0.398921
Si Si4 0.575881 0.815861 0.782054
Si Si5 0.095427 0.095427 0.443309
Si Si6 0.304833 0.695167 0.938460
Si Si7 0.500000 0.500000 0.395221
O O1 0.250000 0.911322 0.250000
O O2 0.204114 0.917157 0.341696
O O3 0.126347 0.873653 0.270246
O O4 0.165556 0.000000 0.273458
O O5 0.082843 0.795886 0.341696
O O6 0.081812 0.829227 0.436283
O O7 0.128141 0.717778 0.413864
O O8 0.000000 0.742535 0.402610
O O9 0.829227 0.918188 0.436283
O O10 0.717778 0.871859 0.413864
O O11 0.742535 0.000000 0.402610
O O12 0.500000 0.834444 0.773459
O O13 0.588678 0.750000 0.750000
O O14 0.074032 0.074032 0.500000
O O15 0.056032 0.056032 0.400952
O O16 0.250000 0.750000 0.927894
O O17 0.310378 0.689621 0.000000
#
# Coordination Sequence:
#
# PCOD9513431 Si02
#       7
#    32  32  32  32  32  32   8
#     4  10  22  40  61  88 118 151 194 243 297 356
#     4  11  23  39  58  85 118 156 196 243 296 345
#     4  11  23  39  58  85 118 156 196 243 296 345
#     4  10  22  40  61  88 118 151 194 243 297 356
#     4  12  21  33  53  84 125 160 190 225 277 355
#     4  11  22  36  57  85 118 160 205 238 276 344
#     4  12  25  32  52  92 128 168 196 220 288 372
#
# _framework density 18.039370000000002
#
# number of rings (size 3 to 8) (size 9 to 14) (size 15 to 20)
#    0.000    1.120    4.800    1.680    2.240    2.560 
#    0.000    0.000    0.000    0.480    0.000    1.120 
#    0.000    0.000    0.000    0.000    0.000    0.000 
#
# Total GULP energy -278808.393152 kJ/mol
# GULP energy per Si atom -5576.167863 kJ/mol
# Density = 1.799831 g / cm^3
# Si number density = 18.039370 Si / 1000 Ang^3
#
#
#
# Elastic Constant Matrix: (Units=GPa)
#
#
# Indices 1 2 3 4 5 6 
#
# 1 146.7272 109.7605 33.1881 0.0000 0.0000 0.0000
# 2 109.7605 146.7279 33.1882 0.0000 0.0000 0.0000
# 3 33.1881 33.1882 64.5380 0.0000 0.0000 0.0000
# 4 0.0000 0.0000 0.0000 22.8431 0.0000 0.0000
# 5 0.0000 0.0000 0.0000 0.0000 22.8432 0.0000
# 6 0.0000 0.0000 0.0000 0.0000 0.0000 44.5729
#
#
#
# Elastic Compliance Matrix: (Units=1/GPa)
#
#
# Indices 1 2 3 4 5 6 
#
# 1 0.015774 -0.011277 -0.002313 0.000000 0.000000 0.000000
# 2 -0.011277 0.015774 -0.002313 0.000000 0.000000 0.000000
# 3 -0.002313 -0.002313 0.017873 0.000000 0.000000 0.000000
# 4 0.000000 0.000000 0.000000 0.043777 0.000000 0.000000
# 5 0.000000 0.000000 0.000000 0.000000 0.043777 0.000000
# 6 0.000000 0.000000 0.000000 0.000000 0.000000 0.022435
#
#
# Mechanical properties :
#
#
# Convention : Reuss Voigt Hill
#
# Bulk Modulus (GPa) = 56.76296 78.91853 67.84074
# Shear Modulus (GPa) = 25.36943 30.17559 27.77251
#
# Velocity S-wave (km/s) = 3.75418 4.09438 3.92797
# Velocity P-wave (km/s) = 7.09410 8.13602 7.63286
#
# Compressibility (1/GPa) = 0.01761712
#
# Stress axis : x y z
#
# Youngs Moduli (GPa) = 63.39438 63.39471 55.94931
#
# Poissons Ratio (x) = 0.71490 0.12939
# Poissons Ratio (y) = 0.71489 0.12939
# Poissons Ratio (z) = 0.14661 0.14661
#
# Static dielectric constant tensor:
#      x y z
#    x 1.655510 0.000000 0.000000 
#    y 0.000000 1.655510 0.000000 
#    z 0.000000 0.000000 1.648890 
# 
# From -- ./inp_files/42702.got.cif
#   From: 2010.05.17/outbox.cif.g08.bks.cpg/sg69_22_cif.got.tgz:42702.got - 2010.06.03 19:29:58.
