data_PCOD9513404
_publ_section_title
;
Structure prediction by ZEFSAII (Michael W. Deem and Ramdas Pophale) SiO2 
 PCOD9513404
Probable space group: F M M M
;
_chemical_formula_sum "Si O2"
_cell_formula_units_Z 176
_cell_length_a 11.569710
_cell_length_b 29.811838
_cell_length_c 24.816343
_cell_angle_alpha 90.000000
_cell_angle_beta 90.000000
_cell_angle_gamma 90.000000
_cell_volume 8559.512076
_symmetry_space_group_name_H-M "F M M M"
_symmetry_group_IT_number 69
_symmetry_cell_setting 'orthorhombic'
loop_
_space_group_symop_operation_xyz
x,y,z
-x,-y,z
x,-y,-z
-x,y,-z
-x,-y,-z
x,y,-z
-x,y,z
x,-y,z
x,1/2+y,1/2+z
-x,1/2-y,1/2+z
x,1/2-y,1/2-z
-x,1/2+y,1/2-z
-x,1/2-y,1/2-z
x,1/2+y,1/2-z
-x,1/2+y,1/2+z
x,1/2-y,1/2+z
1/2+x,y,1/2+z
1/2-x,-y,1/2+z
1/2+x,-y,1/2-z
1/2-x,y,1/2-z
1/2-x,-y,1/2-z
1/2+x,y,1/2-z
1/2-x,y,1/2+z
1/2+x,-y,1/2+z
1/2+x,1/2+y,z
1/2-x,1/2-y,z
1/2+x,1/2-y,-z
1/2-x,1/2+y,-z
1/2-x,1/2-y,-z
1/2+x,1/2+y,-z
1/2-x,1/2+y,z
1/2+x,1/2-y,z
loop_
_atom_site_type_symbol
_atom_site_label
_atom_site_fract_x
_atom_site_fract_y
_atom_site_fract_z
Si Si1 0.375981 0.880678 0.000000
Si Si2 0.125629 0.166199 0.112432
Si Si3 0.128833 0.554083 0.221981
Si Si4 0.137276 0.500000 0.435299
Si Si5 0.787617 0.918620 0.393063
Si Si6 0.371675 0.199024 0.270797
Si Si7 0.803942 0.200949 0.000000
O O1 0.360597 0.910562 0.052990
O O2 0.500000 0.858621 0.000000
O O3 0.284949 0.840628 0.000000
O O4 0.221887 0.128167 0.116573
O O5 0.134734 0.197461 0.164584
O O6 0.132313 0.193128 0.056623
O O7 0.000000 0.143445 0.114154
O O8 0.128932 0.500000 0.226217
O O9 0.250000 0.569335 0.250000
O O10 0.142122 0.567656 0.159567
O O11 0.000000 0.568921 0.242042
O O12 0.159534 0.500000 0.500000
O O13 0.194985 0.456845 0.407851
O O14 0.000000 0.500000 0.427740
O O15 0.500000 0.179779 0.255713
O O16 0.372866 0.250000 0.250000
O O17 0.250000 0.178401 0.250000
O O18 0.750000 0.250000 0.000000
#
# Coordination Sequence:
#
# PCOD9513404 Si02
#       7
#    16  32  32  16  32  32  16
#     4  10  22  40  61  90 127 158 200 255 318 382
#     4  10  22  39  61  91 124 162 203 258 321 382
#     4  10  22  40  62  89 124 167 220 269 319 378
#     4  11  22  36  59  92 127 168 216 266 319 384
#     4  11  21  40  61  91 125 165 211 262 322 379
#     4   9  19  37  62  88 118 155 201 252 307 370
#     4  10  23  39  63  89 121 161 204 255 311 392
#
# _framework density 20.561919
#
# number of rings (size 3 to 8) (size 9 to 14) (size 15 to 20)
#    0.000    1.909    1.818    1.364    2.545    2.909 
#    0.000    6.818    0.000    0.000    0.000    0.000 
#    0.000    0.000    0.000    0.000    0.000    0.000 
#
# Total GULP energy -245322.447795 kJ/mol
# GULP energy per Si atom -5575.510177 kJ/mol
# Density = 2.051512 g / cm^3
# Si number density = 20.561919 Si / 1000 Ang^3
#
#
#
# Elastic Constant Matrix: (Units=GPa)
#
#
# Indices 1 2 3 4 5 6 
#
# 1 156.2609 8.5937 55.9591 0.0000 0.0000 0.0000
# 2 8.5937 71.8267 20.1836 0.0000 0.0000 0.0000
# 3 55.9591 20.1836 114.3246 0.0000 0.0000 0.0000
# 4 0.0000 0.0000 0.0000 29.7950 0.0000 0.0000
# 5 0.0000 0.0000 0.0000 0.0000 24.1185 0.0000
# 6 0.0000 0.0000 0.0000 0.0000 0.0000 13.8685
#
#
#
# Elastic Compliance Matrix: (Units=1/GPa)
#
#
# Indices 1 2 3 4 5 6 
#
# 1 0.007761 0.000146 -0.003825 0.000000 0.000000 0.000000
# 2 0.000146 0.014652 -0.002658 0.000000 0.000000 0.000000
# 3 -0.003825 -0.002658 0.011088 0.000000 0.000000 0.000000
# 4 0.000000 0.000000 0.000000 0.033563 0.000000 0.000000
# 5 0.000000 0.000000 0.000000 0.000000 0.041462 0.000000
# 6 0.000000 0.000000 0.000000 0.000000 0.000000 0.072106
#
#
# Mechanical properties :
#
#
# Convention : Reuss Voigt Hill
#
# Bulk Modulus (GPa) = 48.01261 56.87611 52.44436
# Shear Modulus (GPa) = 24.96901 30.73478 27.85190
#
# Velocity S-wave (km/s) = 3.48851 3.87038 3.68440
# Velocity P-wave (km/s) = 6.29501 6.90609 6.60762
#
# Compressibility (1/GPa) = 0.02082786
#
# Stress axis : x y z
#
# Youngs Moduli (GPa) = 128.84603 68.25056 90.18392
#
# Poissons Ratio (x) = -0.00998 0.34493
# Poissons Ratio (y) = -0.01883 0.23974
# Poissons Ratio (z) = 0.49280 0.18143
#
# Static dielectric constant tensor:
#      x y z
#    x 1.797390 0.000000 0.000000 
#    y 0.000000 1.680070 0.000000 
#    z 0.000000 0.000000 1.725720 
# 
# From -- ./inp_files/35285.got.cif
#   From: 2010.05.17/outbox.cif.g08.bks.cpg/sg69_18_cif.got.tgz:35285.got - 2010.06.03 19:29:58.
