data_PCOD9513840
_publ_section_title
;
Structure prediction by ZEFSAII (Michael W. Deem and Ramdas Pophale) SiO2 
 PCOD9513840
Probable space group: F M M M
;
_chemical_formula_sum "Si O2"
_cell_formula_units_Z 136
_cell_length_a 24.136737
_cell_length_b 20.945818
_cell_length_c 13.475097
_cell_angle_alpha 90.000000
_cell_angle_beta 90.000000
_cell_angle_gamma 90.000000
_cell_volume 6812.519901
_symmetry_space_group_name_H-M "F M M M"
_symmetry_group_IT_number 69
_symmetry_cell_setting 'orthorhombic'
loop_
_space_group_symop_operation_xyz
x,y,z
-x,-y,z
x,-y,-z
-x,y,-z
-x,-y,-z
x,y,-z
-x,y,z
x,-y,z
x,1/2+y,1/2+z
-x,1/2-y,1/2+z
x,1/2-y,1/2-z
-x,1/2+y,1/2-z
-x,1/2-y,1/2-z
x,1/2+y,1/2-z
-x,1/2+y,1/2+z
x,1/2-y,1/2+z
1/2+x,y,1/2+z
1/2-x,-y,1/2+z
1/2+x,-y,1/2-z
1/2-x,y,1/2-z
1/2-x,-y,1/2-z
1/2+x,y,1/2-z
1/2-x,y,1/2+z
1/2+x,-y,1/2+z
1/2+x,1/2+y,z
1/2-x,1/2-y,z
1/2+x,1/2-y,-z
1/2-x,1/2+y,-z
1/2-x,1/2-y,-z
1/2+x,1/2+y,-z
1/2-x,1/2+y,z
1/2+x,1/2-y,z
loop_
_atom_site_type_symbol
_atom_site_label
_atom_site_fract_x
_atom_site_fract_y
_atom_site_fract_z
Si Si1 0.561774 0.825339 0.223001
Si Si2 0.774557 0.428277 0.619606
Si Si3 0.750000 0.250000 0.250000
Si Si4 0.675855 0.340275 0.618464
Si Si5 0.398274 0.577176 0.881261
O O1 0.500000 0.831679 0.179426
O O2 0.568782 0.750000 0.250000
O O3 0.612669 0.844409 0.152436
O O4 0.565720 0.874126 0.316457
O O5 0.773370 0.428381 0.500000
O O6 0.777641 0.500000 0.653977
O O7 0.716365 0.398428 0.649134
O O8 0.665052 0.399778 0.858217
O O9 0.708010 0.285051 0.324010
O O10 0.678408 0.332006 0.500000
O O11 0.403940 0.500000 0.859467
O O12 0.407590 0.583181 0.000000
#
# Coordination Sequence:
#
# PCOD9513840 Si02
#       5
#    32  32   8  32  32
#     4  11  25  43  58  83 126 175 223 266 316 381
#     4   8  16  33  59  91 122 152 190 244 315 384
#     4  12  22  40  60  94 120 148 198 260 316 374
#     4  11  23  39  62  89 122 164 206 254 311 381
#     4   9  19  39  68 100 131 164 210 273 337 388
#
# _framework density 19.963245000000001
#
# number of rings (size 3 to 8) (size 9 to 14) (size 15 to 20)
#    0.000    2.118    1.176    3.176    0.000    3.294 
#    0.000    6.471    0.000    0.000    0.000    4.941 
#    0.000    0.000    0.000    0.000    0.000    0.000 
#
# Total GULP energy -189427.761468 kJ/mol
# GULP energy per Si atom -5571.404749 kJ/mol
# Density = 1.991781 g / cm^3
# Si number density = 19.963245 Si / 1000 Ang^3
#
#
#
# Elastic Constant Matrix: (Units=GPa)
#
#
# Indices 1 2 3 4 5 6 
#
# 1 160.1892 39.2193 30.6279 0.0000 0.0000 0.0000
# 2 39.2193 72.8899 26.0324 0.0000 0.0000 0.0000
# 3 30.6279 26.0324 82.3507 0.0000 0.0000 0.0000
# 4 0.0000 0.0000 0.0000 28.8988 0.0000 0.0000
# 5 0.0000 0.0000 0.0000 0.0000 25.1714 0.0000
# 6 0.0000 0.0000 0.0000 0.0000 0.0000 -55.2334
#
#
#
# Elastic Compliance Matrix: (Units=1/GPa)
#
#
# Indices 1 2 3 4 5 6 
#
# 1 0.007391 -0.003376 -0.001682 0.000000 0.000000 0.000000
# 2 -0.003376 0.017008 -0.004121 0.000000 0.000000 0.000000
# 3 -0.001682 -0.004121 0.014071 0.000000 0.000000 0.000000
# 4 0.000000 0.000000 0.000000 0.034604 0.000000 0.000000
# 5 0.000000 0.000000 0.000000 0.000000 0.039728 0.000000
# 6 0.000000 0.000000 0.000000 0.000000 0.000000 -0.018105
#
#
# Mechanical properties :
#
#
# Convention : Reuss Voigt Hill
#
# Bulk Modulus (GPa) = 49.71962 56.35435 53.03698
# Shear Modulus (GPa) = 41.75132 14.40403 28.07768
#
# Velocity S-wave (km/s) = 4.57815 2.68904 3.75436
# Velocity P-wave (km/s) = 7.27363 6.15886 6.73933
#
# Compressibility (1/GPa) = 0.02011279
#
# Stress axis : x y z
#
# Youngs Moduli (GPa) = 135.30517 58.79728 71.06712
#
# Poissons Ratio (x) = 0.19851 0.11950
# Poissons Ratio (y) = 0.45681 0.29285
# Poissons Ratio (z) = 0.22752 0.24229
#
# Static dielectric constant tensor:
#      x y z
#    x 1.742030 0.000000 0.000000 
#    y 0.000000 1.757500 0.000000 
#    z 0.000000 0.000000 1.621590 
# 
# From -- ./inp_files/10359.got.cif
#   From: 2010.05.17/outbox.cif.g08.bks.cpg/sg69_6_cif.got.tgz:10359.got - 2010.06.03 19:29:58.
