data_PCOD9513457
_publ_section_title
;
Structure prediction by ZEFSAII (Michael W. Deem and Ramdas Pophale) SiO2 
 PCOD9513457
Probable space group: F M M M
;
_chemical_formula_sum "Si O2"
_cell_formula_units_Z 80
_cell_length_a 17.877562
_cell_length_b 14.990119
_cell_length_c 11.444846
_cell_angle_alpha 90.000000
_cell_angle_beta 90.000000
_cell_angle_gamma 90.000000
_cell_volume 3067.067448
_symmetry_space_group_name_H-M "F M M M"
_symmetry_group_IT_number 69
_symmetry_cell_setting 'orthorhombic'
loop_
_space_group_symop_operation_xyz
x,y,z
-x,-y,z
x,-y,-z
-x,y,-z
-x,-y,-z
x,y,-z
-x,y,z
x,-y,z
x,1/2+y,1/2+z
-x,1/2-y,1/2+z
x,1/2-y,1/2-z
-x,1/2+y,1/2-z
-x,1/2-y,1/2-z
x,1/2+y,1/2-z
-x,1/2+y,1/2+z
x,1/2-y,1/2+z
1/2+x,y,1/2+z
1/2-x,-y,1/2+z
1/2+x,-y,1/2-z
1/2-x,y,1/2-z
1/2-x,-y,1/2-z
1/2+x,y,1/2-z
1/2-x,y,1/2+z
1/2+x,-y,1/2+z
1/2+x,1/2+y,z
1/2-x,1/2-y,z
1/2+x,1/2-y,-z
1/2-x,1/2+y,-z
1/2-x,1/2-y,-z
1/2+x,1/2+y,-z
1/2-x,1/2+y,z
1/2+x,1/2-y,z
loop_
_atom_site_type_symbol
_atom_site_label
_atom_site_fract_x
_atom_site_fract_y
_atom_site_fract_z
Si Si1 0.342769 0.152635 0.303122
Si Si2 0.229126 0.146273 0.500000
Si Si3 0.580813 0.748672 0.500000
Si Si4 0.909415 0.000000 0.637261
O O1 0.323255 0.250000 0.250000
O O2 0.406648 0.185154 0.392167
O O3 0.376730 0.083285 0.211995
O O4 0.225914 0.114048 0.116371
O O5 0.250000 0.250000 0.500000
O O6 0.141331 0.169680 0.500000
O O7 0.500000 0.706426 0.500000
O O8 0.882457 0.000000 0.500000
O O9 0.000000 0.000000 0.638112
#
# Coordination Sequence:
#
# PCOD9513457 Si02
#       4
#    32  16  16  16
#     4  10  22  43  73 109 155 208 263 320 385 474
#     4   8  20  40  72 105 147 197 256 323 389 461
#     4  10  22  40  74 113 148 197 260 325 400 463
#     4  11  26  43  69 116 170 213 259 324 392 463
#
# _framework density 26.083548
#
# number of rings (size 3 to 8) (size 9 to 14) (size 15 to 20)
#    0.000    2.600    0.000    1.200    5.600   13.600 
#    0.000    5.000    0.000   64.800    0.000    8.400 
#    0.000    1.600    0.000    0.000    0.000    0.000 
#
# Total GULP energy -111599.787093 kJ/mol
# GULP energy per Si atom -5579.989355 kJ/mol
# Density = 2.602418 g / cm^3
# Si number density = 26.083548 Si / 1000 Ang^3
#
#
#
# Elastic Constant Matrix: (Units=GPa)
#
#
# Indices 1 2 3 4 5 6 
#
# 1 222.4107 47.9562 91.8088 0.0000 0.0000 0.0000
# 2 47.9562 180.8283 102.2706 0.0000 0.0000 0.0000
# 3 91.8088 102.2706 265.7393 0.0000 0.0000 0.0000
# 4 0.0000 0.0000 0.0000 44.4753 0.0000 0.0000
# 5 0.0000 0.0000 0.0000 0.0000 22.7863 0.0000
# 6 0.0000 0.0000 0.0000 0.0000 0.0000 21.8777
#
#
#
# Elastic Compliance Matrix: (Units=1/GPa)
#
#
# Indices 1 2 3 4 5 6 
#
# 1 0.005275 -0.000471 -0.001641 0.000000 0.000000 0.000000
# 2 -0.000471 0.007111 -0.002574 0.000000 0.000000 0.000000
# 3 -0.001641 -0.002574 0.005321 0.000000 0.000000 0.000000
# 4 0.000000 0.000000 0.000000 0.022484 0.000000 0.000000
# 5 0.000000 0.000000 0.000000 0.000000 0.043886 0.000000
# 6 0.000000 0.000000 0.000000 0.000000 0.000000 0.045709
#
#
# Mechanical properties :
#
#
# Convention : Reuss Voigt Hill
#
# Bulk Modulus (GPa) = 119.98141 128.11661 124.04901
# Shear Modulus (GPa) = 35.22721 46.29073 40.75897
#
# Velocity S-wave (km/s) = 3.67897 4.21730 3.95730
# Velocity P-wave (km/s) = 8.00907 8.54041 8.27900
#
# Compressibility (1/GPa) = 0.00833462
#
# Stress axis : x y z
#
# Youngs Moduli (GPa) = 189.56581 140.63349 187.94387
#
# Poissons Ratio (x) = 0.06620 0.30848
# Poissons Ratio (y) = 0.08923 0.48376
# Poissons Ratio (z) = 0.31114 0.36198
#
# Static dielectric constant tensor:
#      x y z
#    x 2.212930 0.000000 0.000000 
#    y 0.000000 2.115540 0.000000 
#    z 0.000000 0.000000 2.236390 
# 
# From -- ./inp_files/9659.got.cif
#   From: 2010.05.17/outbox.cif.g08.bks.cpg/sg69_5_cif.got.tgz:9659.got - 2010.06.03 19:29:58.
