data_PCOD9513156
_publ_section_title
;
Structure prediction by ZEFSAII (Michael W. Deem and Ramdas Pophale) SiO2 
 PCOD9513156
Probable space group: F M M M
;
_chemical_formula_sum "Si O2"
_cell_formula_units_Z 176
_cell_length_a 24.759475
_cell_length_b 20.830645
_cell_length_c 17.516488
_cell_angle_alpha 90.000000
_cell_angle_beta 90.000000
_cell_angle_gamma 90.000000
_cell_volume 9034.230879
_symmetry_space_group_name_H-M "F M M M"
_symmetry_group_IT_number 69
_symmetry_cell_setting 'orthorhombic'
loop_
_space_group_symop_operation_xyz
x,y,z
-x,-y,z
x,-y,-z
-x,y,-z
-x,-y,-z
x,y,-z
-x,y,z
x,-y,z
x,1/2+y,1/2+z
-x,1/2-y,1/2+z
x,1/2-y,1/2-z
-x,1/2+y,1/2-z
-x,1/2-y,1/2-z
x,1/2+y,1/2-z
-x,1/2+y,1/2+z
x,1/2-y,1/2+z
1/2+x,y,1/2+z
1/2-x,-y,1/2+z
1/2+x,-y,1/2-z
1/2-x,y,1/2-z
1/2-x,-y,1/2-z
1/2+x,y,1/2-z
1/2-x,y,1/2+z
1/2+x,-y,1/2+z
1/2+x,1/2+y,z
1/2-x,1/2-y,z
1/2+x,1/2-y,-z
1/2-x,1/2+y,-z
1/2-x,1/2-y,-z
1/2+x,1/2+y,-z
1/2-x,1/2+y,z
1/2+x,1/2-y,z
loop_
_atom_site_type_symbol
_atom_site_label
_atom_site_fract_x
_atom_site_fract_y
_atom_site_fract_z
Si Si1 0.437900 0.115401 0.909347
Si Si2 0.937139 0.000000 0.091795
Si Si3 0.255227 0.576761 0.085711
Si Si4 0.657483 0.073676 0.194408
Si Si5 0.132466 0.122234 0.857734
Si Si6 0.937905 0.242337 0.841427
O O1 0.500000 0.096428 0.891864
O O2 0.393619 0.077006 0.861847
O O3 0.431749 0.189410 0.882790
O O4 0.429890 0.109236 0.000000
O O5 0.906952 0.936795 0.121892
O O6 0.000000 0.000000 0.114598
O O7 0.933940 0.000000 0.000000
O O8 0.265289 0.500000 0.093154
O O9 0.210318 0.594426 0.147668
O O10 0.311534 0.612214 0.098441
O O11 0.234625 0.588090 0.000000
O O12 0.646186 0.115941 0.268164
O O13 0.665887 0.000000 0.219814
O O14 0.102625 0.188902 0.872198
O O15 0.930376 0.250000 0.750000
O O16 0.000000 0.220762 0.852932
#
# Coordination Sequence:
#
# PCOD9513156 Si02
#       6
#    32  16  32  32  32  32
#     4  10  22  40  61  87 121 157 197 249 303 356
#     4  11  24  38  55  90 133 159 191 250 308 360
#     4  10  21  38  60  86 123 161 195 242 301 362
#     4  11  22  38  61  92 119 155 200 249 300 357
#     4  12  21  37  63  90 117 159 203 247 297 355
#     4  10  21  39  62  87 118 158 204 246 294 355
#
# _framework density 19.481459000000001
#
# number of rings (size 3 to 8) (size 9 to 14) (size 15 to 20)
#    0.000    1.364    3.636    2.182    0.000    5.091 
#    0.000    3.636    0.000    2.182    0.000    0.000 
#    0.000    0.000    0.000    0.000    0.000    0.000 
#
# Total GULP energy -245957.877954 kJ/mol
# GULP energy per Si atom -5589.951772 kJ/mol
# Density = 1.943712 g / cm^3
# Si number density = 19.481459 Si / 1000 Ang^3
#
#
#
# Elastic Constant Matrix: (Units=GPa)
#
#
# Indices 1 2 3 4 5 6 
#
# 1 88.4327 21.5401 14.2305 0.0000 0.0000 0.0000
# 2 21.5401 31.9813 -6.7931 0.0000 0.0000 0.0000
# 3 14.2305 -6.7931 57.0885 0.0000 0.0000 0.0000
# 4 0.0000 0.0000 0.0000 20.6355 0.0000 0.0000
# 5 0.0000 0.0000 0.0000 0.0000 33.7233 0.0000
# 6 0.0000 0.0000 0.0000 0.0000 0.0000 30.6172
#
#
#
# Elastic Compliance Matrix: (Units=1/GPa)
#
#
# Indices 1 2 3 4 5 6 
#
# 1 0.014800 -0.011030 -0.005002 0.000000 0.000000 0.000000
# 2 -0.011030 0.040300 0.007545 0.000000 0.000000 0.000000
# 3 -0.005002 0.007545 0.019661 0.000000 0.000000 0.000000
# 4 0.000000 0.000000 0.000000 0.048460 0.000000 0.000000
# 5 0.000000 0.000000 0.000000 0.000000 0.029653 0.000000
# 6 0.000000 0.000000 0.000000 0.000000 0.000000 0.032661
#
#
# Mechanical properties :
#
#
# Convention : Reuss Voigt Hill
#
# Bulk Modulus (GPa) = 17.30497 26.16194 21.73345
# Shear Modulus (GPa) = 22.54572 26.89687 24.72129
#
# Velocity S-wave (km/s) = 3.40559 3.71973 3.56612
# Velocity P-wave (km/s) = 4.93620 5.64861 5.30438
#
# Compressibility (1/GPa) = 0.05778688
#
# Stress axis : x y z
#
# Youngs Moduli (GPa) = 67.56942 24.81391 50.86155
#
# Poissons Ratio (x) = 0.27370 0.25439
# Poissons Ratio (y) = 0.74531 -0.38374
# Poissons Ratio (z) = 0.33796 -0.18722
#
# Static dielectric constant tensor:
#      x y z
#    x 1.668300 0.000000 0.000000 
#    y 0.000000 1.644420 0.000000 
#    z 0.000000 0.000000 1.676080 
# 
# From -- ./inp_files/26748.got.cif
#   From: 2010.05.17/outbox.cif.g08.bks.cpg/sg69_14_cif.got.tgz:26748.got - 2010.06.03 19:29:58.
