data_PCOD9513637
_publ_section_title
;
Structure prediction by ZEFSAII (Michael W. Deem and Ramdas Pophale) SiO2 
 PCOD9513637
Probable space group: F M M M
;
_chemical_formula_sum "Si O2"
_cell_formula_units_Z 144
_cell_length_a 27.123481
_cell_length_b 19.304515
_cell_length_c 14.490092
_cell_angle_alpha 90.000000
_cell_angle_beta 90.000000
_cell_angle_gamma 90.000000
_cell_volume 7587.093980
_symmetry_space_group_name_H-M "F M M M"
_symmetry_group_IT_number 69
_symmetry_cell_setting 'orthorhombic'
loop_
_space_group_symop_operation_xyz
x,y,z
-x,-y,z
x,-y,-z
-x,y,-z
-x,-y,-z
x,y,-z
-x,y,z
x,-y,z
x,1/2+y,1/2+z
-x,1/2-y,1/2+z
x,1/2-y,1/2-z
-x,1/2+y,1/2-z
-x,1/2-y,1/2-z
x,1/2+y,1/2-z
-x,1/2+y,1/2+z
x,1/2-y,1/2+z
1/2+x,y,1/2+z
1/2-x,-y,1/2+z
1/2+x,-y,1/2-z
1/2-x,y,1/2-z
1/2-x,-y,1/2-z
1/2+x,y,1/2-z
1/2-x,y,1/2+z
1/2+x,-y,1/2+z
1/2+x,1/2+y,z
1/2-x,1/2-y,z
1/2+x,1/2-y,-z
1/2-x,1/2+y,-z
1/2-x,1/2-y,-z
1/2+x,1/2+y,-z
1/2-x,1/2+y,z
1/2+x,1/2-y,z
loop_
_atom_site_type_symbol
_atom_site_label
_atom_site_fract_x
_atom_site_fract_y
_atom_site_fract_z
Si Si1 0.878586 0.875932 0.197875
Si Si2 0.198237 0.779724 0.892550
Si Si3 0.441393 0.000000 0.389418
Si Si4 0.875585 0.147794 0.601665
Si Si5 0.442519 0.732547 0.896118
O O1 0.827280 0.844876 0.157720
O O2 0.908940 0.935182 0.145683
O O3 0.871182 0.894840 0.304882
O O4 0.914088 0.809926 0.181085
O O5 0.250000 0.750000 0.856826
O O6 0.161697 0.713413 0.890185
O O7 0.205081 0.799015 0.000000
O O8 0.500000 0.000000 0.359553
O O9 0.442528 0.000000 0.500000
O O10 0.868528 0.115999 0.500000
O O11 0.928093 0.187014 0.604747
O O12 0.500000 0.721739 0.886902
O O13 0.427057 0.707435 0.000000
#
# Coordination Sequence:
#
# PCOD9513637 Si02
#       5
#    32  32  16  32  32
#     4  11  20  32  52  75 104 141 180 219 263 319
#     4   9  17  31  55  86 114 138 170 221 284 338
#     4  11  24  40  57  78 107 145 186 224 262 314
#     4   9  19  32  47  73 105 136 174 222 272 320
#     4   9  16  27  46  73 102 129 162 212 272 326
#
# _framework density 18.979599
#
# number of rings (size 3 to 8) (size 9 to 14) (size 15 to 20)
#    0.000    2.333    0.000    6.667    0.000    6.222 
#    0.000    0.556    0.000    3.333    0.000    4.667 
#    0.000    0.000    0.000    0.000    0.000    0.000 
#
# Total GULP energy -200405.777479 kJ/mol
# GULP energy per Si atom -5566.827152 kJ/mol
# Density = 1.893640 g / cm^3
# Si number density = 18.979599 Si / 1000 Ang^3
#
#
#
# Elastic Constant Matrix: (Units=GPa)
#
#
# Indices 1 2 3 4 5 6 
#
# 1 99.8323 30.1791 40.3252 0.0000 0.0000 0.0000
# 2 30.1791 51.0146 27.5132 0.0000 0.0000 0.0000
# 3 40.3252 27.5132 143.9193 0.0000 0.0000 0.0000
# 4 0.0000 0.0000 0.0000 21.3667 0.0000 0.0000
# 5 0.0000 0.0000 0.0000 0.0000 -3.5399 0.0000
# 6 0.0000 0.0000 0.0000 0.0000 0.0000 17.6355
#
#
#
# Elastic Compliance Matrix: (Units=1/GPa)
#
#
# Indices 1 2 3 4 5 6 
#
# 1 0.012903 -0.006337 -0.002404 0.000000 0.000000 0.000000
# 2 -0.006337 0.024968 -0.002998 0.000000 0.000000 0.000000
# 3 -0.002404 -0.002998 0.008195 0.000000 0.000000 0.000000
# 4 0.000000 0.000000 0.000000 0.046802 0.000000 0.000000
# 5 0.000000 0.000000 0.000000 0.000000 -0.282494 0.000000
# 6 0.000000 0.000000 0.000000 0.000000 0.000000 0.056704
#
#
# Mechanical properties :
#
#
# Convention : Reuss Voigt Hill
#
# Bulk Modulus (GPa) = 44.26898 54.53349 49.40124
# Shear Modulus (GPa) = -49.06012 20.20904 -14.42554
#
# Velocity S-wave (km/s) = -5.08969 3.26663 -2.75990
# Velocity P-wave (km/s) = 3.34138 6.55919 3.99112
#
# Compressibility (1/GPa) = 0.02258918
#
# Stress axis : x y z
#
# Youngs Moduli (GPa) = 77.49846 40.05184 122.02598
#
# Poissons Ratio (x) = 0.25380 0.29336
# Poissons Ratio (y) = 0.49110 0.36578
# Poissons Ratio (z) = 0.18631 0.12006
#
# Static dielectric constant tensor:
#      x y z
#    x 1.709460 0.000000 0.000000 
#    y 0.000000 1.694080 0.000000 
#    z 0.000000 0.000000 1.759380 
# 
# From -- ./inp_files/19422.got.cif
#   From: 2010.05.17/outbox.cif.g08.bks.cpg/sg69_10_cif.got.tgz:19422.got - 2010.06.03 19:29:58.
