data_PCOD9513252
_publ_section_title
;
Structure prediction by ZEFSAII (Michael W. Deem and Ramdas Pophale) SiO2 
 PCOD9513252
Probable space group: F M M M
;
_chemical_formula_sum "Si O2"
_cell_formula_units_Z 160
_cell_length_a 28.422182
_cell_length_b 16.710760
_cell_length_c 17.386873
_cell_angle_alpha 90.000000
_cell_angle_beta 90.000000
_cell_angle_gamma 90.000000
_cell_volume 8258.004209
_symmetry_space_group_name_H-M "F M M M"
_symmetry_group_IT_number 69
_symmetry_cell_setting 'orthorhombic'
loop_
_space_group_symop_operation_xyz
x,y,z
-x,-y,z
x,-y,-z
-x,y,-z
-x,-y,-z
x,y,-z
-x,y,z
x,-y,z
x,1/2+y,1/2+z
-x,1/2-y,1/2+z
x,1/2-y,1/2-z
-x,1/2+y,1/2-z
-x,1/2-y,1/2-z
x,1/2+y,1/2-z
-x,1/2+y,1/2+z
x,1/2-y,1/2+z
1/2+x,y,1/2+z
1/2-x,-y,1/2+z
1/2+x,-y,1/2-z
1/2-x,y,1/2-z
1/2-x,-y,1/2-z
1/2+x,y,1/2-z
1/2-x,y,1/2+z
1/2+x,-y,1/2+z
1/2+x,1/2+y,z
1/2-x,1/2-y,z
1/2+x,1/2-y,-z
1/2-x,1/2+y,-z
1/2-x,1/2-y,-z
1/2+x,1/2+y,-z
1/2-x,1/2+y,z
1/2+x,1/2-y,z
loop_
_atom_site_type_symbol
_atom_site_label
_atom_site_fract_x
_atom_site_fract_y
_atom_site_fract_z
Si Si1 0.271666 0.340123 0.853318
Si Si2 0.679243 0.094582 0.500000
Si Si3 0.675575 0.906508 0.087750
Si Si4 0.643616 0.844299 0.242330
Si Si5 0.448754 0.096527 0.669990
Si Si6 0.932467 0.407916 0.500000
O O1 0.250000 0.250000 0.844860
O O2 0.227608 0.394220 0.877561
O O3 0.305727 0.364870 0.782718
O O4 0.304796 0.354057 0.926787
O O5 0.623598 0.089314 0.500000
O O6 0.696580 0.000000 0.500000
O O7 0.643522 0.866829 0.152729
O O8 0.664787 0.000000 0.084730
O O9 0.673821 0.874517 0.000000
O O10 0.641319 0.750000 0.250000
O O11 0.598350 0.879248 0.285426
O O12 0.500000 0.120045 0.703386
O O13 0.446922 0.127666 0.581901
O O14 0.447621 0.000000 0.666571
O O15 0.949286 0.500000 0.500000
#
# Coordination Sequence:
#
# PCOD9513252 Si02
#       6
#    32  16  32  32  32  16
#     4  12  23  38  59  86 127 165 207 250 301 366
#     4  11  21  34  59  93 125 165 207 245 301 363
#     4  11  25  42  62  87 121 169 217 258 303 358
#     4  12  25  41  61  90 123 160 206 256 312 365
#     4  10  21  39  65  93 122 157 198 251 312 372
#     4   9  17  33  58  90 123 151 183 233 304 374
#
# _framework density 19.375140999999999
#
# number of rings (size 3 to 8) (size 9 to 14) (size 15 to 20)
#    0.000    1.000    5.000    2.400    0.000    4.800 
#    1.800    0.000    0.000    0.600    0.000    2.800 
#    0.000    0.000    0.000    0.000    0.000    0.000 
#
# Total GULP energy -223027.475066 kJ/mol
# GULP energy per Si atom -5575.686877 kJ/mol
# Density = 1.933104 g / cm^3
# Si number density = 19.375141 Si / 1000 Ang^3
#
#
#
# Elastic Constant Matrix: (Units=GPa)
#
#
# Indices 1 2 3 4 5 6 
#
# 1 123.2189 18.1474 65.8228 0.0000 0.0000 0.0000
# 2 18.1474 38.2364 36.4239 0.0000 0.0000 0.0000
# 3 65.8228 36.4239 173.2884 0.0000 0.0000 0.0000
# 4 0.0000 0.0000 0.0000 9.5264 0.0000 0.0000
# 5 0.0000 0.0000 0.0000 0.0000 8.1237 0.0000
# 6 0.0000 0.0000 0.0000 0.0000 0.0000 12.0718
#
#
#
# Elastic Compliance Matrix: (Units=1/GPa)
#
#
# Indices 1 2 3 4 5 6 
#
# 1 0.010245 -0.001445 -0.003588 0.000000 0.000000 0.000000
# 2 -0.001445 0.032904 -0.006368 0.000000 0.000000 0.000000
# 3 -0.003588 -0.006368 0.008472 0.000000 0.000000 0.000000
# 4 0.000000 0.000000 0.000000 0.104971 0.000000 0.000000
# 5 0.000000 0.000000 0.000000 0.000000 0.123097 0.000000
# 6 0.000000 0.000000 0.000000 0.000000 0.000000 0.082838
#
#
# Mechanical properties :
#
#
# Convention : Reuss Voigt Hill
#
# Bulk Modulus (GPa) = 34.69642 63.94797 49.32220
# Shear Modulus (GPa) = 12.66032 20.23434 16.44733
#
# Velocity S-wave (km/s) = 2.55900 3.23514 2.91673
# Velocity P-wave (km/s) = 5.16507 6.85796 6.07081
#
# Compressibility (1/GPa) = 0.02882141
#
# Stress axis : x y z
#
# Youngs Moduli (GPa) = 97.60838 30.39105 118.03613
#
# Poissons Ratio (x) = 0.04390 0.42350
# Poissons Ratio (y) = 0.14100 0.75160
# Poissons Ratio (z) = 0.35021 0.19352
#
# Static dielectric constant tensor:
#      x y z
#    x 1.695600 0.000000 0.000000 
#    y 0.000000 1.645910 0.000000 
#    z 0.000000 0.000000 1.738160 
# 
# From -- ./inp_files/15687.got.cif
#   From: 2010.05.17/outbox.cif.g08.bks.cpg/sg69_8_cif.got.tgz:15687.got - 2010.06.03 19:29:58.
