data_PCOD9513201
_publ_section_title
;
Structure prediction by ZEFSAII (Michael W. Deem and Ramdas Pophale) SiO2 
 PCOD9513201
Probable space group: F M M M
;
_chemical_formula_sum "Si O2"
_cell_formula_units_Z 168
_cell_length_a 16.595220
_cell_length_b 30.131569
_cell_length_c 17.787639
_cell_angle_alpha 90.000000
_cell_angle_beta 90.000000
_cell_angle_gamma 90.000000
_cell_volume 8894.531299
_symmetry_space_group_name_H-M "F M M M"
_symmetry_group_IT_number 69
_symmetry_cell_setting 'orthorhombic'
loop_
_space_group_symop_operation_xyz
x,y,z
-x,-y,z
x,-y,-z
-x,y,-z
-x,-y,-z
x,y,-z
-x,y,z
x,-y,z
x,1/2+y,1/2+z
-x,1/2-y,1/2+z
x,1/2-y,1/2-z
-x,1/2+y,1/2-z
-x,1/2-y,1/2-z
x,1/2+y,1/2-z
-x,1/2+y,1/2+z
x,1/2-y,1/2+z
1/2+x,y,1/2+z
1/2-x,-y,1/2+z
1/2+x,-y,1/2-z
1/2-x,y,1/2-z
1/2-x,-y,1/2-z
1/2+x,y,1/2-z
1/2-x,y,1/2+z
1/2+x,-y,1/2+z
1/2+x,1/2+y,z
1/2-x,1/2-y,z
1/2+x,1/2-y,-z
1/2-x,1/2+y,-z
1/2-x,1/2-y,-z
1/2+x,1/2+y,-z
1/2-x,1/2+y,z
1/2+x,1/2-y,z
loop_
_atom_site_type_symbol
_atom_site_label
_atom_site_fract_x
_atom_site_fract_y
_atom_site_fract_z
Si Si1 0.396590 0.500000 0.500000
Si Si2 0.372786 0.574488 0.626678
Si Si3 0.821775 0.784953 0.909049
Si Si4 0.216222 0.620843 0.335561
Si Si5 0.905027 0.451473 0.296964
Si Si6 0.500000 0.249523 0.091397
Si Si7 0.500000 0.647326 0.590520
O O1 0.396592 0.538885 0.564883
O O2 0.281601 0.591122 0.620869
O O3 0.387940 0.553659 0.708286
O O4 0.424527 0.619194 0.618793
O O5 0.750000 0.750000 0.889722
O O6 0.799509 0.831851 0.872294
O O7 0.913254 0.770512 0.885929
O O8 0.821819 0.788620 0.000000
O O9 0.250000 0.625953 0.250000
O O10 0.137173 0.590554 0.333602
O O11 0.873346 0.500000 0.321576
O O12 0.000000 0.450488 0.309300
O O13 0.500000 0.198075 0.115823
O O14 0.500000 0.250348 0.000000
O O15 0.500000 0.647103 0.500000
#
# Coordination Sequence:
#
# PCOD9513201 Si02
#       7
#     8  32  32  32  32  16  16
#     4  12  24  33  58  92 123 162 194 246 307 360
#     4  11  22  35  56  87 123 154 194 245 295 361
#     4  10  21  40  65  90 119 154 201 254 310 360
#     4  10  24  39  60  87 120 160 203 244 298 357
#     4  10  21  39  60  81 117 161 201 244 293 352
#     4   9  20  36  59  86 116 153 194 241 303 368
#     4  11  20  34  55  86 123 150 185 236 308 365
#
# _framework density 18.888010999999999
#
# number of rings (size 3 to 8) (size 9 to 14) (size 15 to 20)
#    0.000    1.714    2.857    1.143    4.000    3.810 
#    0.000    0.000    0.000    3.429    0.000    2.000 
#    0.000    0.000    0.000    0.000    0.000    0.000 
#
# Total GULP energy -233852.392518 kJ/mol
# GULP energy per Si atom -5567.914108 kJ/mol
# Density = 1.884502 g / cm^3
# Si number density = 18.888011 Si / 1000 Ang^3
#
#
#
# Elastic Constant Matrix: (Units=GPa)
#
#
# Indices 1 2 3 4 5 6 
#
# 1 113.2884 61.8696 13.8754 0.0000 0.0000 0.0000
# 2 61.8696 145.9611 23.9410 0.0000 0.0000 0.0000
# 3 13.8754 23.9410 13.7760 0.0000 0.0000 0.0000
# 4 0.0000 0.0000 0.0000 39.7419 0.0000 0.0000
# 5 0.0000 0.0000 0.0000 0.0000 22.2184 0.0000
# 6 0.0000 0.0000 0.0000 0.0000 0.0000 9.1504
#
#
#
# Elastic Compliance Matrix: (Units=1/GPa)
#
#
# Indices 1 2 3 4 5 6 
#
# 1 0.011675 -0.004224 -0.004418 0.000000 0.000000 0.000000
# 2 -0.004224 0.011111 -0.015055 0.000000 0.000000 0.000000
# 3 -0.004418 -0.015055 0.103204 0.000000 0.000000 0.000000
# 4 0.000000 0.000000 0.000000 0.025162 0.000000 0.000000
# 5 0.000000 0.000000 0.000000 0.000000 0.045008 0.000000
# 6 0.000000 0.000000 0.000000 0.000000 0.000000 0.109284
#
#
# Mechanical properties :
#
#
# Convention : Reuss Voigt Hill
#
# Bulk Modulus (GPa) = 12.72338 52.48860 32.60599
# Shear Modulus (GPa) = 13.19127 25.77812 19.48470
#
# Velocity S-wave (km/s) = 2.64558 3.69831 3.21532
# Velocity P-wave (km/s) = 4.01036 6.78869 5.57536
#
# Compressibility (1/GPa) = 0.07859545
#
# Stress axis : x y z
#
# Youngs Moduli (GPa) = 85.65272 90.00076 9.68951
#
# Poissons Ratio (x) = 0.38017 0.04281
# Poissons Ratio (y) = 0.36180 0.14588
# Poissons Ratio (z) = 0.37844 1.35497
#
# Static dielectric constant tensor:
#      x y z
#    x 1.749000 0.000000 0.000000 
#    y 0.000000 1.621020 0.000000 
#    z 0.000000 0.000000 1.635390 
# 
# From -- ./inp_files/30165.got.cif
#   From: 2010.05.17/outbox.cif.g08.bks.cpg/sg69_16_cif.got.tgz:30165.got - 2010.06.03 19:29:58.
