data_PCOD9513820
_publ_section_title
;
Structure prediction by ZEFSAII (Michael W. Deem and Ramdas Pophale) SiO2 
 PCOD9513820
Probable space group: F M M M
;
_chemical_formula_sum "Si O2"
_cell_formula_units_Z 104
_cell_length_a 15.818059
_cell_length_b 16.511095
_cell_length_c 17.711228
_cell_angle_alpha 90.000000
_cell_angle_beta 90.000000
_cell_angle_gamma 90.000000
_cell_volume 4625.702961
_symmetry_space_group_name_H-M "F M M M"
_symmetry_group_IT_number 69
_symmetry_cell_setting 'orthorhombic'
loop_
_space_group_symop_operation_xyz
x,y,z
-x,-y,z
x,-y,-z
-x,y,-z
-x,-y,-z
x,y,-z
-x,y,z
x,-y,z
x,1/2+y,1/2+z
-x,1/2-y,1/2+z
x,1/2-y,1/2-z
-x,1/2+y,1/2-z
-x,1/2-y,1/2-z
x,1/2+y,1/2-z
-x,1/2+y,1/2+z
x,1/2-y,1/2+z
1/2+x,y,1/2+z
1/2-x,-y,1/2+z
1/2+x,-y,1/2-z
1/2-x,y,1/2-z
1/2-x,-y,1/2-z
1/2+x,y,1/2-z
1/2-x,y,1/2+z
1/2+x,-y,1/2+z
1/2+x,1/2+y,z
1/2-x,1/2-y,z
1/2+x,1/2-y,-z
1/2-x,1/2+y,-z
1/2-x,1/2-y,-z
1/2+x,1/2+y,-z
1/2-x,1/2+y,z
1/2+x,1/2-y,z
loop_
_atom_site_type_symbol
_atom_site_label
_atom_site_fract_x
_atom_site_fract_y
_atom_site_fract_z
Si Si1 0.836243 0.352168 0.891437
Si Si2 0.636951 0.830881 0.418050
Si Si3 0.403378 0.593733 0.240209
Si Si4 0.119951 0.500000 0.000000
O O1 0.737541 0.348543 0.913277
O O2 0.874776 0.265740 0.913685
O O3 0.846095 0.362119 0.801683
O O4 0.876533 0.428253 0.934426
O O5 0.606756 0.860584 0.500000
O O6 0.599883 0.870588 0.343506
O O7 0.500000 0.599652 0.267926
O O8 0.378309 0.500000 0.236611
#
# Coordination Sequence:
#
# PCOD9513820 Si02
#       4
#    32  32  32   8
#     4  11  22  42  67  98 126 158 213 264 318 370
#     4  11  23  41  66  97 129 162 207 262 313 380
#     4  11  26  43  62  92 129 171 214 256 311 378
#     4  12  20  38  75  96 125 160 206 272 322 354
#
# _framework density 22.483069
#
# number of rings (size 3 to 8) (size 9 to 14) (size 15 to 20)
#    0.000    0.923    4.615    2.769    2.154    7.385 
#    0.000    3.077    0.000    0.000    0.000    0.000 
#    0.000    0.000    0.000    0.000    0.000    0.000 
#
# Total GULP energy -144938.685964 kJ/mol
# GULP energy per Si atom -5574.564845 kJ/mol
# Density = 2.243190 g / cm^3
# Si number density = 22.483069 Si / 1000 Ang^3
#
#
#
# Elastic Constant Matrix: (Units=GPa)
#
#
# Indices 1 2 3 4 5 6 
#
# 1 23.1933 11.1051 25.2299 0.0000 0.0000 0.0000
# 2 11.1051 72.4450 53.0656 0.0000 0.0000 0.0000
# 3 25.2299 53.0656 209.1337 0.0000 0.0000 0.0000
# 4 0.0000 0.0000 0.0000 222.9395 0.0000 0.0000
# 5 0.0000 0.0000 0.0000 0.0000 38.0423 0.0000
# 6 0.0000 0.0000 0.0000 0.0000 0.0000 13.4394
#
#
#
# Elastic Compliance Matrix: (Units=1/GPa)
#
#
# Indices 1 2 3 4 5 6 
#
# 1 0.050570 -0.004033 -0.005078 0.000000 0.000000 0.000000
# 2 -0.004033 0.017276 -0.003897 0.000000 0.000000 0.000000
# 3 -0.005078 -0.003897 0.006383 0.000000 0.000000 0.000000
# 4 0.000000 0.000000 0.000000 0.004486 0.000000 0.000000
# 5 0.000000 0.000000 0.000000 0.000000 0.026287 0.000000
# 6 0.000000 0.000000 0.000000 0.000000 0.000000 0.074408
#
#
# Mechanical properties :
#
#
# Convention : Reuss Voigt Hill
#
# Bulk Modulus (GPa) = 20.74050 53.73038 37.23544
# Shear Modulus (GPa) = 22.57373 69.24233 45.90803
#
# Velocity S-wave (km/s) = 3.17208 5.55557 4.52363
# Velocity P-wave (km/s) = 4.76037 8.06862 6.62434
#
# Compressibility (1/GPa) = 0.04821485
#
# Stress axis : x y z
#
# Youngs Moduli (GPa) = 19.77449 57.88231 156.66451
#
# Poissons Ratio (x) = 0.23342 0.79547
# Poissons Ratio (y) = 0.07974 0.61056
# Poissons Ratio (z) = 0.10041 0.22558
#
# Static dielectric constant tensor:
#      x y z
#    x 1.851640 0.000000 0.000000 
#    y 0.000000 1.779000 0.000000 
#    z 0.000000 0.000000 1.839320 
# 
# From -- ./inp_files/21372.got.cif
#   From: 2010.05.17/outbox.cif.g08.bks.cpg/sg69_11_cif.got.tgz:21372.got - 2010.06.03 19:29:58.
