data_PCOD9513516
_publ_section_title
;
Structure prediction by ZEFSAII (Michael W. Deem and Ramdas Pophale) SiO2 
 PCOD9513516
Probable space group: F M M M
;
_chemical_formula_sum "Si O2"
_cell_formula_units_Z 176
_cell_length_a 25.632517
_cell_length_b 25.707180
_cell_length_c 12.187305
_cell_angle_alpha 90.000000
_cell_angle_beta 90.000000
_cell_angle_gamma 90.000000
_cell_volume 8030.699446
_symmetry_space_group_name_H-M "F M M M"
_symmetry_group_IT_number 69
_symmetry_cell_setting 'orthorhombic'
loop_
_space_group_symop_operation_xyz
x,y,z
-x,-y,z
x,-y,-z
-x,y,-z
-x,-y,-z
x,y,-z
-x,y,z
x,-y,z
x,1/2+y,1/2+z
-x,1/2-y,1/2+z
x,1/2-y,1/2-z
-x,1/2+y,1/2-z
-x,1/2-y,1/2-z
x,1/2+y,1/2-z
-x,1/2+y,1/2+z
x,1/2-y,1/2+z
1/2+x,y,1/2+z
1/2-x,-y,1/2+z
1/2+x,-y,1/2-z
1/2-x,y,1/2-z
1/2-x,-y,1/2-z
1/2+x,y,1/2-z
1/2-x,y,1/2+z
1/2+x,-y,1/2+z
1/2+x,1/2+y,z
1/2-x,1/2-y,z
1/2+x,1/2-y,-z
1/2-x,1/2+y,-z
1/2-x,1/2-y,-z
1/2+x,1/2+y,-z
1/2-x,1/2+y,z
1/2+x,1/2-y,z
loop_
_atom_site_type_symbol
_atom_site_label
_atom_site_fract_x
_atom_site_fract_y
_atom_site_fract_z
Si Si1 0.624010 0.560303 0.000000
Si Si2 0.334879 0.738989 0.623251
Si Si3 0.701861 0.870208 0.820881
Si Si4 0.742668 0.937606 0.500000
Si Si5 0.404791 0.903544 0.272655
Si Si6 0.941479 0.301022 0.374056
Si Si7 0.937834 0.500000 0.123575
O O1 0.591632 0.572756 0.892786
O O2 0.635033 0.500000 0.000000
O O3 0.682872 0.583660 0.000000
O O4 0.315942 0.759679 0.500000
O O5 0.314901 0.750000 0.750000
O O6 0.325040 0.677626 0.617231
O O7 0.394320 0.759849 0.630220
O O8 0.750000 0.849786 0.750000
O O9 0.656179 0.893561 0.747834
O O10 0.726674 0.914130 0.896993
O O11 0.744340 0.000000 0.500000
O O12 0.431836 0.847194 0.286273
O O13 0.422520 0.946789 0.186093
O O14 0.938472 0.322072 0.500000
O O15 0.000000 0.279792 0.360980
O O16 0.000000 0.500000 0.117757
O O17 0.915690 0.500000 0.000000
#
# Coordination Sequence:
#
# PCOD9513516 Si02
#       7
#    16  32  32  16  32  32  16
#     4  11  22  42  67 106 141 175 228 299 351 422
#     4  11  24  47  71 100 140 187 239 299 364 433
#     4  12  26  44  68 106 145 192 241 294 359 439
#     4  11  26  44  71 104 147 197 242 292 362 431
#     4  12  23  42  72 101 142 186 234 296 363 433
#     4  10  22  42  70 103 138 181 239 306 371 432
#     4  11  28  49  68 101 147 193 238 293 360 436
#
# _framework density 21.915897999999999
#
# number of rings (size 3 to 8) (size 9 to 14) (size 15 to 20)
#    0.000    0.818    6.364    0.545    2.545    1.091 
#    1.636    1.364    0.000    0.000    0.000    0.000 
#    0.000    0.000    0.000    0.000    0.000    0.000 
#
# Total GULP energy -245227.534625 kJ/mol
# GULP energy per Si atom -5573.353060 kJ/mol
# Density = 2.186602 g / cm^3
# Si number density = 21.915898 Si / 1000 Ang^3
#
#
#
# Elastic Constant Matrix: (Units=GPa)
#
#
# Indices 1 2 3 4 5 6 
#
# 1 89.8335 42.2530 17.5190 0.0000 0.0000 0.0000
# 2 42.2530 113.1018 41.5252 0.0000 0.0000 0.0000
# 3 17.5190 41.5252 162.7725 0.0000 0.0000 0.0000
# 4 0.0000 0.0000 0.0000 40.6286 0.0000 0.0000
# 5 0.0000 0.0000 0.0000 0.0000 30.2648 0.0000
# 6 0.0000 0.0000 0.0000 0.0000 0.0000 34.8472
#
#
#
# Elastic Compliance Matrix: (Units=1/GPa)
#
#
# Indices 1 2 3 4 5 6 
#
# 1 0.013510 -0.004980 -0.000184 0.000000 0.000000 0.000000
# 2 -0.004980 0.011591 -0.002421 0.000000 0.000000 0.000000
# 3 -0.000184 -0.002421 0.006781 0.000000 0.000000 0.000000
# 4 0.000000 0.000000 0.000000 0.024613 0.000000 0.000000
# 5 0.000000 0.000000 0.000000 0.000000 0.033042 0.000000
# 6 0.000000 0.000000 0.000000 0.000000 0.000000 0.028697
#
#
# Mechanical properties :
#
#
# Convention : Reuss Voigt Hill
#
# Bulk Modulus (GPa) = 59.83411 63.14469 61.48940
# Shear Modulus (GPa) = 35.97839 38.77549 37.37694
#
# Velocity S-wave (km/s) = 4.05613 4.21085 4.13422
# Velocity P-wave (km/s) = 7.02120 7.24683 7.13491
#
# Compressibility (1/GPa) = 0.01671288
#
# Stress axis : x y z
#
# Youngs Moduli (GPa) = 74.02118 86.27584 147.47228
#
# Poissons Ratio (x) = 0.42961 0.02709
# Poissons Ratio (y) = 0.36859 0.35703
# Poissons Ratio (z) = 0.01360 0.20887
#
# Static dielectric constant tensor:
#      x y z
#    x 1.778670 0.000000 0.000000 
#    y 0.000000 1.808120 0.000000 
#    z 0.000000 0.000000 1.880440 
# 
# From -- ./inp_files/11591.got.cif
#   From: 2010.05.17/outbox.cif.g08.bks.cpg/sg69_6_cif.got.tgz:11591.got - 2010.06.03 19:29:58.
