data_PCOD9513680
_publ_section_title
;
Structure prediction by ZEFSAII (Michael W. Deem and Ramdas Pophale) SiO2 
 PCOD9513680
Probable space group: F M M M
;
_chemical_formula_sum "Si O2"
_cell_formula_units_Z 192
_cell_length_a 28.578879
_cell_length_b 14.287371
_cell_length_c 28.131256
_cell_angle_alpha 90.000000
_cell_angle_beta 90.000000
_cell_angle_gamma 90.000000
_cell_volume 11486.471379
_symmetry_space_group_name_H-M "F M M M"
_symmetry_group_IT_number 69
_symmetry_cell_setting 'orthorhombic'
loop_
_space_group_symop_operation_xyz
x,y,z
-x,-y,z
x,-y,-z
-x,y,-z
-x,-y,-z
x,y,-z
-x,y,z
x,-y,z
x,1/2+y,1/2+z
-x,1/2-y,1/2+z
x,1/2-y,1/2-z
-x,1/2+y,1/2-z
-x,1/2-y,1/2-z
x,1/2+y,1/2-z
-x,1/2+y,1/2+z
x,1/2-y,1/2+z
1/2+x,y,1/2+z
1/2-x,-y,1/2+z
1/2+x,-y,1/2-z
1/2-x,y,1/2-z
1/2-x,-y,1/2-z
1/2+x,y,1/2-z
1/2-x,y,1/2+z
1/2+x,-y,1/2+z
1/2+x,1/2+y,z
1/2-x,1/2-y,z
1/2+x,1/2-y,-z
1/2-x,1/2+y,-z
1/2-x,1/2-y,-z
1/2+x,1/2+y,-z
1/2-x,1/2+y,z
1/2+x,1/2-y,z
loop_
_atom_site_type_symbol
_atom_site_label
_atom_site_fract_x
_atom_site_fract_y
_atom_site_fract_z
Si Si1 0.779370 0.000000 0.176204
Si Si2 0.640773 0.709342 0.442968
Si Si3 0.129160 0.200160 0.699576
Si Si4 0.201046 0.802556 0.129203
Si Si5 0.049085 0.500000 0.081694
Si Si6 0.675020 0.000000 0.781274
Si Si7 0.553264 0.201625 0.877817
Si Si8 0.848621 0.500000 0.947349
O O1 0.791549 0.091867 0.146091
O O2 0.724244 0.000000 0.189979
O O3 0.808713 0.000000 0.225808
O O4 0.638527 0.707457 0.500000
O O5 0.675657 0.785398 0.421096
O O6 0.589853 0.729407 0.419694
O O7 0.659180 0.604476 0.426268
O O8 0.127260 0.250000 0.750000
O O9 0.168169 0.251058 0.667591
O O10 0.145298 0.092658 0.706330
O O11 0.080691 0.214821 0.671300
O O12 0.250000 0.750000 0.128491
O O13 0.050225 0.409270 0.114091
O O14 0.094928 0.500000 0.050196
O O15 0.000000 0.500000 0.054712
O O16 0.500000 0.239152 0.880178
O O17 0.827330 0.500000 0.000000
#
# Coordination Sequence:
#
# PCOD9513680 Si02
#       8
#    16  32  32  32  16  16  32  16
#     4  11  22  35  55  82 108 149 185 227 271 327
#     4   9  19  34  54  79 110 147 184 229 276 325
#     4  11  21  34  53  79 110 144 181 229 274 325
#     4  11  22  36  54  80 113 141 185 228 271 324
#     4   8  13  24  41  65  99 132 168 210 255 310
#     4  11  21  34  57  78 109 145 189 224 276 337
#     4   9  18  31  50  77 109 144 181 224 274 332
#     4   8  14  27  47  73 102 134 172 211 268 322
#
# _framework density 16.715316000000001
#
# number of rings (size 3 to 8) (size 9 to 14) (size 15 to 20)
#    0.000    2.167    3.333    0.500    0.000    4.167 
#    0.000    3.750    0.000    0.000    0.000    9.333 
#    0.000    5.333    0.000    0.000    0.000    0.000 
#
# Total GULP energy -267233.259060 kJ/mol
# GULP energy per Si atom -5567.359564 kJ/mol
# Density = 1.667727 g / cm^3
# Si number density = 16.715316 Si / 1000 Ang^3
#
#
#
# Elastic Constant Matrix: (Units=GPa)
#
#
# Indices 1 2 3 4 5 6 
#
# 1 89.9012 38.5805 43.2918 0.0000 0.0000 0.0000
# 2 38.5805 100.3222 32.5616 0.0000 0.0000 0.0000
# 3 43.2918 32.5616 94.7799 0.0000 0.0000 0.0000
# 4 0.0000 0.0000 0.0000 -20.2545 0.0000 0.0000
# 5 0.0000 0.0000 0.0000 0.0000 11.1070 0.0000
# 6 0.0000 0.0000 0.0000 0.0000 0.0000 16.5598
#
#
#
# Elastic Compliance Matrix: (Units=1/GPa)
#
#
# Indices 1 2 3 4 5 6 
#
# 1 0.015669 -0.004167 -0.005725 0.000000 0.000000 0.000000
# 2 -0.004167 0.012327 -0.002332 0.000000 0.000000 0.000000
# 3 -0.005725 -0.002332 0.013967 0.000000 0.000000 0.000000
# 4 0.000000 0.000000 0.000000 -0.049372 0.000000 0.000000
# 5 0.000000 0.000000 0.000000 0.000000 0.090033 0.000000
# 6 0.000000 0.000000 0.000000 0.000000 0.000000 0.060387
#
#
# Mechanical properties :
#
#
# Convention : Reuss Voigt Hill
#
# Bulk Modulus (GPa) = 57.09530 57.09680 57.09605
# Shear Modulus (GPa) = 28.85211 12.85376 20.85293
#
# Velocity S-wave (km/s) = 4.15913 2.77606 3.53588
# Velocity P-wave (km/s) = 7.56942 6.67142 7.13456
#
# Compressibility (1/GPa) = 0.01751458
#
# Stress axis : x y z
#
# Youngs Moduli (GPa) = 63.82153 81.12088 71.59852
#
# Poissons Ratio (x) = 0.33807 0.40991
# Poissons Ratio (y) = 0.26597 0.16693
# Poissons Ratio (z) = 0.36539 0.18913
#
# Static dielectric constant tensor:
#      x y z
#    x 1.589430 0.000000 0.000000 
#    y 0.000000 1.565180 0.000000 
#    z 0.000000 0.000000 1.593000 
# 
# From -- ./inp_files/44015.got.cif
#   From: 2010.05.17/outbox.cif.g08.bks.cpg/sg69_23_cif.got.tgz:44015.got - 2010.06.03 19:29:58.
