data_PCOD9513739
_publ_section_title
;
Structure prediction by ZEFSAII (Michael W. Deem and Ramdas Pophale) SiO2 
 PCOD9513739
Probable space group: F M M M
;
_chemical_formula_sum "Si O2"
_cell_formula_units_Z 96
_cell_length_a 14.805230
_cell_length_b 17.510883
_cell_length_c 18.936724
_cell_angle_alpha 90.000000
_cell_angle_beta 90.000000
_cell_angle_gamma 90.000000
_cell_volume 4909.395885
_symmetry_space_group_name_H-M "F M M M"
_symmetry_group_IT_number 69
_symmetry_cell_setting 'orthorhombic'
loop_
_space_group_symop_operation_xyz
x,y,z
-x,-y,z
x,-y,-z
-x,y,-z
-x,-y,-z
x,y,-z
-x,y,z
x,-y,z
x,1/2+y,1/2+z
-x,1/2-y,1/2+z
x,1/2-y,1/2-z
-x,1/2+y,1/2-z
-x,1/2-y,1/2-z
x,1/2+y,1/2-z
-x,1/2+y,1/2+z
x,1/2-y,1/2+z
1/2+x,y,1/2+z
1/2-x,-y,1/2+z
1/2+x,-y,1/2-z
1/2-x,y,1/2-z
1/2-x,-y,1/2-z
1/2+x,y,1/2-z
1/2-x,y,1/2+z
1/2+x,-y,1/2+z
1/2+x,1/2+y,z
1/2-x,1/2-y,z
1/2+x,1/2-y,-z
1/2-x,1/2+y,-z
1/2-x,1/2-y,-z
1/2+x,1/2+y,-z
1/2-x,1/2+y,z
1/2+x,1/2-y,z
loop_
_atom_site_type_symbol
_atom_site_label
_atom_site_fract_x
_atom_site_fract_y
_atom_site_fract_z
Si Si1 0.349686 0.824749 0.802968
Si Si2 0.000000 0.702505 0.081475
Si Si3 0.670162 0.414254 0.174742
Si Si4 0.500000 0.114904 0.579011
O O1 0.355360 0.750000 0.750000
O O2 0.414090 0.817959 0.869852
O O3 0.374386 0.893564 0.750068
O O4 0.250316 0.851161 0.830497
O O5 0.000000 0.793711 0.077398
O O6 0.000000 0.673398 0.000000
O O7 0.707445 0.500000 0.173633
O O8 0.591334 0.408304 0.118259
O O9 0.500000 0.085662 0.500000
#
# Coordination Sequence:
#
# PCOD9513739 Si02
#       4
#    32  16  32  16
#     4  11  21  40  66  92 119 157 203 258 300 354
#     4  11  24  40  63  93 123 159 205 252 301 360
#     4  11  23  39  64  94 123 159 203 253 305 357
#     4  11  24  40  60  90 127 166 203 245 302 364
#
# _framework density 19.554341999999998
#
# number of rings (size 3 to 8) (size 9 to 14) (size 15 to 20)
#    0.000    1.000    3.333    6.000    0.000    2.667 
#    0.000    5.833    0.000    7.000    0.000    0.000 
#    0.000    0.000    0.000    0.000    0.000    0.000 
#
# Total GULP energy -133709.658986 kJ/mol
# GULP energy per Si atom -5571.235791 kJ/mol
# Density = 1.950984 g / cm^3
# Si number density = 19.554342 Si / 1000 Ang^3
#
#
#
# Elastic Constant Matrix: (Units=GPa)
#
#
# Indices 1 2 3 4 5 6 
#
# 1 127.5535 47.4087 107.6479 0.0000 0.0000 0.0000
# 2 47.4087 71.0255 39.7592 0.0000 0.0000 0.0000
# 3 107.6479 39.7592 181.0697 0.0000 0.0000 0.0000
# 4 0.0000 0.0000 0.0000 10.1823 0.0000 0.0000
# 5 0.0000 0.0000 0.0000 0.0000 -24.8339 0.0000
# 6 0.0000 0.0000 0.0000 0.0000 0.0000 21.5878
#
#
#
# Elastic Compliance Matrix: (Units=1/GPa)
#
#
# Indices 1 2 3 4 5 6 
#
# 1 0.018354 -0.007004 -0.009374 0.000000 0.000000 0.000000
# 2 -0.007004 0.018725 0.000052 0.000000 0.000000 0.000000
# 3 -0.009374 0.000052 0.011084 0.000000 0.000000 0.000000
# 4 0.000000 0.000000 0.000000 0.098210 0.000000 0.000000
# 5 0.000000 0.000000 0.000000 0.000000 -0.040268 0.000000
# 6 0.000000 0.000000 0.000000 0.000000 0.000000 0.046322
#
#
# Mechanical properties :
#
#
# Convention : Reuss Voigt Hill
#
# Bulk Modulus (GPa) = 64.46412 85.47558 74.96985
# Shear Modulus (GPa) = 26.28140 13.70945 19.99543
#
# Velocity S-wave (km/s) = 3.67006 2.65069 3.20121
# Velocity P-wave (km/s) = 7.14124 7.29211 7.21707
#
# Compressibility (1/GPa) = 0.01551251
#
# Stress axis : x y z
#
# Youngs Moduli (GPa) = 54.48473 53.40413 90.21993
#
# Poissons Ratio (x) = 0.37403 0.84569
# Poissons Ratio (y) = 0.38159 -0.00470
# Poissons Ratio (z) = 0.51072 -0.00278
#
# Static dielectric constant tensor:
#      x y z
#    x 1.726570 0.000000 0.000000 
#    y 0.000000 1.716210 0.000000 
#    z 0.000000 0.000000 1.694470 
# 
# From -- ./inp_files/22200.got.cif
#   From: 2010.05.17/outbox.cif.g08.bks.cpg/sg69_12_cif.got.tgz:22200.got - 2010.06.03 19:29:58.
