data_PCOD9513365
_publ_section_title
;
Structure prediction by ZEFSAII (Michael W. Deem and Ramdas Pophale) SiO2 
 PCOD9513365
Probable space group: F M M M
;
_chemical_formula_sum "Si O2"
_cell_formula_units_Z 116
_cell_length_a 27.224901
_cell_length_b 10.180327
_cell_length_c 22.269743
_cell_angle_alpha 90.000000
_cell_angle_beta 90.000000
_cell_angle_gamma 90.000000
_cell_volume 6172.246221
_symmetry_space_group_name_H-M "F M M M"
_symmetry_group_IT_number 69
_symmetry_cell_setting 'orthorhombic'
loop_
_space_group_symop_operation_xyz
x,y,z
-x,-y,z
x,-y,-z
-x,y,-z
-x,-y,-z
x,y,-z
-x,y,z
x,-y,z
x,1/2+y,1/2+z
-x,1/2-y,1/2+z
x,1/2-y,1/2-z
-x,1/2+y,1/2-z
-x,1/2-y,1/2-z
x,1/2+y,1/2-z
-x,1/2+y,1/2+z
x,1/2-y,1/2+z
1/2+x,y,1/2+z
1/2-x,-y,1/2+z
1/2+x,-y,1/2-z
1/2-x,y,1/2-z
1/2-x,-y,1/2-z
1/2+x,y,1/2-z
1/2-x,y,1/2+z
1/2+x,-y,1/2+z
1/2+x,1/2+y,z
1/2-x,1/2-y,z
1/2+x,1/2-y,-z
1/2-x,1/2+y,-z
1/2-x,1/2-y,-z
1/2+x,1/2+y,-z
1/2-x,1/2+y,z
1/2+x,1/2-y,z
loop_
_atom_site_type_symbol
_atom_site_label
_atom_site_fract_x
_atom_site_fract_y
_atom_site_fract_z
Si Si1 0.500000 0.000000 0.000000
Si Si2 0.796345 0.000000 0.166323
Si Si3 0.319360 0.000000 0.806648
Si Si4 0.446192 0.145547 0.302322
Si Si5 0.894623 0.645913 0.000000
Si Si6 0.356057 0.759416 0.624499
O O1 0.454106 0.113757 0.000000
O O2 0.813480 0.868261 0.131949
O O3 0.738113 0.000000 0.175898
O O4 0.820442 0.000000 0.233754
O O5 0.343136 0.130657 0.835591
O O6 0.500000 0.159765 0.331042
O O7 0.442418 0.250000 0.250000
O O8 0.403254 0.169683 0.347809
O O9 0.443075 0.000000 0.275863
O O10 0.873258 0.716475 0.058709
O O11 0.872210 0.500000 0.000000
#
# Coordination Sequence:
#
# PCOD9513365 Si02
#       6
#     4  16  16  32  16  32
#     4   8  20  48  64  94 120 180 244 266 304 390
#     4  11  24  41  68 103 128 166 212 278 343 389
#     4  11  23  43  69  95 132 171 215 265 337 407
#     4  10  22  38  59  93 130 168 209 260 333 397
#     4  10  24  43  66  92 126 178 231 261 321 387
#     4  12  23  42  65  92 133 169 222 271 320 392
#
# _framework density 18.793807000000001
#
# number of rings (size 3 to 8) (size 9 to 14) (size 15 to 20)
#    0.414    0.828    2.759    3.310    3.862    2.759 
#    0.000    4.138    0.000    2.483    0.000    0.000 
#    0.000    0.000    0.000    0.000    0.000    0.000 
#
# Total GULP energy -161469.101989 kJ/mol
# GULP energy per Si atom -5567.900069 kJ/mol
# Density = 1.875103 g / cm^3
# Si number density = 18.793807 Si / 1000 Ang^3
#
#
#
# Elastic Constant Matrix: (Units=GPa)
#
#
# Indices 1 2 3 4 5 6 
#
# 1 88.8148 31.4977 39.4585 0.0000 0.0000 0.0000
# 2 31.4977 143.2148 50.5351 0.0000 0.0000 0.0000
# 3 39.4585 50.5351 88.9548 0.0000 0.0000 0.0000
# 4 0.0000 0.0000 0.0000 33.1873 0.0000 0.0000
# 5 0.0000 0.0000 0.0000 0.0000 50.4180 0.0000
# 6 0.0000 0.0000 0.0000 0.0000 0.0000 32.8451
#
#
#
# Elastic Compliance Matrix: (Units=1/GPa)
#
#
# Indices 1 2 3 4 5 6 
#
# 1 0.014166 -0.001123 -0.005645 0.000000 0.000000 0.000000
# 2 -0.001123 0.008822 -0.004514 0.000000 0.000000 0.000000
# 3 -0.005645 -0.004514 0.016310 0.000000 0.000000 0.000000
# 4 0.000000 0.000000 0.000000 0.030132 0.000000 0.000000
# 5 0.000000 0.000000 0.000000 0.000000 0.019834 0.000000
# 6 0.000000 0.000000 0.000000 0.000000 0.000000 0.030446
#
#
# Mechanical properties :
#
#
# Convention : Reuss Voigt Hill
#
# Bulk Modulus (GPa) = 59.76137 62.66300 61.21219
# Shear Modulus (GPa) = 33.81731 36.58962 35.20346
#
# Velocity S-wave (km/s) = 4.24652 4.41715 4.33268
# Velocity P-wave (km/s) = 7.47739 7.70907 7.59411
#
# Compressibility (1/GPa) = 0.01673322
#
# Stress axis : x y z
#
# Youngs Moduli (GPa) = 70.59163 113.34932 61.31196
#
# Poissons Ratio (x) = 0.12735 0.34614
# Poissons Ratio (y) = 0.07931 0.27674
# Poissons Ratio (z) = 0.39852 0.51161
#
# Static dielectric constant tensor:
#      x y z
#    x 1.685050 0.000000 0.000000 
#    y 0.000000 1.651910 0.000000 
#    z 0.000000 0.000000 1.747750 
# 
# From -- ./inp_files/38769.got.cif
#   From: 2010.05.17/outbox.cif.g08.bks.cpg/sg69_20_cif.got.tgz:38769.got - 2010.06.03 19:29:58.
