data_PCOD9513011
_publ_section_title
;
Structure prediction by ZEFSAII (Michael W. Deem and Ramdas Pophale) SiO2 
 PCOD9513011
Probable space group: F M M M
;
_chemical_formula_sum "Si O2"
_cell_formula_units_Z 96
_cell_length_a 15.548241
_cell_length_b 15.842275
_cell_length_c 17.908889
_cell_angle_alpha 90.000000
_cell_angle_beta 90.000000
_cell_angle_gamma 90.000000
_cell_volume 4411.308758
_symmetry_space_group_name_H-M "F M M M"
_symmetry_group_IT_number 69
_symmetry_cell_setting 'orthorhombic'
loop_
_space_group_symop_operation_xyz
x,y,z
-x,-y,z
x,-y,-z
-x,y,-z
-x,-y,-z
x,y,-z
-x,y,z
x,-y,z
x,1/2+y,1/2+z
-x,1/2-y,1/2+z
x,1/2-y,1/2-z
-x,1/2+y,1/2-z
-x,1/2-y,1/2-z
x,1/2+y,1/2-z
-x,1/2+y,1/2+z
x,1/2-y,1/2+z
1/2+x,y,1/2+z
1/2-x,-y,1/2+z
1/2+x,-y,1/2-z
1/2-x,y,1/2-z
1/2-x,-y,1/2-z
1/2+x,y,1/2-z
1/2-x,y,1/2+z
1/2+x,-y,1/2+z
1/2+x,1/2+y,z
1/2-x,1/2-y,z
1/2+x,1/2-y,-z
1/2-x,1/2+y,-z
1/2-x,1/2-y,-z
1/2+x,1/2+y,-z
1/2-x,1/2+y,z
1/2+x,1/2-y,z
loop_
_atom_site_type_symbol
_atom_site_label
_atom_site_fract_x
_atom_site_fract_y
_atom_site_fract_z
Si Si1 0.279650 0.897440 0.582544
Si Si2 0.905794 0.596949 0.877420
Si Si3 0.901363 0.842201 0.215265
O O1 0.312906 0.876511 0.500000
O O2 0.181146 0.865527 0.589460
O O3 0.336301 0.862993 0.649816
O O4 0.277930 0.000000 0.589200
O O5 0.909584 0.500000 0.903006
O O6 0.894224 0.598400 0.787814
O O7 0.000000 0.636131 0.893274
O O8 0.886168 0.750000 0.250000
O O9 0.000000 0.846706 0.188285
#
# Coordination Sequence:
#
# PCOD9513011 Si02
#       3
#    32  32  32
#     4  10  21  36  57  87 118 147 183 232 290 344
#     4   9  18  34  56  80 109 149 194 235 275 329
#     4  10  21  37  56  79 110 149 192 236 283 337
#
# _framework density 21.762248
#
# number of rings (size 3 to 8) (size 9 to 14) (size 15 to 20)
#    0.000    2.333    0.000    2.000    0.000    8.667 
#    0.000    8.333    0.000    6.000    0.000    0.000 
#    0.000    0.000    0.000    0.000    0.000    0.000 
#
# Total GULP energy -134017.542718 kJ/mol
# GULP energy per Si atom -5584.064280 kJ/mol
# Density = 2.171272 g / cm^3
# Si number density = 21.762248 Si / 1000 Ang^3
#
#
#
# Elastic Constant Matrix: (Units=GPa)
#
#
# Indices 1 2 3 4 5 6 
#
# 1 125.3352 17.7939 76.1529 0.0000 0.0000 0.0000
# 2 17.7939 27.0993 5.5605 0.0000 0.0000 0.0000
# 3 76.1529 5.5605 98.7566 0.0000 0.0000 0.0000
# 4 0.0000 0.0000 0.0000 8.3259 0.0000 0.0000
# 5 0.0000 0.0000 0.0000 0.0000 -21.1006 0.0000
# 6 0.0000 0.0000 0.0000 0.0000 0.0000 33.0025
#
#
#
# Elastic Compliance Matrix: (Units=1/GPa)
#
#
# Indices 1 2 3 4 5 6 
#
# 1 0.016722 -0.008431 -0.012420 0.000000 0.000000 0.000000
# 2 -0.008431 0.041584 0.004160 0.000000 0.000000 0.000000
# 3 -0.012420 0.004160 0.019469 0.000000 0.000000 0.000000
# 4 0.000000 0.000000 0.000000 0.120107 0.000000 0.000000
# 5 0.000000 0.000000 0.000000 0.000000 -0.047392 0.000000
# 6 0.000000 0.000000 0.000000 0.000000 0.000000 0.030301
#
#
# Mechanical properties :
#
#
# Convention : Reuss Voigt Hill
#
# Bulk Modulus (GPa) = 22.52627 50.02285 36.27456
# Shear Modulus (GPa) = 21.83702 14.15784 17.99743
#
# Velocity S-wave (km/s) = 3.17114 2.55339 2.87888
# Velocity P-wave (km/s) = 4.87665 5.63285 5.26834
#
# Compressibility (1/GPa) = 0.04439261
#
# Stress axis : x y z
#
# Youngs Moduli (GPa) = 59.80240 24.04776 51.36454
#
# Poissons Ratio (x) = 0.20276 0.63793
# Poissons Ratio (y) = 0.50422 -0.21369
# Poissons Ratio (z) = 0.74273 -0.10004
#
# Static dielectric constant tensor:
#      x y z
#    x 1.814040 0.000000 0.000000 
#    y 0.000000 1.850170 0.000000 
#    z 0.000000 0.000000 1.755690 
# 
# From -- ./inp_files/8912.got.cif
#   From: 2010.05.17/outbox.cif.g08.bks.cpg/sg69_5_cif.got.tgz:8912.got - 2010.06.03 19:29:58.
