data_PCOD9513542
_publ_section_title
;
Structure prediction by ZEFSAII (Michael W. Deem and Ramdas Pophale) SiO2 
 PCOD9513542
Probable space group: F M M M
;
_chemical_formula_sum "Si O2"
_cell_formula_units_Z 136
_cell_length_a 13.326015
_cell_length_b 26.093167
_cell_length_c 20.310353
_cell_angle_alpha 90.000000
_cell_angle_beta 90.000000
_cell_angle_gamma 90.000000
_cell_volume 7062.274001
_symmetry_space_group_name_H-M "F M M M"
_symmetry_group_IT_number 69
_symmetry_cell_setting 'orthorhombic'
loop_
_space_group_symop_operation_xyz
x,y,z
-x,-y,z
x,-y,-z
-x,y,-z
-x,-y,-z
x,y,-z
-x,y,z
x,-y,z
x,1/2+y,1/2+z
-x,1/2-y,1/2+z
x,1/2-y,1/2-z
-x,1/2+y,1/2-z
-x,1/2-y,1/2-z
x,1/2+y,1/2-z
-x,1/2+y,1/2+z
x,1/2-y,1/2+z
1/2+x,y,1/2+z
1/2-x,-y,1/2+z
1/2+x,-y,1/2-z
1/2-x,y,1/2-z
1/2-x,-y,1/2-z
1/2+x,y,1/2-z
1/2-x,y,1/2+z
1/2+x,-y,1/2+z
1/2+x,1/2+y,z
1/2-x,1/2-y,z
1/2+x,1/2-y,-z
1/2-x,1/2+y,-z
1/2-x,1/2-y,-z
1/2+x,1/2+y,-z
1/2-x,1/2+y,z
1/2+x,1/2-y,z
loop_
_atom_site_type_symbol
_atom_site_label
_atom_site_fract_x
_atom_site_fract_y
_atom_site_fract_z
Si Si1 0.500000 0.749643 0.329156
Si Si2 0.781517 0.887638 0.074173
Si Si3 0.799231 0.000000 0.577673
Si Si4 0.000000 0.500000 0.163459
Si Si5 0.000000 0.395913 0.756618
Si Si6 0.676025 0.676128 0.310648
Si Si7 0.500000 0.864098 0.612860
O O1 0.500000 0.750000 0.250000
O O2 0.604524 0.719917 0.342220
O O3 0.500000 0.805365 0.361100
O O4 0.734310 0.852009 0.130650
O O5 0.899100 0.876112 0.074704
O O6 0.759863 0.947200 0.090948
O O7 0.741074 0.878140 0.000000
O O8 0.822854 0.000000 0.500000
O O9 0.901117 0.000000 0.618759
O O10 0.000000 0.550114 0.208150
O O11 0.097226 0.363895 0.779169
O O12 0.000000 0.398596 0.678499
O O13 0.750000 0.691384 0.250000
#
# Coordination Sequence:
#
# PCOD9513542 Si02
#       7
#    16  32  16   8  16  32  16
#     4  11  22  39  65  95 123 168 219 262 319 377
#     4  11  24  43  65  92 128 171 212 260 319 385
#     4  10  23  40  64  90 124 176 215 246 312 394
#     4  12  21  38  62 100 133 156 206 270 324 378
#     4  11  22  37  61  96 130 157 202 263 325 362
#     4  11  21  41  64  94 128 163 213 265 313 380
#     4  12  24  44  59  93 132 165 213 270 312 377
#
# _framework density 19.257252999999999
#
# number of rings (size 3 to 8) (size 9 to 14) (size 15 to 20)
#    0.000    0.941    7.059    0.529    0.000    4.706 
#    0.000   10.000    0.000    0.000    0.000    0.000 
#    0.000    0.000    0.000    0.000    0.000    0.000 
#
# Total GULP energy -189920.164201 kJ/mol
# GULP energy per Si atom -5585.887182 kJ/mol
# Density = 1.921342 g / cm^3
# Si number density = 19.257253 Si / 1000 Ang^3
#
#
#
# Elastic Constant Matrix: (Units=GPa)
#
#
# Indices 1 2 3 4 5 6 
#
# 1 127.4379 63.4614 47.7614 0.0000 0.0000 0.0000
# 2 63.4614 138.6301 48.6318 0.0000 0.0000 0.0000
# 3 47.7614 48.6318 96.0285 0.0000 0.0000 0.0000
# 4 0.0000 0.0000 0.0000 17.7691 0.0000 0.0000
# 5 0.0000 0.0000 0.0000 0.0000 42.7750 0.0000
# 6 0.0000 0.0000 0.0000 0.0000 0.0000 -35.6614
#
#
#
# Elastic Compliance Matrix: (Units=1/GPa)
#
#
# Indices 1 2 3 4 5 6 
#
# 1 0.011092 -0.003821 -0.003582 0.000000 0.000000 0.000000
# 2 -0.003821 0.010088 -0.003208 0.000000 0.000000 0.000000
# 3 -0.003582 -0.003208 0.013820 0.000000 0.000000 0.000000
# 4 0.000000 0.000000 0.000000 0.056277 0.000000 0.000000
# 5 0.000000 0.000000 0.000000 0.000000 0.023378 0.000000
# 6 0.000000 0.000000 0.000000 0.000000 0.000000 -0.028041
#
#
# Mechanical properties :
#
#
# Convention : Reuss Voigt Hill
#
# Bulk Modulus (GPa) = 72.58199 75.75620 74.16910
# Shear Modulus (GPa) = 44.47222 18.45932 31.46577
#
# Velocity S-wave (km/s) = 4.81081 3.09943 4.04662
# Velocity P-wave (km/s) = 8.28439 7.22724 7.77381
#
# Compressibility (1/GPa) = 0.01377752
#
# Stress axis : x y z
#
# Youngs Moduli (GPa) = 90.15325 99.12522 72.35979
#
# Poissons Ratio (x) = 0.37879 0.25917
# Poissons Ratio (y) = 0.34450 0.23216
# Poissons Ratio (z) = 0.32290 0.31804
#
# Static dielectric constant tensor:
#      x y z
#    x 1.692130 0.000000 0.000000 
#    y 0.000000 1.676480 0.000000 
#    z 0.000000 0.000000 1.643010 
# 
# From -- ./inp_files/29124.got.cif
#   From: 2010.05.17/outbox.cif.g08.bks.cpg/sg69_15_cif.got.tgz:29124.got - 2010.06.03 19:29:58.
