data_PCOD9513344
_publ_section_title
;
Structure prediction by ZEFSAII (Michael W. Deem and Ramdas Pophale) SiO2 
 PCOD9513344
Probable space group: F M M M
;
_chemical_formula_sum "Si O2"
_cell_formula_units_Z 80
_cell_length_a 23.372794
_cell_length_b 15.957271
_cell_length_c 10.738662
_cell_angle_alpha 90.000000
_cell_angle_beta 90.000000
_cell_angle_gamma 90.000000
_cell_volume 4005.155896
_symmetry_space_group_name_H-M "F M M M"
_symmetry_group_IT_number 69
_symmetry_cell_setting 'orthorhombic'
loop_
_space_group_symop_operation_xyz
x,y,z
-x,-y,z
x,-y,-z
-x,y,-z
-x,-y,-z
x,y,-z
-x,y,z
x,-y,z
x,1/2+y,1/2+z
-x,1/2-y,1/2+z
x,1/2-y,1/2-z
-x,1/2+y,1/2-z
-x,1/2-y,1/2-z
x,1/2+y,1/2-z
-x,1/2+y,1/2+z
x,1/2-y,1/2+z
1/2+x,y,1/2+z
1/2-x,-y,1/2+z
1/2+x,-y,1/2-z
1/2-x,y,1/2-z
1/2-x,-y,1/2-z
1/2+x,y,1/2-z
1/2-x,y,1/2+z
1/2+x,-y,1/2+z
1/2+x,1/2+y,z
1/2-x,1/2-y,z
1/2+x,1/2-y,-z
1/2-x,1/2+y,-z
1/2-x,1/2-y,-z
1/2+x,1/2+y,-z
1/2-x,1/2+y,z
1/2+x,1/2-y,z
loop_
_atom_site_type_symbol
_atom_site_label
_atom_site_fract_x
_atom_site_fract_y
_atom_site_fract_z
Si Si1 0.000000 0.815430 0.137518
Si Si2 0.618358 0.348093 0.237939
Si Si3 0.301677 0.500000 0.849814
Si Si4 0.068657 0.402368 0.000000
O O1 0.000000 0.750000 0.250000
O O2 0.939536 0.860188 0.156149
O O3 0.000000 0.778617 0.000000
O O4 0.636726 0.250000 0.250000
O O5 0.662879 0.415380 0.184876
O O6 0.597405 0.366967 0.377131
O O7 0.250000 0.500000 0.750000
O O8 0.288285 0.500000 0.000000
O O9 0.080956 0.500000 0.000000
O O10 0.000000 0.394148 0.000000
#
# Coordination Sequence:
#
# PCOD9513344 Si02
#       4
#    16  32  16  16
#     4  10  22  37  64 105 144 178 214 271 335 415
#     4  11  25  42  73 103 144 180 225 279 345 415
#     4  12  30  53  70  97 131 180 238 300 347 404
#     4  11  22  40  68 110 148 192 226 265 336 418
#
# _framework density 19.974254999999999
#
# number of rings (size 3 to 8) (size 9 to 14) (size 15 to 20)
#    0.000    1.000    4.000    1.200   16.800    1.600 
#    0.000    4.000    0.000    0.000    0.000    0.000 
#    0.000    0.000    0.000    0.000    0.000    0.000 
#
# Total GULP energy -111550.558614 kJ/mol
# GULP energy per Si atom -5577.527931 kJ/mol
# Density = 1.992879 g / cm^3
# Si number density = 19.974255 Si / 1000 Ang^3
#
#
#
# Elastic Constant Matrix: (Units=GPa)
#
#
# Indices 1 2 3 4 5 6 
#
# 1 113.0676 64.7872 39.6101 0.0000 0.0000 0.0000
# 2 64.7872 164.8051 58.3390 0.0000 0.0000 0.0000
# 3 39.6101 58.3390 193.3271 0.0000 0.0000 0.0000
# 4 0.0000 0.0000 0.0000 28.8864 0.0000 0.0000
# 5 0.0000 0.0000 0.0000 0.0000 28.4516 0.0000
# 6 0.0000 0.0000 0.0000 0.0000 0.0000 25.7638
#
#
#
# Elastic Compliance Matrix: (Units=1/GPa)
#
#
# Indices 1 2 3 4 5 6 
#
# 1 0.011629 -0.004174 -0.001123 0.000000 0.000000 0.000000
# 2 -0.004174 0.008292 -0.001647 0.000000 0.000000 0.000000
# 3 -0.001123 -0.001647 0.005900 0.000000 0.000000 0.000000
# 4 0.000000 0.000000 0.000000 0.034618 0.000000 0.000000
# 5 0.000000 0.000000 0.000000 0.000000 0.035147 0.000000
# 6 0.000000 0.000000 0.000000 0.000000 0.000000 0.038814
#
#
# Mechanical properties :
#
#
# Convention : Reuss Voigt Hill
#
# Bulk Modulus (GPa) = 83.80473 88.51916 86.16194
# Shear Modulus (GPa) = 32.83715 37.18459 35.01087
#
# Velocity S-wave (km/s) = 4.05899 4.31934 4.19119
# Velocity P-wave (km/s) = 8.00092 8.32397 8.16404
#
# Compressibility (1/GPa) = 0.01193250
#
# Stress axis : x y z
#
# Youngs Moduli (GPa) = 85.98835 120.60301 169.50111
#
# Poissons Ratio (x) = 0.50341 0.19037
# Poissons Ratio (y) = 0.35893 0.27915
# Poissons Ratio (z) = 0.09658 0.19862
#
# Static dielectric constant tensor:
#      x y z
#    x 1.757100 0.000000 0.000000 
#    y 0.000000 1.749630 0.000000 
#    z 0.000000 0.000000 1.670670 
# 
# From -- ./inp_files/4235.got.cif
#   From: 2010.05.17/outbox.cif.g08.bks.cpg/sg69_3_cif.got.tgz:4235.got - 2010.06.03 19:29:58.
