data_PCOD9513101
_publ_section_title
;
Structure prediction by ZEFSAII (Michael W. Deem and Ramdas Pophale) SiO2 
 PCOD9513101
Probable space group: F M M M
;
_chemical_formula_sum "Si O2"
_cell_formula_units_Z 176
_cell_length_a 14.250242
_cell_length_b 26.086060
_cell_length_c 21.609848
_cell_angle_alpha 90.000000
_cell_angle_beta 90.000000
_cell_angle_gamma 90.000000
_cell_volume 8033.086448
_symmetry_space_group_name_H-M "F M M M"
_symmetry_group_IT_number 69
_symmetry_cell_setting 'orthorhombic'
loop_
_space_group_symop_operation_xyz
x,y,z
-x,-y,z
x,-y,-z
-x,y,-z
-x,-y,-z
x,y,-z
-x,y,z
x,-y,z
x,1/2+y,1/2+z
-x,1/2-y,1/2+z
x,1/2-y,1/2-z
-x,1/2+y,1/2-z
-x,1/2-y,1/2-z
x,1/2+y,1/2-z
-x,1/2+y,1/2+z
x,1/2-y,1/2+z
1/2+x,y,1/2+z
1/2-x,-y,1/2+z
1/2+x,-y,1/2-z
1/2-x,y,1/2-z
1/2-x,-y,1/2-z
1/2+x,y,1/2-z
1/2-x,y,1/2+z
1/2+x,-y,1/2+z
1/2+x,1/2+y,z
1/2-x,1/2-y,z
1/2+x,1/2-y,-z
1/2-x,1/2+y,-z
1/2-x,1/2-y,-z
1/2+x,1/2+y,-z
1/2-x,1/2+y,z
1/2+x,1/2-y,z
loop_
_atom_site_type_symbol
_atom_site_label
_atom_site_fract_x
_atom_site_fract_y
_atom_site_fract_z
Si Si1 0.602056 0.280205 0.189028
Si Si2 0.761257 0.439467 0.069612
Si Si3 0.142606 0.630323 0.233627
Si Si4 0.889301 0.156169 0.590903
Si Si5 0.750000 0.250000 0.092721
Si Si6 0.604033 0.939313 0.668527
O O1 0.500000 0.259127 0.170914
O O2 0.635656 0.250000 0.250000
O O3 0.592332 0.336479 0.214474
O O4 0.675143 0.278948 0.134909
O O5 0.786771 0.500000 0.079901
O O6 0.846420 0.398699 0.070457
O O7 0.688266 0.421820 0.123047
O O8 0.719502 0.437038 0.000000
O O9 0.250000 0.639377 0.250000
O O10 0.117253 0.650219 0.166081
O O11 0.119562 0.574031 0.258708
O O12 0.819321 0.203006 0.568984
O O13 0.000000 0.162814 0.574583
O O14 0.500000 0.922835 0.647961
O O15 0.606490 0.000000 0.662404
#
# Coordination Sequence:
#
# PCOD9513101 Si02
#       6
#    32  32  32  32  16  32
#     4  11  19  29  48  75 112 157 201 243 289 352
#     4  10  23  45  71  96 122 159 213 272 324 378
#     4  12  20  35  56  86 128 171 206 249 310 368
#     4  12  25  40  62  93 131 174 216 260 315 378
#     4  12  21  36  53  86 124 166 213 253 308 368
#     4  10  21  37  60  92 128 164 203 255 320 383
#
# _framework density 21.909386999999999
#
# number of rings (size 3 to 8) (size 9 to 14) (size 15 to 20)
#    0.000    0.909    5.455    2.455    0.000    2.182 
#    0.000    4.091    0.000    0.000    0.000    0.000 
#    0.000    0.000    0.000    0.000    0.000    0.000 
#
# Total GULP energy -244953.084407 kJ/mol
# GULP energy per Si atom -5567.115555 kJ/mol
# Density = 2.185952 g / cm^3
# Si number density = 21.909387 Si / 1000 Ang^3
#
#
#
# Elastic Constant Matrix: (Units=GPa)
#
#
# Indices 1 2 3 4 5 6 
#
# 1 173.5365 47.3836 30.5452 0.0000 0.0000 0.0000
# 2 47.3836 94.1272 23.4725 0.0000 0.0000 0.0000
# 3 30.5452 23.4725 96.9553 0.0000 0.0000 0.0000
# 4 0.0000 0.0000 0.0000 -9.5218 0.0000 0.0000
# 5 0.0000 0.0000 0.0000 0.0000 5.9585 0.0000
# 6 0.0000 0.0000 0.0000 0.0000 0.0000 47.1278
#
#
#
# Elastic Compliance Matrix: (Units=1/GPa)
#
#
# Indices 1 2 3 4 5 6 
#
# 1 0.006857 -0.003100 -0.001410 0.000000 0.000000 0.000000
# 2 -0.003100 0.012708 -0.002100 0.000000 0.000000 0.000000
# 3 -0.001410 -0.002100 0.011267 0.000000 0.000000 0.000000
# 4 0.000000 0.000000 0.000000 -0.105022 0.000000 0.000000
# 5 0.000000 0.000000 0.000000 0.000000 0.167826 0.000000
# 6 0.000000 0.000000 0.000000 0.000000 0.000000 0.021219
#
#
# Mechanical properties :
#
#
# Convention : Reuss Voigt Hill
#
# Bulk Modulus (GPa) = 56.77926 63.04685 59.91305
# Shear Modulus (GPa) = 37.32869 26.26078 31.79474
#
# Velocity S-wave (km/s) = 4.13216 3.46585 3.81358
# Velocity P-wave (km/s) = 6.98127 6.69737 6.84079
#
# Compressibility (1/GPa) = 0.01761206
#
# Stress axis : x y z
#
# Youngs Moduli (GPa) = 145.83326 78.68892 88.75850
#
# Poissons Ratio (x) = 0.24396 0.12512
# Poissons Ratio (y) = 0.45213 0.18638
# Poissons Ratio (z) = 0.20558 0.16524
#
# Static dielectric constant tensor:
#      x y z
#    x 1.962470 0.000000 0.000000 
#    y 0.000000 1.974990 0.000000 
#    z 0.000000 0.000000 1.817670 
# 
# From -- ./inp_files/41213.got.cif
#   From: 2010.05.17/outbox.cif.g08.bks.cpg/sg69_21_cif.got.tgz:41213.got - 2010.06.03 19:29:58.
