data_PCOD9513103
_publ_section_title
;
Structure prediction by ZEFSAII (Michael W. Deem and Ramdas Pophale) SiO2 
 PCOD9513103
Probable space group: F M M M
;
_chemical_formula_sum "Si O2"
_cell_formula_units_Z 104
_cell_length_a 19.553424
_cell_length_b 7.772987
_cell_length_c 26.643431
_cell_angle_alpha 90.000000
_cell_angle_beta 90.000000
_cell_angle_gamma 90.000000
_cell_volume 4049.495394
_symmetry_space_group_name_H-M "F M M M"
_symmetry_group_IT_number 69
_symmetry_cell_setting 'orthorhombic'
loop_
_space_group_symop_operation_xyz
x,y,z
-x,-y,z
x,-y,-z
-x,y,-z
-x,-y,-z
x,y,-z
-x,y,z
x,-y,z
x,1/2+y,1/2+z
-x,1/2-y,1/2+z
x,1/2-y,1/2-z
-x,1/2+y,1/2-z
-x,1/2-y,1/2-z
x,1/2+y,1/2-z
-x,1/2+y,1/2+z
x,1/2-y,1/2+z
1/2+x,y,1/2+z
1/2-x,-y,1/2+z
1/2+x,-y,1/2-z
1/2-x,y,1/2-z
1/2-x,-y,1/2-z
1/2+x,y,1/2-z
1/2-x,y,1/2+z
1/2+x,-y,1/2+z
1/2+x,1/2+y,z
1/2-x,1/2-y,z
1/2+x,1/2-y,-z
1/2-x,1/2+y,-z
1/2-x,1/2-y,-z
1/2+x,1/2+y,-z
1/2-x,1/2+y,z
1/2+x,1/2-y,z
loop_
_atom_site_type_symbol
_atom_site_label
_atom_site_fract_x
_atom_site_fract_y
_atom_site_fract_z
Si Si1 0.000000 0.295754 0.307702
Si Si2 0.848534 0.297141 0.666092
Si Si3 0.847336 0.802217 0.443204
Si Si4 0.000000 0.692365 0.441618
Si Si5 0.750000 0.250000 0.750000
O O1 0.000000 0.250000 0.250000
O O2 0.927667 0.238184 0.330436
O O3 0.000000 0.500000 0.311040
O O4 0.844075 0.500000 0.680873
O O5 0.823501 0.284249 0.608519
O O6 0.805135 0.192582 0.707232
O O7 0.832569 0.731683 0.500000
O O8 0.929303 0.790738 0.435613
O O9 0.825329 0.000000 0.443125
O O10 0.000000 0.500000 0.417133
O O11 0.000000 0.660548 0.500000
#
# Coordination Sequence:
#
# PCOD9513103 Si02
#       5
#    16  32  32  16   8
#     4  10  21  40  64  95 130 168 216 267 320 383
#     4  11  24  42  68  99 132 173 220 271 330 396
#     4  10  21  37  60  93 131 172 218 268 326 391
#     4   9  16  29  54  89 130 171 211 260 318 382
#     4  12  26  46  70  94 130 170 220 276 334 402
#
# _framework density 25.682212
#
# number of rings (size 3 to 8) (size 9 to 14) (size 15 to 20)
#    0.000    1.692    1.538    2.769    0.000    8.615 
#    0.000    0.769    0.000    0.000    0.000    0.000 
#    0.000    0.000    0.000    0.000    0.000    0.000 
#
# Total GULP energy -144829.660102 kJ/mol
# GULP energy per Si atom -5570.371542 kJ/mol
# Density = 2.562376 g / cm^3
# Si number density = 25.682212 Si / 1000 Ang^3
#
#
#
# Elastic Constant Matrix: (Units=GPa)
#
#
# Indices 1 2 3 4 5 6 
#
# 1 175.4291 9.2241 42.2394 0.0000 0.0000 -0.0001
# 2 9.2241 75.2091 28.9699 0.0000 0.0001 0.0001
# 3 42.2394 28.9699 285.4317 0.0000 0.0000 0.0000
# 4 0.0000 0.0000 0.0000 14.0297 0.0000 0.0000
# 5 0.0000 0.0001 0.0000 0.0000 -77.0529 -0.0001
# 6 -0.0001 0.0001 0.0000 0.0000 -0.0001 -14.5692
#
#
#
# Elastic Compliance Matrix: (Units=1/GPa)
#
#
# Indices 1 2 3 4 5 6 
#
# 1 0.005923 -0.000405 -0.000835 0.000000 0.000000 0.000000
# 2 -0.000405 0.013865 -0.001347 0.000000 0.000000 0.000000
# 3 -0.000835 -0.001347 0.003764 0.000000 0.000000 0.000000
# 4 0.000000 0.000000 0.000000 0.071277 0.000000 0.000000
# 5 0.000000 0.000000 0.000000 0.000000 -0.012978 0.000000
# 6 0.000000 0.000000 0.000000 0.000000 0.000000 -0.068638
#
#
# Mechanical properties :
#
#
# Convention : Reuss Voigt Hill
#
# Bulk Modulus (GPa) = 54.41665 77.43742 65.92703
# Shear Modulus (GPa) = 203.97281 14.85729 109.41505
#
# Velocity S-wave (km/s) = 8.92156 2.40782 6.53421
# Velocity P-wave (km/s) = 11.28539 6.16018 9.09142
#
# Compressibility (1/GPa) = 0.01837673
#
# Stress axis : x y z
#
# Youngs Moduli (GPa) = 168.84108 72.12474 265.68609
#
# Poissons Ratio (x) = 0.02918 0.22196
# Poissons Ratio (y) = 0.06831 0.35797
# Poissons Ratio (z) = 0.14105 0.09718
#
# Static dielectric constant tensor:
#      x y z
#    x 1.982130 0.000000 0.000000 
#    y 0.000000 2.161500 0.000000 
#    z 0.000000 0.000000 2.511490 
# 
# From -- ./inp_files/42356.got.cif
#   From: 2010.05.17/outbox.cif.g08.bks.cpg/sg69_22_cif.got.tgz:42356.got - 2010.06.03 19:29:58.
