data_PCOD9513058
_publ_section_title
;
Structure prediction by ZEFSAII (Michael W. Deem and Ramdas Pophale) SiO2 
 PCOD9513058
Probable space group: F M M M
;
_chemical_formula_sum "Si O2"
_cell_formula_units_Z 160
_cell_length_a 17.799184
_cell_length_b 15.063238
_cell_length_c 28.281778
_cell_angle_alpha 90.000000
_cell_angle_beta 90.000000
_cell_angle_gamma 90.000000
_cell_volume 7582.722096
_symmetry_space_group_name_H-M "F M M M"
_symmetry_group_IT_number 69
_symmetry_cell_setting 'orthorhombic'
loop_
_space_group_symop_operation_xyz
x,y,z
-x,-y,z
x,-y,-z
-x,y,-z
-x,-y,-z
x,y,-z
-x,y,z
x,-y,z
x,1/2+y,1/2+z
-x,1/2-y,1/2+z
x,1/2-y,1/2-z
-x,1/2+y,1/2-z
-x,1/2-y,1/2-z
x,1/2+y,1/2-z
-x,1/2+y,1/2+z
x,1/2-y,1/2+z
1/2+x,y,1/2+z
1/2-x,-y,1/2+z
1/2+x,-y,1/2-z
1/2-x,y,1/2-z
1/2-x,-y,1/2-z
1/2+x,y,1/2-z
1/2-x,y,1/2+z
1/2+x,-y,1/2+z
1/2+x,1/2+y,z
1/2-x,1/2-y,z
1/2+x,1/2-y,-z
1/2-x,1/2+y,-z
1/2-x,1/2-y,-z
1/2+x,1/2+y,-z
1/2-x,1/2+y,z
1/2+x,1/2-y,z
loop_
_atom_site_type_symbol
_atom_site_label
_atom_site_fract_x
_atom_site_fract_y
_atom_site_fract_z
Si Si1 0.149296 0.393622 0.142561
Si Si2 0.589714 0.101356 0.592534
Si Si3 0.580805 0.854016 0.759925
Si Si4 0.909382 0.287857 0.947412
Si Si5 0.807778 0.895826 0.819473
O O1 0.151413 0.500000 0.133968
O O2 0.091482 0.375063 0.185091
O O3 0.128075 0.342593 0.094853
O O4 0.228394 0.357402 0.163888
O O5 0.500000 0.100157 0.598323
O O6 0.608061 0.182722 0.558085
O O7 0.628972 0.126009 0.641870
O O8 0.612490 0.000000 0.579079
O O9 0.500000 0.892463 0.743566
O O10 0.577300 0.750000 0.750000
O O11 0.654744 0.882230 0.731288
O O12 0.000000 0.296785 0.943071
O O13 0.887353 0.317888 0.000000
O O14 0.794405 0.000000 0.822360
#
# Coordination Sequence:
#
# PCOD9513058 Si02
#       5
#    32  32  32  32  32
#     4  11  24  40  58  85 122 161 203 249 294 346
#     4   9  18  35  60  88 118 152 193 245 302 359
#     4  11  23  37  57  87 120 155 198 245 294 356
#     4  10  22  40  62  88 117 154 203 252 298 351
#     4  10  21  37  57  84 118 155 195 239 293 357
#
# _framework density 21.100601999999999
#
# number of rings (size 3 to 8) (size 9 to 14) (size 15 to 20)
#    0.000    1.800    0.000    3.600    0.000   13.200 
#    0.000    5.000    0.000    3.600    0.000    0.000 
#    0.000    0.000    0.000    0.000    0.000    0.000 
#
# Total GULP energy -223208.958197 kJ/mol
# GULP energy per Si atom -5580.223955 kJ/mol
# Density = 2.105258 g / cm^3
# Si number density = 21.100602 Si / 1000 Ang^3
#
#
#
# Elastic Constant Matrix: (Units=GPa)
#
#
# Indices 1 2 3 4 5 6 
#
# 1 73.9948 30.4853 57.4018 0.0000 0.0000 0.0000
# 2 30.4853 76.7986 45.3950 0.0000 0.0000 0.0000
# 3 57.4018 45.3950 162.1048 0.0000 0.0000 0.0000
# 4 0.0000 0.0000 0.0000 21.2320 0.0000 0.0000
# 5 0.0000 0.0000 0.0000 0.0000 18.7742 0.0000
# 6 0.0000 0.0000 0.0000 0.0000 0.0000 -46.2217
#
#
#
# Elastic Compliance Matrix: (Units=1/GPa)
#
#
# Indices 1 2 3 4 5 6 
#
# 1 0.019830 -0.004459 -0.005773 0.000000 0.000000 0.000000
# 2 -0.004459 0.016607 -0.003071 0.000000 0.000000 0.000000
# 3 -0.005773 -0.003071 0.009073 0.000000 0.000000 0.000000
# 4 0.000000 0.000000 0.000000 0.047099 0.000000 0.000000
# 5 0.000000 0.000000 0.000000 0.000000 0.053265 0.000000
# 6 0.000000 0.000000 0.000000 0.000000 0.000000 -0.021635
#
#
# Mechanical properties :
#
#
# Convention : Reuss Voigt Hill
#
# Bulk Modulus (GPa) = 52.90298 64.38471 58.64384
# Shear Modulus (GPa) = 31.81735 10.73131 21.27433
#
# Velocity S-wave (km/s) = 3.88737 2.25761 3.17871
# Velocity P-wave (km/s) = 6.72867 6.11353 6.42846
#
# Compressibility (1/GPa) = 0.01890253
#
# Stress axis : x y z
#
# Youngs Moduli (GPa) = 50.42821 60.21691 110.21370
#
# Poissons Ratio (x) = 0.26851 0.63629
# Poissons Ratio (y) = 0.22486 0.33852
# Poissons Ratio (z) = 0.29113 0.18495
#
# Static dielectric constant tensor:
#      x y z
#    x 1.820950 0.000000 0.000000 
#    y 0.000000 1.813010 0.000000 
#    z 0.000000 0.000000 1.748710 
# 
# From -- ./inp_files/41755.got.cif
#   From: 2010.05.17/outbox.cif.g08.bks.cpg/sg69_21_cif.got.tgz:41755.got - 2010.06.03 19:29:58.
