data_PCOD9513684
_publ_section_title
;
Structure prediction by ZEFSAII (Michael W. Deem and Ramdas Pophale) SiO2 
 PCOD9513684
Probable space group: F M M M
;
_chemical_formula_sum "Si O2"
_cell_formula_units_Z 160
_cell_length_a 23.414413
_cell_length_b 15.043407
_cell_length_c 23.777453
_cell_angle_alpha 90.000000
_cell_angle_beta 90.000000
_cell_angle_gamma 90.000000
_cell_volume 8375.192770
_symmetry_space_group_name_H-M "F M M M"
_symmetry_group_IT_number 69
_symmetry_cell_setting 'orthorhombic'
loop_
_space_group_symop_operation_xyz
x,y,z
-x,-y,z
x,-y,-z
-x,y,-z
-x,-y,-z
x,y,-z
-x,y,z
x,-y,z
x,1/2+y,1/2+z
-x,1/2-y,1/2+z
x,1/2-y,1/2-z
-x,1/2+y,1/2-z
-x,1/2-y,1/2-z
x,1/2+y,1/2-z
-x,1/2+y,1/2+z
x,1/2-y,1/2+z
1/2+x,y,1/2+z
1/2-x,-y,1/2+z
1/2+x,-y,1/2-z
1/2-x,y,1/2-z
1/2-x,-y,1/2-z
1/2+x,y,1/2-z
1/2-x,y,1/2+z
1/2+x,-y,1/2+z
1/2+x,1/2+y,z
1/2-x,1/2-y,z
1/2+x,1/2-y,-z
1/2-x,1/2+y,-z
1/2-x,1/2-y,-z
1/2+x,1/2+y,-z
1/2-x,1/2+y,z
1/2+x,1/2-y,z
loop_
_atom_site_type_symbol
_atom_site_label
_atom_site_fract_x
_atom_site_fract_y
_atom_site_fract_z
Si Si1 0.861529 0.602680 0.362784
Si Si2 0.380123 0.898256 0.137681
Si Si3 0.933135 0.742708 0.567152
Si Si4 0.257735 0.391707 0.685437
Si Si5 0.565263 0.143173 0.745583
O O1 0.860730 0.500000 0.381062
O O2 0.896884 0.664000 0.404757
O O3 0.796870 0.634244 0.351489
O O4 0.892654 0.608660 0.302277
O O5 0.407835 0.833457 0.092455
O O6 0.317731 0.865328 0.158161
O O7 0.418177 0.894810 0.193988
O O8 0.375571 0.000000 0.118066
O O9 0.929034 0.740829 0.500000
O O10 0.000000 0.734804 0.583231
O O11 0.258053 0.500000 0.687540
O O12 0.250000 0.361096 0.750000
O O13 0.500000 0.121628 0.731007
O O14 0.570571 0.250000 0.750000
#
# Coordination Sequence:
#
# PCOD9513684 Si02
#       5
#    32  32  32  32  32
#     4  11  22  39  63  91 123 159 201 246 301 364
#     4  11  22  39  63  91 123 159 201 246 301 364
#     4  11  26  46  63  84 118 160 210 261 304 353
#     4   9  18  35  59  92 129 161 192 234 296 369
#     4  11  21  34  55  89 130 160 191 244 304 364
#
# _framework density 19.104037999999999
#
# number of rings (size 3 to 8) (size 9 to 14) (size 15 to 20)
#    0.000    1.400    4.000    1.800    0.000    5.600 
#    0.000    6.000    0.000    3.600    0.000    0.000 
#    0.000    0.000    0.000    0.000    0.000    0.000 
#
# Total GULP energy -223649.406569 kJ/mol
# GULP energy per Si atom -5591.235164 kJ/mol
# Density = 1.906056 g / cm^3
# Si number density = 19.104038 Si / 1000 Ang^3
#
#
#
# Elastic Constant Matrix: (Units=GPa)
#
#
# Indices 1 2 3 4 5 6 
#
# 1 91.7173 24.3002 28.0052 0.0000 0.0000 0.0000
# 2 24.3002 90.2911 29.2667 0.0000 0.0000 0.0000
# 3 28.0052 29.2667 71.9350 0.0000 0.0000 0.0000
# 4 0.0000 0.0000 0.0000 -34.1864 0.0000 0.0000
# 5 0.0000 0.0000 0.0000 0.0000 -16.6782 0.0000
# 6 0.0000 0.0000 0.0000 0.0000 0.0000 22.5484
#
#
#
# Elastic Compliance Matrix: (Units=1/GPa)
#
#
# Indices 1 2 3 4 5 6 
#
# 1 0.012708 -0.002092 -0.004096 0.000000 0.000000 0.000000
# 2 -0.002092 0.013102 -0.004516 0.000000 0.000000 0.000000
# 3 -0.004096 -0.004516 0.017333 0.000000 0.000000 0.000000
# 4 0.000000 0.000000 0.000000 -0.029251 0.000000 0.000000
# 5 0.000000 0.000000 0.000000 0.000000 -0.059959 0.000000
# 6 0.000000 0.000000 0.000000 0.000000 0.000000 0.044349
#
#
# Mechanical properties :
#
#
# Convention : Reuss Voigt Hill
#
# Bulk Modulus (GPa) = 46.00948 46.34306 46.17627
# Shear Modulus (GPa) = 185.61907 5.82820 95.72363
#
# Velocity S-wave (km/s) = 9.86778 1.74854 7.08627
# Velocity P-wave (km/s) = 12.40834 5.32799 9.54867
#
# Compressibility (1/GPa) = 0.02173465
#
# Stress axis : x y z
#
# Youngs Moduli (GPa) = 78.68943 76.32275 57.69193
#
# Poissons Ratio (x) = 0.15970 0.23631
# Poissons Ratio (y) = 0.16466 0.26054
# Poissons Ratio (z) = 0.32232 0.34467
#
# Static dielectric constant tensor:
#      x y z
#    x 1.675610 0.000000 0.000000 
#    y 0.000000 1.698660 0.000000 
#    z 0.000000 0.000000 1.611250 
# 
# From -- ./inp_files/17713.got.cif
#   From: 2010.05.17/outbox.cif.g08.bks.cpg/sg69_9_cif.got.tgz:17713.got - 2010.06.03 19:29:58.
