data_PCOD9513783
_publ_section_title
;
Structure prediction by ZEFSAII (Michael W. Deem and Ramdas Pophale) SiO2 
 PCOD9513783
Probable space group: F M M M
;
_chemical_formula_sum "Si O2"
_cell_formula_units_Z 144
_cell_length_a 15.474771
_cell_length_b 27.534254
_cell_length_c 17.385999
_cell_angle_alpha 90.000000
_cell_angle_beta 90.000000
_cell_angle_gamma 90.000000
_cell_volume 7407.935556
_symmetry_space_group_name_H-M "F M M M"
_symmetry_group_IT_number 69
_symmetry_cell_setting 'orthorhombic'
loop_
_space_group_symop_operation_xyz
x,y,z
-x,-y,z
x,-y,-z
-x,y,-z
-x,-y,-z
x,y,-z
-x,y,z
x,-y,z
x,1/2+y,1/2+z
-x,1/2-y,1/2+z
x,1/2-y,1/2-z
-x,1/2+y,1/2-z
-x,1/2-y,1/2-z
x,1/2+y,1/2-z
-x,1/2+y,1/2+z
x,1/2-y,1/2+z
1/2+x,y,1/2+z
1/2-x,-y,1/2+z
1/2+x,-y,1/2-z
1/2-x,y,1/2-z
1/2-x,-y,1/2-z
1/2+x,y,1/2-z
1/2-x,y,1/2+z
1/2+x,-y,1/2+z
1/2+x,1/2+y,z
1/2-x,1/2-y,z
1/2+x,1/2-y,-z
1/2-x,1/2+y,-z
1/2-x,1/2-y,-z
1/2+x,1/2+y,-z
1/2-x,1/2+y,z
1/2+x,1/2-y,z
loop_
_atom_site_type_symbol
_atom_site_label
_atom_site_fract_x
_atom_site_fract_y
_atom_site_fract_z
Si Si1 0.103234 0.443586 0.212759
Si Si2 0.896114 0.443263 0.500000
Si Si3 0.840762 0.880446 0.144189
Si Si4 0.000000 0.198671 0.647595
Si Si5 0.500000 0.189413 0.667341
Si Si6 0.845822 0.868462 0.591529
O O1 0.128869 0.500000 0.215656
O O2 0.149263 0.411195 0.277644
O O3 0.122856 0.418499 0.131333
O O4 0.000000 0.440769 0.227438
O O5 0.875707 0.500000 0.500000
O O6 0.858627 0.417580 0.574942
O O7 0.000000 0.437899 0.500000
O O8 0.915205 0.840089 0.143066
O O9 0.746923 0.857965 0.129787
O O10 0.000000 0.191206 0.739714
O O11 0.000000 0.256224 0.634812
O O12 0.916253 0.172035 0.613313
O O13 0.838197 0.872556 0.500000
#
# Coordination Sequence:
#
# PCOD9513783 Si02
#       6
#    32  16  32  16  16  32
#     4  11  23  42  70  98 131 179 225 270 326 394
#     4  11  22  38  64  98 140 176 210 269 332 389
#     4  12  22  43  67  99 134 169 222 271 332 394
#     4  11  25  48  69  98 126 172 222 276 336 385
#     4  11  24  45  77  96 125 165 224 281 334 396
#     4  12  25  44  66  97 140 178 217 270 326 397
#
# _framework density 19.438613
#
# number of rings (size 3 to 8) (size 9 to 14) (size 15 to 20)
#    0.000    0.556    6.667    1.667    0.000    5.778 
#    4.000    4.444    0.000    0.000    0.000    0.000 
#    0.000    0.000    0.000    0.000    0.000    0.000 
#
# Total GULP energy -201394.465378 kJ/mol
# GULP energy per Si atom -5594.290705 kJ/mol
# Density = 1.939437 g / cm^3
# Si number density = 19.438613 Si / 1000 Ang^3
#
#
#
# Elastic Constant Matrix: (Units=GPa)
#
#
# Indices 1 2 3 4 5 6 
#
# 1 164.4044 87.9192 49.1608 0.0000 0.0000 0.0000
# 2 87.9192 151.9208 48.9631 0.0000 0.0000 0.0000
# 3 49.1608 48.9631 104.0547 0.0000 0.0000 0.0000
# 4 0.0000 0.0000 0.0000 21.0750 0.0000 0.0000
# 5 0.0000 0.0000 0.0000 0.0000 41.5776 0.0000
# 6 0.0000 0.0000 0.0000 0.0000 0.0000 -3.1241
#
#
#
# Elastic Compliance Matrix: (Units=1/GPa)
#
#
# Indices 1 2 3 4 5 6 
#
# 1 0.009207 -0.004628 -0.002172 0.000000 0.000000 0.000000
# 2 -0.004628 0.010086 -0.002559 0.000000 0.000000 0.000000
# 3 -0.002172 -0.002559 0.011841 0.000000 0.000000 0.000000
# 4 0.000000 0.000000 0.000000 0.047450 0.000000 0.000000
# 5 0.000000 0.000000 0.000000 0.000000 0.024051 0.000000
# 6 0.000000 0.000000 0.000000 0.000000 0.000000 -0.320094
#
#
# Mechanical properties :
#
#
# Convention : Reuss Voigt Hill
#
# Bulk Modulus (GPa) = 80.55121 88.05179 84.30150
# Shear Modulus (GPa) = -25.69347 27.52815 0.91734
#
# Velocity S-wave (km/s) = -3.63957 3.76727 0.68771
# Velocity P-wave (km/s) = 4.88537 8.01990 6.64024
#
# Compressibility (1/GPa) = 0.01241446
#
# Stress axis : x y z
#
# Youngs Moduli (GPa) = 108.61113 99.15069 84.45408
#
# Poissons Ratio (x) = 0.45890 0.18344
# Poissons Ratio (y) = 0.50268 0.21613
# Poissons Ratio (z) = 0.23591 0.25374
#
# Static dielectric constant tensor:
#      x y z
#    x 1.696850 0.000000 0.000000 
#    y 0.000000 1.643300 0.000000 
#    z 0.000000 0.000000 1.672530 
# 
# From -- ./inp_files/21786.got.cif
#   From: 2010.05.17/outbox.cif.g08.bks.cpg/sg69_11_cif.got.tgz:21786.got - 2010.06.03 19:29:58.
