data_PCOD9513320
_publ_section_title
;
Structure prediction by ZEFSAII (Michael W. Deem and Ramdas Pophale) SiO2 
 PCOD9513320
Probable space group: F M M M
;
_chemical_formula_sum "Si O2"
_cell_formula_units_Z 176
_cell_length_a 22.307416
_cell_length_b 13.975462
_cell_length_c 32.104803
_cell_angle_alpha 90.000000
_cell_angle_beta 90.000000
_cell_angle_gamma 90.000000
_cell_volume 10008.879239
_symmetry_space_group_name_H-M "F M M M"
_symmetry_group_IT_number 69
_symmetry_cell_setting 'orthorhombic'
loop_
_space_group_symop_operation_xyz
x,y,z
-x,-y,z
x,-y,-z
-x,y,-z
-x,-y,-z
x,y,-z
-x,y,z
x,-y,z
x,1/2+y,1/2+z
-x,1/2-y,1/2+z
x,1/2-y,1/2-z
-x,1/2+y,1/2-z
-x,1/2-y,1/2-z
x,1/2+y,1/2-z
-x,1/2+y,1/2+z
x,1/2-y,1/2+z
1/2+x,y,1/2+z
1/2-x,-y,1/2+z
1/2+x,-y,1/2-z
1/2-x,y,1/2-z
1/2-x,-y,1/2-z
1/2+x,y,1/2-z
1/2-x,y,1/2+z
1/2+x,-y,1/2+z
1/2+x,1/2+y,z
1/2-x,1/2-y,z
1/2+x,1/2-y,-z
1/2-x,1/2+y,-z
1/2-x,1/2-y,-z
1/2+x,1/2+y,-z
1/2-x,1/2+y,z
1/2+x,1/2-y,z
loop_
_atom_site_type_symbol
_atom_site_label
_atom_site_fract_x
_atom_site_fract_y
_atom_site_fract_z
Si Si1 0.647640 0.890469 0.147727
Si Si2 0.239406 0.637392 0.298016
Si Si3 0.065886 0.383698 0.776207
Si Si4 0.899945 0.110439 0.814794
Si Si5 0.000000 0.113222 0.049709
Si Si6 0.933759 0.256868 0.390962
O O1 0.715555 0.892871 0.164823
O O2 0.614060 0.855799 0.189841
O O3 0.620892 0.818752 0.112876
O O4 0.630426 0.000000 0.137862
O O5 0.250000 0.602057 0.250000
O O6 0.250000 0.750000 0.295584
O O7 0.171975 0.614332 0.311161
O O8 0.069194 0.500000 0.774237
O O9 0.077307 0.350825 0.729512
O O10 0.000000 0.356363 0.790140
O O11 0.924390 0.171493 0.852544
O O12 0.918835 0.000000 0.819210
O O13 0.943885 0.172640 0.069486
O O14 0.000000 0.000000 0.061490
O O15 0.000000 0.118710 0.000000
O O16 0.000000 0.208218 0.387263
#
# Coordination Sequence:
#
# PCOD9513320 Si02
#       6
#    32  32  32  32  16  32
#     4  11  21  35  51  72 108 158 203 236 270 316
#     4  11  21  34  49  69 104 157 215 254 281 311
#     4   9  18  29  44  66  99 147 195 231 275 322
#     4  11  20  32  50  73 105 145 193 244 283 321
#     4   9  20  42  69  92 115 139 164 206 279 363
#     4  10  22  35  55  85 112 136 173 226 280 336
#
# _framework density 17.584387
#
# number of rings (size 3 to 8) (size 9 to 14) (size 15 to 20)
#    0.545    1.182    3.636    2.182    0.000    3.273 
#    0.000    1.818    0.000    1.091    0.000    2.545 
#    0.000    2.909    0.000    0.000    0.000    0.000 
#
# Total GULP energy -245181.743580 kJ/mol
# GULP energy per Si atom -5572.312354 kJ/mol
# Density = 1.754436 g / cm^3
# Si number density = 17.584387 Si / 1000 Ang^3
#
#
#
# Elastic Constant Matrix: (Units=GPa)
#
#
# Indices 1 2 3 4 5 6 
#
# 1 60.4846 -9.3101 10.3667 0.0000 0.0000 0.0000
# 2 -9.3101 104.3288 28.1132 0.0000 0.0000 0.0000
# 3 10.3667 28.1132 64.4824 0.0000 0.0000 0.0000
# 4 0.0000 0.0000 0.0000 12.8929 0.0000 0.0000
# 5 0.0000 0.0000 0.0000 0.0000 -9.2921 0.0000
# 6 0.0000 0.0000 0.0000 0.0000 0.0000 13.9228
#
#
#
# Elastic Compliance Matrix: (Units=1/GPa)
#
#
# Indices 1 2 3 4 5 6 
#
# 1 0.017624 0.002647 -0.003988 0.000000 0.000000 0.000000
# 2 0.002647 0.011259 -0.005334 0.000000 0.000000 0.000000
# 3 -0.003988 -0.005334 0.018475 0.000000 0.000000 0.000000
# 4 0.000000 0.000000 0.000000 0.077562 0.000000 0.000000
# 5 0.000000 0.000000 0.000000 0.000000 -0.107618 0.000000
# 6 0.000000 0.000000 0.000000 0.000000 0.000000 0.071825
#
#
# Mechanical properties :
#
#
# Convention : Reuss Voigt Hill
#
# Bulk Modulus (GPa) = 29.40434 31.95949 30.68191
# Shear Modulus (GPa) = 43.93245 16.84645 30.38945
#
# Velocity S-wave (km/s) = 5.00380 3.09857 4.16168
# Velocity P-wave (km/s) = 7.08111 5.56919 6.37017
#
# Compressibility (1/GPa) = 0.03400859
#
# Stress axis : x y z
#
# Youngs Moduli (GPa) = 56.74060 88.82015 54.12779
#
# Poissons Ratio (x) = -0.23513 0.21584
# Poissons Ratio (y) = -0.15021 0.28873
# Poissons Ratio (z) = 0.22626 0.47378
#
# Static dielectric constant tensor:
#      x y z
#    x 1.639380 0.000000 0.000000 
#    y 0.000000 1.682870 0.000000 
#    z 0.000000 0.000000 1.564680 
# 
# From -- ./inp_files/47027.got.cif
#   From: 2010.05.17/outbox.cif.g08.bks.cpg/sg69_24_cif.got.tgz:47027.got - 2010.06.03 19:29:58.
