data_PCOD9513763
_publ_section_title
;
Structure prediction by ZEFSAII (Michael W. Deem and Ramdas Pophale) SiO2 
 PCOD9513763
Probable space group: F M M M
;
_chemical_formula_sum "Si O2"
_cell_formula_units_Z 160
_cell_length_a 20.987030
_cell_length_b 23.773176
_cell_length_c 15.120401
_cell_angle_alpha 90.000000
_cell_angle_beta 90.000000
_cell_angle_gamma 90.000000
_cell_volume 7543.996842
_symmetry_space_group_name_H-M "F M M M"
_symmetry_group_IT_number 69
_symmetry_cell_setting 'orthorhombic'
loop_
_space_group_symop_operation_xyz
x,y,z
-x,-y,z
x,-y,-z
-x,y,-z
-x,-y,-z
x,y,-z
-x,y,z
x,-y,z
x,1/2+y,1/2+z
-x,1/2-y,1/2+z
x,1/2-y,1/2-z
-x,1/2+y,1/2-z
-x,1/2-y,1/2-z
x,1/2+y,1/2-z
-x,1/2+y,1/2+z
x,1/2-y,1/2+z
1/2+x,y,1/2+z
1/2-x,-y,1/2+z
1/2+x,-y,1/2-z
1/2-x,y,1/2-z
1/2-x,-y,1/2-z
1/2+x,y,1/2-z
1/2-x,y,1/2+z
1/2+x,-y,1/2+z
1/2+x,1/2+y,z
1/2-x,1/2-y,z
1/2+x,1/2-y,-z
1/2-x,1/2+y,-z
1/2-x,1/2-y,-z
1/2+x,1/2+y,-z
1/2-x,1/2+y,z
1/2+x,1/2-y,z
loop_
_atom_site_type_symbol
_atom_site_label
_atom_site_fract_x
_atom_site_fract_y
_atom_site_fract_z
Si Si1 0.726340 0.563165 0.899940
Si Si2 0.105929 0.934948 0.225305
Si Si3 0.568218 0.837548 0.398684
Si Si4 0.643040 0.375547 0.400314
Si Si5 0.176328 0.748694 0.143975
O O1 0.754550 0.500000 0.895119
O O2 0.675670 0.567436 0.821849
O O3 0.782663 0.607173 0.891729
O O4 0.698403 0.568405 0.000000
O O5 0.068966 0.890978 0.164906
O O6 0.108383 0.910211 0.323806
O O7 0.085501 0.000000 0.223089
O O8 0.569504 0.856184 0.500000
O O9 0.500000 0.806710 0.384419
O O10 0.630762 0.799830 0.383758
O O11 0.622385 0.389424 0.500000
O O12 0.642442 0.308897 0.385337
O O13 0.179131 0.750000 0.250000
O O14 0.250000 0.750000 0.111464
#
# Coordination Sequence:
#
# PCOD9513763 Si02
#       5
#    32  32  32  32  32
#     4   9  18  32  54  87 126 166 210 264 326 388
#     4  11  22  38  60  88 125 169 217 268 324 386
#     4  11  25  45  69  97 129 169 218 272 332 396
#     4  11  22  36  57  89 128 171 215 265 325 389
#     4  11  23  41  67  98 132 172 220 274 331 392
#
# _framework density 21.208917
#
# number of rings (size 3 to 8) (size 9 to 14) (size 15 to 20)
#    0.000    1.400    2.000    3.600    2.800    8.000 
#    0.000    1.000    0.000    0.600    0.000    1.400 
#    0.000    0.000    0.000    0.000    0.000    0.000 
#
# Total GULP energy -223444.536275 kJ/mol
# GULP energy per Si atom -5586.113407 kJ/mol
# Density = 2.116064 g / cm^3
# Si number density = 21.208917 Si / 1000 Ang^3
#
#
#
# Elastic Constant Matrix: (Units=GPa)
#
#
# Indices 1 2 3 4 5 6 
#
# 1 86.5846 46.6960 35.1932 0.0000 0.0000 0.0000
# 2 46.6960 130.8521 49.1440 0.0000 0.0000 0.0000
# 3 35.1932 49.1440 159.0313 0.0000 0.0000 0.0000
# 4 0.0000 0.0000 0.0000 21.1009 0.0000 0.0000
# 5 0.0000 0.0000 0.0000 0.0000 15.5344 0.0000
# 6 0.0000 0.0000 0.0000 0.0000 0.0000 -7.0367
#
#
#
# Elastic Compliance Matrix: (Units=1/GPa)
#
#
# Indices 1 2 3 4 5 6 
#
# 1 0.014770 -0.004574 -0.001855 0.000000 0.000000 0.000000
# 2 -0.004574 0.010062 -0.002097 0.000000 0.000000 0.000000
# 3 -0.001855 -0.002097 0.007347 0.000000 0.000000 0.000000
# 4 0.000000 0.000000 0.000000 0.047391 0.000000 0.000000
# 5 0.000000 0.000000 0.000000 0.000000 0.064373 0.000000
# 6 0.000000 0.000000 0.000000 0.000000 0.000000 -0.142113
#
#
# Mechanical properties :
#
#
# Convention : Reuss Voigt Hill
#
# Bulk Modulus (GPa) = 66.11041 70.94828 68.52935
# Shear Modulus (GPa) = 208.97704 22.28204 115.62954
#
# Velocity S-wave (km/s) = 9.93713 3.24481 7.39173
# Velocity P-wave (km/s) = 12.76326 6.89660 10.25826
#
# Compressibility (1/GPa) = 0.01512621
#
# Stress axis : x y z
#
# Youngs Moduli (GPa) = 67.70318 99.38168 136.11607
#
# Poissons Ratio (x) = 0.45460 0.25251
# Poissons Ratio (y) = 0.30969 0.28546
# Poissons Ratio (z) = 0.12560 0.20842
#
# Static dielectric constant tensor:
#      x y z
#    x 1.770290 0.000000 0.000000 
#    y 0.000000 1.752370 0.000000 
#    z 0.000000 0.000000 1.760070 
# 
# From -- ./inp_files/17736.got.cif
#   From: 2010.05.17/outbox.cif.g08.bks.cpg/sg69_9_cif.got.tgz:17736.got - 2010.06.03 19:29:58.
