data_PCOD9513859
_publ_section_title
;
Structure prediction by ZEFSAII (Michael W. Deem and Ramdas Pophale) SiO2 
 PCOD9513859
Probable space group: F M M M
;
_chemical_formula_sum "Si O2"
_cell_formula_units_Z 120
_cell_length_a 18.581232
_cell_length_b 21.147109
_cell_length_c 15.120102
_cell_angle_alpha 90.000000
_cell_angle_beta 90.000000
_cell_angle_gamma 90.000000
_cell_volume 5941.282877
_symmetry_space_group_name_H-M "F M M M"
_symmetry_group_IT_number 69
_symmetry_cell_setting 'orthorhombic'
loop_
_space_group_symop_operation_xyz
x,y,z
-x,-y,z
x,-y,-z
-x,y,-z
-x,-y,-z
x,y,-z
-x,y,z
x,-y,z
x,1/2+y,1/2+z
-x,1/2-y,1/2+z
x,1/2-y,1/2-z
-x,1/2+y,1/2-z
-x,1/2-y,1/2-z
x,1/2+y,1/2-z
-x,1/2+y,1/2+z
x,1/2-y,1/2+z
1/2+x,y,1/2+z
1/2-x,-y,1/2+z
1/2+x,-y,1/2-z
1/2-x,y,1/2-z
1/2-x,-y,1/2-z
1/2+x,y,1/2-z
1/2-x,y,1/2+z
1/2+x,-y,1/2+z
1/2+x,1/2+y,z
1/2-x,1/2-y,z
1/2+x,1/2-y,-z
1/2-x,1/2+y,-z
1/2-x,1/2-y,-z
1/2+x,1/2+y,-z
1/2-x,1/2+y,z
1/2+x,1/2-y,z
loop_
_atom_site_type_symbol
_atom_site_label
_atom_site_fract_x
_atom_site_fract_y
_atom_site_fract_z
Si Si1 0.331463 0.616052 0.860577
Si Si2 0.581500 0.075252 0.000000
Si Si3 0.915866 0.243136 0.896265
Si Si4 0.656808 0.500000 0.000000
Si Si5 0.834956 0.862946 0.340019
O O1 0.384150 0.673139 0.886532
O O2 0.342019 0.555809 0.922598
O O3 0.248621 0.639184 0.867128
O O4 0.342250 0.605183 0.755809
O O5 0.622587 0.098404 0.086364
O O6 0.500000 0.099994 0.000000
O O7 0.580037 0.000000 0.000000
O O8 0.869689 0.293282 0.840700
O O9 0.000000 0.245229 0.872133
O O10 0.909223 0.261279 0.000000
#
# Coordination Sequence:
#
# PCOD9513859 Si02
#       5
#    32  16  32   8  32
#     4  11  26  43  69 104 139 185 236 283 348 419
#     4  11  25  42  65 100 135 176 227 284 347 411
#     4  11  23  43  70 102 138 179 233 295 359 415
#     4  12  26  46  67  94 143 192 224 274 344 416
#     4  11  24  42  73 102 136 176 234 295 350 413
#
# _framework density 20.197658000000001
#
# number of rings (size 3 to 8) (size 9 to 14) (size 15 to 20)
#    0.000    0.933    2.667    3.200    5.600    7.467 
#    0.000    1.333    0.000    0.000    0.000    0.000 
#    0.000    0.000    0.000    0.000    0.000    0.000 
#
# Total GULP energy -167286.330455 kJ/mol
# GULP energy per Si atom -5576.211015 kJ/mol
# Density = 2.015169 g / cm^3
# Si number density = 20.197658 Si / 1000 Ang^3
#
#
#
# Elastic Constant Matrix: (Units=GPa)
#
#
# Indices 1 2 3 4 5 6 
#
# 1 103.8863 52.7227 67.2391 0.0000 0.0000 0.0000
# 2 52.7227 160.6868 68.9224 0.0000 0.0000 0.0000
# 3 67.2391 68.9224 135.6328 0.0000 0.0000 0.0000
# 4 0.0000 0.0000 0.0000 28.7663 0.0000 0.0000
# 5 0.0000 0.0000 0.0000 0.0000 34.3198 0.0000
# 6 0.0000 0.0000 0.0000 0.0000 0.0000 11.3634
#
#
#
# Elastic Compliance Matrix: (Units=1/GPa)
#
#
# Indices 1 2 3 4 5 6 
#
# 1 0.014746 -0.002177 -0.006204 0.000000 0.000000 0.000000
# 2 -0.002177 0.008279 -0.003128 0.000000 0.000000 0.000000
# 3 -0.006204 -0.003128 0.012038 0.000000 0.000000 0.000000
# 4 0.000000 0.000000 0.000000 0.034763 0.000000 0.000000
# 5 0.000000 0.000000 0.000000 0.000000 0.029138 0.000000
# 6 0.000000 0.000000 0.000000 0.000000 0.000000 0.088002
#
#
# Mechanical properties :
#
#
# Convention : Reuss Voigt Hill
#
# Bulk Modulus (GPa) = 83.02007 86.44158 84.73083
# Shear Modulus (GPa) = 23.36461 28.97803 26.17132
#
# Velocity S-wave (km/s) = 3.40486 3.79188 3.60357
# Velocity P-wave (km/s) = 7.52665 7.87794 7.70430
#
# Compressibility (1/GPa) = 0.01204528
#
# Stress axis : x y z
#
# Youngs Moduli (GPa) = 67.81325 120.78384 83.07178
#
# Poissons Ratio (x) = 0.26299 0.51537
# Poissons Ratio (y) = 0.14766 0.25982
# Poissons Ratio (z) = 0.42071 0.37778
#
# Static dielectric constant tensor:
#      x y z
#    x 1.707940 0.000000 0.000000 
#    y 0.000000 1.694400 0.000000 
#    z 0.000000 0.000000 1.738880 
# 
# From -- ./inp_files/16268.got.cif
#   From: 2010.05.17/outbox.cif.g08.bks.cpg/sg69_9_cif.got.tgz:16268.got - 2010.06.03 19:29:58.
