data_PCOD9513696
_publ_section_title
;
Structure prediction by ZEFSAII (Michael W. Deem and Ramdas Pophale) SiO2 
 PCOD9513696
Probable space group: F M M M
;
_chemical_formula_sum "Si O2"
_cell_formula_units_Z 128
_cell_length_a 21.321955
_cell_length_b 16.622531
_cell_length_c 19.554140
_cell_angle_alpha 90.000000
_cell_angle_beta 90.000000
_cell_angle_gamma 90.000000
_cell_volume 6930.473292
_symmetry_space_group_name_H-M "F M M M"
_symmetry_group_IT_number 69
_symmetry_cell_setting 'orthorhombic'
loop_
_space_group_symop_operation_xyz
x,y,z
-x,-y,z
x,-y,-z
-x,y,-z
-x,-y,-z
x,y,-z
-x,y,z
x,-y,z
x,1/2+y,1/2+z
-x,1/2-y,1/2+z
x,1/2-y,1/2-z
-x,1/2+y,1/2-z
-x,1/2-y,1/2-z
x,1/2+y,1/2-z
-x,1/2+y,1/2+z
x,1/2-y,1/2+z
1/2+x,y,1/2+z
1/2-x,-y,1/2+z
1/2+x,-y,1/2-z
1/2-x,y,1/2-z
1/2-x,-y,1/2-z
1/2+x,y,1/2-z
1/2-x,y,1/2+z
1/2+x,-y,1/2+z
1/2+x,1/2+y,z
1/2-x,1/2-y,z
1/2+x,1/2-y,-z
1/2-x,1/2+y,-z
1/2-x,1/2-y,-z
1/2+x,1/2+y,-z
1/2-x,1/2+y,z
1/2+x,1/2-y,z
loop_
_atom_site_type_symbol
_atom_site_label
_atom_site_fract_x
_atom_site_fract_y
_atom_site_fract_z
Si Si1 0.852446 0.691510 0.000000
Si Si2 0.844169 0.341871 0.226975
Si Si3 0.293796 0.140979 0.500000
Si Si4 0.074359 0.093737 0.614304
Si Si5 0.270912 0.590328 0.150453
O O1 0.888577 0.652683 0.936332
O O2 0.779563 0.666724 0.000000
O O3 0.844726 0.787465 0.000000
O O4 0.852232 0.250000 0.250000
O O5 0.903419 0.380028 0.189380
O O6 0.785852 0.350567 0.173060
O O7 0.823660 0.391552 0.293533
O O8 0.296896 0.099016 0.573930
O O9 0.000000 0.101485 0.605003
O O10 0.091200 0.000000 0.601176
O O11 0.245982 0.500000 0.158921
#
# Coordination Sequence:
#
# PCOD9513696 Si02
#       5
#    16  32  16  32  32
#     4  11  22  36  57  85 121 150 192 242 300 360
#     4  11  22  36  56  82 119 156 196 243 298 354
#     4  11  23  35  59  87 117 157 189 242 302 356
#     4  11  23  40  62  87 119 161 204 248 296 351
#     4  11  21  35  57  85 119 155 196 244 296 355
#
# _framework density 18.469156999999999
#
# number of rings (size 3 to 8) (size 9 to 14) (size 15 to 20)
#    0.000    1.000    2.500    7.125    3.500    2.500 
#    0.000    0.000    0.000    0.000    0.000    0.000 
#    0.000   10.000    0.000    0.000    0.000    0.000 
#
# Total GULP energy -178565.628686 kJ/mol
# GULP energy per Si atom -5580.175896 kJ/mol
# Density = 1.842712 g / cm^3
# Si number density = 18.469157 Si / 1000 Ang^3
#
#
#
# Elastic Constant Matrix: (Units=GPa)
#
#
# Indices 1 2 3 4 5 6 
#
# 1 67.6756 33.6584 27.2855 0.0000 0.0000 0.0000
# 2 33.6584 91.2331 21.6705 0.0000 0.0000 0.0000
# 3 27.2855 21.6705 126.7341 0.0000 0.0000 0.0000
# 4 0.0000 0.0000 0.0000 26.4253 0.0000 0.0000
# 5 0.0000 0.0000 0.0000 0.0000 15.4889 0.0000
# 6 0.0000 0.0000 0.0000 0.0000 0.0000 27.1653
#
#
#
# Elastic Compliance Matrix: (Units=1/GPa)
#
#
# Indices 1 2 3 4 5 6 
#
# 1 0.019158 -0.006346 -0.003040 0.000000 0.000000 0.000000
# 2 -0.006346 0.013527 -0.000947 0.000000 0.000000 0.000000
# 3 -0.003040 -0.000947 0.008707 0.000000 0.000000 0.000000
# 4 0.000000 0.000000 0.000000 0.037842 0.000000 0.000000
# 5 0.000000 0.000000 0.000000 0.000000 0.064563 0.000000
# 6 0.000000 0.000000 0.000000 0.000000 0.000000 0.036812
#
#
# Mechanical properties :
#
#
# Convention : Reuss Voigt Hill
#
# Bulk Modulus (GPa) = 48.24540 50.09685 49.17113
# Shear Modulus (GPa) = 24.01744 27.35114 25.68429
#
# Velocity S-wave (km/s) = 3.61003 3.85243 3.73320
# Velocity P-wave (km/s) = 6.59964 6.85360 6.72782
#
# Compressibility (1/GPa) = 0.02072736
#
# Stress axis : x y z
#
# Youngs Moduli (GPa) = 52.19747 73.92620 114.85240
#
# Poissons Ratio (x) = 0.46913 0.34910
# Poissons Ratio (y) = 0.33124 0.10874
# Poissons Ratio (z) = 0.15866 0.06999
#
# Static dielectric constant tensor:
#      x y z
#    x 1.616360 0.000000 0.000000 
#    y 0.000000 1.648780 0.000000 
#    z 0.000000 0.000000 1.693360 
# 
# From -- ./inp_files/31633.got.cif
#   From: 2010.05.17/outbox.cif.g08.bks.cpg/sg69_16_cif.got.tgz:31633.got - 2010.06.03 19:29:58.
