data_PCOD9513774
_publ_section_title
;
Structure prediction by ZEFSAII (Michael W. Deem and Ramdas Pophale) SiO2 
 PCOD9513774
Probable space group: F M M M
;
_chemical_formula_sum "Si O2"
_cell_formula_units_Z 136
_cell_length_a 14.058501
_cell_length_b 23.741618
_cell_length_c 23.203205
_cell_angle_alpha 90.000000
_cell_angle_beta 90.000000
_cell_angle_gamma 90.000000
_cell_volume 7744.569939
_symmetry_space_group_name_H-M "F M M M"
_symmetry_group_IT_number 69
_symmetry_cell_setting 'orthorhombic'
loop_
_space_group_symop_operation_xyz
x,y,z
-x,-y,z
x,-y,-z
-x,y,-z
-x,-y,-z
x,y,-z
-x,y,z
x,-y,z
x,1/2+y,1/2+z
-x,1/2-y,1/2+z
x,1/2-y,1/2-z
-x,1/2+y,1/2-z
-x,1/2-y,1/2-z
x,1/2+y,1/2-z
-x,1/2+y,1/2+z
x,1/2-y,1/2+z
1/2+x,y,1/2+z
1/2-x,-y,1/2+z
1/2+x,-y,1/2-z
1/2-x,y,1/2-z
1/2-x,-y,1/2-z
1/2+x,y,1/2-z
1/2-x,y,1/2+z
1/2+x,-y,1/2+z
1/2+x,1/2+y,z
1/2-x,1/2-y,z
1/2+x,1/2-y,-z
1/2-x,1/2+y,-z
1/2-x,1/2-y,-z
1/2+x,1/2+y,-z
1/2-x,1/2+y,z
1/2+x,1/2-y,z
loop_
_atom_site_type_symbol
_atom_site_label
_atom_site_fract_x
_atom_site_fract_y
_atom_site_fract_z
Si Si1 0.000000 0.186516 0.371562
Si Si2 0.290051 0.309608 0.684812
Si Si3 0.789737 0.187391 0.500000
Si Si4 0.500000 0.190966 0.569547
Si Si5 0.812709 0.878730 0.900821
Si Si6 0.500000 0.165608 0.000000
Si Si7 0.111199 0.000000 0.069417
O O1 0.902426 0.184016 0.332609
O O2 0.000000 0.248709 0.400038
O O3 0.000000 0.145707 0.429903
O O4 0.250000 0.307520 0.750000
O O5 0.250000 0.250000 0.658442
O O6 0.235274 0.362750 0.658622
O O7 0.750000 0.250000 0.500000
O O8 0.758188 0.149569 0.446663
O O9 0.900818 0.196014 0.500000
O O10 0.500000 0.192418 0.500000
O O11 0.409032 0.155902 0.589573
O O12 0.836222 0.943613 0.910425
O O13 0.000000 0.000000 0.087792
O O14 0.111232 0.000000 0.000000
#
# Coordination Sequence:
#
# PCOD9513774 Si02
#       7
#    16  32  16  16  32   8  16
#     4  12  22  36  61  92 131 159 205 257 313 390
#     4  11  25  41  60  89 125 169 212 257 310 371
#     4  12  22  35  60  91 127 161 195 250 320 381
#     4  12  20  30  59  95 126 163 196 248 320 390
#     4  12  22  38  59  91 128 162 207 255 315 368
#     4  12  22  34  60  93 128 153 202 248 316 380
#     4  11  22  38  59  92 128 166 204 254 313 372
#
# _framework density 17.560690999999998
#
# number of rings (size 3 to 8) (size 9 to 14) (size 15 to 20)
#    0.000    0.353    8.824    2.118    0.000    2.824 
#    0.000    0.588    0.000    3.529    0.000    0.000 
#    0.000    0.000    0.000    0.000    0.000    0.000 
#
# Total GULP energy -189283.156247 kJ/mol
# GULP energy per Si atom -5567.151654 kJ/mol
# Density = 1.752072 g / cm^3
# Si number density = 17.560691 Si / 1000 Ang^3
#
#
#
# Elastic Constant Matrix: (Units=GPa)
#
#
# Indices 1 2 3 4 5 6 
#
# 1 165.9715 45.4944 49.6984 0.0000 0.0000 0.0000
# 2 45.4944 130.9469 39.7003 0.0000 0.0000 0.0000
# 3 49.6984 39.7003 97.9178 0.0000 0.0000 0.0000
# 4 0.0000 0.0000 0.0000 -10.8297 0.0000 0.0000
# 5 0.0000 0.0000 0.0000 0.0000 19.6570 0.0000
# 6 0.0000 0.0000 0.0000 0.0000 0.0000 21.8050
#
#
#
# Elastic Compliance Matrix: (Units=1/GPa)
#
#
# Indices 1 2 3 4 5 6 
#
# 1 0.007399 -0.001633 -0.003093 0.000000 0.000000 0.000000
# 2 -0.001633 0.009067 -0.002848 0.000000 0.000000 0.000000
# 3 -0.003093 -0.002848 0.012937 0.000000 0.000000 0.000000
# 4 0.000000 0.000000 0.000000 -0.092338 0.000000 0.000000
# 5 0.000000 0.000000 0.000000 0.000000 0.050873 0.000000
# 6 0.000000 0.000000 0.000000 0.000000 0.000000 0.045861
#
#
# Mechanical properties :
#
#
# Convention : Reuss Voigt Hill
#
# Bulk Modulus (GPa) = 70.14556 73.84695 71.99625
# Shear Modulus (GPa) = 93.11315 23.45599 58.28457
#
# Velocity S-wave (km/s) = 7.28963 3.65870 5.76736
# Velocity P-wave (km/s) = 10.53010 7.74544 9.24324
#
# Compressibility (1/GPa) = 0.01425607
#
# Stress axis : x y z
#
# Youngs Moduli (GPa) = 135.15416 110.28682 77.29625
#
# Poissons Ratio (x) = 0.18007 0.23911
# Poissons Ratio (y) = 0.22067 0.22011
# Poissons Ratio (z) = 0.41808 0.31405
#
# Static dielectric constant tensor:
#      x y z
#    x 1.615520 0.000000 0.000000 
#    y 0.000000 1.602230 0.000000 
#    z 0.000000 0.000000 1.662540 
# 
# From -- ./inp_files/35806.got.cif
#   From: 2010.05.17/outbox.cif.g08.bks.cpg/sg69_18_cif.got.tgz:35806.got - 2010.06.03 19:29:58.
