data_PCOD9513166
_publ_section_title
;
Structure prediction by ZEFSAII (Michael W. Deem and Ramdas Pophale) SiO2 
 PCOD9513166
Probable space group: F M M M
;
_chemical_formula_sum "Si O2"
_cell_formula_units_Z 144
_cell_length_a 16.451935
_cell_length_b 22.184163
_cell_length_c 19.162646
_cell_angle_alpha 90.000000
_cell_angle_beta 90.000000
_cell_angle_gamma 90.000000
_cell_volume 6993.837049
_symmetry_space_group_name_H-M "F M M M"
_symmetry_group_IT_number 69
_symmetry_cell_setting 'orthorhombic'
loop_
_space_group_symop_operation_xyz
x,y,z
-x,-y,z
x,-y,-z
-x,y,-z
-x,-y,-z
x,y,-z
-x,y,z
x,-y,z
x,1/2+y,1/2+z
-x,1/2-y,1/2+z
x,1/2-y,1/2-z
-x,1/2+y,1/2-z
-x,1/2-y,1/2-z
x,1/2+y,1/2-z
-x,1/2+y,1/2+z
x,1/2-y,1/2+z
1/2+x,y,1/2+z
1/2-x,-y,1/2+z
1/2+x,-y,1/2-z
1/2-x,y,1/2-z
1/2-x,-y,1/2-z
1/2+x,y,1/2-z
1/2-x,y,1/2+z
1/2+x,-y,1/2+z
1/2+x,1/2+y,z
1/2-x,1/2-y,z
1/2+x,1/2-y,-z
1/2-x,1/2+y,-z
1/2-x,1/2-y,-z
1/2+x,1/2+y,-z
1/2-x,1/2+y,z
1/2+x,1/2-y,z
loop_
_atom_site_type_symbol
_atom_site_label
_atom_site_fract_x
_atom_site_fract_y
_atom_site_fract_z
Si Si1 0.599028 0.500000 0.580470
Si Si2 0.406157 0.879448 0.842687
Si Si3 0.836291 0.571300 0.711262
Si Si4 0.094767 0.866438 0.081724
Si Si5 0.344727 0.233626 0.920762
O O1 0.500000 0.500000 0.584154
O O2 0.622873 0.500000 0.500000
O O3 0.626963 0.439547 0.619081
O O4 0.500000 0.872387 0.862871
O O5 0.398321 0.893230 0.761169
O O6 0.361604 0.819838 0.867642
O O7 0.853152 0.500000 0.711017
O O8 0.750000 0.580642 0.750000
O O9 0.847166 0.597606 0.634174
O O10 0.106772 0.795003 0.094280
O O11 0.000000 0.882815 0.092722
O O12 0.114596 0.876891 0.000000
O O13 0.250000 0.250000 0.919593
O O14 0.365970 0.213727 0.000000
#
# Coordination Sequence:
#
# PCOD9513166 Si02
#       5
#    16  32  32  32  32
#     4   9  18  32  53  86 123 157 197 244 298 364
#     4  11  21  36  61  91 123 162 206 256 316 376
#     4  11  24  42  63  88 127 166 207 260 323 386
#     4  10  22  41  65  93 124 164 219 272 314 368
#     4  10  21  38  61  90 129 170 211 258 314 378
#
# _framework density 20.589556999999999
#
# number of rings (size 3 to 8) (size 9 to 14) (size 15 to 20)
#    0.000    1.667    1.111    3.333    0.000    4.889 
#    0.000    6.667    0.000    0.000    0.000    0.000 
#    0.000    0.000    0.000    0.000    0.000    0.000 
#
# Total GULP energy -201197.109829 kJ/mol
# GULP energy per Si atom -5588.808606 kJ/mol
# Density = 2.054269 g / cm^3
# Si number density = 20.589557 Si / 1000 Ang^3
#
#
#
# Elastic Constant Matrix: (Units=GPa)
#
#
# Indices 1 2 3 4 5 6 
#
# 1 56.3101 32.4540 28.6307 0.0000 0.0000 0.0000
# 2 32.4540 104.4707 74.3198 0.0000 0.0000 0.0000
# 3 28.6307 74.3198 123.2717 0.0000 0.0000 0.0000
# 4 0.0000 0.0000 0.0000 29.1031 0.0000 0.0000
# 5 0.0000 0.0000 0.0000 0.0000 28.2537 0.0000
# 6 0.0000 0.0000 0.0000 0.0000 0.0000 18.7903
#
#
#
# Elastic Compliance Matrix: (Units=1/GPa)
#
#
# Indices 1 2 3 4 5 6 
#
# 1 0.021838 -0.005561 -0.001719 0.000000 0.000000 0.000000
# 2 -0.005561 0.018177 -0.009667 0.000000 0.000000 0.000000
# 3 -0.001719 -0.009667 0.014340 0.000000 0.000000 0.000000
# 4 0.000000 0.000000 0.000000 0.034361 0.000000 0.000000
# 5 0.000000 0.000000 0.000000 0.000000 0.035394 0.000000
# 6 0.000000 0.000000 0.000000 0.000000 0.000000 0.053219
#
#
# Mechanical properties :
#
#
# Convention : Reuss Voigt Hill
#
# Bulk Modulus (GPa) = 48.87651 61.65129 55.26390
# Shear Modulus (GPa) = 22.93137 25.13928 24.03532
#
# Velocity S-wave (km/s) = 3.34089 3.49803 3.42036
# Velocity P-wave (km/s) = 6.21869 6.80610 6.51901
#
# Compressibility (1/GPa) = 0.02045973
#
# Stress axis : x y z
#
# Youngs Moduli (GPa) = 45.79181 55.01584 69.73641
#
# Poissons Ratio (x) = 0.30593 0.11991
# Poissons Ratio (y) = 0.25464 0.67414
# Poissons Ratio (z) = 0.07874 0.53184
#
# Static dielectric constant tensor:
#      x y z
#    x 1.767840 0.000000 0.000000 
#    y 0.000000 1.690200 0.000000 
#    z 0.000000 0.000000 1.732170 
# 
# From -- ./inp_files/30734.got.cif
#   From: 2010.05.17/outbox.cif.g08.bks.cpg/sg69_16_cif.got.tgz:30734.got - 2010.06.03 19:29:58.
