data_PCOD9513306
_publ_section_title
;
Structure prediction by ZEFSAII (Michael W. Deem and Ramdas Pophale) SiO2 
 PCOD9513306
Probable space group: F M M M
;
_chemical_formula_sum "Si O2"
_cell_formula_units_Z 116
_cell_length_a 11.121275
_cell_length_b 28.001322
_cell_length_c 18.856370
_cell_angle_alpha 90.000000
_cell_angle_beta 90.000000
_cell_angle_gamma 90.000000
_cell_volume 5872.069768
_symmetry_space_group_name_H-M "F M M M"
_symmetry_group_IT_number 69
_symmetry_cell_setting 'orthorhombic'
loop_
_space_group_symop_operation_xyz
x,y,z
-x,-y,z
x,-y,-z
-x,y,-z
-x,-y,-z
x,y,-z
-x,y,z
x,-y,z
x,1/2+y,1/2+z
-x,1/2-y,1/2+z
x,1/2-y,1/2-z
-x,1/2+y,1/2-z
-x,1/2-y,1/2-z
x,1/2+y,1/2-z
-x,1/2+y,1/2+z
x,1/2-y,1/2+z
1/2+x,y,1/2+z
1/2-x,-y,1/2+z
1/2+x,-y,1/2-z
1/2-x,y,1/2-z
1/2-x,-y,1/2-z
1/2+x,y,1/2-z
1/2-x,y,1/2+z
1/2+x,-y,1/2+z
1/2+x,1/2+y,z
1/2-x,1/2-y,z
1/2+x,1/2-y,-z
1/2-x,1/2+y,-z
1/2-x,1/2-y,-z
1/2+x,1/2+y,-z
1/2-x,1/2+y,z
1/2+x,1/2-y,z
loop_
_atom_site_type_symbol
_atom_site_label
_atom_site_fract_x
_atom_site_fract_y
_atom_site_fract_z
Si Si1 0.857447 0.052628 0.850932
Si Si2 0.500000 0.000000 0.000000
Si Si3 0.250000 0.132903 0.250000
Si Si4 0.638184 0.327080 0.500000
Si Si5 0.267926 0.568991 0.500000
Si Si6 0.139567 0.785757 0.343717
O O1 0.814658 0.097073 0.804250
O O2 0.000000 0.054676 0.856229
O O3 0.824701 0.000000 0.821205
O O4 0.801119 0.055702 0.928653
O O5 0.394155 0.041466 0.000000
O O6 0.162713 0.167425 0.295438
O O7 0.500000 0.343389 0.500000
O O8 0.717752 0.374050 0.500000
O O9 0.654297 0.298547 0.426956
O O10 0.250000 0.750000 0.327380
O O11 0.000000 0.769108 0.333454
#
# Coordination Sequence:
#
# PCOD9513306 Si02
#       6
#    32   4  16  16  16  32
#     4  11  24  43  65  98 135 176 220 268 328 391
#     4  12  24  36  74 108 128 172 236 268 344 380
#     4  12  24  42  68  96 136 178 220 264 332 404
#     4  10  21  42  68  95 127 164 217 274 328 384
#     4  12  21  42  67  98 131 173 219 278 317 389
#     4  11  25  45  70  96 130 170 221 281 338 401
#
# _framework density 19.754534
#
# number of rings (size 3 to 8) (size 9 to 14) (size 15 to 20)
#    0.000    0.828    4.828    2.483    0.000    4.414 
#    2.483    0.000    0.000    0.000    0.000    0.000 
#    0.000    0.000    0.000    0.000    0.000    0.000 
#
# Total GULP energy -161663.490648 kJ/mol
# GULP energy per Si atom -5574.603126 kJ/mol
# Density = 1.970957 g / cm^3
# Si number density = 19.754534 Si / 1000 Ang^3
#
#
#
# Elastic Constant Matrix: (Units=GPa)
#
#
# Indices 1 2 3 4 5 6 
#
# 1 128.2937 77.9503 64.3578 0.0000 0.0000 0.0000
# 2 77.9503 125.3473 51.7710 0.0000 0.0000 0.0000
# 3 64.3578 51.7710 144.6442 0.0000 0.0000 0.0000
# 4 0.0000 0.0000 0.0000 47.4817 0.0000 0.0000
# 5 0.0000 0.0000 0.0000 0.0000 63.3638 0.0000
# 6 0.0000 0.0000 0.0000 0.0000 0.0000 30.4278
#
#
#
# Elastic Compliance Matrix: (Units=1/GPa)
#
#
# Indices 1 2 3 4 5 6 
#
# 1 0.014000 -0.007198 -0.003653 0.000000 0.000000 0.000000
# 2 -0.007198 0.013062 -0.001473 0.000000 0.000000 0.000000
# 3 -0.003653 -0.001473 0.009066 0.000000 0.000000 0.000000
# 4 0.000000 0.000000 0.000000 0.021061 0.000000 0.000000
# 5 0.000000 0.000000 0.000000 0.000000 0.015782 0.000000
# 6 0.000000 0.000000 0.000000 0.000000 0.000000 0.032865
#
#
# Mechanical properties :
#
#
# Convention : Reuss Voigt Hill
#
# Bulk Modulus (GPa) = 87.09578 87.38263 87.23920
# Shear Modulus (GPa) = 37.22723 41.86838 39.54780
#
# Velocity S-wave (km/s) = 4.34578 4.60872 4.47918
# Velocity P-wave (km/s) = 8.32861 8.52354 8.42664
#
# Compressibility (1/GPa) = 0.01148161
#
# Stress axis : x y z
#
# Youngs Moduli (GPa) = 71.42608 76.55699 110.30177
#
# Poissons Ratio (x) = 0.55104 0.40295
# Poissons Ratio (y) = 0.51411 0.16244
# Poissons Ratio (z) = 0.26093 0.11274
#
# Static dielectric constant tensor:
#      x y z
#    x 1.658160 0.000000 0.000000 
#    y 0.000000 1.708360 0.000000 
#    z 0.000000 0.000000 1.685210 
# 
# From -- ./inp_files/20881.got.cif
#   From: 2010.05.17/outbox.cif.g08.bks.cpg/sg69_11_cif.got.tgz:20881.got - 2010.06.03 19:29:58.
