data_PCOD9513994
_publ_section_title
;
Structure prediction by ZEFSAII (Michael W. Deem and Ramdas Pophale) SiO2 
 PCOD9513994
Probable space group: F M M M
;
_chemical_formula_sum "Si O2"
_cell_formula_units_Z 44
_cell_length_a 18.000000
_cell_length_b 27.000000
_cell_length_c 18.000000
_cell_angle_alpha 90.000000
_cell_angle_beta 90.000000
_cell_angle_gamma 90.000000
_cell_volume 8748.000000
_symmetry_space_group_name_H-M "F M M M"
_symmetry_group_IT_number 69
_symmetry_cell_setting 'orthorhombic'
loop_
_space_group_symop_operation_xyz
x,y,z
-x,-y,z
x,-y,-z
-x,y,-z
-x,-y,-z
x,y,-z
-x,y,z
x,-y,z
x,1/2+y,1/2+z
-x,1/2-y,1/2+z
x,1/2-y,1/2-z
-x,1/2+y,1/2-z
-x,1/2-y,1/2-z
x,1/2+y,1/2-z
-x,1/2+y,1/2+z
x,1/2-y,1/2+z
1/2+x,y,1/2+z
1/2-x,-y,1/2+z
1/2+x,-y,1/2-z
1/2-x,y,1/2-z
1/2-x,-y,1/2-z
1/2+x,y,1/2-z
1/2-x,y,1/2+z
1/2+x,-y,1/2+z
1/2+x,1/2+y,z
1/2-x,1/2-y,z
1/2+x,1/2-y,-z
1/2-x,1/2+y,-z
1/2-x,1/2-y,-z
1/2+x,1/2+y,-z
1/2-x,1/2+y,z
1/2+x,1/2-y,z
loop_
_atom_site_type_symbol
_atom_site_label
_atom_site_fract_x
_atom_site_fract_y
_atom_site_fract_z
Si Si1 0.000000 0.607532 0.411533
Si Si2 0.725089 0.845535 0.169710
Si Si3 0.585551 0.202797 0.089959
Si Si4 0.417784 0.059364 0.000000
Si Si5 0.144853 0.059481 0.662202
Si Si6 0.871302 0.813810 0.087677
Si Si7 0.500000 0.058362 0.743511
O O1 0.928989 0.642352 0.397414
O O2 0.000000 0.568466 0.344480
O O3 0.000000 0.592452 0.500000
O O4 0.750000 0.826394 0.250000
O O5 0.647509 0.825608 0.137199
O O6 0.714276 0.904817 0.175244
O O7 0.791281 0.827846 0.117739
O O8 0.500000 0.188617 0.105128
O O9 0.597142 0.260583 0.111398
O O10 0.597478 0.197060 0.000000
O O11 0.378061 0.070318 0.076892
O O12 0.500000 0.081733 0.000000
O O13 0.425134 0.000000 0.000000
O O14 0.075797 0.075206 0.715328
O O15 0.157632 0.000000 0.670166
O O16 0.865486 0.809632 0.000000
O O17 0.500000 0.000000 0.757212
#
# Coordination Sequence:
#
# PCOD9513994 Si02
#       7
#    16  32  32  16  32  32  16
#     4  10  20  39  68  90 117 167 225 270 311 376
#     4  12  26  40  59  96 134 168 215 260 317 380
#     4  10  22  43  70  97 125 166 214 264 327 395
#     4   9  16  32  60  94 123 155 207 263 322 387
#     4  10  22  39  62  90 129 174 210 261 327 390
#     4  10  21  42  66  89 123 167 210 259 321 382
#     4  10  20  38  61  89 126 168 211 260 325 384
#
# _framework density 5.0297210000000003
#
# number of rings (size 3 to 8) (size 9 to 14) (size 15 to 20)
#    0.000    1.727    1.818    2.182    3.818    3.455 
#    1.636    1.818    0.000    1.091    0.000    0.000 
#    0.000    0.000    0.000    0.000    0.000    0.000 
#
# Total GULP energy -245530.784359 kJ/mol
# GULP energy per Si atom -5580.245099 kJ/mol
# Density = 0.501827 g / cm^3
# Si number density = 5.029721 Si / 1000 Ang^3
#
#
#
# Elastic Constant Matrix: (Units=GPa)
#
#
# Indices 1 2 3 4 5 6 
#
# 1 113.3141 28.2475 16.7591 0.0000 0.0000 0.0000
# 2 28.2475 22.8120 2.0297 0.0000 0.0000 0.0000
# 3 16.7591 2.0297 14.3457 0.0000 0.0000 0.0000
# 4 0.0000 0.0000 0.0000 246.6207 0.0000 0.0000
# 5 0.0000 0.0000 0.0000 0.0000 1.0517 0.0000
# 6 0.0000 0.0000 0.0000 0.0000 0.0000 66.5476
#
#
#
# Elastic Compliance Matrix: (Units=1/GPa)
#
#
# Indices 1 2 3 4 5 6 
#
# 1 0.015623 -0.017947 -0.015712 0.000000 0.000000 0.000000
# 2 -0.017947 0.065013 0.011768 0.000000 0.000000 0.000000
# 3 -0.015712 0.011768 0.086397 0.000000 0.000000 0.000000
# 4 0.000000 0.000000 0.000000 0.004055 0.000000 0.000000
# 5 0.000000 0.000000 0.000000 0.000000 0.950858 0.000000
# 6 0.000000 0.000000 0.000000 0.000000 0.000000 0.015027
#
#
# Mechanical properties :
#
#
# Convention : Reuss Voigt Hill
#
# Bulk Modulus (GPa) = 8.11351 27.17161 17.64256
# Shear Modulus (GPa) = 4.09219 69.73970 36.91595
#
# Velocity S-wave (km/s) = 1.42773 5.89398 4.28821
# Velocity P-wave (km/s) = 2.59989 7.73651 5.77118
#
# Compressibility (1/GPa) = 0.12325119
#
# Stress axis : x y z
#
# Youngs Moduli (GPa) = 64.00913 15.38152 11.57447
#
# Poissons Ratio (x) = 0.27606 0.18185
# Poissons Ratio (y) = 1.14879 -0.13621
# Poissons Ratio (z) = 1.00569 -0.18101
#
# Static dielectric constant tensor:
#      x y z
#    x 1.687930 0.000000 0.000000 
#    y 0.000000 1.781780 0.000000 
#    z 0.000000 0.000000 1.872700 
# 
# From -- ./inp_files/23298.got.cif
#   From: 2010.05.17/outbox.ucp.g08.bks.cvg/sg69_12_cif.got.tgz:23298.got - 2010.06.11 16:51:34.
