data_PCOD9513894
_publ_section_title
;
Structure prediction by ZEFSAII (Michael W. Deem and Ramdas Pophale) SiO2 
 PCOD9513894
Probable space group: F M M M
;
_chemical_formula_sum "Si O2"
_cell_formula_units_Z 168
_cell_length_a 22.055506
_cell_length_b 29.600271
_cell_length_c 12.371647
_cell_angle_alpha 90.000000
_cell_angle_beta 90.000000
_cell_angle_gamma 90.000000
_cell_volume 8076.816811
_symmetry_space_group_name_H-M "F M M M"
_symmetry_group_IT_number 69
_symmetry_cell_setting 'orthorhombic'
loop_
_space_group_symop_operation_xyz
x,y,z
-x,-y,z
x,-y,-z
-x,y,-z
-x,-y,-z
x,y,-z
-x,y,z
x,-y,z
x,1/2+y,1/2+z
-x,1/2-y,1/2+z
x,1/2-y,1/2-z
-x,1/2+y,1/2-z
-x,1/2-y,1/2-z
x,1/2+y,1/2-z
-x,1/2+y,1/2+z
x,1/2-y,1/2+z
1/2+x,y,1/2+z
1/2-x,-y,1/2+z
1/2+x,-y,1/2-z
1/2-x,y,1/2-z
1/2-x,-y,1/2-z
1/2+x,y,1/2-z
1/2-x,y,1/2+z
1/2+x,-y,1/2+z
1/2+x,1/2+y,z
1/2-x,1/2-y,z
1/2+x,1/2-y,-z
1/2-x,1/2+y,-z
1/2-x,1/2-y,-z
1/2+x,1/2+y,-z
1/2-x,1/2+y,z
1/2+x,1/2-y,z
loop_
_atom_site_type_symbol
_atom_site_label
_atom_site_fract_x
_atom_site_fract_y
_atom_site_fract_z
Si Si1 0.901972 0.679974 0.500000
Si Si2 0.887353 0.450231 0.119813
Si Si3 0.500000 0.602719 0.000000
Si Si4 0.804539 0.367609 0.180499
Si Si5 0.500000 0.827239 0.870588
Si Si6 0.256495 0.695081 0.000000
Si Si7 0.891992 0.796904 0.768176
Si Si8 0.000000 0.076547 0.244944
O O1 0.828184 0.682418 0.500000
O O2 0.920337 0.702850 0.612816
O O3 0.938778 0.633213 0.500000
O O4 0.858384 0.500000 0.128962
O O5 0.841448 0.408482 0.128362
O O6 0.939437 0.445819 0.208599
O O7 0.915920 0.447438 0.000000
O O8 0.500000 0.578008 0.884492
O O9 0.750000 0.387112 0.250000
O O10 0.776778 0.329850 0.100208
O O11 0.850006 0.340295 0.257497
O O12 0.558792 0.801483 0.826312
O O13 0.500000 0.873841 0.801841
O O14 0.500000 0.833604 0.000000
O O15 0.250000 0.750000 0.000000
O O16 0.857421 0.750000 0.750000
#
# Coordination Sequence:
#
# PCOD9513894 Si02
#       8
#    16  32   8  32  16  16  32  16
#     4  12  22  46  64  94 137 185 239 281 344 410
#     4  11  24  46  76 106 136 175 228 293 360 421
#     4  12  24  44  73  96 138 182 228 286 353 430
#     4  12  25  43  67 101 139 181 236 284 344 414
#     4  12  25  41  66  98 133 177 230 290 354 414
#     4  12  26  42  67 100 144 194 239 292 337 412
#     4  12  26  42  65  97 136 186 233 284 343 417
#     4  12  23  44  71 104 135 175 229 285 355 426
#
# _framework density 20.800274000000002
#
# number of rings (size 3 to 8) (size 9 to 14) (size 15 to 20)
#    0.000    0.190    6.667    2.571    2.667    1.143 
#    0.000    0.952    0.000    0.000    0.000    0.000 
#    0.000    0.000    0.000    0.000    0.000    0.000 
#
# Total GULP energy -234572.407592 kJ/mol
# GULP energy per Si atom -5585.057324 kJ/mol
# Density = 2.075293 g / cm^3
# Si number density = 20.800274 Si / 1000 Ang^3
#
#
#
# Elastic Constant Matrix: (Units=GPa)
#
#
# Indices 1 2 3 4 5 6 
#
# 1 94.1721 35.6521 27.5730 0.0000 0.0000 0.0000
# 2 35.6521 133.9915 39.1200 0.0000 0.0000 0.0000
# 3 27.5730 39.1200 167.5348 0.0000 0.0000 0.0000
# 4 0.0000 0.0000 0.0000 10.7413 0.0000 0.0000
# 5 0.0000 0.0000 0.0000 0.0000 29.8357 0.0000
# 6 0.0000 0.0000 0.0000 0.0000 0.0000 38.7584
#
#
#
# Elastic Compliance Matrix: (Units=1/GPa)
#
#
# Indices 1 2 3 4 5 6 
#
# 1 0.012077 -0.002826 -0.001328 0.000000 0.000000 0.000000
# 2 -0.002826 0.008670 -0.001559 0.000000 0.000000 0.000000
# 3 -0.001328 -0.001559 0.006552 0.000000 0.000000 0.000000
# 4 0.000000 0.000000 0.000000 0.093099 0.000000 0.000000
# 5 0.000000 0.000000 0.000000 0.000000 0.033517 0.000000
# 6 0.000000 0.000000 0.000000 0.000000 0.000000 0.025801
#
#
# Mechanical properties :
#
#
# Convention : Reuss Voigt Hill
#
# Bulk Modulus (GPa) = 63.00002 66.70984 64.85493
# Shear Modulus (GPa) = 25.45393 35.42396 30.43895
#
# Velocity S-wave (km/s) = 3.50198 4.13128 3.82958
# Velocity P-wave (km/s) = 6.83415 7.40931 7.12754
#
# Compressibility (1/GPa) = 0.01587301
#
# Stress axis : x y z
#
# Youngs Moduli (GPa) = 82.79877 115.33543 152.63456
#
# Poissons Ratio (x) = 0.32592 0.20268
# Poissons Ratio (y) = 0.23398 0.23803
# Poissons Ratio (z) = 0.10995 0.17986
#
# Static dielectric constant tensor:
#      x y z
#    x 1.738060 0.000000 0.000000 
#    y 0.000000 1.753630 0.000000 
#    z 0.000000 0.000000 1.773300 
# 
# From -- ./inp_files/10685.got.cif
#   From: 2010.05.17/outbox.cif.g08.bks.cpg/sg69_6_cif.got.tgz:10685.got - 2010.06.03 19:29:58.
