data_PCOD9513623
_publ_section_title
;
Structure prediction by ZEFSAII (Michael W. Deem and Ramdas Pophale) SiO2 
 PCOD9513623
Probable space group: F M M M
;
_chemical_formula_sum "Si O2"
_cell_formula_units_Z 160
_cell_length_a 20.118591
_cell_length_b 19.739583
_cell_length_c 22.244474
_cell_angle_alpha 90.000000
_cell_angle_beta 90.000000
_cell_angle_gamma 90.000000
_cell_volume 8834.005726
_symmetry_space_group_name_H-M "F M M M"
_symmetry_group_IT_number 69
_symmetry_cell_setting 'orthorhombic'
loop_
_space_group_symop_operation_xyz
x,y,z
-x,-y,z
x,-y,-z
-x,y,-z
-x,-y,-z
x,y,-z
-x,y,z
x,-y,z
x,1/2+y,1/2+z
-x,1/2-y,1/2+z
x,1/2-y,1/2-z
-x,1/2+y,1/2-z
-x,1/2-y,1/2-z
x,1/2+y,1/2-z
-x,1/2+y,1/2+z
x,1/2-y,1/2+z
1/2+x,y,1/2+z
1/2-x,-y,1/2+z
1/2+x,-y,1/2-z
1/2-x,y,1/2-z
1/2-x,-y,1/2-z
1/2+x,y,1/2-z
1/2-x,y,1/2+z
1/2+x,-y,1/2+z
1/2+x,1/2+y,z
1/2-x,1/2-y,z
1/2+x,1/2-y,-z
1/2-x,1/2+y,-z
1/2-x,1/2-y,-z
1/2+x,1/2+y,-z
1/2-x,1/2+y,z
1/2+x,1/2-y,z
loop_
_atom_site_type_symbol
_atom_site_label
_atom_site_fract_x
_atom_site_fract_y
_atom_site_fract_z
Si Si1 0.840676 0.788779 0.568801
Si Si2 0.611683 0.500000 0.571462
Si Si3 0.298768 0.149900 0.609033
Si Si4 0.327407 0.331010 0.242270
Si Si5 0.228326 0.000000 0.069237
Si Si6 0.076100 0.129467 0.347907
O O1 0.840687 0.814642 0.500000
O O2 0.778504 0.823681 0.604688
O O3 0.831209 0.708098 0.567964
O O4 0.903791 0.809183 0.607829
O O5 0.593183 0.500000 0.500000
O O6 0.691719 0.500000 0.574548
O O7 0.587005 0.435315 0.609005
O O8 0.336499 0.156011 0.672076
O O9 0.297586 0.071156 0.594034
O O10 0.333005 0.250000 0.250000
O O11 0.250000 0.350755 0.250000
O O12 0.375346 0.367213 0.289986
O O13 0.210842 0.000000 0.000000
O O14 0.000000 0.132814 0.328380
#
# Coordination Sequence:
#
# PCOD9513623 Si02
#       6
#    32  16  32  32  16  32
#     4  11  20  36  59  87 121 162 206 250 299 357
#     4  11  23  41  59  85 128 170 201 242 306 379
#     4  11  20  35  59  89 117 158 203 253 304 352
#     4  11  19  39  63  85 118 157 206 258 302 349
#     4  11  20  34  58  94 126 151 198 257 307 360
#     4  12  25  39  59  89 124 166 206 245 302 371
#
# _framework density 18.111829
#
# number of rings (size 3 to 8) (size 9 to 14) (size 15 to 20)
#    0.000    0.800    6.000    4.500    0.000    3.200 
#    0.000    2.000    0.000    0.000    0.000    0.700 
#    0.000    4.800    0.000    0.000    0.000    0.000 
#
# Total GULP energy -222962.278898 kJ/mol
# GULP energy per Si atom -5574.056972 kJ/mol
# Density = 1.807061 g / cm^3
# Si number density = 18.111829 Si / 1000 Ang^3
#
#
#
# Elastic Constant Matrix: (Units=GPa)
#
#
# Indices 1 2 3 4 5 6 
#
# 1 86.4825 38.5192 63.5002 0.0000 0.0000 0.0000
# 2 38.5192 126.0966 40.2731 0.0000 0.0000 0.0000
# 3 63.5002 40.2731 143.7982 0.0000 0.0000 0.0000
# 4 0.0000 0.0000 0.0000 26.2162 0.0000 0.0000
# 5 0.0000 0.0000 0.0000 0.0000 -9.7897 0.0000
# 6 0.0000 0.0000 0.0000 0.0000 0.0000 0.7694
#
#
#
# Elastic Compliance Matrix: (Units=1/GPa)
#
#
# Indices 1 2 3 4 5 6 
#
# 1 0.018283 -0.003302 -0.007149 0.000000 0.000000 0.000000
# 2 -0.003302 0.009306 -0.001148 0.000000 0.000000 0.000000
# 3 -0.007149 -0.001148 0.010433 0.000000 0.000000 0.000000
# 4 0.000000 0.000000 0.000000 0.038144 0.000000 0.000000
# 5 0.000000 0.000000 0.000000 0.000000 -0.102148 0.000000
# 6 0.000000 0.000000 0.000000 0.000000 0.000000 1.299730
#
#
# Mechanical properties :
#
#
# Convention : Reuss Voigt Hill
#
# Bulk Modulus (GPa) = 67.45995 71.21802 69.33898
# Shear Modulus (GPa) = 3.84058 17.71150 10.77604
#
# Velocity S-wave (km/s) = 1.45777 3.13053 2.44185
# Velocity P-wave (km/s) = 6.33724 7.24386 6.80567
#
# Compressibility (1/GPa) = 0.01482361
#
# Stress axis : x y z
#
# Youngs Moduli (GPa) = 54.69683 107.46073 95.85327
#
# Poissons Ratio (x) = 0.35480 0.68523
# Poissons Ratio (y) = 0.18059 0.11006
# Poissons Ratio (z) = 0.39101 0.12339
#
# Static dielectric constant tensor:
#      x y z
#    x 1.637670 0.000000 0.000000 
#    y 0.000000 1.592040 0.000000 
#    z 0.000000 0.000000 1.673400 
# 
# From -- ./inp_files/24647.got.cif
#   From: 2010.05.17/outbox.cif.g08.bks.cpg/sg69_13_cif.got.tgz:24647.got - 2010.06.03 19:29:58.
