data_PCOD9513912
_publ_section_title
;
Structure prediction by ZEFSAII (Michael W. Deem and Ramdas Pophale) SiO2 
 PCOD9513912
Probable space group: F M M M
;
_chemical_formula_sum "Si O2"
_cell_formula_units_Z 120
_cell_length_a 13.495050
_cell_length_b 21.613037
_cell_length_c 14.628406
_cell_angle_alpha 90.000000
_cell_angle_beta 90.000000
_cell_angle_gamma 90.000000
_cell_volume 4266.652769
_symmetry_space_group_name_H-M "F M M M"
_symmetry_group_IT_number 69
_symmetry_cell_setting 'orthorhombic'
loop_
_space_group_symop_operation_xyz
x,y,z
-x,-y,z
x,-y,-z
-x,y,-z
-x,-y,-z
x,y,-z
-x,y,z
x,-y,z
x,1/2+y,1/2+z
-x,1/2-y,1/2+z
x,1/2-y,1/2-z
-x,1/2+y,1/2-z
-x,1/2-y,1/2-z
x,1/2+y,1/2-z
-x,1/2+y,1/2+z
x,1/2-y,1/2+z
1/2+x,y,1/2+z
1/2-x,-y,1/2+z
1/2+x,-y,1/2-z
1/2-x,y,1/2-z
1/2-x,-y,1/2-z
1/2+x,y,1/2-z
1/2-x,y,1/2+z
1/2+x,-y,1/2+z
1/2+x,1/2+y,z
1/2-x,1/2-y,z
1/2+x,1/2-y,-z
1/2-x,1/2+y,-z
1/2-x,1/2-y,-z
1/2+x,1/2+y,-z
1/2-x,1/2+y,z
1/2+x,1/2-y,z
loop_
_atom_site_type_symbol
_atom_site_label
_atom_site_fract_x
_atom_site_fract_y
_atom_site_fract_z
Si Si1 0.750000 0.750000 0.250000
Si Si2 0.879384 0.926905 0.000000
Si Si3 0.880724 0.073851 0.203652
Si Si4 0.117555 0.121052 0.399827
Si Si5 0.885477 0.271154 0.600417
O O1 0.821093 0.710487 0.313968
O O2 0.849615 0.903518 0.101484
O O3 0.000000 0.921587 0.000000
O O4 0.856251 0.000000 0.000000
O O5 0.843071 0.095633 0.303586
O O6 0.000000 0.085766 0.206302
O O7 0.866766 0.000000 0.202489
O O8 0.157430 0.100372 0.500000
O O9 0.121621 0.195966 0.398186
O O10 0.000000 0.105190 0.401601
O O11 0.851720 0.290608 0.500000
O O12 0.000000 0.286585 0.611226
#
# Coordination Sequence:
#
# PCOD9513912 Si02
#       5
#     8  16  32  32  32
#     4  12  20  32  60  84  98 132 176 220 256 312
#     4   7  10  16  26  44  74 115 158 196 237 282
#     4   8  12  18  32  55  85 123 165 204 242 289
#     4   8  14  25  40  60  92 130 163 201 251 300
#     4   9  19  35  54  78 108 139 170 210 264 319
#
# _framework density 28.125091999999999
#
# number of rings (size 3 to 8) (size 9 to 14) (size 15 to 20)
#    0.000    3.600    0.000    4.000    0.000    0.533 
#    0.000    2.667    5.867    0.000    0.000    0.933 
#    0.000    0.000    0.000    0.000    0.000    0.267 
#
# Total GULP energy -168036.270035 kJ/mol
# GULP energy per Si atom -5601.209001 kJ/mol
# Density = 2.806108 g / cm^3
# Si number density = 28.125092 Si / 1000 Ang^3
#
#
#
# Elastic Constant Matrix: (Units=GPa)
#
#
# Indices 1 2 3 4 5 6 
#
# 1 108.2795 -11.9737 99.5524 0.0000 0.0000 0.0000
# 2 -11.9737 95.8908 103.3549 0.0000 0.0000 0.0000
# 3 99.5524 103.3549 423.2597 0.0000 0.0000 0.0000
# 4 0.0000 0.0000 0.0000 62.9766 0.0000 0.0000
# 5 0.0000 0.0000 0.0000 0.0000 72.2348 0.0000
# 6 0.0000 0.0000 0.0000 0.0000 0.0000 6.6759
#
#
#
# Elastic Compliance Matrix: (Units=1/GPa)
#
#
# Indices 1 2 3 4 5 6 
#
# 1 0.015099 0.007754 -0.005445 0.000000 0.000000 0.000000
# 2 0.007754 0.018136 -0.006252 0.000000 0.000000 0.000000
# 3 -0.005445 -0.006252 0.005170 0.000000 0.000000 0.000000
# 4 0.000000 0.000000 0.000000 0.015879 0.000000 0.000000
# 5 0.000000 0.000000 0.000000 0.000000 0.013844 0.000000
# 6 0.000000 0.000000 0.000000 0.000000 0.000000 0.149793
#
#
# Mechanical properties :
#
#
# Convention : Reuss Voigt Hill
#
# Bulk Modulus (GPa) = 32.76760 112.14411 72.45586
# Shear Modulus (GPa) = 21.18835 57.47722 39.33279
#
# Velocity S-wave (km/s) = 2.74772 4.52555 3.74370
# Velocity P-wave (km/s) = 4.66289 8.20167 6.67121
#
# Compressibility (1/GPa) = 0.03051795
#
# Stress axis : x y z
#
# Youngs Moduli (GPa) = 66.23144 55.14018 193.42651
#
# Poissons Ratio (x) = -0.42754 1.05313
# Poissons Ratio (y) = -0.51354 1.20934
# Poissons Ratio (z) = 0.36060 0.34475
#
# Static dielectric constant tensor:
#      x y z
#    x 2.194590 0.000000 0.000000 
#    y 0.000000 2.180190 0.000000 
#    z 0.000000 0.000000 2.147790 
# 
# From -- ./inp_files/14436.got.cif
#   From: 2010.05.17/outbox.cif.g08.bks.cpg/sg69_8_cif.got.tgz:14436.got - 2010.06.03 19:29:58.
