data_PCOD9513070
_publ_section_title
;
Structure prediction by ZEFSAII (Michael W. Deem and Ramdas Pophale) SiO2 
 PCOD9513070
Probable space group: F M M M
;
_chemical_formula_sum "Si O2"
_cell_formula_units_Z 136
_cell_length_a 19.724297
_cell_length_b 18.145026
_cell_length_c 19.621327
_cell_angle_alpha 90.000000
_cell_angle_beta 90.000000
_cell_angle_gamma 90.000000
_cell_volume 7022.431373
_symmetry_space_group_name_H-M "F M M M"
_symmetry_group_IT_number 69
_symmetry_cell_setting 'orthorhombic'
loop_
_space_group_symop_operation_xyz
x,y,z
-x,-y,z
x,-y,-z
-x,y,-z
-x,-y,-z
x,y,-z
-x,y,z
x,-y,z
x,1/2+y,1/2+z
-x,1/2-y,1/2+z
x,1/2-y,1/2-z
-x,1/2+y,1/2-z
-x,1/2-y,1/2-z
x,1/2+y,1/2-z
-x,1/2+y,1/2+z
x,1/2-y,1/2+z
1/2+x,y,1/2+z
1/2-x,-y,1/2+z
1/2+x,-y,1/2-z
1/2-x,y,1/2-z
1/2-x,-y,1/2-z
1/2+x,y,1/2-z
1/2-x,y,1/2+z
1/2+x,-y,1/2+z
1/2+x,1/2+y,z
1/2-x,1/2-y,z
1/2+x,1/2-y,-z
1/2-x,1/2+y,-z
1/2-x,1/2-y,-z
1/2+x,1/2+y,-z
1/2-x,1/2+y,z
1/2+x,1/2-y,z
loop_
_atom_site_type_symbol
_atom_site_label
_atom_site_fract_x
_atom_site_fract_y
_atom_site_fract_z
Si Si1 0.500000 0.418383 0.920222
Si Si2 0.000000 0.583694 0.082432
Si Si3 0.236639 0.415584 0.669464
Si Si4 0.889999 0.686790 0.359389
Si Si5 0.000000 0.250000 0.750000
Si Si6 0.642582 0.843345 0.918456
O O1 0.500000 0.500000 0.887225
O O2 0.564809 0.370101 0.901593
O O3 0.500000 0.427422 0.000000
O O4 0.931015 0.623829 0.102934
O O5 0.000000 0.500000 0.107360
O O6 0.000000 0.582792 0.000000
O O7 0.222690 0.500000 0.646423
O O8 0.250000 0.418834 0.750000
O O9 0.174373 0.359942 0.663350
O O10 0.299247 0.382960 0.625507
O O11 0.939930 0.715785 0.300281
O O12 0.863325 0.757079 0.401677
O O13 0.651874 0.855112 0.000000
#
# Coordination Sequence:
#
# PCOD9513070 Si02
#       6
#    16  16  32  32   8  32
#     4  10  21  37  58  86 120 157 198 248 308 374
#     4   9  18  35  59  88 124 163 205 259 317 370
#     4  11  25  43  62  88 124 164 207 259 320 387
#     4  11  22  39  62  90 122 160 207 258 315 379
#     4  10  22  38  64  92 120 162 210 258 314 384
#     4  11  23  39  63  95 128 166 215 269 325 388
#
# _framework density 19.366510999999999
#
# number of rings (size 3 to 8) (size 9 to 14) (size 15 to 20)
#    0.000    1.412    0.000    5.647    0.000    6.118 
#    0.000    0.000    0.000    8.471    0.000    0.000 
#    0.000    0.000    0.000    0.000    0.000    0.000 
#
# Total GULP energy -189293.756118 kJ/mol
# GULP energy per Si atom -5567.463415 kJ/mol
# Density = 1.932243 g / cm^3
# Si number density = 19.366511 Si / 1000 Ang^3
#
#
#
# Elastic Constant Matrix: (Units=GPa)
#
#
# Indices 1 2 3 4 5 6 
#
# 1 142.7773 49.4591 64.1872 0.0000 0.0000 0.0000
# 2 49.4591 138.3129 55.2196 0.0000 0.0000 0.0000
# 3 64.1872 55.2196 87.9347 0.0000 0.0000 0.0000
# 4 0.0000 0.0000 0.0000 150.4544 0.0000 0.0000
# 5 0.0000 0.0000 0.0000 0.0000 6.8927 0.0000
# 6 0.0000 0.0000 0.0000 0.0000 0.0000 102.0257
#
#
#
# Elastic Compliance Matrix: (Units=1/GPa)
#
#
# Indices 1 2 3 4 5 6 
#
# 1 0.010513 -0.000928 -0.007091 0.000000 0.000000 0.000000
# 2 -0.000928 0.009731 -0.005433 0.000000 0.000000 0.000000
# 3 -0.007091 -0.005433 0.019960 0.000000 0.000000 0.000000
# 4 0.000000 0.000000 0.000000 0.006647 0.000000 0.000000
# 5 0.000000 0.000000 0.000000 0.000000 0.145081 0.000000
# 6 0.000000 0.000000 0.000000 0.000000 0.000000 0.009801
#
#
# Mechanical properties :
#
#
# Convention : Reuss Voigt Hill
#
# Bulk Modulus (GPa) = 75.19266 78.52855 76.86061
# Shear Modulus (GPa) = 21.45262 65.21850 43.33556
#
# Velocity S-wave (km/s) = 3.33185 5.80939 4.73552
# Velocity P-wave (km/s) = 7.32885 9.25394 8.34708
#
# Compressibility (1/GPa) = 0.01329917
#
# Stress axis : x y z
#
# Youngs Moduli (GPa) = 95.11625 102.76394 50.10033
#
# Poissons Ratio (x) = 0.09541 0.35527
# Poissons Ratio (y) = 0.08831 0.27220
# Poissons Ratio (z) = 0.67449 0.55832
#
# Static dielectric constant tensor:
#      x y z
#    x 1.552440 0.000000 0.000000 
#    y 0.000000 1.704020 0.000000 
#    z 0.000000 0.000000 1.667020 
# 
# From -- ./inp_files/30541.got.cif
#   From: 2010.05.17/outbox.cif.g08.bks.cpg/sg69_16_cif.got.tgz:30541.got - 2010.06.03 19:29:58.
