data_PCOD9513620
_publ_section_title
;
Structure prediction by ZEFSAII (Michael W. Deem and Ramdas Pophale) SiO2 
 PCOD9513620
Probable space group: F M M M
;
_chemical_formula_sum "Si O2"
_cell_formula_units_Z 144
_cell_length_a 27.765829
_cell_length_b 14.034542
_cell_length_c 19.066185
_cell_angle_alpha 90.000000
_cell_angle_beta 90.000000
_cell_angle_gamma 90.000000
_cell_volume 7429.724189
_symmetry_space_group_name_H-M "F M M M"
_symmetry_group_IT_number 69
_symmetry_cell_setting 'orthorhombic'
loop_
_space_group_symop_operation_xyz
x,y,z
-x,-y,z
x,-y,-z
-x,y,-z
-x,-y,-z
x,y,-z
-x,y,z
x,-y,z
x,1/2+y,1/2+z
-x,1/2-y,1/2+z
x,1/2-y,1/2-z
-x,1/2+y,1/2-z
-x,1/2-y,1/2-z
x,1/2+y,1/2-z
-x,1/2+y,1/2+z
x,1/2-y,1/2+z
1/2+x,y,1/2+z
1/2-x,-y,1/2+z
1/2+x,-y,1/2-z
1/2-x,y,1/2-z
1/2-x,-y,1/2-z
1/2+x,y,1/2-z
1/2-x,y,1/2+z
1/2+x,-y,1/2+z
1/2+x,1/2+y,z
1/2-x,1/2-y,z
1/2+x,1/2-y,-z
1/2-x,1/2+y,-z
1/2-x,1/2-y,-z
1/2+x,1/2+y,-z
1/2-x,1/2+y,z
1/2+x,1/2-y,z
loop_
_atom_site_type_symbol
_atom_site_label
_atom_site_fract_x
_atom_site_fract_y
_atom_site_fract_z
Si Si1 0.057490 0.610925 0.500000
Si Si2 0.725996 0.354948 0.318053
Si Si3 0.696259 0.893649 0.417837
Si Si4 0.604571 0.803877 0.360106
Si Si5 0.387348 0.111147 0.206841
O O1 0.072211 0.500000 0.500000
O O2 0.077304 0.657819 0.571484
O O3 0.000000 0.616297 0.500000
O O4 0.750000 0.401210 0.250000
O O5 0.750000 0.250000 0.318336
O O6 0.749593 0.393905 0.388755
O O7 0.669785 0.369924 0.305649
O O8 0.695670 0.874561 0.500000
O O9 0.660958 0.819649 0.379782
O O10 0.676170 0.000000 0.404710
O O11 0.598959 0.862426 0.287258
O O12 0.590970 0.694751 0.342067
O O13 0.397917 0.000000 0.192724
#
# Coordination Sequence:
#
# PCOD9513620 Si02
#       5
#    16  32  32  32  32
#     4  11  24  44  73 102 121 143 185 249 321 377
#     4  11  19  33  50  79 117 160 212 257 289 333
#     4  11  21  32  51  78 112 157 204 255 305 341
#     4  11  21  39  62  90 121 153 201 258 306 364
#     4  11  22  37  59  86 124 171 210 248 297 357
#
# _framework density 19.381608
#
# number of rings (size 3 to 8) (size 9 to 14) (size 15 to 20)
#    0.000    1.000    5.556    4.000    0.000    1.333 
#    2.000    2.778    0.000    2.667    0.000    0.000 
#    0.000    0.000    0.000    0.000    0.000    0.000 
#
# Total GULP energy -200621.881642 kJ/mol
# GULP energy per Si atom -5572.830046 kJ/mol
# Density = 1.933749 g / cm^3
# Si number density = 19.381608 Si / 1000 Ang^3
#
#
#
# Elastic Constant Matrix: (Units=GPa)
#
#
# Indices 1 2 3 4 5 6 
#
# 1 44.3533 19.8019 25.1628 0.0000 0.0000 0.0000
# 2 19.8019 172.0444 80.8166 0.0000 0.0000 0.0000
# 3 25.1628 80.8166 124.5937 0.0000 0.0000 0.0000
# 4 0.0000 0.0000 0.0000 58.7669 0.0000 0.0000
# 5 0.0000 0.0000 0.0000 0.0000 11.6251 0.0000
# 6 0.0000 0.0000 0.0000 0.0000 0.0000 10.4128
#
#
#
# Elastic Compliance Matrix: (Units=1/GPa)
#
#
# Indices 1 2 3 4 5 6 
#
# 1 0.025530 -0.000743 -0.004674 0.000000 0.000000 0.000000
# 2 -0.000743 0.008381 -0.005286 0.000000 0.000000 0.000000
# 3 -0.004674 -0.005286 0.012399 0.000000 0.000000 0.000000
# 4 0.000000 0.000000 0.000000 0.017016 0.000000 0.000000
# 5 0.000000 0.000000 0.000000 0.000000 0.086021 0.000000
# 6 0.000000 0.000000 0.000000 0.000000 0.000000 0.096036
#
#
# Mechanical properties :
#
#
# Convention : Reuss Voigt Hill
#
# Bulk Modulus (GPa) = 40.15535 65.83935 52.99735
# Shear Modulus (GPa) = 18.17586 30.50829 24.34208
#
# Velocity S-wave (km/s) = 3.06566 3.97178 3.54776
# Velocity P-wave (km/s) = 5.77012 7.42140 6.64723
#
# Compressibility (1/GPa) = 0.02490328
#
# Stress axis : x y z
#
# Youngs Moduli (GPa) = 39.17017 119.31498 80.65140
#
# Poissons Ratio (x) = 0.08862 0.37698
# Poissons Ratio (y) = 0.02909 0.42635
# Poissons Ratio (z) = 0.18309 0.63074
#
# Static dielectric constant tensor:
#      x y z
#    x 1.680420 0.000000 0.000000 
#    y 0.000000 1.804320 0.000000 
#    z 0.000000 0.000000 1.690730 
# 
# From -- ./inp_files/21750.got.cif
#   From: 2010.05.17/outbox.cif.g08.bks.cpg/sg69_11_cif.got.tgz:21750.got - 2010.06.03 19:29:58.
