data_PCOD9513721
_publ_section_title
;
Structure prediction by ZEFSAII (Michael W. Deem and Ramdas Pophale) SiO2 
 PCOD9513721
Probable space group: F M M M
;
_chemical_formula_sum "Si O2"
_cell_formula_units_Z 144
_cell_length_a 18.389650
_cell_length_b 20.074576
_cell_length_c 21.139645
_cell_angle_alpha 90.000000
_cell_angle_beta 90.000000
_cell_angle_gamma 90.000000
_cell_volume 7804.004924
_symmetry_space_group_name_H-M "F M M M"
_symmetry_group_IT_number 69
_symmetry_cell_setting 'orthorhombic'
loop_
_space_group_symop_operation_xyz
x,y,z
-x,-y,z
x,-y,-z
-x,y,-z
-x,-y,-z
x,y,-z
-x,y,z
x,-y,z
x,1/2+y,1/2+z
-x,1/2-y,1/2+z
x,1/2-y,1/2-z
-x,1/2+y,1/2-z
-x,1/2-y,1/2-z
x,1/2+y,1/2-z
-x,1/2+y,1/2+z
x,1/2-y,1/2+z
1/2+x,y,1/2+z
1/2-x,-y,1/2+z
1/2+x,-y,1/2-z
1/2-x,y,1/2-z
1/2-x,-y,1/2-z
1/2+x,y,1/2-z
1/2-x,y,1/2+z
1/2+x,-y,1/2+z
1/2+x,1/2+y,z
1/2-x,1/2-y,z
1/2+x,1/2-y,-z
1/2-x,1/2+y,-z
1/2-x,1/2-y,-z
1/2+x,1/2+y,-z
1/2-x,1/2+y,z
1/2+x,1/2-y,z
loop_
_atom_site_type_symbol
_atom_site_label
_atom_site_fract_x
_atom_site_fract_y
_atom_site_fract_z
Si Si1 0.833448 0.079948 0.626939
Si Si2 0.412574 0.129331 0.000000
Si Si3 0.161914 0.826039 0.746746
Si Si4 0.834273 0.771370 0.000000
Si Si5 0.085777 0.500000 0.430288
Si Si6 0.334277 0.626785 0.115031
O O1 0.879758 0.095706 0.563744
O O2 0.857268 0.126957 0.686722
O O3 0.750053 0.102812 0.613612
O O4 0.835486 0.000000 0.640748
O O5 0.384001 0.205768 0.000000
O O6 0.500000 0.125860 0.000000
O O7 0.134844 0.750000 0.750000
O O8 0.250000 0.823349 0.750000
O O9 0.143030 0.854325 0.814669
O O10 0.750000 0.750000 0.000000
O O11 0.845023 0.815577 0.936984
O O12 0.118021 0.500000 0.500000
O O13 0.115359 0.565578 0.400010
O O14 0.000000 0.500000 0.432210
#
# Coordination Sequence:
#
# PCOD9513721 Si02
#       6
#    32  16  32  16  16  32
#     4  11  22  38  65  95 125 168 217 261 317 384
#     4  12  27  43  63  94 134 167 210 271 327 379
#     4   9  20  35  59  94 131 160 206 267 314 366
#     4  12  22  37  67  96 122 166 215 261 308 378
#     4  11  24  40  57  88 124 153 196 263 321 367
#     4  11  21  37  66  93 122 162 213 259 314 373
#
# _framework density 18.452064
#
# number of rings (size 3 to 8) (size 9 to 14) (size 15 to 20)
#    0.000    1.222    4.444    1.667    4.667    3.111 
#    0.000    1.111    0.000    2.667    0.000    0.000 
#    0.000    0.000    0.000    0.000    0.000    0.000 
#
# Total GULP energy -200763.656946 kJ/mol
# GULP energy per Si atom -5576.768248 kJ/mol
# Density = 1.841007 g / cm^3
# Si number density = 18.452064 Si / 1000 Ang^3
#
#
#
# Elastic Constant Matrix: (Units=GPa)
#
#
# Indices 1 2 3 4 5 6 
#
# 1 50.6515 28.0406 32.3193 0.0000 0.0000 0.0000
# 2 28.0406 161.9955 92.6106 0.0000 0.0000 0.0000
# 3 32.3193 92.6106 179.7696 0.0000 0.0000 0.0000
# 4 0.0000 0.0000 0.0000 43.4829 0.0000 0.0000
# 5 0.0000 0.0000 0.0000 0.0000 5.3251 0.0000
# 6 0.0000 0.0000 0.0000 0.0000 0.0000 10.5178
#
#
#
# Elastic Compliance Matrix: (Units=1/GPa)
#
#
# Indices 1 2 3 4 5 6 
#
# 1 0.022880 -0.002280 -0.002939 0.000000 0.000000 0.000000
# 2 -0.002280 0.008977 -0.004215 0.000000 0.000000 0.000000
# 3 -0.002939 -0.004215 0.008262 0.000000 0.000000 0.000000
# 4 0.000000 0.000000 0.000000 0.022998 0.000000 0.000000
# 5 0.000000 0.000000 0.000000 0.000000 0.187791 0.000000
# 6 0.000000 0.000000 0.000000 0.000000 0.000000 0.095077
#
#
# Mechanical properties :
#
#
# Convention : Reuss Voigt Hill
#
# Bulk Modulus (GPa) = 47.05427 77.59530 62.32479
# Shear Modulus (GPa) = 13.44310 27.82822 20.63566
#
# Velocity S-wave (km/s) = 2.70208 3.88769 3.34779
# Velocity P-wave (km/s) = 5.94064 7.89277 6.98523
#
# Compressibility (1/GPa) = 0.02125206
#
# Stress axis : x y z
#
# Youngs Moduli (GPa) = 43.70576 111.39238 121.03194
#
# Poissons Ratio (x) = 0.25403 0.35567
# Poissons Ratio (y) = 0.09967 0.51012
# Poissons Ratio (z) = 0.12844 0.46949
#
# Static dielectric constant tensor:
#      x y z
#    x 1.605290 0.000000 0.000000 
#    y 0.000000 1.624410 0.000000 
#    z 0.000000 0.000000 1.607590 
# 
# From -- ./inp_files/31710.got.cif
#   From: 2010.05.17/outbox.cif.g08.bks.cpg/sg69_16_cif.got.tgz:31710.got - 2010.06.03 19:29:58.
