data_PCOD9513789
_publ_section_title
;
Structure prediction by ZEFSAII (Michael W. Deem and Ramdas Pophale) SiO2 
 PCOD9513789
Probable space group: F M M M
;
_chemical_formula_sum "Si O2"
_cell_formula_units_Z 200
_cell_length_a 20.764046
_cell_length_b 20.764038
_cell_length_c 24.628388
_cell_angle_alpha 90.000000
_cell_angle_beta 90.000000
_cell_angle_gamma 90.000000
_cell_volume 10618.417185
_symmetry_space_group_name_H-M "F M M M"
_symmetry_group_IT_number 69
_symmetry_cell_setting 'orthorhombic'
loop_
_space_group_symop_operation_xyz
x,y,z
-x,-y,z
x,-y,-z
-x,y,-z
-x,-y,-z
x,y,-z
-x,y,z
x,-y,z
x,1/2+y,1/2+z
-x,1/2-y,1/2+z
x,1/2-y,1/2-z
-x,1/2+y,1/2-z
-x,1/2-y,1/2-z
x,1/2+y,1/2-z
-x,1/2+y,1/2+z
x,1/2-y,1/2+z
1/2+x,y,1/2+z
1/2-x,-y,1/2+z
1/2+x,-y,1/2-z
1/2-x,y,1/2-z
1/2-x,-y,1/2-z
1/2+x,y,1/2-z
1/2-x,y,1/2+z
1/2+x,-y,1/2+z
1/2+x,1/2+y,z
1/2-x,1/2-y,z
1/2+x,1/2-y,-z
1/2-x,1/2+y,-z
1/2-x,1/2-y,-z
1/2+x,1/2+y,-z
1/2-x,1/2+y,z
1/2+x,1/2-y,z
loop_
_atom_site_type_symbol
_atom_site_label
_atom_site_fract_x
_atom_site_fract_y
_atom_site_fract_z
Si Si1 0.072382 0.731274 0.562039
Si Si2 0.319845 0.819845 0.775463
Si Si3 0.268726 0.427618 0.062039
Si Si4 0.000000 0.500000 0.570394
Si Si5 0.695833 0.804167 0.095808
Si Si6 0.574730 0.574729 0.758789
Si Si7 0.098348 0.098347 0.114748
O O1 0.077697 0.707014 0.500000
O O2 0.128061 0.782152 0.571992
O O3 0.084462 0.672566 0.602909
O O4 0.000000 0.756322 0.569597
O O5 0.337770 0.750000 0.750000
O O6 0.250000 0.837770 0.750000
O O7 0.310246 0.810246 0.839414
O O8 0.373815 0.873815 0.763582
O O9 0.243678 0.500000 0.069597
O O10 0.217848 0.371939 0.071992
O O11 0.327434 0.415538 0.102909
O O12 0.292986 0.422303 0.000000
O O13 0.055672 0.555672 0.574623
O O14 0.750000 0.750000 0.083194
O O15 0.500000 0.588676 0.743703
O O16 0.588676 0.500000 0.743703
O O17 0.579179 0.579179 0.824408
#
# Coordination Sequence:
#
# PCOD9513789 Si02
#       7
#    32  32  32   8  32  32  32
#     4  11  24  39  59  90 122 157 202 245 291 352
#     4  11  23  40  59  88 118 151 197 250 299 345
#     4  11  24  39  59  90 122 157 202 245 291 352
#     4  12  20  32  57  84 132 168 188 220 305 368
#     4  12  23  41  66  85 119 159 200 251 299 350
#     4  11  22  39  62  87 119 157 199 239 289 357
#     4  12  19  36  55  88 125 162 194 230 288 355
#
# _framework density 18.835198999999999
#
# number of rings (size 3 to 8) (size 9 to 14) (size 15 to 20)
#    0.000    0.640    6.400    2.880    0.000    2.560 
#    0.000    1.600    0.000    0.480    0.000    2.240 
#    0.000    0.000    0.000    0.000    0.000    0.000 
#
# Total GULP energy -278914.266963 kJ/mol
# GULP energy per Si atom -5578.285339 kJ/mol
# Density = 1.879233 g / cm^3
# Si number density = 18.835199 Si / 1000 Ang^3
#
#
#
# Elastic Constant Matrix: (Units=GPa)
#
#
# Indices 1 2 3 4 5 6 
#
# 1 123.5917 98.1303 2.3476 0.0000 0.0000 0.0000
# 2 98.1303 123.5926 2.3477 0.0000 0.0000 0.0000
# 3 2.3476 2.3477 29.5604 0.0000 0.0000 0.0000
# 4 0.0000 0.0000 0.0000 8.7613 0.0000 0.0000
# 5 0.0000 0.0000 0.0000 0.0000 8.7618 0.0000
# 6 0.0000 0.0000 0.0000 0.0000 0.0000 44.0713
#
#
#
# Elastic Compliance Matrix: (Units=1/GPa)
#
#
# Indices 1 2 3 4 5 6 
#
# 1 0.021896 -0.017378 -0.000359 0.000000 0.000000 0.000000
# 2 -0.017378 0.021896 -0.000359 0.000000 0.000000 0.000000
# 3 -0.000359 -0.000359 0.033886 0.000000 0.000000 0.000000
# 4 0.000000 0.000000 0.000000 0.114138 0.000000 0.000000
# 5 0.000000 0.000000 0.000000 0.000000 0.114131 0.000000
# 6 0.000000 0.000000 0.000000 0.000000 0.000000 0.022691
#
#
# Mechanical properties :
#
#
# Convention : Reuss Voigt Hill
#
# Bulk Modulus (GPa) = 24.10431 53.59955 38.85193
# Shear Modulus (GPa) = 13.20449 23.91348 18.55898
#
# Velocity S-wave (km/s) = 2.65061 3.56703 3.14241
# Velocity P-wave (km/s) = 4.71094 6.74417 5.81708
#
# Compressibility (1/GPa) = 0.04148636
#
# Stress axis : x y z
#
# Youngs Moduli (GPa) = 45.67000 45.67032 29.51066
#
# Poissons Ratio (x) = 0.79368 0.01059
# Poissons Ratio (y) = 0.79367 0.01059
# Poissons Ratio (z) = 0.01638 0.01639
#
# Static dielectric constant tensor:
#      x y z
#    x 1.656970 0.000000 0.000000 
#    y 0.000000 1.656980 0.000000 
#    z 0.000000 0.000000 1.678430 
# 
# From -- ./inp_files/42009.got.cif
#   From: 2010.05.17/outbox.cif.g08.bks.cpg/sg69_22_cif.got.tgz:42009.got - 2010.06.03 19:29:58.
