data_PCOD9513767
_publ_section_title
;
Structure prediction by ZEFSAII (Michael W. Deem and Ramdas Pophale) SiO2 
 PCOD9513767
Probable space group: F M M M
;
_chemical_formula_sum "Si O2"
_cell_formula_units_Z 176
_cell_length_a 24.568196
_cell_length_b 15.173224
_cell_length_c 23.207549
_cell_angle_alpha 90.000000
_cell_angle_beta 90.000000
_cell_angle_gamma 90.000000
_cell_volume 8651.280902
_symmetry_space_group_name_H-M "F M M M"
_symmetry_group_IT_number 69
_symmetry_cell_setting 'orthorhombic'
loop_
_space_group_symop_operation_xyz
x,y,z
-x,-y,z
x,-y,-z
-x,y,-z
-x,-y,-z
x,y,-z
-x,y,z
x,-y,z
x,1/2+y,1/2+z
-x,1/2-y,1/2+z
x,1/2-y,1/2-z
-x,1/2+y,1/2-z
-x,1/2-y,1/2-z
x,1/2+y,1/2-z
-x,1/2+y,1/2+z
x,1/2-y,1/2+z
1/2+x,y,1/2+z
1/2-x,-y,1/2+z
1/2+x,-y,1/2-z
1/2-x,y,1/2-z
1/2-x,-y,1/2-z
1/2+x,y,1/2-z
1/2-x,y,1/2+z
1/2+x,-y,1/2+z
1/2+x,1/2+y,z
1/2-x,1/2-y,z
1/2+x,1/2-y,-z
1/2-x,1/2+y,-z
1/2-x,1/2-y,-z
1/2+x,1/2+y,-z
1/2-x,1/2+y,z
1/2+x,1/2-y,z
loop_
_atom_site_type_symbol
_atom_site_label
_atom_site_fract_x
_atom_site_fract_y
_atom_site_fract_z
Si Si1 0.090170 0.350176 0.232495
Si Si2 0.250000 0.750000 0.391888
Si Si3 0.370224 0.234487 0.434886
Si Si4 0.788934 0.101046 0.694951
Si Si5 0.936855 0.400845 0.641632
Si Si6 0.938819 0.897555 0.394631
O O1 0.077663 0.250000 0.250000
O O2 0.153515 0.361143 0.216374
O O3 0.075403 0.401773 0.290232
O O4 0.061195 0.381006 0.174313
O O5 0.305356 0.765304 0.426804
O O6 0.237074 0.834425 0.351845
O O7 0.384463 0.209415 0.500000
O O8 0.397793 0.168035 0.389659
O O9 0.395418 0.330556 0.421224
O O10 0.750000 0.099375 0.750000
O O11 0.796447 0.000000 0.674451
O O12 0.928964 0.500000 0.619111
O O13 0.000000 0.375216 0.633386
O O14 0.000000 0.879307 0.416415
O O15 0.925987 0.000000 0.405315
#
# Coordination Sequence:
#
# PCOD9513767 Si02
#       6
#    32  16  32  32  32  32
#     4  12  21  37  65 103 139 171 210 262 330 407
#     4  12  24  44  66  92 128 173 227 276 332 386
#     4  12  27  46  68  93 127 176 235 286 330 381
#     4  11  22  36  61  96 136 176 213 261 325 398
#     4  11  24  42  67 100 137 175 216 266 329 401
#     4  11  24  43  69 101 135 171 215 271 337 405
#
# _framework density 20.343809
#
# number of rings (size 3 to 8) (size 9 to 14) (size 15 to 20)
#    0.000    0.545    3.636    5.455    0.000    6.545 
#    0.000    1.818    0.000    3.273    0.000    0.000 
#    0.000    0.000    0.000    0.000    0.000    0.000 
#
# Total GULP energy -246149.549910 kJ/mol
# GULP energy per Si atom -5594.307953 kJ/mol
# Density = 2.029751 g / cm^3
# Si number density = 20.343809 Si / 1000 Ang^3
#
#
#
# Elastic Constant Matrix: (Units=GPa)
#
#
# Indices 1 2 3 4 5 6 
#
# 1 126.5422 23.9742 6.2482 0.0000 0.0000 0.0000
# 2 23.9742 93.9094 1.0578 0.0000 0.0000 0.0000
# 3 6.2482 1.0578 59.0889 0.0000 0.0000 0.0000
# 4 0.0000 0.0000 0.0000 -8.9821 0.0000 0.0000
# 5 0.0000 0.0000 0.0000 0.0000 -2.8180 0.0000
# 6 0.0000 0.0000 0.0000 0.0000 0.0000 64.5814
#
#
#
# Elastic Compliance Matrix: (Units=1/GPa)
#
#
# Indices 1 2 3 4 5 6 
#
# 1 0.008346 -0.002121 -0.000845 0.000000 0.000000 0.000000
# 2 -0.002121 0.011190 0.000024 0.000000 0.000000 0.000000
# 3 -0.000845 0.000024 0.017013 0.000000 0.000000 0.000000
# 4 0.000000 0.000000 0.000000 -0.111332 0.000000 0.000000
# 5 0.000000 0.000000 0.000000 0.000000 -0.354859 0.000000
# 6 0.000000 0.000000 0.000000 0.000000 0.000000 0.015484
#
#
# Mechanical properties :
#
#
# Convention : Reuss Voigt Hill
#
# Bulk Modulus (GPa) = 32.61054 38.01120 35.31087
# Shear Modulus (GPa) = -12.56113 27.10693 7.27290
#
# Velocity S-wave (km/s) = -2.48753 3.65422 1.89282
# Velocity P-wave (km/s) = 2.79537 6.04396 4.70869
#
# Compressibility (1/GPa) = 0.03066493
#
# Stress axis : x y z
#
# Youngs Moduli (GPa) = 119.81692 89.36705 58.78019
#
# Poissons Ratio (x) = 0.18956 0.04964
# Poissons Ratio (y) = 0.25415 -0.00141
# Poissons Ratio (z) = 0.10119 -0.00214
#
# Static dielectric constant tensor:
#      x y z
#    x 1.717220 0.000000 0.000000 
#    y 0.000000 1.537350 0.000000 
#    z 0.000000 0.000000 1.697960 
# 
# From -- ./inp_files/37842.got.cif
#   From: 2010.05.17/outbox.cif.g08.bks.cpg/sg69_19_cif.got.tgz:37842.got - 2010.06.03 19:29:58.
