data_PCOD9513442
_publ_section_title
;
Structure prediction by ZEFSAII (Michael W. Deem and Ramdas Pophale) SiO2 
 PCOD9513442
Probable space group: F M M M
;
_chemical_formula_sum "Si O2"
_cell_formula_units_Z 160
_cell_length_a 33.706201
_cell_length_b 10.207267
_cell_length_c 26.766537
_cell_angle_alpha 90.000000
_cell_angle_beta 90.000000
_cell_angle_gamma 90.000000
_cell_volume 9208.978692
_symmetry_space_group_name_H-M "F M M M"
_symmetry_group_IT_number 69
_symmetry_cell_setting 'orthorhombic'
loop_
_space_group_symop_operation_xyz
x,y,z
-x,-y,z
x,-y,-z
-x,y,-z
-x,-y,-z
x,y,-z
-x,y,z
x,-y,z
x,1/2+y,1/2+z
-x,1/2-y,1/2+z
x,1/2-y,1/2-z
-x,1/2+y,1/2-z
-x,1/2-y,1/2-z
x,1/2+y,1/2-z
-x,1/2+y,1/2+z
x,1/2-y,1/2+z
1/2+x,y,1/2+z
1/2-x,-y,1/2+z
1/2+x,-y,1/2-z
1/2-x,y,1/2-z
1/2-x,-y,1/2-z
1/2+x,y,1/2-z
1/2-x,y,1/2+z
1/2+x,-y,1/2+z
1/2+x,1/2+y,z
1/2-x,1/2-y,z
1/2+x,1/2-y,-z
1/2-x,1/2+y,-z
1/2-x,1/2-y,-z
1/2+x,1/2+y,-z
1/2-x,1/2+y,z
1/2+x,1/2-y,z
loop_
_atom_site_type_symbol
_atom_site_label
_atom_site_fract_x
_atom_site_fract_y
_atom_site_fract_z
Si Si1 0.628536 0.156198 0.203019
Si Si2 0.407624 0.754484 0.099220
Si Si3 0.547188 0.000000 0.057328
Si Si4 0.173537 0.655781 0.943537
Si Si5 0.716359 0.151034 0.158336
Si Si6 0.047633 0.000000 0.060356
O O1 0.621299 0.250000 0.250000
O O2 0.604948 0.217307 0.156144
O O3 0.675194 0.162312 0.188394
O O4 0.619225 0.000000 0.209574
O O5 0.435436 0.873085 0.082990
O O6 0.366580 0.765667 0.068150
O O7 0.431177 0.624361 0.085418
O O8 0.500000 0.000000 0.058532
O O9 0.560706 0.000000 0.000000
O O10 0.163548 0.500000 0.939044
O O11 0.204589 0.681759 0.899351
O O12 0.187387 0.679976 0.000000
O O13 0.750000 0.250000 0.175730
O O14 0.729767 0.000000 0.161162
O O15 0.000000 0.000000 0.068431
O O16 0.053764 0.000000 0.000000
#
# Coordination Sequence:
#
# PCOD9513442 Si02
#       6
#    32  32  16  32  32  16
#     4  10  22  40  63  87 109 145 195 243 291 335
#     4  11  20  37  57  83 117 151 191 236 277 335
#     4  11  20  32  59  91 114 145 185 225 273 335
#     4   9  16  30  54  78 106 149 192 230 274 329
#     4   9  19  35  52  79 114 144 182 230 280 335
#     4  11  24  38  55  87 128 159 181 221 285 341
#
# _framework density 17.374347
#
# number of rings (size 3 to 8) (size 9 to 14) (size 15 to 20)
#    0.000    2.000    2.000    3.600    1.400    3.200 
#    5.400    2.000    0.000    3.600    0.000    0.000 
#    0.000    0.000    0.000    0.000    0.000    0.000 
#
# Total GULP energy -223155.753590 kJ/mol
# GULP energy per Si atom -5578.893840 kJ/mol
# Density = 1.733480 g / cm^3
# Si number density = 17.374347 Si / 1000 Ang^3
#
#
#
# Elastic Constant Matrix: (Units=GPa)
#
#
# Indices 1 2 3 4 5 6 
#
# 1 70.5204 64.3802 28.8263 0.0000 0.0000 0.0000
# 2 64.3802 147.8097 56.1486 0.0000 0.0000 0.0000
# 3 28.8263 56.1486 109.1088 0.0000 0.0000 0.0000
# 4 0.0000 0.0000 0.0000 37.3925 0.0000 0.0000
# 5 0.0000 0.0000 0.0000 0.0000 3.1557 0.0000
# 6 0.0000 0.0000 0.0000 0.0000 0.0000 41.1367
#
#
#
# Elastic Compliance Matrix: (Units=1/GPa)
#
#
# Indices 1 2 3 4 5 6 
#
# 1 0.023662 -0.009859 -0.001178 0.000000 0.000000 0.000000
# 2 -0.009859 0.012517 -0.003837 0.000000 0.000000 0.000000
# 3 -0.001178 -0.003837 0.011451 0.000000 0.000000 0.000000
# 4 0.000000 0.000000 0.000000 0.026743 0.000000 0.000000
# 5 0.000000 0.000000 0.000000 0.000000 0.316884 0.000000
# 6 0.000000 0.000000 0.000000 0.000000 0.000000 0.024309
#
#
# Mechanical properties :
#
#
# Convention : Reuss Voigt Hill
#
# Bulk Modulus (GPa) = 55.91933 69.57212 62.74572
# Shear Modulus (GPa) = 11.07971 28.20923 19.64447
#
# Velocity S-wave (km/s) = 2.52802 4.03378 3.36618
# Velocity P-wave (km/s) = 6.38561 7.86289 7.16244
#
# Compressibility (1/GPa) = 0.01788291
#
# Stress axis : x y z
#
# Youngs Moduli (GPa) = 42.26130 79.89088 87.32995
#
# Poissons Ratio (x) = 0.78764 0.10288
# Poissons Ratio (y) = 0.41665 0.33506
# Poissons Ratio (z) = 0.04978 0.30652
#
# Static dielectric constant tensor:
#      x y z
#    x 1.570700 0.000000 0.000000 
#    y 0.000000 1.567610 0.000000 
#    z 0.000000 0.000000 1.617380 
# 
# From -- ./inp_files/47512.got.cif
#   From: 2010.05.17/outbox.cif.g08.bks.cpg/sg69_24_cif.got.tgz:47512.got - 2010.06.03 19:29:58.
