data_PCOD9513346
_publ_section_title
;
Structure prediction by ZEFSAII (Michael W. Deem and Ramdas Pophale) SiO2 
 PCOD9513346
Probable space group: F M M M
;
_chemical_formula_sum "Si O2"
_cell_formula_units_Z 160
_cell_length_a 21.624880
_cell_length_b 26.422621
_cell_length_c 14.048729
_cell_angle_alpha 90.000000
_cell_angle_beta 90.000000
_cell_angle_gamma 90.000000
_cell_volume 8027.247187
_symmetry_space_group_name_H-M "F M M M"
_symmetry_group_IT_number 69
_symmetry_cell_setting 'orthorhombic'
loop_
_space_group_symop_operation_xyz
x,y,z
-x,-y,z
x,-y,-z
-x,y,-z
-x,-y,-z
x,y,-z
-x,y,z
x,-y,z
x,1/2+y,1/2+z
-x,1/2-y,1/2+z
x,1/2-y,1/2-z
-x,1/2+y,1/2-z
-x,1/2-y,1/2-z
x,1/2+y,1/2-z
-x,1/2+y,1/2+z
x,1/2-y,1/2+z
1/2+x,y,1/2+z
1/2-x,-y,1/2+z
1/2+x,-y,1/2-z
1/2-x,y,1/2-z
1/2-x,-y,1/2-z
1/2+x,y,1/2-z
1/2-x,y,1/2+z
1/2+x,-y,1/2+z
1/2+x,1/2+y,z
1/2-x,1/2-y,z
1/2+x,1/2-y,-z
1/2-x,1/2+y,-z
1/2-x,1/2-y,-z
1/2+x,1/2+y,-z
1/2-x,1/2+y,z
1/2+x,1/2-y,z
loop_
_atom_site_type_symbol
_atom_site_label
_atom_site_fract_x
_atom_site_fract_y
_atom_site_fract_z
Si Si1 0.265860 0.356869 0.890784
Si Si2 0.158482 0.441679 0.893032
Si Si3 0.155857 0.712299 0.113323
Si Si4 0.933370 0.800975 0.887404
Si Si5 0.118498 0.872179 0.753541
O O1 0.216362 0.402887 0.889582
O O2 0.226730 0.305526 0.870487
O O3 0.317547 0.368743 0.813571
O O4 0.289610 0.352871 0.000000
O O5 0.177231 0.500000 0.882336
O O6 0.115833 0.423714 0.805713
O O7 0.131509 0.435926 0.000000
O O8 0.125928 0.766203 0.138855
O O9 0.118214 0.670773 0.172080
O O10 0.146852 0.706541 0.000000
O O11 0.929736 0.853316 0.831012
O O12 0.000000 0.775788 0.866859
O O13 0.930393 0.809038 0.000000
#
# Coordination Sequence:
#
# PCOD9513346 Si02
#       5
#    32  32  32  32  32
#     4   9  18  31  48  76 110 139 170 208 253 302
#     4   9  18  33  53  78 108 135 159 198 253 310
#     4   9  18  32  49  71 102 136 169 208 251 296
#     4  10  22  38  53  71  98 133 173 215 256 298
#     4  11  19  30  52  77 103 135 173 211 250 301
#
# _framework density 19.932113999999999
#
# number of rings (size 3 to 8) (size 9 to 14) (size 15 to 20)
#    0.000    2.400    0.000    5.400    0.000    4.000 
#    0.000    7.000    0.000    4.200    0.000    4.200 
#    0.000    0.000    0.000    0.000    0.000    0.000 
#
# Total GULP energy -222840.618775 kJ/mol
# GULP energy per Si atom -5571.015469 kJ/mol
# Density = 1.988675 g / cm^3
# Si number density = 19.932114 Si / 1000 Ang^3
#
#
#
# Elastic Constant Matrix: (Units=GPa)
#
#
# Indices 1 2 3 4 5 6 
#
# 1 55.6875 28.1920 24.3463 0.0000 0.0000 0.0000
# 2 28.1920 105.5767 37.1762 0.0000 0.0000 0.0000
# 3 24.3463 37.1762 96.3095 0.0000 0.0000 0.0000
# 4 0.0000 0.0000 0.0000 33.8930 0.0000 0.0000
# 5 0.0000 0.0000 0.0000 0.0000 0.3850 0.0000
# 6 0.0000 0.0000 0.0000 0.0000 0.0000 7.9042
#
#
#
# Elastic Compliance Matrix: (Units=1/GPa)
#
#
# Indices 1 2 3 4 5 6 
#
# 1 0.021901 -0.004512 -0.003795 0.000000 0.000000 0.000000
# 2 -0.004512 0.011891 -0.003450 0.000000 0.000000 0.000000
# 3 -0.003795 -0.003450 0.012674 0.000000 0.000000 0.000000
# 4 0.000000 0.000000 0.000000 0.029505 0.000000 0.000000
# 5 0.000000 0.000000 0.000000 0.000000 2.597257 0.000000
# 6 0.000000 0.000000 0.000000 0.000000 0.000000 0.126515
#
#
# Mechanical properties :
#
#
# Convention : Reuss Voigt Hill
#
# Bulk Modulus (GPa) = 43.56614 48.55586 46.06100
# Shear Modulus (GPa) = 1.76622 19.62706 10.69664
#
# Velocity S-wave (km/s) = 0.94236 3.14139 2.31909
# Velocity P-wave (km/s) = 4.80508 6.12954 5.50727
#
# Compressibility (1/GPa) = 0.02295360
#
# Stress axis : x y z
#
# Youngs Moduli (GPa) = 45.66103 84.09536 78.90171
#
# Poissons Ratio (x) = 0.37943 0.29941
# Poissons Ratio (y) = 0.20602 0.27217
# Poissons Ratio (z) = 0.17327 0.29009
#
# Static dielectric constant tensor:
#      x y z
#    x 1.764170 0.000000 0.000000 
#    y 0.000000 1.706920 0.000000 
#    z 0.000000 0.000000 1.754430 
# 
# From -- ./inp_files/17684.got.cif
#   From: 2010.05.17/outbox.cif.g08.bks.cpg/sg69_9_cif.got.tgz:17684.got - 2010.06.03 19:29:58.
