data_PCOD9513437
_publ_section_title
;
Structure prediction by ZEFSAII (Michael W. Deem and Ramdas Pophale) SiO2 
 PCOD9513437
Probable space group: F M M M
;
_chemical_formula_sum "Si O2"
_cell_formula_units_Z 160
_cell_length_a 19.238566
_cell_length_b 22.355149
_cell_length_c 19.763084
_cell_angle_alpha 90.000000
_cell_angle_beta 90.000000
_cell_angle_gamma 90.000000
_cell_volume 8499.727117
_symmetry_space_group_name_H-M "F M M M"
_symmetry_group_IT_number 69
_symmetry_cell_setting 'orthorhombic'
loop_
_space_group_symop_operation_xyz
x,y,z
-x,-y,z
x,-y,-z
-x,y,-z
-x,-y,-z
x,y,-z
-x,y,z
x,-y,z
x,1/2+y,1/2+z
-x,1/2-y,1/2+z
x,1/2-y,1/2-z
-x,1/2+y,1/2-z
-x,1/2-y,1/2-z
x,1/2+y,1/2-z
-x,1/2+y,1/2+z
x,1/2-y,1/2+z
1/2+x,y,1/2+z
1/2-x,-y,1/2+z
1/2+x,-y,1/2-z
1/2-x,y,1/2-z
1/2-x,-y,1/2-z
1/2+x,y,1/2-z
1/2-x,y,1/2+z
1/2+x,-y,1/2+z
1/2+x,1/2+y,z
1/2-x,1/2-y,z
1/2+x,1/2-y,-z
1/2-x,1/2+y,-z
1/2-x,1/2-y,-z
1/2+x,1/2+y,-z
1/2-x,1/2+y,z
1/2+x,1/2-y,z
loop_
_atom_site_type_symbol
_atom_site_label
_atom_site_fract_x
_atom_site_fract_y
_atom_site_fract_z
Si Si1 0.717384 0.816012 0.573025
Si Si2 0.792751 0.500000 0.919856
Si Si3 0.078540 0.319425 0.761372
Si Si4 0.206686 0.107110 0.318193
Si Si5 0.374839 0.500000 0.922522
Si Si6 0.922756 0.632329 0.389897
O O1 0.740028 0.842913 0.500000
O O2 0.750000 0.750000 0.575336
O O3 0.743281 0.850370 0.638569
O O4 0.634566 0.825201 0.575740
O O5 0.812838 0.444196 0.872073
O O6 0.708568 0.500000 0.920646
O O7 0.814525 0.500000 0.000000
O O8 0.097450 0.250000 0.750000
O O9 0.138208 0.355304 0.799810
O O10 0.074931 0.348731 0.687804
O O11 0.000000 0.321353 0.791420
O O12 0.250000 0.088249 0.250000
O O13 0.400611 0.562691 0.892685
O O14 0.398281 0.500000 0.000000
O O15 0.000000 0.638633 0.418726
#
# Coordination Sequence:
#
# PCOD9513437 Si02
#       6
#    32  16  32  32  16  32
#     4  11  23  38  58  89 125 165 211 259 315 383
#     4  11  23  40  61  88 128 168 211 266 313 365
#     4  10  22  40  62  91 126 161 204 264 323 370
#     4  12  22  37  65  90 120 162 216 257 314 374
#     4  11  21  37  57  86 125 166 201 244 308 381
#     4  11  22  38  60  91 128 164 205 255 321 390
#
# _framework density 18.824134000000001
#
# number of rings (size 3 to 8) (size 9 to 14) (size 15 to 20)
#    0.000    1.000    4.000    3.000    0.000    2.800 
#    0.000    1.500    0.000    4.200    0.000    0.000 
#    0.000    0.000    0.000    0.000    0.000    0.000 
#
# Total GULP energy -223056.373321 kJ/mol
# GULP energy per Si atom -5576.409333 kJ/mol
# Density = 1.878129 g / cm^3
# Si number density = 18.824134 Si / 1000 Ang^3
#
#
#
# Elastic Constant Matrix: (Units=GPa)
#
#
# Indices 1 2 3 4 5 6 
#
# 1 124.1208 63.4869 37.9246 0.0000 0.0000 0.0000
# 2 63.4869 126.2905 49.6746 0.0000 0.0000 0.0000
# 3 37.9246 49.6746 124.6144 0.0000 0.0000 0.0000
# 4 0.0000 0.0000 0.0000 71.6553 0.0000 0.0000
# 5 0.0000 0.0000 0.0000 0.0000 11.3184 0.0000
# 6 0.0000 0.0000 0.0000 0.0000 0.0000 29.5887
#
#
#
# Elastic Compliance Matrix: (Units=1/GPa)
#
#
# Indices 1 2 3 4 5 6 
#
# 1 0.011036 -0.005013 -0.001360 0.000000 0.000000 0.000000
# 2 -0.005013 0.011668 -0.003125 0.000000 0.000000 0.000000
# 3 -0.001360 -0.003125 0.009685 0.000000 0.000000 0.000000
# 4 0.000000 0.000000 0.000000 0.013956 0.000000 0.000000
# 5 0.000000 0.000000 0.000000 0.000000 0.088352 0.000000
# 6 0.000000 0.000000 0.000000 0.000000 0.000000 0.033797
#
#
# Mechanical properties :
#
#
# Convention : Reuss Voigt Hill
#
# Bulk Modulus (GPa) = 74.67675 75.24423 74.96049
# Shear Modulus (GPa) = 26.04787 37.44180 31.74484
#
# Velocity S-wave (km/s) = 3.72391 4.46469 4.11102
# Velocity P-wave (km/s) = 7.63197 8.16315 7.90202
#
# Compressibility (1/GPa) = 0.01339105
#
# Stress axis : x y z
#
# Youngs Moduli (GPa) = 90.60891 85.70729 103.25598
#
# Poissons Ratio (x) = 0.42965 0.14048
# Poissons Ratio (y) = 0.45422 0.32272
# Poissons Ratio (z) = 0.12327 0.26787
#
# Static dielectric constant tensor:
#      x y z
#    x 1.699730 0.000000 0.000000 
#    y 0.000000 1.619740 0.000000 
#    z 0.000000 0.000000 1.662910 
# 
# From -- ./inp_files/24655.got.cif
#   From: 2010.05.17/outbox.cif.g08.bks.cpg/sg69_13_cif.got.tgz:24655.got - 2010.06.03 19:29:58.
