data_PCOD9513360
_publ_section_title
;
Structure prediction by ZEFSAII (Michael W. Deem and Ramdas Pophale) SiO2 
 PCOD9513360
Probable space group: F M M M
;
_chemical_formula_sum "Si O2"
_cell_formula_units_Z 116
_cell_length_a 30.396680
_cell_length_b 14.746061
_cell_length_c 13.611741
_cell_angle_alpha 90.000000
_cell_angle_beta 90.000000
_cell_angle_gamma 90.000000
_cell_volume 6101.208329
_symmetry_space_group_name_H-M "F M M M"
_symmetry_group_IT_number 69
_symmetry_cell_setting 'orthorhombic'
loop_
_space_group_symop_operation_xyz
x,y,z
-x,-y,z
x,-y,-z
-x,y,-z
-x,-y,-z
x,y,-z
-x,y,z
x,-y,z
x,1/2+y,1/2+z
-x,1/2-y,1/2+z
x,1/2-y,1/2-z
-x,1/2+y,1/2-z
-x,1/2-y,1/2-z
x,1/2+y,1/2-z
-x,1/2+y,1/2+z
x,1/2-y,1/2+z
1/2+x,y,1/2+z
1/2-x,-y,1/2+z
1/2+x,-y,1/2-z
1/2-x,y,1/2-z
1/2-x,-y,1/2-z
1/2+x,y,1/2-z
1/2-x,y,1/2+z
1/2+x,-y,1/2+z
1/2+x,1/2+y,z
1/2-x,1/2-y,z
1/2+x,1/2-y,-z
1/2-x,1/2+y,-z
1/2-x,1/2-y,-z
1/2+x,1/2+y,-z
1/2-x,1/2+y,z
1/2+x,1/2-y,z
loop_
_atom_site_type_symbol
_atom_site_label
_atom_site_fract_x
_atom_site_fract_y
_atom_site_fract_z
Si Si1 0.707112 0.648913 0.295397
Si Si2 0.650351 0.609292 0.000000
Si Si3 0.115804 0.646763 0.715885
Si Si4 0.254868 0.609867 0.500000
Si Si5 0.000000 0.000000 0.500000
Si Si6 0.548554 0.500000 0.292155
O O1 0.705237 0.750000 0.250000
O O2 0.750000 0.601903 0.250000
O O3 0.660314 0.609284 0.267512
O O4 0.719134 0.649364 0.408046
O O5 0.626695 0.642715 0.900425
O O6 0.648158 0.500000 0.000000
O O7 0.702677 0.633084 0.000000
O O8 0.109047 0.750000 0.750000
O O9 0.075805 0.586041 0.753388
O O10 0.257657 0.500000 0.500000
O O11 0.037969 0.000000 0.409751
O O12 0.500000 0.500000 0.245701
#
# Coordination Sequence:
#
# PCOD9513360 Si02
#       6
#    32  16  32  16   4  16
#     4  10  22  38  58  92 137 181 224 268 319 387
#     4  11  22  40  63 100 142 183 231 284 333 386
#     4  11  24  42  71 102 135 180 232 278 335 417
#     4  11  24  35  59  93 137 189 234 275 325 382
#     4   8  24  48  76  98 128 174 196 296 372 410
#     4  10  24  49  75  93 136 167 214 288 360 405
#
# _framework density 19.012626999999998
#
# number of rings (size 3 to 8) (size 9 to 14) (size 15 to 20)
#    0.414    1.103    4.138    0.000    1.931    9.931 
#    0.000    1.379    0.000    0.000    0.000    0.000 
#    0.000    0.000    0.000    0.000    0.000    0.000 
#
# Total GULP energy -161521.976950 kJ/mol
# GULP energy per Si atom -5569.723343 kJ/mol
# Density = 1.896935 g / cm^3
# Si number density = 19.012627 Si / 1000 Ang^3
#
#
#
# Elastic Constant Matrix: (Units=GPa)
#
#
# Indices 1 2 3 4 5 6 
#
# 1 180.7252 58.5936 76.1042 0.0000 0.0000 0.0000
# 2 58.5936 129.2921 55.0161 0.0000 0.0000 0.0000
# 3 76.1042 55.0161 220.6592 0.0000 0.0000 0.0000
# 4 0.0000 0.0000 0.0000 140.6035 0.0000 0.0000
# 5 0.0000 0.0000 0.0000 0.0000 36.0465 0.0000
# 6 0.0000 0.0000 0.0000 0.0000 0.0000 26.7011
#
#
#
# Elastic Compliance Matrix: (Units=1/GPa)
#
#
# Indices 1 2 3 4 5 6 
#
# 1 0.007097 -0.002433 -0.001841 0.000000 0.000000 0.000000
# 2 -0.002433 0.009486 -0.001526 0.000000 0.000000 0.000000
# 3 -0.001841 -0.001526 0.005547 0.000000 0.000000 0.000000
# 4 0.000000 0.000000 0.000000 0.007112 0.000000 0.000000
# 5 0.000000 0.000000 0.000000 0.000000 0.027742 0.000000
# 6 0.000000 0.000000 0.000000 0.000000 0.000000 0.037452
#
#
# Mechanical properties :
#
#
# Convention : Reuss Voigt Hill
#
# Bulk Modulus (GPa) = 94.96147 101.12271 98.04209
# Shear Modulus (GPa) = 45.64215 63.40105 54.52160
#
# Velocity S-wave (km/s) = 4.90493 5.78093 5.36086
# Velocity P-wave (km/s) = 9.06271 9.89250 9.48668
#
# Compressibility (1/GPa) = 0.01053059
#
# Stress axis : x y z
#
# Youngs Moduli (GPa) = 140.89605 105.41408 180.26427
#
# Poissons Ratio (x) = 0.25647 0.33191
# Poissons Ratio (y) = 0.34280 0.27510
# Poissons Ratio (z) = 0.25943 0.16087
#
# Static dielectric constant tensor:
#      x y z
#    x 1.669200 0.000000 0.000000 
#    y 0.000000 1.718390 0.000000 
#    z 0.000000 0.000000 1.876520 
# 
# From -- ./inp_files/12079.got.cif
#   From: 2010.05.17/outbox.cif.g08.bks.cpg/sg69_7_cif.got.tgz:12079.got - 2010.06.03 19:29:58.
