data_PCOD9513220
_publ_section_title
;
Structure prediction by ZEFSAII (Michael W. Deem and Ramdas Pophale) SiO2 
 PCOD9513220
Probable space group: F M M M
;
_chemical_formula_sum "Si O2"
_cell_formula_units_Z 224
_cell_length_a 29.348276
_cell_length_b 21.862619
_cell_length_c 17.846542
_cell_angle_alpha 90.000000
_cell_angle_beta 90.000000
_cell_angle_gamma 90.000000
_cell_volume 11450.879893
_symmetry_space_group_name_H-M "F M M M"
_symmetry_group_IT_number 69
_symmetry_cell_setting 'orthorhombic'
loop_
_space_group_symop_operation_xyz
x,y,z
-x,-y,z
x,-y,-z
-x,y,-z
-x,-y,-z
x,y,-z
-x,y,z
x,-y,z
x,1/2+y,1/2+z
-x,1/2-y,1/2+z
x,1/2-y,1/2-z
-x,1/2+y,1/2-z
-x,1/2-y,1/2-z
x,1/2+y,1/2-z
-x,1/2+y,1/2+z
x,1/2-y,1/2+z
1/2+x,y,1/2+z
1/2-x,-y,1/2+z
1/2+x,-y,1/2-z
1/2-x,y,1/2-z
1/2-x,-y,1/2-z
1/2+x,y,1/2-z
1/2-x,y,1/2+z
1/2+x,-y,1/2+z
1/2+x,1/2+y,z
1/2-x,1/2-y,z
1/2+x,1/2-y,-z
1/2-x,1/2+y,-z
1/2-x,1/2-y,-z
1/2+x,1/2+y,-z
1/2-x,1/2+y,z
1/2+x,1/2-y,z
loop_
_atom_site_type_symbol
_atom_site_label
_atom_site_fract_x
_atom_site_fract_y
_atom_site_fract_z
Si Si1 0.049436 0.894699 0.300368
Si Si2 0.383486 0.684913 0.910929
Si Si3 0.780637 0.693748 0.411863
Si Si4 0.128173 0.297430 0.817254
Si Si5 0.717413 0.617094 0.325452
Si Si6 0.678556 0.000000 0.089992
Si Si7 0.947152 0.430921 0.632253
Si Si8 0.430880 0.000000 0.085623
O O1 0.090621 0.848086 0.301682
O O2 0.052234 0.931049 0.222398
O O3 0.052988 0.940892 0.369125
O O4 0.000000 0.863190 0.301371
O O5 0.331070 0.680071 0.882290
O O6 0.391682 0.754738 0.884210
O O7 0.415373 0.627707 0.887271
O O8 0.384037 0.683252 0.000000
O O9 0.785631 0.705182 0.500000
O O10 0.750000 0.750000 0.380738
O O11 0.751019 0.635992 0.392163
O O12 0.131321 0.250000 0.750000
O O13 0.176643 0.332452 0.822580
O O14 0.750000 0.613942 0.250000
O O15 0.694526 0.556473 0.358239
O O16 0.623944 0.000000 0.086894
O O17 0.693156 0.000000 0.000000
O O18 0.933012 0.500000 0.606645
O O19 0.000000 0.421204 0.607263
O O20 0.445948 0.000000 0.000000
#
# Coordination Sequence:
#
# PCOD9513220 Si02
#       8
#    32  32  32  32  32  16  32  16
#     4  11  23  41  66  93 126 170 216 264 327 393
#     4  11  24  41  64  96 131 170 218 272 326 387
#     4  10  21  39  62  88 125 175 216 254 314 391
#     4  12  24  40  64  98 130 169 212 270 328 395
#     4  12  25  40  67  98 132 168 221 276 327 382
#     4  11  25  46  67  93 133 183 219 266 341 403
#     4  10  22  43  71  96 126 173 222 273 341 410
#     4  11  23  41  68  98 132 174 221 273 326 391
#
# _framework density 19.561814999999999
#
# number of rings (size 3 to 8) (size 9 to 14) (size 15 to 20)
#    0.000    1.000    5.000    1.714    0.000    3.143 
#    1.286    0.714    0.000    0.000    0.000    0.000 
#    0.000    0.000    0.000    0.000    0.000    0.000 
#
# Total GULP energy -311793.625706 kJ/mol
# GULP energy per Si atom -5567.743316 kJ/mol
# Density = 1.951729 g / cm^3
# Si number density = 19.561815 Si / 1000 Ang^3
#
#
#
# Elastic Constant Matrix: (Units=GPa)
#
#
# Indices 1 2 3 4 5 6 
#
# 1 126.2331 66.4090 31.0155 0.0000 0.0000 0.0000
# 2 66.4090 120.8031 37.6058 0.0000 0.0000 0.0000
# 3 31.0155 37.6058 74.1671 0.0000 0.0000 0.0000
# 4 0.0000 0.0000 0.0000 33.1900 0.0000 0.0000
# 5 0.0000 0.0000 0.0000 0.0000 17.0539 0.0000
# 6 0.0000 0.0000 0.0000 0.0000 0.0000 90.1198
#
#
#
# Elastic Compliance Matrix: (Units=1/GPa)
#
#
# Indices 1 2 3 4 5 6 
#
# 1 0.011362 -0.005660 -0.001881 0.000000 0.000000 0.000000
# 2 -0.005660 0.012649 -0.004047 0.000000 0.000000 0.000000
# 3 -0.001881 -0.004047 0.016322 0.000000 0.000000 0.000000
# 4 0.000000 0.000000 0.000000 0.030130 0.000000 0.000000
# 5 0.000000 0.000000 0.000000 0.000000 0.058638 0.000000
# 6 0.000000 0.000000 0.000000 0.000000 0.000000 0.011096
#
#
# Mechanical properties :
#
#
# Convention : Reuss Voigt Hill
#
# Bulk Modulus (GPa) = 58.28804 65.69599 61.99201
# Shear Modulus (GPa) = 29.56978 40.48428 35.02703
#
# Velocity S-wave (km/s) = 3.89216 4.55417 4.23612
# Velocity P-wave (km/s) = 7.07531 7.83011 7.46226
#
# Compressibility (1/GPa) = 0.01715618
#
# Stress axis : x y z
#
# Youngs Moduli (GPa) = 88.01355 79.05588 61.26834
#
# Poissons Ratio (x) = 0.44748 0.11527
# Poissons Ratio (y) = 0.49818 0.24793
# Poissons Ratio (z) = 0.16559 0.31991
#
# Static dielectric constant tensor:
#      x y z
#    x 1.735250 0.000000 0.000000 
#    y 0.000000 1.970800 0.000000 
#    z 0.000000 0.000000 1.723960 
# 
# From -- ./inp_files/27956.got.cif
#   From: 2010.05.17/outbox.cif.g08.bks.cpg/sg69_14_cif.got.tgz:27956.got - 2010.06.03 19:29:58.
