data_PCOD9513048
_publ_section_title
;
Structure prediction by ZEFSAII (Michael W. Deem and Ramdas Pophale) SiO2 
 PCOD9513048
Probable space group: F M M M
;
_chemical_formula_sum "Si O2"
_cell_formula_units_Z 192
_cell_length_a 33.672810
_cell_length_b 18.110161
_cell_length_c 17.286497
_cell_angle_alpha 90.000000
_cell_angle_beta 90.000000
_cell_angle_gamma 90.000000
_cell_volume 10541.651781
_symmetry_space_group_name_H-M "F M M M"
_symmetry_group_IT_number 69
_symmetry_cell_setting 'orthorhombic'
loop_
_space_group_symop_operation_xyz
x,y,z
-x,-y,z
x,-y,-z
-x,y,-z
-x,-y,-z
x,y,-z
-x,y,z
x,-y,z
x,1/2+y,1/2+z
-x,1/2-y,1/2+z
x,1/2-y,1/2-z
-x,1/2+y,1/2-z
-x,1/2-y,1/2-z
x,1/2+y,1/2-z
-x,1/2+y,1/2+z
x,1/2-y,1/2+z
1/2+x,y,1/2+z
1/2-x,-y,1/2+z
1/2+x,-y,1/2-z
1/2-x,y,1/2-z
1/2-x,-y,1/2-z
1/2+x,y,1/2-z
1/2-x,y,1/2+z
1/2+x,-y,1/2+z
1/2+x,1/2+y,z
1/2-x,1/2-y,z
1/2+x,1/2-y,-z
1/2-x,1/2+y,-z
1/2-x,1/2-y,-z
1/2+x,1/2+y,-z
1/2-x,1/2+y,z
1/2+x,1/2-y,z
loop_
_atom_site_type_symbol
_atom_site_label
_atom_site_fract_x
_atom_site_fract_y
_atom_site_fract_z
Si Si1 0.000000 0.585952 0.092587
Si Si2 0.419695 0.411489 0.178085
Si Si3 0.624551 0.703010 0.907423
Si Si4 0.707130 0.724321 0.405825
Si Si5 0.662900 0.581235 0.407097
Si Si6 0.417359 0.847646 0.151006
Si Si7 0.000000 0.589083 0.412216
O O1 0.039720 0.627698 0.119876
O O2 0.000000 0.500000 0.121167
O O3 0.000000 0.583795 0.000000
O O4 0.417506 0.500000 0.188347
O O5 0.386354 0.377658 0.122509
O O6 0.416774 0.369652 0.259294
O O7 0.460984 0.391857 0.135789
O O8 0.669725 0.723891 0.886396
O O9 0.595241 0.763637 0.868343
O O10 0.620164 0.709535 0.000000
O O11 0.708986 0.722610 0.500000
O O12 0.750000 0.750000 0.377365
O O13 0.693281 0.643463 0.378739
O O14 0.666171 0.579568 0.500000
O O15 0.670771 0.500000 0.375801
O O16 0.618081 0.605493 0.388287
O O17 0.000000 0.500000 0.418224
O O18 0.000000 0.619003 0.500000
#
# Coordination Sequence:
#
# PCOD9513048 Si02
#       7
#    16  32  32  32  32  32  16
#     4  11  21  32  51  80 112 143 177 223 274 316
#     4  11  22  36  56  80 107 141 182 226 268 312
#     4  10  21  37  57  80 107 141 180 220 266 321
#     4   8  15  30  52  77 104 132 167 217 271 317
#     4   9  16  28  49  75 103 139 179 214 256 318
#     4  11  21  35  52  76 109 144 178 217 266 318
#     4   9  19  36  55  74 101 140 183 221 258 305
#
# _framework density 18.213463999999998
#
# number of rings (size 3 to 8) (size 9 to 14) (size 15 to 20)
#    0.000    2.167    0.000    5.500    0.000    3.667 
#    0.000    4.167    0.000   11.000    0.000    5.833 
#    0.000    0.000    0.000    0.000    0.000    0.000 
#
# Total GULP energy -267715.436418 kJ/mol
# GULP energy per Si atom -5577.404925 kJ/mol
# Density = 1.817201 g / cm^3
# Si number density = 18.213464 Si / 1000 Ang^3
#
#
#
# Elastic Constant Matrix: (Units=GPa)
#
#
# Indices 1 2 3 4 5 6 
#
# 1 136.4338 53.3845 18.5294 0.0000 0.0000 0.0000
# 2 53.3845 52.0220 29.9935 0.0000 0.0000 0.0000
# 3 18.5294 29.9935 56.2755 0.0000 0.0000 0.0000
# 4 0.0000 0.0000 0.0000 11.8905 0.0000 0.0000
# 5 0.0000 0.0000 0.0000 0.0000 -16.6437 0.0000
# 6 0.0000 0.0000 0.0000 0.0000 0.0000 14.2565
#
#
#
# Elastic Compliance Matrix: (Units=1/GPa)
#
#
# Indices 1 2 3 4 5 6 
#
# 1 0.012853 -0.015518 0.004039 0.000000 0.000000 0.000000
# 2 -0.015518 0.046486 -0.019666 0.000000 0.000000 0.000000
# 3 0.004039 -0.019666 0.026922 0.000000 0.000000 0.000000
# 4 0.000000 0.000000 0.000000 0.084100 0.000000 0.000000
# 5 0.000000 0.000000 0.000000 0.000000 -0.060083 0.000000
# 6 0.000000 0.000000 0.000000 0.000000 0.000000 0.070143
#
#
# Mechanical properties :
#
#
# Convention : Reuss Voigt Hill
#
# Bulk Modulus (GPa) = 41.72039 49.83844 45.77941
# Shear Modulus (GPa) = 19.94389 11.42227 15.68308
#
# Velocity S-wave (km/s) = 3.31268 2.50698 2.93758
# Velocity P-wave (km/s) = 6.13090 5.98355 6.05767
#
# Compressibility (1/GPa) = 0.02396910
#
# Stress axis : x y z
#
# Youngs Moduli (GPa) = 77.80202 21.51179 37.14492
#
# Poissons Ratio (x) = 0.33383 -0.15002
# Poissons Ratio (y) = 1.20736 0.73051
# Poissons Ratio (z) = -0.31423 0.42306
#
# Static dielectric constant tensor:
#      x y z
#    x 1.609830 0.000000 0.000000 
#    y 0.000000 1.651250 0.000000 
#    z 0.000000 0.000000 1.639650 
# 
# From -- ./inp_files/27810.got.cif
#   From: 2010.05.17/outbox.cif.g08.bks.cpg/sg69_14_cif.got.tgz:27810.got - 2010.06.03 19:29:58.
