data_PCOD9513853
_publ_section_title
;
Structure prediction by ZEFSAII (Michael W. Deem and Ramdas Pophale) SiO2 
 PCOD9513853
Probable space group: F M M M
;
_chemical_formula_sum "Si O2"
_cell_formula_units_Z 168
_cell_length_a 18.299757
_cell_length_b 15.928734
_cell_length_c 29.332181
_cell_angle_alpha 90.000000
_cell_angle_beta 90.000000
_cell_angle_gamma 90.000000
_cell_volume 8550.094975
_symmetry_space_group_name_H-M "F M M M"
_symmetry_group_IT_number 69
_symmetry_cell_setting 'orthorhombic'
loop_
_space_group_symop_operation_xyz
x,y,z
-x,-y,z
x,-y,-z
-x,y,-z
-x,-y,-z
x,y,-z
-x,y,z
x,-y,z
x,1/2+y,1/2+z
-x,1/2-y,1/2+z
x,1/2-y,1/2-z
-x,1/2+y,1/2-z
-x,1/2-y,1/2-z
x,1/2+y,1/2-z
-x,1/2+y,1/2+z
x,1/2-y,1/2+z
1/2+x,y,1/2+z
1/2-x,-y,1/2+z
1/2+x,-y,1/2-z
1/2-x,y,1/2-z
1/2-x,-y,1/2-z
1/2+x,y,1/2-z
1/2-x,y,1/2+z
1/2+x,-y,1/2+z
1/2+x,1/2+y,z
1/2-x,1/2-y,z
1/2+x,1/2-y,-z
1/2-x,1/2+y,-z
1/2-x,1/2-y,-z
1/2+x,1/2+y,-z
1/2-x,1/2+y,z
1/2+x,1/2-y,z
loop_
_atom_site_type_symbol
_atom_site_label
_atom_site_fract_x
_atom_site_fract_y
_atom_site_fract_z
Si Si1 0.412371 0.674836 0.666097
Si Si2 0.165953 0.598352 0.748925
Si Si3 0.193776 0.598899 0.902160
Si Si4 0.417644 0.500000 0.913193
Si Si5 0.713146 0.840645 0.000000
Si Si6 0.151419 0.357029 0.645008
Si Si7 0.682503 0.500000 0.000000
O O1 0.500000 0.674984 0.664697
O O2 0.383392 0.651694 0.716678
O O3 0.373806 0.609350 0.632043
O O4 0.378525 0.763148 0.649404
O O5 0.163250 0.500000 0.762641
O O6 0.250000 0.627567 0.750000
O O7 0.147272 0.606900 0.696085
O O8 0.207602 0.500000 0.910182
O O9 0.176362 0.644240 0.950454
O O10 0.266932 0.635725 0.877130
O O11 0.500000 0.500000 0.928166
O O12 0.399305 0.417057 0.884680
O O13 0.365946 0.500000 0.955859
O O14 0.750000 0.750000 0.000000
O O15 0.771727 0.915180 0.000000
#
# Coordination Sequence:
#
# PCOD9513853 Si02
#       7
#    32  32  32  16  16  32   8
#     4  12  28  43  64 100 140 177 219 281 341 396
#     4  11  23  41  68  97 129 176 228 275 329 397
#     4  12  23  44  73  99 130 174 231 280 332 407
#     4  12  25  42  67  99 141 176 213 282 351 409
#     4  12  22  41  72 102 130 172 226 290 334 408
#     4  12  22  44  68  97 131 175 228 269 332 410
#     4  12  23  44  68 106 137 170 232 276 359 418
#
# _framework density 19.648904999999999
#
# number of rings (size 3 to 8) (size 9 to 14) (size 15 to 20)
#    0.000    0.190    6.667    3.571    0.000    4.571 
#    0.000    0.476    0.000    1.143    0.000    0.000 
#    0.000    0.000    0.000    0.000    0.000    0.000 
#
# Total GULP energy -234739.413762 kJ/mol
# GULP energy per Si atom -5589.033661 kJ/mol
# Density = 1.960418 g / cm^3
# Si number density = 19.648905 Si / 1000 Ang^3
#
#
#
# Elastic Constant Matrix: (Units=GPa)
#
#
# Indices 1 2 3 4 5 6 
#
# 1 88.0348 23.7121 3.1591 0.0000 0.0000 0.0000
# 2 23.7121 97.5160 13.7601 0.0000 0.0000 0.0000
# 3 3.1591 13.7601 108.2815 0.0000 0.0000 0.0000
# 4 0.0000 0.0000 0.0000 -75.6812 0.0000 0.0000
# 5 0.0000 0.0000 0.0000 0.0000 -12.0633 0.0000
# 6 0.0000 0.0000 0.0000 0.0000 0.0000 33.5779
#
#
#
# Elastic Compliance Matrix: (Units=1/GPa)
#
#
# Indices 1 2 3 4 5 6 
#
# 1 0.012155 -0.002959 0.000021 0.000000 0.000000 0.000000
# 2 -0.002959 0.011162 -0.001332 0.000000 0.000000 0.000000
# 3 0.000021 -0.001332 0.009404 0.000000 0.000000 0.000000
# 4 0.000000 0.000000 0.000000 -0.013213 0.000000 0.000000
# 5 0.000000 0.000000 0.000000 0.000000 -0.082896 0.000000
# 6 0.000000 0.000000 0.000000 0.000000 0.000000 0.029782
#
#
# Mechanical properties :
#
#
# Convention : Reuss Voigt Hill
#
# Bulk Modulus (GPa) = 41.35254 41.67722 41.51488
# Shear Modulus (GPa) = -294.00498 6.04674 -143.97912
#
# Velocity S-wave (km/s) = -12.24557 1.75615 -8.56942
# Velocity P-wave (km/s) = 13.37338 5.03678 8.76009
#
# Compressibility (1/GPa) = 0.02418231
#
# Stress axis : x y z
#
# Youngs Moduli (GPa) = 82.26864 89.58853 106.33941
#
# Poissons Ratio (x) = 0.26507 -0.00227
# Poissons Ratio (y) = 0.24341 0.14166
# Poissons Ratio (z) = -0.00176 0.11934
#
# Static dielectric constant tensor:
#      x y z
#    x 1.670790 0.000000 0.000000 
#    y 0.000000 1.708840 0.000000 
#    z 0.000000 0.000000 1.768210 
# 
# From -- ./inp_files/42630.got.cif
#   From: 2010.05.17/outbox.cif.g08.bks.cpg/sg69_22_cif.got.tgz:42630.got - 2010.06.03 19:29:58.
