data_PCOD9513053
_publ_section_title
;
Structure prediction by ZEFSAII (Michael W. Deem and Ramdas Pophale) SiO2 
 PCOD9513053
Probable space group: F M M M
;
_chemical_formula_sum "Si O2"
_cell_formula_units_Z 208
_cell_length_a 20.102897
_cell_length_b 15.074443
_cell_length_c 30.356272
_cell_angle_alpha 90.000000
_cell_angle_beta 90.000000
_cell_angle_gamma 90.000000
_cell_volume 9199.163907
_symmetry_space_group_name_H-M "F M M M"
_symmetry_group_IT_number 69
_symmetry_cell_setting 'orthorhombic'
loop_
_space_group_symop_operation_xyz
x,y,z
-x,-y,z
x,-y,-z
-x,y,-z
-x,-y,-z
x,y,-z
-x,y,z
x,-y,z
x,1/2+y,1/2+z
-x,1/2-y,1/2+z
x,1/2-y,1/2-z
-x,1/2+y,1/2-z
-x,1/2-y,1/2-z
x,1/2+y,1/2-z
-x,1/2+y,1/2+z
x,1/2-y,1/2+z
1/2+x,y,1/2+z
1/2-x,-y,1/2+z
1/2+x,-y,1/2-z
1/2-x,y,1/2-z
1/2-x,-y,1/2-z
1/2+x,y,1/2-z
1/2-x,y,1/2+z
1/2+x,-y,1/2+z
1/2+x,1/2+y,z
1/2-x,1/2-y,z
1/2+x,1/2-y,-z
1/2-x,1/2+y,-z
1/2-x,1/2-y,-z
1/2+x,1/2+y,-z
1/2-x,1/2+y,z
1/2+x,1/2-y,z
loop_
_atom_site_type_symbol
_atom_site_label
_atom_site_fract_x
_atom_site_fract_y
_atom_site_fract_z
Si Si1 0.574890 0.852725 0.904113
Si Si2 0.311956 0.105628 0.449690
Si Si3 0.923953 0.393067 0.280542
Si Si4 0.689754 0.393091 0.283035
Si Si5 0.576499 0.849884 0.620576
Si Si6 0.786166 0.400656 0.876338
Si Si7 0.579433 0.899807 0.000000
O O1 0.500000 0.889845 0.899870
O O2 0.575139 0.756141 0.883183
O O3 0.635293 0.906959 0.884913
O O4 0.593248 0.847797 0.955695
O O5 0.314813 0.141487 0.500000
O O6 0.377661 0.118469 0.419700
O O7 0.252361 0.139964 0.417946
O O8 0.301401 0.000000 0.454450
O O9 0.925337 0.500000 0.276874
O O10 0.876525 0.359658 0.241373
O O11 0.899027 0.374293 0.330378
O O12 0.000000 0.360168 0.277126
O O13 0.680247 0.500000 0.289876
O O14 0.750000 0.382031 0.250000
O O15 0.713671 0.353523 0.329328
O O16 0.500000 0.882632 0.616535
O O17 0.757144 0.500000 0.871144
O O18 0.500000 0.910711 0.000000
O O19 0.609044 0.000000 0.000000
#
# Coordination Sequence:
#
# PCOD9513053 Si02
#       7
#    32  32  32  32  32  32  16
#     4  10  22  37  56  84 115 148 190 234 281 341
#     4  10  22  38  57  83 113 148 192 238 285 342
#     4   9  17  31  54  83 112 146 188 231 282 343
#     4   9  17  31  54  81 108 141 185 236 285 335
#     4  10  21  37  57  81 116 153 187 233 287 341
#     4  10  21  37  58  83 113 149 189 240 291 336
#     4   9  18  34  56  79 105 145 192 235 277 321
#
# _framework density 22.610751
#
# number of rings (size 3 to 8) (size 9 to 14) (size 15 to 20)
#    0.000    2.385    0.000    1.846    2.154    5.846 
#    0.000    3.846    0.000    3.692    0.000    0.000 
#    0.000    0.000    0.000    0.000    0.000    0.000 
#
# Total GULP energy -290017.285500 kJ/mol
# GULP energy per Si atom -5577.255490 kJ/mol
# Density = 2.255929 g / cm^3
# Si number density = 22.610751 Si / 1000 Ang^3
#
#
#
# Elastic Constant Matrix: (Units=GPa)
#
#
# Indices 1 2 3 4 5 6 
#
# 1 99.9873 4.5637 78.9095 0.0000 0.0000 0.0000
# 2 4.5637 36.1442 -2.3436 0.0000 0.0000 0.0000
# 3 78.9095 -2.3436 151.3459 0.0000 0.0000 0.0000
# 4 0.0000 0.0000 0.0000 -0.2689 0.0000 0.0000
# 5 0.0000 0.0000 0.0000 0.0000 17.0694 0.0000
# 6 0.0000 0.0000 0.0000 0.0000 0.0000 9.8075
#
#
#
# Elastic Compliance Matrix: (Units=1/GPa)
#
#
# Indices 1 2 3 4 5 6 
#
# 1 0.017266 -0.002767 -0.009045 0.000000 0.000000 0.000000
# 2 -0.002767 0.028138 0.001878 0.000000 0.000000 0.000000
# 3 -0.009045 0.001878 0.011352 0.000000 0.000000 0.000000
# 4 0.000000 0.000000 0.000000 -3.718467 0.000000 0.000000
# 5 0.000000 0.000000 0.000000 0.000000 0.058584 0.000000
# 6 0.000000 0.000000 0.000000 0.000000 0.000000 0.101962
#
#
# Mechanical properties :
#
#
# Convention : Reuss Voigt Hill
#
# Bulk Modulus (GPa) = 27.10796 49.97072 38.53934
# Shear Modulus (GPa) = -1.44134 19.07812 8.81839
#
# Velocity S-wave (km/s) = -0.79928 2.90791 1.97701
# Velocity P-wave (km/s) = 3.34114 5.78126 4.72156
#
# Compressibility (1/GPa) = 0.03688954
#
# Stress axis : x y z
#
# Youngs Moduli (GPa) = 57.91795 35.53907 88.08722
#
# Poissons Ratio (x) = 0.09832 0.79675
# Poissons Ratio (y) = 0.16023 -0.16544
# Poissons Ratio (z) = 0.52387 -0.06675
#
# Static dielectric constant tensor:
#      x y z
#    x 1.862670 0.000000 0.000000 
#    y 0.000000 1.823750 0.000000 
#    z 0.000000 0.000000 1.896590 
# 
# From -- ./inp_files/42742.got.cif
#   From: 2010.05.17/outbox.cif.g08.bks.cpg/sg69_22_cif.got.tgz:42742.got - 2010.06.03 19:29:58.
