data_PCOD9513652
_publ_section_title
;
Structure prediction by ZEFSAII (Michael W. Deem and Ramdas Pophale) SiO2 
 PCOD9513652
Probable space group: F M M M
;
_chemical_formula_sum "Si O2"
_cell_formula_units_Z 192
_cell_length_a 20.435069
_cell_length_b 28.970385
_cell_length_c 17.989006
_cell_angle_alpha 90.000000
_cell_angle_beta 90.000000
_cell_angle_gamma 90.000000
_cell_volume 10649.704118
_symmetry_space_group_name_H-M "F M M M"
_symmetry_group_IT_number 69
_symmetry_cell_setting 'orthorhombic'
loop_
_space_group_symop_operation_xyz
x,y,z
-x,-y,z
x,-y,-z
-x,y,-z
-x,-y,-z
x,y,-z
-x,y,z
x,-y,z
x,1/2+y,1/2+z
-x,1/2-y,1/2+z
x,1/2-y,1/2-z
-x,1/2+y,1/2-z
-x,1/2-y,1/2-z
x,1/2+y,1/2-z
-x,1/2+y,1/2+z
x,1/2-y,1/2+z
1/2+x,y,1/2+z
1/2-x,-y,1/2+z
1/2+x,-y,1/2-z
1/2-x,y,1/2-z
1/2-x,-y,1/2-z
1/2+x,y,1/2-z
1/2-x,y,1/2+z
1/2+x,-y,1/2+z
1/2+x,1/2+y,z
1/2-x,1/2-y,z
1/2+x,1/2-y,-z
1/2-x,1/2+y,-z
1/2-x,1/2-y,-z
1/2+x,1/2+y,-z
1/2-x,1/2+y,z
1/2+x,1/2-y,z
loop_
_atom_site_type_symbol
_atom_site_label
_atom_site_fract_x
_atom_site_fract_y
_atom_site_fract_z
Si Si1 0.000000 0.283712 0.677558
Si Si2 0.336090 0.551733 0.827008
Si Si3 0.873266 0.651348 0.315071
Si Si4 0.500000 0.806811 0.912173
Si Si5 0.185393 0.550886 0.851574
Si Si6 0.739071 0.696800 0.913855
Si Si7 0.866476 0.146340 0.638723
O O1 0.000000 0.250000 0.750000
O O2 0.062939 0.316913 0.676408
O O3 0.000000 0.246812 0.611131
O O4 0.358671 0.500000 0.849747
O O5 0.379013 0.597519 0.840125
O O6 0.263289 0.559533 0.860742
O O7 0.325939 0.549676 0.737678
O O8 0.814481 0.673541 0.361504
O O9 0.855875 0.650874 0.227491
O O10 0.435800 0.831625 0.880073
O O11 0.500000 0.811215 0.000000
O O12 0.170157 0.500000 0.881198
O O13 0.142001 0.592533 0.881203
O O14 0.750000 0.750000 0.893518
O O15 0.808504 0.672421 0.902795
O O16 0.718452 0.694255 0.000000
#
# Coordination Sequence:
#
# PCOD9513652 Si02
#       7
#    16  32  32  16  32  32  32
#     4  12  24  42  57  85 117 155 199 245 280 354
#     4   8  14  28  52  86 118 144 182 240 299 343
#     4  11  21  36  61  86 113 153 198 246 296 341
#     4  12  26  42  61  82 119 166 192 233 298 354
#     4   8  14  27  52  85 116 146 186 236 288 337
#     4  11  24  37  53  82 117 150 195 251 299 351
#     4  11  20  37  60  86 114 153 200 240 289 346
#
# _framework density 18.028670999999999
#
# number of rings (size 3 to 8) (size 9 to 14) (size 15 to 20)
#    0.000    1.833    3.333    3.000    0.000    2.667 
#    0.000    0.833    0.000    8.000    0.000    0.000 
#    0.000    2.000    0.000    0.000    0.000    0.000 
#
# Total GULP energy -267692.475210 kJ/mol
# GULP energy per Si atom -5576.926567 kJ/mol
# Density = 1.798764 g / cm^3
# Si number density = 18.028671 Si / 1000 Ang^3
#
#
#
# Elastic Constant Matrix: (Units=GPa)
#
#
# Indices 1 2 3 4 5 6 
#
# 1 88.4002 69.3883 10.0763 0.0000 0.0000 0.0000
# 2 69.3883 188.0068 31.1625 0.0000 0.0000 0.0000
# 3 10.0763 31.1625 38.9782 0.0000 0.0000 0.0000
# 4 0.0000 0.0000 0.0000 -16.9910 0.0000 0.0000
# 5 0.0000 0.0000 0.0000 0.0000 0.2779 0.0000
# 6 0.0000 0.0000 0.0000 0.0000 0.0000 35.9582
#
#
#
# Elastic Compliance Matrix: (Units=1/GPa)
#
#
# Indices 1 2 3 4 5 6 
#
# 1 0.015941 -0.005995 0.000672 0.000000 0.000000 0.000000
# 2 -0.005995 0.008386 -0.005155 0.000000 0.000000 0.000000
# 3 0.000672 -0.005155 0.029603 0.000000 0.000000 0.000000
# 4 0.000000 0.000000 0.000000 -0.058855 0.000000 0.000000
# 5 0.000000 0.000000 0.000000 0.000000 3.597949 0.000000
# 6 0.000000 0.000000 0.000000 0.000000 0.000000 0.027810
#
#
# Mechanical properties :
#
#
# Convention : Reuss Voigt Hill
#
# Bulk Modulus (GPa) = 30.32656 59.62661 44.97658
# Shear Modulus (GPa) = 1.36882 17.49956 9.43419
#
# Velocity S-wave (km/s) = 0.87229 3.11891 2.29003
# Velocity P-wave (km/s) = 4.22757 6.79081 5.65630
#
# Compressibility (1/GPa) = 0.03297440
#
# Stress axis : x y z
#
# Youngs Moduli (GPa) = 62.73079 119.24824 33.78067
#
# Poissons Ratio (x) = 0.71487 -0.02269
# Poissons Ratio (y) = 0.37606 0.17413
# Poissons Ratio (z) = -0.04214 0.61468
#
# Static dielectric constant tensor:
#      x y z
#    x 1.588860 0.000000 0.000000 
#    y 0.000000 1.660040 0.000000 
#    z 0.000000 0.000000 1.615800 
# 
# From -- ./inp_files/23745.got.cif
#   From: 2010.05.17/outbox.cif.g08.bks.cpg/sg69_12_cif.got.tgz:23745.got - 2010.06.03 19:29:58.
