data_PCOD9513675
_publ_section_title
;
Structure prediction by ZEFSAII (Michael W. Deem and Ramdas Pophale) SiO2 
 PCOD9513675
Probable space group: F M M M
;
_chemical_formula_sum "Si O2"
_cell_formula_units_Z 144
_cell_length_a 16.059226
_cell_length_b 16.258936
_cell_length_c 26.067214
_cell_angle_alpha 90.000000
_cell_angle_beta 90.000000
_cell_angle_gamma 90.000000
_cell_volume 6806.304095
_symmetry_space_group_name_H-M "F M M M"
_symmetry_group_IT_number 69
_symmetry_cell_setting 'orthorhombic'
loop_
_space_group_symop_operation_xyz
x,y,z
-x,-y,z
x,-y,-z
-x,y,-z
-x,-y,-z
x,y,-z
-x,y,z
x,-y,z
x,1/2+y,1/2+z
-x,1/2-y,1/2+z
x,1/2-y,1/2-z
-x,1/2+y,1/2-z
-x,1/2-y,1/2-z
x,1/2+y,1/2-z
-x,1/2+y,1/2+z
x,1/2-y,1/2+z
1/2+x,y,1/2+z
1/2-x,-y,1/2+z
1/2+x,-y,1/2-z
1/2-x,y,1/2-z
1/2-x,-y,1/2-z
1/2+x,y,1/2-z
1/2-x,y,1/2+z
1/2+x,-y,1/2+z
1/2+x,1/2+y,z
1/2-x,1/2-y,z
1/2+x,1/2-y,-z
1/2-x,1/2+y,-z
1/2-x,1/2-y,-z
1/2+x,1/2+y,-z
1/2-x,1/2+y,z
1/2+x,1/2-y,z
loop_
_atom_site_type_symbol
_atom_site_label
_atom_site_fract_x
_atom_site_fract_y
_atom_site_fract_z
Si Si1 0.599327 0.406100 0.559194
Si Si2 0.302220 0.667324 0.355621
Si Si3 0.000000 0.899135 0.059416
Si Si4 0.351155 0.095239 0.244200
Si Si5 0.628291 0.404589 0.144316
O O1 0.624733 0.399687 0.500000
O O2 0.500000 0.397547 0.561698
O O3 0.618794 0.500000 0.576839
O O4 0.643564 0.339106 0.593827
O O5 0.250000 0.750000 0.347812
O O6 0.360916 0.646687 0.307393
O O7 0.227214 0.602156 0.362443
O O8 0.921696 0.872509 0.095083
O O9 0.000000 0.000000 0.056385
O O10 0.000000 0.870281 0.000000
O O11 0.250000 0.095274 0.250000
O O12 0.387810 0.128665 0.297842
O O13 0.376816 0.000000 0.236890
O O14 0.605270 0.500000 0.148203
#
# Coordination Sequence:
#
# PCOD9513675 Si02
#       5
#    32  32  16  32  32
#     4   9  19  38  61  82 109 149 200 256 301 342
#     4  11  21  33  54  85 118 148 191 235 301 362
#     4   9  18  34  56  83 114 146 184 237 296 347
#     4   8  15  30  52  76 105 143 188 238 282 327
#     4   9  18  34  55  80 112 150 196 239 280 341
#
# _framework density 21.156856000000001
#
# number of rings (size 3 to 8) (size 9 to 14) (size 15 to 20)
#    0.000    2.778    0.000    4.000    0.000    5.333 
#    4.000    2.222    0.000    1.333    0.000    0.000 
#    0.000    0.000    0.000    0.000    0.000    0.000 
#
# Total GULP energy -200533.745432 kJ/mol
# GULP energy per Si atom -5570.381818 kJ/mol
# Density = 2.110870 g / cm^3
# Si number density = 21.156856 Si / 1000 Ang^3
#
#
#
# Elastic Constant Matrix: (Units=GPa)
#
#
# Indices 1 2 3 4 5 6 
#
# 1 31.1926 3.2457 52.9526 0.0000 0.0000 0.0000
# 2 3.2457 47.6554 40.8826 0.0000 0.0000 0.0000
# 3 52.9526 40.8826 179.4521 0.0000 0.0000 0.0000
# 4 0.0000 0.0000 0.0000 -16.1755 0.0000 0.0000
# 5 0.0000 0.0000 0.0000 0.0000 57.7654 0.0000
# 6 0.0000 0.0000 0.0000 0.0000 0.0000 -3.3660
#
#
#
# Elastic Compliance Matrix: (Units=1/GPa)
#
#
# Indices 1 2 3 4 5 6 
#
# 1 0.073859 0.016986 -0.025664 0.000000 0.000000 0.000000
# 2 0.016986 0.029988 -0.011844 0.000000 0.000000 0.000000
# 3 -0.025664 -0.011844 0.015844 0.000000 0.000000 0.000000
# 4 0.000000 0.000000 0.000000 -0.061822 0.000000 0.000000
# 5 0.000000 0.000000 0.000000 0.000000 0.017311 0.000000
# 6 0.000000 0.000000 0.000000 0.000000 0.000000 -0.297085
#
#
# Mechanical properties :
#
#
# Convention : Reuss Voigt Hill
#
# Bulk Modulus (GPa) = 12.71511 50.27355 31.49433
# Shear Modulus (GPa) = -32.33196 18.39271 -6.96962
#
# Velocity S-wave (km/s) = -3.91346 2.95167 -1.81698
# Velocity P-wave (km/s) = 3.79438 5.95234 3.24292
#
# Compressibility (1/GPa) = 0.07864656
#
# Stress axis : x y z
#
# Youngs Moduli (GPa) = 13.53938 33.34683 63.11650
#
# Poissons Ratio (x) = -0.56644 1.61982
# Poissons Ratio (y) = -0.22998 0.74756
# Poissons Ratio (z) = 0.34747 0.39496
#
# Static dielectric constant tensor:
#      x y z
#    x 1.809060 0.000000 0.000000 
#    y 0.000000 1.833570 0.000000 
#    z 0.000000 0.000000 1.818710 
# 
# From -- ./inp_files/36491.got.cif
#   From: 2010.05.17/outbox.cif.g08.bks.cpg/sg69_19_cif.got.tgz:36491.got - 2010.06.03 19:29:58.
