data_PCOD9513521
_publ_section_title
;
Structure prediction by ZEFSAII (Michael W. Deem and Ramdas Pophale) SiO2 
 PCOD9513521
Probable space group: F M M M
;
_chemical_formula_sum "Si O2"
_cell_formula_units_Z 168
_cell_length_a 13.804324
_cell_length_b 21.801009
_cell_length_c 23.812598
_cell_angle_alpha 90.000000
_cell_angle_beta 90.000000
_cell_angle_gamma 90.000000
_cell_volume 7166.358309
_symmetry_space_group_name_H-M "F M M M"
_symmetry_group_IT_number 69
_symmetry_cell_setting 'orthorhombic'
loop_
_space_group_symop_operation_xyz
x,y,z
-x,-y,z
x,-y,-z
-x,y,-z
-x,-y,-z
x,y,-z
-x,y,z
x,-y,z
x,1/2+y,1/2+z
-x,1/2-y,1/2+z
x,1/2-y,1/2-z
-x,1/2+y,1/2-z
-x,1/2-y,1/2-z
x,1/2+y,1/2-z
-x,1/2+y,1/2+z
x,1/2-y,1/2+z
1/2+x,y,1/2+z
1/2-x,-y,1/2+z
1/2+x,-y,1/2-z
1/2-x,y,1/2-z
1/2-x,-y,1/2-z
1/2+x,y,1/2-z
1/2-x,y,1/2+z
1/2+x,-y,1/2+z
1/2+x,1/2+y,z
1/2-x,1/2-y,z
1/2+x,1/2-y,-z
1/2-x,1/2+y,-z
1/2-x,1/2-y,-z
1/2+x,1/2+y,-z
1/2-x,1/2+y,z
1/2+x,1/2-y,z
loop_
_atom_site_type_symbol
_atom_site_label
_atom_site_fract_x
_atom_site_fract_y
_atom_site_fract_z
Si Si1 0.739148 0.814111 0.598289
Si Si2 0.839275 0.500000 0.000000
Si Si3 0.883076 0.565903 0.769779
Si Si4 0.889284 0.431612 0.432665
Si Si5 0.115626 0.910562 0.396475
Si Si6 0.614881 0.692524 0.791498
O O1 0.750000 0.750000 0.566129
O O2 0.676251 0.872894 0.578810
O O3 0.846656 0.841358 0.602604
O O4 0.682704 0.798547 0.655375
O O5 0.845974 0.447449 0.049909
O O6 0.855588 0.500000 0.743979
O O7 0.850890 0.567437 0.834789
O O8 0.856970 0.627557 0.737036
O O9 0.000000 0.567255 0.771732
O O10 0.891854 0.436736 0.500000
O O11 0.857908 0.500000 0.412402
O O12 0.000000 0.422169 0.412378
O O13 0.000000 0.916231 0.398940
O O14 0.500000 0.689566 0.806056
O O15 0.626576 0.750000 0.750000
#
# Coordination Sequence:
#
# PCOD9513521 Si02
#       6
#    32   8  32  32  32  32
#     4  12  27  41  65 100 140 181 228 286 338 415
#     4  12  25  48  74  94 127 180 243 290 346 424
#     4   9  18  36  62  93 128 161 210 277 337 389
#     4   9  21  44  72  99 132 175 224 284 353 423
#     4  11  24  42  67  97 132 179 227 283 344 410
#     4  10  22  43  69  95 133 184 228 273 337 417
#
# _framework density 23.442869000000002
#
# number of rings (size 3 to 8) (size 9 to 14) (size 15 to 20)
#    0.000    1.714    0.952    3.143    2.667    6.857 
#    0.000    2.857    0.000    0.571    0.000    0.000 
#    0.000    0.000    0.000    0.000    0.000    0.000 
#
# Total GULP energy -234136.416519 kJ/mol
# GULP energy per Si atom -5574.676584 kJ/mol
# Density = 2.338951 g / cm^3
# Si number density = 23.442869 Si / 1000 Ang^3
#
#
#
# Elastic Constant Matrix: (Units=GPa)
#
#
# Indices 1 2 3 4 5 6 
#
# 1 89.5406 47.7044 33.7806 0.0000 0.0000 0.0000
# 2 47.7044 215.1108 35.7552 0.0000 0.0000 0.0000
# 3 33.7806 35.7552 83.8614 0.0000 0.0000 0.0000
# 4 0.0000 0.0000 0.0000 27.3410 0.0000 0.0000
# 5 0.0000 0.0000 0.0000 0.0000 -35.1740 0.0000
# 6 0.0000 0.0000 0.0000 0.0000 0.0000 -0.7958
#
#
#
# Elastic Compliance Matrix: (Units=1/GPa)
#
#
# Indices 1 2 3 4 5 6 
#
# 1 0.014208 -0.002367 -0.004714 0.000000 0.000000 0.000000
# 2 -0.002367 0.005398 -0.001348 0.000000 0.000000 0.000000
# 3 -0.004714 -0.001348 0.014398 0.000000 0.000000 0.000000
# 4 0.000000 0.000000 0.000000 0.036575 0.000000 0.000000
# 5 0.000000 0.000000 0.000000 0.000000 -0.028430 0.000000
# 6 0.000000 0.000000 0.000000 0.000000 0.000000 -1.256585
#
#
# Mechanical properties :
#
#
# Convention : Reuss Voigt Hill
#
# Bulk Modulus (GPa) = 58.32398 69.22148 63.77273
# Shear Modulus (GPa) = -4.19511 16.35907 6.08198
#
# Velocity S-wave (km/s) = -1.33917 2.64451 1.61246
# Velocity P-wave (km/s) = 4.74784 6.23830 5.54339
#
# Compressibility (1/GPa) = 0.01714561
#
# Stress axis : x y z
#
# Youngs Moduli (GPa) = 70.38456 185.26119 69.45472
#
# Poissons Ratio (x) = 0.43856 0.32739
# Poissons Ratio (y) = 0.16662 0.09361
# Poissons Ratio (z) = 0.33177 0.24970
#
# Static dielectric constant tensor:
#      x y z
#    x 1.949720 0.000000 0.000000 
#    y 0.000000 1.954950 0.000000 
#    z 0.000000 0.000000 1.863840 
# 
# From -- ./inp_files/40968.got.cif
#   From: 2010.05.17/outbox.cif.g08.bks.cpg/sg69_21_cif.got.tgz:40968.got - 2010.06.03 19:29:58.
