data_PCOD9513361
_publ_section_title
;
Structure prediction by ZEFSAII (Michael W. Deem and Ramdas Pophale) SiO2 
 PCOD9513361
Probable space group: F M M M
;
_chemical_formula_sum "Si O2"
_cell_formula_units_Z 176
_cell_length_a 11.671354
_cell_length_b 29.975126
_cell_length_c 26.253914
_cell_angle_alpha 90.000000
_cell_angle_beta 90.000000
_cell_angle_gamma 90.000000
_cell_volume 9184.939866
_symmetry_space_group_name_H-M "F M M M"
_symmetry_group_IT_number 69
_symmetry_cell_setting 'orthorhombic'
loop_
_space_group_symop_operation_xyz
x,y,z
-x,-y,z
x,-y,-z
-x,y,-z
-x,-y,-z
x,y,-z
-x,y,z
x,-y,z
x,1/2+y,1/2+z
-x,1/2-y,1/2+z
x,1/2-y,1/2-z
-x,1/2+y,1/2-z
-x,1/2-y,1/2-z
x,1/2+y,1/2-z
-x,1/2+y,1/2+z
x,1/2-y,1/2+z
1/2+x,y,1/2+z
1/2-x,-y,1/2+z
1/2+x,-y,1/2-z
1/2-x,y,1/2-z
1/2-x,-y,1/2-z
1/2+x,y,1/2-z
1/2-x,y,1/2+z
1/2+x,-y,1/2+z
1/2+x,1/2+y,z
1/2-x,1/2-y,z
1/2+x,1/2-y,-z
1/2-x,1/2+y,-z
1/2-x,1/2-y,-z
1/2+x,1/2+y,-z
1/2-x,1/2+y,z
1/2+x,1/2-y,z
loop_
_atom_site_type_symbol
_atom_site_label
_atom_site_fract_x
_atom_site_fract_y
_atom_site_fract_z
Si Si1 0.130557 0.945774 0.000000
Si Si2 0.703189 0.300036 0.632604
Si Si3 0.632316 0.124999 0.337752
Si Si4 0.244310 0.948055 0.396702
Si Si5 0.874523 0.683142 0.241213
Si Si6 0.500000 0.574384 0.439897
Si Si7 0.000000 0.181922 0.441515
O O1 0.192436 0.931775 0.051648
O O2 0.000000 0.931082 0.000000
O O3 0.133734 0.000000 0.000000
O O4 0.750000 0.250000 0.640590
O O5 0.811528 0.333438 0.631644
O O6 0.630003 0.319368 0.680484
O O7 0.615508 0.301638 0.586046
O O8 0.500000 0.117360 0.351737
O O9 0.709343 0.082634 0.351458
O O10 0.634195 0.140268 0.278419
O O11 0.111648 0.942600 0.410538
O O12 0.271156 0.000000 0.388107
O O13 0.750000 0.705187 0.250000
O O14 0.000000 0.702302 0.255765
O O15 0.500000 0.560336 0.500000
O O16 0.500000 0.628038 0.439023
O O17 0.000000 0.195724 0.500000
#
# Coordination Sequence:
#
# PCOD9513361 Si02
#       7
#    16  32  32  32  32  16  16
#     4   9  18  31  51  81 118 164 214 267 324 385
#     4  11  23  41  70  95 125 167 216 270 331 394
#     4  10  22  38  58  93 132 167 217 273 331 386
#     4  11  21  35  58  88 127 172 222 274 330 396
#     4   9  19  37  62  92 124 163 207 269 329 381
#     4  11  21  38  63  93 126 167 223 280 330 383
#     4  11  24  43  68  97 135 176 213 261 327 396
#
# _framework density 19.161802000000002
#
# number of rings (size 3 to 8) (size 9 to 14) (size 15 to 20)
#    0.000    1.727    3.636    0.818    1.273    5.091 
#    0.000    4.545    0.000    4.909    0.000    0.000 
#    0.000    0.000    0.000    0.000    0.000    0.000 
#
# Total GULP energy -245070.443469 kJ/mol
# GULP energy per Si atom -5569.782806 kJ/mol
# Density = 1.911819 g / cm^3
# Si number density = 19.161802 Si / 1000 Ang^3
#
#
#
# Elastic Constant Matrix: (Units=GPa)
#
#
# Indices 1 2 3 4 5 6 
#
# 1 151.6411 28.1161 41.0050 0.0000 0.0000 0.0000
# 2 28.1161 102.1537 40.5678 0.0000 0.0000 0.0000
# 3 41.0050 40.5678 119.9141 0.0000 0.0000 0.0000
# 4 0.0000 0.0000 0.0000 15.2088 0.0000 0.0000
# 5 0.0000 0.0000 0.0000 0.0000 28.0072 0.0000
# 6 0.0000 0.0000 0.0000 0.0000 0.0000 15.6532
#
#
#
# Elastic Compliance Matrix: (Units=1/GPa)
#
#
# Indices 1 2 3 4 5 6 
#
# 1 0.007390 -0.001190 -0.002124 0.000000 0.000000 0.000000
# 2 -0.001190 0.011500 -0.003484 0.000000 0.000000 0.000000
# 3 -0.002124 -0.003484 0.010244 0.000000 0.000000 0.000000
# 4 0.000000 0.000000 0.000000 0.065751 0.000000 0.000000
# 5 0.000000 0.000000 0.000000 0.000000 0.035705 0.000000
# 6 0.000000 0.000000 0.000000 0.000000 0.000000 0.063885
#
#
# Mechanical properties :
#
#
# Convention : Reuss Voigt Hill
#
# Bulk Modulus (GPa) = 64.35899 65.89854 65.12876
# Shear Modulus (GPa) = 23.44662 29.37519 26.41090
#
# Velocity S-wave (km/s) = 3.50181 3.91961 3.71659
# Velocity P-wave (km/s) = 7.07180 7.41281 7.24431
#
# Compressibility (1/GPa) = 0.01553785
#
# Stress axis : x y z
#
# Youngs Moduli (GPa) = 135.32499 86.95510 97.61613
#
# Poissons Ratio (x) = 0.10350 0.20736
# Poissons Ratio (y) = 0.16108 0.34005
# Poissons Ratio (z) = 0.28746 0.30291
#
# Static dielectric constant tensor:
#      x y z
#    x 1.706590 0.000000 0.000000 
#    y 0.000000 1.654850 0.000000 
#    z 0.000000 0.000000 1.702310 
# 
# From -- ./inp_files/40361.got.cif
#   From: 2010.05.17/outbox.cif.g08.bks.cpg/sg69_21_cif.got.tgz:40361.got - 2010.06.03 19:29:58.
