data_PCOD9513577
_publ_section_title
;
Structure prediction by ZEFSAII (Michael W. Deem and Ramdas Pophale) SiO2 
 PCOD9513577
Probable space group: F M M M
;
_chemical_formula_sum "Si O2"
_cell_formula_units_Z 96
_cell_length_a 15.266890
_cell_length_b 26.913762
_cell_length_c 10.490161
_cell_angle_alpha 90.000000
_cell_angle_beta 90.000000
_cell_angle_gamma 90.000000
_cell_volume 4310.296420
_symmetry_space_group_name_H-M "F M M M"
_symmetry_group_IT_number 69
_symmetry_cell_setting 'orthorhombic'
loop_
_space_group_symop_operation_xyz
x,y,z
-x,-y,z
x,-y,-z
-x,y,-z
-x,-y,-z
x,y,-z
-x,y,z
x,-y,z
x,1/2+y,1/2+z
-x,1/2-y,1/2+z
x,1/2-y,1/2-z
-x,1/2+y,1/2-z
-x,1/2-y,1/2-z
x,1/2+y,1/2-z
-x,1/2+y,1/2+z
x,1/2-y,1/2+z
1/2+x,y,1/2+z
1/2-x,-y,1/2+z
1/2+x,-y,1/2-z
1/2-x,y,1/2-z
1/2-x,-y,1/2-z
1/2+x,y,1/2-z
1/2-x,y,1/2+z
1/2+x,-y,1/2+z
1/2+x,1/2+y,z
1/2-x,1/2-y,z
1/2+x,1/2-y,-z
1/2-x,1/2+y,-z
1/2-x,1/2-y,-z
1/2+x,1/2+y,-z
1/2-x,1/2+y,z
1/2+x,1/2-y,z
loop_
_atom_site_type_symbol
_atom_site_label
_atom_site_fract_x
_atom_site_fract_y
_atom_site_fract_z
Si Si1 0.099118 0.618568 0.749202
Si Si2 0.340716 0.941548 0.000000
Si Si3 0.657569 0.219303 0.357110
Si Si4 0.869824 0.056458 0.000000
O O1 0.159047 0.664364 0.702310
O O2 0.099186 0.582489 0.628149
O O3 0.000000 0.636844 0.771293
O O4 0.129193 0.588533 0.874285
O O5 0.235754 0.941806 0.000000
O O6 0.369917 0.000000 0.000000
O O7 0.621156 0.216439 0.500000
O O8 0.606540 0.250000 0.250000
O O9 0.750000 0.250000 0.369749
O O10 0.897803 0.000000 0.000000
#
# Coordination Sequence:
#
# PCOD9513577 Si02
#       4
#    32  16  32  16
#     4  12  26  45  73 108 148 185 235 302 363 425
#     4  11  27  47  73 108 147 196 244 285 347 437
#     4  10  24  42  68 102 135 187 234 291 353 427
#     4  11  25  45  73 104 139 190 244 293 351 433
#
# _framework density 22.272248999999999
#
# number of rings (size 3 to 8) (size 9 to 14) (size 15 to 20)
#    0.000    1.000    1.667    3.000   11.667    7.333 
#    0.000    0.000    0.000    0.000    0.000    0.000 
#    0.000    0.000    0.000    0.000    0.000    0.000 
#
# Total GULP energy -133963.023567 kJ/mol
# GULP energy per Si atom -5581.792649 kJ/mol
# Density = 2.222156 g / cm^3
# Si number density = 22.272249 Si / 1000 Ang^3
#
#
#
# Elastic Constant Matrix: (Units=GPa)
#
#
# Indices 1 2 3 4 5 6 
#
# 1 112.7035 37.9393 30.0602 0.0000 0.0000 0.0000
# 2 37.9393 197.0097 102.7161 0.0000 0.0000 0.0000
# 3 30.0602 102.7161 252.3118 0.0000 0.0000 0.0000
# 4 0.0000 0.0000 0.0000 45.8149 0.0000 0.0000
# 5 0.0000 0.0000 0.0000 0.0000 34.1998 0.0000
# 6 0.0000 0.0000 0.0000 0.0000 0.0000 -16.4094
#
#
#
# Elastic Compliance Matrix: (Units=1/GPa)
#
#
# Indices 1 2 3 4 5 6 
#
# 1 0.009536 -0.001579 -0.000493 0.000000 0.000000 0.000000
# 2 -0.001579 0.006705 -0.002541 0.000000 0.000000 0.000000
# 3 -0.000493 -0.002541 0.005057 0.000000 0.000000 0.000000
# 4 0.000000 0.000000 0.000000 0.021827 0.000000 0.000000
# 5 0.000000 0.000000 0.000000 0.000000 0.029240 0.000000
# 6 0.000000 0.000000 0.000000 0.000000 0.000000 -0.060941
#
#
# Mechanical properties :
#
#
# Convention : Reuss Voigt Hill
#
# Bulk Modulus (GPa) = 82.85036 100.38401 91.61719
# Shear Modulus (GPa) = 202.63096 38.80836 120.71966
#
# Velocity S-wave (km/s) = 9.54865 4.17880 7.37018
# Velocity P-wave (km/s) = 12.60351 8.27359 10.66070
#
# Compressibility (1/GPa) = 0.01206995
#
# Stress axis : x y z
#
# Youngs Moduli (GPa) = 104.86570 149.14039 197.75552
#
# Poissons Ratio (x) = 0.23553 0.09753
# Poissons Ratio (y) = 0.16561 0.50259
# Poissons Ratio (z) = 0.05172 0.37904
#
# Static dielectric constant tensor:
#      x y z
#    x 1.885340 0.000000 0.000000 
#    y 0.000000 1.870440 0.000000 
#    z 0.000000 0.000000 1.814180 
# 
# From -- ./inp_files/7994.got.cif
#   From: 2010.05.17/outbox.cif.g08.bks.cpg/sg69_4_cif.got.tgz:7994.got - 2010.06.03 19:29:58.
