data_PCOD9513331
_publ_section_title
;
Structure prediction by ZEFSAII (Michael W. Deem and Ramdas Pophale) SiO2 
 PCOD9513331
Probable space group: F M M M
;
_chemical_formula_sum "Si O2"
_cell_formula_units_Z 176
_cell_length_a 27.037604
_cell_length_b 14.245190
_cell_length_c 25.395634
_cell_angle_alpha 90.000000
_cell_angle_beta 90.000000
_cell_angle_gamma 90.000000
_cell_volume 9781.275885
_symmetry_space_group_name_H-M "F M M M"
_symmetry_group_IT_number 69
_symmetry_cell_setting 'orthorhombic'
loop_
_space_group_symop_operation_xyz
x,y,z
-x,-y,z
x,-y,-z
-x,y,-z
-x,-y,-z
x,y,-z
-x,y,z
x,-y,z
x,1/2+y,1/2+z
-x,1/2-y,1/2+z
x,1/2-y,1/2-z
-x,1/2+y,1/2-z
-x,1/2-y,1/2-z
x,1/2+y,1/2-z
-x,1/2+y,1/2+z
x,1/2-y,1/2+z
1/2+x,y,1/2+z
1/2-x,-y,1/2+z
1/2+x,-y,1/2-z
1/2-x,y,1/2-z
1/2-x,-y,1/2-z
1/2+x,y,1/2-z
1/2-x,y,1/2+z
1/2+x,-y,1/2+z
1/2+x,1/2+y,z
1/2-x,1/2-y,z
1/2+x,1/2-y,-z
1/2-x,1/2+y,-z
1/2-x,1/2-y,-z
1/2+x,1/2+y,-z
1/2-x,1/2+y,z
1/2+x,1/2-y,z
loop_
_atom_site_type_symbol
_atom_site_label
_atom_site_fract_x
_atom_site_fract_y
_atom_site_fract_z
Si Si1 0.158033 0.888932 0.238689
Si Si2 0.442580 0.612289 0.500000
Si Si3 0.944545 0.611880 0.792466
Si Si4 0.940907 0.105805 0.062650
Si Si5 0.900708 0.205800 0.604406
Si Si6 0.805992 0.229318 0.335627
O O1 0.100192 0.870554 0.252137
O O2 0.188754 0.847334 0.288515
O O3 0.173147 0.825534 0.189671
O O4 0.165711 0.000000 0.232639
O O5 0.441947 0.500000 0.500000
O O6 0.500000 0.644398 0.500000
O O7 0.416723 0.651092 0.552193
O O8 0.943239 0.500000 0.803663
O O9 0.931080 0.665857 0.845927
O O10 0.000000 0.635270 0.774140
O O11 0.913951 0.186154 0.094441
O O12 0.000000 0.114998 0.069690
O O13 0.926697 0.000000 0.077919
O O14 0.931416 0.116995 0.000000
O O15 0.843143 0.197077 0.618958
O O16 0.750000 0.250000 0.350931
#
# Coordination Sequence:
#
# PCOD9513331 Si02
#       6
#    32  16  32  32  32  32
#     4   9  18  35  58  80 106 141 179 217 262 316
#     4  11  22  36  58  85 109 135 171 214 263 327
#     4   9  17  30  50  79 114 143 167 206 264 322
#     4   9  17  30  49  72 100 135 171 205 244 296
#     4  11  20  33  53  78 106 142 176 218 262 310
#     4  10  22  37  53  79 106 136 181 227 269 310
#
# _framework density 17.993562000000001
#
# number of rings (size 3 to 8) (size 9 to 14) (size 15 to 20)
#    0.000    2.273    0.909    3.818    0.000    4.364 
#    0.000    9.545    0.000    2.182    0.000    0.000 
#    0.000    0.000    0.000    0.000    0.000    0.000 
#
# Total GULP energy -245660.653518 kJ/mol
# GULP energy per Si atom -5583.196671 kJ/mol
# Density = 1.795261 g / cm^3
# Si number density = 17.993562 Si / 1000 Ang^3
#
#
#
# Elastic Constant Matrix: (Units=GPa)
#
#
# Indices 1 2 3 4 5 6 
#
# 1 116.7420 27.1577 40.4633 0.0000 0.0000 0.0000
# 2 27.1577 91.3288 29.1435 0.0000 0.0000 0.0000
# 3 40.4633 29.1435 57.7474 0.0000 0.0000 0.0000
# 4 0.0000 0.0000 0.0000 14.4495 0.0000 0.0000
# 5 0.0000 0.0000 0.0000 0.0000 -1.0592 0.0000
# 6 0.0000 0.0000 0.0000 0.0000 0.0000 19.6544
#
#
#
# Elastic Compliance Matrix: (Units=1/GPa)
#
#
# Indices 1 2 3 4 5 6 
#
# 1 0.011390 -0.001001 -0.007475 0.000000 0.000000 0.000000
# 2 -0.001001 0.013139 -0.005929 0.000000 0.000000 0.000000
# 3 -0.007475 -0.005929 0.025547 0.000000 0.000000 0.000000
# 4 0.000000 0.000000 0.000000 0.069207 0.000000 0.000000
# 5 0.000000 0.000000 0.000000 0.000000 -0.944101 0.000000
# 6 0.000000 0.000000 0.000000 0.000000 0.000000 0.050879
#
#
# Mechanical properties :
#
#
# Convention : Reuss Voigt Hill
#
# Bulk Modulus (GPa) = 47.02801 51.03859 49.03330
# Shear Modulus (GPa) = -6.77472 17.87918 5.55223
#
# Velocity S-wave (km/s) = -1.94249 3.15563 1.75852
# Velocity P-wave (km/s) = 4.60019 6.45785 5.60650
#
# Compressibility (1/GPa) = 0.02126393
#
# Stress axis : x y z
#
# Youngs Moduli (GPa) = 87.79712 76.10734 39.14325
#
# Poissons Ratio (x) = 0.07622 0.29261
# Poissons Ratio (y) = 0.08793 0.23209
# Poissons Ratio (z) = 0.65632 0.45127
#
# Static dielectric constant tensor:
#      x y z
#    x 1.618820 0.000000 0.000000 
#    y 0.000000 1.630220 0.000000 
#    z 0.000000 0.000000 1.599280 
# 
# From -- ./inp_files/38306.got.cif
#   From: 2010.05.17/outbox.cif.g08.bks.cpg/sg69_20_cif.got.tgz:38306.got - 2010.06.03 19:29:58.
