data_PCOD9513759
_publ_section_title
;
Structure prediction by ZEFSAII (Michael W. Deem and Ramdas Pophale) SiO2 
 PCOD9513759
Probable space group: F M M M
;
_chemical_formula_sum "Si O2"
_cell_formula_units_Z 112
_cell_length_a 8.982578
_cell_length_b 37.775148
_cell_length_c 18.384004
_cell_angle_alpha 90.000000
_cell_angle_beta 90.000000
_cell_angle_gamma 90.000000
_cell_volume 6238.027392
_symmetry_space_group_name_H-M "F M M M"
_symmetry_group_IT_number 69
_symmetry_cell_setting 'orthorhombic'
loop_
_space_group_symop_operation_xyz
x,y,z
-x,-y,z
x,-y,-z
-x,y,-z
-x,-y,-z
x,y,-z
-x,y,z
x,-y,z
x,1/2+y,1/2+z
-x,1/2-y,1/2+z
x,1/2-y,1/2-z
-x,1/2+y,1/2-z
-x,1/2-y,1/2-z
x,1/2+y,1/2-z
-x,1/2+y,1/2+z
x,1/2-y,1/2+z
1/2+x,y,1/2+z
1/2-x,-y,1/2+z
1/2+x,-y,1/2-z
1/2-x,y,1/2-z
1/2-x,-y,1/2-z
1/2+x,y,1/2-z
1/2-x,y,1/2+z
1/2+x,-y,1/2+z
1/2+x,1/2+y,z
1/2-x,1/2-y,z
1/2+x,1/2-y,-z
1/2-x,1/2+y,-z
1/2-x,1/2-y,-z
1/2+x,1/2+y,-z
1/2-x,1/2+y,z
1/2+x,1/2-y,z
loop_
_atom_site_type_symbol
_atom_site_label
_atom_site_fract_x
_atom_site_fract_y
_atom_site_fract_z
Si Si1 0.179240 0.429552 0.829558
Si Si2 0.180809 0.500000 0.916931
Si Si3 0.173372 0.214292 0.088381
Si Si4 0.179404 0.864087 0.913364
O O1 0.250000 0.431237 0.750000
O O2 0.225075 0.464531 0.874641
O O3 0.238982 0.394918 0.870554
O O4 0.000000 0.428699 0.825039
O O5 0.000000 0.500000 0.918973
O O6 0.234666 0.500000 0.000000
O O7 0.250000 0.250000 0.115509
O O8 0.229630 0.175417 0.110684
O O9 0.000000 0.216070 0.106862
O O10 0.183994 0.214380 0.000000
O O11 0.000000 0.866214 0.903243
O O12 0.207011 0.867552 0.000000
#
# Coordination Sequence:
#
# PCOD9513759 Si02
#       4
#    32  16  32  32
#     4  11  22  36  55  77 105 140 175 212 256 307
#     4   9  19  36  57  81 106 131 166 213 258 302
#     4   8  14  25  43  69 101 134 167 208 256 303
#     4   9  18  33  52  76 107 139 173 216 262 307
#
# _framework density 17.954395000000002
#
# number of rings (size 3 to 8) (size 9 to 14) (size 15 to 20)
#    0.000    2.714    0.000    3.857    0.000    2.857 
#    0.000    5.000    0.000    6.000    0.000    6.000 
#    0.000    0.000    0.000    0.000    0.000    0.000 
#
# Total GULP energy -156089.383469 kJ/mol
# GULP energy per Si atom -5574.620838 kJ/mol
# Density = 1.791353 g / cm^3
# Si number density = 17.954395 Si / 1000 Ang^3
#
#
#
# Elastic Constant Matrix: (Units=GPa)
#
#
# Indices 1 2 3 4 5 6 
#
# 1 42.1612 67.3926 41.1748 0.0000 0.0000 0.0000
# 2 67.3926 232.9628 90.7307 0.0000 0.0000 0.0000
# 3 41.1748 90.7307 90.0282 0.0000 0.0000 0.0000
# 4 0.0000 0.0000 0.0000 -10.0629 0.0000 0.0000
# 5 0.0000 0.0000 0.0000 0.0000 13.7667 0.0000
# 6 0.0000 0.0000 0.0000 0.0000 0.0000 27.4775
#
#
#
# Elastic Compliance Matrix: (Units=1/GPa)
#
#
# Indices 1 2 3 4 5 6 
#
# 1 0.053789 -0.009843 -0.014681 0.000000 0.000000 0.000000
# 2 -0.009843 0.008867 -0.004435 0.000000 0.000000 0.000000
# 3 -0.014681 -0.004435 0.022291 0.000000 0.000000 0.000000
# 4 0.000000 0.000000 0.000000 -0.099375 0.000000 0.000000
# 5 0.000000 0.000000 0.000000 0.000000 0.072639 0.000000
# 6 0.000000 0.000000 0.000000 0.000000 0.000000 0.036393
#
#
# Mechanical properties :
#
#
# Convention : Reuss Voigt Hill
#
# Bulk Modulus (GPa) = 36.99519 84.86093 60.92806
# Shear Modulus (GPa) = 30.95346 17.29318 24.12332
#
# Velocity S-wave (km/s) = 4.15662 3.10687 3.66948
# Velocity P-wave (km/s) = 6.60957 7.76128 7.20847
#
# Compressibility (1/GPa) = 0.02703054
#
# Stress axis : x y z
#
# Youngs Moduli (GPa) = 18.59109 112.77834 44.86027
#
# Poissons Ratio (x) = 1.11002 0.65861
# Poissons Ratio (y) = 0.18298 0.19894
# Poissons Ratio (z) = 0.27294 0.50013
#
# Static dielectric constant tensor:
#      x y z
#    x 1.601210 0.000000 0.000000 
#    y 0.000000 1.626700 0.000000 
#    z 0.000000 0.000000 1.590950 
# 
# From -- ./inp_files/8507.got.cif
#   From: 2010.05.17/outbox.cif.g08.bks.cpg/sg69_5_cif.got.tgz:8507.got - 2010.06.03 19:29:58.
