data_PCOD9513579
_publ_section_title
;
Structure prediction by ZEFSAII (Michael W. Deem and Ramdas Pophale) SiO2 
 PCOD9513579
Probable space group: F M M M
;
_chemical_formula_sum "Si O2"
_cell_formula_units_Z 80
_cell_length_a 10.361175
_cell_length_b 15.691044
_cell_length_c 22.053691
_cell_angle_alpha 90.000000
_cell_angle_beta 90.000000
_cell_angle_gamma 90.000000
_cell_volume 3585.437319
_symmetry_space_group_name_H-M "F M M M"
_symmetry_group_IT_number 69
_symmetry_cell_setting 'orthorhombic'
loop_
_space_group_symop_operation_xyz
x,y,z
-x,-y,z
x,-y,-z
-x,y,-z
-x,-y,-z
x,y,-z
-x,y,z
x,-y,z
x,1/2+y,1/2+z
-x,1/2-y,1/2+z
x,1/2-y,1/2-z
-x,1/2+y,1/2-z
-x,1/2-y,1/2-z
x,1/2+y,1/2-z
-x,1/2+y,1/2+z
x,1/2-y,1/2+z
1/2+x,y,1/2+z
1/2-x,-y,1/2+z
1/2+x,-y,1/2-z
1/2-x,y,1/2-z
1/2-x,-y,1/2-z
1/2+x,y,1/2-z
1/2-x,y,1/2+z
1/2+x,-y,1/2+z
1/2+x,1/2+y,z
1/2-x,1/2-y,z
1/2+x,1/2-y,-z
1/2-x,1/2+y,-z
1/2-x,1/2-y,-z
1/2+x,1/2+y,-z
1/2-x,1/2+y,z
1/2+x,1/2-y,z
loop_
_atom_site_type_symbol
_atom_site_label
_atom_site_fract_x
_atom_site_fract_y
_atom_site_fract_z
Si Si1 0.500000 0.158447 0.281529
Si Si2 0.355521 0.176225 0.500000
Si Si3 0.782679 0.101811 0.127013
Si Si4 0.500000 0.596500 0.651499
O O1 0.500000 0.250000 0.250000
O O2 0.624790 0.143546 0.323143
O O3 0.500000 0.095584 0.224256
O O4 0.500000 0.212209 0.500000
O O5 0.250000 0.250000 0.500000
O O6 0.335666 0.121044 0.560451
O O7 0.635756 0.136051 0.131410
O O8 0.781529 0.000000 0.138340
O O9 0.500000 0.500000 0.626956
#
# Coordination Sequence:
#
# PCOD9513579 Si02
#       4
#    16  16  32  16
#     4  12  26  41  70 104 145 187 242 300 357 417
#     4  12  29  47  74 104 144 183 240 299 368 424
#     4  11  25  47  75 104 142 193 244 292 358 438
#     4  10  24  43  68 104 144 185 236 292 354 427
#
# _framework density 22.312480999999998
#
# number of rings (size 3 to 8) (size 9 to 14) (size 15 to 20)
#    0.000    0.800    2.000    3.600    8.400    5.600 
#    0.000    3.000    0.000    0.000    0.000    0.000 
#    0.000    0.000    0.000    0.000    0.000    0.000 
#
# Total GULP energy -111978.147084 kJ/mol
# GULP energy per Si atom -5598.907354 kJ/mol
# Density = 2.226170 g / cm^3
# Si number density = 22.312481 Si / 1000 Ang^3
#
#
#
# Elastic Constant Matrix: (Units=GPa)
#
#
# Indices 1 2 3 4 5 6 
#
# 1 228.8616 35.9543 56.4074 0.0000 0.0000 0.0000
# 2 35.9543 91.7611 13.1258 0.0000 0.0000 0.0000
# 3 56.4074 13.1258 122.3529 0.0000 0.0000 0.0000
# 4 0.0000 0.0000 0.0000 33.9968 0.0000 0.0000
# 5 0.0000 0.0000 0.0000 0.0000 30.5576 0.0000
# 6 0.0000 0.0000 0.0000 0.0000 0.0000 25.7114
#
#
#
# Elastic Compliance Matrix: (Units=1/GPa)
#
#
# Indices 1 2 3 4 5 6 
#
# 1 0.005182 -0.001715 -0.002205 0.000000 0.000000 0.000000
# 2 -0.001715 0.011635 -0.000457 0.000000 0.000000 0.000000
# 3 -0.002205 -0.000457 0.009239 0.000000 0.000000 0.000000
# 4 0.000000 0.000000 0.000000 0.029415 0.000000 0.000000
# 5 0.000000 0.000000 0.000000 0.000000 0.032725 0.000000
# 6 0.000000 0.000000 0.000000 0.000000 0.000000 0.038893
#
#
# Mechanical properties :
#
#
# Convention : Reuss Voigt Hill
#
# Bulk Modulus (GPa) = 57.80062 72.66118 65.23090
# Shear Modulus (GPa) = 35.30770 40.55236 37.93003
#
# Velocity S-wave (km/s) = 3.98228 4.26781 4.12751
# Velocity P-wave (km/s) = 6.86338 7.54464 7.21206
#
# Compressibility (1/GPa) = 0.01730085
#
# Stress axis : x y z
#
# Youngs Moduli (GPa) = 192.95989 85.94495 108.23901
#
# Poissons Ratio (x) = 0.14741 0.23869
# Poissons Ratio (y) = 0.33096 0.04952
# Poissons Ratio (z) = 0.42552 0.03932
#
# Static dielectric constant tensor:
#      x y z
#    x 1.834980 0.000000 0.000000 
#    y 0.000000 1.852000 0.000000 
#    z 0.000000 0.000000 1.754510 
# 
# From -- ./inp_files/8801.got.cif
#   From: 2010.05.17/outbox.cif.g08.bks.cpg/sg69_5_cif.got.tgz:8801.got - 2010.06.03 19:29:58.
