data_PCOD9513519
_publ_section_title
;
Structure prediction by ZEFSAII (Michael W. Deem and Ramdas Pophale) SiO2 
 PCOD9513519
Probable space group: F M M M
;
_chemical_formula_sum "Si O2"
_cell_formula_units_Z 192
_cell_length_a 17.962804
_cell_length_b 18.346589
_cell_length_c 30.187717
_cell_angle_alpha 90.000000
_cell_angle_beta 90.000000
_cell_angle_gamma 90.000000
_cell_volume 9948.548766
_symmetry_space_group_name_H-M "F M M M"
_symmetry_group_IT_number 69
_symmetry_cell_setting 'orthorhombic'
loop_
_space_group_symop_operation_xyz
x,y,z
-x,-y,z
x,-y,-z
-x,y,-z
-x,-y,-z
x,y,-z
-x,y,z
x,-y,z
x,1/2+y,1/2+z
-x,1/2-y,1/2+z
x,1/2-y,1/2-z
-x,1/2+y,1/2-z
-x,1/2-y,1/2-z
x,1/2+y,1/2-z
-x,1/2+y,1/2+z
x,1/2-y,1/2+z
1/2+x,y,1/2+z
1/2-x,-y,1/2+z
1/2+x,-y,1/2-z
1/2-x,y,1/2-z
1/2-x,-y,1/2-z
1/2+x,y,1/2-z
1/2-x,y,1/2+z
1/2+x,-y,1/2+z
1/2+x,1/2+y,z
1/2-x,1/2-y,z
1/2+x,1/2-y,-z
1/2-x,1/2+y,-z
1/2-x,1/2-y,-z
1/2+x,1/2+y,-z
1/2-x,1/2+y,z
1/2+x,1/2-y,z
loop_
_atom_site_type_symbol
_atom_site_label
_atom_site_fract_x
_atom_site_fract_y
_atom_site_fract_z
Si Si1 0.087196 0.329596 0.946780
Si Si2 0.869290 0.831793 0.749533
Si Si3 0.873057 0.337980 0.448740
Si Si4 0.500000 0.912390 0.608522
Si Si5 0.755933 0.167652 0.325922
Si Si6 0.000000 0.585232 0.290465
Si Si7 0.729129 0.086447 0.914555
O O1 0.116155 0.247371 0.937623
O O2 0.146063 0.384792 0.925099
O O3 0.000000 0.336297 0.933191
O O4 0.089595 0.339767 0.000000
O O5 0.900942 0.750000 0.750000
O O6 0.831240 0.842358 0.702085
O O7 0.807155 0.835072 0.788177
O O8 0.929588 0.889293 0.762992
O O9 0.896024 0.346836 0.500000
O O10 0.927720 0.382817 0.416966
O O11 0.789652 0.368283 0.442983
O O12 0.500000 0.884570 0.659277
O O13 0.500000 0.000000 0.607676
O O14 0.750000 0.250000 0.344979
O O15 0.750822 0.108766 0.364202
O O16 0.000000 0.500000 0.295530
O O17 0.735592 0.000000 0.921913
#
# Coordination Sequence:
#
# PCOD9513519 Si02
#       7
#    32  32  32  16  32  16  32
#     4  10  22  43  66  87 116 162 214 254 300 359
#     4   9  19  38  62  86 111 149 201 249 295 349
#     4  11  22  40  63  89 122 159 207 257 305 364
#     4  11  23  37  58  91 129 164 198 247 315 379
#     4   9  19  39  64  86 113 150 199 251 299 353
#     4  11  23  36  53  84 122 159 195 234 294 370
#     4  12  25  38  59  95 128 160 202 251 309 369
#
# _framework density 19.299296999999999
#
# number of rings (size 3 to 8) (size 9 to 14) (size 15 to 20)
#    0.000    1.667    0.833    5.000    0.000    8.333 
#    1.500    2.500    0.000    0.000    0.000    0.000 
#    0.000    0.000    0.000    0.000    0.000    0.000 
#
# Total GULP energy -268049.711794 kJ/mol
# GULP energy per Si atom -5584.368996 kJ/mol
# Density = 1.925537 g / cm^3
# Si number density = 19.299297 Si / 1000 Ang^3
#
#
#
# Elastic Constant Matrix: (Units=GPa)
#
#
# Indices 1 2 3 4 5 6 
#
# 1 96.7308 38.1969 13.8154 0.0000 0.0000 0.0000
# 2 38.1969 69.0338 20.2693 0.0000 0.0000 0.0000
# 3 13.8154 20.2693 56.3923 0.0000 0.0000 0.0000
# 4 0.0000 0.0000 0.0000 7.8737 0.0000 0.0000
# 5 0.0000 0.0000 0.0000 0.0000 12.6670 0.0000
# 6 0.0000 0.0000 0.0000 0.0000 0.0000 45.8043
#
#
#
# Elastic Compliance Matrix: (Units=1/GPa)
#
#
# Indices 1 2 3 4 5 6 
#
# 1 0.013252 -0.007132 -0.000683 0.000000 0.000000 0.000000
# 2 -0.007132 0.020033 -0.005453 0.000000 0.000000 0.000000
# 3 -0.000683 -0.005453 0.019860 0.000000 0.000000 0.000000
# 4 0.000000 0.000000 0.000000 0.127005 0.000000 0.000000
# 5 0.000000 0.000000 0.000000 0.000000 0.078945 0.000000
# 6 0.000000 0.000000 0.000000 0.000000 0.000000 0.021832
#
#
# Mechanical properties :
#
#
# Convention : Reuss Voigt Hill
#
# Bulk Modulus (GPa) = 37.58174 40.74668 39.16421
# Shear Modulus (GPa) = 15.80614 23.26071 19.53342
#
# Velocity S-wave (km/s) = 2.86492 3.47545 3.18485
# Velocity P-wave (km/s) = 5.51898 6.10442 5.81906
#
# Compressibility (1/GPa) = 0.02660866
#
# Stress axis : x y z
#
# Youngs Moduli (GPa) = 75.46212 49.91814 50.35158
#
# Poissons Ratio (x) = 0.35600 0.03440
# Poissons Ratio (y) = 0.53817 0.27458
# Poissons Ratio (z) = 0.05155 0.27222
#
# Static dielectric constant tensor:
#      x y z
#    x 1.676480 0.000000 0.000000 
#    y 0.000000 1.651740 0.000000 
#    z 0.000000 0.000000 1.657990 
# 
# From -- ./inp_files/46443.got.cif
#   From: 2010.05.17/outbox.cif.g08.bks.cpg/sg69_24_cif.got.tgz:46443.got - 2010.06.03 19:29:58.
