data_PCOD9513667
_publ_section_title
;
Structure prediction by ZEFSAII (Michael W. Deem and Ramdas Pophale) SiO2 
 PCOD9513667
Probable space group: F M M M
;
_chemical_formula_sum "Si O2"
_cell_formula_units_Z 160
_cell_length_a 15.405423
_cell_length_b 28.187123
_cell_length_c 18.988837
_cell_angle_alpha 90.000000
_cell_angle_beta 90.000000
_cell_angle_gamma 90.000000
_cell_volume 8245.609146
_symmetry_space_group_name_H-M "F M M M"
_symmetry_group_IT_number 69
_symmetry_cell_setting 'orthorhombic'
loop_
_space_group_symop_operation_xyz
x,y,z
-x,-y,z
x,-y,-z
-x,y,-z
-x,-y,-z
x,y,-z
-x,y,z
x,-y,z
x,1/2+y,1/2+z
-x,1/2-y,1/2+z
x,1/2-y,1/2-z
-x,1/2+y,1/2-z
-x,1/2-y,1/2-z
x,1/2+y,1/2-z
-x,1/2+y,1/2+z
x,1/2-y,1/2+z
1/2+x,y,1/2+z
1/2-x,-y,1/2+z
1/2+x,-y,1/2-z
1/2-x,y,1/2-z
1/2-x,-y,1/2-z
1/2+x,y,1/2-z
1/2-x,y,1/2+z
1/2+x,-y,1/2+z
1/2+x,1/2+y,z
1/2-x,1/2-y,z
1/2+x,1/2-y,-z
1/2-x,1/2+y,-z
1/2-x,1/2-y,-z
1/2+x,1/2+y,-z
1/2-x,1/2+y,z
1/2+x,1/2-y,z
loop_
_atom_site_type_symbol
_atom_site_label
_atom_site_fract_x
_atom_site_fract_y
_atom_site_fract_z
Si Si1 0.601222 0.052097 0.142911
Si Si2 0.893547 0.150138 0.578933
Si Si3 0.896832 0.701717 0.217336
Si Si4 0.347106 0.896370 0.278783
Si Si5 0.104855 0.944177 0.920754
O O1 0.500000 0.048707 0.123431
O O2 0.636249 0.096822 0.099114
O O3 0.605316 0.067889 0.224562
O O4 0.641380 0.000000 0.132629
O O5 0.867654 0.162838 0.500000
O O6 0.862780 0.185084 0.640855
O O7 0.000000 0.149643 0.581402
O O8 0.860408 0.750000 0.250000
O O9 0.883603 0.656375 0.267514
O O10 0.000000 0.708578 0.208300
O O11 0.250000 0.895967 0.250000
O O12 0.354785 0.914463 0.357683
O O13 0.000000 0.939554 0.916312
O O14 0.124833 0.000000 0.911890
O O15 0.131067 0.929997 0.000000
#
# Coordination Sequence:
#
# PCOD9513667 Si02
#       5
#    32  32  32  32  32
#     4   9  17  29  46  68  95 131 172 206 238 290
#     4   8  14  26  45  70  98 122 148 191 245 295
#     4   9  18  34  54  72  92 124 169 216 259 310
#     4  11  21  32  49  74 104 134 166 210 266 323
#     4   9  18  34  56  79 105 141 184 228 267 302
#
# _framework density 19.404266
#
# number of rings (size 3 to 8) (size 9 to 14) (size 15 to 20)
#    0.000    2.800    0.000    4.200    0.000    4.000 
#    0.000    7.000    0.000    3.600    0.000    7.000 
#    0.000    0.000    0.000    0.000    0.000    0.000 
#
# Total GULP energy -223020.141588 kJ/mol
# GULP energy per Si atom -5575.503540 kJ/mol
# Density = 1.936010 g / cm^3
# Si number density = 19.404266 Si / 1000 Ang^3
#
#
#
# Elastic Constant Matrix: (Units=GPa)
#
#
# Indices 1 2 3 4 5 6 
#
# 1 10.6523 1.3974 -2.8421 0.0000 0.0000 0.0000
# 2 1.3974 132.9417 83.8099 0.0000 0.0000 0.0000
# 3 -2.8421 83.8099 164.8357 0.0000 0.0000 0.0000
# 4 0.0000 0.0000 0.0000 7.4831 0.0000 0.0000
# 5 0.0000 0.0000 0.0000 0.0000 6.7528 0.0000
# 6 0.0000 0.0000 0.0000 0.0000 0.0000 -11.8135
#
#
#
# Elastic Compliance Matrix: (Units=1/GPa)
#
#
# Indices 1 2 3 4 5 6 
#
# 1 0.095113 -0.002993 0.003162 0.000000 0.000000 0.000000
# 2 -0.002993 0.011165 -0.005728 0.000000 0.000000 0.000000
# 3 0.003162 -0.005728 0.009034 0.000000 0.000000 0.000000
# 4 0.000000 0.000000 0.000000 0.133634 0.000000 0.000000
# 5 0.000000 0.000000 0.000000 0.000000 0.148087 0.000000
# 6 0.000000 0.000000 0.000000 0.000000 0.000000 -0.084649
#
#
# Mechanical properties :
#
#
# Convention : Reuss Voigt Hill
#
# Bulk Modulus (GPa) = 9.59763 52.57335 31.08549
# Shear Modulus (GPa) = 13.95738 15.55544 14.75641
#
# Velocity S-wave (km/s) = 2.68488 2.83442 2.76066
# Velocity P-wave (km/s) = 3.81684 6.15341 5.12019
#
# Compressibility (1/GPa) = 0.10419234
#
# Stress axis : x y z
#
# Youngs Moduli (GPa) = 10.51380 89.56693 110.69673
#
# Poissons Ratio (x) = 0.26807 -0.34999
# Poissons Ratio (y) = 0.03147 0.63411
# Poissons Ratio (z) = -0.03324 0.51307
#
# Static dielectric constant tensor:
#      x y z
#    x 1.737090 0.000000 0.000000 
#    y 0.000000 1.697100 0.000000 
#    z 0.000000 0.000000 1.678180 
# 
# From -- ./inp_files/23120.got.cif
#   From: 2010.05.17/outbox.cif.g08.bks.cpg/sg69_12_cif.got.tgz:23120.got - 2010.06.03 19:29:58.
