data_PCOD9513163
_publ_section_title
;
Structure prediction by ZEFSAII (Michael W. Deem and Ramdas Pophale) SiO2 
 PCOD9513163
Probable space group: F M M M
;
_chemical_formula_sum "Si O2"
_cell_formula_units_Z 200
_cell_length_a 18.006025
_cell_length_b 21.387337
_cell_length_c 27.431161
_cell_angle_alpha 90.000000
_cell_angle_beta 90.000000
_cell_angle_gamma 90.000000
_cell_volume 10563.765467
_symmetry_space_group_name_H-M "F M M M"
_symmetry_group_IT_number 69
_symmetry_cell_setting 'orthorhombic'
loop_
_space_group_symop_operation_xyz
x,y,z
-x,-y,z
x,-y,-z
-x,y,-z
-x,-y,-z
x,y,-z
-x,y,z
x,-y,z
x,1/2+y,1/2+z
-x,1/2-y,1/2+z
x,1/2-y,1/2-z
-x,1/2+y,1/2-z
-x,1/2-y,1/2-z
x,1/2+y,1/2-z
-x,1/2+y,1/2+z
x,1/2-y,1/2+z
1/2+x,y,1/2+z
1/2-x,-y,1/2+z
1/2+x,-y,1/2-z
1/2-x,y,1/2-z
1/2-x,-y,1/2-z
1/2+x,y,1/2-z
1/2-x,y,1/2+z
1/2+x,-y,1/2+z
1/2+x,1/2+y,z
1/2-x,1/2-y,z
1/2+x,1/2-y,-z
1/2-x,1/2+y,-z
1/2-x,1/2-y,-z
1/2+x,1/2+y,-z
1/2-x,1/2+y,z
1/2+x,1/2-y,z
loop_
_atom_site_type_symbol
_atom_site_label
_atom_site_fract_x
_atom_site_fract_y
_atom_site_fract_z
Si Si1 0.582476 0.653845 0.442209
Si Si2 0.587313 0.765126 0.620263
Si Si3 0.337352 0.069795 0.739122
Si Si4 0.089034 0.308432 0.214764
Si Si5 0.362533 0.594008 0.124481
Si Si6 0.279468 0.927876 0.056832
Si Si7 0.000000 0.500000 0.605892
O O1 0.579783 0.644745 0.500000
O O2 0.500000 0.637494 0.422054
O O3 0.594861 0.726313 0.429275
O O4 0.651688 0.613311 0.424655
O O5 0.500000 0.776895 0.629850
O O6 0.612911 0.716467 0.661850
O O7 0.625508 0.831599 0.621343
O O8 0.250000 0.072059 0.750000
O O9 0.375279 0.127411 0.766956
O O10 0.349761 0.077617 0.681238
O O11 0.365028 0.000000 0.753047
O O12 0.106918 0.250000 0.250000
O O13 0.000000 0.316693 0.215297
O O14 0.292122 0.578419 0.090864
O O15 0.434209 0.554671 0.107536
O O16 0.303107 0.000000 0.056928
O O17 0.262266 0.911086 0.000000
#
# Coordination Sequence:
#
# PCOD9513163 Si02
#       7
#    32  32  32  32  32  32   8
#     4   9  20  40  65  92 123 163 208 250 306 374
#     4  10  21  38  61  90 124 158 204 261 307 361
#     4  11  25  41  59  87 124 163 205 257 310 365
#     4  10  21  38  61  87 118 156 205 256 305 365
#     4  12  23  41  66  91 124 163 211 256 308 376
#     4  10  22  41  63  92 129 163 202 258 313 364
#     4  12  24  40  71  98 114 170 218 246 307 384
#
# _framework density 18.932642999999999
#
# number of rings (size 3 to 8) (size 9 to 14) (size 15 to 20)
#    0.000    1.600    4.000    0.000    3.360    2.240 
#    0.000    4.000    0.000    2.880    0.000    0.000 
#    0.000    0.000    0.000    0.000    0.000    0.000 
#
# Total GULP energy -278407.730658 kJ/mol
# GULP energy per Si atom -5568.154613 kJ/mol
# Density = 1.888955 g / cm^3
# Si number density = 18.932643 Si / 1000 Ang^3
#
#
#
# Elastic Constant Matrix: (Units=GPa)
#
#
# Indices 1 2 3 4 5 6 
#
# 1 96.6188 68.0916 20.7065 0.0000 0.0000 0.0000
# 2 68.0916 159.8326 22.7632 0.0000 0.0000 0.0000
# 3 20.7065 22.7632 15.6423 0.0000 0.0000 0.0000
# 4 0.0000 0.0000 0.0000 22.4339 0.0000 0.0000
# 5 0.0000 0.0000 0.0000 0.0000 15.6442 0.0000
# 6 0.0000 0.0000 0.0000 0.0000 0.0000 25.3520
#
#
#
# Elastic Compliance Matrix: (Units=1/GPa)
#
#
# Indices 1 2 3 4 5 6 
#
# 1 0.017290 -0.005180 -0.015350 0.000000 0.000000 0.000000
# 2 -0.005180 0.009444 -0.006886 0.000000 0.000000 0.000000
# 3 -0.015350 -0.006886 0.094270 0.000000 0.000000 0.000000
# 4 0.000000 0.000000 0.000000 0.044575 0.000000 0.000000
# 5 0.000000 0.000000 0.000000 0.000000 0.063922 0.000000
# 6 0.000000 0.000000 0.000000 0.000000 0.000000 0.039445
#
#
# Mechanical properties :
#
#
# Convention : Reuss Voigt Hill
#
# Bulk Modulus (GPa) = 15.11217 55.02401 35.06809
# Shear Modulus (GPa) = 14.45773 23.38817 18.92295
#
# Velocity S-wave (km/s) = 2.76640 3.51855 3.16490
# Velocity P-wave (km/s) = 4.26654 6.75522 5.64962
#
# Compressibility (1/GPa) = 0.06617184
#
# Stress axis : x y z
#
# Youngs Moduli (GPa) = 57.83678 105.88765 10.60780
#
# Poissons Ratio (x) = 0.54847 0.16283
# Poissons Ratio (y) = 0.29958 0.07305
# Poissons Ratio (z) = 0.88780 0.72919
#
# Static dielectric constant tensor:
#      x y z
#    x 1.648020 0.000000 0.000000 
#    y 0.000000 1.642010 0.000000 
#    z 0.000000 0.000000 1.695450 
# 
# From -- ./inp_files/41991.got.cif
#   From: 2010.05.17/outbox.cif.g08.bks.cpg/sg69_21_cif.got.tgz:41991.got - 2010.06.03 19:29:58.
