data_PCOD9513692
_publ_section_title
;
Structure prediction by ZEFSAII (Michael W. Deem and Ramdas Pophale) SiO2 
 PCOD9513692
Probable space group: F M M M
;
_chemical_formula_sum "Si O2"
_cell_formula_units_Z 144
_cell_length_a 19.747747
_cell_length_b 21.586211
_cell_length_c 19.354108
_cell_angle_alpha 90.000000
_cell_angle_beta 90.000000
_cell_angle_gamma 90.000000
_cell_volume 8250.250453
_symmetry_space_group_name_H-M "F M M M"
_symmetry_group_IT_number 69
_symmetry_cell_setting 'orthorhombic'
loop_
_space_group_symop_operation_xyz
x,y,z
-x,-y,z
x,-y,-z
-x,y,-z
-x,-y,-z
x,y,-z
-x,y,z
x,-y,z
x,1/2+y,1/2+z
-x,1/2-y,1/2+z
x,1/2-y,1/2-z
-x,1/2+y,1/2-z
-x,1/2-y,1/2-z
x,1/2+y,1/2-z
-x,1/2+y,1/2+z
x,1/2-y,1/2+z
1/2+x,y,1/2+z
1/2-x,-y,1/2+z
1/2+x,-y,1/2-z
1/2-x,y,1/2-z
1/2-x,-y,1/2-z
1/2+x,y,1/2-z
1/2-x,y,1/2+z
1/2+x,-y,1/2+z
1/2+x,1/2+y,z
1/2-x,1/2-y,z
1/2+x,1/2-y,-z
1/2-x,1/2+y,-z
1/2-x,1/2-y,-z
1/2+x,1/2+y,-z
1/2-x,1/2+y,z
1/2+x,1/2-y,z
loop_
_atom_site_type_symbol
_atom_site_label
_atom_site_fract_x
_atom_site_fract_y
_atom_site_fract_z
Si Si1 0.145431 0.710309 0.420861
Si Si2 0.178427 0.072751 0.289691
Si Si3 0.582101 0.000000 0.578707
Si Si4 0.296530 0.345605 0.421039
Si Si5 0.579800 0.616074 0.825870
O O1 0.121761 0.700334 0.500000
O O2 0.218494 0.676614 0.414063
O O3 0.159578 0.783017 0.411041
O O4 0.096826 0.679444 0.365254
O O5 0.250000 0.078778 0.250000
O O6 0.186016 0.104167 0.363994
O O7 0.122432 0.106901 0.243329
O O8 0.161964 0.000000 0.294477
O O9 0.601871 0.060799 0.621599
O O10 0.500000 0.000000 0.575339
O O11 0.607823 0.000000 0.500000
O O12 0.305953 0.366903 0.500000
O O13 0.500000 0.609852 0.813406
#
# Coordination Sequence:
#
# PCOD9513692 Si02
#       5
#    32  32  16  32  32
#     4   9  18  35  57  83 113 147 186 229 281 341
#     4  11  22  37  56  82 115 151 192 238 279 331
#     4   9  18  32  51  78 115 157 185 212 275 349
#     4   9  19  37  59  81 110 148 190 233 279 330
#     4  11  21  35  55  83 118 151 184 231 288 340
#
# _framework density 17.454014999999998
#
# number of rings (size 3 to 8) (size 9 to 14) (size 15 to 20)
#    0.000    2.111    3.333    2.000    0.000    2.667 
#    0.000    2.222    0.000    2.000    0.000    1.556 
#    0.000    0.000    0.000    0.000    0.000    0.000 
#
# Total GULP energy -200919.364695 kJ/mol
# GULP energy per Si atom -5581.093464 kJ/mol
# Density = 1.741429 g / cm^3
# Si number density = 17.454015 Si / 1000 Ang^3
#
#
#
# Elastic Constant Matrix: (Units=GPa)
#
#
# Indices 1 2 3 4 5 6 
#
# 1 50.6479 20.7421 32.7997 0.0000 0.0000 0.0000
# 2 20.7421 47.3850 47.7858 0.0000 0.0000 0.0000
# 3 32.7997 47.7858 117.0157 0.0000 0.0000 0.0000
# 4 0.0000 0.0000 0.0000 20.0184 0.0000 0.0000
# 5 0.0000 0.0000 0.0000 0.0000 16.0429 0.0000
# 6 0.0000 0.0000 0.0000 0.0000 0.0000 17.2393
#
#
#
# Elastic Compliance Matrix: (Units=1/GPa)
#
#
# Indices 1 2 3 4 5 6 
#
# 1 0.025306 -0.006671 -0.004369 0.000000 0.000000 0.000000
# 2 -0.006671 0.037639 -0.013501 0.000000 0.000000 0.000000
# 3 -0.004369 -0.013501 0.015284 0.000000 0.000000 0.000000
# 4 0.000000 0.000000 0.000000 0.049954 0.000000 0.000000
# 5 0.000000 0.000000 0.000000 0.000000 0.062333 0.000000
# 6 0.000000 0.000000 0.000000 0.000000 0.000000 0.058007
#
#
# Mechanical properties :
#
#
# Convention : Reuss Voigt Hill
#
# Bulk Modulus (GPa) = 34.30947 46.41154 40.36050
# Shear Modulus (GPa) = 16.26974 18.24152 17.25563
#
# Velocity S-wave (km/s) = 3.05642 3.23634 3.14767
# Velocity P-wave (km/s) = 5.67057 6.37288 6.03196
#
# Compressibility (1/GPa) = 0.02914648
#
# Stress axis : x y z
#
# Youngs Moduli (GPa) = 39.51695 26.56833 65.42927
#
# Poissons Ratio (x) = 0.17725 0.28585
# Poissons Ratio (y) = 0.26364 0.88333
# Poissons Ratio (z) = 0.17264 0.35869
#
# Static dielectric constant tensor:
#      x y z
#    x 1.578770 0.000000 0.000000 
#    y 0.000000 1.591910 0.000000 
#    z 0.000000 0.000000 1.580170 
# 
# From -- ./inp_files/22857.got.cif
#   From: 2010.05.17/outbox.cif.g08.bks.cpg/sg69_12_cif.got.tgz:22857.got - 2010.06.03 19:29:58.
