data_PCOD9513891
_publ_section_title
;
Structure prediction by ZEFSAII (Michael W. Deem and Ramdas Pophale) SiO2 
 PCOD9513891
Probable space group: F M M M
;
_chemical_formula_sum "Si O2"
_cell_formula_units_Z 104
_cell_length_a 24.893772
_cell_length_b 13.274788
_cell_length_c 14.499461
_cell_angle_alpha 90.000000
_cell_angle_beta 90.000000
_cell_angle_gamma 90.000000
_cell_volume 4791.485297
_symmetry_space_group_name_H-M "F M M M"
_symmetry_group_IT_number 69
_symmetry_cell_setting 'orthorhombic'
loop_
_space_group_symop_operation_xyz
x,y,z
-x,-y,z
x,-y,-z
-x,y,-z
-x,-y,-z
x,y,-z
-x,y,z
x,-y,z
x,1/2+y,1/2+z
-x,1/2-y,1/2+z
x,1/2-y,1/2-z
-x,1/2+y,1/2-z
-x,1/2-y,1/2-z
x,1/2+y,1/2-z
-x,1/2+y,1/2+z
x,1/2-y,1/2+z
1/2+x,y,1/2+z
1/2-x,-y,1/2+z
1/2+x,-y,1/2-z
1/2-x,y,1/2-z
1/2-x,-y,1/2-z
1/2+x,y,1/2-z
1/2-x,y,1/2+z
1/2+x,-y,1/2+z
1/2+x,1/2+y,z
1/2-x,1/2-y,z
1/2+x,1/2-y,-z
1/2-x,1/2+y,-z
1/2-x,1/2-y,-z
1/2+x,1/2+y,-z
1/2-x,1/2+y,z
1/2+x,1/2-y,z
loop_
_atom_site_type_symbol
_atom_site_label
_atom_site_fract_x
_atom_site_fract_y
_atom_site_fract_z
Si Si1 0.500000 0.703749 0.500000
Si Si2 0.694416 0.196785 0.107509
Si Si3 0.398403 0.000000 0.392817
Si Si4 0.418077 0.718088 0.144985
Si Si5 0.812761 0.500000 0.772018
O O1 0.546769 0.711924 0.579864
O O2 0.750000 0.250000 0.136896
O O3 0.644677 0.271979 0.118821
O O4 0.678752 0.100201 0.167774
O O5 0.700694 0.168607 0.000000
O O6 0.431732 0.101813 0.374913
O O7 0.350023 0.000000 0.318286
O O8 0.380639 0.000000 0.500000
O O9 0.425365 0.750000 0.250000
O O10 0.750000 0.500000 0.750000
#
# Coordination Sequence:
#
# PCOD9513891 Si02
#       5
#     8  32  16  32  16
#     4  12  26  49  74 103 136 192 248 299 356 417
#     4  11  24  44  71 105 146 189 235 291 363 433
#     4  12  24  43  72 103 142 188 238 295 357 421
#     4  12  25  45  73 104 141 186 240 297 358 424
#     4  12  25  39  70 103 147 188 239 290 360 432
#
# _framework density 21.705169000000001
#
# number of rings (size 3 to 8) (size 9 to 14) (size 15 to 20)
#    0.000    0.308    6.154    2.769    0.000    4.923 
#    0.000    0.000    0.000    5.538    0.000    0.000 
#    0.000    0.000    0.000    0.000    0.000    0.000 
#
# Total GULP energy -145017.139318 kJ/mol
# GULP energy per Si atom -5577.582281 kJ/mol
# Density = 2.165577 g / cm^3
# Si number density = 21.705169 Si / 1000 Ang^3
#
#
#
# Elastic Constant Matrix: (Units=GPa)
#
#
# Indices 1 2 3 4 5 6 
#
# 1 106.7250 -9.2652 26.2909 0.0000 0.0000 0.0000
# 2 -9.2652 91.1905 24.4061 0.0000 0.0000 0.0000
# 3 26.2909 24.4061 208.5274 0.0000 0.0000 0.0000
# 4 0.0000 0.0000 0.0000 0.1598 0.0000 0.0000
# 5 0.0000 0.0000 0.0000 0.0000-1085.8086 0.0000
# 6 0.0000 0.0000 0.0000 0.0000 0.0000 -28.3702
#
#
#
# Elastic Compliance Matrix: (Units=1/GPa)
#
#
# Indices 1 2 3 4 5 6 
#
# 1 0.009834 0.001374 -0.001401 0.000000 0.000000 0.000000
# 2 0.001374 0.011513 -0.001521 0.000000 0.000000 0.000000
# 3 -0.001401 -0.001521 0.005150 0.000000 0.000000 0.000000
# 4 0.000000 0.000000 0.000000 6.259619 0.000000 0.000000
# 5 0.000000 0.000000 0.000000 0.000000 -0.000921 0.000000
# 6 0.000000 0.000000 0.000000 0.000000 0.000000 -0.035248
#
#
# Mechanical properties :
#
#
# Convention : Reuss Voigt Hill
#
# Bulk Modulus (GPa) = 42.73080 54.36741 48.54911
# Shear Modulus (GPa) = 0.79861 -198.46974 -98.83557
#
# Velocity S-wave (km/s) = 0.60724 -9.57274 -6.75532
# Velocity P-wave (km/s) = 4.49681 9.85296 6.19917
#
# Compressibility (1/GPa) = 0.02340232
#
# Stress axis : x y z
#
# Youngs Moduli (GPa) = 101.68578 86.86096 194.17045
#
# Poissons Ratio (x) = -0.11935 0.27198
# Poissons Ratio (y) = -0.13972 0.29527
# Poissons Ratio (z) = 0.14243 0.13209
#
# Static dielectric constant tensor:
#      x y z
#    x 1.797950 0.000000 0.000000 
#    y 0.000000 1.883040 0.000000 
#    z 0.000000 0.000000 1.779200 
# 
# From -- ./inp_files/14105.got.cif
#   From: 2010.05.17/outbox.cif.g08.bks.cpg/sg69_8_cif.got.tgz:14105.got - 2010.06.03 19:29:58.
