data_PCOD9513567
_publ_section_title
;
Structure prediction by ZEFSAII (Michael W. Deem and Ramdas Pophale) SiO2 
 PCOD9513567
Probable space group: F M M M
;
_chemical_formula_sum "Si O2"
_cell_formula_units_Z 192
_cell_length_a 14.217040
_cell_length_b 22.860199
_cell_length_c 28.812912
_cell_angle_alpha 90.000000
_cell_angle_beta 90.000000
_cell_angle_gamma 90.000000
_cell_volume 9364.322128
_symmetry_space_group_name_H-M "F M M M"
_symmetry_group_IT_number 69
_symmetry_cell_setting 'orthorhombic'
loop_
_space_group_symop_operation_xyz
x,y,z
-x,-y,z
x,-y,-z
-x,y,-z
-x,-y,-z
x,y,-z
-x,y,z
x,-y,z
x,1/2+y,1/2+z
-x,1/2-y,1/2+z
x,1/2-y,1/2-z
-x,1/2+y,1/2-z
-x,1/2-y,1/2-z
x,1/2+y,1/2-z
-x,1/2+y,1/2+z
x,1/2-y,1/2+z
1/2+x,y,1/2+z
1/2-x,-y,1/2+z
1/2+x,-y,1/2-z
1/2-x,y,1/2-z
1/2-x,-y,1/2-z
1/2+x,y,1/2-z
1/2-x,y,1/2+z
1/2+x,-y,1/2+z
1/2+x,1/2+y,z
1/2-x,1/2-y,z
1/2+x,1/2-y,-z
1/2-x,1/2+y,-z
1/2-x,1/2-y,-z
1/2+x,1/2+y,-z
1/2-x,1/2+y,z
1/2+x,1/2-y,z
loop_
_atom_site_type_symbol
_atom_site_label
_atom_site_fract_x
_atom_site_fract_y
_atom_site_fract_z
Si Si1 0.890119 0.740546 0.553183
Si Si2 0.613456 0.313132 0.268220
Si Si3 0.747313 0.331521 0.903342
Si Si4 0.357779 0.500000 0.192088
Si Si5 0.605331 0.384543 0.643805
Si Si6 0.366320 0.500000 0.701381
Si Si7 0.108782 0.369944 0.325446
O O1 0.885588 0.761868 0.500000
O O2 0.830093 0.783602 0.586450
O O3 0.829351 0.680850 0.556847
O O4 0.000000 0.734699 0.565726
O O5 0.500000 0.311954 0.269909
O O6 0.644821 0.250000 0.250000
O O7 0.638948 0.334790 0.319311
O O8 0.639998 0.358208 0.227664
O O9 0.814282 0.387455 0.895129
O O10 0.676346 0.334193 0.859387
O O11 0.395741 0.500000 0.244964
O O12 0.246015 0.500000 0.197754
O O13 0.385890 0.439631 0.167461
O O14 0.500000 0.371693 0.626529
O O15 0.601360 0.442537 0.674491
O O16 0.000000 0.350713 0.330252
#
# Coordination Sequence:
#
# PCOD9513567 Si02
#       7
#    32  32  32  16  32  16  32
#     4  10  23  45  70  93 121 157 190 227 297 393
#     4   9  20  34  49  74 112 163 216 256 301 353
#     4  11  22  36  58  94 123 147 190 250 301 359
#     4  11  21  37  57  78 115 171 241 277 302 343
#     4  11  22  36  56  82 118 169 218 266 308 343
#     4  11  21  37  57  78 115 171 241 277 302 343
#     4  11  22  36  56  82 118 169 218 266 308 343
#
# _framework density 20.503353000000001
#
# number of rings (size 3 to 8) (size 9 to 14) (size 15 to 20)
#    0.000    1.500    3.333    2.500    4.667    1.333 
#    0.000    0.833    0.000    0.000    0.000    9.333 
#    0.000   21.333    0.000    0.000    0.000    0.000 
#
# Total GULP energy -267463.288684 kJ/mol
# GULP energy per Si atom -5572.151848 kJ/mol
# Density = 2.045669 g / cm^3
# Si number density = 20.503353 Si / 1000 Ang^3
#
#
#
# Elastic Constant Matrix: (Units=GPa)
#
#
# Indices 1 2 3 4 5 6 
#
# 1 184.1914 14.6264 42.4069 0.0000 0.0000 0.0000
# 2 14.6264 73.6610 26.0794 0.0000 0.0000 0.0000
# 3 42.4069 26.0794 67.5130 0.0000 0.0000 0.0000
# 4 0.0000 0.0000 0.0000 11.0946 0.0000 0.0000
# 5 0.0000 0.0000 0.0000 0.0000 23.5621 0.0000
# 6 0.0000 0.0000 0.0000 0.0000 0.0000 15.4836
#
#
#
# Elastic Compliance Matrix: (Units=1/GPa)
#
#
# Indices 1 2 3 4 5 6 
#
# 1 0.006349 0.000175 -0.004056 0.000000 0.000000 0.000000
# 2 0.000175 0.015731 -0.006187 0.000000 0.000000 0.000000
# 3 -0.004056 -0.006187 0.019749 0.000000 0.000000 0.000000
# 4 0.000000 0.000000 0.000000 0.090134 0.000000 0.000000
# 5 0.000000 0.000000 0.000000 0.000000 0.042441 0.000000
# 6 0.000000 0.000000 0.000000 0.000000 0.000000 0.064584
#
#
# Mechanical properties :
#
#
# Convention : Reuss Voigt Hill
#
# Bulk Modulus (GPa) = 46.09351 54.62122 50.35737
# Shear Modulus (GPa) = 18.77192 26.17824 22.47508
#
# Velocity S-wave (km/s) = 3.02909 3.57708 3.31443
# Velocity P-wave (km/s) = 5.89607 6.61503 6.26587
#
# Compressibility (1/GPa) = 0.02169503
#
# Stress axis : x y z
#
# Youngs Moduli (GPa) = 157.50597 63.56729 50.63458
#
# Poissons Ratio (x) = -0.01114 0.20536
# Poissons Ratio (y) = -0.02760 0.31327
# Poissons Ratio (z) = 0.63879 0.39328
#
# Static dielectric constant tensor:
#      x y z
#    x 1.780430 0.000000 0.000000 
#    y 0.000000 1.801370 0.000000 
#    z 0.000000 0.000000 1.743020 
# 
# From -- ./inp_files/41135.got.cif
#   From: 2010.05.17/outbox.cif.g08.bks.cpg/sg69_21_cif.got.tgz:41135.got - 2010.06.03 19:29:58.
