data_PCOD9513509
_publ_section_title
;
Structure prediction by ZEFSAII (Michael W. Deem and Ramdas Pophale) SiO2 
 PCOD9513509
Probable space group: F M M M
;
_chemical_formula_sum "Si O2"
_cell_formula_units_Z 112
_cell_length_a 22.284096
_cell_length_b 8.497821
_cell_length_c 28.150599
_cell_angle_alpha 90.000000
_cell_angle_beta 90.000000
_cell_angle_gamma 90.000000
_cell_volume 5330.773620
_symmetry_space_group_name_H-M "F M M M"
_symmetry_group_IT_number 69
_symmetry_cell_setting 'orthorhombic'
loop_
_space_group_symop_operation_xyz
x,y,z
-x,-y,z
x,-y,-z
-x,y,-z
-x,-y,-z
x,y,-z
-x,y,z
x,-y,z
x,1/2+y,1/2+z
-x,1/2-y,1/2+z
x,1/2-y,1/2-z
-x,1/2+y,1/2-z
-x,1/2-y,1/2-z
x,1/2+y,1/2-z
-x,1/2+y,1/2+z
x,1/2-y,1/2+z
1/2+x,y,1/2+z
1/2-x,-y,1/2+z
1/2+x,-y,1/2-z
1/2-x,y,1/2-z
1/2-x,-y,1/2-z
1/2+x,y,1/2-z
1/2-x,y,1/2+z
1/2+x,-y,1/2+z
1/2+x,1/2+y,z
1/2-x,1/2-y,z
1/2+x,1/2-y,-z
1/2-x,1/2+y,-z
1/2-x,1/2-y,-z
1/2+x,1/2+y,-z
1/2-x,1/2+y,z
1/2+x,1/2-y,z
loop_
_atom_site_type_symbol
_atom_site_label
_atom_site_fract_x
_atom_site_fract_y
_atom_site_fract_z
Si Si1 0.687603 0.321904 0.153656
Si Si2 0.136683 0.677568 0.555218
Si Si3 0.565854 0.500000 0.443077
Si Si4 0.434236 0.188151 0.803866
O O1 0.684735 0.500000 0.170571
O O2 0.750000 0.250000 0.170642
O O3 0.686431 0.321112 0.096094
O O4 0.625829 0.242747 0.169977
O O5 0.156187 0.691960 0.500000
O O6 0.108139 0.500000 0.559057
O O7 0.097618 0.833130 0.566716
O O8 0.500000 0.500000 0.420886
O O9 0.560807 0.500000 0.500000
O O10 0.500000 0.242427 0.822905
O O11 0.430751 0.250000 0.750000
O O12 0.434334 0.000000 0.803931
#
# Coordination Sequence:
#
# PCOD9513509 Si02
#       4
#    32  32  16  32
#     4  11  24  40  62  92 127 165 210 263 317 373
#     4   9  20  38  57  83 123 168 214 263 314 370
#     4   9  18  32  54  82 114 157 205 257 313 370
#     4  10  22  42  68  95 125 161 203 253 311 380
#
# _framework density 21.010083999999999
#
# number of rings (size 3 to 8) (size 9 to 14) (size 15 to 20)
#    0.000    2.143    0.000    1.714    4.000    4.571 
#    0.000    8.571    0.000    0.000    0.000    0.000 
#    0.000    0.000    0.000    0.000    0.000    0.000 
#
# Total GULP energy -155995.107790 kJ/mol
# GULP energy per Si atom -5571.253850 kJ/mol
# Density = 2.096226 g / cm^3
# Si number density = 21.010084 Si / 1000 Ang^3
#
#
#
# Elastic Constant Matrix: (Units=GPa)
#
#
# Indices 1 2 3 4 5 6 
#
# 1 160.2041 76.8579 49.3492 0.0000 0.0000 -0.0001
# 2 76.8579 154.6034 18.9519 0.0000 0.0000 -0.0001
# 3 49.3492 18.9519 61.0677 0.0000 0.0000 0.0000
# 4 0.0000 0.0000 0.0000 26.8838 0.0000 0.0000
# 5 0.0000 0.0000 0.0000 0.0000 13.2441 0.0000
# 6 -0.0001 -0.0001 0.0000 0.0000 0.0000 24.2807
#
#
#
# Elastic Compliance Matrix: (Units=1/GPa)
#
#
# Indices 1 2 3 4 5 6 
#
# 1 0.010542 -0.004362 -0.007165 0.000000 0.000000 0.000000
# 2 -0.004362 0.008529 0.000878 0.000000 0.000000 0.000000
# 3 -0.007165 0.000878 0.021893 0.000000 0.000000 0.000000
# 4 0.000000 0.000000 0.000000 0.037197 0.000000 0.000000
# 5 0.000000 0.000000 0.000000 0.000000 0.075505 0.000000
# 6 0.000000 0.000000 0.000000 0.000000 0.000000 0.041185
#
#
# Mechanical properties :
#
#
# Convention : Reuss Voigt Hill
#
# Bulk Modulus (GPa) = 50.85039 74.02144 62.43591
# Shear Modulus (GPa) = 22.45114 28.26280 25.35697
#
# Velocity S-wave (km/s) = 3.27247 3.67168 3.47781
# Velocity P-wave (km/s) = 6.20759 7.29951 6.77558
#
# Compressibility (1/GPa) = 0.01966553
#
# Stress axis : x y z
#
# Youngs Moduli (GPa) = 94.85762 117.24445 45.67669
#
# Poissons Ratio (x) = 0.51147 0.32729
# Poissons Ratio (y) = 0.41381 -0.04012
# Poissons Ratio (z) = 0.67968 -0.10298
#
# Static dielectric constant tensor:
#      x y z
#    x 1.816930 0.000000 0.000000 
#    y 0.000000 1.776640 0.000000 
#    z 0.000000 0.000000 1.773870 
# 
# From -- ./inp_files/3995.got.cif
#   From: 2010.05.17/outbox.cif.g08.bks.cpg/sg69_2_cif.got.tgz:3995.got - 2010.06.03 19:29:58.
