data_PCOD9513995
_publ_section_title
;
Structure prediction by ZEFSAII (Michael W. Deem and Ramdas Pophale) SiO2 
 PCOD9513995
Probable space group: F M M M
;
_chemical_formula_sum "Si O2"
_cell_formula_units_Z 33
_cell_length_a 27.000000
_cell_length_b 15.000000
_cell_length_c 18.000000
_cell_angle_alpha 90.000000
_cell_angle_beta 90.000000
_cell_angle_gamma 90.000000
_cell_volume 7290.000000
_symmetry_space_group_name_H-M "F M M M"
_symmetry_group_IT_number 69
_symmetry_cell_setting 'orthorhombic'
loop_
_space_group_symop_operation_xyz
x,y,z
-x,-y,z
x,-y,-z
-x,y,-z
-x,-y,-z
x,y,-z
-x,y,z
x,-y,z
x,1/2+y,1/2+z
-x,1/2-y,1/2+z
x,1/2-y,1/2-z
-x,1/2+y,1/2-z
-x,1/2-y,1/2-z
x,1/2+y,1/2-z
-x,1/2+y,1/2+z
x,1/2-y,1/2+z
1/2+x,y,1/2+z
1/2-x,-y,1/2+z
1/2+x,-y,1/2-z
1/2-x,y,1/2-z
1/2-x,-y,1/2-z
1/2+x,y,1/2-z
1/2-x,y,1/2+z
1/2+x,-y,1/2+z
1/2+x,1/2+y,z
1/2-x,1/2-y,z
1/2+x,1/2-y,-z
1/2-x,1/2+y,-z
1/2-x,1/2-y,-z
1/2+x,1/2+y,-z
1/2-x,1/2+y,z
1/2+x,1/2-y,z
loop_
_atom_site_type_symbol
_atom_site_label
_atom_site_fract_x
_atom_site_fract_y
_atom_site_fract_z
Si Si1 0.912665 0.500000 0.624345
Si Si2 0.559082 0.000000 0.799725
Si Si3 0.257841 0.396172 0.585952
Si Si4 0.000000 0.500000 0.500000
Si Si5 0.342079 0.842076 0.656538
Si Si6 0.858761 0.640613 0.828959
O O1 0.933378 0.500000 0.709768
O O2 0.956423 0.500000 0.565310
O O3 0.876964 0.414059 0.617055
O O4 0.590719 0.083749 0.831971
O O5 0.500000 0.000000 0.815575
O O6 0.260452 0.369859 0.500000
O O7 0.242729 0.500000 0.590840
O O8 0.213797 0.342547 0.625821
O O9 0.312246 0.389521 0.621624
O O10 0.365855 0.744317 0.652472
O O11 0.340750 0.867011 0.743585
#
# Coordination Sequence:
#
# PCOD9513995 Si02
#       6
#    16  16  32   4  32  32
#     4  10  22  39  59  85 121 147 194 238 296 344
#     4  10  20  41  63  86 110 155 198 250 288 333
#     4  11  22  35  57  87 122 156 188 235 297 357
#     4  12  24  40  60  84 124 158 182 248 294 360
#     4  10  21  37  60  89 114 155 192 238 292 355
#     4  10  21  38  60  86 117 150 201 240 285 347
#
# _framework density 4.5267489999999997
#
# number of rings (size 3 to 8) (size 9 to 14) (size 15 to 20)
#    0.000    1.697    3.030    1.455    1.697    4.848 
#    2.182    2.424    0.000    1.455    0.000    0.000 
#    0.000    0.000    0.000    0.000    0.000    0.000 
#
# Total GULP energy -183898.816864 kJ/mol
# GULP energy per Si atom -5572.691420 kJ/mol
# Density = 0.451645 g / cm^3
# Si number density = 4.526749 Si / 1000 Ang^3
#
#
#
# Elastic Constant Matrix: (Units=GPa)
#
#
# Indices 1 2 3 4 5 6 
#
# 1 183.4998 65.2944 61.6135 0.0000 0.0000 0.0000
# 2 65.2944 87.7822 51.5408 0.0000 0.0000 0.0000
# 3 61.6135 51.5408 57.8026 0.0000 0.0000 0.0000
# 4 0.0000 0.0000 0.0000 10.3118 0.0000 0.0000
# 5 0.0000 0.0000 0.0000 0.0000 36.5248 0.0000
# 6 0.0000 0.0000 0.0000 0.0000 0.0000 19.9102
#
#
#
# Elastic Compliance Matrix: (Units=1/GPa)
#
#
# Indices 1 2 3 4 5 6 
#
# 1 0.008676 -0.002148 -0.007333 0.000000 0.000000 0.000000
# 2 -0.002148 0.024441 -0.019504 0.000000 0.000000 0.000000
# 3 -0.007333 -0.019504 0.042507 0.000000 0.000000 0.000000
# 4 0.000000 0.000000 0.000000 0.096976 0.000000 0.000000
# 5 0.000000 0.000000 0.000000 0.000000 0.027379 0.000000
# 6 0.000000 0.000000 0.000000 0.000000 0.000000 0.050225
#
#
# Mechanical properties :
#
#
# Convention : Reuss Voigt Hill
#
# Bulk Modulus (GPa) = 56.63962 76.22022 66.42992
# Shear Modulus (GPa) = 15.92060 23.39174 19.65617
#
# Velocity S-wave (km/s) = 2.96843 3.59815 3.29835
# Velocity P-wave (km/s) = 6.56485 7.71025 7.16049
#
# Compressibility (1/GPa) = 0.01765549
#
# Stress axis : x y z
#
# Youngs Moduli (GPa) = 115.26010 40.91472 23.52552
#
# Poissons Ratio (x) = 0.08789 0.17250
# Poissons Ratio (y) = 0.24759 0.45883
# Poissons Ratio (z) = 0.84516 0.79798
#
# Static dielectric constant tensor:
#      x y z
#    x 1.571440 0.000000 0.000000 
#    y 0.000000 1.680410 0.000000 
#    z 0.000000 0.000000 1.616940 
# 
# From -- ./inp_files/15396.got.cif
#   From: 2010.05.17/outbox.ucp.g08.bks.cvg/sg69_8_cif.got.tgz:15396.got - 2010.06.11 16:51:34.
