data_PCOD9513455
_publ_section_title
;
Structure prediction by ZEFSAII (Michael W. Deem and Ramdas Pophale) SiO2 
 PCOD9513455
Probable space group: F M M M
;
_chemical_formula_sum "Si O2"
_cell_formula_units_Z 168
_cell_length_a 26.210577
_cell_length_b 14.921489
_cell_length_c 21.407742
_cell_angle_alpha 90.000000
_cell_angle_beta 90.000000
_cell_angle_gamma 90.000000
_cell_volume 8372.585801
_symmetry_space_group_name_H-M "F M M M"
_symmetry_group_IT_number 69
_symmetry_cell_setting 'orthorhombic'
loop_
_space_group_symop_operation_xyz
x,y,z
-x,-y,z
x,-y,-z
-x,y,-z
-x,-y,-z
x,y,-z
-x,y,z
x,-y,z
x,1/2+y,1/2+z
-x,1/2-y,1/2+z
x,1/2-y,1/2-z
-x,1/2+y,1/2-z
-x,1/2-y,1/2-z
x,1/2+y,1/2-z
-x,1/2+y,1/2+z
x,1/2-y,1/2+z
1/2+x,y,1/2+z
1/2-x,-y,1/2+z
1/2+x,-y,1/2-z
1/2-x,y,1/2-z
1/2-x,-y,1/2-z
1/2+x,y,1/2-z
1/2-x,y,1/2+z
1/2+x,-y,1/2+z
1/2+x,1/2+y,z
1/2-x,1/2-y,z
1/2+x,1/2-y,-z
1/2-x,1/2+y,-z
1/2-x,1/2-y,-z
1/2+x,1/2+y,-z
1/2-x,1/2+y,z
1/2+x,1/2-y,z
loop_
_atom_site_type_symbol
_atom_site_label
_atom_site_fract_x
_atom_site_fract_y
_atom_site_fract_z
Si Si1 0.409196 0.284221 0.099274
Si Si2 0.000000 0.811420 0.000000
Si Si3 0.687646 0.400272 0.069017
Si Si4 0.439852 0.896923 0.717870
Si Si5 0.380252 0.897259 0.848313
Si Si6 0.262506 0.644306 0.319819
O O1 0.455196 0.309614 0.054212
O O2 0.356293 0.327333 0.076736
O O3 0.419645 0.327513 0.167109
O O4 0.402960 0.177590 0.106043
O O5 0.664142 0.500000 0.071065
O O6 0.727345 0.394060 0.125337
O O7 0.711765 0.389595 0.000000
O O8 0.500000 0.882579 0.728354
O O9 0.409841 0.889069 0.782573
O O10 0.433097 0.000000 0.695150
O O11 0.321179 0.874712 0.835319
O O12 0.385114 0.000000 0.870011
O O13 0.250000 0.610067 0.250000
O O14 0.250000 0.750000 0.319353
#
# Coordination Sequence:
#
# PCOD9513455 Si02
#       6
#    32   8  32  32  32  32
#     4  12  23  45  65  96 133 175 220 270 336 397
#     4  12  28  44  68  94 132 182 224 270 328 394
#     4  11  24  43  69  99 133 172 219 277 341 408
#     4  10  22  40  67 101 131 166 214 277 344 400
#     4  11  25  43  68  99 133 175 226 277 330 398
#     4  11  23  42  69 103 136 178 222 275 340 403
#
# _framework density 20.065484999999999
#
# number of rings (size 3 to 8) (size 9 to 14) (size 15 to 20)
#    0.000    0.952    3.810    2.857    4.000    4.190 
#    1.714    2.857    0.000    0.000    0.000    0.000 
#    0.000    0.000    0.000    0.000    0.000    0.000 
#
# Total GULP energy -234301.726545 kJ/mol
# GULP energy per Si atom -5578.612537 kJ/mol
# Density = 2.001982 g / cm^3
# Si number density = 20.065485 Si / 1000 Ang^3
#
#
#
# Elastic Constant Matrix: (Units=GPa)
#
#
# Indices 1 2 3 4 5 6 
#
# 1 69.4220 2.2848 32.5800 0.0000 0.0000 0.0000
# 2 2.2848 112.4704 28.1032 0.0000 0.0000 0.0000
# 3 32.5800 28.1032 91.3509 0.0000 0.0000 0.0000
# 4 0.0000 0.0000 0.0000 33.7373 0.0000 0.0000
# 5 0.0000 0.0000 0.0000 0.0000 70.3904 0.0000
# 6 0.0000 0.0000 0.0000 0.0000 0.0000 -170.5305
#
#
#
# Elastic Compliance Matrix: (Units=1/GPa)
#
#
# Indices 1 2 3 4 5 6 
#
# 1 0.017475 0.001302 -0.006633 0.000000 0.000000 0.000000
# 2 0.001302 0.009729 -0.003457 0.000000 0.000000 0.000000
# 3 -0.006633 -0.003457 0.014376 0.000000 0.000000 0.000000
# 4 0.000000 0.000000 0.000000 0.029641 0.000000 0.000000
# 5 0.000000 0.000000 0.000000 0.000000 0.014206 0.000000
# 6 0.000000 0.000000 0.000000 0.000000 0.000000 -0.005864
#
#
# Mechanical properties :
#
#
# Convention : Reuss Voigt Hill
#
# Bulk Modulus (GPa) = 41.66068 44.35324 43.00696
# Shear Modulus (GPa) = 47.55580 0.73782 24.14681
#
# Velocity S-wave (km/s) = 4.87358 0.60704 3.47277
# Velocity P-wave (km/s) = 7.24406 4.75853 6.12862
#
# Compressibility (1/GPa) = 0.02400345
#
# Stress axis : x y z
#
# Youngs Moduli (GPa) = 57.22574 102.78882 69.56016
#
# Poissons Ratio (x) = -0.13387 0.46139
# Poissons Ratio (y) = -0.07453 0.24050
# Poissons Ratio (z) = 0.37957 0.35538
#
# Static dielectric constant tensor:
#      x y z
#    x 1.661390 0.000000 0.000000 
#    y 0.000000 1.752130 0.000000 
#    z 0.000000 0.000000 1.704590 
# 
# From -- ./inp_files/16897.got.cif
#   From: 2010.05.17/outbox.cif.g08.bks.cpg/sg69_9_cif.got.tgz:16897.got - 2010.06.03 19:29:58.
