data_PCOD9513982
_publ_section_title
;
Structure prediction by ZEFSAII (Michael W. Deem and Ramdas Pophale) SiO2 
 PCOD9513982
Probable space group: F M M M
;
_chemical_formula_sum "Si O2"
_cell_formula_units_Z 40
_cell_length_a 27.000000
_cell_length_b 18.000000
_cell_length_c 18.000000
_cell_angle_alpha 90.000000
_cell_angle_beta 90.000000
_cell_angle_gamma 90.000000
_cell_volume 8748.000000
_symmetry_space_group_name_H-M "F M M M"
_symmetry_group_IT_number 69
_symmetry_cell_setting 'orthorhombic'
loop_
_space_group_symop_operation_xyz
x,y,z
-x,-y,z
x,-y,-z
-x,y,-z
-x,-y,-z
x,y,-z
-x,y,z
x,-y,z
x,1/2+y,1/2+z
-x,1/2-y,1/2+z
x,1/2-y,1/2-z
-x,1/2+y,1/2-z
-x,1/2-y,1/2-z
x,1/2+y,1/2-z
-x,1/2+y,1/2+z
x,1/2-y,1/2+z
1/2+x,y,1/2+z
1/2-x,-y,1/2+z
1/2+x,-y,1/2-z
1/2-x,y,1/2-z
1/2-x,-y,1/2-z
1/2+x,y,1/2-z
1/2-x,y,1/2+z
1/2+x,-y,1/2+z
1/2+x,1/2+y,z
1/2-x,1/2-y,z
1/2+x,1/2-y,-z
1/2-x,1/2+y,-z
1/2-x,1/2-y,-z
1/2+x,1/2+y,-z
1/2-x,1/2+y,z
1/2+x,1/2-y,z
loop_
_atom_site_type_symbol
_atom_site_label
_atom_site_fract_x
_atom_site_fract_y
_atom_site_fract_z
Si Si1 0.596535 0.088568 0.179768
Si Si2 0.804743 0.410978 0.411953
Si Si3 0.190476 0.910581 0.582413
Si Si4 0.056618 0.287199 0.086364
Si Si5 0.874520 0.688015 0.691156
O O1 0.651021 0.106539 0.145432
O O2 0.561136 0.130929 0.122410
O O3 0.594726 0.129350 0.258772
O O4 0.589860 0.000000 0.183373
O O5 0.816627 0.400599 0.500000
O O6 0.810427 0.500000 0.396433
O O7 0.746977 0.389927 0.402164
O O8 0.836154 0.359885 0.357049
O O9 0.176379 0.882013 0.500000
O O10 0.190571 0.000000 0.577530
O O11 0.091152 0.233583 0.134517
O O12 0.000000 0.262082 0.091961
O O13 0.070744 0.288437 0.000000
O O14 0.854576 0.750000 0.750000
#
# Coordination Sequence:
#
# PCOD9513982 Si02
#       5
#    32  32  32  32  32
#     4  10  20  34  55  82 109 136 168 212 263 310
#     4   9  17  32  56  80 102 136 182 222 250 288
#     4   8  15  29  50  77 108 140 172 210 257 301
#     4  10  22  40  59  76  98 134 176 216 261 311
#     4  10  21  35  52  76 109 143 171 205 258 318
#
# _framework density 4.5724739999999997
#
# number of rings (size 3 to 8) (size 9 to 14) (size 15 to 20)
#    0.000    2.600    0.000    3.000    0.000    6.000 
#    0.000   11.000    0.000   12.600    0.000    7.000 
#    0.000    0.000    0.000    0.000    0.000    0.000 
#
# Total GULP energy -222919.558606 kJ/mol
# GULP energy per Si atom -5572.988965 kJ/mol
# Density = 0.456207 g / cm^3
# Si number density = 4.572474 Si / 1000 Ang^3
#
#
#
# Elastic Constant Matrix: (Units=GPa)
#
#
# Indices 1 2 3 4 5 6 
#
# 1 61.3795 32.1597 39.9085 0.0000 0.0000 0.0000
# 2 32.1597 91.0445 50.3816 0.0000 0.0000 0.0000
# 3 39.9085 50.3816 99.0598 0.0000 0.0000 0.0000
# 4 0.0000 0.0000 0.0000 36.4603 0.0000 0.0000
# 5 0.0000 0.0000 0.0000 0.0000 -40.9548 0.0000
# 6 0.0000 0.0000 0.0000 0.0000 0.0000 21.0899
#
#
#
# Elastic Compliance Matrix: (Units=1/GPa)
#
#
# Indices 1 2 3 4 5 6 
#
# 1 0.023175 -0.004202 -0.007199 0.000000 0.000000 0.000000
# 2 -0.004202 0.016048 -0.006469 0.000000 0.000000 0.000000
# 3 -0.007199 -0.006469 0.016285 0.000000 0.000000 0.000000
# 4 0.000000 0.000000 0.000000 0.027427 0.000000 0.000000
# 5 0.000000 0.000000 0.000000 0.000000 -0.024417 0.000000
# 6 0.000000 0.000000 0.000000 0.000000 0.000000 0.047416
#
#
# Mechanical properties :
#
#
# Convention : Reuss Voigt Hill
#
# Bulk Modulus (GPa) = 50.58891 55.15369 52.87130
# Shear Modulus (GPa) = 33.72383 11.92136 22.82260
#
# Velocity S-wave (km/s) = 4.29867 2.55581 3.53629
# Velocity P-wave (km/s) = 7.23585 6.23941 6.75603
#
# Compressibility (1/GPa) = 0.01976718
#
# Stress axis : x y z
#
# Youngs Moduli (GPa) = 43.15054 62.31439 61.40491
#
# Poissons Ratio (x) = 0.26185 0.44207
# Poissons Ratio (y) = 0.18132 0.39722
# Poissons Ratio (z) = 0.31065 0.40310
#
# Static dielectric constant tensor:
#      x y z
#    x 1.639420 0.000000 0.000000 
#    y 0.000000 1.625100 0.000000 
#    z 0.000000 0.000000 1.644940 
# 
# From -- ./inp_files/23117.got.cif
#   From: 2010.05.17/outbox.ucp.g08.bks.cvg/sg69_12_cif.got.tgz:23117.got - 2010.06.11 16:51:34.
