data_PCOD9513469
_publ_section_title
;
Structure prediction by ZEFSAII (Michael W. Deem and Ramdas Pophale) SiO2 
 PCOD9513469
Probable space group: F M M M
;
_chemical_formula_sum "Si O2"
_cell_formula_units_Z 136
_cell_length_a 24.261570
_cell_length_b 26.411550
_cell_length_c 13.817146
_cell_angle_alpha 90.000000
_cell_angle_beta 90.000000
_cell_angle_gamma 90.000000
_cell_volume 8853.829145
_symmetry_space_group_name_H-M "F M M M"
_symmetry_group_IT_number 69
_symmetry_cell_setting 'orthorhombic'
loop_
_space_group_symop_operation_xyz
x,y,z
-x,-y,z
x,-y,-z
-x,y,-z
-x,-y,-z
x,y,-z
-x,y,z
x,-y,z
x,1/2+y,1/2+z
-x,1/2-y,1/2+z
x,1/2-y,1/2-z
-x,1/2+y,1/2-z
-x,1/2-y,1/2-z
x,1/2+y,1/2-z
-x,1/2+y,1/2+z
x,1/2-y,1/2+z
1/2+x,y,1/2+z
1/2-x,-y,1/2+z
1/2+x,-y,1/2-z
1/2-x,y,1/2-z
1/2-x,-y,1/2-z
1/2+x,y,1/2-z
1/2-x,y,1/2+z
1/2+x,-y,1/2+z
1/2+x,1/2+y,z
1/2-x,1/2-y,z
1/2+x,1/2-y,-z
1/2-x,1/2+y,-z
1/2-x,1/2-y,-z
1/2+x,1/2+y,-z
1/2-x,1/2+y,z
1/2+x,1/2-y,z
loop_
_atom_site_type_symbol
_atom_site_label
_atom_site_fract_x
_atom_site_fract_y
_atom_site_fract_z
Si Si1 0.198055 0.500000 0.000000
Si Si2 0.315015 0.307103 0.281363
Si Si3 0.710412 0.799358 0.000000
Si Si4 0.273933 0.902530 0.500000
Si Si5 0.640594 0.596969 0.829220
Si Si6 0.065832 0.559852 0.500000
Si Si7 0.816737 0.500000 0.780417
O O1 0.233455 0.449098 0.000000
O O2 0.171869 0.500000 0.105279
O O3 0.328579 0.250000 0.250000
O O4 0.250000 0.315870 0.250000
O O5 0.320569 0.304552 0.397788
O O6 0.351724 0.350596 0.230175
O O7 0.750000 0.750000 0.000000
O O8 0.747889 0.848237 0.000000
O O9 0.309849 0.905368 0.405000
O O10 0.653331 0.549554 0.760965
O O11 0.589223 0.586627 0.902074
O O12 0.084056 0.500000 0.500000
O O13 0.000000 0.560984 0.500000
O O14 0.750000 0.500000 0.750000
#
# Coordination Sequence:
#
# PCOD9513469 Si02
#       7
#     8  32  16  16  32  16  16
#     4  12  22  26  40  66 106 144 176 198 256 314
#     4  11  20  32  47  74 114 158 191 219 256 323
#     4  12  19  29  45  68 106 156 197 211 242 303
#     4  11  18  27  44  65  96 140 174 209 248 317
#     4  11  20  33  51  76 105 142 180 228 283 320
#     4  10  22  41  64  85 102 130 188 251 301 342
#     4  12  20  30  44  71 110 146 179 209 259 325
#
# _framework density 15.360586
#
# number of rings (size 3 to 8) (size 9 to 14) (size 15 to 20)
#    0.000    0.824    8.235    2.118    1.647    0.941 
#    0.000    0.000    0.000    0.706    0.000    4.118 
#    0.000    0.000    0.000    0.000    0.000    0.000 
#
# Total GULP energy -189271.831488 kJ/mol
# GULP energy per Si atom -5566.818573 kJ/mol
# Density = 1.532562 g / cm^3
# Si number density = 15.360586 Si / 1000 Ang^3
#
#
#
# Elastic Constant Matrix: (Units=GPa)
#
#
# Indices 1 2 3 4 5 6 
#
# 1 43.0093 36.7285 30.7196 0.0000 0.0000 0.0000
# 2 36.7285 134.3128 57.3213 0.0000 0.0000 0.0000
# 3 30.7196 57.3213 167.7343 0.0000 0.0000 0.0000
# 4 0.0000 0.0000 0.0000 39.5419 0.0000 0.0000
# 5 0.0000 0.0000 0.0000 0.0000 69.7543 0.0000
# 6 0.0000 0.0000 0.0000 0.0000 0.0000 13.7975
#
#
#
# Elastic Compliance Matrix: (Units=1/GPa)
#
#
# Indices 1 2 3 4 5 6 
#
# 1 0.031861 -0.007285 -0.003346 0.000000 0.000000 0.000000
# 2 -0.007285 0.010382 -0.002214 0.000000 0.000000 0.000000
# 3 -0.003346 -0.002214 0.007331 0.000000 0.000000 0.000000
# 4 0.000000 0.000000 0.000000 0.025290 0.000000 0.000000
# 5 0.000000 0.000000 0.000000 0.000000 0.014336 0.000000
# 6 0.000000 0.000000 0.000000 0.000000 0.000000 0.072477
#
#
# Mechanical properties :
#
#
# Convention : Reuss Voigt Hill
#
# Bulk Modulus (GPa) = 41.86549 66.06616 53.96582
# Shear Modulus (GPa) = 25.59797 39.30455 32.45126
#
# Velocity S-wave (km/s) = 4.08667 5.06394 4.60132
# Velocity P-wave (km/s) = 7.04146 8.79175 7.96483
#
# Compressibility (1/GPa) = 0.02388602
#
# Stress axis : x y z
#
# Youngs Moduli (GPa) = 31.38585 96.31889 136.40492
#
# Poissons Ratio (x) = 0.70166 0.45638
# Poissons Ratio (y) = 0.22864 0.30198
# Poissons Ratio (z) = 0.10501 0.21323
#
# Static dielectric constant tensor:
#      x y z
#    x 1.475060 0.000000 0.000000 
#    y 0.000000 1.605290 0.000000 
#    z 0.000000 0.000000 1.580330 
# 
# From -- ./inp_files/9522.got.cif
#   From: 2010.05.17/outbox.cif.g08.bks.cpg/sg69_5_cif.got.tgz:9522.got - 2010.06.03 19:29:58.
