data_PCOD9513708
_publ_section_title
;
Structure prediction by ZEFSAII (Michael W. Deem and Ramdas Pophale) SiO2 
 PCOD9513708
Probable space group: F M M M
;
_chemical_formula_sum "Si O2"
_cell_formula_units_Z 192
_cell_length_a 17.642828
_cell_length_b 19.352924
_cell_length_c 28.370675
_cell_angle_alpha 90.000000
_cell_angle_beta 90.000000
_cell_angle_gamma 90.000000
_cell_volume 9686.892051
_symmetry_space_group_name_H-M "F M M M"
_symmetry_group_IT_number 69
_symmetry_cell_setting 'orthorhombic'
loop_
_space_group_symop_operation_xyz
x,y,z
-x,-y,z
x,-y,-z
-x,y,-z
-x,-y,-z
x,y,-z
-x,y,z
x,-y,z
x,1/2+y,1/2+z
-x,1/2-y,1/2+z
x,1/2-y,1/2-z
-x,1/2+y,1/2-z
-x,1/2-y,1/2-z
x,1/2+y,1/2-z
-x,1/2+y,1/2+z
x,1/2-y,1/2+z
1/2+x,y,1/2+z
1/2-x,-y,1/2+z
1/2+x,-y,1/2-z
1/2-x,y,1/2-z
1/2-x,-y,1/2-z
1/2+x,y,1/2-z
1/2-x,y,1/2+z
1/2+x,-y,1/2+z
1/2+x,1/2+y,z
1/2-x,1/2-y,z
1/2+x,1/2-y,-z
1/2-x,1/2+y,-z
1/2-x,1/2-y,-z
1/2+x,1/2+y,-z
1/2-x,1/2+y,z
1/2+x,1/2-y,z
loop_
_atom_site_type_symbol
_atom_site_label
_atom_site_fract_x
_atom_site_fract_y
_atom_site_fract_z
Si Si1 0.619258 0.319084 0.281522
Si Si2 0.261131 0.926170 0.805529
Si Si3 0.915328 0.730767 0.880398
Si Si4 0.500000 0.580485 0.118878
Si Si5 0.660199 0.375376 0.884451
Si Si6 0.791130 0.825452 0.553947
Si Si7 0.500000 0.085123 0.271833
O O1 0.632429 0.250000 0.250000
O O2 0.691966 0.355558 0.305383
O O3 0.575679 0.298756 0.328465
O O4 0.572490 0.377235 0.252441
O O5 0.250000 0.932999 0.750000
O O6 0.187024 0.914929 0.837489
O O7 0.296525 0.000000 0.821229
O O8 0.861421 0.796840 0.872998
O O9 0.868343 0.682841 0.916349
O O10 0.000000 0.748596 0.898411
O O11 0.500000 0.500000 0.125014
O O12 0.580161 0.598399 0.095621
O O13 0.500000 0.607572 0.173088
O O14 0.731186 0.374744 0.919638
O O15 0.804913 0.845788 0.500000
O O16 0.750000 0.750000 0.552859
O O17 0.500000 0.000000 0.267250
#
# Coordination Sequence:
#
# PCOD9513708 Si02
#       7
#    32  32  32  16  32  32  16
#     4  12  23  35  58  88 125 165 211 261 310 365
#     4  11  23  38  56  84 122 169 216 252 302 375
#     4  11  21  36  59  90 123 155 204 256 316 381
#     4  11  22  37  58  85 119 168 211 245 298 370
#     4  11  21  38  61  86 123 162 204 259 315 376
#     4   9  20  39  63  90 119 154 200 259 328 385
#     4  11  23  39  55  82 129 176 214 256 313 377
#
# _framework density 19.820598
#
# number of rings (size 3 to 8) (size 9 to 14) (size 15 to 20)
#    0.000    1.167    3.333    4.250    0.000    4.667 
#    0.000    0.417    0.000    2.500    0.000    0.000 
#    0.000    2.000    0.000    0.000    0.000    0.000 
#
# Total GULP energy -267349.920314 kJ/mol
# GULP energy per Si atom -5569.790007 kJ/mol
# Density = 1.977549 g / cm^3
# Si number density = 19.820598 Si / 1000 Ang^3
#
#
#
# Elastic Constant Matrix: (Units=GPa)
#
#
# Indices 1 2 3 4 5 6 
#
# 1 97.4949 36.1848 33.7726 0.0000 0.0000 0.0000
# 2 36.1848 72.7667 24.8066 0.0000 0.0000 0.0000
# 3 33.7726 24.8066 93.1444 0.0000 0.0000 0.0000
# 4 0.0000 0.0000 0.0000 -30.5207 0.0000 0.0000
# 5 0.0000 0.0000 0.0000 0.0000 11.6037 0.0000
# 6 0.0000 0.0000 0.0000 0.0000 0.0000 -36.4166
#
#
#
# Elastic Compliance Matrix: (Units=1/GPa)
#
#
# Indices 1 2 3 4 5 6 
#
# 1 0.013500 -0.005548 -0.003417 0.000000 0.000000 0.000000
# 2 -0.005548 0.017395 -0.002621 0.000000 0.000000 0.000000
# 3 -0.003417 -0.002621 0.012673 0.000000 0.000000 0.000000
# 4 0.000000 0.000000 0.000000 -0.032765 0.000000 0.000000
# 5 0.000000 0.000000 0.000000 0.000000 0.086180 0.000000
# 6 0.000000 0.000000 0.000000 0.000000 0.000000 -0.027460
#
#
# Mechanical properties :
#
#
# Convention : Reuss Voigt Hill
#
# Bulk Modulus (GPa) = 49.03127 50.32599 49.67863
# Shear Modulus (GPa) = 50.25424 0.17609 25.21516
#
# Velocity S-wave (km/s) = 5.04079 0.29838 3.57062
# Velocity P-wave (km/s) = 7.65968 5.05614 6.48981
#
# Compressibility (1/GPa) = 0.02039515
#
# Stress axis : x y z
#
# Youngs Moduli (GPa) = 74.07486 57.48775 78.90734
#
# Poissons Ratio (x) = 0.31895 0.26964
# Poissons Ratio (y) = 0.41098 0.20682
# Poissons Ratio (z) = 0.25313 0.15068
#
# Static dielectric constant tensor:
#      x y z
#    x 1.785000 0.000000 0.000000 
#    y 0.000000 1.801440 0.000000 
#    z 0.000000 0.000000 1.681370 
# 
# From -- ./inp_files/46410.got.cif
#   From: 2010.05.17/outbox.cif.g08.bks.cpg/sg69_24_cif.got.tgz:46410.got - 2010.06.03 19:29:58.
