data_PCOD9513200
_publ_section_title
;
Structure prediction by ZEFSAII (Michael W. Deem and Ramdas Pophale) SiO2 
 PCOD9513200
Probable space group: F M M M
;
_chemical_formula_sum "Si O2"
_cell_formula_units_Z 144
_cell_length_a 32.530981
_cell_length_b 27.503441
_cell_length_c 8.707201
_cell_angle_alpha 90.000000
_cell_angle_beta 90.000000
_cell_angle_gamma 90.000000
_cell_volume 7790.453909
_symmetry_space_group_name_H-M "F M M M"
_symmetry_group_IT_number 69
_symmetry_cell_setting 'orthorhombic'
loop_
_space_group_symop_operation_xyz
x,y,z
-x,-y,z
x,-y,-z
-x,y,-z
-x,-y,-z
x,y,-z
-x,y,z
x,-y,z
x,1/2+y,1/2+z
-x,1/2-y,1/2+z
x,1/2-y,1/2-z
-x,1/2+y,1/2-z
-x,1/2-y,1/2-z
x,1/2+y,1/2-z
-x,1/2+y,1/2+z
x,1/2-y,1/2+z
1/2+x,y,1/2+z
1/2-x,-y,1/2+z
1/2+x,-y,1/2-z
1/2-x,y,1/2-z
1/2-x,-y,1/2-z
1/2+x,y,1/2-z
1/2-x,y,1/2+z
1/2+x,-y,1/2+z
1/2+x,1/2+y,z
1/2-x,1/2-y,z
1/2+x,1/2-y,-z
1/2-x,1/2+y,-z
1/2-x,1/2-y,-z
1/2+x,1/2+y,-z
1/2-x,1/2+y,z
1/2+x,1/2-y,z
loop_
_atom_site_type_symbol
_atom_site_label
_atom_site_fract_x
_atom_site_fract_y
_atom_site_fract_z
Si Si1 0.500000 0.557764 0.817060
Si Si2 0.119633 0.802209 0.184584
Si Si3 0.416002 0.099981 0.183434
Si Si4 0.833879 0.445600 0.314253
Si Si5 0.793330 0.653875 0.315965
O O1 0.500000 0.500000 0.789540
O O2 0.459158 0.580496 0.744621
O O3 0.500000 0.565988 0.000000
O O4 0.107900 0.750000 0.250000
O O5 0.092995 0.846038 0.253127
O O6 0.167043 0.814349 0.228844
O O7 0.116961 0.803113 0.000000
O O8 0.378650 0.066988 0.247376
O O9 0.415096 0.099851 0.000000
O O10 0.836828 0.443769 0.500000
O O11 0.821003 0.500000 0.269335
O O12 0.803996 0.401596 0.266210
O O13 0.790918 0.654415 0.500000
O O14 0.750000 0.670141 0.250000
#
# Coordination Sequence:
#
# PCOD9513200 Si02
#       5
#    16  32  32  32  32
#     4  11  23  39  60  85 116 153 185 217 263 315
#     4  10  21  39  60  81 107 142 182 223 273 328
#     4  11  22  36  56  84 114 142 179 226 271 318
#     4   9  18  34  53  73 104 147 187 223 271 328
#     4   9  19  33  50  75 107 141 180 226 272 323
#
# _framework density 18.484161
#
# number of rings (size 3 to 8) (size 9 to 14) (size 15 to 20)
#    0.000    2.111    0.000    5.000    0.000    9.333 
#    0.000    2.778    0.000    0.000    0.000    0.000 
#    0.000    0.000    0.000    0.000    0.000    0.000 
#
# Total GULP energy -201038.323746 kJ/mol
# GULP energy per Si atom -5584.397882 kJ/mol
# Density = 1.844209 g / cm^3
# Si number density = 18.484161 Si / 1000 Ang^3
#
#
#
# Elastic Constant Matrix: (Units=GPa)
#
#
# Indices 1 2 3 4 5 6 
#
# 1 67.8100 -4.7940 16.6255 0.0060 -0.0024 0.0013
# 2 -4.7940 76.1729 24.9515 0.0065 -0.0055 -0.0009
# 3 16.6255 24.9515 42.4262 0.0187 -0.0127 -0.0028
# 4 0.0060 0.0065 0.0187 26.5879 -0.0056 -0.0019
# 5 -0.0024 -0.0055 -0.0127 -0.0056 22.0709 0.0002
# 6 0.0013 -0.0009 -0.0028 -0.0019 0.0002 4.4006
#
#
#
# Elastic Compliance Matrix: (Units=1/GPa)
#
#
# Indices 1 2 3 4 5 6 
#
# 1 0.017288 0.004096 -0.009184 0.000002 -0.000002 -0.000010
# 2 0.004096 0.017231 -0.011739 0.000003 -0.000002 -0.000005
# 3 -0.009184 -0.011739 0.034073 -0.000019 0.000016 0.000022
# 4 0.000002 0.000003 -0.000019 0.037611 0.000010 0.000016
# 5 -0.000002 -0.000002 0.000016 0.000010 0.045308 -0.000002
# 6 -0.000010 -0.000005 0.000022 0.000016 -0.000002 0.227244
#
#
# Mechanical properties :
#
#
# Convention : Reuss Voigt Hill
#
# Bulk Modulus (GPa) = 28.62100 28.88612 28.75356
# Shear Modulus (GPa) = 11.79090 20.58695 16.18892
#
# Velocity S-wave (km/s) = 2.52839 3.34093 2.96265
# Velocity P-wave (km/s) = 4.90320 5.52665 5.22423
#
# Compressibility (1/GPa) = 0.03493938
#
# Stress axis : x y z
#
# Youngs Moduli (GPa) = 57.84237 58.03442 29.34859
#
# Poissons Ratio (x) = -0.23773 0.26953
# Poissons Ratio (y) = -0.23694 0.34453
# Poissons Ratio (z) = 0.53122 0.68127
#
# Static dielectric constant tensor:
#      x y z
#    x 1.607780 0.000000 0.000000 
#    y 0.000000 1.638630 0.000000 
#    z 0.000000 0.000000 1.618690 
# 
# From -- ./inp_files/5614.got.cif
#   From: 2010.05.17/outbox.cif.g08.bks.cpg/sg69_3_cif.got.tgz:5614.got - 2010.06.03 19:29:58.
