data_PCOD9513787
_publ_section_title
;
Structure prediction by ZEFSAII (Michael W. Deem and Ramdas Pophale) SiO2 
 PCOD9513787
Probable space group: F M M M
;
_chemical_formula_sum "Si O2"
_cell_formula_units_Z 192
_cell_length_a 15.308718
_cell_length_b 27.993889
_cell_length_c 24.389127
_cell_angle_alpha 90.000000
_cell_angle_beta 90.000000
_cell_angle_gamma 90.000000
_cell_volume 10451.973849
_symmetry_space_group_name_H-M "F M M M"
_symmetry_group_IT_number 69
_symmetry_cell_setting 'orthorhombic'
loop_
_space_group_symop_operation_xyz
x,y,z
-x,-y,z
x,-y,-z
-x,y,-z
-x,-y,-z
x,y,-z
-x,y,z
x,-y,z
x,1/2+y,1/2+z
-x,1/2-y,1/2+z
x,1/2-y,1/2-z
-x,1/2+y,1/2-z
-x,1/2-y,1/2-z
x,1/2+y,1/2-z
-x,1/2+y,1/2+z
x,1/2-y,1/2+z
1/2+x,y,1/2+z
1/2-x,-y,1/2+z
1/2+x,-y,1/2-z
1/2-x,y,1/2-z
1/2-x,-y,1/2-z
1/2+x,y,1/2-z
1/2-x,y,1/2+z
1/2+x,-y,1/2+z
1/2+x,1/2+y,z
1/2-x,1/2-y,z
1/2+x,1/2-y,-z
1/2-x,1/2+y,-z
1/2-x,1/2-y,-z
1/2+x,1/2+y,-z
1/2-x,1/2+y,z
1/2+x,1/2-y,z
loop_
_atom_site_type_symbol
_atom_site_label
_atom_site_fract_x
_atom_site_fract_y
_atom_site_fract_z
Si Si1 0.000000 0.699787 0.437262
Si Si2 0.896062 0.195219 0.258135
Si Si3 0.140055 0.847305 0.860319
Si Si4 0.293928 0.944150 0.938588
Si Si5 0.160776 0.144217 0.369095
Si Si6 0.000000 0.313963 0.063168
Si Si7 0.901967 0.554059 0.596880
O O1 0.081923 0.679635 0.404551
O O2 0.000000 0.683655 0.500000
O O3 0.000000 0.756739 0.435341
O O4 0.863648 0.250000 0.250000
O O5 0.877218 0.171613 0.199980
O O6 0.858710 0.162253 0.307109
O O7 0.000000 0.198249 0.268297
O O8 0.239703 0.839890 0.877872
O O9 0.111232 0.902736 0.861238
O O10 0.333168 0.910910 0.890487
O O11 0.187293 0.941348 0.937930
O O12 0.315861 0.000000 0.930810
O O13 0.322766 0.929179 0.000000
O O14 0.086170 0.167899 0.405911
O O15 0.000000 0.329634 0.000000
O O16 0.899731 0.500000 0.619451
O O17 0.000000 0.559586 0.571706
#
# Coordination Sequence:
#
# PCOD9513787 Si02
#       7
#    16  32  32  32  32  16  32
#     4  11  24  39  58  86 121 155 193 244 303 373
#     4  11  22  39  64  88 115 156 206 259 309 360
#     4  11  22  39  60  88 123 156 194 248 309 366
#     4   9  19  36  58  87 124 163 205 254 303 357
#     4  11  23  39  62  89 118 159 205 254 302 363
#     4  11  24  41  58  82 117 159 205 249 295 354
#     4   9  17  32  55  85 119 156 198 242 296 365
#
# _framework density 18.369737000000001
#
# number of rings (size 3 to 8) (size 9 to 14) (size 15 to 20)
#    0.000    1.667    2.500    2.000    0.000    7.000 
#    0.000    4.583    0.000    6.500    0.000    0.000 
#    0.000    0.000    0.000    0.000    0.000    0.000 
#
# Total GULP energy -267325.721740 kJ/mol
# GULP energy per Si atom -5569.285870 kJ/mol
# Density = 1.832793 g / cm^3
# Si number density = 18.369737 Si / 1000 Ang^3
#
#
#
# Elastic Constant Matrix: (Units=GPa)
#
#
# Indices 1 2 3 4 5 6 
#
# 1 111.1469 35.5795 48.5870 0.0000 0.0000 0.0000
# 2 35.5795 120.1205 80.3852 0.0000 0.0000 0.0000
# 3 48.5870 80.3852 149.3678 0.0000 0.0000 0.0000
# 4 0.0000 0.0000 0.0000 5.4324 0.0000 0.0000
# 5 0.0000 0.0000 0.0000 0.0000 -81.5179 0.0000
# 6 0.0000 0.0000 0.0000 0.0000 0.0000 -153.6550
#
#
#
# Elastic Compliance Matrix: (Units=1/GPa)
#
#
# Indices 1 2 3 4 5 6 
#
# 1 0.010617 -0.001303 -0.002753 0.000000 0.000000 0.000000
# 2 -0.001303 0.013171 -0.006664 0.000000 0.000000 0.000000
# 3 -0.002753 -0.006664 0.011177 0.000000 0.000000 0.000000
# 4 0.000000 0.000000 0.000000 0.184080 0.000000 0.000000
# 5 0.000000 0.000000 0.000000 0.000000 -0.012267 0.000000
# 6 0.000000 0.000000 0.000000 0.000000 0.000000 -0.006508
#
#
# Mechanical properties :
#
#
# Convention : Reuss Voigt Hill
#
# Bulk Modulus (GPa) = 73.93422 78.85983 76.39703
# Shear Modulus (GPa) = 22.10268 -31.54253 -4.71992
#
# Velocity S-wave (km/s) = 3.47250 -4.14828 -1.60467
# Velocity P-wave (km/s) = 7.51085 4.48086 6.18429
#
# Compressibility (1/GPa) = 0.01352554
#
# Stress axis : x y z
#
# Youngs Moduli (GPa) = 94.18494 75.92662 89.47172
#
# Poissons Ratio (x) = 0.09892 0.24627
# Poissons Ratio (y) = 0.12271 0.59626
# Poissons Ratio (z) = 0.25925 0.50599
#
# Static dielectric constant tensor:
#      x y z
#    x 1.649920 0.000000 0.000000 
#    y 0.000000 1.648710 0.000000 
#    z 0.000000 0.000000 1.620060 
# 
# From -- ./inp_files/36107.got.cif
#   From: 2010.05.17/outbox.cif.g08.bks.cpg/sg69_19_cif.got.tgz:36107.got - 2010.06.03 19:29:58.
