data_PCOD9513571
_publ_section_title
;
Structure prediction by ZEFSAII (Michael W. Deem and Ramdas Pophale) SiO2 
 PCOD9513571
Probable space group: F M M M
;
_chemical_formula_sum "Si O2"
_cell_formula_units_Z 72
_cell_length_a 16.108518
_cell_length_b 15.449937
_cell_length_c 10.814500
_cell_angle_alpha 90.000000
_cell_angle_beta 90.000000
_cell_angle_gamma 90.000000
_cell_volume 2691.465049
_symmetry_space_group_name_H-M "F M M M"
_symmetry_group_IT_number 69
_symmetry_cell_setting 'orthorhombic'
loop_
_space_group_symop_operation_xyz
x,y,z
-x,-y,z
x,-y,-z
-x,y,-z
-x,-y,-z
x,y,-z
-x,y,z
x,-y,z
x,1/2+y,1/2+z
-x,1/2-y,1/2+z
x,1/2-y,1/2-z
-x,1/2+y,1/2-z
-x,1/2-y,1/2-z
x,1/2+y,1/2-z
-x,1/2+y,1/2+z
x,1/2-y,1/2+z
1/2+x,y,1/2+z
1/2-x,-y,1/2+z
1/2+x,-y,1/2-z
1/2-x,y,1/2-z
1/2-x,-y,1/2-z
1/2+x,y,1/2-z
1/2-x,y,1/2+z
1/2+x,-y,1/2+z
1/2+x,1/2+y,z
1/2-x,1/2-y,z
1/2+x,1/2-y,-z
1/2-x,1/2+y,-z
1/2-x,1/2-y,-z
1/2+x,1/2+y,-z
1/2-x,1/2+y,z
1/2+x,1/2-y,z
loop_
_atom_site_type_symbol
_atom_site_label
_atom_site_fract_x
_atom_site_fract_y
_atom_site_fract_z
Si Si1 0.594803 0.798189 0.500000
Si Si2 0.314380 0.657987 0.361956
Si Si3 0.633161 0.500000 0.000000
Si Si4 0.903553 0.000000 0.260367
O O1 0.500000 0.770070 0.500000
O O2 0.640644 0.749942 0.613470
O O3 0.594553 0.901854 0.500000
O O4 0.276219 0.638707 0.500000
O O5 0.250000 0.654878 0.250000
O O6 0.382732 0.585175 0.336932
O O7 0.659758 0.500000 0.143238
O O8 0.000000 0.000000 0.219462
#
# Coordination Sequence:
#
# PCOD9513571 Si02
#       4
#    16  32   8  16
#     4  10  23  50  85 119 159 221 280 345 413 501
#     4  10  25  48  85 117 167 220 274 341 416 503
#     4  12  29  50  80 124 170 208 279 362 427 478
#     4  12  25  45  80 122 163 218 280 347 414 501
#
# _framework density 26.751228999999999
#
# number of rings (size 3 to 8) (size 9 to 14) (size 15 to 20)
#    1.333    0.000    0.000    4.667    3.111    2.667 
#    0.000   14.444    0.000    0.000    0.000    0.000 
#    0.000    0.000    0.000    0.000    0.000    0.000 
#
# Total GULP energy -100579.662853 kJ/mol
# GULP energy per Si atom -5587.759047 kJ/mol
# Density = 2.669034 g / cm^3
# Si number density = 26.751229 Si / 1000 Ang^3
#
#
#
# Elastic Constant Matrix: (Units=GPa)
#
#
# Indices 1 2 3 4 5 6 
#
# 1 128.2897 65.7624 75.7338 0.0000 0.0000 0.0000
# 2 65.7624 227.2817 69.0442 0.0000 0.0000 0.0000
# 3 75.7338 69.0442 199.1877 0.0000 0.0000 0.0000
# 4 0.0000 0.0000 0.0000 52.4767 0.0000 0.0000
# 5 0.0000 0.0000 0.0000 0.0000 33.5465 0.0000
# 6 0.0000 0.0000 0.0000 0.0000 0.0000 34.0166
#
#
#
# Elastic Compliance Matrix: (Units=1/GPa)
#
#
# Indices 1 2 3 4 5 6 
#
# 1 0.010891 -0.002116 -0.003407 0.000000 0.000000 0.000000
# 2 -0.002116 0.005329 -0.001043 0.000000 0.000000 0.000000
# 3 -0.003407 -0.001043 0.006677 0.000000 0.000000 0.000000
# 4 0.000000 0.000000 0.000000 0.019056 0.000000 0.000000
# 5 0.000000 0.000000 0.000000 0.000000 0.029809 0.000000
# 6 0.000000 0.000000 0.000000 0.000000 0.000000 0.029397
#
#
# Mechanical properties :
#
#
# Convention : Reuss Voigt Hill
#
# Bulk Modulus (GPa) = 102.40624 108.42665 105.41645
# Shear Modulus (GPa) = 42.53607 46.95591 44.74599
#
# Velocity S-wave (km/s) = 3.99188 4.19415 4.09427
# Velocity P-wave (km/s) = 7.72081 8.00462 7.86400
#
# Compressibility (1/GPa) = 0.00976503
#
# Stress axis : x y z
#
# Youngs Moduli (GPa) = 91.81773 187.65868 149.76082
#
# Poissons Ratio (x) = 0.39712 0.51030
# Poissons Ratio (y) = 0.19430 0.15613
# Poissons Ratio (z) = 0.31286 0.19564
#
# Static dielectric constant tensor:
#      x y z
#    x 2.056010 0.000000 0.000000 
#    y 0.000000 2.058660 0.000000 
#    z 0.000000 0.000000 2.215320 
# 
# From -- ./inp_files/7684.got.cif
#   From: 2010.05.17/outbox.cif.g08.bks.cpg/sg69_4_cif.got.tgz:7684.got - 2010.06.03 19:29:58.
