data_PCOD9513934
_publ_section_title
;
Structure prediction by ZEFSAII (Michael W. Deem and Ramdas Pophale) SiO2 
 PCOD9513934
Probable space group: F M M M
;
_chemical_formula_sum "Si O2"
_cell_formula_units_Z 160
_cell_length_a 7.432817
_cell_length_b 39.049220
_cell_length_c 28.469683
_cell_angle_alpha 90.000000
_cell_angle_beta 90.000000
_cell_angle_gamma 90.000000
_cell_volume 8263.203249
_symmetry_space_group_name_H-M "F M M M"
_symmetry_group_IT_number 69
_symmetry_cell_setting 'orthorhombic'
loop_
_space_group_symop_operation_xyz
x,y,z
-x,-y,z
x,-y,-z
-x,y,-z
-x,-y,-z
x,y,-z
-x,y,z
x,-y,z
x,1/2+y,1/2+z
-x,1/2-y,1/2+z
x,1/2-y,1/2-z
-x,1/2+y,1/2-z
-x,1/2-y,1/2-z
x,1/2+y,1/2-z
-x,1/2+y,1/2+z
x,1/2-y,1/2+z
1/2+x,y,1/2+z
1/2-x,-y,1/2+z
1/2+x,-y,1/2-z
1/2-x,y,1/2-z
1/2-x,-y,1/2-z
1/2+x,y,1/2-z
1/2-x,y,1/2+z
1/2+x,-y,1/2+z
1/2+x,1/2+y,z
1/2-x,1/2-y,z
1/2+x,1/2-y,-z
1/2-x,1/2+y,-z
1/2-x,1/2-y,-z
1/2+x,1/2+y,-z
1/2-x,1/2+y,z
1/2+x,1/2-y,z
loop_
_atom_site_type_symbol
_atom_site_label
_atom_site_fract_x
_atom_site_fract_y
_atom_site_fract_z
Si Si1 0.280723 0.961830 0.054492
Si Si2 0.780646 0.106673 0.396104
Si Si3 0.719158 0.176446 0.947332
Si Si4 0.714685 0.711149 0.646886
Si Si5 0.785208 0.643485 0.803701
O O1 0.500000 0.961654 0.055405
O O2 0.218233 0.929933 0.085338
O O3 0.223644 0.000000 0.069362
O O4 0.229134 0.956977 0.000000
O O5 0.730944 0.138136 0.430439
O O6 0.720392 0.117454 0.343935
O O7 0.000000 0.105774 0.396212
O O8 0.500000 0.177416 0.948225
O O9 0.779885 0.201847 0.905795
O O10 0.781822 0.183927 0.000000
O O11 0.500000 0.707651 0.645314
O O12 0.750000 0.750000 0.660510
O O13 0.782227 0.681456 0.681797
O O14 0.750000 0.634849 0.750000
O O15 0.000000 0.644199 0.808567
#
# Coordination Sequence:
#
# PCOD9513934 Si02
#       5
#    32  32  32  32  32
#     4   8  12  17  29  54  86 114 135 156 189 233
#     4   8  13  22  36  54  78 106 134 164 196 232
#     4   8  13  22  37  55  75 102 133 160 189 231
#     4   9  18  30  42  59  81 102 128 163 201 241
#     4   9  18  31  45  60  77 101 135 170 203 239
#
# _framework density 19.362950999999999
#
# number of rings (size 3 to 8) (size 9 to 14) (size 15 to 20)
#    0.000    3.600    0.000    3.600    0.000    4.000 
#    0.000    2.000    0.000    0.600    0.000    0.000 
#    0.000    2.400    0.000    2.200    0.000    4.200 
#
# Total GULP energy -222927.148893 kJ/mol
# GULP energy per Si atom -5573.178722 kJ/mol
# Density = 1.931888 g / cm^3
# Si number density = 19.362951 Si / 1000 Ang^3
#
#
#
# Elastic Constant Matrix: (Units=GPa)
#
#
# Indices 1 2 3 4 5 6 
#
# 1 57.6180 1.4195 1.3434 0.0000 0.0000 0.0000
# 2 1.4195 126.0949 34.2690 0.0000 0.0000 0.0000
# 3 1.3434 34.2690 82.2883 0.0000 0.0000 0.0000
# 4 0.0000 0.0000 0.0000 14.4769 0.0000 0.0000
# 5 0.0000 0.0000 0.0000 0.0000 4.4838 0.0000
# 6 0.0000 0.0000 0.0000 0.0000 0.0000 -1.6303
#
#
#
# Elastic Compliance Matrix: (Units=1/GPa)
#
#
# Indices 1 2 3 4 5 6 
#
# 1 0.017364 -0.000134 -0.000228 0.000000 0.000000 0.000000
# 2 -0.000134 0.008944 -0.003722 0.000000 0.000000 0.000000
# 3 -0.000228 -0.003722 0.013706 0.000000 0.000000 0.000000
# 4 0.000000 0.000000 0.000000 0.069076 0.000000 0.000000
# 5 0.000000 0.000000 0.000000 0.000000 0.223024 0.000000
# 6 0.000000 0.000000 0.000000 0.000000 0.000000 -0.613387
#
#
# Mechanical properties :
#
#
# Convention : Reuss Voigt Hill
#
# Bulk Modulus (GPa) = 31.40049 37.78499 34.59274
# Shear Modulus (GPa) = -19.04833 18.73069 -0.15882
#
# Velocity S-wave (km/s) = -3.13988 3.11359 -0.28671
# Velocity P-wave (km/s) = 1.76262 5.69933 4.21837
#
# Compressibility (1/GPa) = 0.03184664
#
# Stress axis : x y z
#
# Youngs Moduli (GPa) = 57.58942 111.81067 72.95899
#
# Poissons Ratio (x) = 0.01493 0.01663
# Poissons Ratio (y) = 0.00769 0.27158
# Poissons Ratio (z) = 0.01312 0.41621
#
# Static dielectric constant tensor:
#      x y z
#    x 1.697820 0.000000 0.000000 
#    y 0.000000 1.670300 0.000000 
#    z 0.000000 0.000000 1.670450 
# 
# From -- ./inp_files/40397.got.cif
#   From: 2010.05.17/outbox.cif.g08.bks.cpg/sg69_21_cif.got.tgz:40397.got - 2010.06.03 19:29:58.
