data_PCOD9513829
_publ_section_title
;
Structure prediction by ZEFSAII (Michael W. Deem and Ramdas Pophale) SiO2 
 PCOD9513829
Probable space group: F M M M
;
_chemical_formula_sum "Si O2"
_cell_formula_units_Z 84
_cell_length_a 16.223920
_cell_length_b 10.632394
_cell_length_c 20.605737
_cell_angle_alpha 90.000000
_cell_angle_beta 90.000000
_cell_angle_gamma 90.000000
_cell_volume 3554.471286
_symmetry_space_group_name_H-M "F M M M"
_symmetry_group_IT_number 69
_symmetry_cell_setting 'orthorhombic'
loop_
_space_group_symop_operation_xyz
x,y,z
-x,-y,z
x,-y,-z
-x,y,-z
-x,-y,-z
x,y,-z
-x,y,z
x,-y,z
x,1/2+y,1/2+z
-x,1/2-y,1/2+z
x,1/2-y,1/2-z
-x,1/2+y,1/2-z
-x,1/2-y,1/2-z
x,1/2+y,1/2-z
-x,1/2+y,1/2+z
x,1/2-y,1/2+z
1/2+x,y,1/2+z
1/2-x,-y,1/2+z
1/2+x,-y,1/2-z
1/2-x,y,1/2-z
1/2-x,-y,1/2-z
1/2+x,y,1/2-z
1/2-x,y,1/2+z
1/2+x,-y,1/2+z
1/2+x,1/2+y,z
1/2-x,1/2-y,z
1/2+x,1/2-y,-z
1/2-x,1/2+y,-z
1/2-x,1/2-y,-z
1/2+x,1/2+y,-z
1/2-x,1/2+y,z
1/2+x,1/2-y,z
loop_
_atom_site_type_symbol
_atom_site_label
_atom_site_fract_x
_atom_site_fract_y
_atom_site_fract_z
Si Si1 0.873696 0.000000 0.623822
Si Si2 0.000000 0.500000 0.000000
Si Si3 0.595787 0.225691 0.641633
Si Si4 0.294356 0.000000 0.681854
Si Si5 0.600026 0.146766 0.500000
O O1 0.896160 0.870649 0.660230
O O2 0.774180 0.000000 0.624319
O O3 0.927710 0.000000 0.557786
O O4 0.500000 0.188676 0.645394
O O5 0.623902 0.215020 0.566038
O O6 0.650872 0.124544 0.677103
O O7 0.250000 0.000000 0.750000
O O8 0.500000 0.151037 0.500000
O O9 0.623714 0.000000 0.500000
#
# Coordination Sequence:
#
# PCOD9513829 Si02
#       5
#    16   4  32  16  16
#     4  12  26  45  76 111 162 196 245 328 390 468
#     4  12  24  52  72 118 166 204 248 308 416 484
#     4  11  22  45  77 113 146 200 254 312 391 468
#     4  12  29  51  71 108 154 200 269 332 379 450
#     4   9  17  33  67 107 142 174 236 304 365 454
#
# _framework density 23.632204999999999
#
# number of rings (size 3 to 8) (size 9 to 14) (size 15 to 20)
#    0.000    0.952    3.810    2.857    2.667    4.571 
#    3.429    5.714    0.000    0.000    0.000    0.000 
#    0.000    0.000    0.000    0.000    0.000    0.000 
#
# Total GULP energy -117222.804958 kJ/mol
# GULP energy per Si atom -5582.038331 kJ/mol
# Density = 2.357842 g / cm^3
# Si number density = 23.632205 Si / 1000 Ang^3
#
#
#
# Elastic Constant Matrix: (Units=GPa)
#
#
# Indices 1 2 3 4 5 6 
#
# 1 143.3127 73.6899 63.2660 0.0000 0.0000 0.0000
# 2 73.6899 184.5331 69.4927 0.0000 0.0000 0.0000
# 3 63.2660 69.4927 106.1460 0.0000 0.0000 0.0000
# 4 0.0000 0.0000 0.0000 -17.0916 0.0000 0.0000
# 5 0.0000 0.0000 0.0000 0.0000 43.5977 0.0000
# 6 0.0000 0.0000 0.0000 0.0000 0.0000 25.8719
#
#
#
# Elastic Compliance Matrix: (Units=1/GPa)
#
#
# Indices 1 2 3 4 5 6 
#
# 1 0.010192 -0.002366 -0.004526 0.000000 0.000000 0.000000
# 2 -0.002366 0.007741 -0.003658 0.000000 0.000000 0.000000
# 3 -0.004526 -0.003658 0.014514 0.000000 0.000000 0.000000
# 4 0.000000 0.000000 0.000000 -0.058508 0.000000 0.000000
# 5 0.000000 0.000000 0.000000 0.000000 0.022937 0.000000
# 6 0.000000 0.000000 0.000000 0.000000 0.000000 0.038652
#
#
# Mechanical properties :
#
#
# Convention : Reuss Voigt Hill
#
# Bulk Modulus (GPa) = 88.12609 94.09879 91.11244
# Shear Modulus (GPa) = 82.76728 25.64514 54.20621
#
# Velocity S-wave (km/s) = 5.92445 3.29778 4.79450
# Velocity P-wave (km/s) = 9.17445 7.37597 8.32392
#
# Compressibility (1/GPa) = 0.01134738
#
# Stress axis : x y z
#
# Youngs Moduli (GPa) = 98.11447 129.17586 68.90048
#
# Poissons Ratio (x) = 0.30558 0.31185
# Poissons Ratio (y) = 0.23210 0.25206
# Poissons Ratio (z) = 0.44408 0.47256
#
# Static dielectric constant tensor:
#      x y z
#    x 1.894190 0.000000 0.000000 
#    y 0.000000 1.912640 0.000000 
#    z 0.000000 0.000000 1.929300 
# 
# From -- ./inp_files/35399.got.cif
#   From: 2010.05.17/outbox.cif.g08.bks.cpg/sg69_18_cif.got.tgz:35399.got - 2010.06.03 19:29:58.
