data_PCOD9513580
_publ_section_title
;
Structure prediction by ZEFSAII (Michael W. Deem and Ramdas Pophale) SiO2 
 PCOD9513580
Probable space group: F M M M
;
_chemical_formula_sum "Si O2"
_cell_formula_units_Z 104
_cell_length_a 27.265369
_cell_length_b 7.602456
_cell_length_c 23.850196
_cell_angle_alpha 90.000000
_cell_angle_beta 90.000000
_cell_angle_gamma 90.000000
_cell_volume 4943.758498
_symmetry_space_group_name_H-M "F M M M"
_symmetry_group_IT_number 69
_symmetry_cell_setting 'orthorhombic'
loop_
_space_group_symop_operation_xyz
x,y,z
-x,-y,z
x,-y,-z
-x,y,-z
-x,-y,-z
x,y,-z
-x,y,z
x,-y,z
x,1/2+y,1/2+z
-x,1/2-y,1/2+z
x,1/2-y,1/2-z
-x,1/2+y,1/2-z
-x,1/2-y,1/2-z
x,1/2+y,1/2-z
-x,1/2+y,1/2+z
x,1/2-y,1/2+z
1/2+x,y,1/2+z
1/2-x,-y,1/2+z
1/2+x,-y,1/2-z
1/2-x,y,1/2-z
1/2-x,-y,1/2-z
1/2+x,y,1/2-z
1/2-x,y,1/2+z
1/2+x,-y,1/2+z
1/2+x,1/2+y,z
1/2-x,1/2-y,z
1/2+x,1/2-y,-z
1/2-x,1/2+y,-z
1/2-x,1/2-y,-z
1/2+x,1/2+y,-z
1/2-x,1/2+y,z
1/2+x,1/2-y,z
loop_
_atom_site_type_symbol
_atom_site_label
_atom_site_fract_x
_atom_site_fract_y
_atom_site_fract_z
Si Si1 0.442791 0.711393 0.500000
Si Si2 0.000000 0.711277 0.684575
Si Si3 0.199200 0.300894 0.097107
Si Si4 0.903704 0.294977 0.622119
Si Si5 0.305070 0.500000 0.000000
O O1 0.440325 0.500000 0.500000
O O2 0.500000 0.764652 0.500000
O O3 0.417169 0.778443 0.556202
O O4 0.000000 0.750000 0.750000
O O5 0.950503 0.779414 0.655240
O O6 0.000000 0.500000 0.675685
O O7 0.203507 0.500000 0.074191
O O8 0.250000 0.250000 0.127443
O O9 0.148857 0.291652 0.131518
O O10 0.194636 0.155652 0.048578
O O11 0.898847 0.500000 0.636058
#
# Coordination Sequence:
#
# PCOD9513580 Si02
#       5
#    16  16  32  32   8
#     4  11  22  34  52  85 123 165 203 251 301 376
#     4  10  24  43  70  93 123 161 209 269 325 373
#     4  12  24  38  58  85 123 176 213 260 307 365
#     4  11  22  41  60  88 126 166 209 258 312 378
#     4  12  22  38  54  87 132 165 226 252 304 366
#
# _framework density 21.036626999999999
#
# number of rings (size 3 to 8) (size 9 to 14) (size 15 to 20)
#    0.000    0.769    4.615    3.231    0.000    3.077 
#    0.000    0.000    0.000    0.923    0.000    6.462 
#    0.000    0.000    0.000    0.000    0.000    0.000 
#
# Total GULP energy -144804.883299 kJ/mol
# GULP energy per Si atom -5569.418588 kJ/mol
# Density = 2.098875 g / cm^3
# Si number density = 21.036627 Si / 1000 Ang^3
#
#
#
# Elastic Constant Matrix: (Units=GPa)
#
#
# Indices 1 2 3 4 5 6 
#
# 1 227.3867 30.6401 51.6449 -0.0001 0.0000 0.0001
# 2 30.6401 154.1870 -3.5056 0.0005 -0.0001 0.0000
# 3 51.6449 -3.5056 71.7678 0.0003 0.0000 0.0000
# 4 -0.0001 0.0005 0.0003 26.9566 -0.0003 -0.0001
# 5 0.0000 -0.0001 0.0000 -0.0003 -17.4077 0.0000
# 6 0.0001 0.0000 0.0000 -0.0001 0.0000 28.7271
#
#
#
# Elastic Compliance Matrix: (Units=1/GPa)
#
#
# Indices 1 2 3 4 5 6 
#
# 1 0.005462 -0.001176 -0.003988 0.000000 0.000000 0.000000
# 2 -0.001176 0.006746 0.001176 0.000000 0.000000 0.000000
# 3 -0.003988 0.001176 0.016861 0.000000 0.000000 0.000000
# 4 0.000000 0.000000 0.000000 0.037097 -0.000001 0.000000
# 5 0.000000 0.000000 0.000000 -0.000001 -0.057446 0.000000
# 6 0.000000 0.000000 0.000000 0.000000 0.000000 0.034810
#
#
# Mechanical properties :
#
#
# Convention : Reuss Voigt Hill
#
# Bulk Modulus (GPa) = 47.40974 67.87781 57.64377
# Shear Modulus (GPa) = 85.41524 32.62601 59.02063
#
# Velocity S-wave (km/s) = 6.37897 3.94244 5.30255
# Velocity P-wave (km/s) = 8.76588 7.28425 8.05919
#
# Compressibility (1/GPa) = 0.02109271
#
# Stress axis : x y z
#
# Youngs Moduli (GPa) = 183.08184 148.23427 59.30826
#
# Poissons Ratio (x) = 0.17434 0.23652
# Poissons Ratio (y) = 0.21532 -0.06974
# Poissons Ratio (z) = 0.73013 -0.17430
#
# Static dielectric constant tensor:
#      x y z
#    x 1.886010 0.000000 0.000000 
#    y 0.000000 1.769820 0.000000 
#    z 0.000000 0.000000 1.687600 
# 
# From -- ./inp_files/43389.got.cif
#   From: 2010.05.17/outbox.cif.g08.bks.cpg/sg69_22_cif.got.tgz:43389.got - 2010.06.03 19:29:58.
