data_PCOD9513987
_publ_section_title
;
Structure prediction by ZEFSAII (Michael W. Deem and Ramdas Pophale) SiO2 
 PCOD9513987
Probable space group: F M M M
;
_chemical_formula_sum "Si O2"
_cell_formula_units_Z 48
_cell_length_a 15.000000
_cell_length_b 24.000000
_cell_length_c 27.000000
_cell_angle_alpha 90.000000
_cell_angle_beta 90.000000
_cell_angle_gamma 90.000000
_cell_volume 9720.000000
_symmetry_space_group_name_H-M "F M M M"
_symmetry_group_IT_number 69
_symmetry_cell_setting 'orthorhombic'
loop_
_space_group_symop_operation_xyz
x,y,z
-x,-y,z
x,-y,-z
-x,y,-z
-x,-y,-z
x,y,-z
-x,y,z
x,-y,z
x,1/2+y,1/2+z
-x,1/2-y,1/2+z
x,1/2-y,1/2-z
-x,1/2+y,1/2-z
-x,1/2-y,1/2-z
x,1/2+y,1/2-z
-x,1/2+y,1/2+z
x,1/2-y,1/2+z
1/2+x,y,1/2+z
1/2-x,-y,1/2+z
1/2+x,-y,1/2-z
1/2-x,y,1/2-z
1/2-x,-y,1/2-z
1/2+x,y,1/2-z
1/2-x,y,1/2+z
1/2+x,-y,1/2+z
1/2+x,1/2+y,z
1/2-x,1/2-y,z
1/2+x,1/2-y,-z
1/2-x,1/2+y,-z
1/2-x,1/2-y,-z
1/2+x,1/2+y,-z
1/2-x,1/2+y,z
1/2+x,1/2-y,z
loop_
_atom_site_type_symbol
_atom_site_label
_atom_site_fract_x
_atom_site_fract_y
_atom_site_fract_z
Si Si1 0.105069 0.696937 0.621088
Si Si2 0.225616 0.381987 0.444652
Si Si3 0.819798 0.864797 0.207849
Si Si4 0.000000 0.063281 0.646256
Si Si5 0.305629 0.937554 0.861958
Si Si6 0.000000 0.565232 0.735213
Si Si7 0.397815 0.697381 0.555060
O O1 0.151994 0.652911 0.584696
O O2 0.147614 0.686604 0.674561
O O3 0.118008 0.757486 0.597547
O O4 0.000000 0.686262 0.623709
O O5 0.197355 0.393454 0.500000
O O6 0.254823 0.435481 0.413778
O O7 0.316239 0.345129 0.444928
O O8 0.750000 0.847412 0.250000
O O9 0.756921 0.904108 0.174629
O O10 0.909239 0.900662 0.221350
O O11 0.095549 0.088295 0.632577
O O12 0.000000 0.061770 0.705498
O O13 0.000000 0.000000 0.625242
O O14 0.317943 0.000000 0.842969
O O15 0.000000 0.500000 0.716854
O O16 0.394626 0.725030 0.500000
O O17 0.500000 0.675512 0.559585
#
# Coordination Sequence:
#
# PCOD9513987 Si02
#       7
#    32  32  32  16  32  16  32
#     4  10  20  35  56  83 112 142 180 227 277 327
#     4  10  21  35  56  83 111 144 184 229 275 328
#     4  11  21  35  55  84 113 146 184 228 274 324
#     4   9  18  32  51  77 103 138 183 225 271 317
#     4  10  21  35  53  79 113 149 185 225 273 328
#     4  11  20  32  56  82 109 144 186 234 274 321
#     4   9  18  34  58  86 113 140 178 230 281 329
#
# _framework density 4.9382720000000004
#
# number of rings (size 3 to 8) (size 9 to 14) (size 15 to 20)
#    0.000    2.000    2.500    1.500    1.167    3.333 
#    0.000    0.000    0.000    9.500    0.000   18.667 
#    0.000    0.000    0.000    0.000    0.000    0.000 
#
# Total GULP energy -267406.607922 kJ/mol
# GULP energy per Si atom -5570.970998 kJ/mol
# Density = 0.492703 g / cm^3
# Si number density = 4.938272 Si / 1000 Ang^3
#
#
#
# Elastic Constant Matrix: (Units=GPa)
#
#
# Indices 1 2 3 4 5 6 
#
# 1 95.2557 15.3421 31.6205 0.0000 0.0000 0.0000
# 2 15.3421 25.3057 18.2236 0.0000 0.0000 0.0000
# 3 31.6205 18.2236 99.7199 0.0000 0.0000 0.0000
# 4 0.0000 0.0000 0.0000 14.8889 0.0000 0.0000
# 5 0.0000 0.0000 0.0000 0.0000 27.0565 0.0000
# 6 0.0000 0.0000 0.0000 0.0000 0.0000 21.0342
#
#
#
# Elastic Compliance Matrix: (Units=1/GPa)
#
#
# Indices 1 2 3 4 5 6 
#
# 1 0.012335 -0.005368 -0.002930 0.000000 0.000000 0.000000
# 2 -0.005368 0.047842 -0.007041 0.000000 0.000000 0.000000
# 3 -0.002930 -0.007041 0.012244 0.000000 0.000000 0.000000
# 4 0.000000 0.000000 0.000000 0.067164 0.000000 0.000000
# 5 0.000000 0.000000 0.000000 0.000000 0.036960 0.000000
# 6 0.000000 0.000000 0.000000 0.000000 0.000000 0.047542
#
#
# Mechanical properties :
#
#
# Convention : Reuss Voigt Hill
#
# Bulk Modulus (GPa) = 23.95652 38.96151 31.45901
# Shear Modulus (GPa) = 18.60950 22.93558 20.77254
#
# Velocity S-wave (km/s) = 3.07270 3.41121 3.24637
# Velocity P-wave (km/s) = 4.97423 5.93988 5.47838
#
# Compressibility (1/GPa) = 0.04174229
#
# Stress axis : x y z
#
# Youngs Moduli (GPa) = 81.06711 20.90223 81.67271
#
# Poissons Ratio (x) = 0.11221 0.23934
# Poissons Ratio (y) = 0.43519 0.57503
# Poissons Ratio (z) = 0.23756 0.14717
#
# Static dielectric constant tensor:
#      x y z
#    x 1.695400 0.000000 0.000000 
#    y 0.000000 1.712030 0.000000 
#    z 0.000000 0.000000 1.741960 
# 
# From -- ./inp_files/41162.got.cif
#   From: 2010.05.17/outbox.ucp.g08.bks.cvg/sg69_21_cif.got.tgz:41162.got - 2010.06.11 16:51:34.
