data_PCOD9513233
_publ_section_title
;
Structure prediction by ZEFSAII (Michael W. Deem and Ramdas Pophale) SiO2 
 PCOD9513233
Probable space group: F M M M
;
_chemical_formula_sum "Si O2"
_cell_formula_units_Z 144
_cell_length_a 27.680705
_cell_length_b 17.721924
_cell_length_c 15.111895
_cell_angle_alpha 90.000000
_cell_angle_beta 90.000000
_cell_angle_gamma 90.000000
_cell_volume 7413.220945
_symmetry_space_group_name_H-M "F M M M"
_symmetry_group_IT_number 69
_symmetry_cell_setting 'orthorhombic'
loop_
_space_group_symop_operation_xyz
x,y,z
-x,-y,z
x,-y,-z
-x,y,-z
-x,-y,-z
x,y,-z
-x,y,z
x,-y,z
x,1/2+y,1/2+z
-x,1/2-y,1/2+z
x,1/2-y,1/2-z
-x,1/2+y,1/2-z
-x,1/2-y,1/2-z
x,1/2+y,1/2-z
-x,1/2+y,1/2+z
x,1/2-y,1/2+z
1/2+x,y,1/2+z
1/2-x,-y,1/2+z
1/2+x,-y,1/2-z
1/2-x,y,1/2-z
1/2-x,-y,1/2-z
1/2+x,y,1/2-z
1/2-x,y,1/2+z
1/2+x,-y,1/2+z
1/2+x,1/2+y,z
1/2-x,1/2-y,z
1/2+x,1/2-y,-z
1/2-x,1/2+y,-z
1/2-x,1/2-y,-z
1/2+x,1/2+y,-z
1/2-x,1/2+y,z
1/2+x,1/2-y,z
loop_
_atom_site_type_symbol
_atom_site_label
_atom_site_fract_x
_atom_site_fract_y
_atom_site_fract_z
Si Si1 0.878105 0.138630 0.600700
Si Si2 0.445150 0.273039 0.147044
Si Si3 0.945318 0.500000 0.892442
Si Si4 0.193833 0.909758 0.256160
Si Si5 0.617793 0.912146 0.603865
O O1 0.863609 0.120811 0.500000
O O2 0.907517 0.216062 0.602478
O O3 0.833446 0.135388 0.666879
O O4 0.915447 0.073934 0.632943
O O5 0.500000 0.264740 0.113850
O O6 0.445014 0.250000 0.250000
O O7 0.424893 0.356627 0.133039
O O8 0.000000 0.500000 0.858570
O O9 0.947820 0.500000 0.000000
O O10 0.250000 0.890082 0.250000
O O11 0.164174 0.896781 0.165714
O O12 0.190745 0.000000 0.276066
O O13 0.628213 0.900391 0.500000
O O14 0.604707 0.000000 0.616381
#
# Coordination Sequence:
#
# PCOD9513233 Si02
#       5
#    32  32  16  32  32
#     4  11  21  36  59  90 125 159 201 249 306 373
#     4  11  23  40  63  91 125 165 205 251 313 374
#     4   9  18  32  53  84 121 157 192 233 288 360
#     4  10  21  39  63  90 122 160 205 257 309 361
#     4  10  22  42  65  89 121 163 213 261 304 362
#
# _framework density 19.424754
#
# number of rings (size 3 to 8) (size 9 to 14) (size 15 to 20)
#    0.000    1.667    3.333    1.333    0.000    4.000 
#    0.000    5.556    0.000    2.667    0.000    0.000 
#    0.000    0.000    0.000    0.000    0.000    0.000 
#
# Total GULP energy -201128.855364 kJ/mol
# GULP energy per Si atom -5586.912649 kJ/mol
# Density = 1.938054 g / cm^3
# Si number density = 19.424754 Si / 1000 Ang^3
#
#
#
# Elastic Constant Matrix: (Units=GPa)
#
#
# Indices 1 2 3 4 5 6 
#
# 1 157.9732 55.6826 63.3622 0.0000 0.0000 0.0000
# 2 55.6826 73.3418 41.4171 0.0000 0.0000 0.0000
# 3 63.3622 41.4171 112.4633 0.0000 0.0000 0.0000
# 4 0.0000 0.0000 0.0000 24.8467 0.0000 0.0000
# 5 0.0000 0.0000 0.0000 0.0000 5.5611 0.0000
# 6 0.0000 0.0000 0.0000 0.0000 0.0000 19.5063
#
#
#
# Elastic Compliance Matrix: (Units=1/GPa)
#
#
# Indices 1 2 3 4 5 6 
#
# 1 0.009591 -0.005341 -0.003437 0.000000 0.000000 0.000000
# 2 -0.005341 0.020189 -0.004426 0.000000 0.000000 0.000000
# 3 -0.003437 -0.004426 0.012458 0.000000 0.000000 0.000000
# 4 0.000000 0.000000 0.000000 0.040247 0.000000 0.000000
# 5 0.000000 0.000000 0.000000 0.000000 0.179819 0.000000
# 6 0.000000 0.000000 0.000000 0.000000 0.000000 0.051265
#
#
# Mechanical properties :
#
#
# Convention : Reuss Voigt Hill
#
# Bulk Modulus (GPa) = 63.16754 73.85577 68.51166
# Shear Modulus (GPa) = 14.48205 22.20392 18.34298
#
# Velocity S-wave (km/s) = 2.73343 3.38460 3.07630
# Velocity P-wave (km/s) = 6.52318 7.30603 6.92568
#
# Compressibility (1/GPa) = 0.01583092
#
# Stress axis : x y z
#
# Youngs Moduli (GPa) = 104.26111 49.53128 80.26944
#
# Poissons Ratio (x) = 0.26455 0.27587
# Poissons Ratio (y) = 0.55687 0.35527
# Poissons Ratio (z) = 0.35832 0.21922
#
# Static dielectric constant tensor:
#      x y z
#    x 1.639650 0.000000 0.000000 
#    y 0.000000 1.690060 0.000000 
#    z 0.000000 0.000000 1.694100 
# 
# From -- ./inp_files/19430.got.cif
#   From: 2010.05.17/outbox.cif.g08.bks.cpg/sg69_10_cif.got.tgz:19430.got - 2010.06.03 19:29:58.
