data_PCOD9513722
_publ_section_title
;
Structure prediction by ZEFSAII (Michael W. Deem and Ramdas Pophale) SiO2 
 PCOD9513722
Probable space group: F M M M
;
_chemical_formula_sum "Si O2"
_cell_formula_units_Z 96
_cell_length_a 12.396559
_cell_length_b 19.727951
_cell_length_c 22.029623
_cell_angle_alpha 90.000000
_cell_angle_beta 90.000000
_cell_angle_gamma 90.000000
_cell_volume 5387.536150
_symmetry_space_group_name_H-M "F M M M"
_symmetry_group_IT_number 69
_symmetry_cell_setting 'orthorhombic'
loop_
_space_group_symop_operation_xyz
x,y,z
-x,-y,z
x,-y,-z
-x,y,-z
-x,-y,-z
x,y,-z
-x,y,z
x,-y,z
x,1/2+y,1/2+z
-x,1/2-y,1/2+z
x,1/2-y,1/2-z
-x,1/2+y,1/2-z
-x,1/2-y,1/2-z
x,1/2+y,1/2-z
-x,1/2+y,1/2+z
x,1/2-y,1/2+z
1/2+x,y,1/2+z
1/2-x,-y,1/2+z
1/2+x,-y,1/2-z
1/2-x,y,1/2-z
1/2-x,-y,1/2-z
1/2+x,y,1/2-z
1/2-x,y,1/2+z
1/2+x,-y,1/2+z
1/2+x,1/2+y,z
1/2-x,1/2-y,z
1/2+x,1/2-y,-z
1/2-x,1/2+y,-z
1/2-x,1/2-y,-z
1/2+x,1/2+y,-z
1/2-x,1/2+y,z
1/2+x,1/2-y,z
loop_
_atom_site_type_symbol
_atom_site_label
_atom_site_fract_x
_atom_site_fract_y
_atom_site_fract_z
Si Si1 0.692403 0.177152 0.932222
Si Si2 0.000000 0.191657 0.339943
Si Si3 0.120623 0.079997 0.893578
Si Si4 0.000000 0.651682 0.297622
O O1 0.750000 0.250000 0.926853
O O2 0.603605 0.172985 0.879999
O O3 0.784532 0.120625 0.924905
O O4 0.644684 0.172734 0.000000
O O5 0.000000 0.272528 0.325701
O O6 0.000000 0.156590 0.274294
O O7 0.101411 0.111494 0.826363
O O8 0.000000 0.091063 0.921566
O O9 0.140029 0.000000 0.891998
#
# Coordination Sequence:
#
# PCOD9513722 Si02
#       4
#    32  16  32  16
#     4  11  22  37  59  86 120 157 196 239 291 347
#     4  11  21  38  58  88 121 149 191 245 291 355
#     4   9  19  40  61  87 117 148 198 244 288 337
#     4   9  19  38  60  88 114 150 197 241 297 339
#
# _framework density 17.818905999999998
#
# number of rings (size 3 to 8) (size 9 to 14) (size 15 to 20)
#    1.000    1.000    3.333    0.500    0.000    2.667 
#    0.000    7.500    0.000    2.000    0.000    0.000 
#    0.000    0.000    0.000    0.000    0.000    0.000 
#
# Total GULP energy -133694.839500 kJ/mol
# GULP energy per Si atom -5570.618313 kJ/mol
# Density = 1.777835 g / cm^3
# Si number density = 17.818906 Si / 1000 Ang^3
#
#
#
# Elastic Constant Matrix: (Units=GPa)
#
#
# Indices 1 2 3 4 5 6 
#
# 1 85.0822 44.5389 48.5901 0.0000 0.0000 0.0000
# 2 44.5389 96.0263 29.9022 0.0000 0.0000 0.0000
# 3 48.5901 29.9022 118.9679 0.0000 0.0000 0.0000
# 4 0.0000 0.0000 0.0000 -1.2477 0.0000 0.0000
# 5 0.0000 0.0000 0.0000 0.0000 31.6107 0.0000
# 6 0.0000 0.0000 0.0000 0.0000 0.0000 25.8497
#
#
#
# Elastic Compliance Matrix: (Units=1/GPa)
#
#
# Indices 1 2 3 4 5 6 
#
# 1 0.018716 -0.006835 -0.005926 0.000000 0.000000 0.000000
# 2 -0.006835 0.013795 -0.000675 0.000000 0.000000 0.000000
# 3 -0.005926 -0.000675 0.010996 0.000000 0.000000 0.000000
# 4 0.000000 0.000000 0.000000 -0.801452 0.000000 0.000000
# 5 0.000000 0.000000 0.000000 0.000000 0.031635 0.000000
# 6 0.000000 0.000000 0.000000 0.000000 0.000000 0.038685
#
#
# Mechanical properties :
#
#
# Convention : Reuss Voigt Hill
#
# Bulk Modulus (GPa) = 60.12377 60.68212 60.40295
# Shear Modulus (GPa) = -7.63116 23.04556 7.70720
#
# Velocity S-wave (km/s) = -2.07169 3.60018 2.08199
# Velocity P-wave (km/s) = 5.30021 7.17012 6.30487
#
# Compressibility (1/GPa) = 0.01663236
#
# Stress axis : x y z
#
# Youngs Moduli (GPa) = 53.43040 72.49238 90.94397
#
# Poissons Ratio (x) = 0.49552 0.53894
# Poissons Ratio (y) = 0.36522 0.06142
# Poissons Ratio (z) = 0.31663 0.04896
#
# Static dielectric constant tensor:
#      x y z
#    x 1.608140 0.000000 0.000000 
#    y 0.000000 1.587470 0.000000 
#    z 0.000000 0.000000 1.616730 
# 
# From -- ./inp_files/8948.got.cif
#   From: 2010.05.17/outbox.cif.g08.bks.cpg/sg69_5_cif.got.tgz:8948.got - 2010.06.03 19:29:58.
