data_PCOD9513054
_publ_section_title
;
Structure prediction by ZEFSAII (Michael W. Deem and Ramdas Pophale) SiO2 
 PCOD9513054
Probable space group: F M M M
;
_chemical_formula_sum "Si O2"
_cell_formula_units_Z 176
_cell_length_a 15.151306
_cell_length_b 28.624104
_cell_length_c 22.808231
_cell_angle_alpha 90.000000
_cell_angle_beta 90.000000
_cell_angle_gamma 90.000000
_cell_volume 9891.760061
_symmetry_space_group_name_H-M "F M M M"
_symmetry_group_IT_number 69
_symmetry_cell_setting 'orthorhombic'
loop_
_space_group_symop_operation_xyz
x,y,z
-x,-y,z
x,-y,-z
-x,y,-z
-x,-y,-z
x,y,-z
-x,y,z
x,-y,z
x,1/2+y,1/2+z
-x,1/2-y,1/2+z
x,1/2-y,1/2-z
-x,1/2+y,1/2-z
-x,1/2-y,1/2-z
x,1/2+y,1/2-z
-x,1/2+y,1/2+z
x,1/2-y,1/2+z
1/2+x,y,1/2+z
1/2-x,-y,1/2+z
1/2+x,-y,1/2-z
1/2-x,y,1/2-z
1/2-x,-y,1/2-z
1/2+x,y,1/2-z
1/2-x,y,1/2+z
1/2+x,-y,1/2+z
1/2+x,1/2+y,z
1/2-x,1/2-y,z
1/2+x,1/2-y,-z
1/2-x,1/2+y,-z
1/2-x,1/2-y,-z
1/2+x,1/2+y,-z
1/2-x,1/2+y,z
1/2+x,1/2-y,z
loop_
_atom_site_type_symbol
_atom_site_label
_atom_site_fract_x
_atom_site_fract_y
_atom_site_fract_z
Si Si1 0.599135 0.376551 0.898051
Si Si2 0.892735 0.446723 0.500000
Si Si3 0.603895 0.875377 0.932775
Si Si4 0.741332 0.696684 0.069388
Si Si5 0.367782 0.053067 0.699137
Si Si6 0.340466 0.447357 0.667421
O O1 0.500000 0.362036 0.915925
O O2 0.666557 0.333842 0.898726
O O3 0.593751 0.404845 0.837910
O O4 0.632907 0.415855 0.944104
O O5 0.859405 0.500000 0.500000
O O6 0.000000 0.449511 0.500000
O O7 0.500000 0.864931 0.927345
O O8 0.666088 0.830350 0.925104
O O9 0.631872 0.911946 0.882924
O O10 0.619144 0.892558 0.000000
O O11 0.750000 0.750000 0.089370
O O12 0.717652 0.697110 0.000000
O O13 0.382346 0.060223 0.768271
O O14 0.263829 0.054386 0.682360
O O15 0.397597 0.000000 0.683897
O O16 0.362208 0.500000 0.648514
#
# Coordination Sequence:
#
# PCOD9513054 Si02
#       6
#    32  16  32  32  32  32
#     4  11  20  32  53  82 113 142 179 222 271 334
#     4   9  18  30  45  74 115 147 168 203 256 316
#     4  10  21  37  57  82 110 142 185 233 281 327
#     4  10  21  38  58  79 106 141 183 231 283 332
#     4   9  18  33  54  82 113 150 189 221 263 327
#     4   9  18  34  56  80 112 151 189 225 264 321
#
# _framework density 17.792587000000001
#
# number of rings (size 3 to 8) (size 9 to 14) (size 15 to 20)
#    0.000    2.273    2.727    1.636    0.000    3.273 
#    0.000    4.545    0.000    2.182    0.000    2.545 
#    0.000    0.000    0.000    0.000    0.000    0.000 
#
# Total GULP energy -245374.166204 kJ/mol
# GULP energy per Si atom -5576.685596 kJ/mol
# Density = 1.775209 g / cm^3
# Si number density = 17.792587 Si / 1000 Ang^3
#
#
#
# Elastic Constant Matrix: (Units=GPa)
#
#
# Indices 1 2 3 4 5 6 
#
# 1 86.1293 56.7052 38.3493 0.0000 0.0000 0.0000
# 2 56.7052 151.8083 72.1134 0.0000 0.0000 0.0000
# 3 38.3493 72.1134 77.7389 0.0000 0.0000 0.0000
# 4 0.0000 0.0000 0.0000 9.8244 0.0000 0.0000
# 5 0.0000 0.0000 0.0000 0.0000 12.7241 0.0000
# 6 0.0000 0.0000 0.0000 0.0000 0.0000 -4.0786
#
#
#
# Elastic Compliance Matrix: (Units=1/GPa)
#
#
# Indices 1 2 3 4 5 6 
#
# 1 0.016141 -0.004017 -0.004237 0.000000 0.000000 0.000000
# 2 -0.004017 0.012776 -0.009870 0.000000 0.000000 0.000000
# 3 -0.004237 -0.009870 0.024109 0.000000 0.000000 0.000000
# 4 0.000000 0.000000 0.000000 0.101788 0.000000 0.000000
# 5 0.000000 0.000000 0.000000 0.000000 0.078591 0.000000
# 6 0.000000 0.000000 0.000000 0.000000 0.000000 -0.245184
#
#
# Mechanical properties :
#
#
# Convention : Reuss Voigt Hill
#
# Bulk Modulus (GPa) = 59.59486 72.22357 65.90922
# Shear Modulus (GPa) = 166.32084 13.59456 89.95770
#
# Velocity S-wave (km/s) = 9.67887 2.76716 7.11821
# Velocity P-wave (km/s) = 12.58866 7.13370 10.23142
#
# Compressibility (1/GPa) = 0.01677997
#
# Stress axis : x y z
#
# Youngs Moduli (GPa) = 61.95275 78.26989 41.47751
#
# Poissons Ratio (x) = 0.31440 0.17572
# Poissons Ratio (y) = 0.24885 0.40939
# Poissons Ratio (z) = 0.26246 0.77254
#
# Static dielectric constant tensor:
#      x y z
#    x 1.657220 0.000000 0.000000 
#    y 0.000000 1.573270 0.000000 
#    z 0.000000 0.000000 1.626260 
# 
# From -- ./inp_files/35923.got.cif
#   From: 2010.05.17/outbox.cif.g08.bks.cpg/sg69_18_cif.got.tgz:35923.got - 2010.06.03 19:29:58.
