data_PCOD9513568
_publ_section_title
;
Structure prediction by ZEFSAII (Michael W. Deem and Ramdas Pophale) SiO2 
 PCOD9513568
Probable space group: F M M M
;
_chemical_formula_sum "Si O2"
_cell_formula_units_Z 192
_cell_length_a 14.469441
_cell_length_b 23.169561
_cell_length_c 28.047326
_cell_angle_alpha 90.000000
_cell_angle_beta 90.000000
_cell_angle_gamma 90.000000
_cell_volume 9402.882754
_symmetry_space_group_name_H-M "F M M M"
_symmetry_group_IT_number 69
_symmetry_cell_setting 'orthorhombic'
loop_
_space_group_symop_operation_xyz
x,y,z
-x,-y,z
x,-y,-z
-x,y,-z
-x,-y,-z
x,y,-z
-x,y,z
x,-y,z
x,1/2+y,1/2+z
-x,1/2-y,1/2+z
x,1/2-y,1/2-z
-x,1/2+y,1/2-z
-x,1/2-y,1/2-z
x,1/2+y,1/2-z
-x,1/2+y,1/2+z
x,1/2-y,1/2+z
1/2+x,y,1/2+z
1/2-x,-y,1/2+z
1/2+x,-y,1/2-z
1/2-x,y,1/2-z
1/2-x,-y,1/2-z
1/2+x,y,1/2-z
1/2-x,y,1/2+z
1/2+x,-y,1/2+z
1/2+x,1/2+y,z
1/2-x,1/2-y,z
1/2+x,1/2-y,-z
1/2-x,1/2+y,-z
1/2-x,1/2-y,-z
1/2+x,1/2+y,-z
1/2-x,1/2+y,z
1/2+x,1/2-y,z
loop_
_atom_site_type_symbol
_atom_site_label
_atom_site_fract_x
_atom_site_fract_y
_atom_site_fract_z
Si Si1 0.890923 0.739952 0.554686
Si Si2 0.641503 0.314278 0.262147
Si Si3 0.749244 0.329810 0.901580
Si Si4 0.353741 0.500000 0.189211
Si Si5 0.600870 0.384433 0.644559
Si Si6 0.366861 0.500000 0.701277
Si Si7 0.100901 0.372437 0.331846
O O1 0.884537 0.760593 0.500000
O O2 0.829711 0.781901 0.588556
O O3 0.829755 0.681340 0.559071
O O4 0.000000 0.735794 0.566253
O O5 0.608096 0.250000 0.250000
O O6 0.750000 0.315427 0.250000
O O7 0.620884 0.335047 0.315506
O O8 0.600659 0.358653 0.224156
O O9 0.816051 0.384298 0.893442
O O10 0.681905 0.334204 0.855364
O O11 0.392794 0.500000 0.243171
O O12 0.244002 0.500000 0.196718
O O13 0.381069 0.440658 0.163396
O O14 0.500000 0.374632 0.622959
O O15 0.600975 0.443097 0.674269
O O16 0.000000 0.357686 0.351635
#
# Coordination Sequence:
#
# PCOD9513568 Si02
#       7
#    32  32  32  16  32  16  32
#     4  10  23  45  72  97 123 159 195 232 299 394
#     4  11  23  38  51  75 115 169 221 265 311 359
#     4  11  22  38  58  94 127 153 192 250 309 361
#     4  11  21  39  59  78 115 171 237 281 306 347
#     4  12  24  37  57  84 119 170 222 269 311 353
#     4  11  21  39  59  78 115 171 237 281 306 347
#     4  12  24  37  57  84 119 170 222 269 311 353
#
# _framework density 20.419270000000001
#
# number of rings (size 3 to 8) (size 9 to 14) (size 15 to 20)
#    0.000    0.833    5.000    3.000    4.667    2.000 
#    0.000    0.000    0.000    0.000    0.000    9.333 
#    0.000   21.333    0.000    0.000    0.000    0.000 
#
# Total GULP energy -267480.234121 kJ/mol
# GULP energy per Si atom -5572.504878 kJ/mol
# Density = 2.037279 g / cm^3
# Si number density = 20.419270 Si / 1000 Ang^3
#
#
#
# Elastic Constant Matrix: (Units=GPa)
#
#
# Indices 1 2 3 4 5 6 
#
# 1 202.6876 23.2491 33.2965 0.0000 0.0000 0.0000
# 2 23.2491 86.5131 27.9584 0.0000 0.0000 0.0000
# 3 33.2965 27.9584 63.0170 0.0000 0.0000 0.0000
# 4 0.0000 0.0000 0.0000 9.0014 0.0000 0.0000
# 5 0.0000 0.0000 0.0000 0.0000 14.2244 0.0000
# 6 0.0000 0.0000 0.0000 0.0000 0.0000 -12.4485
#
#
#
# Elastic Compliance Matrix: (Units=1/GPa)
#
#
# Indices 1 2 3 4 5 6 
#
# 1 0.005431 -0.000621 -0.002594 0.000000 0.000000 0.000000
# 2 -0.000621 0.013565 -0.005690 0.000000 0.000000 0.000000
# 3 -0.002594 -0.005690 0.019764 0.000000 0.000000 0.000000
# 4 0.000000 0.000000 0.000000 0.111093 0.000000 0.000000
# 5 0.000000 0.000000 0.000000 0.000000 0.070302 0.000000
# 6 0.000000 0.000000 0.000000 0.000000 0.000000 -0.080331
#
#
# Mechanical properties :
#
#
# Convention : Reuss Voigt Hill
#
# Bulk Modulus (GPa) = 47.73451 57.91395 52.82423
# Shear Modulus (GPa) = 30.37350 20.00305 25.18827
#
# Velocity S-wave (km/s) = 3.86099 3.13328 3.51601
# Velocity P-wave (km/s) = 6.58059 6.44313 6.51222
#
# Compressibility (1/GPa) = 0.02094920
#
# Stress axis : x y z
#
# Youngs Moduli (GPa) = 184.12508 73.72075 50.59760
#
# Poissons Ratio (x) = 0.04580 0.13125
# Poissons Ratio (y) = 0.11438 0.28790
# Poissons Ratio (z) = 0.47763 0.41947
#
# Static dielectric constant tensor:
#      x y z
#    x 1.805540 0.000000 0.000000 
#    y 0.000000 1.783910 0.000000 
#    z 0.000000 0.000000 1.724040 
# 
# From -- ./inp_files/41136.got.cif
#   From: 2010.05.17/outbox.cif.g08.bks.cpg/sg69_21_cif.got.tgz:41136.got - 2010.06.03 19:29:58.
