data_PCOD9513393
_publ_section_title
;
Structure prediction by ZEFSAII (Michael W. Deem and Ramdas Pophale) SiO2 
 PCOD9513393
Probable space group: F M M M
;
_chemical_formula_sum "Si O2"
_cell_formula_units_Z 192
_cell_length_a 15.481902
_cell_length_b 31.818432
_cell_length_c 17.999343
_cell_angle_alpha 90.000000
_cell_angle_beta 90.000000
_cell_angle_gamma 90.000000
_cell_volume 8866.653584
_symmetry_space_group_name_H-M "F M M M"
_symmetry_group_IT_number 69
_symmetry_cell_setting 'orthorhombic'
loop_
_space_group_symop_operation_xyz
x,y,z
-x,-y,z
x,-y,-z
-x,y,-z
-x,-y,-z
x,y,-z
-x,y,z
x,-y,z
x,1/2+y,1/2+z
-x,1/2-y,1/2+z
x,1/2-y,1/2-z
-x,1/2+y,1/2-z
-x,1/2-y,1/2-z
x,1/2+y,1/2-z
-x,1/2+y,1/2+z
x,1/2-y,1/2+z
1/2+x,y,1/2+z
1/2-x,-y,1/2+z
1/2+x,-y,1/2-z
1/2-x,y,1/2-z
1/2-x,-y,1/2-z
1/2+x,y,1/2-z
1/2-x,y,1/2+z
1/2+x,-y,1/2+z
1/2+x,1/2+y,z
1/2-x,1/2-y,z
1/2+x,1/2-y,-z
1/2-x,1/2+y,-z
1/2-x,1/2-y,-z
1/2+x,1/2+y,-z
1/2-x,1/2+y,z
1/2+x,1/2-y,z
loop_
_atom_site_type_symbol
_atom_site_label
_atom_site_fract_x
_atom_site_fract_y
_atom_site_fract_z
Si Si1 0.000000 0.578625 0.412265
Si Si2 0.100852 0.170000 0.581496
Si Si3 0.662463 0.048121 0.324034
Si Si4 0.839960 0.048302 0.585425
Si Si5 0.656263 0.236000 0.586265
Si Si6 0.097652 0.891207 0.699034
Si Si7 0.000000 0.678545 0.409790
O O1 0.082648 0.556015 0.378072
O O2 0.000000 0.628797 0.395713
O O3 0.000000 0.574396 0.500000
O O4 0.138632 0.158304 0.500000
O O5 0.106012 0.220013 0.585815
O O6 0.138065 0.148858 0.656194
O O7 0.000000 0.158118 0.580965
O O8 0.748992 0.052314 0.371729
O O9 0.650209 0.083991 0.261859
O O10 0.659133 0.000000 0.293325
O O11 0.830617 0.060604 0.500000
O O12 0.905275 0.076504 0.630453
O O13 0.866423 0.000000 0.588086
O O14 0.674228 0.223091 0.500000
O O15 0.750000 0.250000 0.618637
O O16 0.588895 0.201306 0.617401
O O17 0.000000 0.882546 0.726133
O O18 0.000000 0.684583 0.500000
#
# Coordination Sequence:
#
# PCOD9513393 Si02
#       7
#    16  32  32  32  32  32  16
#     4  11  23  38  62  90 120 155 198 257 304 342
#     4   9  17  31  53  82 119 158 195 242 295 354
#     4  11  23  41  61  84 118 161 207 246 300 373
#     4  10  22  39  59  84 116 155 200 254 310 361
#     4   9  16  29  53  82 115 156 196 240 298 359
#     4  11  22  36  58  88 121 155 202 250 300 360
#     4   9  18  33  51  81 119 148 191 249 298 351
#
# _framework density 21.654167999999999
#
# number of rings (size 3 to 8) (size 9 to 14) (size 15 to 20)
#    0.000    2.000    1.667    2.250    0.000    6.000 
#    0.000    4.167    0.000    2.000    0.000    1.167 
#    0.000    0.000    0.000    0.000    0.000    0.000 
#
# Total GULP energy -267624.102102 kJ/mol
# GULP energy per Si atom -5575.502127 kJ/mol
# Density = 2.160488 g / cm^3
# Si number density = 21.654168 Si / 1000 Ang^3
#
#
#
# Elastic Constant Matrix: (Units=GPa)
#
#
# Indices 1 2 3 4 5 6 
#
# 1 82.0503 5.4573 -7.6045 0.0000 0.0000 0.0000
# 2 5.4573 53.8884 4.8174 0.0000 0.0000 0.0000
# 3 -7.6045 4.8174 79.4109 0.0000 0.0000 0.0000
# 4 0.0000 0.0000 0.0000 32.0681 0.0000 0.0000
# 5 0.0000 0.0000 0.0000 0.0000 4.2496 0.0000
# 6 0.0000 0.0000 0.0000 0.0000 0.0000 43.7573
#
#
#
# Elastic Compliance Matrix: (Units=1/GPa)
#
#
# Indices 1 2 3 4 5 6 
#
# 1 0.012396 -0.001369 0.001270 0.000000 0.000000 0.000000
# 2 -0.001369 0.018809 -0.001272 0.000000 0.000000 0.000000
# 3 0.001270 -0.001272 0.012792 0.000000 0.000000 0.000000
# 4 0.000000 0.000000 0.000000 0.031184 0.000000 0.000000
# 5 0.000000 0.000000 0.000000 0.000000 0.235316 0.000000
# 6 0.000000 0.000000 0.000000 0.000000 0.000000 0.022853
#
#
# Mechanical properties :
#
#
# Convention : Reuss Voigt Hill
#
# Bulk Modulus (GPa) = 24.23931 24.52112 24.38021
# Shear Modulus (GPa) = 14.29209 30.19362 22.24285
#
# Velocity S-wave (km/s) = 2.57186 3.73816 3.20845
# Velocity P-wave (km/s) = 4.47632 5.47543 5.00089
#
# Compressibility (1/GPa) = 0.04125530
#
# Stress axis : x y z
#
# Youngs Moduli (GPa) = 80.66845 53.16535 78.17675
#
# Poissons Ratio (x) = 0.07278 -0.09930
# Poissons Ratio (y) = 0.11043 0.09945
# Poissons Ratio (z) = -0.10246 0.06763
#
# Static dielectric constant tensor:
#      x y z
#    x 1.784570 0.000000 0.000000 
#    y 0.000000 1.814350 0.000000 
#    z 0.000000 0.000000 1.814560 
# 
# From -- ./inp_files/23739.got.cif
#   From: 2010.05.17/outbox.cif.g08.bks.cpg/sg69_12_cif.got.tgz:23739.got - 2010.06.03 19:29:58.
