data_PCOD9513753
_publ_section_title
;
Structure prediction by ZEFSAII (Michael W. Deem and Ramdas Pophale) SiO2 
 PCOD9513753
Probable space group: F M M M
;
_chemical_formula_sum "Si O2"
_cell_formula_units_Z 176
_cell_length_a 14.955366
_cell_length_b 19.379982
_cell_length_c 27.628496
_cell_angle_alpha 90.000000
_cell_angle_beta 90.000000
_cell_angle_gamma 90.000000
_cell_volume 8007.697509
_symmetry_space_group_name_H-M "F M M M"
_symmetry_group_IT_number 69
_symmetry_cell_setting 'orthorhombic'
loop_
_space_group_symop_operation_xyz
x,y,z
-x,-y,z
x,-y,-z
-x,y,-z
-x,-y,-z
x,y,-z
-x,y,z
x,-y,z
x,1/2+y,1/2+z
-x,1/2-y,1/2+z
x,1/2-y,1/2-z
-x,1/2+y,1/2-z
-x,1/2-y,1/2-z
x,1/2+y,1/2-z
-x,1/2+y,1/2+z
x,1/2-y,1/2+z
1/2+x,y,1/2+z
1/2-x,-y,1/2+z
1/2+x,-y,1/2-z
1/2-x,y,1/2-z
1/2-x,-y,1/2-z
1/2+x,y,1/2-z
1/2-x,y,1/2+z
1/2+x,-y,1/2+z
1/2+x,1/2+y,z
1/2-x,1/2-y,z
1/2+x,1/2-y,-z
1/2-x,1/2+y,-z
1/2-x,1/2-y,-z
1/2+x,1/2+y,-z
1/2-x,1/2+y,z
1/2+x,1/2-y,z
loop_
_atom_site_type_symbol
_atom_site_label
_atom_site_fract_x
_atom_site_fract_y
_atom_site_fract_z
Si Si1 0.392572 0.328262 0.054620
Si Si2 0.152192 0.777088 0.371336
Si Si3 0.900761 0.306565 0.285240
Si Si4 0.609585 0.420324 0.146284
Si Si5 0.399654 0.083117 0.000000
Si Si6 0.108984 0.577941 0.894017
O O1 0.500000 0.334435 0.052724
O O2 0.370069 0.252321 0.075333
O O3 0.361428 0.381888 0.096463
O O4 0.358315 0.339428 0.000000
O O5 0.250000 0.750000 0.359865
O O6 0.090246 0.735753 0.334961
O O7 0.141494 0.857900 0.363274
O O8 0.856632 0.250000 0.250000
O O9 0.860224 0.377666 0.305936
O O10 0.000000 0.322042 0.264676
O O11 0.500000 0.418087 0.147048
O O12 0.636654 0.500000 0.146366
O O13 0.357094 0.096081 0.948238
O O14 0.500000 0.114249 0.000000
O O15 0.410145 0.000000 0.000000
O O16 0.135230 0.500000 0.880884
O O17 0.000000 0.578999 0.895532
#
# Coordination Sequence:
#
# PCOD9513753 Si02
#       6
#    32  32  32  32  16  32
#     4   9  18  32  50  72 100 140 188 229 263 310
#     4  11  22  34  49  76 110 145 173 221 283 349
#     4   9  18  35  57  77  99 132 178 228 276 333
#     4   8  14  27  49  77 105 130 162 210 265 315
#     4   7  12  24  45  72  96 126 171 221 270 310
#     4   9  17  32  54  77 102 137 187 238 277 317
#
# _framework density 21.978850999999999
#
# number of rings (size 3 to 8) (size 9 to 14) (size 15 to 20)
#    0.000    3.000    0.000    3.818    1.273    1.091 
#    0.000    6.364    0.000    3.273    0.000    6.364 
#    0.000    0.000    0.000    0.000    0.000    0.000 
#
# Total GULP energy -244984.332071 kJ/mol
# GULP energy per Si atom -5567.825729 kJ/mol
# Density = 2.192883 g / cm^3
# Si number density = 21.978851 Si / 1000 Ang^3
#
#
#
# Elastic Constant Matrix: (Units=GPa)
#
#
# Indices 1 2 3 4 5 6 
#
# 1 49.6199 6.1318 5.4516 0.0000 0.0000 0.0000
# 2 6.1318 195.3099 41.6496 0.0000 0.0000 0.0000
# 3 5.4516 41.6496 67.8051 0.0000 0.0000 0.0000
# 4 0.0000 0.0000 0.0000 25.1861 0.0000 0.0000
# 5 0.0000 0.0000 0.0000 0.0000 9.6008 0.0000
# 6 0.0000 0.0000 0.0000 0.0000 0.0000 8.3360
#
#
#
# Elastic Compliance Matrix: (Units=1/GPa)
#
#
# Indices 1 2 3 4 5 6 
#
# 1 0.020352 -0.000334 -0.001431 0.000000 0.000000 0.000000
# 2 -0.000334 0.005897 -0.003596 0.000000 0.000000 0.000000
# 3 -0.001431 -0.003596 0.017072 0.000000 0.000000 0.000000
# 4 0.000000 0.000000 0.000000 0.039704 0.000000 0.000000
# 5 0.000000 0.000000 0.000000 0.000000 0.104158 0.000000
# 6 0.000000 0.000000 0.000000 0.000000 0.000000 0.119961
#
#
# Mechanical properties :
#
#
# Convention : Reuss Voigt Hill
#
# Bulk Modulus (GPa) = 30.67524 46.57788 38.62656
# Shear Modulus (GPa) = 15.20997 25.92471 20.56734
#
# Velocity S-wave (km/s) = 2.63350 3.43815 3.06237
# Velocity P-wave (km/s) = 4.82017 6.08271 5.48787
#
# Compressibility (1/GPa) = 0.03259958
#
# Stress axis : x y z
#
# Youngs Moduli (GPa) = 49.13591 169.56884 58.57589
#
# Poissons Ratio (x) = 0.05659 0.08384
# Poissons Ratio (y) = 0.01640 0.21062
# Poissons Ratio (z) = 0.07033 0.60971
#
# Static dielectric constant tensor:
#      x y z
#    x 1.893800 0.000000 0.000000 
#    y 0.000000 1.823010 0.000000 
#    z 0.000000 0.000000 1.875480 
# 
# From -- ./inp_files/41866.got.cif
#   From: 2010.05.17/outbox.cif.g08.bks.cpg/sg69_21_cif.got.tgz:41866.got - 2010.06.03 19:29:58.
