data_PCOD9513907
_publ_section_title
;
Structure prediction by ZEFSAII (Michael W. Deem and Ramdas Pophale) SiO2 
 PCOD9513907
Probable space group: F M M M
;
_chemical_formula_sum "Si O2"
_cell_formula_units_Z 136
_cell_length_a 16.126828
_cell_length_b 22.054196
_cell_length_c 17.347671
_cell_angle_alpha 90.000000
_cell_angle_beta 90.000000
_cell_angle_gamma 90.000000
_cell_volume 6169.945972
_symmetry_space_group_name_H-M "F M M M"
_symmetry_group_IT_number 69
_symmetry_cell_setting 'orthorhombic'
loop_
_space_group_symop_operation_xyz
x,y,z
-x,-y,z
x,-y,-z
-x,y,-z
-x,-y,-z
x,y,-z
-x,y,z
x,-y,z
x,1/2+y,1/2+z
-x,1/2-y,1/2+z
x,1/2-y,1/2-z
-x,1/2+y,1/2-z
-x,1/2-y,1/2-z
x,1/2+y,1/2-z
-x,1/2+y,1/2+z
x,1/2-y,1/2+z
1/2+x,y,1/2+z
1/2-x,-y,1/2+z
1/2+x,-y,1/2-z
1/2-x,y,1/2-z
1/2-x,-y,1/2-z
1/2+x,y,1/2-z
1/2-x,y,1/2+z
1/2+x,-y,1/2+z
1/2+x,1/2+y,z
1/2-x,1/2-y,z
1/2+x,1/2-y,-z
1/2-x,1/2+y,-z
1/2-x,1/2-y,-z
1/2+x,1/2+y,-z
1/2-x,1/2+y,z
1/2+x,1/2-y,z
loop_
_atom_site_type_symbol
_atom_site_label
_atom_site_fract_x
_atom_site_fract_y
_atom_site_fract_z
Si Si1 0.403934 0.761554 0.159193
Si Si2 0.347096 0.395064 0.622810
Si Si3 0.094660 0.932220 0.218683
Si Si4 0.612345 0.500000 0.500000
Si Si5 0.663012 0.648492 0.086535
O O1 0.500000 0.743774 0.148394
O O2 0.384184 0.750000 0.250000
O O3 0.393883 0.830985 0.133212
O O4 0.345112 0.718759 0.108869
O O5 0.345990 0.420995 0.709339
O O6 0.384956 0.446014 0.567084
O O7 0.255475 0.377742 0.594178
O O8 0.109903 0.885678 0.150768
O O9 0.000000 0.926190 0.247585
O O10 0.106179 0.000000 0.188411
O O11 0.633042 0.638513 0.000000
#
# Coordination Sequence:
#
# PCOD9513907 Si02
#       5
#    32  32  32   8  32
#     4  11  25  47  74 107 148 194 245 304 373 444
#     4  12  25  47  74 106 146 194 245 301 372 439
#     4  11  25  45  70 102 142 193 248 300 365 443
#     4  12  28  48  73 112 159 190 250 314 372 444
#     4  12  27  44  73 107 146 187 246 305 367 441
#
# _framework density 22.042331999999998
#
# number of rings (size 3 to 8) (size 9 to 14) (size 15 to 20)
#    0.000    0.471    4.706    2.824    3.294    5.176 
#    0.000    5.294    0.000    0.000    0.000    0.000 
#    0.000    0.000    0.000    0.000    0.000    0.000 
#
# Total GULP energy -189693.025113 kJ/mol
# GULP energy per Si atom -5579.206621 kJ/mol
# Density = 2.199216 g / cm^3
# Si number density = 22.042332 Si / 1000 Ang^3
#
#
#
# Elastic Constant Matrix: (Units=GPa)
#
#
# Indices 1 2 3 4 5 6 
#
# 1 30.9136 17.9508 13.6674 0.0000 0.0000 0.0000
# 2 17.9508 170.1594 62.9372 0.0000 0.0000 0.0000
# 3 13.6674 62.9372 155.3103 0.0000 0.0000 0.0000
# 4 0.0000 0.0000 0.0000 68.1906 0.0000 0.0000
# 5 0.0000 0.0000 0.0000 0.0000 166.1923 0.0000
# 6 0.0000 0.0000 0.0000 0.0000 0.0000 1.7975
#
#
#
# Elastic Compliance Matrix: (Units=1/GPa)
#
#
# Indices 1 2 3 4 5 6 
#
# 1 0.034909 -0.002995 -0.001858 0.000000 0.000000 0.000000
# 2 -0.002995 0.007170 -0.002642 0.000000 0.000000 0.000000
# 3 -0.001858 -0.002642 0.007673 0.000000 0.000000 0.000000
# 4 0.000000 0.000000 0.000000 0.014665 0.000000 0.000000
# 5 0.000000 0.000000 0.000000 0.000000 0.006017 0.000000
# 6 0.000000 0.000000 0.000000 0.000000 0.000000 0.556334
#
#
# Mechanical properties :
#
#
# Convention : Reuss Voigt Hill
#
# Bulk Modulus (GPa) = 28.76796 60.61046 44.68921
# Shear Modulus (GPa) = 7.65291 64.69126 36.17209
#
# Velocity S-wave (km/s) = 1.86533 5.42332 4.05536
# Velocity P-wave (km/s) = 4.20937 8.17150 6.49970
#
# Compressibility (1/GPa) = 0.03476090
#
# Stress axis : x y z
#
# Youngs Moduli (GPa) = 28.64583 139.46960 130.32958
#
# Poissons Ratio (x) = 0.41777 0.24218
# Poissons Ratio (y) = 0.08581 0.34432
# Poissons Ratio (z) = 0.05323 0.36847
#
# Static dielectric constant tensor:
#      x y z
#    x 1.815520 0.000000 0.000000 
#    y 0.000000 1.865270 0.000000 
#    z 0.000000 0.000000 1.758820 
# 
# From -- ./inp_files/22598.got.cif
#   From: 2010.05.17/outbox.cif.g08.bks.cpg/sg69_12_cif.got.tgz:22598.got - 2010.06.03 19:29:58.
