data_PCOD9513456
_publ_section_title
;
Structure prediction by ZEFSAII (Michael W. Deem and Ramdas Pophale) SiO2 
 PCOD9513456
Probable space group: F M M M
;
_chemical_formula_sum "Si O2"
_cell_formula_units_Z 120
_cell_length_a 11.951385
_cell_length_b 27.373533
_cell_length_c 19.710869
_cell_angle_alpha 90.000000
_cell_angle_beta 90.000000
_cell_angle_gamma 90.000000
_cell_volume 6448.442955
_symmetry_space_group_name_H-M "F M M M"
_symmetry_group_IT_number 69
_symmetry_cell_setting 'orthorhombic'
loop_
_space_group_symop_operation_xyz
x,y,z
-x,-y,z
x,-y,-z
-x,y,-z
-x,-y,-z
x,y,-z
-x,y,z
x,-y,z
x,1/2+y,1/2+z
-x,1/2-y,1/2+z
x,1/2-y,1/2-z
-x,1/2+y,1/2-z
-x,1/2-y,1/2-z
x,1/2+y,1/2-z
-x,1/2+y,1/2+z
x,1/2-y,1/2+z
1/2+x,y,1/2+z
1/2-x,-y,1/2+z
1/2+x,-y,1/2-z
1/2-x,y,1/2-z
1/2-x,-y,1/2-z
1/2+x,y,1/2-z
1/2-x,y,1/2+z
1/2+x,-y,1/2+z
1/2+x,1/2+y,z
1/2-x,1/2-y,z
1/2+x,1/2-y,-z
1/2-x,1/2+y,-z
1/2-x,1/2-y,-z
1/2+x,1/2+y,-z
1/2-x,1/2+y,z
1/2+x,1/2-y,z
loop_
_atom_site_type_symbol
_atom_site_label
_atom_site_fract_x
_atom_site_fract_y
_atom_site_fract_z
Si Si1 0.625656 0.394522 0.121637
Si Si2 0.500000 0.558055 0.239132
Si Si3 0.767449 0.805059 0.669391
Si Si4 0.747653 0.944919 0.000000
Si Si5 0.000000 0.640219 0.856052
Si Si6 0.000000 0.588031 0.000000
O O1 0.500000 0.389815 0.093014
O O2 0.604675 0.426292 0.190369
O O3 0.676793 0.342475 0.139997
O O4 0.705149 0.419422 0.067204
O O5 0.500000 0.500000 0.253336
O O6 0.500000 0.593866 0.304036
O O7 0.750000 0.804040 0.750000
O O8 0.750000 0.750000 0.643337
O O9 0.889672 0.827343 0.655706
O O10 0.614115 0.942250 0.000000
O O11 0.788843 0.000000 0.000000
O O12 0.000000 0.620394 0.932275
#
# Coordination Sequence:
#
# PCOD9513456 Si02
#       6
#    32  16  32  16  16   8
#     4  10  22  41  64  98 132 162 221 277 318 382
#     4  10  22  40  68  96 129 170 219 273 326 378
#     4  11  23  41  71  99 128 172 217 277 334 382
#     4  12  24  42  67  93 135 183 219 265 328 389
#     4  12  24  46  64  95 137 168 219 270 321 401
#     4  12  27  44  60  90 138 174 212 262 329 394
#
# _framework density 18.609143
#
# number of rings (size 3 to 8) (size 9 to 14) (size 15 to 20)
#    0.800    0.267    5.333    1.400    1.867    2.667 
#    0.000    4.000    0.000    0.000    0.000    0.000 
#    0.000    0.000    0.000    0.000    0.000    0.000 
#
# Total GULP energy -167404.966548 kJ/mol
# GULP energy per Si atom -5580.165552 kJ/mol
# Density = 1.856679 g / cm^3
# Si number density = 18.609143 Si / 1000 Ang^3
#
#
#
# Elastic Constant Matrix: (Units=GPa)
#
#
# Indices 1 2 3 4 5 6 
#
# 1 107.7609 45.7695 23.9445 0.0000 0.0000 0.0000
# 2 45.7695 181.4792 58.2716 0.0000 0.0000 0.0000
# 3 23.9445 58.2716 113.9873 0.0000 0.0000 0.0000
# 4 0.0000 0.0000 0.0000 7.6822 0.0000 0.0000
# 5 0.0000 0.0000 0.0000 0.0000 20.2093 0.0000
# 6 0.0000 0.0000 0.0000 0.0000 0.0000 6.9698
#
#
#
# Elastic Compliance Matrix: (Units=1/GPa)
#
#
# Indices 1 2 3 4 5 6 
#
# 1 0.010491 -0.002319 -0.001018 0.000000 0.000000 0.000000
# 2 -0.002319 0.007105 -0.003145 0.000000 0.000000 0.000000
# 3 -0.001018 -0.003145 0.010595 0.000000 0.000000 0.000000
# 4 0.000000 0.000000 0.000000 0.130172 0.000000 0.000000
# 5 0.000000 0.000000 0.000000 0.000000 0.049482 0.000000
# 6 0.000000 0.000000 0.000000 0.000000 0.000000 0.143477
#
#
# Mechanical properties :
#
#
# Convention : Reuss Voigt Hill
#
# Bulk Modulus (GPa) = 65.67685 73.24430 69.46058
# Shear Modulus (GPa) = 13.53690 25.32170 19.42930
#
# Velocity S-wave (km/s) = 2.70002 3.69279 3.23472
# Velocity P-wave (km/s) = 6.71488 7.59124 7.16647
#
# Compressibility (1/GPa) = 0.01522607
#
# Stress axis : x y z
#
# Youngs Moduli (GPa) = 95.32002 140.74711 94.38780
#
# Poissons Ratio (x) = 0.32637 0.09612
# Poissons Ratio (y) = 0.22104 0.29685
# Poissons Ratio (z) = 0.09707 0.44265
#
# Static dielectric constant tensor:
#      x y z
#    x 1.640820 0.000000 0.000000 
#    y 0.000000 1.617820 0.000000 
#    z 0.000000 0.000000 1.597230 
# 
# From -- ./inp_files/28981.got.cif
#   From: 2010.05.17/outbox.cif.g08.bks.cpg/sg69_15_cif.got.tgz:28981.got - 2010.06.03 19:29:58.
