data_PCOD9513352
_publ_section_title
;
Structure prediction by ZEFSAII (Michael W. Deem and Ramdas Pophale) SiO2 
 PCOD9513352
Probable space group: F M M M
;
_chemical_formula_sum "Si O2"
_cell_formula_units_Z 160
_cell_length_a 33.147660
_cell_length_b 15.899949
_cell_length_c 15.112760
_cell_angle_alpha 90.000000
_cell_angle_beta 90.000000
_cell_angle_gamma 90.000000
_cell_volume 7965.121271
_symmetry_space_group_name_H-M "F M M M"
_symmetry_group_IT_number 69
_symmetry_cell_setting 'orthorhombic'
loop_
_space_group_symop_operation_xyz
x,y,z
-x,-y,z
x,-y,-z
-x,y,-z
-x,-y,-z
x,y,-z
-x,y,z
x,-y,z
x,1/2+y,1/2+z
-x,1/2-y,1/2+z
x,1/2-y,1/2-z
-x,1/2+y,1/2-z
-x,1/2-y,1/2-z
x,1/2+y,1/2-z
-x,1/2+y,1/2+z
x,1/2-y,1/2+z
1/2+x,y,1/2+z
1/2-x,-y,1/2+z
1/2+x,-y,1/2-z
1/2-x,y,1/2-z
1/2-x,-y,1/2-z
1/2+x,y,1/2-z
1/2-x,y,1/2+z
1/2+x,-y,1/2+z
1/2+x,1/2+y,z
1/2-x,1/2-y,z
1/2+x,1/2-y,-z
1/2-x,1/2+y,-z
1/2-x,1/2-y,-z
1/2+x,1/2+y,-z
1/2-x,1/2+y,z
1/2+x,1/2-y,z
loop_
_atom_site_type_symbol
_atom_site_label
_atom_site_fract_x
_atom_site_fract_y
_atom_site_fract_z
Si Si1 0.221205 0.328823 0.603847
Si Si2 0.000000 0.150034 0.898684
Si Si3 0.801716 0.904161 0.403315
Si Si4 0.156171 0.399730 0.269383
Si Si5 0.000000 0.645095 0.896803
Si Si6 0.063887 0.351901 0.747464
O O1 0.212271 0.321603 0.500000
O O2 0.250000 0.250000 0.630205
O O3 0.254123 0.402524 0.615671
O O4 0.181097 0.349183 0.656923
O O5 0.961954 0.124031 0.839105
O O6 0.000000 0.252590 0.900204
O O7 0.000000 0.120769 0.000000
O O8 0.807883 0.864541 0.500000
O O9 0.825904 0.865817 0.323202
O O10 0.815411 0.000000 0.408554
O O11 0.164614 0.500000 0.279308
O O12 0.108566 0.386497 0.263770
O O13 0.961079 0.621351 0.835949
O O14 0.000000 0.616134 0.000000
O O15 0.065673 0.250000 0.750000
#
# Coordination Sequence:
#
# PCOD9513352 Si02
#       6
#    32  16  32  32  16  32
#     4  10  22  38  56  79 107 145 195 241 283 335
#     4   8  15  33  56  78 108 144 184 230 283 337
#     4   9  19  36  54  73 104 146 188 229 279 339
#     4  11  23  36  55  84 117 153 187 234 297 346
#     4   8  15  33  58  82 112 150 186 230 285 333
#     4   9  19  33  54  84 111 143 189 236 280 336
#
# _framework density 20.087579000000002
#
# number of rings (size 3 to 8) (size 9 to 14) (size 15 to 20)
#    0.000    2.600    0.000    2.400    2.800    5.200 
#    0.000    2.000    0.000    1.200    0.000    0.000 
#    0.000    0.000    0.000    0.000    0.000    0.000 
#
# Total GULP energy -222915.688400 kJ/mol
# GULP energy per Si atom -5572.892210 kJ/mol
# Density = 2.004186 g / cm^3
# Si number density = 20.087579 Si / 1000 Ang^3
#
#
#
# Elastic Constant Matrix: (Units=GPa)
#
#
# Indices 1 2 3 4 5 6 
#
# 1 165.5139 25.8587 105.0799 0.0000 0.0000 0.0000
# 2 25.8587 50.7552 28.2925 0.0000 0.0000 0.0000
# 3 105.0799 28.2925 170.6812 0.0000 0.0000 0.0000
# 4 0.0000 0.0000 0.0000 7.5653 0.0000 0.0000
# 5 0.0000 0.0000 0.0000 0.0000 45.0926 0.0000
# 6 0.0000 0.0000 0.0000 0.0000 0.0000 23.5142
#
#
#
# Elastic Compliance Matrix: (Units=1/GPa)
#
#
# Indices 1 2 3 4 5 6 
#
# 1 0.010073 -0.001846 -0.005896 0.000000 0.000000 0.000000
# 2 -0.001846 0.022046 -0.002518 0.000000 0.000000 0.000000
# 3 -0.005896 -0.002518 0.009906 0.000000 0.000000 0.000000
# 4 0.000000 0.000000 0.000000 0.132182 0.000000 0.000000
# 5 0.000000 0.000000 0.000000 0.000000 0.022177 0.000000
# 6 0.000000 0.000000 0.000000 0.000000 0.000000 0.042527
#
#
# Mechanical properties :
#
#
# Convention : Reuss Voigt Hill
#
# Bulk Modulus (GPa) = 46.49731 78.37918 62.43824
# Shear Modulus (GPa) = 18.75474 30.41572 24.58523
#
# Velocity S-wave (km/s) = 3.05888 3.89544 3.50223
# Velocity P-wave (km/s) = 5.97271 7.70299 6.89236
#
# Compressibility (1/GPa) = 0.02150662
#
# Stress axis : x y z
#
# Youngs Moduli (GPa) = 99.27500 45.35878 100.95019
#
# Poissons Ratio (x) = 0.08372 0.59515
# Poissons Ratio (y) = 0.18323 0.25421
# Poissons Ratio (z) = 0.58528 0.11422
#
# Static dielectric constant tensor:
#      x y z
#    x 1.673400 0.000000 0.000000 
#    y 0.000000 1.788520 0.000000 
#    z 0.000000 0.000000 1.739350 
# 
# From -- ./inp_files/19563.got.cif
#   From: 2010.05.17/outbox.cif.g08.bks.cpg/sg69_10_cif.got.tgz:19563.got - 2010.06.03 19:29:58.
