data_PCOD9513061
_publ_section_title
;
Structure prediction by ZEFSAII (Michael W. Deem and Ramdas Pophale) SiO2 
 PCOD9513061
Probable space group: F M M M
;
_chemical_formula_sum "Si O2"
_cell_formula_units_Z 192
_cell_length_a 17.446501
_cell_length_b 33.142413
_cell_length_c 17.829150
_cell_angle_alpha 90.000000
_cell_angle_beta 90.000000
_cell_angle_gamma 90.000000
_cell_volume 10309.155808
_symmetry_space_group_name_H-M "F M M M"
_symmetry_group_IT_number 69
_symmetry_cell_setting 'orthorhombic'
loop_
_space_group_symop_operation_xyz
x,y,z
-x,-y,z
x,-y,-z
-x,y,-z
-x,-y,-z
x,y,-z
-x,y,z
x,-y,z
x,1/2+y,1/2+z
-x,1/2-y,1/2+z
x,1/2-y,1/2-z
-x,1/2+y,1/2-z
-x,1/2-y,1/2-z
x,1/2+y,1/2-z
-x,1/2+y,1/2+z
x,1/2-y,1/2+z
1/2+x,y,1/2+z
1/2-x,-y,1/2+z
1/2+x,-y,1/2-z
1/2-x,y,1/2-z
1/2-x,-y,1/2-z
1/2+x,y,1/2-z
1/2-x,y,1/2+z
1/2+x,-y,1/2+z
1/2+x,1/2+y,z
1/2-x,1/2-y,z
1/2+x,1/2-y,-z
1/2-x,1/2+y,-z
1/2-x,1/2-y,-z
1/2+x,1/2+y,-z
1/2-x,1/2+y,z
1/2+x,1/2-y,z
loop_
_atom_site_type_symbol
_atom_site_label
_atom_site_fract_x
_atom_site_fract_y
_atom_site_fract_z
Si Si1 0.646766 0.904540 0.910211
Si Si2 0.338426 0.178652 0.164786
Si Si3 0.409041 0.244812 0.413599
Si Si4 0.844393 0.666719 0.662416
Si Si5 0.822040 0.918374 0.091101
Si Si6 0.000000 0.453844 0.908178
Si Si7 0.911269 0.000000 0.091257
O O1 0.633639 0.858725 0.885054
O O2 0.731779 0.919071 0.886782
O O3 0.577101 0.931803 0.882345
O O4 0.646584 0.906125 0.000000
O O5 0.368260 0.221286 0.136054
O O6 0.246262 0.177056 0.158541
O O7 0.363569 0.170253 0.249920
O O8 0.384137 0.249017 0.500000
O O9 0.500000 0.250975 0.409747
O O10 0.388631 0.200511 0.384038
O O11 0.855234 0.622032 0.629086
O O12 0.866282 0.959169 0.113130
O O13 0.825985 0.914430 0.000000
O O14 0.000000 0.500000 0.884896
O O15 0.000000 0.452828 0.000000
O O16 0.000000 0.000000 0.116151
O O17 0.911841 0.000000 0.000000
#
# Coordination Sequence:
#
# PCOD9513061 Si02
#       7
#    32  32  32  32  32  16  16
#     4   9  18  32  53  80 109 144 183 226 275 326
#     4  10  21  37  58  80 111 145 185 223 271 327
#     4  11  24  38  55  82 112 143 182 228 275 325
#     4  10  21  38  58  81 110 145 184 225 275 328
#     4   9  18  33  56  81 108 142 183 229 279 330
#     4   9  18  30  50  80 111 140 179 231 280 324
#     4   9  18  32  54  82 107 139 184 234 283 327
#
# _framework density 18.624222
#
# number of rings (size 3 to 8) (size 9 to 14) (size 15 to 20)
#    0.000    2.333    0.000    2.000    2.333    6.000 
#    0.000    1.667    1.833    2.000    0.000    0.000 
#    0.000    0.000    0.000    0.000    0.000    0.000 
#
# Total GULP energy -267872.581607 kJ/mol
# GULP energy per Si atom -5580.678783 kJ/mol
# Density = 1.858183 g / cm^3
# Si number density = 18.624222 Si / 1000 Ang^3
#
#
#
# Elastic Constant Matrix: (Units=GPa)
#
#
# Indices 1 2 3 4 5 6 
#
# 1 56.7081 68.8508 22.8262 0.0000 0.0000 0.0000
# 2 68.8508 164.1763 26.8656 0.0000 0.0000 0.0000
# 3 22.8262 26.8656 27.6521 0.0000 0.0000 0.0000
# 4 0.0000 0.0000 0.0000 -24.1934 0.0000 0.0000
# 5 0.0000 0.0000 0.0000 0.0000 12.0353 0.0000
# 6 0.0000 0.0000 0.0000 0.0000 0.0000 26.9762
#
#
#
# Elastic Compliance Matrix: (Units=1/GPa)
#
#
# Indices 1 2 3 4 5 6 
#
# 1 0.045273 -0.015304 -0.022503 0.000000 0.000000 0.000000
# 2 -0.015304 0.012416 0.000570 0.000000 0.000000 0.000000
# 3 -0.022503 0.000570 0.054186 0.000000 0.000000 0.000000
# 4 0.000000 0.000000 0.000000 -0.041334 0.000000 0.000000
# 5 0.000000 0.000000 0.000000 0.000000 0.083089 0.000000
# 6 0.000000 0.000000 0.000000 0.000000 0.000000 0.037070
#
#
# Mechanical properties :
#
#
# Convention : Reuss Voigt Hill
#
# Bulk Modulus (GPa) = 26.73753 53.95797 40.34775
# Shear Modulus (GPa) = 18.00897 11.62987 14.81942
#
# Velocity S-wave (km/s) = 3.11298 2.50161 2.82389
# Velocity P-wave (km/s) = 5.22574 6.11383 5.68714
#
# Compressibility (1/GPa) = 0.03740062
#
# Stress axis : x y z
#
# Youngs Moduli (GPa) = 22.08826 80.54383 18.45511
#
# Poissons Ratio (x) = 1.23262 0.41530
# Poissons Ratio (y) = 0.33803 -0.01053
# Poissons Ratio (z) = 0.49706 -0.04594
#
# Static dielectric constant tensor:
#      x y z
#    x 1.644120 0.000000 0.000000 
#    y 0.000000 1.602860 0.000000 
#    z 0.000000 0.000000 1.635430 
# 
# From -- ./inp_files/23760.got.cif
#   From: 2010.05.17/outbox.cif.g08.bks.cpg/sg69_12_cif.got.tgz:23760.got - 2010.06.03 19:29:58.
