data_PCOD9513031
_publ_section_title
;
Structure prediction by ZEFSAII (Michael W. Deem and Ramdas Pophale) SiO2 
 PCOD9513031
Probable space group: F M M M
;
_chemical_formula_sum "Si O2"
_cell_formula_units_Z 160
_cell_length_a 34.464445
_cell_length_b 29.696188
_cell_length_c 8.605027
_cell_angle_alpha 90.000000
_cell_angle_beta 90.000000
_cell_angle_gamma 90.000000
_cell_volume 8806.923634
_symmetry_space_group_name_H-M "F M M M"
_symmetry_group_IT_number 69
_symmetry_cell_setting 'orthorhombic'
loop_
_space_group_symop_operation_xyz
x,y,z
-x,-y,z
x,-y,-z
-x,y,-z
-x,-y,-z
x,y,-z
-x,y,z
x,-y,z
x,1/2+y,1/2+z
-x,1/2-y,1/2+z
x,1/2-y,1/2-z
-x,1/2+y,1/2-z
-x,1/2-y,1/2-z
x,1/2+y,1/2-z
-x,1/2+y,1/2+z
x,1/2-y,1/2+z
1/2+x,y,1/2+z
1/2-x,-y,1/2+z
1/2+x,-y,1/2-z
1/2-x,y,1/2-z
1/2-x,-y,1/2-z
1/2+x,y,1/2-z
1/2-x,y,1/2+z
1/2+x,-y,1/2+z
1/2+x,1/2+y,z
1/2-x,1/2-y,z
1/2+x,1/2-y,-z
1/2-x,1/2+y,-z
1/2-x,1/2-y,-z
1/2+x,1/2+y,-z
1/2-x,1/2+y,z
1/2+x,1/2-y,z
loop_
_atom_site_type_symbol
_atom_site_label
_atom_site_fract_x
_atom_site_fract_y
_atom_site_fract_z
Si Si1 0.061776 0.874689 0.810831
Si Si2 0.000000 0.300514 0.312377
Si Si3 0.208480 0.300258 0.814956
Si Si4 0.000000 0.551583 0.310333
Si Si5 0.792336 0.053373 0.315837
Si Si6 0.849228 0.626213 0.686124
O O1 0.037359 0.918816 0.762643
O O2 0.106185 0.874798 0.759403
O O3 0.037329 0.830449 0.763795
O O4 0.061813 0.874894 0.000000
O O5 0.000000 0.250000 0.250000
O O6 0.000000 0.298749 0.500000
O O7 0.202855 0.250000 0.750000
O O8 0.250000 0.316727 0.750000
O O9 0.174416 0.332525 0.758855
O O10 0.210447 0.298950 0.000000
O O11 0.000000 0.500000 0.256355
O O12 0.000000 0.550604 0.500000
O O13 0.792909 0.062160 0.500000
O O14 0.750000 0.065900 0.250000
O O15 0.825857 0.081733 0.234797
O O16 0.797440 0.000000 0.289826
O O17 0.848884 0.630517 0.500000
#
# Coordination Sequence:
#
# PCOD9513031 Si02
#       6
#    32  16  32  16  32  32
#     4   8  17  31  48  74 106 134 166 211 256 305
#     4   9  17  34  55  75 101 134 170 208 254 302
#     4  11  22  38  57  78 105 139 179 220 264 312
#     4   8  13  26  49  74 101 134 169 207 255 307
#     4  10  21  37  55  76 104 140 181 223 266 312
#     4  11  21  34  53  79 110 142 176 216 264 314
#
# _framework density 18.167524
#
# number of rings (size 3 to 8) (size 9 to 14) (size 15 to 20)
#    0.000    2.300    0.000    5.400    0.000    2.800 
#    0.000    6.000    0.000    0.000    0.000    0.000 
#    0.000    8.000    0.000    0.000    0.000    0.000 
#
# Total GULP energy -223280.574259 kJ/mol
# GULP energy per Si atom -5582.014356 kJ/mol
# Density = 1.812617 g / cm^3
# Si number density = 18.167524 Si / 1000 Ang^3
#
#
#
# Elastic Constant Matrix: (Units=GPa)
#
#
# Indices 1 2 3 4 5 6 
#
# 1 197.0466 91.9625 50.2250 -0.0034 0.0054 -0.0082
# 2 91.9625 125.3647 43.2328 -0.0567 0.0300 0.0214
# 3 50.2250 43.2328 68.5621 -0.0700 0.0418 0.1110
# 4 -0.0034 -0.0567 -0.0700 29.9810 0.0330 0.0642
# 5 0.0054 0.0300 0.0418 0.0330 15.0568 -0.0341
# 6 -0.0082 0.0214 0.1110 0.0642 -0.0341 42.5638
#
#
#
# Elastic Compliance Matrix: (Units=1/GPa)
#
#
# Indices 1 2 3 4 5 6 
#
# 1 0.008117 -0.004988 -0.002801 -0.000015 0.000015 0.000011
# 2 -0.004988 0.013259 -0.004706 0.000014 -0.000012 0.000005
# 3 -0.002801 -0.004706 0.019605 0.000037 -0.000044 -0.000049
# 4 -0.000015 0.000014 0.000037 0.033355 -0.000073 -0.000050
# 5 0.000015 -0.000012 -0.000044 -0.000073 0.066415 0.000053
# 6 0.000011 0.000005 -0.000049 -0.000050 0.000053 0.023494
#
#
# Mechanical properties :
#
#
# Convention : Reuss Voigt Hill
#
# Bulk Modulus (GPa) = 62.53951 84.64598 73.59274
# Shear Modulus (GPa) = 25.69821 31.22386 28.46104
#
# Velocity S-wave (km/s) = 3.76508 4.15017 3.96231
# Velocity P-wave (km/s) = 7.30751 8.34616 7.84404
#
# Compressibility (1/GPa) = 0.01598989
#
# Stress axis : x y z
#
# Youngs Moduli (GPa) = 123.19971 75.41981 51.00830
#
# Poissons Ratio (x) = 0.37623 0.14285
# Poissons Ratio (y) = 0.61458 0.24007
# Poissons Ratio (z) = 0.34502 0.35496
#
# Static dielectric constant tensor:
#      x y z
#    x 1.605750 0.000000 0.000000 
#    y 0.000000 1.616560 0.000000 
#    z 0.000000 0.000000 1.617970 
# 
# From -- ./inp_files/5804.got.cif
#   From: 2010.05.17/outbox.cif.g08.bks.cpg/sg69_3_cif.got.tgz:5804.got - 2010.06.03 19:29:58.
