data_PCOD9513952
_publ_section_title
;
Structure prediction by ZEFSAII (Michael W. Deem and Ramdas Pophale) SiO2 
 PCOD9513952
Probable space group: F M M M
;
_chemical_formula_sum "Si O2"
_cell_formula_units_Z 176
_cell_length_a 19.648615
_cell_length_b 14.654914
_cell_length_c 28.951730
_cell_angle_alpha 90.000000
_cell_angle_beta 90.000000
_cell_angle_gamma 90.000000
_cell_volume 8336.614841
_symmetry_space_group_name_H-M "F M M M"
_symmetry_group_IT_number 69
_symmetry_cell_setting 'orthorhombic'
loop_
_space_group_symop_operation_xyz
x,y,z
-x,-y,z
x,-y,-z
-x,y,-z
-x,-y,-z
x,y,-z
-x,y,z
x,-y,z
x,1/2+y,1/2+z
-x,1/2-y,1/2+z
x,1/2-y,1/2-z
-x,1/2+y,1/2-z
-x,1/2-y,1/2-z
x,1/2+y,1/2-z
-x,1/2+y,1/2+z
x,1/2-y,1/2+z
1/2+x,y,1/2+z
1/2-x,-y,1/2+z
1/2+x,-y,1/2-z
1/2-x,y,1/2-z
1/2-x,-y,1/2-z
1/2+x,y,1/2-z
1/2-x,y,1/2+z
1/2+x,-y,1/2+z
1/2+x,1/2+y,z
1/2-x,1/2-y,z
1/2+x,1/2-y,-z
1/2-x,1/2+y,-z
1/2-x,1/2-y,-z
1/2+x,1/2+y,-z
1/2-x,1/2+y,z
1/2+x,1/2-y,z
loop_
_atom_site_type_symbol
_atom_site_label
_atom_site_fract_x
_atom_site_fract_y
_atom_site_fract_z
Si Si1 0.078345 0.389425 0.630364
Si Si2 0.077719 0.646958 0.267780
Si Si3 0.815649 0.388268 0.446759
Si Si4 0.332506 0.611535 0.412606
Si Si5 0.422950 0.388907 0.500000
Si Si6 0.077759 0.604328 0.169600
O O1 0.077714 0.500000 0.630225
O O2 0.106787 0.361831 0.681024
O O3 0.124207 0.359241 0.587495
O O4 0.000000 0.357736 0.626003
O O5 0.075939 0.750000 0.250000
O O6 0.105849 0.600734 0.221761
O O7 0.000000 0.611970 0.272732
O O8 0.821967 0.357921 0.500000
O O9 0.816178 0.500000 0.447879
O O10 0.743673 0.359321 0.424852
O O11 0.328782 0.500000 0.410959
O O12 0.381644 0.637312 0.454652
O O13 0.368564 0.645986 0.365902
O O14 0.425320 0.500000 0.500000
O O15 0.500000 0.354971 0.500000
O O16 0.069291 0.500000 0.154305
O O17 0.000000 0.644154 0.169511
#
# Coordination Sequence:
#
# PCOD9513952 Si02
#       6
#    32  32  32  32  16  32
#     4   9  17  29  47  71  95 118 151 196 239 278
#     4   9  17  30  48  69  91 120 154 190 234 281
#     4   9  16  27  43  65  95 126 153 187 233 280
#     4   9  15  24  38  61  92 124 151 178 221 272
#     4   9  14  20  34  58  89 120 151 185 219 262
#     4   9  16  26  43  68  95 120 149 187 228 270
#
# _framework density 21.111687
#
# number of rings (size 3 to 8) (size 9 to 14) (size 15 to 20)
#    0.000    3.000    0.909    1.091    0.000    4.727 
#    0.000    2.727    0.000    6.545    2.364    1.273 
#    0.000    0.000    0.000    0.000    0.000    0.000 
#
# Total GULP energy -245254.445818 kJ/mol
# GULP energy per Si atom -5573.964678 kJ/mol
# Density = 2.106364 g / cm^3
# Si number density = 21.111687 Si / 1000 Ang^3
#
#
#
# Elastic Constant Matrix: (Units=GPa)
#
#
# Indices 1 2 3 4 5 6 
#
# 1 123.0118 7.2664 108.4967 0.0000 0.0000 0.0000
# 2 7.2664 48.2554 8.3049 0.0000 0.0000 0.0000
# 3 108.4967 8.3049 218.9527 0.0000 0.0000 0.0000
# 4 0.0000 0.0000 0.0000 4.9275 0.0000 0.0000
# 5 0.0000 0.0000 0.0000 0.0000 183.7836 0.0000
# 6 0.0000 0.0000 0.0000 0.0000 0.0000 -3.6658
#
#
#
# Elastic Compliance Matrix: (Units=1/GPa)
#
#
# Indices 1 2 3 4 5 6 
#
# 1 0.014484 -0.000952 -0.007141 0.000000 0.000000 0.000000
# 2 -0.000952 0.020922 -0.000322 0.000000 0.000000 0.000000
# 3 -0.007141 -0.000322 0.008118 0.000000 0.000000 0.000000
# 4 0.000000 0.000000 0.000000 0.202944 0.000000 0.000000
# 5 0.000000 0.000000 0.000000 0.000000 0.005441 0.000000
# 6 0.000000 0.000000 0.000000 0.000000 0.000000 -0.272790
#
#
# Mechanical properties :
#
#
# Convention : Reuss Voigt Hill
#
# Bulk Modulus (GPa) = 37.46163 70.92844 54.19504
# Shear Modulus (GPa) = 1031.57830 54.75251 543.16540
#
# Velocity S-wave (km/s) = 22.12894 5.09814 16.05741
# Velocity P-wave (km/s) = 25.89793 8.26586 19.22274
#
# Compressibility (1/GPa) = 0.02669398
#
# Stress axis : x y z
#
# Youngs Moduli (GPa) = 69.04178 47.79696 123.18316
#
# Poissons Ratio (x) = 0.04550 0.87966
# Poissons Ratio (y) = 0.06573 0.03964
# Poissons Ratio (z) = 0.49303 0.01538
#
# Static dielectric constant tensor:
#      x y z
#    x 1.745310 0.000000 0.000000 
#    y 0.000000 1.905400 0.000000 
#    z 0.000000 0.000000 1.768520 
# 
# From -- ./inp_files/23543.got.cif
#   From: 2010.05.17/outbox.cif.g08.bks.cpg/sg69_12_cif.got.tgz:23543.got - 2010.06.03 19:29:58.
