data_PCOD9513383
_publ_section_title
;
Structure prediction by ZEFSAII (Michael W. Deem and Ramdas Pophale) SiO2 
 PCOD9513383
Probable space group: F M M M
;
_chemical_formula_sum "Si O2"
_cell_formula_units_Z 176
_cell_length_a 29.164478
_cell_length_b 14.996034
_cell_length_c 21.244479
_cell_angle_alpha 90.000000
_cell_angle_beta 90.000000
_cell_angle_gamma 90.000000
_cell_volume 9291.304836
_symmetry_space_group_name_H-M "F M M M"
_symmetry_group_IT_number 69
_symmetry_cell_setting 'orthorhombic'
loop_
_space_group_symop_operation_xyz
x,y,z
-x,-y,z
x,-y,-z
-x,y,-z
-x,-y,-z
x,y,-z
-x,y,z
x,-y,z
x,1/2+y,1/2+z
-x,1/2-y,1/2+z
x,1/2-y,1/2-z
-x,1/2+y,1/2-z
-x,1/2-y,1/2-z
x,1/2+y,1/2-z
-x,1/2+y,1/2+z
x,1/2-y,1/2+z
1/2+x,y,1/2+z
1/2-x,-y,1/2+z
1/2+x,-y,1/2-z
1/2-x,y,1/2-z
1/2-x,-y,1/2-z
1/2+x,y,1/2-z
1/2-x,y,1/2+z
1/2+x,-y,1/2+z
1/2+x,1/2+y,z
1/2-x,1/2-y,z
1/2+x,1/2-y,-z
1/2-x,1/2+y,-z
1/2-x,1/2-y,-z
1/2+x,1/2+y,-z
1/2-x,1/2+y,z
1/2+x,1/2-y,z
loop_
_atom_site_type_symbol
_atom_site_label
_atom_site_fract_x
_atom_site_fract_y
_atom_site_fract_z
Si Si1 0.290319 0.105555 0.292282
Si Si2 0.445016 0.395833 0.000000
Si Si3 0.107261 0.104283 0.224029
Si Si4 0.054662 0.101653 0.354882
Si Si5 0.795363 0.311097 0.429392
Si Si6 0.101861 0.225455 0.103364
O O1 0.250000 0.145705 0.250000
O O2 0.339468 0.122669 0.260242
O O3 0.290620 0.132502 0.365399
O O4 0.284594 0.000000 0.292788
O O5 0.423798 0.343611 0.941594
O O6 0.432068 0.500000 0.000000
O O7 0.500000 0.390252 0.000000
O O8 0.075242 0.111062 0.284570
O O9 0.097252 0.177313 0.171103
O O10 0.104507 0.000000 0.201250
O O11 0.077990 0.178734 0.395442
O O12 0.000000 0.112992 0.353785
O O13 0.064802 0.000000 0.375686
O O14 0.797655 0.353423 0.500000
O O15 0.750000 0.250000 0.430181
O O16 0.845118 0.265649 0.418052
#
# Coordination Sequence:
#
# PCOD9513383 Si02
#       6
#    32  16  32  32  32  32
#     4   9  19  35  57  87 119 156 200 250 305 363
#     4  11  24  40  62  91 119 151 195 246 299 363
#     4   9  19  35  57  88 123 157 199 248 304 365
#     4  10  22  39  60  87 121 161 206 257 307 361
#     4  10  22  39  57  84 119 159 202 249 301 367
#     4  11  21  39  61  87 121 163 199 248 305 361
#
# _framework density 18.942442
#
# number of rings (size 3 to 8) (size 9 to 14) (size 15 to 20)
#    0.000    2.091    0.909    1.636    2.545    3.636 
#    0.000    2.273    0.000    2.727    0.000    0.000 
#    0.000    0.000    0.000    0.000    0.000    0.000 
#
# Total GULP energy -245256.956876 kJ/mol
# GULP energy per Si atom -5574.021747 kJ/mol
# Density = 1.889933 g / cm^3
# Si number density = 18.942442 Si / 1000 Ang^3
#
#
#
# Elastic Constant Matrix: (Units=GPa)
#
#
# Indices 1 2 3 4 5 6 
#
# 1 120.2045 76.6978 47.1160 0.0000 0.0000 0.0000
# 2 76.6978 113.4478 37.5511 0.0000 0.0000 0.0000
# 3 47.1160 37.5511 63.9498 0.0000 0.0000 0.0000
# 4 0.0000 0.0000 0.0000 28.4268 0.0000 0.0000
# 5 0.0000 0.0000 0.0000 0.0000 27.1413 0.0000
# 6 0.0000 0.0000 0.0000 0.0000 0.0000 19.1872
#
#
#
# Elastic Compliance Matrix: (Units=1/GPa)
#
#
# Indices 1 2 3 4 5 6 
#
# 1 0.016895 -0.009064 -0.007126 0.000000 0.000000 0.000000
# 2 -0.009064 0.015804 -0.002602 0.000000 0.000000 0.000000
# 3 -0.007126 -0.002602 0.022415 0.000000 0.000000 0.000000
# 4 0.000000 0.000000 0.000000 0.035178 0.000000 0.000000
# 5 0.000000 0.000000 0.000000 0.000000 0.036844 0.000000
# 6 0.000000 0.000000 0.000000 0.000000 0.000000 0.052118
#
#
# Mechanical properties :
#
#
# Convention : Reuss Voigt Hill
#
# Bulk Modulus (GPa) = 57.04114 68.92576 62.98345
# Shear Modulus (GPa) = 22.45365 24.03355 23.24360
#
# Velocity S-wave (km/s) = 3.44664 3.56584 3.50675
# Velocity P-wave (km/s) = 6.78361 7.30887 7.05113
#
# Compressibility (1/GPa) = 0.01753121
#
# Stress axis : x y z
#
# Youngs Moduli (GPa) = 59.18751 63.27703 44.61278
#
# Poissons Ratio (x) = 0.57353 0.31790
# Poissons Ratio (y) = 0.53646 0.11608
# Poissons Ratio (z) = 0.42176 0.16464
#
# Static dielectric constant tensor:
#      x y z
#    x 1.655820 0.000000 0.000000 
#    y 0.000000 1.657150 0.000000 
#    z 0.000000 0.000000 1.672470 
# 
# From -- ./inp_files/38335.got.cif
#   From: 2010.05.17/outbox.cif.g08.bks.cpg/sg69_20_cif.got.tgz:38335.got - 2010.06.03 19:29:58.
