data_PCOD9513549
_publ_section_title
;
Structure prediction by ZEFSAII (Michael W. Deem and Ramdas Pophale) SiO2 
 PCOD9513549
Probable space group: F M M M
;
_chemical_formula_sum "Si O2"
_cell_formula_units_Z 160
_cell_length_a 15.546560
_cell_length_b 16.507651
_cell_length_c 28.788256
_cell_angle_alpha 90.000000
_cell_angle_beta 90.000000
_cell_angle_gamma 90.000000
_cell_volume 7388.137031
_symmetry_space_group_name_H-M "F M M M"
_symmetry_group_IT_number 69
_symmetry_cell_setting 'orthorhombic'
loop_
_space_group_symop_operation_xyz
x,y,z
-x,-y,z
x,-y,-z
-x,y,-z
-x,-y,-z
x,y,-z
-x,y,z
x,-y,z
x,1/2+y,1/2+z
-x,1/2-y,1/2+z
x,1/2-y,1/2-z
-x,1/2+y,1/2-z
-x,1/2-y,1/2-z
x,1/2+y,1/2-z
-x,1/2+y,1/2+z
x,1/2-y,1/2+z
1/2+x,y,1/2+z
1/2-x,-y,1/2+z
1/2+x,-y,1/2-z
1/2-x,y,1/2-z
1/2-x,-y,1/2-z
1/2+x,y,1/2-z
1/2-x,y,1/2+z
1/2+x,-y,1/2+z
1/2+x,1/2+y,z
1/2-x,1/2-y,z
1/2+x,1/2-y,-z
1/2-x,1/2+y,-z
1/2-x,1/2-y,-z
1/2+x,1/2+y,-z
1/2-x,1/2+y,z
1/2+x,1/2-y,z
loop_
_atom_site_type_symbol
_atom_site_label
_atom_site_fract_x
_atom_site_fract_y
_atom_site_fract_z
Si Si1 0.154328 0.644632 0.553018
Si Si2 0.098776 0.409236 0.146246
Si Si3 0.151100 0.665629 0.233950
Si Si4 0.844905 0.000000 0.774212
Si Si5 0.898103 0.500000 0.378807
Si Si6 0.139162 0.168907 0.552287
O O1 0.130208 0.620823 0.500000
O O2 0.125054 0.578777 0.590255
O O3 0.120832 0.736001 0.561207
O O4 0.257873 0.654186 0.553856
O O5 0.133240 0.500000 0.152471
O O6 0.148541 0.346773 0.178763
O O7 0.101725 0.384885 0.092861
O O8 0.000000 0.407626 0.161573
O O9 0.110640 0.750000 0.250000
O O10 0.250000 0.667872 0.250000
O O11 0.113362 0.583597 0.256279
O O12 0.750000 0.000000 0.750000
O O13 0.847547 0.000000 0.829918
O O14 0.000000 0.500000 0.368903
O O15 0.110417 0.149667 0.500000
#
# Coordination Sequence:
#
# PCOD9513549 Si02
#       6
#    32  32  32  16  16  32
#     4   9  21  41  65  96 131 168 214 263 311 379
#     4  11  25  41  61  91 128 166 207 263 326 378
#     4  10  23  41  67  94 118 162 212 265 321 385
#     4  10  24  43  63  92 127 169 217 265 313 379
#     4  12  27  40  64 103 138 172 210 262 337 409
#     4   9  21  41  67  95 125 169 222 266 309 375
#
# _framework density 21.656338999999999
#
# number of rings (size 3 to 8) (size 9 to 14) (size 15 to 20)
#    0.000    2.000    1.000    1.500    9.800    5.200 
#    0.000    3.000    0.000    0.000    0.000    0.000 
#    0.000    0.000    0.000    0.000    0.000    0.000 
#
# Total GULP energy -223440.172862 kJ/mol
# GULP energy per Si atom -5586.004322 kJ/mol
# Density = 2.160705 g / cm^3
# Si number density = 21.656339 Si / 1000 Ang^3
#
#
#
# Elastic Constant Matrix: (Units=GPa)
#
#
# Indices 1 2 3 4 5 6 
#
# 1 62.3180 14.9351 30.8762 0.0000 0.0000 0.0000
# 2 14.9351 142.8009 70.5812 0.0000 0.0000 0.0000
# 3 30.8762 70.5812 154.6766 0.0000 0.0000 0.0000
# 4 0.0000 0.0000 0.0000 24.8303 0.0000 0.0000
# 5 0.0000 0.0000 0.0000 0.0000 -31.4763 0.0000
# 6 0.0000 0.0000 0.0000 0.0000 0.0000 18.3969
#
#
#
# Elastic Compliance Matrix: (Units=1/GPa)
#
#
# Indices 1 2 3 4 5 6 
#
# 1 0.017810 -0.000136 -0.003493 0.000000 0.000000 0.000000
# 2 -0.000136 0.009043 -0.004099 0.000000 0.000000 0.000000
# 3 -0.003493 -0.004099 0.009033 0.000000 0.000000 0.000000
# 4 0.000000 0.000000 0.000000 0.040273 0.000000 0.000000
# 5 0.000000 0.000000 0.000000 0.000000 -0.031770 0.000000
# 6 0.000000 0.000000 0.000000 0.000000 0.000000 0.054357
#
#
# Mechanical properties :
#
#
# Convention : Reuss Voigt Hill
#
# Bulk Modulus (GPa) = 48.95009 65.84228 57.39619
# Shear Modulus (GPa) = 41.31771 18.57703 29.94737
#
# Velocity S-wave (km/s) = 4.37267 2.93202 3.72270
# Velocity P-wave (km/s) = 6.93872 6.47546 6.71109
#
# Compressibility (1/GPa) = 0.02042897
#
# Stress axis : x y z
#
# Youngs Moduli (GPa) = 56.14808 110.58091 110.70568
#
# Poissons Ratio (x) = 0.01506 0.38670
# Poissons Ratio (y) = 0.00765 0.45382
# Poissons Ratio (z) = 0.19613 0.45331
#
# Static dielectric constant tensor:
#      x y z
#    x 1.805500 0.000000 0.000000 
#    y 0.000000 1.814830 0.000000 
#    z 0.000000 0.000000 1.773000 
# 
# From -- ./inp_files/41770.got.cif
#   From: 2010.05.17/outbox.cif.g08.bks.cpg/sg69_21_cif.got.tgz:41770.got - 2010.06.03 19:29:58.
