data_PCOD9513752
_publ_section_title
;
Structure prediction by ZEFSAII (Michael W. Deem and Ramdas Pophale) SiO2 
 PCOD9513752
Probable space group: F M M M
;
_chemical_formula_sum "Si O2"
_cell_formula_units_Z 176
_cell_length_a 18.671830
_cell_length_b 19.775841
_cell_length_c 30.209040
_cell_angle_alpha 90.000000
_cell_angle_beta 90.000000
_cell_angle_gamma 90.000000
_cell_volume 11154.722496
_symmetry_space_group_name_H-M "F M M M"
_symmetry_group_IT_number 69
_symmetry_cell_setting 'orthorhombic'
loop_
_space_group_symop_operation_xyz
x,y,z
-x,-y,z
x,-y,-z
-x,y,-z
-x,-y,-z
x,y,-z
-x,y,z
x,-y,z
x,1/2+y,1/2+z
-x,1/2-y,1/2+z
x,1/2-y,1/2-z
-x,1/2+y,1/2-z
-x,1/2-y,1/2-z
x,1/2+y,1/2-z
-x,1/2+y,1/2+z
x,1/2-y,1/2+z
1/2+x,y,1/2+z
1/2-x,-y,1/2+z
1/2+x,-y,1/2-z
1/2-x,y,1/2-z
1/2-x,-y,1/2-z
1/2+x,y,1/2-z
1/2-x,y,1/2+z
1/2+x,-y,1/2+z
1/2+x,1/2+y,z
1/2-x,1/2-y,z
1/2+x,1/2-y,-z
1/2-x,1/2+y,-z
1/2-x,1/2-y,-z
1/2+x,1/2+y,-z
1/2-x,1/2+y,z
1/2+x,1/2-y,z
loop_
_atom_site_type_symbol
_atom_site_label
_atom_site_fract_x
_atom_site_fract_y
_atom_site_fract_z
Si Si1 0.295134 0.423887 0.680622
Si Si2 0.176053 0.288322 0.127165
Si Si3 0.636995 0.575580 0.776088
Si Si4 0.582588 0.718414 0.797305
Si Si5 0.418516 0.500000 0.446358
Si Si6 0.086354 0.349838 0.052275
O O1 0.306101 0.500000 0.662353
O O2 0.308101 0.362055 0.648062
O O3 0.345920 0.416959 0.723812
O O4 0.214154 0.420537 0.699552
O O5 0.250000 0.250000 0.117731
O O6 0.132622 0.246866 0.164294
O O7 0.127727 0.298869 0.083851
O O8 0.607801 0.500000 0.783483
O O9 0.590571 0.637855 0.792646
O O10 0.500000 0.737447 0.805202
O O11 0.604999 0.750000 0.750000
O O12 0.500000 0.500000 0.429104
O O13 0.422507 0.500000 0.500000
O O14 0.388494 0.426414 0.435294
O O15 0.000000 0.346770 0.058464
O O16 0.099776 0.339300 0.000000
#
# Coordination Sequence:
#
# PCOD9513752 Si02
#       6
#    32  32  32  32  16  32
#     4   9  18  31  50  74  99 130 170 210 250 296
#     4  12  22  32  53  77 100 136 169 208 253 304
#     4   9  17  33  52  69  95 137 179 210 246 293
#     4  11  22  34  48  71 105 137 170 210 251 300
#     4   7  12  28  54  76  94 125 159 189 243 308
#     4   9  19  36  54  74 103 132 162 204 253 307
#
# _framework density 15.778071000000001
#
# number of rings (size 3 to 8) (size 9 to 14) (size 15 to 20)
#    0.000    2.273    3.636    2.727    1.273    1.091 
#    0.000    0.000    0.000    0.000    0.000    0.000 
#    0.000    0.000    0.000    6.182    0.000    0.000 
#
# Total GULP energy -245173.308723 kJ/mol
# GULP energy per Si atom -5572.120653 kJ/mol
# Density = 1.574216 g / cm^3
# Si number density = 15.778071 Si / 1000 Ang^3
#
#
#
# Elastic Constant Matrix: (Units=GPa)
#
#
# Indices 1 2 3 4 5 6 
#
# 1 54.2648 32.4482 46.9720 0.0000 0.0000 0.0000
# 2 32.4482 105.7700 49.9550 0.0000 0.0000 0.0000
# 3 46.9720 49.9550 79.6703 0.0000 0.0000 0.0000
# 4 0.0000 0.0000 0.0000 20.1094 0.0000 0.0000
# 5 0.0000 0.0000 0.0000 0.0000 15.4610 0.0000
# 6 0.0000 0.0000 0.0000 0.0000 0.0000 23.1595
#
#
#
# Elastic Compliance Matrix: (Units=1/GPa)
#
#
# Indices 1 2 3 4 5 6 
#
# 1 0.037806 -0.001521 -0.021336 0.000000 0.000000 0.000000
# 2 -0.001521 0.013494 -0.007564 0.000000 0.000000 0.000000
# 3 -0.021336 -0.007564 0.029874 0.000000 0.000000 0.000000
# 4 0.000000 0.000000 0.000000 0.049728 0.000000 0.000000
# 5 0.000000 0.000000 0.000000 0.000000 0.064679 0.000000
# 6 0.000000 0.000000 0.000000 0.000000 0.000000 0.043179
#
#
# Mechanical properties :
#
#
# Convention : Reuss Voigt Hill
#
# Bulk Modulus (GPa) = 49.18503 55.38394 52.28448
# Shear Modulus (GPa) = 16.31969 19.10132 17.71051
#
# Velocity S-wave (km/s) = 3.21959 3.48318 3.35397
# Velocity P-wave (km/s) = 6.71280 7.16622 6.94321
#
# Compressibility (1/GPa) = 0.02033139
#
# Stress axis : x y z
#
# Youngs Moduli (GPa) = 26.45061 74.10937 33.47433
#
# Poissons Ratio (x) = 0.11274 0.71421
# Poissons Ratio (y) = 0.04024 0.25319
# Poissons Ratio (z) = 0.56435 0.56055
#
# Static dielectric constant tensor:
#      x y z
#    x 1.522550 0.000000 0.000000 
#    y 0.000000 1.547720 0.000000 
#    z 0.000000 0.000000 1.508180 
# 
# From -- ./inp_files/23618.got.cif
#   From: 2010.05.17/outbox.cif.g08.bks.cpg/sg69_12_cif.got.tgz:23618.got - 2010.06.03 19:29:58.
