data_PCOD9513214
_publ_section_title
;
Structure prediction by ZEFSAII (Michael W. Deem and Ramdas Pophale) SiO2 
 PCOD9513214
Probable space group: F M M M
;
_chemical_formula_sum "Si O2"
_cell_formula_units_Z 160
_cell_length_a 20.043448
_cell_length_b 20.007529
_cell_length_c 21.034108
_cell_angle_alpha 90.000000
_cell_angle_beta 90.000000
_cell_angle_gamma 90.000000
_cell_volume 8435.095195
_symmetry_space_group_name_H-M "F M M M"
_symmetry_group_IT_number 69
_symmetry_cell_setting 'orthorhombic'
loop_
_space_group_symop_operation_xyz
x,y,z
-x,-y,z
x,-y,-z
-x,y,-z
-x,-y,-z
x,y,-z
-x,y,z
x,-y,z
x,1/2+y,1/2+z
-x,1/2-y,1/2+z
x,1/2-y,1/2-z
-x,1/2+y,1/2-z
-x,1/2-y,1/2-z
x,1/2+y,1/2-z
-x,1/2+y,1/2+z
x,1/2-y,1/2+z
1/2+x,y,1/2+z
1/2-x,-y,1/2+z
1/2+x,-y,1/2-z
1/2-x,y,1/2-z
1/2-x,-y,1/2-z
1/2+x,y,1/2-z
1/2-x,y,1/2+z
1/2+x,-y,1/2+z
1/2+x,1/2+y,z
1/2-x,1/2-y,z
1/2+x,1/2-y,-z
1/2-x,1/2+y,-z
1/2-x,1/2-y,-z
1/2+x,1/2+y,-z
1/2-x,1/2+y,z
1/2+x,1/2-y,z
loop_
_atom_site_type_symbol
_atom_site_label
_atom_site_fract_x
_atom_site_fract_y
_atom_site_fract_z
Si Si1 0.366366 0.000000 0.399145
Si Si2 0.365792 0.604633 0.648267
Si Si3 0.920320 0.645832 0.570557
Si Si4 0.831298 0.500000 0.251916
Si Si5 0.920290 0.756875 0.326257
Si Si6 0.285492 0.000000 0.929458
Si Si7 0.000000 0.578688 0.929481
O O1 0.401618 0.068723 0.418366
O O2 0.355446 0.000000 0.323570
O O3 0.293387 0.000000 0.429645
O O4 0.359905 0.564496 0.714506
O O5 0.369032 0.683479 0.657619
O O6 0.310412 0.566373 0.606700
O O7 0.434615 0.592843 0.611134
O O8 0.894797 0.666784 0.500000
O O9 0.901047 0.693478 0.629800
O O10 0.000000 0.649980 0.568387
O O11 0.750000 0.500000 0.250000
O O12 0.917377 0.750000 0.250000
O O13 0.000000 0.771819 0.340163
O O14 0.314508 0.000000 0.000000
O O15 0.000000 0.500000 0.938205
O O16 0.000000 0.611106 0.000000
#
# Coordination Sequence:
#
# PCOD9513214 Si02
#       7
#    16  32  32  16  32  16  16
#     4  12  22  42  64  84 118 163 215 265 306 357
#     4  11  21  38  60  90 127 158 198 249 305 374
#     4  10  22  40  63  93 122 156 205 261 317 369
#     4  11  22  39  59  85 119 164 214 252 298 353
#     4  10  21  39  61  91 125 160 201 250 311 374
#     4  11  23  37  60  88 119 159 200 247 303 370
#     4  11  20  34  57  94 130 159 194 245 312 382
#
# _framework density 18.968368999999999
#
# number of rings (size 3 to 8) (size 9 to 14) (size 15 to 20)
#    0.000    1.300    5.000    3.000    0.000    2.400 
#    3.600    1.000    0.000    2.400    0.000    0.000 
#    0.000    0.000    0.000    0.000    0.000    0.000 
#
# Total GULP energy -222929.912184 kJ/mol
# GULP energy per Si atom -5573.247805 kJ/mol
# Density = 1.892520 g / cm^3
# Si number density = 18.968369 Si / 1000 Ang^3
#
#
#
# Elastic Constant Matrix: (Units=GPa)
#
#
# Indices 1 2 3 4 5 6 
#
# 1 29.6047 20.7030 24.5881 0.0000 0.0000 0.0000
# 2 20.7030 143.3362 53.9410 0.0000 0.0000 0.0000
# 3 24.5881 53.9410 149.3108 0.0000 0.0000 0.0000
# 4 0.0000 0.0000 0.0000 -11.7830 0.0000 0.0000
# 5 0.0000 0.0000 0.0000 0.0000 57.8447 0.0000
# 6 0.0000 0.0000 0.0000 0.0000 0.0000 -0.7206
#
#
#
# Elastic Compliance Matrix: (Units=1/GPa)
#
#
# Indices 1 2 3 4 5 6 
#
# 1 0.040938 -0.003907 -0.005330 0.000000 0.000000 0.000000
# 2 -0.003907 0.008447 -0.002408 0.000000 0.000000 0.000000
# 3 -0.005330 -0.002408 0.008445 0.000000 0.000000 0.000000
# 4 0.000000 0.000000 0.000000 -0.084868 0.000000 0.000000
# 5 0.000000 0.000000 0.000000 0.000000 0.017288 0.000000
# 6 0.000000 0.000000 0.000000 0.000000 0.000000 -1.387657
#
#
# Mechanical properties :
#
#
# Convention : Reuss Voigt Hill
#
# Bulk Modulus (GPa) = 28.95255 57.85732 43.40494
# Shear Modulus (GPa) = -3.66945 23.93618 10.13337
#
# Velocity S-wave (km/s) = -1.39237 3.55618 2.31384
# Velocity P-wave (km/s) = 3.56536 6.88695 5.48370
#
# Compressibility (1/GPa) = 0.03453927
#
# Stress axis : x y z
#
# Youngs Moduli (GPa) = 24.42745 118.38198 118.41032
#
# Poissons Ratio (x) = 0.46252 0.63113
# Poissons Ratio (y) = 0.09544 0.28517
# Poissons Ratio (z) = 0.13020 0.28510
#
# Static dielectric constant tensor:
#      x y z
#    x 1.638230 0.000000 0.000000 
#    y 0.000000 1.682990 0.000000 
#    z 0.000000 0.000000 1.766630 
# 
# From -- ./inp_files/30867.got.cif
#   From: 2010.05.17/outbox.cif.g08.bks.cpg/sg69_16_cif.got.tgz:30867.got - 2010.06.03 19:29:58.
