data_PCOD9513055
_publ_section_title
;
Structure prediction by ZEFSAII (Michael W. Deem and Ramdas Pophale) SiO2 
 PCOD9513055
Probable space group: F M M M
;
_chemical_formula_sum "Si O2"
_cell_formula_units_Z 160
_cell_length_a 23.261604
_cell_length_b 18.963206
_cell_length_c 16.949551
_cell_angle_alpha 90.000000
_cell_angle_beta 90.000000
_cell_angle_gamma 90.000000
_cell_volume 7476.694215
_symmetry_space_group_name_H-M "F M M M"
_symmetry_group_IT_number 69
_symmetry_cell_setting 'orthorhombic'
loop_
_space_group_symop_operation_xyz
x,y,z
-x,-y,z
x,-y,-z
-x,y,-z
-x,-y,-z
x,y,-z
-x,y,z
x,-y,z
x,1/2+y,1/2+z
-x,1/2-y,1/2+z
x,1/2-y,1/2-z
-x,1/2+y,1/2-z
-x,1/2-y,1/2-z
x,1/2+y,1/2-z
-x,1/2+y,1/2+z
x,1/2-y,1/2+z
1/2+x,y,1/2+z
1/2-x,-y,1/2+z
1/2+x,-y,1/2-z
1/2-x,y,1/2-z
1/2-x,-y,1/2-z
1/2+x,y,1/2-z
1/2-x,y,1/2+z
1/2+x,-y,1/2+z
1/2+x,1/2+y,z
1/2-x,1/2-y,z
1/2+x,1/2-y,-z
1/2-x,1/2+y,-z
1/2-x,1/2-y,-z
1/2+x,1/2+y,-z
1/2-x,1/2+y,z
1/2+x,1/2-y,z
loop_
_atom_site_type_symbol
_atom_site_label
_atom_site_fract_x
_atom_site_fract_y
_atom_site_fract_z
Si Si1 0.243253 0.419191 0.909293
Si Si2 0.563359 0.078295 0.593273
Si Si3 0.342082 0.152710 0.322481
Si Si4 0.156246 0.210235 0.589840
Si Si5 0.935269 0.677345 0.200073
O O1 0.224150 0.500000 0.899145
O O2 0.289959 0.398499 0.843256
O O3 0.193855 0.360604 0.905274
O O4 0.267608 0.414456 0.000000
O O5 0.559342 0.073274 0.500000
O O6 0.500000 0.095755 0.624828
O O7 0.609266 0.135747 0.613307
O O8 0.579771 0.000000 0.623109
O O9 0.323325 0.232039 0.345334
O O10 0.380601 0.140751 0.244355
O O11 0.162367 0.236630 0.500000
O O12 0.090592 0.193470 0.614189
O O13 0.939214 0.750000 0.250000
O O14 0.000000 0.646947 0.198427
#
# Coordination Sequence:
#
# PCOD9513055 Si02
#       5
#    32  32  32  32  32
#     4  10  21  37  57  82 114 148 181 225 280 332
#     4   9  17  28  44  73 114 151 178 209 257 322
#     4  11  19  32  56  83 112 144 180 224 274 330
#     4  10  21  37  58  82 108 143 191 237 270 317
#     4   9  20  37  55  81 116 146 176 224 282 328
#
# _framework density 21.399832
#
# number of rings (size 3 to 8) (size 9 to 14) (size 15 to 20)
#    0.000    2.200    0.000    4.200    0.000    5.200 
#    0.000    6.000    0.000    3.000    0.000    2.800 
#    0.000    0.000    0.000    0.000    0.000    0.000 
#
# Total GULP energy -222818.417673 kJ/mol
# GULP energy per Si atom -5570.460442 kJ/mol
# Density = 2.135112 g / cm^3
# Si number density = 21.399832 Si / 1000 Ang^3
#
#
#
# Elastic Constant Matrix: (Units=GPa)
#
#
# Indices 1 2 3 4 5 6 
#
# 1 65.1718 24.4405 17.8071 0.0000 0.0000 0.0000
# 2 24.4405 80.2667 -1.5851 0.0000 0.0000 0.0000
# 3 17.8071 -1.5851 41.1622 0.0000 0.0000 0.0000
# 4 0.0000 0.0000 0.0000 14.4469 0.0000 0.0000
# 5 0.0000 0.0000 0.0000 0.0000 17.1347 0.0000
# 6 0.0000 0.0000 0.0000 0.0000 0.0000 10.4048
#
#
#
# Elastic Compliance Matrix: (Units=1/GPa)
#
#
# Indices 1 2 3 4 5 6 
#
# 1 0.020163 -0.006316 -0.008966 0.000000 0.000000 0.000000
# 2 -0.006316 0.014447 0.003289 0.000000 0.000000 0.000000
# 3 -0.008966 0.003289 0.028299 0.000000 0.000000 0.000000
# 4 0.000000 0.000000 0.000000 0.069219 0.000000 0.000000
# 5 0.000000 0.000000 0.000000 0.000000 0.058361 0.000000
# 6 0.000000 0.000000 0.000000 0.000000 0.000000 0.096110
#
#
# Mechanical properties :
#
#
# Convention : Reuss Voigt Hill
#
# Bulk Modulus (GPa) = 25.69230 29.76953 27.73091
# Shear Modulus (GPa) = 15.45314 18.12649 16.78982
#
# Velocity S-wave (km/s) = 2.69014 2.91355 2.80407
# Velocity P-wave (km/s) = 4.65629 5.02590 4.84462
#
# Compressibility (1/GPa) = 0.03892217
#
# Stress axis : x y z
#
# Youngs Moduli (GPa) = 49.59694 69.21993 35.33638
#
# Poissons Ratio (x) = 0.43722 0.31682
# Poissons Ratio (y) = 0.31327 -0.11622
# Poissons Ratio (z) = 0.44467 -0.22765
#
# Static dielectric constant tensor:
#      x y z
#    x 1.799430 0.000000 0.000000 
#    y 0.000000 1.865320 0.000000 
#    z 0.000000 0.000000 1.873950 
# 
# From -- ./inp_files/31735.got.cif
#   From: 2010.05.17/outbox.cif.g08.bks.cpg/sg69_16_cif.got.tgz:31735.got - 2010.06.03 19:29:58.
