data_PCOD9513872
_publ_section_title
;
Structure prediction by ZEFSAII (Michael W. Deem and Ramdas Pophale) SiO2 
 PCOD9513872
Probable space group: F M M M
;
_chemical_formula_sum "Si O2"
_cell_formula_units_Z 192
_cell_length_a 24.076565
_cell_length_b 14.608677
_cell_length_c 25.294414
_cell_angle_alpha 90.000000
_cell_angle_beta 90.000000
_cell_angle_gamma 90.000000
_cell_volume 8896.722317
_symmetry_space_group_name_H-M "F M M M"
_symmetry_group_IT_number 69
_symmetry_cell_setting 'orthorhombic'
loop_
_space_group_symop_operation_xyz
x,y,z
-x,-y,z
x,-y,-z
-x,y,-z
-x,-y,-z
x,y,-z
-x,y,z
x,-y,z
x,1/2+y,1/2+z
-x,1/2-y,1/2+z
x,1/2-y,1/2-z
-x,1/2+y,1/2-z
-x,1/2-y,1/2-z
x,1/2+y,1/2-z
-x,1/2+y,1/2+z
x,1/2-y,1/2+z
1/2+x,y,1/2+z
1/2-x,-y,1/2+z
1/2+x,-y,1/2-z
1/2-x,y,1/2-z
1/2-x,-y,1/2-z
1/2+x,y,1/2-z
1/2-x,y,1/2+z
1/2+x,-y,1/2+z
1/2+x,1/2+y,z
1/2-x,1/2-y,z
1/2+x,1/2-y,-z
1/2-x,1/2+y,-z
1/2-x,1/2-y,-z
1/2+x,1/2+y,-z
1/2-x,1/2+y,z
1/2+x,1/2-y,z
loop_
_atom_site_type_symbol
_atom_site_label
_atom_site_fract_x
_atom_site_fract_y
_atom_site_fract_z
Si Si1 0.123933 0.896750 0.936032
Si Si2 0.436911 0.787487 0.309982
Si Si3 0.713621 0.110544 0.828734
Si Si4 0.000000 0.390764 0.558735
Si Si5 0.170606 0.390963 0.285223
Si Si6 0.129404 0.296544 0.901351
Si Si7 0.933261 0.389728 0.000000
O O1 0.060428 0.874329 0.918170
O O2 0.152503 0.803347 0.918852
O O3 0.140095 0.000000 0.917890
O O4 0.123411 0.900882 0.000000
O O5 0.500000 0.816641 0.322064
O O6 0.438099 0.750000 0.250000
O O7 0.388430 0.862642 0.307637
O O8 0.414110 0.715026 0.352661
O O9 0.777115 0.141126 0.820065
O O10 0.681739 0.141033 0.774910
O O11 0.680903 0.146758 0.878823
O O12 0.713320 0.000000 0.829976
O O13 0.000000 0.500000 0.552737
O O14 0.000000 0.347665 0.500000
O O15 0.173644 0.500000 0.283284
O O16 0.096646 0.344239 0.949276
O O17 0.925503 0.500000 0.000000
O O18 0.000000 0.372797 0.000000
#
# Coordination Sequence:
#
# PCOD9513872 Si02
#       7
#    32  32  32  16  32  32  16
#     4   9  18  32  52  83 126 173 222 274 334 407
#     4  11  24  40  59  96 141 179 222 279 355 435
#     4   9  19  38  68  99 128 175 237 296 348 404
#     4   7  12  24  44  70 103 158 222 274 317 376
#     4   9  19  41  67  95 132 175 230 291 353 421
#     4  12  22  38  66  98 136 185 231 298 350 405
#     4  11  26  44  63  96 143 197 253 293 342 431
#
# _framework density 21.580981999999999
#
# number of rings (size 3 to 8) (size 9 to 14) (size 15 to 20)
#    0.000    2.167    2.500    3.000    2.333    1.667 
#    0.000    0.000    0.000    2.000    0.000    3.500 
#    0.000    0.000    0.000    0.000    0.000    0.000 
#
# Total GULP energy -267997.196793 kJ/mol
# GULP energy per Si atom -5583.274933 kJ/mol
# Density = 2.153186 g / cm^3
# Si number density = 21.580982 Si / 1000 Ang^3
#
#
#
# Elastic Constant Matrix: (Units=GPa)
#
#
# Indices 1 2 3 4 5 6 
#
# 1 135.9687 47.1956 53.2355 0.0000 0.0000 0.0000
# 2 47.1956 103.6951 50.9076 0.0000 0.0000 0.0000
# 3 53.2355 50.9076 130.7498 0.0000 0.0000 0.0000
# 4 0.0000 0.0000 0.0000 38.6313 0.0000 0.0000
# 5 0.0000 0.0000 0.0000 0.0000 38.7381 0.0000
# 6 0.0000 0.0000 0.0000 0.0000 0.0000 25.9173
#
#
#
# Elastic Compliance Matrix: (Units=1/GPa)
#
#
# Indices 1 2 3 4 5 6 
#
# 1 0.009439 -0.002979 -0.002683 0.000000 0.000000 0.000000
# 2 -0.002979 0.012863 -0.003795 0.000000 0.000000 0.000000
# 3 -0.002683 -0.003795 0.010218 0.000000 0.000000 0.000000
# 4 0.000000 0.000000 0.000000 0.025886 0.000000 0.000000
# 5 0.000000 0.000000 0.000000 0.000000 0.025814 0.000000
# 6 0.000000 0.000000 0.000000 0.000000 0.000000 0.038584
#
#
# Mechanical properties :
#
#
# Convention : Reuss Voigt Hill
#
# Bulk Modulus (GPa) = 73.50031 74.78790 74.14410
# Shear Modulus (GPa) = 34.18690 35.26232 34.72461
#
# Velocity S-wave (km/s) = 3.98442 4.04660 4.01563
# Velocity P-wave (km/s) = 7.43635 7.52085 7.47872
#
# Compressibility (1/GPa) = 0.01360539
#
# Stress axis : x y z
#
# Youngs Moduli (GPa) = 105.94087 77.74456 97.86203
#
# Poissons Ratio (x) = 0.23158 0.26261
# Poissons Ratio (y) = 0.31557 0.37141
# Poissons Ratio (z) = 0.28429 0.29506
#
# Static dielectric constant tensor:
#      x y z
#    x 1.836470 0.000000 0.000000 
#    y 0.000000 1.808530 0.000000 
#    z 0.000000 0.000000 1.857630 
# 
# From -- ./inp_files/43208.got.cif
#   From: 2010.05.17/outbox.cif.g08.bks.cpg/sg69_22_cif.got.tgz:43208.got - 2010.06.03 19:29:58.
