data_PCOD9513594
_publ_section_title
;
Structure prediction by ZEFSAII (Michael W. Deem and Ramdas Pophale) SiO2 
 PCOD9513594
Probable space group: F M M M
;
_chemical_formula_sum "Si O2"
_cell_formula_units_Z 120
_cell_length_a 16.679633
_cell_length_b 17.258762
_cell_length_c 21.861342
_cell_angle_alpha 90.000000
_cell_angle_beta 90.000000
_cell_angle_gamma 90.000000
_cell_volume 6293.220503
_symmetry_space_group_name_H-M "F M M M"
_symmetry_group_IT_number 69
_symmetry_cell_setting 'orthorhombic'
loop_
_space_group_symop_operation_xyz
x,y,z
-x,-y,z
x,-y,-z
-x,y,-z
-x,-y,-z
x,y,-z
-x,y,z
x,-y,z
x,1/2+y,1/2+z
-x,1/2-y,1/2+z
x,1/2-y,1/2-z
-x,1/2+y,1/2-z
-x,1/2-y,1/2-z
x,1/2+y,1/2-z
-x,1/2+y,1/2+z
x,1/2-y,1/2+z
1/2+x,y,1/2+z
1/2-x,-y,1/2+z
1/2+x,-y,1/2-z
1/2-x,y,1/2-z
1/2-x,-y,1/2-z
1/2+x,y,1/2-z
1/2-x,y,1/2+z
1/2+x,-y,1/2+z
1/2+x,1/2+y,z
1/2-x,1/2-y,z
1/2+x,1/2-y,-z
1/2-x,1/2+y,-z
1/2-x,1/2-y,-z
1/2+x,1/2+y,-z
1/2-x,1/2+y,z
1/2+x,1/2-y,z
loop_
_atom_site_type_symbol
_atom_site_label
_atom_site_fract_x
_atom_site_fract_y
_atom_site_fract_z
Si Si1 0.000000 0.500000 0.780554
Si Si2 0.908574 0.500000 0.900316
Si Si3 0.500000 0.831896 0.287414
Si Si4 0.311822 0.654541 0.572140
Si Si5 0.593810 0.082847 0.500000
Si Si6 0.139882 0.816770 0.885068
O O1 0.075681 0.500000 0.827203
O O2 0.000000 0.583251 0.745820
O O3 0.860092 0.424237 0.919643
O O4 0.000000 0.500000 0.925541
O O5 0.500000 0.750000 0.250000
O O6 0.581020 0.829065 0.328425
O O7 0.287992 0.662431 0.500000
O O8 0.234375 0.661304 0.616589
O O9 0.364609 0.728315 0.591528
O O10 0.500000 0.072388 0.500000
O O11 0.612091 0.128928 0.560461
O O12 0.637114 0.000000 0.500000
#
# Coordination Sequence:
#
# PCOD9513594 Si02
#       6
#     8  16  16  32  16  32
#     4  10  26  50  61  89 122 172 242 268 312 378
#     4  10  25  45  67  91 133 177 227 269 327 405
#     4  12  26  45  69  91 131 186 229 280 314 382
#     4  11  22  40  65 104 136 163 208 271 342 413
#     4  11  22  35  60  99 129 164 209 258 333 417
#     4  11  23  40  65  98 136 170 212 269 341 392
#
# _framework density 19.068138999999999
#
# number of rings (size 3 to 8) (size 9 to 14) (size 15 to 20)
#    0.400    0.667    4.000    2.800    5.600    1.067 
#    0.000   10.667    0.000    0.000    0.000    0.000 
#    0.000    0.000    0.000    0.000    0.000    0.000 
#
# Total GULP energy -167177.133147 kJ/mol
# GULP energy per Si atom -5572.571105 kJ/mol
# Density = 1.902474 g / cm^3
# Si number density = 19.068139 Si / 1000 Ang^3
#
#
#
# Elastic Constant Matrix: (Units=GPa)
#
#
# Indices 1 2 3 4 5 6 
#
# 1 79.1889 58.5791 38.7156 0.0000 0.0000 0.0000
# 2 58.5791 192.9986 60.4744 0.0000 0.0000 0.0000
# 3 38.7156 60.4744 108.6304 0.0000 0.0000 0.0000
# 4 0.0000 0.0000 0.0000 26.9809 0.0000 0.0000
# 5 0.0000 0.0000 0.0000 0.0000 -32.8770 0.0000
# 6 0.0000 0.0000 0.0000 0.0000 0.0000 28.2837
#
#
#
# Elastic Compliance Matrix: (Units=1/GPa)
#
#
# Indices 1 2 3 4 5 6 
#
# 1 0.017610 -0.004092 -0.003998 0.000000 0.000000 0.000000
# 2 -0.004092 0.007227 -0.002565 0.000000 0.000000 0.000000
# 3 -0.003998 -0.002565 0.012058 0.000000 0.000000 0.000000
# 4 0.000000 0.000000 0.000000 0.037063 0.000000 0.000000
# 5 0.000000 0.000000 0.000000 0.000000 -0.030416 0.000000
# 6 0.000000 0.000000 0.000000 0.000000 0.000000 0.035356
#
#
# Mechanical properties :
#
#
# Convention : Reuss Voigt Hill
#
# Bulk Modulus (GPa) = 64.16392 77.37290 70.76841
# Shear Modulus (GPa) = 47.43684 19.34744 33.39214
#
# Velocity S-wave (km/s) = 4.99315 3.18881 4.18927
# Velocity P-wave (km/s) = 8.18321 7.36364 7.78422
#
# Compressibility (1/GPa) = 0.01558508
#
# Stress axis : x y z
#
# Youngs Moduli (GPa) = 56.78650 138.36739 82.93070
#
# Poissons Ratio (x) = 0.56623 0.33155
# Poissons Ratio (y) = 0.23238 0.21271
# Poissons Ratio (z) = 0.22703 0.35490
#
# Static dielectric constant tensor:
#      x y z
#    x 1.735490 0.000000 0.000000 
#    y 0.000000 1.767640 0.000000 
#    z 0.000000 0.000000 1.661640 
# 
# From -- ./inp_files/30506.got.cif
#   From: 2010.05.17/outbox.cif.g08.bks.cpg/sg69_16_cif.got.tgz:30506.got - 2010.06.03 19:29:58.
