data_PCOD9513960
_publ_section_title
;
Structure prediction by ZEFSAII (Michael W. Deem and Ramdas Pophale) SiO2 
 PCOD9513960
Probable space group: F M M M
;
_chemical_formula_sum "Si O2"
_cell_formula_units_Z 192
_cell_length_a 24.826123
_cell_length_b 17.191968
_cell_length_c 25.977484
_cell_angle_alpha 90.000000
_cell_angle_beta 90.000000
_cell_angle_gamma 90.000000
_cell_volume 11087.447665
_symmetry_space_group_name_H-M "F M M M"
_symmetry_group_IT_number 69
_symmetry_cell_setting 'orthorhombic'
loop_
_space_group_symop_operation_xyz
x,y,z
-x,-y,z
x,-y,-z
-x,y,-z
-x,-y,-z
x,y,-z
-x,y,z
x,-y,z
x,1/2+y,1/2+z
-x,1/2-y,1/2+z
x,1/2-y,1/2-z
-x,1/2+y,1/2-z
-x,1/2-y,1/2-z
x,1/2+y,1/2-z
-x,1/2+y,1/2+z
x,1/2-y,1/2+z
1/2+x,y,1/2+z
1/2-x,-y,1/2+z
1/2+x,-y,1/2-z
1/2-x,y,1/2-z
1/2-x,-y,1/2-z
1/2+x,y,1/2-z
1/2-x,y,1/2+z
1/2+x,-y,1/2+z
1/2+x,1/2+y,z
1/2-x,1/2-y,z
1/2+x,1/2-y,-z
1/2-x,1/2+y,-z
1/2-x,1/2-y,-z
1/2+x,1/2+y,-z
1/2-x,1/2+y,z
1/2+x,1/2-y,z
loop_
_atom_site_type_symbol
_atom_site_label
_atom_site_fract_x
_atom_site_fract_y
_atom_site_fract_z
Si Si1 0.881644 0.413374 0.192141
Si Si2 0.819299 0.412329 0.085251
Si Si3 0.161845 0.323552 0.283712
Si Si4 0.619192 0.256762 0.557579
Si Si5 0.938855 0.740454 0.836630
Si Si6 0.715702 0.329380 0.109108
O O1 0.904037 0.500000 0.193769
O O2 0.840334 0.408267 0.144268
O O3 0.850187 0.391649 0.243915
O O4 0.925720 0.346936 0.182221
O O5 0.829862 0.500000 0.066318
O O6 0.851311 0.341407 0.058958
O O7 0.756009 0.392482 0.085621
O O8 0.182979 0.250000 0.250000
O O9 0.105299 0.293032 0.307726
O O10 0.197643 0.346225 0.332487
O O11 0.599634 0.242069 0.500000
O O12 0.575035 0.256759 0.602662
O O13 0.664098 0.193516 0.574920
O O14 0.000000 0.762279 0.825990
O O15 0.750000 0.250000 0.111997
#
# Coordination Sequence:
#
# PCOD9513960 Si02
#       6
#    32  32  32  32  32  32
#     4   9  18  30  43  64  94 123 148 175 209 250
#     4   9  18  30  43  64  94 123 148 175 209 250
#     4   9  17  28  43  64  89 117 148 180 213 252
#     4   9  18  32  48  65  86 112 144 184 225 263
#     4   9  18  32  48  65  86 112 144 184 225 263
#     4   9  17  28  43  64  89 117 148 180 213 252
#
# _framework density 17.316880000000001
#
# number of rings (size 3 to 8) (size 9 to 14) (size 15 to 20)
#    0.000    3.000    0.000    3.000    0.000   10.000 
#    0.000    1.667    0.000    0.000    0.000    4.667 
#    0.000    0.000    0.000    7.333    0.000    0.000 
#
# Total GULP energy -267456.052191 kJ/mol
# GULP energy per Si atom -5572.001087 kJ/mol
# Density = 1.727747 g / cm^3
# Si number density = 17.316880 Si / 1000 Ang^3
#
#
#
# Elastic Constant Matrix: (Units=GPa)
#
#
# Indices 1 2 3 4 5 6 
#
# 1 28.0640 0.3671 -23.6328 0.0000 0.0000 0.0000
# 2 0.3671 25.8465 5.4032 0.0000 0.0000 0.0000
# 3 -23.6328 5.4032 70.5322 0.0000 0.0000 0.0000
# 4 0.0000 0.0000 0.0000 7.8576 0.0000 0.0000
# 5 0.0000 0.0000 0.0000 0.0000 -0.2514 0.0000
# 6 0.0000 0.0000 0.0000 0.0000 0.0000 10.6184
#
#
#
# Elastic Compliance Matrix: (Units=1/GPa)
#
#
# Indices 1 2 3 4 5 6 
#
# 1 0.050102 -0.004290 0.017116 0.000000 0.000000 0.000000
# 2 -0.004290 0.039687 -0.004478 0.000000 0.000000 0.000000
# 3 0.017116 -0.004478 0.020256 0.000000 0.000000 0.000000
# 4 0.000000 0.000000 0.000000 0.127266 0.000000 0.000000
# 5 0.000000 0.000000 0.000000 0.000000 -3.977710 0.000000
# 6 0.000000 0.000000 0.000000 0.000000 0.000000 0.094176
#
#
# Mechanical properties :
#
#
# Convention : Reuss Voigt Hill
#
# Bulk Modulus (GPa) = 7.89000 9.85754 8.87377
# Shear Modulus (GPa) = -1.38096 13.13192 5.87548
#
# Velocity S-wave (km/s) = -0.89398 2.75677 1.84399
# Velocity P-wave (km/s) = 1.87097 3.97968 3.10953
#
# Compressibility (1/GPa) = 0.12674276
#
# Stress axis : x y z
#
# Youngs Moduli (GPa) = 19.95909 25.19721 49.36822
#
# Poissons Ratio (x) = 0.10809 -0.84499
# Poissons Ratio (y) = 0.08562 0.22105
# Poissons Ratio (z) = -0.34162 0.11282
#
# Static dielectric constant tensor:
#      x y z
#    x 1.588040 0.000000 0.000000 
#    y 0.000000 1.587080 0.000000 
#    z 0.000000 0.000000 1.604090 
# 
# From -- ./inp_files/38565.got.cif
#   From: 2010.05.17/outbox.cif.g08.bks.cpg/sg69_20_cif.got.tgz:38565.got - 2010.06.03 19:29:58.
