data_PCOD9513277
_publ_section_title
;
Structure prediction by ZEFSAII (Michael W. Deem and Ramdas Pophale) SiO2 
 PCOD9513277
Probable space group: F M M M
;
_chemical_formula_sum "Si O2"
_cell_formula_units_Z 144
_cell_length_a 26.470320
_cell_length_b 14.830727
_cell_length_c 18.570391
_cell_angle_alpha 90.000000
_cell_angle_beta 90.000000
_cell_angle_gamma 90.000000
_cell_volume 7290.254339
_symmetry_space_group_name_H-M "F M M M"
_symmetry_group_IT_number 69
_symmetry_cell_setting 'orthorhombic'
loop_
_space_group_symop_operation_xyz
x,y,z
-x,-y,z
x,-y,-z
-x,y,-z
-x,-y,-z
x,y,-z
-x,y,z
x,-y,z
x,1/2+y,1/2+z
-x,1/2-y,1/2+z
x,1/2-y,1/2-z
-x,1/2+y,1/2-z
-x,1/2-y,1/2-z
x,1/2+y,1/2-z
-x,1/2+y,1/2+z
x,1/2-y,1/2+z
1/2+x,y,1/2+z
1/2-x,-y,1/2+z
1/2+x,-y,1/2-z
1/2-x,y,1/2-z
1/2-x,-y,1/2-z
1/2+x,y,1/2-z
1/2-x,y,1/2+z
1/2+x,-y,1/2+z
1/2+x,1/2+y,z
1/2-x,1/2-y,z
1/2+x,1/2-y,-z
1/2-x,1/2+y,-z
1/2-x,1/2-y,-z
1/2+x,1/2+y,-z
1/2-x,1/2+y,z
1/2+x,1/2-y,z
loop_
_atom_site_type_symbol
_atom_site_label
_atom_site_fract_x
_atom_site_fract_y
_atom_site_fract_z
Si Si1 0.227394 0.349613 0.917244
Si Si2 0.608752 0.000000 0.744101
Si Si3 0.718712 0.000000 0.325315
Si Si4 0.631597 0.686509 0.317104
Si Si5 0.560428 0.299805 0.080607
Si Si6 0.942302 0.000000 0.104575
O O1 0.250000 0.250000 0.920355
O O2 0.264640 0.414633 0.872941
O O3 0.176543 0.340430 0.870856
O O4 0.219424 0.380609 0.000000
O O5 0.660139 0.000000 0.695988
O O6 0.610000 0.907714 0.788064
O O7 0.562050 0.000000 0.690291
O O8 0.750000 0.000000 0.250000
O O9 0.648743 0.750000 0.250000
O O10 0.590175 0.743182 0.360756
O O11 0.500000 0.300594 0.094571
O O12 0.579303 0.403753 0.081270
O O13 0.568630 0.263500 0.000000
O O14 0.000000 0.000000 0.079698
#
# Coordination Sequence:
#
# PCOD9513277 Si02
#       6
#    32  16  16  32  32  16
#     4  11  25  42  63  92 125 166 212 261 318 378
#     4  12  24  39  61  99 122 165 212 260 321 374
#     4  12  23  42  65  88 129 170 213 261 309 377
#     4  12  23  39  65  91 130 166 211 264 321 382
#     4  10  22  41  65  94 129 169 212 262 321 381
#     4  10  21  40  65  95 129 161 205 263 319 378
#
# _framework density 19.752396999999998
#
# number of rings (size 3 to 8) (size 9 to 14) (size 15 to 20)
#    0.000    0.889    4.444    2.667    0.000    2.667 
#    0.000    2.778    0.000    1.333    0.000    0.000 
#    0.000    0.000    0.000    0.000    0.000    0.000 
#
# Total GULP energy -201137.124190 kJ/mol
# GULP energy per Si atom -5587.142339 kJ/mol
# Density = 1.970744 g / cm^3
# Si number density = 19.752397 Si / 1000 Ang^3
#
#
#
# Elastic Constant Matrix: (Units=GPa)
#
#
# Indices 1 2 3 4 5 6 
#
# 1 55.1486 23.1795 38.2433 0.0000 0.0000 0.0000
# 2 23.1795 136.8317 58.9498 0.0000 0.0000 0.0000
# 3 38.2433 58.9498 141.2150 0.0000 0.0000 0.0000
# 4 0.0000 0.0000 0.0000 27.7467 0.0000 0.0000
# 5 0.0000 0.0000 0.0000 0.0000 25.2534 0.0000
# 6 0.0000 0.0000 0.0000 0.0000 0.0000 28.5079
#
#
#
# Elastic Compliance Matrix: (Units=1/GPa)
#
#
# Indices 1 2 3 4 5 6 
#
# 1 0.022559 -0.001450 -0.005504 0.000000 0.000000 0.000000
# 2 -0.001450 0.009004 -0.003366 0.000000 0.000000 0.000000
# 3 -0.005504 -0.003366 0.009977 0.000000 0.000000 0.000000
# 4 0.000000 0.000000 0.000000 0.036040 0.000000 0.000000
# 5 0.000000 0.000000 0.000000 0.000000 0.039599 0.000000
# 6 0.000000 0.000000 0.000000 0.000000 0.000000 0.035078
#
#
# Mechanical properties :
#
#
# Convention : Reuss Voigt Hill
#
# Bulk Modulus (GPa) = 47.84727 63.77115 55.80921
# Shear Modulus (GPa) = 27.79872 30.48977 29.14425
#
# Velocity S-wave (km/s) = 3.75555 3.93313 3.84536
# Velocity P-wave (km/s) = 6.56366 7.27883 6.93048
#
# Compressibility (1/GPa) = 0.02089983
#
# Stress axis : x y z
#
# Youngs Moduli (GPa) = 44.32781 111.06113 100.22991
#
# Poissons Ratio (x) = 0.16108 0.55166
# Poissons Ratio (y) = 0.06429 0.33737
# Poissons Ratio (z) = 0.24398 0.37382
#
# Static dielectric constant tensor:
#      x y z
#    x 1.695780 0.000000 0.000000 
#    y 0.000000 1.691540 0.000000 
#    z 0.000000 0.000000 1.705350 
# 
# From -- ./inp_files/27435.got.cif
#   From: 2010.05.17/outbox.cif.g08.bks.cpg/sg69_14_cif.got.tgz:27435.got - 2010.06.03 19:29:58.
