data_PCOD9513613
_publ_section_title
;
Structure prediction by ZEFSAII (Michael W. Deem and Ramdas Pophale) SiO2 
 PCOD9513613
Probable space group: F M M M
;
_chemical_formula_sum "Si O2"
_cell_formula_units_Z 192
_cell_length_a 28.080368
_cell_length_b 26.900297
_cell_length_c 11.591993
_cell_angle_alpha 90.000000
_cell_angle_beta 90.000000
_cell_angle_gamma 90.000000
_cell_volume 8756.246524
_symmetry_space_group_name_H-M "F M M M"
_symmetry_group_IT_number 69
_symmetry_cell_setting 'orthorhombic'
loop_
_space_group_symop_operation_xyz
x,y,z
-x,-y,z
x,-y,-z
-x,y,-z
-x,-y,-z
x,y,-z
-x,y,z
x,-y,z
x,1/2+y,1/2+z
-x,1/2-y,1/2+z
x,1/2-y,1/2-z
-x,1/2+y,1/2-z
-x,1/2-y,1/2-z
x,1/2+y,1/2-z
-x,1/2+y,1/2+z
x,1/2-y,1/2+z
1/2+x,y,1/2+z
1/2-x,-y,1/2+z
1/2+x,-y,1/2-z
1/2-x,y,1/2-z
1/2-x,-y,1/2-z
1/2+x,y,1/2-z
1/2-x,y,1/2+z
1/2+x,-y,1/2+z
1/2+x,1/2+y,z
1/2-x,1/2-y,z
1/2+x,1/2-y,-z
1/2-x,1/2+y,-z
1/2-x,1/2-y,-z
1/2+x,1/2+y,-z
1/2-x,1/2+y,z
1/2+x,1/2-y,z
loop_
_atom_site_type_symbol
_atom_site_label
_atom_site_fract_x
_atom_site_fract_y
_atom_site_fract_z
Si Si1 0.908321 0.556639 0.000000
Si Si2 0.157622 0.772341 0.628633
Si Si3 0.947114 0.298735 0.869693
Si Si4 0.054840 0.598771 0.241833
Si Si5 0.357276 0.557503 0.135619
Si Si6 0.797040 0.128189 0.700261
Si Si7 0.706883 0.443536 0.500000
O O1 0.926936 0.579725 0.882075
O O2 0.924308 0.500000 0.000000
O O3 0.850854 0.557468 0.000000
O O4 0.174045 0.755031 0.500000
O O5 0.176039 0.750000 0.750000
O O6 0.100281 0.765987 0.631598
O O7 0.170169 0.830878 0.638781
O O8 0.942338 0.341544 0.773816
O O9 0.000000 0.275764 0.859890
O O10 0.946504 0.321265 0.000000
O O11 0.088938 0.574502 0.336060
O O12 0.000000 0.585451 0.259074
O O13 0.350065 0.500000 0.175224
O O14 0.326286 0.597303 0.205704
O O15 0.347451 0.559658 0.000000
O O16 0.750000 0.153852 0.750000
O O17 0.778280 0.087144 0.611044
O O18 0.723708 0.500000 0.500000
#
# Coordination Sequence:
#
# PCOD9513613 Si02
#       7
#    16  32  32  32  32  32  16
#     4  11  19  30  53  90 129 162 209 270 323 381
#     4  11  24  46  73 103 137 175 223 279 340 407
#     4   9  17  34  63  95 129 166 207 263 330 396
#     4  11  20  34  58  89 127 172 218 265 323 392
#     4  11  25  42  60  89 132 179 226 275 331 403
#     4  12  26  46  70  97 130 173 221 284 344 402
#     4  11  22  41  72 102 133 172 216 274 344 398
#
# _framework density 21.927204
#
# number of rings (size 3 to 8) (size 9 to 14) (size 15 to 20)
#    0.000    1.167    5.000    1.250    1.167    4.667 
#    0.000    1.667    0.000    0.000    0.000    0.000 
#    0.000    0.000    0.000    0.000    0.000    0.000 
#
# Total GULP energy -267997.936760 kJ/mol
# GULP energy per Si atom -5583.290349 kJ/mol
# Density = 2.187730 g / cm^3
# Si number density = 21.927204 Si / 1000 Ang^3
#
#
#
# Elastic Constant Matrix: (Units=GPa)
#
#
# Indices 1 2 3 4 5 6 
#
# 1 73.6811 -6.7847 9.6932 0.0000 -0.0001 0.0000
# 2 -6.7847 46.3865 36.1598 0.0000 -0.0001 -0.0001
# 3 9.6932 36.1598 110.0011 -0.0004 -0.0001 0.0000
# 4 0.0000 0.0000 -0.0004 48.6227 0.0001 0.0001
# 5 -0.0001 -0.0001 -0.0001 0.0001 12.0307 0.0000
# 6 0.0000 -0.0001 0.0000 0.0001 0.0000 7.7925
#
#
#
# Elastic Compliance Matrix: (Units=1/GPa)
#
#
# Indices 1 2 3 4 5 6 
#
# 1 0.014297 0.004132 -0.002618 0.000000 0.000000 0.000000
# 2 0.004132 0.030180 -0.010285 0.000000 0.000000 0.000000
# 3 -0.002618 -0.010285 0.012702 0.000000 0.000000 0.000000
# 4 0.000000 0.000000 0.000000 0.020567 0.000000 0.000000
# 5 0.000000 0.000000 0.000000 0.000000 0.083121 0.000000
# 6 0.000000 0.000000 0.000000 0.000000 0.000000 0.128328
#
#
# Mechanical properties :
#
#
# Convention : Reuss Voigt Hill
#
# Bulk Modulus (GPa) = 25.22884 34.24503 29.73694
# Shear Modulus (GPa) = 15.62750 26.42254 21.02502
#
# Velocity S-wave (km/s) = 2.67254 3.47509 3.09990
# Velocity P-wave (km/s) = 4.58846 5.63500 5.13844
#
# Compressibility (1/GPa) = 0.03963718
#
# Stress axis : x y z
#
# Youngs Moduli (GPa) = 69.94514 33.13479 78.72539
#
# Poissons Ratio (x) = -0.13691 0.20611
# Poissons Ratio (y) = -0.28902 0.80968
# Poissons Ratio (z) = 0.18313 0.34079
#
# Static dielectric constant tensor:
#      x y z
#    x 1.815120 0.000000 0.000000 
#    y 0.000000 1.801240 0.000000 
#    z 0.000000 0.000000 1.934350 
# 
# From -- ./inp_files/12428.got.cif
#   From: 2010.05.17/outbox.cif.g08.bks.cpg/sg69_7_cif.got.tgz:12428.got - 2010.06.03 19:29:58.
