data_PCOD9513650
_publ_section_title
;
Structure prediction by ZEFSAII (Michael W. Deem and Ramdas Pophale) SiO2 
 PCOD9513650
Probable space group: F M M M
;
_chemical_formula_sum "Si O2"
_cell_formula_units_Z 192
_cell_length_a 18.575570
_cell_length_b 29.560162
_cell_length_c 18.421574
_cell_angle_alpha 90.000000
_cell_angle_beta 90.000000
_cell_angle_gamma 90.000000
_cell_volume 10115.228411
_symmetry_space_group_name_H-M "F M M M"
_symmetry_group_IT_number 69
_symmetry_cell_setting 'orthorhombic'
loop_
_space_group_symop_operation_xyz
x,y,z
-x,-y,z
x,-y,-z
-x,y,-z
-x,-y,-z
x,y,-z
-x,y,z
x,-y,z
x,1/2+y,1/2+z
-x,1/2-y,1/2+z
x,1/2-y,1/2-z
-x,1/2+y,1/2-z
-x,1/2-y,1/2-z
x,1/2+y,1/2-z
-x,1/2+y,1/2+z
x,1/2-y,1/2+z
1/2+x,y,1/2+z
1/2-x,-y,1/2+z
1/2+x,-y,1/2-z
1/2-x,y,1/2-z
1/2-x,-y,1/2-z
1/2+x,y,1/2-z
1/2-x,y,1/2+z
1/2+x,-y,1/2+z
1/2+x,1/2+y,z
1/2-x,1/2-y,z
1/2+x,1/2-y,-z
1/2-x,1/2+y,-z
1/2-x,1/2-y,-z
1/2+x,1/2+y,-z
1/2-x,1/2+y,z
1/2+x,1/2-y,z
loop_
_atom_site_type_symbol
_atom_site_label
_atom_site_fract_x
_atom_site_fract_y
_atom_site_fract_z
Si Si1 0.413860 0.678977 0.111593
Si Si2 0.156936 0.879289 0.640862
Si Si3 0.164536 0.949793 0.233436
Si Si4 0.815907 0.095282 0.917468
Si Si5 0.666733 0.196309 0.242621
Si Si6 0.912808 0.743694 0.000000
Si Si7 0.915728 0.140737 0.500000
O O1 0.500000 0.673901 0.107072
O O2 0.371197 0.636917 0.078600
O O3 0.385239 0.680543 0.193428
O O4 0.393087 0.725203 0.069371
O O5 0.139560 0.912016 0.708802
O O6 0.238418 0.887097 0.612046
O O7 0.144246 0.828140 0.669018
O O8 0.108454 0.885627 0.571106
O O9 0.250000 0.951780 0.250000
O O10 0.156764 0.936336 0.148775
O O11 0.134424 0.000000 0.246570
O O12 0.808274 0.076615 0.000000
O O13 0.666560 0.250000 0.250000
O O14 0.750000 0.180685 0.250000
O O15 0.884192 0.692446 0.000000
O O16 0.000000 0.741523 0.000000
O O17 0.000000 0.145872 0.500000
#
# Coordination Sequence:
#
# PCOD9513650 Si02
#       7
#    32  32  32  32  32  16  16
#     4  11  21  35  55  81 113 157 200 240 291 346
#     4  11  20  39  59  85 121 157 196 246 293 351
#     4   9  19  37  63  90 117 149 191 247 303 355
#     4  11  20  36  61  87 118 150 194 242 300 356
#     4  11  21  34  55  84 117 154 197 247 292 347
#     4   9  20  37  53  80 123 156 198 249 287 340
#     4  11  24  39  58  87 120 164 207 243 288 345
#
# _framework density 18.981282
#
# number of rings (size 3 to 8) (size 9 to 14) (size 15 to 20)
#    0.000    1.500    5.000    1.500    0.000    1.333 
#    0.000    1.250    0.000    2.500    0.000    1.167 
#    0.000    0.000    0.000    0.000    0.000    0.000 
#
# Total GULP energy -267458.009305 kJ/mol
# GULP energy per Si atom -5572.041861 kJ/mol
# Density = 1.893808 g / cm^3
# Si number density = 18.981282 Si / 1000 Ang^3
#
#
#
# Elastic Constant Matrix: (Units=GPa)
#
#
# Indices 1 2 3 4 5 6 
#
# 1 45.7339 18.4103 26.3701 0.0000 0.0000 0.0000
# 2 18.4103 81.8470 44.1323 0.0000 0.0000 0.0000
# 3 26.3701 44.1323 159.1290 0.0000 0.0000 0.0000
# 4 0.0000 0.0000 0.0000 12.4277 0.0000 0.0000
# 5 0.0000 0.0000 0.0000 0.0000 23.3622 0.0000
# 6 0.0000 0.0000 0.0000 0.0000 0.0000 9.2360
#
#
#
# Elastic Compliance Matrix: (Units=1/GPa)
#
#
# Indices 1 2 3 4 5 6 
#
# 1 0.025256 -0.004026 -0.003069 0.000000 0.000000 0.000000
# 2 -0.004026 0.015008 -0.003495 0.000000 0.000000 0.000000
# 3 -0.003069 -0.003495 0.007762 0.000000 0.000000 0.000000
# 4 0.000000 0.000000 0.000000 0.080465 0.000000 0.000000
# 5 0.000000 0.000000 0.000000 0.000000 0.042804 0.000000
# 6 0.000000 0.000000 0.000000 0.000000 0.000000 0.108272
#
#
# Mechanical properties :
#
#
# Convention : Reuss Voigt Hill
#
# Bulk Modulus (GPa) = 37.24960 51.61505 44.43232
# Shear Modulus (GPa) = 16.14487 22.19167 19.16827
#
# Velocity S-wave (km/s) = 2.91961 3.42297 3.18126
# Velocity P-wave (km/s) = 5.57068 6.54782 6.07892
#
# Compressibility (1/GPa) = 0.02684593
#
# Stress axis : x y z
#
# Youngs Moduli (GPa) = 39.59488 66.63052 128.83208
#
# Poissons Ratio (x) = 0.26827 0.39534
# Poissons Ratio (y) = 0.15942 0.45028
# Poissons Ratio (z) = 0.12150 0.23288
#
# Static dielectric constant tensor:
#      x y z
#    x 1.635570 0.000000 0.000000 
#    y 0.000000 1.700820 0.000000 
#    z 0.000000 0.000000 1.685270 
# 
# From -- ./inp_files/23720.got.cif
#   From: 2010.05.17/outbox.cif.g08.bks.cpg/sg69_12_cif.got.tgz:23720.got - 2010.06.03 19:29:58.
