data_PCOD9513178
_publ_section_title
;
Structure prediction by ZEFSAII (Michael W. Deem and Ramdas Pophale) SiO2 
 PCOD9513178
Probable space group: F M M M
;
_chemical_formula_sum "Si O2"
_cell_formula_units_Z 96
_cell_length_a 24.075650
_cell_length_b 11.029211
_cell_length_c 18.215732
_cell_angle_alpha 90.000000
_cell_angle_beta 90.000000
_cell_angle_gamma 90.000000
_cell_volume 4836.922117
_symmetry_space_group_name_H-M "F M M M"
_symmetry_group_IT_number 69
_symmetry_cell_setting 'orthorhombic'
loop_
_space_group_symop_operation_xyz
x,y,z
-x,-y,z
x,-y,-z
-x,y,-z
-x,-y,-z
x,y,-z
-x,y,z
x,-y,z
x,1/2+y,1/2+z
-x,1/2-y,1/2+z
x,1/2-y,1/2-z
-x,1/2+y,1/2-z
-x,1/2-y,1/2-z
x,1/2+y,1/2-z
-x,1/2+y,1/2+z
x,1/2-y,1/2+z
1/2+x,y,1/2+z
1/2-x,-y,1/2+z
1/2+x,-y,1/2-z
1/2-x,y,1/2-z
1/2-x,-y,1/2-z
1/2+x,y,1/2-z
1/2-x,y,1/2+z
1/2+x,-y,1/2+z
1/2+x,1/2+y,z
1/2-x,1/2-y,z
1/2+x,1/2-y,-z
1/2-x,1/2+y,-z
1/2-x,1/2-y,-z
1/2+x,1/2+y,-z
1/2-x,1/2+y,z
1/2+x,1/2-y,z
loop_
_atom_site_type_symbol
_atom_site_label
_atom_site_fract_x
_atom_site_fract_y
_atom_site_fract_z
Si Si1 0.720376 0.363241 0.331007
Si Si2 0.500000 0.358403 0.578379
Si Si3 0.401913 0.249549 0.332961
Si Si4 0.068029 0.500000 0.411024
O O1 0.724230 0.500000 0.361350
O O2 0.750000 0.370072 0.250000
O O3 0.750000 0.250000 0.370812
O O4 0.657054 0.317941 0.327473
O O5 0.500000 0.500000 0.570081
O O6 0.500000 0.292734 0.500000
O O7 0.555264 0.324086 0.619557
O O8 0.423546 0.250000 0.250000
O O9 0.404322 0.116723 0.370710
O O10 0.076767 0.500000 0.500000
O O11 0.000000 0.500000 0.399055
#
# Coordination Sequence:
#
# PCOD9513178 Si02
#       4
#    32  16  32  16
#     4  10  21  38  62  98 143 172 221 297 366 394
#     4  11  25  43  63  91 139 181 217 281 363 423
#     4  12  24  38  70 104 133 174 241 290 339 417
#     4  11  26  46  67  98 150 196 229 277 362 431
#
# _framework density 19.847332000000002
#
# number of rings (size 3 to 8) (size 9 to 14) (size 15 to 20)
#    0.000    1.000    5.000    2.500    7.000    0.000 
#    0.000    0.000    0.000    4.000    0.000    0.000 
#    0.000    0.000    0.000    0.000    0.000    0.000 
#
# Total GULP energy -133745.457607 kJ/mol
# GULP energy per Si atom -5572.727400 kJ/mol
# Density = 1.980216 g / cm^3
# Si number density = 19.847332 Si / 1000 Ang^3
#
#
#
# Elastic Constant Matrix: (Units=GPa)
#
#
# Indices 1 2 3 4 5 6 
#
# 1 137.0753 44.3985 47.6551 0.0000 0.0000 0.0000
# 2 44.3985 201.0981 41.6480 0.0000 0.0000 0.0000
# 3 47.6551 41.6480 117.6684 0.0000 0.0000 0.0000
# 4 0.0000 0.0000 0.0000 19.6468 0.0000 0.0000
# 5 0.0000 0.0000 0.0000 0.0000 5.5905 0.0000
# 6 0.0000 0.0000 0.0000 0.0000 0.0000 65.6282
#
#
#
# Elastic Compliance Matrix: (Units=1/GPa)
#
#
# Indices 1 2 3 4 5 6 
#
# 1 0.008794 -0.001299 -0.003102 0.000000 0.000000 0.000000
# 2 -0.001299 0.005558 -0.001441 0.000000 0.000000 0.000000
# 3 -0.003102 -0.001441 0.010265 0.000000 0.000000 0.000000
# 4 0.000000 0.000000 0.000000 0.050899 0.000000 0.000000
# 5 0.000000 0.000000 0.000000 0.000000 0.178874 0.000000
# 6 0.000000 0.000000 0.000000 0.000000 0.000000 0.015237
#
#
# Mechanical properties :
#
#
# Convention : Reuss Voigt Hill
#
# Bulk Modulus (GPa) = 77.32196 80.36056 78.84126
# Shear Modulus (GPa) = 17.50560 39.64912 28.57736
#
# Velocity S-wave (km/s) = 2.97309 4.47442 3.79866
# Velocity P-wave (km/s) = 7.12942 8.20190 7.68439
#
# Compressibility (1/GPa) = 0.01293294
#
# Stress axis : x y z
#
# Youngs Moduli (GPa) = 113.70795 179.92132 97.42093
#
# Poissons Ratio (x) = 0.23376 0.30219
# Poissons Ratio (y) = 0.14773 0.14039
# Poissons Ratio (z) = 0.35271 0.25927
#
# Static dielectric constant tensor:
#      x y z
#    x 1.720600 0.000000 0.000000 
#    y 0.000000 1.770440 0.000000 
#    z 0.000000 0.000000 1.667510 
# 
# From -- ./inp_files/10895.got.cif
#   From: 2010.05.17/outbox.cif.g08.bks.cpg/sg69_6_cif.got.tgz:10895.got - 2010.06.03 19:29:58.
