data_PCOD9513261
_publ_section_title
;
Structure prediction by ZEFSAII (Michael W. Deem and Ramdas Pophale) SiO2 
 PCOD9513261
Probable space group: F M M M
;
_chemical_formula_sum "Si O2"
_cell_formula_units_Z 112
_cell_length_a 12.925638
_cell_length_b 23.956754
_cell_length_c 16.782696
_cell_angle_alpha 90.000000
_cell_angle_beta 90.000000
_cell_angle_gamma 90.000000
_cell_volume 5196.868049
_symmetry_space_group_name_H-M "F M M M"
_symmetry_group_IT_number 69
_symmetry_cell_setting 'orthorhombic'
loop_
_space_group_symop_operation_xyz
x,y,z
-x,-y,z
x,-y,-z
-x,y,-z
-x,-y,-z
x,y,-z
-x,y,z
x,-y,z
x,1/2+y,1/2+z
-x,1/2-y,1/2+z
x,1/2-y,1/2-z
-x,1/2+y,1/2-z
-x,1/2-y,1/2-z
x,1/2+y,1/2-z
-x,1/2+y,1/2+z
x,1/2-y,1/2+z
1/2+x,y,1/2+z
1/2-x,-y,1/2+z
1/2+x,-y,1/2-z
1/2-x,y,1/2-z
1/2-x,-y,1/2-z
1/2+x,y,1/2-z
1/2-x,y,1/2+z
1/2+x,-y,1/2+z
1/2+x,1/2+y,z
1/2-x,1/2-y,z
1/2+x,1/2-y,-z
1/2-x,1/2+y,-z
1/2-x,1/2-y,-z
1/2+x,1/2+y,-z
1/2-x,1/2+y,z
1/2+x,1/2-y,z
loop_
_atom_site_type_symbol
_atom_site_label
_atom_site_fract_x
_atom_site_fract_y
_atom_site_fract_z
Si Si1 0.379295 0.500000 0.404128
Si Si2 0.809413 0.307520 0.909151
Si Si3 0.500000 0.813543 0.789767
Si Si4 0.500000 0.064040 0.301313
Si Si5 0.700919 0.580739 0.093672
O O1 0.500000 0.500000 0.386278
O O2 0.376983 0.500000 0.500000
O O3 0.308325 0.448064 0.378383
O O4 0.750000 0.250000 0.900802
O O5 0.722559 0.354307 0.899341
O O6 0.899042 0.314174 0.845524
O O7 0.850856 0.312878 0.000000
O O8 0.500000 0.750000 0.750000
O O9 0.500000 0.874639 0.743810
O O10 0.396955 0.064754 0.354995
O O11 0.500000 0.000000 0.266079
O O12 0.684679 0.567085 0.000000
#
# Coordination Sequence:
#
# PCOD9513261 Si02
#       5
#    16  32  16  16  32
#     4   9  18  33  59  96 132 172 224 282 342 395
#     4  10  23  45  72 100 128 170 235 295 339 399
#     4  12  27  46  71 100 138 189 222 277 350 420
#     4  12  25  43  65 101 147 189 231 277 346 420
#     4  10  21  39  68 100 135 180 230 289 342 399
#
# _framework density 21.551441000000001
#
# number of rings (size 3 to 8) (size 9 to 14) (size 15 to 20)
#    0.000    1.571    1.429    2.571    2.000    4.571 
#    2.571    7.143    0.000    0.857    0.000    0.000 
#    0.000    0.000    0.000    0.000    0.000    0.286 
#
# Total GULP energy -156206.953077 kJ/mol
# GULP energy per Si atom -5578.819753 kJ/mol
# Density = 2.150239 g / cm^3
# Si number density = 21.551441 Si / 1000 Ang^3
#
#
#
# Elastic Constant Matrix: (Units=GPa)
#
#
# Indices 1 2 3 4 5 6 
#
# 1 155.4677 55.0590 70.7885 0.0000 0.0000 0.0000
# 2 55.0590 201.0823 58.9373 0.0000 0.0000 0.0000
# 3 70.7885 58.9373 91.7684 0.0000 0.0000 0.0000
# 4 0.0000 0.0000 0.0000 -20.2137 0.0000 0.0000
# 5 0.0000 0.0000 0.0000 0.0000 68.5083 0.0000
# 6 0.0000 0.0000 0.0000 0.0000 0.0000 -36.2164
#
#
#
# Elastic Compliance Matrix: (Units=1/GPa)
#
#
# Indices 1 2 3 4 5 6 
#
# 1 0.009970 -0.000586 -0.007314 0.000000 0.000000 0.000000
# 2 -0.000586 0.006161 -0.003505 0.000000 0.000000 0.000000
# 3 -0.007314 -0.003505 0.018790 0.000000 0.000000 0.000000
# 4 0.000000 0.000000 0.000000 -0.049471 0.000000 0.000000
# 5 0.000000 0.000000 0.000000 0.000000 0.014597 0.000000
# 6 0.000000 0.000000 0.000000 0.000000 0.000000 -0.027612
#
#
# Mechanical properties :
#
#
# Convention : Reuss Voigt Hill
#
# Bulk Modulus (GPa) = 82.57123 90.87644 86.72383
# Shear Modulus (GPa) = -6960.15168 19.98455 -3470.08356
#
# Velocity S-wave (km/s) = -56.89081 3.04846 -40.17008
# Velocity P-wave (km/s) = 65.39894 7.39253 45.94765
#
# Compressibility (1/GPa) = 0.01211076
#
# Stress axis : x y z
#
# Youngs Moduli (GPa) = 100.29869 162.31756 53.21989
#
# Poissons Ratio (x) = 0.09514 0.38927
# Poissons Ratio (y) = 0.05879 0.18651
# Poissons Ratio (z) = 0.73363 0.56885
#
# Static dielectric constant tensor:
#      x y z
#    x 1.712610 0.000000 0.000000 
#    y 0.000000 1.800950 0.000000 
#    z 0.000000 0.000000 1.815320 
# 
# From -- ./inp_files/20855.got.cif
#   From: 2010.05.17/outbox.cif.g08.bks.cpg/sg69_11_cif.got.tgz:20855.got - 2010.06.03 19:29:58.
