data_PCOD9513608
_publ_section_title
;
Structure prediction by ZEFSAII (Michael W. Deem and Ramdas Pophale) SiO2 
 PCOD9513608
Probable space group: F M M M
;
_chemical_formula_sum "Si O2"
_cell_formula_units_Z 160
_cell_length_a 22.592619
_cell_length_b 19.567691
_cell_length_c 17.559604
_cell_angle_alpha 90.000000
_cell_angle_beta 90.000000
_cell_angle_gamma 90.000000
_cell_volume 7762.844338
_symmetry_space_group_name_H-M "F M M M"
_symmetry_group_IT_number 69
_symmetry_cell_setting 'orthorhombic'
loop_
_space_group_symop_operation_xyz
x,y,z
-x,-y,z
x,-y,-z
-x,y,-z
-x,-y,-z
x,y,-z
-x,y,z
x,-y,z
x,1/2+y,1/2+z
-x,1/2-y,1/2+z
x,1/2-y,1/2-z
-x,1/2+y,1/2-z
-x,1/2-y,1/2-z
x,1/2+y,1/2-z
-x,1/2+y,1/2+z
x,1/2-y,1/2+z
1/2+x,y,1/2+z
1/2-x,-y,1/2+z
1/2+x,-y,1/2-z
1/2-x,y,1/2-z
1/2-x,-y,1/2-z
1/2+x,y,1/2-z
1/2-x,y,1/2+z
1/2+x,-y,1/2+z
1/2+x,1/2+y,z
1/2-x,1/2-y,z
1/2+x,1/2-y,-z
1/2-x,1/2+y,-z
1/2-x,1/2-y,-z
1/2+x,1/2+y,-z
1/2-x,1/2+y,z
1/2+x,1/2-y,z
loop_
_atom_site_type_symbol
_atom_site_label
_atom_site_fract_x
_atom_site_fract_y
_atom_site_fract_z
Si Si1 0.672980 0.888445 0.083570
Si Si2 0.065508 0.000000 0.811903
Si Si3 0.588599 0.653644 0.180301
Si Si4 0.064829 0.806375 0.642893
Si Si5 0.816267 0.500000 0.787500
Si Si6 0.771905 0.327711 0.332315
O O1 0.620771 0.833789 0.096267
O O2 0.738416 0.858341 0.095558
O O3 0.671291 0.938155 0.155065
O O4 0.666634 0.918768 0.000000
O O5 0.067650 0.921918 0.846404
O O6 0.129258 0.000000 0.770676
O O7 0.000000 0.000000 0.772397
O O8 0.564741 0.723850 0.143623
O O9 0.573939 0.665437 0.270324
O O10 0.658832 0.660029 0.167981
O O11 0.000000 0.830317 0.616420
O O12 0.750000 0.500000 0.750000
O O13 0.750000 0.354605 0.250000
O O14 0.750000 0.250000 0.332065
#
# Coordination Sequence:
#
# PCOD9513608 Si02
#       6
#    32  16  32  32  16  32
#     4  12  25  40  61  94 133 171 213 264 331 407
#     4  12  22  35  62 100 132 160 212 284 342 386
#     4  11  20  36  62  93 124 164 221 284 329 380
#     4  11  21  38  60  88 128 174 219 265 318 388
#     4  12  25  45  68  92 128 180 220 276 333 397
#     4  11  18  37  64  91 120 163 215 273 331 380
#
# _framework density 20.611001000000002
#
# number of rings (size 3 to 8) (size 9 to 14) (size 15 to 20)
#    0.000    0.600    6.000    5.700    0.000    0.800 
#    0.000    0.000    0.000    1.800    0.000    0.700 
#    0.000   25.600    0.000    0.000    0.000    0.000 
#
# Total GULP energy -222693.034833 kJ/mol
# GULP energy per Si atom -5567.325871 kJ/mol
# Density = 2.056409 g / cm^3
# Si number density = 20.611001 Si / 1000 Ang^3
#
#
#
# Elastic Constant Matrix: (Units=GPa)
#
#
# Indices 1 2 3 4 5 6 
#
# 1 196.3318 25.4219 23.2418 0.0000 0.0000 0.0000
# 2 25.4219 139.8637 14.6853 0.0000 0.0000 0.0000
# 3 23.2418 14.6853 44.2050 0.0000 0.0000 0.0000
# 4 0.0000 0.0000 0.0000 29.2822 0.0000 0.0000
# 5 0.0000 0.0000 0.0000 0.0000 -7.3086 0.0000
# 6 0.0000 0.0000 0.0000 0.0000 0.0000 6.8867
#
#
#
# Elastic Compliance Matrix: (Units=1/GPa)
#
#
# Indices 1 2 3 4 5 6 
#
# 1 0.005501 -0.000721 -0.002653 0.000000 0.000000 0.000000
# 2 -0.000721 0.007503 -0.002113 0.000000 0.000000 0.000000
# 3 -0.002653 -0.002113 0.024719 0.000000 0.000000 0.000000
# 4 0.000000 0.000000 0.000000 0.034150 0.000000 0.000000
# 5 0.000000 0.000000 0.000000 0.000000 -0.136825 0.000000
# 6 0.000000 0.000000 0.000000 0.000000 0.000000 0.145207
#
#
# Mechanical properties :
#
#
# Convention : Reuss Voigt Hill
#
# Bulk Modulus (GPa) = 37.38607 56.34428 46.86517
# Shear Modulus (GPa) = 49.92759 26.90882 38.41820
#
# Velocity S-wave (km/s) = 4.92710 3.61717 4.32205
# Velocity P-wave (km/s) = 7.10962 6.69638 6.90609
#
# Compressibility (1/GPa) = 0.02674793
#
# Stress axis : x y z
#
# Youngs Moduli (GPa) = 181.79068 133.28331 40.45546
#
# Poissons Ratio (x) = 0.09614 0.10731
# Poissons Ratio (y) = 0.13113 0.08549
# Poissons Ratio (z) = 0.48221 0.28166
#
# Static dielectric constant tensor:
#      x y z
#    x 1.750660 0.000000 0.000000 
#    y 0.000000 1.671170 0.000000 
#    z 0.000000 0.000000 1.705070 
# 
# From -- ./inp_files/24646.got.cif
#   From: 2010.05.17/outbox.cif.g08.bks.cpg/sg69_13_cif.got.tgz:24646.got - 2010.06.03 19:29:58.
