data_PCOD9513281
_publ_section_title
;
Structure prediction by ZEFSAII (Michael W. Deem and Ramdas Pophale) SiO2 
 PCOD9513281
Probable space group: F M M M
;
_chemical_formula_sum "Si O2"
_cell_formula_units_Z 96
_cell_length_a 17.484707
_cell_length_b 14.105395
_cell_length_c 17.125655
_cell_angle_alpha 90.000000
_cell_angle_beta 90.000000
_cell_angle_gamma 90.000000
_cell_volume 4223.678007
_symmetry_space_group_name_H-M "F M M M"
_symmetry_group_IT_number 69
_symmetry_cell_setting 'orthorhombic'
loop_
_space_group_symop_operation_xyz
x,y,z
-x,-y,z
x,-y,-z
-x,y,-z
-x,-y,-z
x,y,-z
-x,y,z
x,-y,z
x,1/2+y,1/2+z
-x,1/2-y,1/2+z
x,1/2-y,1/2-z
-x,1/2+y,1/2-z
-x,1/2-y,1/2-z
x,1/2+y,1/2-z
-x,1/2+y,1/2+z
x,1/2-y,1/2+z
1/2+x,y,1/2+z
1/2-x,-y,1/2+z
1/2+x,-y,1/2-z
1/2-x,y,1/2-z
1/2-x,-y,1/2-z
1/2+x,y,1/2-z
1/2-x,y,1/2+z
1/2+x,-y,1/2+z
1/2+x,1/2+y,z
1/2-x,1/2-y,z
1/2+x,1/2-y,-z
1/2-x,1/2+y,-z
1/2-x,1/2-y,-z
1/2+x,1/2+y,-z
1/2-x,1/2+y,z
1/2+x,1/2-y,z
loop_
_atom_site_type_symbol
_atom_site_label
_atom_site_fract_x
_atom_site_fract_y
_atom_site_fract_z
Si Si1 0.252778 0.863136 0.000000
Si Si2 0.205980 0.500000 0.868361
Si Si3 0.627611 0.500000 0.789296
Si Si4 0.086101 0.789772 0.827686
Si Si5 0.091591 0.677373 0.500000
O O1 0.250000 0.750000 0.000000
O O2 0.292089 0.909125 0.924580
O O3 0.162862 0.895196 0.000000
O O4 0.287178 0.500000 0.824467
O O5 0.139389 0.500000 0.804305
O O6 0.588620 0.403463 0.817524
O O7 0.128207 0.750000 0.750000
O O8 0.000000 0.751916 0.824292
O O9 0.106809 0.770670 0.917431
O O10 0.000000 0.649800 0.500000
#
# Coordination Sequence:
#
# PCOD9513281 Si02
#       5
#    16  16  16  32  16
#     4  11  23  42  63  90 121 164 209 259 312 370
#     4  10  24  38  56  89 123 156 209 251 299 384
#     4  11  21  38  58  85 126 161 197 252 314 361
#     4  10  22  39  63  92 122 159 210 258 313 378
#     4  10  21  40  66  93 121 157 207 267 316 367
#
# _framework density 22.729005999999998
#
# number of rings (size 3 to 8) (size 9 to 14) (size 15 to 20)
#    0.000    1.667    3.333    0.500    4.667    0.667 
#    0.000    7.500    0.000    0.000    0.000    9.333 
#    0.000    0.000    0.000    0.000    0.000    0.000 
#
# Total GULP energy -133650.469780 kJ/mol
# GULP energy per Si atom -5568.769574 kJ/mol
# Density = 2.267727 g / cm^3
# Si number density = 22.729006 Si / 1000 Ang^3
#
#
#
# Elastic Constant Matrix: (Units=GPa)
#
#
# Indices 1 2 3 4 5 6 
#
# 1 60.1438 -1.9777 16.6303 0.0000 0.0000 0.0000
# 2 -1.9777 121.2864 46.9073 0.0000 0.0000 0.0000
# 3 16.6303 46.9073 247.4322 0.0000 0.0000 0.0000
# 4 0.0000 0.0000 0.0000-2933.5674 0.0000 0.0000
# 5 0.0000 0.0000 0.0000 0.0000 22.3781 0.0000
# 6 0.0000 0.0000 0.0000 0.0000 0.0000 17.3441
#
#
#
# Elastic Compliance Matrix: (Units=1/GPa)
#
#
# Indices 1 2 3 4 5 6 
#
# 1 0.017009 0.000776 -0.001290 0.000000 0.000000 0.000000
# 2 0.000776 0.008933 -0.001746 0.000000 0.000000 0.000000
# 3 -0.001290 -0.001746 0.004459 0.000000 0.000000 0.000000
# 4 0.000000 0.000000 0.000000 -0.000341 0.000000 0.000000
# 5 0.000000 0.000000 0.000000 0.000000 0.044687 0.000000
# 6 0.000000 0.000000 0.000000 0.000000 0.000000 0.057657
#
#
# Mechanical properties :
#
#
# Convention : Reuss Voigt Hill
#
# Bulk Modulus (GPa) = 38.63714 61.33137 49.98426
# Shear Modulus (GPa) = 34.35251 -554.28222 -259.96485
#
# Velocity S-wave (km/s) = 3.89188 -15.63314 -10.70627
# Velocity P-wave (km/s) = 6.10177 17.28634 11.43648
#
# Compressibility (1/GPa) = 0.02588183
#
# Stress axis : x y z
#
# Youngs Moduli (GPa) = 58.79184 111.94799 224.25698
#
# Poissons Ratio (x) = -0.08692 0.28938
# Poissons Ratio (y) = -0.04565 0.39147
# Poissons Ratio (z) = 0.07587 0.19542
#
# Static dielectric constant tensor:
#      x y z
#    x 1.839140 0.000000 0.000000 
#    y 0.000000 1.832260 0.000000 
#    z 0.000000 0.000000 2.001430 
# 
# From -- ./inp_files/15937.got.cif
#   From: 2010.05.17/outbox.cif.g08.bks.cpg/sg69_8_cif.got.tgz:15937.got - 2010.06.03 19:29:58.
