data_PCOD9513865
_publ_section_title
;
Structure prediction by ZEFSAII (Michael W. Deem and Ramdas Pophale) SiO2 
 PCOD9513865
Probable space group: F M M M
;
_chemical_formula_sum "Si O2"
_cell_formula_units_Z 112
_cell_length_a 27.157907
_cell_length_b 22.091940
_cell_length_c 8.430591
_cell_angle_alpha 90.000000
_cell_angle_beta 90.000000
_cell_angle_gamma 90.000000
_cell_volume 5058.108865
_symmetry_space_group_name_H-M "F M M M"
_symmetry_group_IT_number 69
_symmetry_cell_setting 'orthorhombic'
loop_
_space_group_symop_operation_xyz
x,y,z
-x,-y,z
x,-y,-z
-x,y,-z
-x,-y,-z
x,y,-z
-x,y,z
x,-y,z
x,1/2+y,1/2+z
-x,1/2-y,1/2+z
x,1/2-y,1/2-z
-x,1/2+y,1/2-z
-x,1/2-y,1/2-z
x,1/2+y,1/2-z
-x,1/2+y,1/2+z
x,1/2-y,1/2+z
1/2+x,y,1/2+z
1/2-x,-y,1/2+z
1/2+x,-y,1/2-z
1/2-x,y,1/2-z
1/2-x,-y,1/2-z
1/2+x,y,1/2-z
1/2-x,y,1/2+z
1/2+x,-y,1/2+z
1/2+x,1/2+y,z
1/2-x,1/2-y,z
1/2+x,1/2-y,-z
1/2-x,1/2+y,-z
1/2-x,1/2-y,-z
1/2+x,1/2+y,-z
1/2-x,1/2+y,z
1/2+x,1/2-y,z
loop_
_atom_site_type_symbol
_atom_site_label
_atom_site_fract_x
_atom_site_fract_y
_atom_site_fract_z
Si Si1 0.943090 0.270213 0.000000
Si Si2 0.303976 0.862804 0.320096
Si Si3 0.130804 0.750000 0.250000
Si Si4 0.943662 0.377293 0.500000
Si Si5 0.392345 0.572364 0.680631
O O1 0.908140 0.286902 0.855368
O O2 0.942852 0.196282 0.000000
O O3 0.000000 0.289862 0.000000
O O4 0.301851 0.886710 0.500000
O O5 0.250000 0.853486 0.250000
O O6 0.333507 0.799206 0.326144
O O7 0.336326 0.905463 0.207076
O O8 0.919540 0.401244 0.662772
O O9 0.000000 0.396753 0.500000
O O10 0.409407 0.588292 0.500000
O O11 0.395450 0.500000 0.691172
#
# Coordination Sequence:
#
# PCOD9513865 Si02
#       5
#    16  32  16  16  32
#     4  11  24  41  66 100 133 174 223 265 332 405
#     4  12  26  43  67  98 132 178 226 278 341 400
#     4  12  22  42  66  94 132 170 214 274 328 396
#     4  11  23  46  72 100 137 180 225 276 338 398
#     4  11  24  44  69 100 138 178 225 278 333 399
#
# _framework density 22.142664
#
# number of rings (size 3 to 8) (size 9 to 14) (size 15 to 20)
#    0.000    0.571    5.714    2.143    4.000    3.429 
#    0.000    1.429    0.000    0.000    0.000    0.000 
#    0.000    0.000    0.000    0.000    0.000    0.000 
#
# Total GULP energy -156375.981843 kJ/mol
# GULP energy per Si atom -5584.856494 kJ/mol
# Density = 2.209227 g / cm^3
# Si number density = 22.142664 Si / 1000 Ang^3
#
#
#
# Elastic Constant Matrix: (Units=GPa)
#
#
# Indices 1 2 3 4 5 6 
#
# 1 182.6504 13.5853 69.7652 0.0000 0.0000 0.0000
# 2 13.5853 77.3137 36.3978 -0.0007 0.0004 0.0001
# 3 69.7652 36.3978 182.2248 -0.0018 0.0012 0.0002
# 4 0.0000 -0.0007 -0.0018 35.2848 0.0005 0.0002
# 5 0.0000 0.0004 0.0012 0.0005 29.9154 0.0000
# 6 0.0000 0.0001 0.0002 0.0002 0.0000 17.2007
#
#
#
# Elastic Compliance Matrix: (Units=1/GPa)
#
#
# Indices 1 2 3 4 5 6 
#
# 1 0.006413 0.000032 -0.002462 0.000000 0.000000 0.000000
# 2 0.000032 0.014277 -0.002864 0.000000 0.000000 0.000000
# 3 -0.002462 -0.002864 0.007002 0.000000 0.000000 0.000000
# 4 0.000000 0.000000 0.000000 0.028341 0.000000 0.000000
# 5 0.000000 0.000000 0.000000 0.000000 0.033428 0.000000
# 6 0.000000 0.000000 0.000000 0.000000 0.000000 0.058137
#
#
# Mechanical properties :
#
#
# Convention : Reuss Voigt Hill
#
# Bulk Modulus (GPa) = 58.46250 75.74283 67.10266
# Shear Modulus (GPa) = 30.50901 37.97623 34.24262
#
# Velocity S-wave (km/s) = 3.71595 4.14583 3.93676
# Velocity P-wave (km/s) = 6.69858 7.56295 7.14385
#
# Compressibility (1/GPa) = 0.01710498
#
# Stress axis : x y z
#
# Youngs Moduli (GPa) = 155.93892 70.04275 142.81260
#
# Poissons Ratio (x) = -0.00224 0.35154
# Poissons Ratio (y) = -0.00499 0.40901
# Poissons Ratio (z) = 0.38385 0.20060
#
# Static dielectric constant tensor:
#      x y z
#    x 1.777210 0.000000 0.000000 
#    y 0.000000 1.829550 0.000000 
#    z 0.000000 0.000000 1.736890 
# 
# From -- ./inp_files/4497.got.cif
#   From: 2010.05.17/outbox.cif.g08.bks.cpg/sg69_3_cif.got.tgz:4497.got - 2010.06.03 19:29:58.
