data_PCOD9513666
_publ_section_title
;
Structure prediction by ZEFSAII (Michael W. Deem and Ramdas Pophale) SiO2 
 PCOD9513666
Probable space group: F M M M
;
_chemical_formula_sum "Si O2"
_cell_formula_units_Z 128
_cell_length_a 27.393145
_cell_length_b 17.849367
_cell_length_c 15.136850
_cell_angle_alpha 90.000000
_cell_angle_beta 90.000000
_cell_angle_gamma 90.000000
_cell_volume 7401.167324
_symmetry_space_group_name_H-M "F M M M"
_symmetry_group_IT_number 69
_symmetry_cell_setting 'orthorhombic'
loop_
_space_group_symop_operation_xyz
x,y,z
-x,-y,z
x,-y,-z
-x,y,-z
-x,-y,-z
x,y,-z
-x,y,z
x,-y,z
x,1/2+y,1/2+z
-x,1/2-y,1/2+z
x,1/2-y,1/2-z
-x,1/2+y,1/2-z
-x,1/2-y,1/2-z
x,1/2+y,1/2-z
-x,1/2+y,1/2+z
x,1/2-y,1/2+z
1/2+x,y,1/2+z
1/2-x,-y,1/2+z
1/2+x,-y,1/2-z
1/2-x,y,1/2-z
1/2-x,-y,1/2-z
1/2+x,y,1/2-z
1/2-x,y,1/2+z
1/2+x,-y,1/2+z
1/2+x,1/2+y,z
1/2-x,1/2-y,z
1/2+x,1/2-y,-z
1/2-x,1/2+y,-z
1/2-x,1/2-y,-z
1/2+x,1/2+y,-z
1/2-x,1/2+y,z
1/2+x,1/2-y,z
loop_
_atom_site_type_symbol
_atom_site_label
_atom_site_fract_x
_atom_site_fract_y
_atom_site_fract_z
Si Si1 0.558322 0.088160 0.602403
Si Si2 0.635488 0.663342 0.775390
Si Si3 0.727291 0.584812 0.848134
Si Si4 0.668491 0.409648 0.595449
O O1 0.570797 0.105653 0.500000
O O2 0.500000 0.096801 0.611805
O O3 0.587877 0.137755 0.671515
O O4 0.569869 0.000000 0.616950
O O5 0.636805 0.750000 0.750000
O O6 0.680993 0.638028 0.837421
O O7 0.641961 0.620595 0.682020
O O8 0.713162 0.500000 0.876314
O O9 0.750000 0.578752 0.750000
O O10 0.774207 0.612775 0.901513
O O11 0.647676 0.387058 0.500000
O O12 0.668573 0.500000 0.600584
#
# Coordination Sequence:
#
# PCOD9513666 Si02
#       4
#    32  32  32  32
#     4   9  19  37  59  78  95 123 169 219 258 295
#     4  11  21  31  49  77 108 135 161 200 259 317
#     4   8  15  29  46  65  93 132 174 204 226 267
#     4   9  18  33  52  73 100 137 178 213 244 287
#
# _framework density 17.294568999999999
#
# number of rings (size 3 to 8) (size 9 to 14) (size 15 to 20)
#    0.000    2.750    0.000    4.500    0.000    7.000 
#    0.000    3.750    0.000    0.750    0.000    3.500 
#    0.000    0.000    0.000    0.000    0.000    0.000 
#
# Total GULP energy -178238.199222 kJ/mol
# GULP energy per Si atom -5569.943726 kJ/mol
# Density = 1.725521 g / cm^3
# Si number density = 17.294569 Si / 1000 Ang^3
#
#
#
# Elastic Constant Matrix: (Units=GPa)
#
#
# Indices 1 2 3 4 5 6 
#
# 1 58.3052 42.1760 35.7999 0.0000 0.0000 0.0000
# 2 42.1760 74.5814 34.6890 0.0000 0.0000 0.0000
# 3 35.7999 34.6890 97.6119 0.0000 0.0000 0.0000
# 4 0.0000 0.0000 0.0000 8.5638 0.0000 0.0000
# 5 0.0000 0.0000 0.0000 0.0000 25.5683 0.0000
# 6 0.0000 0.0000 0.0000 0.0000 0.0000 10.1293
#
#
#
# Elastic Compliance Matrix: (Units=1/GPa)
#
#
# Indices 1 2 3 4 5 6 
#
# 1 0.032010 -0.015145 -0.006358 0.000000 0.000000 0.000000
# 2 -0.015145 0.023229 -0.002700 0.000000 0.000000 0.000000
# 3 -0.006358 -0.002700 0.013536 0.000000 0.000000 0.000000
# 4 0.000000 0.000000 0.000000 0.116771 0.000000 0.000000
# 5 0.000000 0.000000 0.000000 0.000000 0.039111 0.000000
# 6 0.000000 0.000000 0.000000 0.000000 0.000000 0.098724
#
#
# Mechanical properties :
#
#
# Convention : Reuss Voigt Hill
#
# Bulk Modulus (GPa) = 49.09479 50.64759 49.87119
# Shear Modulus (GPa) = 13.20740 16.70784 14.95762
#
# Velocity S-wave (km/s) = 2.76646 3.11155 2.94406
# Velocity P-wave (km/s) = 6.21719 6.50060 6.36047
#
# Compressibility (1/GPa) = 0.02036876
#
# Stress axis : x y z
#
# Youngs Moduli (GPa) = 31.24021 43.05048 73.87633
#
# Poissons Ratio (x) = 0.65198 0.46970
# Poissons Ratio (y) = 0.47312 0.19950
# Poissons Ratio (z) = 0.19862 0.11626
#
# Static dielectric constant tensor:
#      x y z
#    x 1.592720 0.000000 0.000000 
#    y 0.000000 1.586820 0.000000 
#    z 0.000000 0.000000 1.622960 
# 
# From -- ./inp_files/25516.got.cif
#   From: 2010.05.17/outbox.cif.g08.bks.cpg/sg69_13_cif.got.tgz:25516.got - 2010.06.03 19:29:58.
