data_PCOD9513285
_publ_section_title
;
Structure prediction by ZEFSAII (Michael W. Deem and Ramdas Pophale) SiO2 
 PCOD9513285
Probable space group: F M M M
;
_chemical_formula_sum "Si O2"
_cell_formula_units_Z 168
_cell_length_a 23.859992
_cell_length_b 19.317164
_cell_length_c 17.301210
_cell_angle_alpha 90.000000
_cell_angle_beta 90.000000
_cell_angle_gamma 90.000000
_cell_volume 7974.255346
_symmetry_space_group_name_H-M "F M M M"
_symmetry_group_IT_number 69
_symmetry_cell_setting 'orthorhombic'
loop_
_space_group_symop_operation_xyz
x,y,z
-x,-y,z
x,-y,-z
-x,y,-z
-x,-y,-z
x,y,-z
-x,y,z
x,-y,z
x,1/2+y,1/2+z
-x,1/2-y,1/2+z
x,1/2-y,1/2-z
-x,1/2+y,1/2-z
-x,1/2-y,1/2-z
x,1/2+y,1/2-z
-x,1/2+y,1/2+z
x,1/2-y,1/2+z
1/2+x,y,1/2+z
1/2-x,-y,1/2+z
1/2+x,-y,1/2-z
1/2-x,y,1/2-z
1/2-x,-y,1/2-z
1/2+x,y,1/2-z
1/2-x,y,1/2+z
1/2+x,-y,1/2+z
1/2+x,1/2+y,z
1/2-x,1/2-y,z
1/2+x,1/2-y,-z
1/2-x,1/2+y,-z
1/2-x,1/2-y,-z
1/2+x,1/2+y,-z
1/2-x,1/2+y,z
1/2+x,1/2-y,z
loop_
_atom_site_type_symbol
_atom_site_label
_atom_site_fract_x
_atom_site_fract_y
_atom_site_fract_z
Si Si1 0.674793 0.801190 0.413425
Si Si2 0.916095 0.500000 0.500000
Si Si3 0.239314 0.575507 0.341070
Si Si4 0.434588 0.327053 0.717942
Si Si5 0.842869 0.852752 0.408740
Si Si6 0.935106 0.629192 0.614137
O O1 0.695777 0.815431 0.500000
O O2 0.698768 0.861171 0.360294
O O3 0.686672 0.722074 0.393864
O O4 0.607739 0.811357 0.411996
O O5 0.919979 0.560840 0.566923
O O6 0.216660 0.500000 0.365084
O O7 0.250000 0.575110 0.250000
O O8 0.297602 0.590237 0.384691
O O9 0.500000 0.323428 0.695512
O O10 0.418848 0.250000 0.750000
O O11 0.395638 0.352009 0.648479
O O12 0.429224 0.375933 0.793221
O O13 0.856247 0.855913 0.500000
O O14 0.000000 0.646552 0.598716
#
# Coordination Sequence:
#
# PCOD9513285 Si02
#       6
#    32   8  32  32  32  32
#     4  11  23  38  63  93 126 167 215 269 328 395
#     4  12  25  40  60 100 146 186 218 270 355 430
#     4  11  26  44  64  91 124 169 222 276 338 402
#     4  10  21  40  66  97 131 172 221 272 332 398
#     4  11  24  43  66  97 131 172 224 277 334 399
#     4  11  22  37  61  94 138 178 215 266 337 415
#
# _framework density 21.067796999999999
#
# number of rings (size 3 to 8) (size 9 to 14) (size 15 to 20)
#    0.000    1.143    2.857    3.143    1.333    4.190 
#    1.714    1.905    0.000    0.000    0.000    1.333 
#    0.000    0.000    0.000    0.000    0.000    0.000 
#
# Total GULP energy -234228.194178 kJ/mol
# GULP energy per Si atom -5576.861766 kJ/mol
# Density = 2.101985 g / cm^3
# Si number density = 21.067797 Si / 1000 Ang^3
#
#
#
# Elastic Constant Matrix: (Units=GPa)
#
#
# Indices 1 2 3 4 5 6 
#
# 1 59.6566 7.3731 34.0262 0.0000 0.0000 0.0000
# 2 7.3731 85.9834 41.1201 0.0000 0.0000 0.0000
# 3 34.0262 41.1201 128.9032 0.0000 0.0000 0.0000
# 4 0.0000 0.0000 0.0000 -22.6722 0.0000 0.0000
# 5 0.0000 0.0000 0.0000 0.0000 10.2369 0.0000
# 6 0.0000 0.0000 0.0000 0.0000 0.0000 5.7053
#
#
#
# Elastic Compliance Matrix: (Units=1/GPa)
#
#
# Indices 1 2 3 4 5 6 
#
# 1 0.019799 0.000946 -0.005528 0.000000 0.000000 0.000000
# 2 0.000946 0.013769 -0.004642 0.000000 0.000000 0.000000
# 3 -0.005528 -0.004642 0.010698 0.000000 0.000000 0.000000
# 4 0.000000 0.000000 0.000000 -0.044107 0.000000 0.000000
# 5 0.000000 0.000000 0.000000 0.000000 0.097686 0.000000
# 6 0.000000 0.000000 0.000000 0.000000 0.000000 0.175277
#
#
# Mechanical properties :
#
#
# Convention : Reuss Voigt Hill
#
# Bulk Modulus (GPa) = 38.73366 48.84247 43.78806
# Shear Modulus (GPa) = 16.65694 11.45557 14.05625
#
# Velocity S-wave (km/s) = 2.81487 2.33437 2.58581
# Velocity P-wave (km/s) = 5.38422 5.52264 5.45387
#
# Compressibility (1/GPa) = 0.02581734
#
# Stress axis : x y z
#
# Youngs Moduli (GPa) = 50.50841 72.62696 93.47756
#
# Poissons Ratio (x) = -0.06870 0.51674
# Poissons Ratio (y) = -0.04778 0.43392
# Poissons Ratio (z) = 0.27921 0.33713
#
# Static dielectric constant tensor:
#      x y z
#    x 1.808580 0.000000 0.000000 
#    y 0.000000 1.749680 0.000000 
#    z 0.000000 0.000000 1.760610 
# 
# From -- ./inp_files/18810.got.cif
#   From: 2010.05.17/outbox.cif.g08.bks.cpg/sg69_10_cif.got.tgz:18810.got - 2010.06.03 19:29:58.
