data_PCOD9513067
_publ_section_title
;
Structure prediction by ZEFSAII (Michael W. Deem and Ramdas Pophale) SiO2 
 PCOD9513067
Probable space group: F M M M
;
_chemical_formula_sum "Si O2"
_cell_formula_units_Z 192
_cell_length_a 17.660893
_cell_length_b 29.829088
_cell_length_c 18.226219
_cell_angle_alpha 90.000000
_cell_angle_beta 90.000000
_cell_angle_gamma 90.000000
_cell_volume 9601.724020
_symmetry_space_group_name_H-M "F M M M"
_symmetry_group_IT_number 69
_symmetry_cell_setting 'orthorhombic'
loop_
_space_group_symop_operation_xyz
x,y,z
-x,-y,z
x,-y,-z
-x,y,-z
-x,-y,-z
x,y,-z
-x,y,z
x,-y,z
x,1/2+y,1/2+z
-x,1/2-y,1/2+z
x,1/2-y,1/2-z
-x,1/2+y,1/2-z
-x,1/2-y,1/2-z
x,1/2+y,1/2-z
-x,1/2+y,1/2+z
x,1/2-y,1/2+z
1/2+x,y,1/2+z
1/2-x,-y,1/2+z
1/2+x,-y,1/2-z
1/2-x,y,1/2-z
1/2-x,-y,1/2-z
1/2+x,y,1/2-z
1/2-x,y,1/2+z
1/2+x,-y,1/2+z
1/2+x,1/2+y,z
1/2-x,1/2-y,z
1/2+x,1/2-y,-z
1/2-x,1/2+y,-z
1/2-x,1/2-y,-z
1/2+x,1/2+y,-z
1/2-x,1/2+y,z
1/2+x,1/2-y,z
loop_
_atom_site_type_symbol
_atom_site_label
_atom_site_fract_x
_atom_site_fract_y
_atom_site_fract_z
Si Si1 0.411915 0.699969 0.730893
Si Si2 0.912414 0.318485 0.601656
Si Si3 0.185608 0.905133 0.082490
Si Si4 0.660015 0.253827 0.500000
Si Si5 0.840458 0.949695 0.233326
Si Si6 0.648998 0.378872 0.356641
Si Si7 0.583320 0.651213 0.500000
O O1 0.500000 0.701775 0.703782
O O2 0.386534 0.750000 0.750000
O O3 0.411326 0.678094 0.810760
O O4 0.360193 0.670639 0.678055
O O5 0.865392 0.361030 0.576112
O O6 0.875180 0.273258 0.569239
O O7 0.000000 0.319179 0.579759
O O8 0.151868 0.935406 0.148219
O O9 0.267694 0.889684 0.112680
O O10 0.192450 0.924940 0.000000
O O11 0.750000 0.250000 0.500000
O O12 0.638724 0.306040 0.500000
O O13 0.750000 0.950235 0.250000
O O14 0.871505 0.913775 0.292046
O O15 0.869634 0.000000 0.245108
O O16 0.596243 0.378143 0.427742
O O17 0.500000 0.671060 0.500000
#
# Coordination Sequence:
#
# PCOD9513067 Si02
#       7
#    32  32  32  16  32  32  16
#     4  10  21  37  58  84 119 167 219 256 301 372
#     4  11  22  37  58  85 118 165 207 254 313 370
#     4  11  21  38  63  91 125 158 209 263 318 385
#     4  12  24  40  58  89 132 169 222 267 314 364
#     4   9  20  39  66  95 124 161 206 263 328 384
#     4  11  21  40  62  90 129 166 212 267 316 374
#     4  12  24  38  61  92 130 177 213 255 314 381
#
# _framework density 19.996409
#
# number of rings (size 3 to 8) (size 9 to 14) (size 15 to 20)
#    0.000    1.333    3.333    3.250    0.000    1.667 
#    0.000    1.250    0.000    5.000    0.000    1.167 
#    0.000    0.000    0.000    0.000    0.000    0.000 
#
# Total GULP energy -267885.386199 kJ/mol
# GULP energy per Si atom -5580.945546 kJ/mol
# Density = 1.995090 g / cm^3
# Si number density = 19.996409 Si / 1000 Ang^3
#
#
#
# Elastic Constant Matrix: (Units=GPa)
#
#
# Indices 1 2 3 4 5 6 
#
# 1 61.0041 13.0647 23.1890 0.0000 0.0000 0.0000
# 2 13.0647 104.0366 50.9818 0.0000 0.0000 0.0000
# 3 23.1890 50.9818 159.3814 0.0000 0.0000 0.0000
# 4 0.0000 0.0000 0.0000 19.1077 0.0000 0.0000
# 5 0.0000 0.0000 0.0000 0.0000 -7.8195 0.0000
# 6 0.0000 0.0000 0.0000 0.0000 0.0000 -8.0123
#
#
#
# Elastic Compliance Matrix: (Units=1/GPa)
#
#
# Indices 1 2 3 4 5 6 
#
# 1 0.017462 -0.001124 -0.002181 0.000000 0.000000 0.000000
# 2 -0.001124 0.011471 -0.003506 0.000000 0.000000 0.000000
# 3 -0.002181 -0.003506 0.007713 0.000000 0.000000 0.000000
# 4 0.000000 0.000000 0.000000 0.052335 0.000000 0.000000
# 5 0.000000 0.000000 0.000000 0.000000 -0.127886 0.000000
# 6 0.000000 0.000000 0.000000 0.000000 0.000000 -0.124809
#
#
# Mechanical properties :
#
#
# Convention : Reuss Voigt Hill
#
# Bulk Modulus (GPa) = 43.43202 55.43256 49.43229
# Shear Modulus (GPa) = -35.10826 16.46762 -9.32032
#
# Velocity S-wave (km/s) = -4.19469 2.87283 -2.16128
# Velocity P-wave (km/s) = 1.30133 6.22781 4.30652
#
# Compressibility (1/GPa) = 0.02302449
#
# Stress axis : x y z
#
# Youngs Moduli (GPa) = 57.26669 87.17552 129.65139
#
# Poissons Ratio (x) = 0.09799 0.28278
# Poissons Ratio (y) = 0.06437 0.45453
# Poissons Ratio (z) = 0.12490 0.30562
#
# Static dielectric constant tensor:
#      x y z
#    x 1.688840 0.000000 0.000000 
#    y 0.000000 1.707050 0.000000 
#    z 0.000000 0.000000 1.775560 
# 
# From -- ./inp_files/23671.got.cif
#   From: 2010.05.17/outbox.cif.g08.bks.cpg/sg69_12_cif.got.tgz:23671.got - 2010.06.03 19:29:58.
