data_PCOD9513996
_publ_section_title
;
Structure prediction by ZEFSAII (Michael W. Deem and Ramdas Pophale) SiO2 
 PCOD9513996
Probable space group: F M M M
;
_chemical_formula_sum "Si O2"
_cell_formula_units_Z 42
_cell_length_a 30.000000
_cell_length_b 15.000000
_cell_length_c 21.000000
_cell_angle_alpha 90.000000
_cell_angle_beta 90.000000
_cell_angle_gamma 90.000000
_cell_volume 9450.000000
_symmetry_space_group_name_H-M "F M M M"
_symmetry_group_IT_number 69
_symmetry_cell_setting 'orthorhombic'
loop_
_space_group_symop_operation_xyz
x,y,z
-x,-y,z
x,-y,-z
-x,y,-z
-x,-y,-z
x,y,-z
-x,y,z
x,-y,z
x,1/2+y,1/2+z
-x,1/2-y,1/2+z
x,1/2-y,1/2-z
-x,1/2+y,1/2-z
-x,1/2-y,1/2-z
x,1/2+y,1/2-z
-x,1/2+y,1/2+z
x,1/2-y,1/2+z
1/2+x,y,1/2+z
1/2-x,-y,1/2+z
1/2+x,-y,1/2-z
1/2-x,y,1/2-z
1/2-x,-y,1/2-z
1/2+x,y,1/2-z
1/2-x,y,1/2+z
1/2+x,-y,1/2+z
1/2+x,1/2+y,z
1/2-x,1/2-y,z
1/2+x,1/2-y,-z
1/2-x,1/2+y,-z
1/2-x,1/2-y,-z
1/2+x,1/2+y,-z
1/2-x,1/2+y,z
1/2+x,1/2-y,z
loop_
_atom_site_type_symbol
_atom_site_label
_atom_site_fract_x
_atom_site_fract_y
_atom_site_fract_z
Si Si1 0.500000 0.312648 0.575589
Si Si2 0.000000 0.000000 0.645831
Si Si3 0.098335 0.252971 0.574594
Si Si4 0.327705 0.393371 0.572932
Si Si5 0.204102 0.892307 0.714849
Si Si6 0.884887 0.665941 0.708299
Si Si7 0.551115 0.000000 0.269204
O O1 0.500000 0.324912 0.500000
O O2 0.500000 0.409463 0.606944
O O3 0.453782 0.262263 0.590727
O O4 0.042291 0.000000 0.693342
O O5 0.101667 0.285309 0.500000
O O6 0.125817 0.160221 0.576063
O O7 0.118936 0.309541 0.633226
O O8 0.309345 0.374432 0.500000
O O9 0.334101 0.500000 0.575802
O O10 0.301403 0.367966 0.638988
O O11 0.250000 0.863230 0.750000
O O12 0.161722 0.859578 0.756594
O O13 0.203461 0.000000 0.716401
O O14 0.901753 0.750000 0.750000
O O15 0.920123 0.585975 0.713241
O O16 0.500000 0.000000 0.295729
#
# Coordination Sequence:
#
# PCOD9513996 Si02
#       7
#    16   8  32  32  32  32  16
#     4  10  21  33  52  82 121 158 196 241 307 372
#     4  10  21  32  52  86 121 148 190 252 296 364
#     4  10  22  37  55  84 118 159 203 251 299 357
#     4   9  18  34  58  85 119 155 192 243 313 372
#     4  10  21  38  62  91 123 157 201 253 306 364
#     4  12  22  40  64  86 120 164 200 254 303 358
#     4  10  26  39  58  91 122 153 207 251 299 359
#
# _framework density 4.4444439999999998
#
# number of rings (size 3 to 8) (size 9 to 14) (size 15 to 20)
#    0.286    1.524    2.857    1.286    2.667    0.762 
#    0.000    1.429    0.000    4.000    0.000    0.000 
#    0.000    0.000    0.000    0.000    0.000    0.000 
#
# Total GULP energy -233967.664285 kJ/mol
# GULP energy per Si atom -5570.658673 kJ/mol
# Density = 0.443433 g / cm^3
# Si number density = 4.444444 Si / 1000 Ang^3
#
#
#
# Elastic Constant Matrix: (Units=GPa)
#
#
# Indices 1 2 3 4 5 6 
#
# 1 104.3483 33.6039 62.8097 0.0000 0.0000 0.0000
# 2 33.6039 65.1363 32.1731 0.0000 0.0000 0.0000
# 3 62.8097 32.1731 154.3789 0.0000 0.0000 0.0000
# 4 0.0000 0.0000 0.0000 35.9453 0.0000 0.0000
# 5 0.0000 0.0000 0.0000 0.0000 33.8289 0.0000
# 6 0.0000 0.0000 0.0000 0.0000 0.0000 10.3052
#
#
#
# Elastic Compliance Matrix: (Units=1/GPa)
#
#
# Indices 1 2 3 4 5 6 
#
# 1 0.013968 -0.004904 -0.004661 0.000000 0.000000 0.000000
# 2 -0.004904 0.018836 -0.001930 0.000000 0.000000 0.000000
# 3 -0.004661 -0.001930 0.008776 0.000000 0.000000 0.000000
# 4 0.000000 0.000000 0.000000 0.027820 0.000000 0.000000
# 5 0.000000 0.000000 0.000000 0.000000 0.029561 0.000000
# 6 0.000000 0.000000 0.000000 0.000000 0.000000 0.097039
#
#
# Mechanical properties :
#
#
# Convention : Reuss Voigt Hill
#
# Bulk Modulus (GPa) = 53.79319 64.55965 59.17642
# Shear Modulus (GPa) = 22.20384 29.03435 25.61909
#
# Velocity S-wave (km/s) = 3.53791 4.04565 3.80027
# Velocity P-wave (km/s) = 6.85663 7.62999 7.25362
#
# Compressibility (1/GPa) = 0.01858971
#
# Stress axis : x y z
#
# Youngs Moduli (GPa) = 71.59182 53.09047 113.94489
#
# Poissons Ratio (x) = 0.26035 0.53109
# Poissons Ratio (y) = 0.35108 0.21994
# Poissons Ratio (z) = 0.33369 0.10248
#
# Static dielectric constant tensor:
#      x y z
#    x 1.616200 0.000000 0.000000 
#    y 0.000000 1.606530 0.000000 
#    z 0.000000 0.000000 1.636470 
# 
# From -- ./inp_files/33925.got.cif
#   From: 2010.05.17/outbox.ucp.g08.bks.cvg/sg69_17_cif.got.tgz:33925.got - 2010.06.11 16:51:34.
