data_PCOD9513940
_publ_section_title
;
Structure prediction by ZEFSAII (Michael W. Deem and Ramdas Pophale) SiO2 
 PCOD9513940
Probable space group: F M M M
;
_chemical_formula_sum "Si O2"
_cell_formula_units_Z 112
_cell_length_a 14.644883
_cell_length_b 14.462885
_cell_length_c 25.856843
_cell_angle_alpha 90.000000
_cell_angle_beta 90.000000
_cell_angle_gamma 90.000000
_cell_volume 5476.667034
_symmetry_space_group_name_H-M "F M M M"
_symmetry_group_IT_number 69
_symmetry_cell_setting 'orthorhombic'
loop_
_space_group_symop_operation_xyz
x,y,z
-x,-y,z
x,-y,-z
-x,y,-z
-x,-y,-z
x,y,-z
-x,y,z
x,-y,z
x,1/2+y,1/2+z
-x,1/2-y,1/2+z
x,1/2-y,1/2-z
-x,1/2+y,1/2-z
-x,1/2-y,1/2-z
x,1/2+y,1/2-z
-x,1/2+y,1/2+z
x,1/2-y,1/2+z
1/2+x,y,1/2+z
1/2-x,-y,1/2+z
1/2+x,-y,1/2-z
1/2-x,y,1/2-z
1/2-x,-y,1/2-z
1/2+x,y,1/2-z
1/2-x,y,1/2+z
1/2+x,-y,1/2+z
1/2+x,1/2+y,z
1/2-x,1/2-y,z
1/2+x,1/2-y,-z
1/2-x,1/2+y,-z
1/2-x,1/2-y,-z
1/2+x,1/2+y,-z
1/2-x,1/2+y,z
1/2+x,1/2-y,z
loop_
_atom_site_type_symbol
_atom_site_label
_atom_site_fract_x
_atom_site_fract_y
_atom_site_fract_z
Si Si1 0.746356 0.862917 0.833689
Si Si2 0.500000 0.894340 0.562184
Si Si3 0.297185 0.150335 0.441852
Si Si4 0.103797 0.362390 0.251118
O O1 0.750000 0.750000 0.835250
O O2 0.749775 0.895990 0.892538
O O3 0.834436 0.890694 0.799890
O O4 0.658226 0.890078 0.800516
O O5 0.500000 0.899784 0.500000
O O6 0.404315 0.845081 0.574432
O O7 0.500000 0.000000 0.582262
O O8 0.292487 0.109050 0.500000
O O9 0.250000 0.250000 0.446013
O O10 0.103071 0.250000 0.250000
O O11 0.000000 0.393690 0.253831
#
# Coordination Sequence:
#
# PCOD9513940 Si02
#       4
#    32  16  32  32
#     4   8  14  23  34  56  85 116 150 191 240 288
#     4   9  18  32  50  72  98 131 169 201 236 291
#     4   9  17  29  44  67  99 127 154 199 251 291
#     4   8  13  21  34  52  80 116 151 192 235 279
#
# _framework density 20.450395
#
# number of rings (size 3 to 8) (size 9 to 14) (size 15 to 20)
#    0.000    3.571    0.000    1.714    2.000    0.000 
#    7.714    0.000    0.000    0.000    0.000    5.000 
#    0.000    8.000    0.000    0.000    0.000    0.000 
#
# Total GULP energy -155950.480028 kJ/mol
# GULP energy per Si atom -5569.660001 kJ/mol
# Density = 2.040385 g / cm^3
# Si number density = 20.450395 Si / 1000 Ang^3
#
#
#
# Elastic Constant Matrix: (Units=GPa)
#
#
# Indices 1 2 3 4 5 6 
#
# 1 165.5355 31.0746 61.6653 0.0000 0.0000 0.0000
# 2 31.0746 98.4757 -0.9014 0.0000 0.0000 0.0000
# 3 61.6653 -0.9014 187.3581 0.0000 0.0000 0.0000
# 4 0.0000 0.0000 0.0000 -26.4526 0.0000 0.0000
# 5 0.0000 0.0000 0.0000 0.0000 -1.7732 0.0000
# 6 0.0000 0.0000 0.0000 0.0000 0.0000 -22.2535
#
#
#
# Elastic Compliance Matrix: (Units=1/GPa)
#
#
# Indices 1 2 3 4 5 6 
#
# 1 0.007394 -0.002356 -0.002445 0.000000 0.000000 0.000000
# 2 -0.002356 0.010906 0.000828 0.000000 0.000000 0.000000
# 3 -0.002445 0.000828 0.006146 0.000000 0.000000 0.000000
# 4 0.000000 0.000000 0.000000 -0.037803 0.000000 0.000000
# 5 0.000000 0.000000 0.000000 0.000000 -0.563938 0.000000
# 6 0.000000 0.000000 0.000000 0.000000 0.000000 -0.044937
#
#
# Mechanical properties :
#
#
# Convention : Reuss Voigt Hill
#
# Bulk Modulus (GPa) = 60.60523 70.56071 65.58297
# Shear Modulus (GPa) = -8.21306 13.87285 2.82989
#
# Velocity S-wave (km/s) = -2.00619 2.60737 1.17762
# Velocity P-wave (km/s) = 4.93287 6.60627 5.82992
#
# Compressibility (1/GPa) = 0.01650023
#
# Stress axis : x y z
#
# Youngs Moduli (GPa) = 135.24515 91.69523 162.70603
#
# Poissons Ratio (x) = 0.21600 0.39780
# Poissons Ratio (y) = 0.31858 -0.13468
# Poissons Ratio (z) = 0.33066 -0.07590
#
# Static dielectric constant tensor:
#      x y z
#    x 1.708370 0.000000 0.000000 
#    y 0.000000 1.722450 0.000000 
#    z 0.000000 0.000000 1.759160 
# 
# From -- ./inp_files/14291.got.cif
#   From: 2010.05.17/outbox.cif.g08.bks.cpg/sg69_8_cif.got.tgz:14291.got - 2010.06.03 19:29:58.
