data_PCOD9513653
_publ_section_title
;
Structure prediction by ZEFSAII (Michael W. Deem and Ramdas Pophale) SiO2 
 PCOD9513653
Probable space group: F M M M
;
_chemical_formula_sum "Si O2"
_cell_formula_units_Z 112
_cell_length_a 9.849951
_cell_length_b 23.347333
_cell_length_c 26.702276
_cell_angle_alpha 90.000000
_cell_angle_beta 90.000000
_cell_angle_gamma 90.000000
_cell_volume 6140.724709
_symmetry_space_group_name_H-M "F M M M"
_symmetry_group_IT_number 69
_symmetry_cell_setting 'orthorhombic'
loop_
_space_group_symop_operation_xyz
x,y,z
-x,-y,z
x,-y,-z
-x,y,-z
-x,-y,-z
x,y,-z
-x,y,z
x,-y,z
x,1/2+y,1/2+z
-x,1/2-y,1/2+z
x,1/2-y,1/2-z
-x,1/2+y,1/2-z
-x,1/2-y,1/2-z
x,1/2+y,1/2-z
-x,1/2+y,1/2+z
x,1/2-y,1/2+z
1/2+x,y,1/2+z
1/2-x,-y,1/2+z
1/2+x,-y,1/2-z
1/2-x,y,1/2-z
1/2-x,-y,1/2-z
1/2+x,y,1/2-z
1/2-x,y,1/2+z
1/2+x,-y,1/2+z
1/2+x,1/2+y,z
1/2-x,1/2-y,z
1/2+x,1/2-y,-z
1/2-x,1/2+y,-z
1/2-x,1/2-y,-z
1/2+x,1/2+y,-z
1/2-x,1/2+y,z
1/2+x,1/2-y,z
loop_
_atom_site_type_symbol
_atom_site_label
_atom_site_fract_x
_atom_site_fract_y
_atom_site_fract_z
Si Si1 0.774428 0.878343 0.395354
Si Si2 0.667482 0.806220 0.197995
Si Si3 0.000000 0.201505 0.441299
Si Si4 0.000000 0.332195 0.438995
Si Si5 0.661642 0.500000 0.442309
O O1 0.804189 0.859862 0.338327
O O2 0.872790 0.835233 0.424769
O O3 0.627723 0.862457 0.414870
O O4 0.801178 0.943154 0.411668
O O5 0.500000 0.798113 0.202532
O O6 0.750000 0.815360 0.250000
O O7 0.750000 0.750000 0.177002
O O8 0.000000 0.265914 0.421828
O O9 0.000000 0.206787 0.500000
O O10 0.000000 0.335336 0.500000
O O11 0.500000 0.500000 0.446955
O O12 0.716712 0.500000 0.500000
#
# Coordination Sequence:
#
# PCOD9513653 Si02
#       5
#    32  32  16  16  16
#     4  12  24  39  63  91 127 169 214 261 318 374
#     4  11  23  40  66  97 128 164 211 266 329 390
#     4  11  20  37  60  90 123 161 205 254 322 388
#     4  11  24  37  58  92 131 163 203 268 328 388
#     4  11  22  41  66  89 123 174 224 261 301 376
#
# _framework density 18.238889
#
# number of rings (size 3 to 8) (size 9 to 14) (size 15 to 20)
#    0.000    0.714    2.857    6.857    4.000    2.857 
#    0.000    2.143    0.000    0.000    0.000    0.000 
#    0.000    0.000    0.000    0.000    0.000    0.000 
#
# Total GULP energy -156156.842924 kJ/mol
# GULP energy per Si atom -5577.030104 kJ/mol
# Density = 1.819738 g / cm^3
# Si number density = 18.238889 Si / 1000 Ang^3
#
#
#
# Elastic Constant Matrix: (Units=GPa)
#
#
# Indices 1 2 3 4 5 6 
#
# 1 182.6695 58.2936 42.8196 0.0000 0.0000 0.0000
# 2 58.2936 170.5309 66.8674 0.0000 0.0000 0.0000
# 3 42.8196 66.8674 95.3875 0.0000 0.0000 0.0000
# 4 0.0000 0.0000 0.0000 94.3128 0.0000 0.0000
# 5 0.0000 0.0000 0.0000 0.0000 35.2234 0.0000
# 6 0.0000 0.0000 0.0000 0.0000 0.0000 45.6297
#
#
#
# Elastic Compliance Matrix: (Units=1/GPa)
#
#
# Indices 1 2 3 4 5 6 
#
# 1 0.006370 -0.001457 -0.001838 0.000000 0.000000 0.000000
# 2 -0.001457 0.008420 -0.005249 0.000000 0.000000 0.000000
# 3 -0.001838 -0.005249 0.014988 0.000000 0.000000 0.000000
# 4 0.000000 0.000000 0.000000 0.010603 0.000000 0.000000
# 5 0.000000 0.000000 0.000000 0.000000 0.028390 0.000000
# 6 0.000000 0.000000 0.000000 0.000000 0.000000 0.021916
#
#
# Mechanical properties :
#
#
# Convention : Reuss Voigt Hill
#
# Bulk Modulus (GPa) = 78.79655 87.17211 82.98433
# Shear Modulus (GPa) = 44.64093 53.74034 49.19063
#
# Velocity S-wave (km/s) = 4.95266 5.43403 5.19892
# Velocity P-wave (km/s) = 8.71788 9.34184 9.03525
#
# Compressibility (1/GPa) = 0.01269091
#
# Stress axis : x y z
#
# Youngs Moduli (GPa) = 156.98159 118.76446 66.71938
#
# Poissons Ratio (x) = 0.17300 0.12266
# Poissons Ratio (y) = 0.22867 0.35018
# Poissons Ratio (z) = 0.28860 0.62335
#
# Static dielectric constant tensor:
#      x y z
#    x 1.599760 0.000000 0.000000 
#    y 0.000000 1.600820 0.000000 
#    z 0.000000 0.000000 1.689890 
# 
# From -- ./inp_files/4494.got.cif
#   From: 2010.05.17/outbox.cif.g08.bks.cpg/sg69_3_cif.got.tgz:4494.got - 2010.06.03 19:29:58.
