data_PCOD9513638
_publ_section_title
;
Structure prediction by ZEFSAII (Michael W. Deem and Ramdas Pophale) SiO2 
 PCOD9513638
Probable space group: F M M M
;
_chemical_formula_sum "Si O2"
_cell_formula_units_Z 176
_cell_length_a 16.795919
_cell_length_b 30.145761
_cell_length_c 16.796500
_cell_angle_alpha 90.000000
_cell_angle_beta 90.000000
_cell_angle_gamma 90.000000
_cell_volume 8504.500627
_symmetry_space_group_name_H-M "F M M M"
_symmetry_group_IT_number 69
_symmetry_cell_setting 'orthorhombic'
loop_
_space_group_symop_operation_xyz
x,y,z
-x,-y,z
x,-y,-z
-x,y,-z
-x,-y,-z
x,y,-z
-x,y,z
x,-y,z
x,1/2+y,1/2+z
-x,1/2-y,1/2+z
x,1/2-y,1/2-z
-x,1/2+y,1/2-z
-x,1/2-y,1/2-z
x,1/2+y,1/2-z
-x,1/2+y,1/2+z
x,1/2-y,1/2+z
1/2+x,y,1/2+z
1/2-x,-y,1/2+z
1/2+x,-y,1/2-z
1/2-x,y,1/2-z
1/2-x,-y,1/2-z
1/2+x,y,1/2-z
1/2-x,y,1/2+z
1/2+x,-y,1/2+z
1/2+x,1/2+y,z
1/2-x,1/2-y,z
1/2+x,1/2-y,-z
1/2-x,1/2+y,-z
1/2-x,1/2-y,-z
1/2+x,1/2+y,-z
1/2-x,1/2+y,z
1/2+x,1/2-y,z
loop_
_atom_site_type_symbol
_atom_site_label
_atom_site_fract_x
_atom_site_fract_y
_atom_site_fract_z
Si Si1 0.140754 0.412033 0.326186
Si Si2 0.328841 0.276015 0.404569
Si Si3 0.404997 0.447778 0.652061
Si Si4 0.500000 0.746088 0.907116
Si Si5 0.789455 0.378521 0.910673
Si Si6 0.500000 0.640239 0.907611
Si Si7 0.909255 0.000000 0.906097
O O1 0.118312 0.427801 0.238195
O O2 0.225524 0.390913 0.343930
O O3 0.075723 0.378807 0.361803
O O4 0.135232 0.456724 0.377415
O O5 0.331115 0.266176 0.500000
O O6 0.250000 0.250000 0.373969
O O7 0.415402 0.261787 0.371700
O O8 0.319533 0.328749 0.395619
O O9 0.500000 0.445204 0.641683
O O10 0.382288 0.500000 0.647211
O O11 0.358101 0.415505 0.592923
O O12 0.500000 0.693039 0.907276
O O13 0.500000 0.761577 0.000000
O O14 0.753032 0.378708 0.000000
O O15 0.500000 0.624786 0.000000
O O16 0.000000 0.000000 0.872143
O O17 0.915123 0.000000 0.000000
#
# Coordination Sequence:
#
# PCOD9513638 Si02
#       7
#    32  32  32  16  32  16  16
#     4  12  22  39  61  90 130 164 206 257 319 389
#     4   9  18  36  60  91 129 163 206 264 326 388
#     4  11  25  46  65  86 124 176 221 258 315 384
#     4   9  18  32  58  88 123 168 205 253 323 388
#     4  11  25  40  65  98 126 163 217 271 315 369
#     4  11  20  33  61  99 130 158 202 260 324 385
#     4  11  20  32  55  88 126 164 201 257 314 374
#
# _framework density 20.694925000000001
#
# number of rings (size 3 to 8) (size 9 to 14) (size 15 to 20)
#    0.000    1.364    2.727    3.273    2.545    4.364 
#    0.000    0.909    0.000    8.727    0.000    0.000 
#    0.000    0.000    0.000    0.000    0.000    0.000 
#
# Total GULP energy -245782.759129 kJ/mol
# GULP energy per Si atom -5585.971798 kJ/mol
# Density = 2.064782 g / cm^3
# Si number density = 20.694925 Si / 1000 Ang^3
#
#
#
# Elastic Constant Matrix: (Units=GPa)
#
#
# Indices 1 2 3 4 5 6 
#
# 1 141.0345 61.8080 11.9816 0.0000 0.0000 0.0000
# 2 61.8080 85.4854 18.1675 0.0000 0.0000 0.0000
# 3 11.9816 18.1675 39.0962 0.0000 0.0000 0.0000
# 4 0.0000 0.0000 0.0000 26.3706 0.0000 0.0000
# 5 0.0000 0.0000 0.0000 0.0000 22.5290 0.0000
# 6 0.0000 0.0000 0.0000 0.0000 0.0000 20.8493
#
#
#
# Elastic Compliance Matrix: (Units=1/GPa)
#
#
# Indices 1 2 3 4 5 6 
#
# 1 0.010383 -0.007580 0.000340 0.000000 0.000000 0.000000
# 2 -0.007580 0.018513 -0.006280 0.000000 0.000000 0.000000
# 3 0.000340 -0.006280 0.028392 0.000000 0.000000 0.000000
# 4 0.000000 0.000000 0.000000 0.037921 0.000000 0.000000
# 5 0.000000 0.000000 0.000000 0.000000 0.044387 0.000000
# 6 0.000000 0.000000 0.000000 0.000000 0.000000 0.047963
#
#
# Mechanical properties :
#
#
# Convention : Reuss Voigt Hill
#
# Bulk Modulus (GPa) = 33.05872 49.94781 41.50326
# Shear Modulus (GPa) = 22.25375 25.52705 23.89040
#
# Velocity S-wave (km/s) = 3.28277 3.51592 3.40135
# Velocity P-wave (km/s) = 5.51160 6.37730 5.96019
#
# Compressibility (1/GPa) = 0.03024921
#
# Stress axis : x y z
#
# Youngs Moduli (GPa) = 96.30807 54.01676 35.22140
#
# Poissons Ratio (x) = 0.40943 -0.01198
# Poissons Ratio (y) = 0.72998 0.22118
# Poissons Ratio (z) = -0.03275 0.33921
#
# Static dielectric constant tensor:
#      x y z
#    x 1.788330 0.000000 0.000000 
#    y 0.000000 1.691480 0.000000 
#    z 0.000000 0.000000 1.748730 
# 
# From -- ./inp_files/23639.got.cif
#   From: 2010.05.17/outbox.cif.g08.bks.cpg/sg69_12_cif.got.tgz:23639.got - 2010.06.03 19:29:58.
