data_PCOD9513870
_publ_section_title
;
Structure prediction by ZEFSAII (Michael W. Deem and Ramdas Pophale) SiO2 
 PCOD9513870
Probable space group: F M M M
;
_chemical_formula_sum "Si O2"
_cell_formula_units_Z 160
_cell_length_a 19.041151
_cell_length_b 30.214444
_cell_length_c 14.904272
_cell_angle_alpha 90.000000
_cell_angle_beta 90.000000
_cell_angle_gamma 90.000000
_cell_volume 8574.692837
_symmetry_space_group_name_H-M "F M M M"
_symmetry_group_IT_number 69
_symmetry_cell_setting 'orthorhombic'
loop_
_space_group_symop_operation_xyz
x,y,z
-x,-y,z
x,-y,-z
-x,y,-z
-x,-y,-z
x,y,-z
-x,y,z
x,-y,z
x,1/2+y,1/2+z
-x,1/2-y,1/2+z
x,1/2-y,1/2-z
-x,1/2+y,1/2-z
-x,1/2-y,1/2-z
x,1/2+y,1/2-z
-x,1/2+y,1/2+z
x,1/2-y,1/2+z
1/2+x,y,1/2+z
1/2-x,-y,1/2+z
1/2+x,-y,1/2-z
1/2-x,y,1/2-z
1/2-x,-y,1/2-z
1/2+x,y,1/2-z
1/2-x,y,1/2+z
1/2+x,-y,1/2+z
1/2+x,1/2+y,z
1/2-x,1/2-y,z
1/2+x,1/2-y,-z
1/2-x,1/2+y,-z
1/2-x,1/2-y,-z
1/2+x,1/2+y,-z
1/2-x,1/2+y,z
1/2+x,1/2-y,z
loop_
_atom_site_type_symbol
_atom_site_label
_atom_site_fract_x
_atom_site_fract_y
_atom_site_fract_z
Si Si1 0.834706 0.178479 0.754457
Si Si2 0.190411 0.946076 0.500000
Si Si3 0.076449 0.051737 0.363270
Si Si4 0.081270 0.093638 0.178975
Si Si5 0.852243 0.053719 0.000000
Si Si6 0.165096 0.245642 0.602659
O O1 0.750000 0.172590 0.750000
O O2 0.874040 0.133909 0.780356
O O3 0.853635 0.201709 0.659559
O O4 0.854382 0.213254 0.833433
O O5 0.144066 0.930649 0.584565
O O6 0.270560 0.931809 0.500000
O O7 0.194394 0.000000 0.500000
O O8 0.083700 0.057233 0.257494
O O9 0.000000 0.071307 0.388710
O O10 0.073586 0.000000 0.386103
O O11 0.112069 0.073900 0.088093
O O12 0.000000 0.106655 0.165818
O O13 0.857231 0.000000 0.000000
O O14 0.139135 0.246538 0.500000
O O15 0.250000 0.250000 0.598843
#
# Coordination Sequence:
#
# PCOD9513870 Si02
#       6
#    32  16  32  32  16  32
#     4   9  19  34  57  87 114 146 192 239 286 343
#     4   9  19  35  57  85 110 139 191 246 288 343
#     4   9  18  35  58  81 112 154 191 232 293 352
#     4  11  24  39  56  82 116 155 199 245 290 349
#     4  11  25  41  59  83 115 158 205 253 297 343
#     4   8  15  33  58  84 115 151 185 227 288 353
#
# _framework density 18.659559999999999
#
# number of rings (size 3 to 8) (size 9 to 14) (size 15 to 20)
#    0.000    2.600    0.000    2.400    4.200    2.800 
#    1.800    5.000    0.000    1.200    0.000    0.000 
#    0.000    0.000    0.000    0.000    0.000    0.000 
#
# Total GULP energy -222813.410313 kJ/mol
# GULP energy per Si atom -5570.335258 kJ/mol
# Density = 1.861709 g / cm^3
# Si number density = 18.659560 Si / 1000 Ang^3
#
#
#
# Elastic Constant Matrix: (Units=GPa)
#
#
# Indices 1 2 3 4 5 6 
#
# 1 108.2099 34.7043 62.1125 0.0000 0.0000 0.0000
# 2 34.7043 61.3416 31.4342 0.0000 0.0000 0.0000
# 3 62.1125 31.4342 159.7824 0.0000 0.0000 0.0000
# 4 0.0000 0.0000 0.0000 17.6051 0.0000 0.0000
# 5 0.0000 0.0000 0.0000 0.0000 68.3476 0.0000
# 6 0.0000 0.0000 0.0000 0.0000 0.0000 9.8818
#
#
#
# Elastic Compliance Matrix: (Units=1/GPa)
#
#
# Indices 1 2 3 4 5 6 
#
# 1 0.013351 -0.005443 -0.004119 0.000000 0.000000 0.000000
# 2 -0.005443 0.020349 -0.001887 0.000000 0.000000 0.000000
# 3 -0.004119 -0.001887 0.008231 0.000000 0.000000 0.000000
# 4 0.000000 0.000000 0.000000 0.056802 0.000000 0.000000
# 5 0.000000 0.000000 0.000000 0.000000 0.014631 0.000000
# 6 0.000000 0.000000 0.000000 0.000000 0.000000 0.101196
#
#
# Mechanical properties :
#
#
# Convention : Reuss Voigt Hill
#
# Bulk Modulus (GPa) = 52.54268 65.09286 58.81777
# Shear Modulus (GPa) = 20.50834 32.57241 26.54038
#
# Velocity S-wave (km/s) = 3.31883 4.18259 3.77549
# Velocity P-wave (km/s) = 6.55026 7.63450 7.11307
#
# Compressibility (1/GPa) = 0.01903215
#
# Stress axis : x y z
#
# Youngs Moduli (GPa) = 74.89886 49.14347 121.48950
#
# Poissons Ratio (x) = 0.26747 0.50046
# Poissons Ratio (y) = 0.40765 0.22931
# Poissons Ratio (z) = 0.30853 0.09276
#
# Static dielectric constant tensor:
#      x y z
#    x 1.652020 0.000000 0.000000 
#    y 0.000000 1.651300 0.000000 
#    z 0.000000 0.000000 1.649850 
# 
# From -- ./inp_files/15669.got.cif
#   From: 2010.05.17/outbox.cif.g08.bks.cpg/sg69_8_cif.got.tgz:15669.got - 2010.06.03 19:29:58.
