data_PCOD9513164
_publ_section_title
;
Structure prediction by ZEFSAII (Michael W. Deem and Ramdas Pophale) SiO2 
 PCOD9513164
Probable space group: F M M M
;
_chemical_formula_sum "Si O2"
_cell_formula_units_Z 160
_cell_length_a 18.474363
_cell_length_b 16.413213
_cell_length_c 27.380770
_cell_angle_alpha 90.000000
_cell_angle_beta 90.000000
_cell_angle_gamma 90.000000
_cell_volume 8302.497155
_symmetry_space_group_name_H-M "F M M M"
_symmetry_group_IT_number 69
_symmetry_cell_setting 'orthorhombic'
loop_
_space_group_symop_operation_xyz
x,y,z
-x,-y,z
x,-y,-z
-x,y,-z
-x,-y,-z
x,y,-z
-x,y,z
x,-y,z
x,1/2+y,1/2+z
-x,1/2-y,1/2+z
x,1/2-y,1/2-z
-x,1/2+y,1/2-z
-x,1/2-y,1/2-z
x,1/2+y,1/2-z
-x,1/2+y,1/2+z
x,1/2-y,1/2+z
1/2+x,y,1/2+z
1/2-x,-y,1/2+z
1/2+x,-y,1/2-z
1/2-x,y,1/2-z
1/2-x,-y,1/2-z
1/2+x,y,1/2-z
1/2-x,y,1/2+z
1/2+x,-y,1/2+z
1/2+x,1/2+y,z
1/2-x,1/2-y,z
1/2+x,1/2-y,-z
1/2-x,1/2+y,-z
1/2-x,1/2-y,-z
1/2+x,1/2+y,-z
1/2-x,1/2+y,z
1/2+x,1/2-y,z
loop_
_atom_site_type_symbol
_atom_site_label
_atom_site_fract_x
_atom_site_fract_y
_atom_site_fract_z
Si Si1 0.257839 0.097571 0.444402
Si Si2 0.079664 0.406110 0.576095
Si Si3 0.582014 0.827448 0.325668
Si Si4 0.316959 0.692030 0.643298
Si Si5 0.665098 0.591743 0.738403
O O1 0.232671 0.108436 0.500000
O O2 0.342393 0.125340 0.441850
O O3 0.210853 0.147925 0.405548
O O4 0.256265 0.000000 0.432927
O O5 0.077854 0.500000 0.560391
O O6 0.083948 0.400261 0.634944
O O7 0.000000 0.370190 0.562707
O O8 0.500000 0.810020 0.311797
O O9 0.615800 0.753361 0.356573
O O10 0.626717 0.850508 0.277792
O O11 0.250000 0.750000 0.659743
O O12 0.337632 0.626328 0.684018
O O13 0.635482 0.500000 0.742203
O O14 0.750000 0.589283 0.750000
#
# Coordination Sequence:
#
# PCOD9513164 Si02
#       5
#    32  32  32  32  32
#     4  10  21  38  61  88 116 153 205 255 300 357
#     4   9  17  32  54  83 122 160 193 237 297 361
#     4  11  23  38  58  87 122 158 196 245 299 355
#     4  12  22  37  58  86 118 157 198 247 301 349
#     4  11  22  36  58  85 117 158 201 236 280 351
#
# _framework density 19.27131
#
# number of rings (size 3 to 8) (size 9 to 14) (size 15 to 20)
#    0.000    1.400    4.000    1.800    0.000    6.800 
#    0.000    2.000    0.000    2.400    0.000    1.400 
#    0.000    0.000    0.000    0.000    0.000    0.000 
#
# Total GULP energy -223029.841256 kJ/mol
# GULP energy per Si atom -5575.746031 kJ/mol
# Density = 1.922745 g / cm^3
# Si number density = 19.271310 Si / 1000 Ang^3
#
#
#
# Elastic Constant Matrix: (Units=GPa)
#
#
# Indices 1 2 3 4 5 6 
#
# 1 105.6313 41.5916 55.0568 0.0000 0.0000 0.0000
# 2 41.5916 79.7498 49.6516 0.0000 0.0000 0.0000
# 3 55.0568 49.6516 123.9762 0.0000 0.0000 0.0000
# 4 0.0000 0.0000 0.0000 24.1821 0.0000 0.0000
# 5 0.0000 0.0000 0.0000 0.0000 16.6981 0.0000
# 6 0.0000 0.0000 0.0000 0.0000 0.0000 16.5312
#
#
#
# Elastic Compliance Matrix: (Units=1/GPa)
#
#
# Indices 1 2 3 4 5 6 
#
# 1 0.013369 -0.004364 -0.004189 0.000000 0.000000 0.000000
# 2 -0.004364 0.018129 -0.005323 0.000000 0.000000 0.000000
# 3 -0.004189 -0.005323 0.012058 0.000000 0.000000 0.000000
# 4 0.000000 0.000000 0.000000 0.041353 0.000000 0.000000
# 5 0.000000 0.000000 0.000000 0.000000 0.059887 0.000000
# 6 0.000000 0.000000 0.000000 0.000000 0.000000 0.060492
#
#
# Mechanical properties :
#
#
# Convention : Reuss Voigt Hill
#
# Bulk Modulus (GPa) = 63.27373 66.88414 65.07894
# Shear Modulus (GPa) = 20.98137 22.35276 21.66707
#
# Velocity S-wave (km/s) = 3.30318 3.40942 3.35672
# Velocity P-wave (km/s) = 6.88857 7.09090 6.99047
#
# Compressibility (1/GPa) = 0.01580435
#
# Stress axis : x y z
#
# Youngs Moduli (GPa) = 74.80204 55.16064 82.93203
#
# Poissons Ratio (x) = 0.24072 0.34742
# Poissons Ratio (y) = 0.32643 0.44141
# Poissons Ratio (z) = 0.31336 0.29359
#
# Static dielectric constant tensor:
#      x y z
#    x 1.702940 0.000000 0.000000 
#    y 0.000000 1.724100 0.000000 
#    z 0.000000 0.000000 1.697880 
# 
# From -- ./inp_files/23149.got.cif
#   From: 2010.05.17/outbox.cif.g08.bks.cpg/sg69_12_cif.got.tgz:23149.got - 2010.06.03 19:29:58.
