data_PCOD9513817
_publ_section_title
;
Structure prediction by ZEFSAII (Michael W. Deem and Ramdas Pophale) SiO2 
 PCOD9513817
Probable space group: F M M M
;
_chemical_formula_sum "Si O2"
_cell_formula_units_Z 136
_cell_length_a 19.435067
_cell_length_b 15.108842
_cell_length_c 23.570542
_cell_angle_alpha 90.000000
_cell_angle_beta 90.000000
_cell_angle_gamma 90.000000
_cell_volume 6921.285928
_symmetry_space_group_name_H-M "F M M M"
_symmetry_group_IT_number 69
_symmetry_cell_setting 'orthorhombic'
loop_
_space_group_symop_operation_xyz
x,y,z
-x,-y,z
x,-y,-z
-x,y,-z
-x,-y,-z
x,y,-z
-x,y,z
x,-y,z
x,1/2+y,1/2+z
-x,1/2-y,1/2+z
x,1/2-y,1/2-z
-x,1/2+y,1/2-z
-x,1/2-y,1/2-z
x,1/2+y,1/2-z
-x,1/2+y,1/2+z
x,1/2-y,1/2+z
1/2+x,y,1/2+z
1/2-x,-y,1/2+z
1/2+x,-y,1/2-z
1/2-x,y,1/2-z
1/2-x,-y,1/2-z
1/2+x,y,1/2-z
1/2-x,y,1/2+z
1/2+x,-y,1/2+z
1/2+x,1/2+y,z
1/2-x,1/2-y,z
1/2+x,1/2-y,-z
1/2-x,1/2+y,-z
1/2-x,1/2-y,-z
1/2+x,1/2+y,-z
1/2-x,1/2+y,z
1/2+x,1/2-y,z
loop_
_atom_site_type_symbol
_atom_site_label
_atom_site_fract_x
_atom_site_fract_y
_atom_site_fract_z
Si Si1 0.624208 0.500000 0.000000
Si Si2 0.000000 0.500000 0.337771
Si Si3 0.000000 0.854795 0.741876
Si Si4 0.602261 0.399964 0.356096
Si Si5 0.653896 0.500000 0.124387
Si Si6 0.000000 0.364871 0.500000
Si Si7 0.500000 0.804356 0.935715
Si Si8 0.747839 0.143494 0.317633
O O1 0.668597 0.500000 0.057263
O O2 0.570368 0.418743 0.000000
O O3 0.000000 0.413226 0.297883
O O4 0.928827 0.500000 0.371464
O O5 0.000000 0.750000 0.750000
O O6 0.934152 0.880675 0.704058
O O7 0.585286 0.500000 0.372840
O O8 0.566257 0.335633 0.400903
O O9 0.682763 0.389857 0.347441
O O10 0.685839 0.413120 0.155003
O O11 0.000000 0.300356 0.445647
O O12 0.500000 0.841280 0.000000
O O13 0.750000 0.125547 0.250000
O O14 0.750000 0.250000 0.324714
#
# Coordination Sequence:
#
# PCOD9513817 Si02
#       8
#     8   8  16  32  16   8  16  32
#     4  11  26  46  68  94 138 177 234 282 342 403
#     4  12  24  41  70  98 127 180 228 290 346 396
#     4  11  24  36  63  99 136 171 230 277 341 409
#     4  11  22  42  63  96 140 177 220 289 338 411
#     4  12  27  47  70  99 137 181 233 287 346 410
#     4   9  22  46  67  98 132 176 223 296 332 415
#     4   9  22  40  71  97 130 173 230 282 345 394
#     4  11  26  44  68  99 140 184 229 280 354 421
#
# _framework density 19.649528
#
# number of rings (size 3 to 8) (size 9 to 14) (size 15 to 20)
#    0.353    0.824    2.353    3.529    9.882    2.824 
#    2.118    0.588    0.000    0.000    0.000    0.000 
#    0.000    0.000    0.000    0.000    0.000    0.000 
#
# Total GULP energy -189954.568937 kJ/mol
# GULP energy per Si atom -5586.899086 kJ/mol
# Density = 1.960480 g / cm^3
# Si number density = 19.649528 Si / 1000 Ang^3
#
#
#
# Elastic Constant Matrix: (Units=GPa)
#
#
# Indices 1 2 3 4 5 6 
#
# 1 107.6124 20.1807 25.2869 0.0000 0.0000 0.0000
# 2 20.1807 132.8717 35.1450 0.0000 0.0000 0.0000
# 3 25.2869 35.1450 112.5516 0.0000 0.0000 0.0000
# 4 0.0000 0.0000 0.0000 34.1802 0.0000 0.0000
# 5 0.0000 0.0000 0.0000 0.0000 7.1772 0.0000
# 6 0.0000 0.0000 0.0000 0.0000 0.0000 16.2689
#
#
#
# Elastic Compliance Matrix: (Units=1/GPa)
#
#
# Indices 1 2 3 4 5 6 
#
# 1 0.009931 -0.001001 -0.001919 0.000000 0.000000 0.000000
# 2 -0.001001 0.008304 -0.002368 0.000000 0.000000 0.000000
# 3 -0.001919 -0.002368 0.010055 0.000000 0.000000 0.000000
# 4 0.000000 0.000000 0.000000 0.029257 0.000000 0.000000
# 5 0.000000 0.000000 0.000000 0.000000 0.139329 0.000000
# 6 0.000000 0.000000 0.000000 0.000000 0.000000 0.061467
#
#
# Mechanical properties :
#
#
# Convention : Reuss Voigt Hill
#
# Bulk Modulus (GPa) = 56.44811 57.14010 56.79410
# Shear Modulus (GPa) = 18.19342 29.68681 23.94011
#
# Velocity S-wave (km/s) = 3.04615 3.89114 3.49428
# Velocity P-wave (km/s) = 6.41575 7.02358 6.72654
#
# Compressibility (1/GPa) = 0.01771539
#
# Stress axis : x y z
#
# Youngs Moduli (GPa) = 100.69319 120.41687 99.44911
#
# Poissons Ratio (x) = 0.12052 0.19081
# Poissons Ratio (y) = 0.10078 0.23552
# Poissons Ratio (z) = 0.19320 0.28518
#
# Static dielectric constant tensor:
#      x y z
#    x 1.674960 0.000000 0.000000 
#    y 0.000000 1.429770 0.000000 
#    z 0.000000 0.000000 1.685700 
# 
# From -- ./inp_files/37120.got.cif
#   From: 2010.05.17/outbox.cif.g08.bks.cpg/sg69_19_cif.got.tgz:37120.got - 2010.06.03 19:29:58.
