data_PCOD9513704
_publ_section_title
;
Structure prediction by ZEFSAII (Michael W. Deem and Ramdas Pophale) SiO2 
 PCOD9513704
Probable space group: F M M M
;
_chemical_formula_sum "Si O2"
_cell_formula_units_Z 192
_cell_length_a 19.977982
_cell_length_b 16.602262
_cell_length_c 30.305453
_cell_angle_alpha 90.000000
_cell_angle_beta 90.000000
_cell_angle_gamma 90.000000
_cell_volume 10051.703299
_symmetry_space_group_name_H-M "F M M M"
_symmetry_group_IT_number 69
_symmetry_cell_setting 'orthorhombic'
loop_
_space_group_symop_operation_xyz
x,y,z
-x,-y,z
x,-y,-z
-x,y,-z
-x,-y,-z
x,y,-z
-x,y,z
x,-y,z
x,1/2+y,1/2+z
-x,1/2-y,1/2+z
x,1/2-y,1/2-z
-x,1/2+y,1/2-z
-x,1/2-y,1/2-z
x,1/2+y,1/2-z
-x,1/2+y,1/2+z
x,1/2-y,1/2+z
1/2+x,y,1/2+z
1/2-x,-y,1/2+z
1/2+x,-y,1/2-z
1/2-x,y,1/2-z
1/2-x,-y,1/2-z
1/2+x,y,1/2-z
1/2-x,y,1/2+z
1/2+x,-y,1/2+z
1/2+x,1/2+y,z
1/2-x,1/2-y,z
1/2+x,1/2-y,-z
1/2-x,1/2+y,-z
1/2-x,1/2-y,-z
1/2+x,1/2+y,-z
1/2-x,1/2+y,z
1/2+x,1/2-y,z
loop_
_atom_site_type_symbol
_atom_site_label
_atom_site_fract_x
_atom_site_fract_y
_atom_site_fract_z
Si Si1 0.919335 0.768116 0.449928
Si Si2 0.421651 0.086828 0.568932
Si Si3 0.116555 0.366295 0.665506
Si Si4 0.000000 0.592010 0.170595
Si Si5 0.633353 0.180989 0.139249
Si Si6 0.500000 0.655900 0.765430
Si Si7 0.741309 0.908149 0.199871
O O1 0.912914 0.797606 0.500000
O O2 0.898077 0.673521 0.448629
O O3 0.874590 0.814888 0.413976
O O4 0.000000 0.771163 0.438087
O O5 0.500000 0.084650 0.557418
O O6 0.413842 0.094198 0.621725
O O7 0.392226 0.000000 0.554946
O O8 0.131966 0.273664 0.653811
O O9 0.184864 0.407561 0.679638
O O10 0.064129 0.363072 0.704994
O O11 0.065808 0.637509 0.154539
O O12 0.000000 0.500000 0.155876
O O13 0.000000 0.600064 0.223048
O O14 0.693666 0.139265 0.165854
O O15 0.500000 0.750000 0.750000
O O16 0.750000 0.874650 0.250000
O O17 0.715692 0.000000 0.204149
#
# Coordination Sequence:
#
# PCOD9513704 Si02
#       7
#    32  32  32  16  32  16  32
#     4   9  18  34  60  91 119 154 205 261 316 378
#     4   9  17  30  51  82 119 154 190 240 306 371
#     4  11  21  36  58  82 115 157 203 244 299 363
#     4  12  24  36  57  85 115 157 201 249 305 352
#     4  11  21  39  60  84 119 161 202 251 308 367
#     4  12  22  36  58  88 119 156 202 255 290 360
#     4  11  25  40  55  82 119 160 208 256 307 368
#
# _framework density 19.101240000000001
#
# number of rings (size 3 to 8) (size 9 to 14) (size 15 to 20)
#    0.000    1.500    3.333    2.500    0.000    3.667 
#    0.000    1.667    0.000   10.500    0.000    0.000 
#    0.000    0.000    0.000    0.000    0.000    0.000 
#
# Total GULP energy -267764.760174 kJ/mol
# GULP energy per Si atom -5578.432504 kJ/mol
# Density = 1.905776 g / cm^3
# Si number density = 19.101240 Si / 1000 Ang^3
#
#
#
# Elastic Constant Matrix: (Units=GPa)
#
#
# Indices 1 2 3 4 5 6 
#
# 1 81.5052 23.8558 39.2162 0.0000 0.0000 0.0000
# 2 23.8558 73.9486 28.1425 0.0000 0.0000 0.0000
# 3 39.2162 28.1425 137.8424 0.0000 0.0000 0.0000
# 4 0.0000 0.0000 0.0000 19.4719 0.0000 0.0000
# 5 0.0000 0.0000 0.0000 0.0000 -0.7296 0.0000
# 6 0.0000 0.0000 0.0000 0.0000 0.0000 33.8464
#
#
#
# Elastic Compliance Matrix: (Units=1/GPa)
#
#
# Indices 1 2 3 4 5 6 
#
# 1 0.015000 -0.003486 -0.003556 0.000000 0.000000 0.000000
# 2 -0.003486 0.015472 -0.002167 0.000000 0.000000 0.000000
# 3 -0.003556 -0.002167 0.008709 0.000000 0.000000 0.000000
# 4 0.000000 0.000000 0.000000 0.051356 0.000000 0.000000
# 5 0.000000 0.000000 0.000000 0.000000 -1.370566 0.000000
# 6 0.000000 0.000000 0.000000 0.000000 0.000000 0.029545
#
#
# Mechanical properties :
#
#
# Convention : Reuss Voigt Hill
#
# Bulk Modulus (GPa) = 48.16144 52.85837 50.50990
# Shear Modulus (GPa) = -4.08115 23.98985 9.95435
#
# Velocity S-wave (km/s) = -1.46329 3.54776 2.28532
# Velocity P-wave (km/s) = 4.73429 6.67195 5.78483
#
# Compressibility (1/GPa) = 0.02076350
#
# Stress axis : x y z
#
# Youngs Moduli (GPa) = 66.66511 64.63212 114.82666
#
# Poissons Ratio (x) = 0.22530 0.40831
# Poissons Ratio (y) = 0.23238 0.24885
# Poissons Ratio (z) = 0.23706 0.14007
#
# Static dielectric constant tensor:
#      x y z
#    x 1.664040 0.000000 0.000000 
#    y 0.000000 1.694320 0.000000 
#    z 0.000000 0.000000 1.696510 
# 
# From -- ./inp_files/27775.got.cif
#   From: 2010.05.17/outbox.cif.g08.bks.cpg/sg69_14_cif.got.tgz:27775.got - 2010.06.03 19:29:58.
