data_PCOD9513788
_publ_section_title
;
Structure prediction by ZEFSAII (Michael W. Deem and Ramdas Pophale) SiO2 
 PCOD9513788
Probable space group: F M M M
;
_chemical_formula_sum "Si O2"
_cell_formula_units_Z 168
_cell_length_a 20.701093
_cell_length_b 25.418348
_cell_length_c 14.778871
_cell_angle_alpha 90.000000
_cell_angle_beta 90.000000
_cell_angle_gamma 90.000000
_cell_volume 7776.458453
_symmetry_space_group_name_H-M "F M M M"
_symmetry_group_IT_number 69
_symmetry_cell_setting 'orthorhombic'
loop_
_space_group_symop_operation_xyz
x,y,z
-x,-y,z
x,-y,-z
-x,y,-z
-x,-y,-z
x,y,-z
-x,y,z
x,-y,z
x,1/2+y,1/2+z
-x,1/2-y,1/2+z
x,1/2-y,1/2-z
-x,1/2+y,1/2-z
-x,1/2-y,1/2-z
x,1/2+y,1/2-z
-x,1/2+y,1/2+z
x,1/2-y,1/2+z
1/2+x,y,1/2+z
1/2-x,-y,1/2+z
1/2+x,-y,1/2-z
1/2-x,y,1/2-z
1/2-x,-y,1/2-z
1/2+x,y,1/2-z
1/2-x,y,1/2+z
1/2+x,-y,1/2+z
1/2+x,1/2+y,z
1/2-x,1/2-y,z
1/2+x,1/2-y,-z
1/2-x,1/2+y,-z
1/2-x,1/2-y,-z
1/2+x,1/2+y,-z
1/2-x,1/2+y,z
1/2+x,1/2-y,z
loop_
_atom_site_type_symbol
_atom_site_label
_atom_site_fract_x
_atom_site_fract_y
_atom_site_fract_z
Si Si1 0.072424 0.836657 0.348435
Si Si2 0.500000 0.380634 0.000000
Si Si3 0.391753 0.644208 0.854010
Si Si4 0.324195 0.750055 0.360395
Si Si5 0.859572 0.941686 0.608250
Si Si6 0.712630 0.438017 0.109232
O O1 0.076977 0.836748 0.239702
O O2 0.128891 0.798443 0.384970
O O3 0.089743 0.896403 0.372455
O O4 0.000000 0.821521 0.377353
O O5 0.444061 0.378181 0.078435
O O6 0.357067 0.696178 0.891518
O O7 0.337313 0.599751 0.841057
O O8 0.322094 0.750000 0.250000
O O9 0.250000 0.750000 0.391159
O O10 0.855099 0.945859 0.500000
O O11 0.786605 0.927196 0.637421
O O12 0.875804 0.000000 0.644089
O O13 0.700366 0.500000 0.125029
O O14 0.706829 0.429258 0.000000
#
# Coordination Sequence:
#
# PCOD9513788 Si02
#       6
#    32   8  32  32  32  32
#     4  11  23  38  60  89 122 159 200 239 294 360
#     4  12  24  40  57  88 118 166 195 234 300 354
#     4  11  22  39  61  83 122 161 201 239 294 353
#     4   9  20  38  62  88 117 152 196 251 302 346
#     4   9  20  40  63  88 121 153 192 249 308 350
#     4   9  18  36  61  87 116 155 199 250 298 344
#
# _framework density 21.603663999999998
#
# number of rings (size 3 to 8) (size 9 to 14) (size 15 to 20)
#    0.000    2.095    1.905    2.286    1.333    4.952 
#    1.714    4.286    0.000    0.000    0.000    0.000 
#    0.000    0.000    0.000    0.000    0.000    0.000 
#
# Total GULP energy -234128.676683 kJ/mol
# GULP energy per Si atom -5574.492302 kJ/mol
# Density = 2.155449 g / cm^3
# Si number density = 21.603664 Si / 1000 Ang^3
#
#
#
# Elastic Constant Matrix: (Units=GPa)
#
#
# Indices 1 2 3 4 5 6 
#
# 1 146.6928 70.1827 15.1013 0.0000 0.0000 0.0000
# 2 70.1827 80.9222 -2.0556 0.0000 0.0000 0.0000
# 3 15.1013 -2.0556 48.1373 0.0000 0.0000 0.0000
# 4 0.0000 0.0000 0.0000 -2.0556 0.0000 0.0000
# 5 0.0000 0.0000 0.0000 0.0000 15.9982 0.0000
# 6 0.0000 0.0000 0.0000 0.0000 0.0000 257.2430
#
#
#
# Elastic Compliance Matrix: (Units=1/GPa)
#
#
# Indices 1 2 3 4 5 6 
#
# 1 0.012516 -0.010967 -0.004395 0.000000 0.000000 0.000000
# 2 -0.010967 0.021980 0.004379 0.000000 0.000000 0.000000
# 3 -0.004395 0.004379 0.022340 0.000000 0.000000 0.000000
# 4 0.000000 0.000000 0.000000 -0.486479 0.000000 0.000000
# 5 0.000000 0.000000 0.000000 0.000000 0.062507 0.000000
# 6 0.000000 0.000000 0.000000 0.000000 0.000000 0.003887
#
#
# Mechanical properties :
#
#
# Convention : Reuss Voigt Hill
#
# Bulk Modulus (GPa) = 28.67724 49.13433 38.90579
# Shear Modulus (GPa) = -15.16717 67.07207 25.95245
#
# Velocity S-wave (km/s) = -2.65253 5.57799 3.46974
# Velocity P-wave (km/s) = 1.98037 8.01737 5.83953
#
# Compressibility (1/GPa) = 0.03487086
#
# Stress axis : x y z
#
# Youngs Moduli (GPa) = 79.89594 45.49559 44.76348
#
# Poissons Ratio (x) = 0.49894 0.19673
# Poissons Ratio (y) = 0.87620 -0.19602
# Poissons Ratio (z) = 0.35113 -0.19923
#
# Static dielectric constant tensor:
#      x y z
#    x 1.786980 0.000000 0.000000 
#    y 0.000000 1.787340 0.000000 
#    z 0.000000 0.000000 1.840020 
# 
# From -- ./inp_files/16928.got.cif
#   From: 2010.05.17/outbox.cif.g08.bks.cpg/sg69_9_cif.got.tgz:16928.got - 2010.06.03 19:29:58.
