data_PCOD9513593
_publ_section_title
;
Structure prediction by ZEFSAII (Michael W. Deem and Ramdas Pophale) SiO2 
 PCOD9513593
Probable space group: F M M M
;
_chemical_formula_sum "Si O2"
_cell_formula_units_Z 80
_cell_length_a 21.222723
_cell_length_b 22.321642
_cell_length_c 7.969876
_cell_angle_alpha 90.000000
_cell_angle_beta 90.000000
_cell_angle_gamma 90.000000
_cell_volume 3775.537678
_symmetry_space_group_name_H-M "F M M M"
_symmetry_group_IT_number 69
_symmetry_cell_setting 'orthorhombic'
loop_
_space_group_symop_operation_xyz
x,y,z
-x,-y,z
x,-y,-z
-x,y,-z
-x,-y,-z
x,y,-z
-x,y,z
x,-y,z
x,1/2+y,1/2+z
-x,1/2-y,1/2+z
x,1/2-y,1/2-z
-x,1/2+y,1/2-z
-x,1/2-y,1/2-z
x,1/2+y,1/2-z
-x,1/2+y,1/2+z
x,1/2-y,1/2+z
1/2+x,y,1/2+z
1/2-x,-y,1/2+z
1/2+x,-y,1/2-z
1/2-x,y,1/2-z
1/2-x,-y,1/2-z
1/2+x,y,1/2-z
1/2-x,y,1/2+z
1/2+x,-y,1/2+z
1/2+x,1/2+y,z
1/2-x,1/2-y,z
1/2+x,1/2-y,-z
1/2-x,1/2+y,-z
1/2-x,1/2-y,-z
1/2+x,1/2+y,-z
1/2-x,1/2+y,z
1/2+x,1/2-y,z
loop_
_atom_site_type_symbol
_atom_site_label
_atom_site_fract_x
_atom_site_fract_y
_atom_site_fract_z
Si Si1 0.383004 0.375714 0.313755
Si Si2 0.185178 0.284336 0.000000
Si Si3 0.676743 0.000000 0.700274
Si Si4 0.068771 0.692463 0.500000
O O1 0.413234 0.376935 0.500000
O O2 0.325182 0.328926 0.342662
O O3 0.356500 0.440587 0.270141
O O4 0.423658 0.348771 0.164312
O O5 0.250000 0.250000 0.000000
O O6 0.125290 0.239999 0.000000
O O7 0.750000 0.000000 0.750000
O O8 0.671877 0.000000 0.500000
O O9 0.000000 0.721801 0.500000
#
# Coordination Sequence:
#
# PCOD9513593 Si02
#       4
#    32  16  16  16
#     4  10  25  44  70 106 141 186 245 294 368 425
#     4  10  26  45  73 107 153 187 241 305 365 436
#     4  12  24  44  72 104 149 187 238 308 371 434
#     4  12  26  47  72 107 150 198 240 297 368 446
#
# _framework density 21.189035000000001
#
# number of rings (size 3 to 8) (size 9 to 14) (size 15 to 20)
#    1.200    0.000    2.000    3.000    5.600    5.600 
#    0.000    2.000    0.000    2.400    0.000    0.000 
#    0.000    0.000    0.000    0.000    0.000    0.000 
#
# Total GULP energy -111725.153133 kJ/mol
# GULP energy per Si atom -5586.257657 kJ/mol
# Density = 2.114081 g / cm^3
# Si number density = 21.189035 Si / 1000 Ang^3
#
#
#
# Elastic Constant Matrix: (Units=GPa)
#
#
# Indices 1 2 3 4 5 6 
#
# 1 122.4742 70.1909 29.9590 -0.0024 -0.0005 -0.0002
# 2 70.1909 164.4372 50.3954 -0.0039 -0.0006 -0.0003
# 3 29.9590 50.3954 171.6844 -0.0170 -0.0013 -0.0008
# 4 -0.0024 -0.0039 -0.0170 822.5804 0.0149 0.0044
# 5 -0.0005 -0.0006 -0.0013 0.0149 8.8510 0.0006
# 6 -0.0002 -0.0003 -0.0008 0.0044 0.0006 19.8290
#
#
#
# Elastic Compliance Matrix: (Units=1/GPa)
#
#
# Indices 1 2 3 4 5 6 
#
# 1 0.010863 -0.004457 -0.000587 0.000000 0.000000 0.000000
# 2 -0.004457 0.008511 -0.001721 0.000000 0.000000 0.000000
# 3 -0.000587 -0.001721 0.006432 0.000000 0.000001 0.000000
# 4 0.000000 0.000000 0.000000 0.001216 -0.000002 0.000000
# 5 0.000000 0.000000 0.000001 -0.000002 0.112981 -0.000003
# 6 0.000000 0.000000 0.000000 0.000000 -0.000003 0.050431
#
#
# Mechanical properties :
#
#
# Convention : Reuss Voigt Hill
#
# Bulk Modulus (GPa) = 81.45572 84.40960 82.93266
# Shear Modulus (GPa) = 24.03197 190.78877 107.41037
#
# Velocity S-wave (km/s) = 3.37140 9.49930 7.12752
# Velocity P-wave (km/s) = 7.32673 12.65854 10.34214
#
# Compressibility (1/GPa) = 0.01227661
#
# Stress axis : x y z
#
# Youngs Moduli (GPa) = 92.05611 117.49342 155.46824
#
# Poissons Ratio (x) = 0.52366 0.09131
# Poissons Ratio (y) = 0.41029 0.26750
# Poissons Ratio (z) = 0.05407 0.20216
#
# Static dielectric constant tensor:
#      x y z
#    x 1.744310 0.000000 0.000000 
#    y 0.000000 1.746660 0.000000 
#    z 0.000000 0.000000 1.810960 
# 
# From -- ./inp_files/2642.got.cif
#   From: 2010.05.17/outbox.cif.g08.bks.cpg/sg69_2_cif.got.tgz:2642.got - 2010.06.03 19:29:58.
