data_PCOD9513036
_publ_section_title
;
Structure prediction by ZEFSAII (Michael W. Deem and Ramdas Pophale) SiO2 
 PCOD9513036
Probable space group: F M M M
;
_chemical_formula_sum "Si O2"
_cell_formula_units_Z 136
_cell_length_a 13.236016
_cell_length_b 19.553765
_cell_length_c 24.980674
_cell_angle_alpha 90.000000
_cell_angle_beta 90.000000
_cell_angle_gamma 90.000000
_cell_volume 6465.346822
_symmetry_space_group_name_H-M "F M M M"
_symmetry_group_IT_number 69
_symmetry_cell_setting 'orthorhombic'
loop_
_space_group_symop_operation_xyz
x,y,z
-x,-y,z
x,-y,-z
-x,y,-z
-x,-y,-z
x,y,-z
-x,y,z
x,-y,z
x,1/2+y,1/2+z
-x,1/2-y,1/2+z
x,1/2-y,1/2-z
-x,1/2+y,1/2-z
-x,1/2-y,1/2-z
x,1/2+y,1/2-z
-x,1/2+y,1/2+z
x,1/2-y,1/2+z
1/2+x,y,1/2+z
1/2-x,-y,1/2+z
1/2+x,-y,1/2-z
1/2-x,y,1/2-z
1/2-x,-y,1/2-z
1/2+x,y,1/2-z
1/2-x,y,1/2+z
1/2+x,-y,1/2+z
1/2+x,1/2+y,z
1/2-x,1/2-y,z
1/2+x,1/2-y,-z
1/2-x,1/2+y,-z
1/2-x,1/2-y,-z
1/2+x,1/2+y,-z
1/2-x,1/2+y,z
1/2+x,1/2-y,z
loop_
_atom_site_type_symbol
_atom_site_label
_atom_site_fract_x
_atom_site_fract_y
_atom_site_fract_z
Si Si1 0.876644 0.214149 0.387508
Si Si2 0.377882 0.860719 0.658896
Si Si3 0.621944 0.353024 0.500000
Si Si4 0.774260 0.000000 0.500000
Si Si5 0.119686 0.500000 0.403320
Si Si6 0.617585 0.828318 0.772490
O O1 0.847446 0.292736 0.374297
O O2 0.844723 0.184886 0.445066
O O3 0.845722 0.172070 0.333804
O O4 0.000000 0.212706 0.388264
O O5 0.500000 0.852844 0.663342
O O6 0.360024 0.931148 0.629362
O O7 0.340372 0.865722 0.720162
O O8 0.500000 0.353008 0.500000
O O9 0.660705 0.430722 0.500000
O O10 0.698368 0.000000 0.450667
O O11 0.000000 0.500000 0.418849
O O12 0.500000 0.847931 0.777267
O O13 0.622307 0.750000 0.750000
#
# Coordination Sequence:
#
# PCOD9513036 Si02
#       6
#    32  32  16   8  16  32
#     4   8  14  27  51  81 108 137 177 222 264 308
#     4   8  14  27  50  80 111 140 174 215 261 316
#     4  10  21  38  59  78 100 136 180 224 267 312
#     4  12  26  42  54  72 106 142 176 220 268 318
#     4  10  21  37  56  78 108 145 176 209 260 319
#     4   7  10  20  43  76 108 134 165 210 259 304
#
# _framework density 21.035221
#
# number of rings (size 3 to 8) (size 9 to 14) (size 15 to 20)
#    0.000    3.529    0.000    3.176    0.000    0.941 
#    0.000    7.059    0.000    8.471    0.000    4.941 
#    0.000    0.000    0.000    0.000    0.000    1.412 
#
# Total GULP energy -189588.170752 kJ/mol
# GULP energy per Si atom -5576.122669 kJ/mol
# Density = 2.098734 g / cm^3
# Si number density = 21.035221 Si / 1000 Ang^3
#
#
#
# Elastic Constant Matrix: (Units=GPa)
#
#
# Indices 1 2 3 4 5 6 
#
# 1 71.6233 28.7772 63.4587 0.0000 0.0000 0.0000
# 2 28.7772 117.0655 95.8689 0.0000 0.0000 0.0000
# 3 63.4587 95.8689 238.9154 0.0000 0.0000 0.0000
# 4 0.0000 0.0000 0.0000 20.9003 0.0000 0.0000
# 5 0.0000 0.0000 0.0000 0.0000 29.9756 0.0000
# 6 0.0000 0.0000 0.0000 0.0000 0.0000 14.7279
#
#
#
# Elastic Compliance Matrix: (Units=1/GPa)
#
#
# Indices 1 2 3 4 5 6 
#
# 1 0.018306 -0.000772 -0.004553 0.000000 0.000000 0.000000
# 2 -0.000772 0.012756 -0.004913 0.000000 0.000000 0.000000
# 3 -0.004553 -0.004913 0.007366 0.000000 0.000000 0.000000
# 4 0.000000 0.000000 0.000000 0.047846 0.000000 0.000000
# 5 0.000000 0.000000 0.000000 0.000000 0.033360 0.000000
# 6 0.000000 0.000000 0.000000 0.000000 0.000000 0.067899
#
#
# Mechanical properties :
#
#
# Convention : Reuss Voigt Hill
#
# Bulk Modulus (GPa) = 55.70310 89.31262 72.50786
# Shear Modulus (GPa) = 23.36532 29.08739 26.22635
#
# Velocity S-wave (km/s) = 3.33644 3.72263 3.53481
# Velocity P-wave (km/s) = 6.43279 7.81205 7.15573
#
# Compressibility (1/GPa) = 0.01795232
#
# Stress axis : x y z
#
# Youngs Moduli (GPa) = 54.62824 78.39606 135.75143
#
# Poissons Ratio (x) = 0.06050 0.61801
# Poissons Ratio (y) = 0.04216 0.66701
# Poissons Ratio (z) = 0.24870 0.38520
#
# Static dielectric constant tensor:
#      x y z
#    x 1.854370 0.000000 0.000000 
#    y 0.000000 1.709390 0.000000 
#    z 0.000000 0.000000 1.890530 
# 
# From -- ./inp_files/35722.got.cif
#   From: 2010.05.17/outbox.cif.g08.bks.cpg/sg69_18_cif.got.tgz:35722.got - 2010.06.03 19:29:58.
