data_PCOD9513069
_publ_section_title
;
Structure prediction by ZEFSAII (Michael W. Deem and Ramdas Pophale) SiO2 
 PCOD9513069
Probable space group: F M M M
;
_chemical_formula_sum "Si O2"
_cell_formula_units_Z 176
_cell_length_a 25.617321
_cell_length_b 19.488618
_cell_length_c 18.570036
_cell_angle_alpha 90.000000
_cell_angle_beta 90.000000
_cell_angle_gamma 90.000000
_cell_volume 9271.019594
_symmetry_space_group_name_H-M "F M M M"
_symmetry_group_IT_number 69
_symmetry_cell_setting 'orthorhombic'
loop_
_space_group_symop_operation_xyz
x,y,z
-x,-y,z
x,-y,-z
-x,y,-z
-x,-y,-z
x,y,-z
-x,y,z
x,-y,z
x,1/2+y,1/2+z
-x,1/2-y,1/2+z
x,1/2-y,1/2-z
-x,1/2+y,1/2-z
-x,1/2-y,1/2-z
x,1/2+y,1/2-z
-x,1/2+y,1/2+z
x,1/2-y,1/2+z
1/2+x,y,1/2+z
1/2-x,-y,1/2+z
1/2+x,-y,1/2-z
1/2-x,y,1/2-z
1/2-x,-y,1/2-z
1/2+x,y,1/2-z
1/2-x,y,1/2+z
1/2+x,-y,1/2+z
1/2+x,1/2+y,z
1/2-x,1/2-y,z
1/2+x,1/2-y,-z
1/2-x,1/2+y,-z
1/2-x,1/2-y,-z
1/2+x,1/2+y,-z
1/2-x,1/2+y,z
1/2+x,1/2-y,z
loop_
_atom_site_type_symbol
_atom_site_label
_atom_site_fract_x
_atom_site_fract_y
_atom_site_fract_z
Si Si1 0.938078 0.000000 0.413738
Si Si2 0.439890 0.419495 0.805407
Si Si3 0.647798 0.619056 0.086447
Si Si4 0.378631 0.614679 0.323653
Si Si5 0.802819 0.500000 0.793661
Si Si6 0.811980 0.254341 0.163069
Si Si7 0.729387 0.500000 0.084346
O O1 0.908584 0.933583 0.380714
O O2 0.934803 0.000000 0.500000
O O3 0.000000 0.000000 0.393592
O O4 0.500000 0.406047 0.821487
O O5 0.435686 0.500000 0.782173
O O6 0.403792 0.408677 0.874626
O O7 0.419943 0.371470 0.740048
O O8 0.661876 0.691180 0.122153
O O9 0.694823 0.566225 0.103233
O O10 0.642486 0.622692 0.000000
O O11 0.336477 0.567146 0.282054
O O12 0.345244 0.677263 0.355090
O O13 0.750000 0.500000 0.750000
O O14 0.784043 0.500000 0.875872
O O15 0.815680 0.250000 0.250000
O O16 0.750000 0.250000 0.145467
O O17 0.737596 0.500000 0.000000
#
# Coordination Sequence:
#
# PCOD9513069 Si02
#       7
#    16  32  32  32  16  32  16
#     4  10  22  42  68  96 125 163 213 267 321 370
#     4  11  21  38  65  93 120 153 201 256 318 375
#     4  11  23  41  61  89 124 160 207 258 312 368
#     4  11  22  38  61  92 125 163 207 255 309 374
#     4  11  21  31  59  89 121 152 205 259 305 356
#     4  11  24  40  62  90 128 170 210 247 306 380
#     4  10  21  37  58  85 121 158 198 255 317 365
#
# _framework density 18.983888
#
# number of rings (size 3 to 8) (size 9 to 14) (size 15 to 20)
#    0.000    1.182    4.545    2.727    2.545    2.909 
#    0.000    3.636    0.000    0.000    0.000    0.000 
#    0.000    0.000    0.000    0.000    0.000    0.000 
#
# Total GULP energy -245682.043080 kJ/mol
# GULP energy per Si atom -5583.682797 kJ/mol
# Density = 1.894068 g / cm^3
# Si number density = 18.983888 Si / 1000 Ang^3
#
#
#
# Elastic Constant Matrix: (Units=GPa)
#
#
# Indices 1 2 3 4 5 6 
#
# 1 107.5722 24.3390 27.9675 0.0000 0.0000 0.0000
# 2 24.3390 95.0396 15.3699 0.0000 0.0000 0.0000
# 3 27.9675 15.3699 72.2021 0.0000 0.0000 0.0000
# 4 0.0000 0.0000 0.0000 22.4075 0.0000 0.0000
# 5 0.0000 0.0000 0.0000 0.0000 33.6332 0.0000
# 6 0.0000 0.0000 0.0000 0.0000 0.0000 13.5695
#
#
#
# Elastic Compliance Matrix: (Units=1/GPa)
#
#
# Indices 1 2 3 4 5 6 
#
# 1 0.010746 -0.002153 -0.003704 0.000000 0.000000 0.000000
# 2 -0.002153 0.011328 -0.001578 0.000000 0.000000 0.000000
# 3 -0.003704 -0.001578 0.015621 0.000000 0.000000 0.000000
# 4 0.000000 0.000000 0.000000 0.044628 0.000000 0.000000
# 5 0.000000 0.000000 0.000000 0.000000 0.029733 0.000000
# 6 0.000000 0.000000 0.000000 0.000000 0.000000 0.073695
#
#
# Mechanical properties :
#
#
# Convention : Reuss Voigt Hill
#
# Bulk Modulus (GPa) = 43.81014 45.57407 44.69211
# Shear Modulus (GPa) = 24.01203 27.73119 25.87161
#
# Velocity S-wave (km/s) = 3.56035 3.82615 3.69564
# Velocity P-wave (km/s) = 6.32686 6.60137 6.46557
#
# Compressibility (1/GPa) = 0.02282577
#
# Stress axis : x y z
#
# Youngs Moduli (GPa) = 93.05545 88.27353 64.01771
#
# Poissons Ratio (x) = 0.19005 0.23714
# Poissons Ratio (y) = 0.20035 0.10099
# Poissons Ratio (z) = 0.34470 0.13926
#
# Static dielectric constant tensor:
#      x y z
#    x 1.662880 0.000000 0.000000 
#    y 0.000000 1.671400 0.000000 
#    z 0.000000 0.000000 1.678010 
# 
# From -- ./inp_files/26831.got.cif
#   From: 2010.05.17/outbox.cif.g08.bks.cpg/sg69_14_cif.got.tgz:26831.got - 2010.06.03 19:29:58.
