data_PCOD9513136
_publ_section_title
;
Structure prediction by ZEFSAII (Michael W. Deem and Ramdas Pophale) SiO2 
 PCOD9513136
Probable space group: F M M M
;
_chemical_formula_sum "Si O2"
_cell_formula_units_Z 192
_cell_length_a 17.319553
_cell_length_b 21.907381
_cell_length_c 27.351292
_cell_angle_alpha 90.000000
_cell_angle_beta 90.000000
_cell_angle_gamma 90.000000
_cell_volume 10377.792585
_symmetry_space_group_name_H-M "F M M M"
_symmetry_group_IT_number 69
_symmetry_cell_setting 'orthorhombic'
loop_
_space_group_symop_operation_xyz
x,y,z
-x,-y,z
x,-y,-z
-x,y,-z
-x,-y,-z
x,y,-z
-x,y,z
x,-y,z
x,1/2+y,1/2+z
-x,1/2-y,1/2+z
x,1/2-y,1/2-z
-x,1/2+y,1/2-z
-x,1/2-y,1/2-z
x,1/2+y,1/2-z
-x,1/2+y,1/2+z
x,1/2-y,1/2+z
1/2+x,y,1/2+z
1/2-x,-y,1/2+z
1/2+x,-y,1/2-z
1/2-x,y,1/2-z
1/2-x,-y,1/2-z
1/2+x,y,1/2-z
1/2-x,y,1/2+z
1/2+x,-y,1/2+z
1/2+x,1/2+y,z
1/2-x,1/2-y,z
1/2+x,1/2-y,-z
1/2-x,1/2+y,-z
1/2-x,1/2-y,-z
1/2+x,1/2+y,-z
1/2-x,1/2+y,z
1/2+x,1/2-y,z
loop_
_atom_site_type_symbol
_atom_site_label
_atom_site_fract_x
_atom_site_fract_y
_atom_site_fract_z
Si Si1 0.411150 0.681763 0.773155
Si Si2 0.839876 0.236008 0.136755
Si Si3 0.092014 0.136019 0.669759
Si Si4 0.654652 0.641897 0.058823
Si Si5 0.307646 0.427508 0.408125
Si Si6 0.000000 0.431064 0.440830
Si Si7 0.912833 0.925985 0.500000
O O1 0.500000 0.669268 0.785988
O O2 0.407868 0.750000 0.750000
O O3 0.362373 0.685889 0.822259
O O4 0.388876 0.639347 0.727607
O O5 0.750000 0.250000 0.142894
O O6 0.888729 0.296944 0.147430
O O7 0.852697 0.208034 0.083439
O O8 0.146981 0.089981 0.640973
O O9 0.000000 0.124063 0.664573
O O10 0.728970 0.609077 0.082500
O O11 0.577691 0.604499 0.072109
O O12 0.662764 0.643478 0.000000
O O13 0.293152 0.500000 0.411147
O O14 0.365473 0.408963 0.451980
O O15 0.000000 0.500000 0.421669
O O16 0.000000 0.434246 0.500000
O O17 0.000000 0.902275 0.500000
O O18 0.916730 0.000000 0.500000
#
# Coordination Sequence:
#
# PCOD9513136 Si02
#       7
#    32  32  32  32  32  16  16
#     4   8  17  34  58  82 110 146 191 239 282 339
#     4  11  21  36  58  87 116 155 195 242 291 352
#     4  10  21  38  58  89 121 151 194 239 291 354
#     4  11  23  39  58  86 121 156 195 246 301 350
#     4  11  21  37  60  85 117 155 196 242 289 344
#     4   9  20  38  62  84 105 148 205 247 286 344
#     4   9  18  32  54  80 107 147 197 235 269 331
#
# _framework density 18.501044
#
# number of rings (size 3 to 8) (size 9 to 14) (size 15 to 20)
#    0.000    2.000    2.500    2.500    2.333    5.000 
#    1.500    0.000    0.000    3.000    0.000    0.000 
#    0.000    0.000    0.000    0.000    0.000    0.000 
#
# Total GULP energy -267737.919065 kJ/mol
# GULP energy per Si atom -5577.873314 kJ/mol
# Density = 1.845894 g / cm^3
# Si number density = 18.501044 Si / 1000 Ang^3
#
#
#
# Elastic Constant Matrix: (Units=GPa)
#
#
# Indices 1 2 3 4 5 6 
#
# 1 96.5739 5.4344 29.2277 0.0000 0.0000 0.0000
# 2 5.4344 25.6487 11.8003 0.0000 0.0000 0.0000
# 3 29.2277 11.8003 66.3897 0.0000 0.0000 0.0000
# 4 0.0000 0.0000 0.0000 29.6237 0.0000 0.0000
# 5 0.0000 0.0000 0.0000 0.0000 45.3862 0.0000
# 6 0.0000 0.0000 0.0000 0.0000 0.0000 13.4891
#
#
#
# Elastic Compliance Matrix: (Units=1/GPa)
#
#
# Indices 1 2 3 4 5 6 
#
# 1 0.011947 -0.000121 -0.005238 0.000000 0.000000 0.000000
# 2 -0.000121 0.042462 -0.007494 0.000000 0.000000 0.000000
# 3 -0.005238 -0.007494 0.018701 0.000000 0.000000 0.000000
# 4 0.000000 0.000000 0.000000 0.033757 0.000000 0.000000
# 5 0.000000 0.000000 0.000000 0.000000 0.022033 0.000000
# 6 0.000000 0.000000 0.000000 0.000000 0.000000 0.074134
#
#
# Mechanical properties :
#
#
# Convention : Reuss Voigt Hill
#
# Bulk Modulus (GPa) = 21.09583 31.28190 26.18886
# Shear Modulus (GPa) = 20.44655 27.17647 23.81151
#
# Velocity S-wave (km/s) = 3.32800 3.83680 3.59142
# Velocity P-wave (km/s) = 5.11807 6.04756 5.60213
#
# Compressibility (1/GPa) = 0.04740274
#
# Stress axis : x y z
#
# Youngs Moduli (GPa) = 83.70407 23.55059 53.47444
#
# Poissons Ratio (x) = 0.00286 0.28010
# Poissons Ratio (y) = 0.01016 0.40073
# Poissons Ratio (z) = 0.43844 0.17648
#
# Static dielectric constant tensor:
#      x y z
#    x 1.622930 0.000000 0.000000 
#    y 0.000000 1.642230 0.000000 
#    z 0.000000 0.000000 1.656630 
# 
# From -- ./inp_files/41175.got.cif
#   From: 2010.05.17/outbox.cif.g08.bks.cpg/sg69_21_cif.got.tgz:41175.got - 2010.06.03 19:29:58.
