data_PCOD9513123
_publ_section_title
;
Structure prediction by ZEFSAII (Michael W. Deem and Ramdas Pophale) SiO2 
 PCOD9513123
Probable space group: F M M M
;
_chemical_formula_sum "Si O2"
_cell_formula_units_Z 144
_cell_length_a 16.888755
_cell_length_b 28.311777
_cell_length_c 15.400486
_cell_angle_alpha 90.000000
_cell_angle_beta 90.000000
_cell_angle_gamma 90.000000
_cell_volume 7363.752628
_symmetry_space_group_name_H-M "F M M M"
_symmetry_group_IT_number 69
_symmetry_cell_setting 'orthorhombic'
loop_
_space_group_symop_operation_xyz
x,y,z
-x,-y,z
x,-y,-z
-x,y,-z
-x,-y,-z
x,y,-z
-x,y,z
x,-y,z
x,1/2+y,1/2+z
-x,1/2-y,1/2+z
x,1/2-y,1/2-z
-x,1/2+y,1/2-z
-x,1/2-y,1/2-z
x,1/2+y,1/2-z
-x,1/2+y,1/2+z
x,1/2-y,1/2+z
1/2+x,y,1/2+z
1/2-x,-y,1/2+z
1/2+x,-y,1/2-z
1/2-x,y,1/2-z
1/2-x,-y,1/2-z
1/2+x,y,1/2-z
1/2-x,y,1/2+z
1/2+x,-y,1/2+z
1/2+x,1/2+y,z
1/2-x,1/2-y,z
1/2+x,1/2-y,-z
1/2-x,1/2+y,-z
1/2-x,1/2-y,-z
1/2+x,1/2+y,-z
1/2-x,1/2+y,z
1/2+x,1/2-y,z
loop_
_atom_site_type_symbol
_atom_site_label
_atom_site_fract_x
_atom_site_fract_y
_atom_site_fract_z
Si Si1 0.586293 0.857689 0.395614
Si Si2 0.245273 0.697052 0.353052
Si Si3 0.000000 0.444322 0.106660
Si Si4 0.321169 0.446950 0.106471
Si Si5 0.838015 0.395130 0.103816
O O1 0.581977 0.859182 0.500000
O O2 0.500000 0.843745 0.361586
O O3 0.659713 0.824354 0.374854
O O4 0.612139 0.909911 0.365862
O O5 0.250000 0.700045 0.250000
O O6 0.250000 0.750000 0.389904
O O7 0.312720 0.659195 0.379715
O O8 0.921206 0.416043 0.135794
O O9 0.000000 0.500000 0.131624
O O10 0.000000 0.444118 0.000000
O O11 0.333899 0.500000 0.136225
O O12 0.236313 0.426442 0.135448
O O13 0.320369 0.447189 0.000000
O O14 0.839862 0.400434 0.000000
#
# Coordination Sequence:
#
# PCOD9513123 Si02
#       5
#    32  32  16  32  32
#     4   9  18  33  53  78 104 131 166 213 264 306
#     4  10  21  38  54  73  97 137 181 215 263 316
#     4   9  16  28  50  81 112 136 167 212 256 306
#     4   8  13  23  44  73 102 131 162 199 247 302
#     4   9  17  30  50  77 105 134 171 214 260 304
#
# _framework density 19.555246
#
# number of rings (size 3 to 8) (size 9 to 14) (size 15 to 20)
#    0.000    3.000    0.000    2.667    0.000    4.889 
#    4.000    3.333    0.000   16.667    0.000    0.000 
#    0.000    0.000    0.000    0.000    0.000    0.000 
#
# Total GULP energy -200611.290383 kJ/mol
# GULP energy per Si atom -5572.535844 kJ/mol
# Density = 1.951074 g / cm^3
# Si number density = 19.555246 Si / 1000 Ang^3
#
#
#
# Elastic Constant Matrix: (Units=GPa)
#
#
# Indices 1 2 3 4 5 6 
#
# 1 153.7833 83.8852 15.4274 0.0000 0.0000 0.0000
# 2 83.8852 175.8034 2.8198 0.0000 0.0000 0.0000
# 3 15.4274 2.8198 20.7748 0.0000 0.0000 0.0000
# 4 0.0000 0.0000 0.0000 26.9897 0.0000 0.0000
# 5 0.0000 0.0000 0.0000 0.0000 -5.6372 0.0000
# 6 0.0000 0.0000 0.0000 0.0000 0.0000 11.2330
#
#
#
# Elastic Compliance Matrix: (Units=1/GPa)
#
#
# Indices 1 2 3 4 5 6 
#
# 1 0.009598 -0.004475 -0.006520 0.000000 0.000000 0.000000
# 2 -0.004475 0.007787 0.002266 0.000000 0.000000 0.000000
# 3 -0.006520 0.002266 0.052669 0.000000 0.000000 0.000000
# 4 0.000000 0.000000 0.000000 0.037051 0.000000 0.000000
# 5 0.000000 0.000000 0.000000 0.000000 -0.177393 0.000000
# 6 0.000000 0.000000 0.000000 0.000000 0.000000 0.089023
#
#
# Mechanical properties :
#
#
# Convention : Reuss Voigt Hill
#
# Bulk Modulus (GPa) = 19.01258 61.62514 40.31886
# Shear Modulus (GPa) = 93.06708 23.06571 58.06640
#
# Velocity S-wave (km/s) = 6.90617 3.43813 5.45509
# Velocity P-wave (km/s) = 8.56371 6.88061 7.76788
#
# Compressibility (1/GPa) = 0.05259676
#
# Stress axis : x y z
#
# Youngs Moduli (GPa) = 104.19117 128.41765 18.98637
#
# Poissons Ratio (x) = 0.57467 0.12379
# Poissons Ratio (y) = 0.46626 -0.04303
# Poissons Ratio (z) = 0.67932 -0.29102
#
# Static dielectric constant tensor:
#      x y z
#    x 1.668160 0.000000 0.000000 
#    y 0.000000 1.695550 0.000000 
#    z 0.000000 0.000000 1.692810 
# 
# From -- ./inp_files/15546.got.cif
#   From: 2010.05.17/outbox.cif.g08.bks.cpg/sg69_8_cif.got.tgz:15546.got - 2010.06.03 19:29:58.
