data_PCOD9513890
_publ_section_title
;
Structure prediction by ZEFSAII (Michael W. Deem and Ramdas Pophale) SiO2 
 PCOD9513890
Probable space group: F M M M
;
_chemical_formula_sum "Si O2"
_cell_formula_units_Z 88
_cell_length_a 8.476419
_cell_length_b 29.807800
_cell_length_c 15.566514
_cell_angle_alpha 90.000000
_cell_angle_beta 90.000000
_cell_angle_gamma 90.000000
_cell_volume 3933.088389
_symmetry_space_group_name_H-M "F M M M"
_symmetry_group_IT_number 69
_symmetry_cell_setting 'orthorhombic'
loop_
_space_group_symop_operation_xyz
x,y,z
-x,-y,z
x,-y,-z
-x,y,-z
-x,-y,-z
x,y,-z
-x,y,z
x,-y,z
x,1/2+y,1/2+z
-x,1/2-y,1/2+z
x,1/2-y,1/2-z
-x,1/2+y,1/2-z
-x,1/2-y,1/2-z
x,1/2+y,1/2-z
-x,1/2+y,1/2+z
x,1/2-y,1/2+z
1/2+x,y,1/2+z
1/2-x,-y,1/2+z
1/2+x,-y,1/2-z
1/2-x,y,1/2-z
1/2-x,-y,1/2-z
1/2+x,y,1/2-z
1/2-x,y,1/2+z
1/2+x,-y,1/2+z
1/2+x,1/2+y,z
1/2-x,1/2-y,z
1/2+x,1/2-y,-z
1/2-x,1/2+y,-z
1/2-x,1/2-y,-z
1/2+x,1/2+y,-z
1/2-x,1/2+y,z
1/2+x,1/2-y,z
loop_
_atom_site_type_symbol
_atom_site_label
_atom_site_fract_x
_atom_site_fract_y
_atom_site_fract_z
Si Si1 0.180189 0.404601 0.100913
Si Si2 0.750000 0.250000 0.500000
Si Si3 0.314471 0.813617 0.343272
Si Si4 0.811720 0.500000 0.346897
O O1 0.283179 0.366612 0.146224
O O2 0.245805 0.454489 0.112234
O O3 0.000000 0.402328 0.133679
O O4 0.179557 0.394533 0.000000
O O5 0.765704 0.211748 0.423208
O O6 0.500000 0.803681 0.350374
O O7 0.250000 0.800365 0.250000
O O8 0.750000 0.500000 0.250000
O O9 0.000000 0.500000 0.350657
#
# Coordination Sequence:
#
# PCOD9513890 Si02
#       4
#    32   8  32  16
#     4  11  24  44  71 103 142 186 235 291 354 423
#     4  12  28  48  76 106 138 188 238 302 356 432
#     4  12  27  48  75 108 146 189 240 296 360 429
#     4  12  25  42  67  99 141 187 237 291 348 419
#
# _framework density 22.374275999999998
#
# number of rings (size 3 to 8) (size 9 to 14) (size 15 to 20)
#    0.000    0.364    1.818    6.545    0.000   11.636 
#    0.000    0.000    0.000    0.000    0.000    0.000 
#    0.000    0.000    0.000    0.000    0.000    0.000 
#
# Total GULP energy -122679.466763 kJ/mol
# GULP energy per Si atom -5576.339398 kJ/mol
# Density = 2.232335 g / cm^3
# Si number density = 22.374276 Si / 1000 Ang^3
#
#
#
# Elastic Constant Matrix: (Units=GPa)
#
#
# Indices 1 2 3 4 5 6 
#
# 1 62.0077 -7.7500 12.2180 0.0000 0.0000 0.0000
# 2 -7.7500 150.1984 39.2239 0.0000 0.0000 0.0000
# 3 12.2180 39.2239 166.2882 0.0000 0.0000 0.0000
# 4 0.0000 0.0000 0.0000 -155.5196 0.0000 0.0000
# 5 0.0000 0.0000 0.0000 0.0000 15.9774 0.0000
# 6 0.0000 0.0000 0.0000 0.0000 0.0000 -40.3902
#
#
#
# Elastic Compliance Matrix: (Units=1/GPa)
#
#
# Indices 1 2 3 4 5 6 
#
# 1 0.016582 0.001251 -0.001513 0.000000 0.000000 0.000000
# 2 0.001251 0.007189 -0.001788 0.000000 0.000000 0.000000
# 3 -0.001513 -0.001788 0.006547 0.000000 0.000000 0.000000
# 4 0.000000 0.000000 0.000000 -0.006430 0.000000 0.000000
# 5 0.000000 0.000000 0.000000 0.000000 0.062589 0.000000
# 6 0.000000 0.000000 0.000000 0.000000 0.000000 -0.024759
#
#
# Mechanical properties :
#
#
# Convention : Reuss Voigt Hill
#
# Bulk Modulus (GPa) = 38.14346 51.76422 44.95384
# Shear Modulus (GPa) = 67.06301 -13.66630 26.69835
#
# Velocity S-wave (km/s) = 5.48072 -2.47413 3.45811
# Velocity P-wave (km/s) = 7.55884 3.87609 6.00667
#
# Compressibility (1/GPa) = 0.02621681
#
# Stress axis : x y z
#
# Youngs Moduli (GPa) = 60.30799 139.09655 152.75267
#
# Poissons Ratio (x) = -0.17398 0.23117
# Poissons Ratio (y) = -0.07543 0.27308
# Poissons Ratio (z) = 0.09127 0.24866
#
# Static dielectric constant tensor:
#      x y z
#    x 1.831880 0.000000 0.000000 
#    y 0.000000 1.838810 0.000000 
#    z 0.000000 0.000000 1.791180 
# 
# From -- ./inp_files/20315.got.cif
#   From: 2010.05.17/outbox.cif.g08.bks.cpg/sg69_11_cif.got.tgz:20315.got - 2010.06.03 19:29:58.
