data_PCOD9513938
_publ_section_title
;
Structure prediction by ZEFSAII (Michael W. Deem and Ramdas Pophale) SiO2 
 PCOD9513938
Probable space group: F M M M
;
_chemical_formula_sum "Si O2"
_cell_formula_units_Z 128
_cell_length_a 41.546234
_cell_length_b 14.599113
_cell_length_c 10.641130
_cell_angle_alpha 90.000000
_cell_angle_beta 90.000000
_cell_angle_gamma 90.000000
_cell_volume 6454.251463
_symmetry_space_group_name_H-M "F M M M"
_symmetry_group_IT_number 69
_symmetry_cell_setting 'orthorhombic'
loop_
_space_group_symop_operation_xyz
x,y,z
-x,-y,z
x,-y,-z
-x,y,-z
-x,-y,-z
x,y,-z
-x,y,z
x,-y,z
x,1/2+y,1/2+z
-x,1/2-y,1/2+z
x,1/2-y,1/2-z
-x,1/2+y,1/2-z
-x,1/2-y,1/2-z
x,1/2+y,1/2-z
-x,1/2+y,1/2+z
x,1/2-y,1/2+z
1/2+x,y,1/2+z
1/2-x,-y,1/2+z
1/2+x,-y,1/2-z
1/2-x,y,1/2-z
1/2-x,-y,1/2-z
1/2+x,y,1/2-z
1/2-x,y,1/2+z
1/2+x,-y,1/2+z
1/2+x,1/2+y,z
1/2-x,1/2-y,z
1/2+x,1/2-y,-z
1/2-x,1/2+y,-z
1/2-x,1/2-y,-z
1/2+x,1/2+y,-z
1/2-x,1/2+y,z
1/2+x,1/2-y,z
loop_
_atom_site_type_symbol
_atom_site_label
_atom_site_fract_x
_atom_site_fract_y
_atom_site_fract_z
Si Si1 0.151746 0.388106 0.141739
Si Si2 0.464899 0.172390 0.644192
Si Si3 0.225590 0.888262 0.357575
Si Si4 0.605996 0.607561 0.138311
O O1 0.151371 0.500000 0.141548
O O2 0.188659 0.360627 0.167284
O O3 0.127134 0.355436 0.247550
O O4 0.143080 0.359809 0.000000
O O5 0.463713 0.208619 0.500000
O O6 0.500000 0.124894 0.655627
O O7 0.464214 0.250000 0.750000
O O8 0.432195 0.116401 0.660633
O O9 0.234350 0.860256 0.500000
O O10 0.250000 0.857552 0.250000
O O11 0.225951 0.000000 0.356902
O O12 0.613483 0.500000 0.131829
O O13 0.613178 0.647404 0.000000
#
# Coordination Sequence:
#
# PCOD9513938 Si02
#       4
#    32  32  32  32
#     4   8  14  24  36  52  78 110 140 171 209 250
#     4   9  18  32  48  65  86 112 141 174 212 253
#     4   8  13  20  30  46  70 102 138 171 203 241
#     4   9  17  28  43  64  87 111 141 176 213 252
#
# _framework density 19.831889
#
# number of rings (size 3 to 8) (size 9 to 14) (size 15 to 20)
#    0.000    3.500    0.000    1.500    0.000    2.500 
#    0.000    7.500    0.000    0.000    0.000    7.000 
#    0.000    1.000    0.000   11.000    0.000   18.000 
#
# Total GULP energy -178189.456238 kJ/mol
# GULP energy per Si atom -5568.420507 kJ/mol
# Density = 1.978675 g / cm^3
# Si number density = 19.831889 Si / 1000 Ang^3
#
#
#
# Elastic Constant Matrix: (Units=GPa)
#
#
# Indices 1 2 3 4 5 6 
#
# 1 142.2404 10.1245 136.1158 0.0000 0.0000 0.0000
# 2 10.1245 37.9516 15.1140 0.0000 0.0000 0.0000
# 3 136.1158 15.1140 174.6024 0.0000 0.0000 0.0000
# 4 0.0000 0.0000 0.0000 1.7716 0.0000 0.0000
# 5 0.0000 0.0000 0.0000 0.0000 41.4625 0.0000
# 6 0.0000 0.0000 0.0000 0.0000 0.0000 -512.5384
#
#
#
# Elastic Compliance Matrix: (Units=1/GPa)
#
#
# Indices 1 2 3 4 5 6 
#
# 1 0.027737 0.001255 -0.021732 0.000000 0.000000 0.000000
# 2 0.001255 0.027347 -0.003346 0.000000 0.000000 0.000000
# 3 -0.021732 -0.003346 0.022959 0.000000 0.000000 0.000000
# 4 0.000000 0.000000 0.000000 0.564472 0.000000 0.000000
# 5 0.000000 0.000000 0.000000 0.000000 0.024118 0.000000
# 6 0.000000 0.000000 0.000000 0.000000 0.000000 -0.001951
#
#
# Mechanical properties :
#
#
# Convention : Reuss Voigt Hill
#
# Bulk Modulus (GPa) = 32.89714 75.27811 54.08762
# Shear Modulus (GPa) = 6.92080 -80.96486 -37.02203
#
# Velocity S-wave (km/s) = 1.87011 -6.39642 -4.32533
# Velocity P-wave (km/s) = 4.61379 4.06347 1.54520
#
# Compressibility (1/GPa) = 0.03039778
#
# Stress axis : x y z
#
# Youngs Moduli (GPa) = 36.05270 36.56715 43.55675
#
# Poissons Ratio (x) = -0.04589 0.94657
# Poissons Ratio (y) = -0.04525 0.14573
# Poissons Ratio (z) = 0.78349 0.12234
#
# Static dielectric constant tensor:
#      x y z
#    x 1.695780 0.000000 0.000000 
#    y 0.000000 1.717910 0.000000 
#    z 0.000000 0.000000 1.738690 
# 
# From -- ./inp_files/11264.got.cif
#   From: 2010.05.17/outbox.cif.g08.bks.cpg/sg69_6_cif.got.tgz:11264.got - 2010.06.03 19:29:58.
