data_PCOD9513075
_publ_section_title
;
Structure prediction by ZEFSAII (Michael W. Deem and Ramdas Pophale) SiO2 
 PCOD9513075
Probable space group: F M M M
;
_chemical_formula_sum "Si O2"
_cell_formula_units_Z 100
_cell_length_a 15.223851
_cell_length_b 17.154110
_cell_length_c 18.632076
_cell_angle_alpha 90.000000
_cell_angle_beta 90.000000
_cell_angle_gamma 90.000000
_cell_volume 4865.796732
_symmetry_space_group_name_H-M "F M M M"
_symmetry_group_IT_number 69
_symmetry_cell_setting 'orthorhombic'
loop_
_space_group_symop_operation_xyz
x,y,z
-x,-y,z
x,-y,-z
-x,y,-z
-x,-y,-z
x,y,-z
-x,y,z
x,-y,z
x,1/2+y,1/2+z
-x,1/2-y,1/2+z
x,1/2-y,1/2-z
-x,1/2+y,1/2-z
-x,1/2-y,1/2-z
x,1/2+y,1/2-z
-x,1/2+y,1/2+z
x,1/2-y,1/2+z
1/2+x,y,1/2+z
1/2-x,-y,1/2+z
1/2+x,-y,1/2-z
1/2-x,y,1/2-z
1/2-x,-y,1/2-z
1/2+x,y,1/2-z
1/2-x,y,1/2+z
1/2+x,-y,1/2+z
1/2+x,1/2+y,z
1/2-x,1/2-y,z
1/2+x,1/2-y,-z
1/2-x,1/2+y,-z
1/2-x,1/2-y,-z
1/2+x,1/2+y,-z
1/2-x,1/2+y,z
1/2+x,1/2-y,z
loop_
_atom_site_type_symbol
_atom_site_label
_atom_site_fract_x
_atom_site_fract_y
_atom_site_fract_z
Si Si1 0.500000 0.311019 0.914271
Si Si2 0.663114 0.089304 0.414183
Si Si3 0.500000 0.500000 0.500000
Si Si4 0.684763 0.093149 0.187704
Si Si5 0.000000 0.367070 0.129329
O O1 0.412392 0.353619 0.886397
O O2 0.500000 0.219964 0.901138
O O3 0.500000 0.324669 0.000000
O O4 0.665497 0.091978 0.500000
O O5 0.759053 0.107725 0.384243
O O6 0.641972 0.000000 0.392591
O O7 0.500000 0.431250 0.564731
O O8 0.750000 0.122652 0.250000
O O9 0.587496 0.124144 0.177241
O O10 0.676268 0.000000 0.197549
#
# Coordination Sequence:
#
# PCOD9513075 Si02
#       5
#    16  32   4  32  16
#     4  10  21  37  58  94 126 156 199 261 313 361
#     4   9  19  36  62  88 121 163 210 254 306 367
#     4  12  24  40  68  96 126 162 206 252 308 376
#     4  10  22  40  62  90 122 165 211 253 308 372
#     4  12  24  40  65  94 126 161 205 258 314 362
#
# _framework density 20.55162
#
# number of rings (size 3 to 8) (size 9 to 14) (size 15 to 20)
#    0.000    1.920    2.400    0.480    2.240    4.480 
#    0.000   12.800    0.000    0.000    0.000    0.000 
#    0.000    0.000    0.000    0.000    0.000    0.000 
#
# Total GULP energy -139244.954574 kJ/mol
# GULP energy per Si atom -5569.798183 kJ/mol
# Density = 2.050484 g / cm^3
# Si number density = 20.551620 Si / 1000 Ang^3
#
#
#
# Elastic Constant Matrix: (Units=GPa)
#
#
# Indices 1 2 3 4 5 6 
#
# 1 183.9135 66.7720 45.5222 0.0000 0.0000 0.0000
# 2 66.7720 80.3175 20.3450 0.0000 0.0000 0.0000
# 3 45.5222 20.3450 49.3386 0.0000 0.0000 0.0000
# 4 0.0000 0.0000 0.0000 15.0830 0.0000 0.0000
# 5 0.0000 0.0000 0.0000 0.0000 19.6359 0.0000
# 6 0.0000 0.0000 0.0000 0.0000 0.0000 -61.7852
#
#
#
# Elastic Compliance Matrix: (Units=1/GPa)
#
#
# Indices 1 2 3 4 5 6 
#
# 1 0.009101 -0.006073 -0.005893 0.000000 0.000000 0.000000
# 2 -0.006073 0.017956 -0.001801 0.000000 0.000000 0.000000
# 3 -0.005893 -0.001801 0.026447 0.000000 0.000000 0.000000
# 4 0.000000 0.000000 0.000000 0.066300 0.000000 0.000000
# 5 0.000000 0.000000 0.000000 0.000000 0.050927 0.000000
# 6 0.000000 0.000000 0.000000 0.000000 0.000000 -0.016185
#
#
# Mechanical properties :
#
#
# Convention : Reuss Voigt Hill
#
# Bulk Modulus (GPa) = 38.50443 64.31645 51.41044
# Shear Modulus (GPa) = 26.21429 6.64877 16.43153
#
# Velocity S-wave (km/s) = 3.57534 1.80061 2.83065
# Velocity P-wave (km/s) = 5.98500 5.97377 5.97939
#
# Compressibility (1/GPa) = 0.02597104
#
# Stress axis : x y z
#
# Youngs Moduli (GPa) = 109.87970 55.69236 37.81104
#
# Poissons Ratio (x) = 0.33824 0.22280
# Poissons Ratio (y) = 0.66734 0.06808
# Poissons Ratio (z) = 0.64747 0.10028
#
# Static dielectric constant tensor:
#      x y z
#    x 1.733260 0.000000 0.000000 
#    y 0.000000 1.705550 0.000000 
#    z 0.000000 0.000000 1.778850 
# 
# From -- ./inp_files/16044.got.cif
#   From: 2010.05.17/outbox.cif.g08.bks.cpg/sg69_9_cif.got.tgz:16044.got - 2010.06.03 19:29:58.
