data_PCOD9513167
_publ_section_title
;
Structure prediction by ZEFSAII (Michael W. Deem and Ramdas Pophale) SiO2 
 PCOD9513167
Probable space group: F M M M
;
_chemical_formula_sum "Si O2"
_cell_formula_units_Z 192
_cell_length_a 14.953288
_cell_length_b 29.313865
_cell_length_c 23.149243
_cell_angle_alpha 90.000000
_cell_angle_beta 90.000000
_cell_angle_gamma 90.000000
_cell_volume 10147.208289
_symmetry_space_group_name_H-M "F M M M"
_symmetry_group_IT_number 69
_symmetry_cell_setting 'orthorhombic'
loop_
_space_group_symop_operation_xyz
x,y,z
-x,-y,z
x,-y,-z
-x,y,-z
-x,-y,-z
x,y,-z
-x,y,z
x,-y,z
x,1/2+y,1/2+z
-x,1/2-y,1/2+z
x,1/2-y,1/2-z
-x,1/2+y,1/2-z
-x,1/2-y,1/2-z
x,1/2+y,1/2-z
-x,1/2+y,1/2+z
x,1/2-y,1/2+z
1/2+x,y,1/2+z
1/2-x,-y,1/2+z
1/2+x,-y,1/2-z
1/2-x,y,1/2-z
1/2-x,-y,1/2-z
1/2+x,y,1/2-z
1/2-x,y,1/2+z
1/2+x,-y,1/2+z
1/2+x,1/2+y,z
1/2-x,1/2-y,z
1/2+x,1/2-y,-z
1/2-x,1/2+y,-z
1/2-x,1/2-y,-z
1/2+x,1/2+y,-z
1/2-x,1/2+y,z
1/2+x,1/2-y,z
loop_
_atom_site_type_symbol
_atom_site_label
_atom_site_fract_x
_atom_site_fract_y
_atom_site_fract_z
Si Si1 0.897397 0.768307 0.434228
Si Si2 0.657135 0.678355 0.882129
Si Si3 0.101039 0.550820 0.100813
Si Si4 0.897994 0.627868 0.500000
Si Si5 0.859146 0.302246 0.256369
Si Si6 0.753679 0.448877 0.000000
Si Si7 0.358869 0.648047 0.640731
O O1 0.864688 0.768702 0.500000
O O2 0.841686 0.732407 0.396642
O O3 0.897362 0.819102 0.408991
O O4 0.000000 0.751727 0.433459
O O5 0.616436 0.656417 0.940429
O O6 0.613421 0.677405 0.818388
O O7 0.753036 0.655164 0.870860
O O8 0.109383 0.500000 0.127641
O O9 0.179018 0.555009 0.053814
O O10 0.113398 0.595657 0.138840
O O11 0.000000 0.552761 0.075918
O O12 0.823121 0.588637 0.500000
O O13 0.000000 0.611015 0.500000
O O14 0.888880 0.250000 0.250000
O O15 0.750000 0.301811 0.250000
O O16 0.888351 0.330900 0.201386
O O17 0.714844 0.500000 0.000000
#
# Coordination Sequence:
#
# PCOD9513167 Si02
#       7
#    32  32  32  16  32  16  32
#     4  11  23  34  48  79 122 160 198 245 296 360
#     4  11  21  37  58  81 119 162 200 245 301 359
#     4  10  21  38  61  91 124 153 191 248 307 364
#     4  12  24  40  61  90 123 162 205 250 304 360
#     4   9  18  35  56  82 116 158 205 252 293 355
#     4  10  21  41  65  90 117 156 200 247 310 363
#     4  11  21  36  60  86 115 158 207 247 303 362
#
# _framework density 18.921461000000001
#
# number of rings (size 3 to 8) (size 9 to 14) (size 15 to 20)
#    0.000    1.500    4.167    1.750    2.333    1.833 
#    0.000    4.167    0.000    5.500    0.000    0.000 
#    0.000    0.000    0.000    0.000    0.000    0.000 
#
# Total GULP energy -267687.693593 kJ/mol
# GULP energy per Si atom -5576.826950 kJ/mol
# Density = 1.887839 g / cm^3
# Si number density = 18.921461 Si / 1000 Ang^3
#
#
#
# Elastic Constant Matrix: (Units=GPa)
#
#
# Indices 1 2 3 4 5 6 
#
# 1 87.2864 36.2234 16.0035 0.0000 0.0000 0.0000
# 2 36.2234 151.1066 51.8494 0.0000 0.0000 0.0000
# 3 16.0035 51.8494 127.0187 0.0000 0.0000 0.0000
# 4 0.0000 0.0000 0.0000 22.9238 0.0000 0.0000
# 5 0.0000 0.0000 0.0000 0.0000 26.3800 0.0000
# 6 0.0000 0.0000 0.0000 0.0000 0.0000 486.7995
#
#
#
# Elastic Compliance Matrix: (Units=1/GPa)
#
#
# Indices 1 2 3 4 5 6 
#
# 1 0.012741 -0.002911 -0.000417 0.000000 0.000000 0.000000
# 2 -0.002911 0.008361 -0.003046 0.000000 0.000000 0.000000
# 3 -0.000417 -0.003046 0.009169 0.000000 0.000000 0.000000
# 4 0.000000 0.000000 0.000000 0.043623 0.000000 0.000000
# 5 0.000000 0.000000 0.000000 0.000000 0.037908 0.000000
# 6 0.000000 0.000000 0.000000 0.000000 0.000000 0.002054
#
#
# Mechanical properties :
#
#
# Convention : Reuss Voigt Hill
#
# Bulk Modulus (GPa) = 57.07028 63.72937 60.39982
# Shear Modulus (GPa) = 37.75152 124.64301 81.19726
#
# Velocity S-wave (km/s) = 4.47158 8.12508 6.55789
# Velocity P-wave (km/s) = 7.54236 11.03525 9.45156
#
# Compressibility (1/GPa) = 0.01752226
#
# Stress axis : x y z
#
# Youngs Moduli (GPa) = 78.48598 119.60336 109.06506
#
# Poissons Ratio (x) = 0.34820 0.04547
# Poissons Ratio (y) = 0.22849 0.33223
# Poissons Ratio (z) = 0.03272 0.36433
#
# Static dielectric constant tensor:
#      x y z
#    x 1.712640 0.000000 0.000000 
#    y 0.000000 1.650890 0.000000 
#    z 0.000000 0.000000 1.659080 
# 
# From -- ./inp_files/36115.got.cif
#   From: 2010.05.17/outbox.cif.g08.bks.cpg/sg69_19_cif.got.tgz:36115.got - 2010.06.03 19:29:58.
