data_PCOD9513866
_publ_section_title
;
Structure prediction by ZEFSAII (Michael W. Deem and Ramdas Pophale) SiO2 
 PCOD9513866
Probable space group: F M M M
;
_chemical_formula_sum "Si O2"
_cell_formula_units_Z 176
_cell_length_a 29.797969
_cell_length_b 25.463384
_cell_length_c 14.262150
_cell_angle_alpha 90.000000
_cell_angle_beta 90.000000
_cell_angle_gamma 90.000000
_cell_volume 10821.507960
_symmetry_space_group_name_H-M "F M M M"
_symmetry_group_IT_number 69
_symmetry_cell_setting 'orthorhombic'
loop_
_space_group_symop_operation_xyz
x,y,z
-x,-y,z
x,-y,-z
-x,y,-z
-x,-y,-z
x,y,-z
-x,y,z
x,-y,z
x,1/2+y,1/2+z
-x,1/2-y,1/2+z
x,1/2-y,1/2-z
-x,1/2+y,1/2-z
-x,1/2-y,1/2-z
x,1/2+y,1/2-z
-x,1/2+y,1/2+z
x,1/2-y,1/2+z
1/2+x,y,1/2+z
1/2-x,-y,1/2+z
1/2+x,-y,1/2-z
1/2-x,y,1/2-z
1/2-x,-y,1/2-z
1/2+x,y,1/2-z
1/2-x,y,1/2+z
1/2+x,-y,1/2+z
1/2+x,1/2+y,z
1/2-x,1/2-y,z
1/2+x,1/2-y,-z
1/2-x,1/2+y,-z
1/2-x,1/2-y,-z
1/2+x,1/2+y,-z
1/2-x,1/2+y,z
1/2+x,1/2-y,z
loop_
_atom_site_type_symbol
_atom_site_label
_atom_site_fract_x
_atom_site_fract_y
_atom_site_fract_z
Si Si1 0.446025 0.158129 0.607951
Si Si2 0.000000 0.562870 0.110027
Si Si3 0.414240 0.617882 0.703288
Si Si4 0.270773 0.436334 0.104906
Si Si5 0.948222 0.280663 0.887916
Si Si6 0.320798 0.936636 0.207356
O O1 0.433527 0.147376 0.500000
O O2 0.500000 0.151743 0.615500
O O3 0.422418 0.122890 0.685420
O O4 0.436981 0.219756 0.628598
O O5 0.955700 0.586474 0.157856
O O6 0.000000 0.500000 0.117944
O O7 0.000000 0.577293 0.000000
O O8 0.417727 0.676536 0.661613
O O9 0.367284 0.590477 0.682522
O O10 0.272187 0.500000 0.103302
O O11 0.304471 0.420688 0.188020
O O12 0.220386 0.422771 0.138436
O O13 0.280547 0.417184 0.000000
O O14 0.000000 0.289202 0.856486
O O15 0.947186 0.288456 0.000000
O O16 0.325768 0.000000 0.205497
#
# Coordination Sequence:
#
# PCOD9513866 Si02
#       6
#    32  16  32  32  32  32
#     4   9  18  32  49  70  94 124 167 214 249 276
#     4  11  24  36  44  63 101 143 172 190 220 277
#     4  12  19  30  50  71  99 135 164 195 237 288
#     4   8  15  32  53  68  88 118 154 204 254 284
#     4   9  17  30  48  70  95 124 165 211 248 279
#     4   9  19  31  46  73  99 122 159 198 235 286
#
# _framework density 16.263907
#
# number of rings (size 3 to 8) (size 9 to 14) (size 15 to 20)
#    0.000    2.455    1.818    3.818    0.000    3.636 
#    0.000    1.818    0.000    2.182    0.000   10.182 
#    0.000   17.455    0.000    0.000    0.000    0.000 
#
# Total GULP energy -245337.368003 kJ/mol
# GULP energy per Si atom -5575.849273 kJ/mol
# Density = 1.622689 g / cm^3
# Si number density = 16.263907 Si / 1000 Ang^3
#
#
#
# Elastic Constant Matrix: (Units=GPa)
#
#
# Indices 1 2 3 4 5 6 
#
# 1 70.9624 10.1963 12.6836 0.0000 0.0000 0.0000
# 2 10.1963 20.3739 13.6602 0.0000 0.0000 0.0000
# 3 12.6836 13.6602 61.9520 0.0000 0.0000 0.0000
# 4 0.0000 0.0000 0.0000 22.5378 0.0000 0.0000
# 5 0.0000 0.0000 0.0000 0.0000 5.6904 0.0000
# 6 0.0000 0.0000 0.0000 0.0000 0.0000 13.4731
#
#
#
# Elastic Compliance Matrix: (Units=1/GPa)
#
#
# Indices 1 2 3 4 5 6 
#
# 1 0.015335 -0.006536 -0.001698 0.000000 0.000000 0.000000
# 2 -0.006536 0.060383 -0.011976 0.000000 0.000000 0.000000
# 3 -0.001698 -0.011976 0.019130 0.000000 0.000000 0.000000
# 4 0.000000 0.000000 0.000000 0.044370 0.000000 0.000000
# 5 0.000000 0.000000 0.000000 0.000000 0.175736 0.000000
# 6 0.000000 0.000000 0.000000 0.000000 0.000000 0.074222
#
#
# Mechanical properties :
#
#
# Convention : Reuss Voigt Hill
#
# Bulk Modulus (GPa) = 18.37321 25.15204 21.76263
# Shear Modulus (GPa) = 11.16726 16.12348 13.64537
#
# Velocity S-wave (km/s) = 2.62320 3.15201 2.89969
# Velocity P-wave (km/s) = 4.52729 5.36148 4.96194
#
# Compressibility (1/GPa) = 0.05442707
#
# Stress axis : x y z
#
# Youngs Moduli (GPa) = 65.21197 16.56102 52.27406
#
# Poissons Ratio (x) = 0.10824 0.08878
# Poissons Ratio (y) = 0.42620 0.62604
# Poissons Ratio (z) = 0.11076 0.19834
#
# Static dielectric constant tensor:
#      x y z
#    x 1.516010 0.000000 0.000000 
#    y 0.000000 1.530520 0.000000 
#    z 0.000000 0.000000 1.587460 
# 
# From -- ./inp_files/18069.got.cif
#   From: 2010.05.17/outbox.cif.g08.bks.cpg/sg69_10_cif.got.tgz:18069.got - 2010.06.03 19:29:58.
