data_PCOD9513879
_publ_section_title
;
Structure prediction by ZEFSAII (Michael W. Deem and Ramdas Pophale) SiO2 
 PCOD9513879
Probable space group: F M M M
;
_chemical_formula_sum "Si O2"
_cell_formula_units_Z 128
_cell_length_a 8.160330
_cell_length_b 30.084349
_cell_length_c 26.743481
_cell_angle_alpha 90.000000
_cell_angle_beta 90.000000
_cell_angle_gamma 90.000000
_cell_volume 6565.476866
_symmetry_space_group_name_H-M "F M M M"
_symmetry_group_IT_number 69
_symmetry_cell_setting 'orthorhombic'
loop_
_space_group_symop_operation_xyz
x,y,z
-x,-y,z
x,-y,-z
-x,y,-z
-x,-y,-z
x,y,-z
-x,y,z
x,-y,z
x,1/2+y,1/2+z
-x,1/2-y,1/2+z
x,1/2-y,1/2-z
-x,1/2+y,1/2-z
-x,1/2-y,1/2-z
x,1/2+y,1/2-z
-x,1/2+y,1/2+z
x,1/2-y,1/2+z
1/2+x,y,1/2+z
1/2-x,-y,1/2+z
1/2+x,-y,1/2-z
1/2-x,y,1/2-z
1/2-x,-y,1/2-z
1/2+x,y,1/2-z
1/2-x,y,1/2+z
1/2+x,-y,1/2+z
1/2+x,1/2+y,z
1/2-x,1/2-y,z
1/2+x,1/2-y,-z
1/2-x,1/2+y,-z
1/2-x,1/2-y,-z
1/2+x,1/2+y,-z
1/2-x,1/2+y,z
1/2+x,1/2-y,z
loop_
_atom_site_type_symbol
_atom_site_label
_atom_site_fract_x
_atom_site_fract_y
_atom_site_fract_z
Si Si1 0.197078 0.915412 0.129307
Si Si2 0.000000 0.699625 0.057734
Si Si3 0.318423 0.332912 0.194781
Si Si4 0.250000 0.750000 0.372755
Si Si5 0.500000 0.592798 0.442502
Si Si6 0.801325 0.000000 0.692382
O O1 0.255308 0.871113 0.159468
O O2 0.330416 0.921121 0.084908
O O3 0.225100 0.956946 0.165655
O O4 0.000000 0.911743 0.115813
O O5 0.852932 0.720092 0.089334
O O6 0.000000 0.646604 0.057879
O O7 0.000000 0.714479 0.000000
O O8 0.500000 0.350190 0.203435
O O9 0.250000 0.326313 0.250000
O O10 0.322760 0.286864 0.164604
O O11 0.500000 0.577690 0.500000
O O12 0.750000 0.000000 0.750000
O O13 0.000000 0.000000 0.687566
#
# Coordination Sequence:
#
# PCOD9513879 Si02
#       6
#    32  16  32  16  16  16
#     4  11  24  45  67 100 138 172 221 282 332 398
#     4  11  24  42  65  92 126 169 224 279 332 387
#     4  11  25  38  60  90 126 172 213 264 329 399
#     4  12  22  40  60  90 128 162 216 268 326 394
#     4  11  24  45  73 100 130 179 225 278 341 394
#     4  12  24  42  72 104 139 181 226 272 330 401
#
# _framework density 19.495918
#
# number of rings (size 3 to 8) (size 9 to 14) (size 15 to 20)
#    0.000    0.750    5.000    2.625    3.500    3.500 
#    0.000    1.250    0.000    1.500    0.000    0.000 
#    0.000    0.000    0.000    0.000    0.000    0.000 
#
# Total GULP energy -178334.838103 kJ/mol
# GULP energy per Si atom -5572.963691 kJ/mol
# Density = 1.945154 g / cm^3
# Si number density = 19.495918 Si / 1000 Ang^3
#
#
#
# Elastic Constant Matrix: (Units=GPa)
#
#
# Indices 1 2 3 4 5 6 
#
# 1 99.7479 6.1799 66.3150 0.0000 0.0000 0.0000
# 2 6.1799 94.4649 34.0243 0.0000 0.0000 0.0000
# 3 66.3150 34.0243 178.9940 0.0000 0.0000 0.0000
# 4 0.0000 0.0000 0.0000 28.7433 0.0000 0.0000
# 5 0.0000 0.0000 0.0000 0.0000 28.1012 0.0000
# 6 0.0000 0.0000 0.0000 0.0000 0.0000 49.8425
#
#
#
# Elastic Compliance Matrix: (Units=1/GPa)
#
#
# Indices 1 2 3 4 5 6 
#
# 1 0.013385 0.000977 -0.005145 0.000000 0.000000 0.000000
# 2 0.000977 0.011435 -0.002536 0.000000 0.000000 0.000000
# 3 -0.005145 -0.002536 0.007975 0.000000 0.000000 0.000000
# 4 0.000000 0.000000 0.000000 0.034791 0.000000 0.000000
# 5 0.000000 0.000000 0.000000 0.000000 0.035586 0.000000
# 6 0.000000 0.000000 0.000000 0.000000 0.000000 0.020063
#
#
# Mechanical properties :
#
#
# Convention : Reuss Voigt Hill
#
# Bulk Modulus (GPa) = 51.57588 65.13835 58.35712
# Shear Modulus (GPa) = 34.93955 39.11658 37.02807
#
# Velocity S-wave (km/s) = 4.23797 4.48414 4.36279
# Velocity P-wave (km/s) = 7.10347 7.76491 7.44154
#
# Compressibility (1/GPa) = 0.01938891
#
# Stress axis : x y z
#
# Youngs Moduli (GPa) = 74.70981 87.44814 125.39360
#
# Poissons Ratio (x) = -0.08547 0.64513
# Poissons Ratio (y) = -0.07302 0.31797
# Poissons Ratio (z) = 0.38437 0.22175
#
# Static dielectric constant tensor:
#      x y z
#    x 1.679140 0.000000 0.000000 
#    y 0.000000 1.661160 0.000000 
#    z 0.000000 0.000000 1.689180 
# 
# From -- ./inp_files/39693.got.cif
#   From: 2010.05.17/outbox.cif.g08.bks.cpg/sg69_20_cif.got.tgz:39693.got - 2010.06.03 19:29:58.
