data_PCOD9513646
_publ_section_title
;
Structure prediction by ZEFSAII (Michael W. Deem and Ramdas Pophale) SiO2 
 PCOD9513646
Probable space group: F M M M
;
_chemical_formula_sum "Si O2"
_cell_formula_units_Z 96
_cell_length_a 25.744545
_cell_length_b 14.419174
_cell_length_c 14.309076
_cell_angle_alpha 90.000000
_cell_angle_beta 90.000000
_cell_angle_gamma 90.000000
_cell_volume 5311.744705
_symmetry_space_group_name_H-M "F M M M"
_symmetry_group_IT_number 69
_symmetry_cell_setting 'orthorhombic'
loop_
_space_group_symop_operation_xyz
x,y,z
-x,-y,z
x,-y,-z
-x,y,-z
-x,-y,-z
x,y,-z
-x,y,z
x,-y,z
x,1/2+y,1/2+z
-x,1/2-y,1/2+z
x,1/2-y,1/2-z
-x,1/2+y,1/2-z
-x,1/2-y,1/2-z
x,1/2+y,1/2-z
-x,1/2+y,1/2+z
x,1/2-y,1/2+z
1/2+x,y,1/2+z
1/2-x,-y,1/2+z
1/2+x,-y,1/2-z
1/2-x,y,1/2-z
1/2-x,-y,1/2-z
1/2+x,y,1/2-z
1/2-x,y,1/2+z
1/2+x,-y,1/2+z
1/2+x,1/2+y,z
1/2-x,1/2-y,z
1/2+x,1/2-y,-z
1/2-x,1/2+y,-z
1/2-x,1/2-y,-z
1/2+x,1/2+y,-z
1/2-x,1/2+y,z
1/2+x,1/2-y,z
loop_
_atom_site_type_symbol
_atom_site_label
_atom_site_fract_x
_atom_site_fract_y
_atom_site_fract_z
Si Si1 0.938843 0.500000 0.860505
Si Si2 0.562655 0.856611 0.500000
Si Si3 0.394870 0.351892 0.500000
Si Si4 0.271093 0.646939 0.500000
Si Si5 0.211288 0.500000 0.601553
Si Si6 0.898956 0.000000 0.152799
O O1 0.914696 0.410190 0.911014
O O2 0.927203 0.500000 0.751365
O O3 0.000000 0.500000 0.878054
O O4 0.500000 0.860075 0.500000
O O5 0.583067 0.751729 0.500000
O O6 0.584004 0.911529 0.590715
O O7 0.332652 0.352961 0.500000
O O8 0.250000 0.750000 0.500000
O O9 0.247951 0.589404 0.588934
O O10 0.182118 0.500000 0.500000
O O11 0.163548 0.500000 0.670841
#
# Coordination Sequence:
#
# PCOD9513646 Si02
#       6
#    16  16  16  16  16  16
#     4  11  23  39  57  83 119 153 189 228 278 336
#     4  11  20  35  58  82 110 147 192 233 280 330
#     4  11  22  39  58  82 114 157 188 229 276 336
#     4   9  16  33  58  80 106 145 184 229 280 328
#     4   8  16  30  54  81 103 133 180 225 277 329
#     4  11  20  37  58  86 112 145 184 239 284 332
#
# _framework density 18.073157999999999
#
# number of rings (size 3 to 8) (size 9 to 14) (size 15 to 20)
#    1.000    0.667    1.667    8.000    0.000    1.333 
#    0.000    6.667    0.000    2.000    0.000    0.000 
#    0.000    0.000    0.000    0.000    0.000    0.000 
#
# Total GULP energy -133732.554648 kJ/mol
# GULP energy per Si atom -5572.189777 kJ/mol
# Density = 1.803202 g / cm^3
# Si number density = 18.073158 Si / 1000 Ang^3
#
#
#
# Elastic Constant Matrix: (Units=GPa)
#
#
# Indices 1 2 3 4 5 6 
#
# 1 189.5039 76.5198 36.8113 0.0000 0.0000 0.0000
# 2 76.5198 193.6807 54.7654 0.0000 0.0000 0.0000
# 3 36.8113 54.7654 93.4041 0.0000 0.0000 0.0000
# 4 0.0000 0.0000 0.0000 0.4280 0.0000 0.0000
# 5 0.0000 0.0000 0.0000 0.0000 -27.2389 0.0000
# 6 0.0000 0.0000 0.0000 0.0000 0.0000 35.6582
#
#
#
# Elastic Compliance Matrix: (Units=1/GPa)
#
#
# Indices 1 2 3 4 5 6 
#
# 1 0.006397 -0.002175 -0.001246 0.000000 0.000000 0.000000
# 2 -0.002175 0.006929 -0.003205 0.000000 0.000000 0.000000
# 3 -0.001246 -0.003205 0.013077 0.000000 0.000000 0.000000
# 4 0.000000 0.000000 0.000000 2.336510 0.000000 0.000000
# 5 0.000000 0.000000 0.000000 0.000000 -0.036712 0.000000
# 6 0.000000 0.000000 0.000000 0.000000 0.000000 0.028044
#
#
# Mechanical properties :
#
#
# Convention : Reuss Voigt Hill
#
# Bulk Modulus (GPa) = 76.04587 90.30908 83.17748
# Shear Modulus (GPa) = 2.10803 22.33561 12.22182
#
# Velocity S-wave (km/s) = 1.08117 3.51927 2.60329
# Velocity P-wave (km/s) = 6.61261 8.16032 7.42689
#
# Compressibility (1/GPa) = 0.01314996
#
# Stress axis : x y z
#
# Youngs Moduli (GPa) = 156.31712 144.32419 76.47289
#
# Poissons Ratio (x) = 0.31393 0.09527
# Poissons Ratio (y) = 0.34002 0.24512
# Poissons Ratio (z) = 0.19475 0.46261
#
# Static dielectric constant tensor:
#      x y z
#    x 1.623110 0.000000 0.000000 
#    y 0.000000 1.623570 0.000000 
#    z 0.000000 0.000000 1.619920 
# 
# From -- ./inp_files/17217.got.cif
#   From: 2010.05.17/outbox.cif.g08.bks.cpg/sg69_9_cif.got.tgz:17217.got - 2010.06.03 19:29:58.
