data_PCOD9513834
_publ_section_title
;
Structure prediction by ZEFSAII (Michael W. Deem and Ramdas Pophale) SiO2 
 PCOD9513834
Probable space group: F M M M
;
_chemical_formula_sum "Si O2"
_cell_formula_units_Z 168
_cell_length_a 33.267294
_cell_length_b 19.957413
_cell_length_c 13.741219
_cell_angle_alpha 90.000000
_cell_angle_beta 90.000000
_cell_angle_gamma 90.000000
_cell_volume 9123.195517
_symmetry_space_group_name_H-M "F M M M"
_symmetry_group_IT_number 69
_symmetry_cell_setting 'orthorhombic'
loop_
_space_group_symop_operation_xyz
x,y,z
-x,-y,z
x,-y,-z
-x,y,-z
-x,-y,-z
x,y,-z
-x,y,z
x,-y,z
x,1/2+y,1/2+z
-x,1/2-y,1/2+z
x,1/2-y,1/2-z
-x,1/2+y,1/2-z
-x,1/2-y,1/2-z
x,1/2+y,1/2-z
-x,1/2+y,1/2+z
x,1/2-y,1/2+z
1/2+x,y,1/2+z
1/2-x,-y,1/2+z
1/2+x,-y,1/2-z
1/2-x,y,1/2-z
1/2-x,-y,1/2-z
1/2+x,y,1/2-z
1/2-x,y,1/2+z
1/2+x,-y,1/2+z
1/2+x,1/2+y,z
1/2-x,1/2-y,z
1/2+x,1/2-y,-z
1/2-x,1/2+y,-z
1/2-x,1/2-y,-z
1/2+x,1/2+y,-z
1/2-x,1/2+y,z
1/2+x,1/2-y,z
loop_
_atom_site_type_symbol
_atom_site_label
_atom_site_fract_x
_atom_site_fract_y
_atom_site_fract_z
Si Si1 0.808317 0.833715 0.883181
Si Si2 0.763524 0.575017 0.883128
Si Si3 0.952014 0.076548 0.115699
Si Si4 0.250000 0.250000 0.750000
Si Si5 0.607851 0.828873 0.272272
Si Si6 0.648337 0.580723 0.616602
O O1 0.779920 0.897170 0.857883
O O2 0.781724 0.779828 0.827140
O O3 0.852881 0.835334 0.841355
O O4 0.808902 0.824728 0.000000
O O5 0.766450 0.500000 0.848907
O O6 0.806432 0.606917 0.856465
O O7 0.764459 0.575492 0.000000
O O8 0.928436 0.133187 0.174096
O O9 0.000000 0.081633 0.130064
O O10 0.939793 0.000000 0.143477
O O11 0.944278 0.083362 0.000000
O O12 0.601215 0.750000 0.250000
O O13 0.618323 0.872579 0.176336
O O14 0.643431 0.587193 0.500000
O O15 0.645121 0.500000 0.637836
#
# Coordination Sequence:
#
# PCOD9513834 Si02
#       6
#    32  32  32   8  32  32
#     4  11  23  37  53  77 113 154 199 247 292 342
#     4   8  16  32  53  74  99 141 195 248 296 332
#     4   9  20  42  70  94 116 146 186 239 305 367
#     4  12  22  40  50  74 106 168 210 234 284 330
#     4  12  24  37  55  90 124 155 196 237 295 356
#     4   9  19  37  58  80 113 160 208 252 295 346
#
# _framework density 18.4146
#
# number of rings (size 3 to 8) (size 9 to 14) (size 15 to 20)
#    0.000    2.095    0.952    4.286    0.000    3.429 
#    0.000    4.286    0.000    0.571    0.000    2.667 
#    0.000    0.000    0.000    0.000    0.000    0.000 
#
# Total GULP energy -233939.576171 kJ/mol
# GULP energy per Si atom -5569.989909 kJ/mol
# Density = 1.837269 g / cm^3
# Si number density = 18.414600 Si / 1000 Ang^3
#
#
#
# Elastic Constant Matrix: (Units=GPa)
#
#
# Indices 1 2 3 4 5 6 
#
# 1 80.5927 60.5093 37.8381 0.0000 0.0000 0.0000
# 2 60.5093 118.6467 54.0289 0.0000 0.0000 0.0000
# 3 37.8381 54.0289 89.1337 0.0000 0.0000 0.0000
# 4 0.0000 0.0000 0.0000 27.1883 0.0000 0.0000
# 5 0.0000 0.0000 0.0000 0.0000 33.0633 0.0000
# 6 0.0000 0.0000 0.0000 0.0000 0.0000 32.7881
#
#
#
# Elastic Compliance Matrix: (Units=1/GPa)
#
#
# Indices 1 2 3 4 5 6 
#
# 1 0.020792 -0.009095 -0.003313 0.000000 0.000000 0.000000
# 2 -0.009095 0.015620 -0.005607 0.000000 0.000000 0.000000
# 3 -0.003313 -0.005607 0.016025 0.000000 0.000000 0.000000
# 4 0.000000 0.000000 0.000000 0.036781 0.000000 0.000000
# 5 0.000000 0.000000 0.000000 0.000000 0.030245 0.000000
# 6 0.000000 0.000000 0.000000 0.000000 0.000000 0.030499
#
#
# Mechanical properties :
#
#
# Convention : Reuss Voigt Hill
#
# Bulk Modulus (GPa) = 60.95571 65.90287 63.42929
# Shear Modulus (GPa) = 26.11478 27.67438 26.89458
#
# Velocity S-wave (km/s) = 3.76993 3.88087 3.82580
# Velocity P-wave (km/s) = 7.21966 7.47981 7.35089
#
# Compressibility (1/GPa) = 0.01640535
#
# Stress axis : x y z
#
# Youngs Moduli (GPa) = 48.09444 64.01903 62.40386
#
# Poissons Ratio (x) = 0.58226 0.20677
# Poissons Ratio (y) = 0.43743 0.34992
# Poissons Ratio (z) = 0.15936 0.35898
#
# Static dielectric constant tensor:
#      x y z
#    x 1.635520 0.000000 0.000000 
#    y 0.000000 1.581320 0.000000 
#    z 0.000000 0.000000 1.610490 
# 
# From -- ./inp_files/18822.got.cif
#   From: 2010.05.17/outbox.cif.g08.bks.cpg/sg69_10_cif.got.tgz:18822.got - 2010.06.03 19:29:58.
