data_PCOD9513174
_publ_section_title
;
Structure prediction by ZEFSAII (Michael W. Deem and Ramdas Pophale) SiO2 
 PCOD9513174
Probable space group: F M M M
;
_chemical_formula_sum "Si O2"
_cell_formula_units_Z 160
_cell_length_a 8.325292
_cell_length_b 33.521397
_cell_length_c 29.944040
_cell_angle_alpha 90.000000
_cell_angle_beta 90.000000
_cell_angle_gamma 90.000000
_cell_volume 8356.645488
_symmetry_space_group_name_H-M "F M M M"
_symmetry_group_IT_number 69
_symmetry_cell_setting 'orthorhombic'
loop_
_space_group_symop_operation_xyz
x,y,z
-x,-y,z
x,-y,-z
-x,y,-z
-x,-y,-z
x,y,-z
-x,y,z
x,-y,z
x,1/2+y,1/2+z
-x,1/2-y,1/2+z
x,1/2-y,1/2-z
-x,1/2+y,1/2-z
-x,1/2-y,1/2-z
x,1/2+y,1/2-z
-x,1/2+y,1/2+z
x,1/2-y,1/2+z
1/2+x,y,1/2+z
1/2-x,-y,1/2+z
1/2+x,-y,1/2-z
1/2-x,y,1/2-z
1/2-x,-y,1/2-z
1/2+x,y,1/2-z
1/2-x,y,1/2+z
1/2+x,-y,1/2+z
1/2+x,1/2+y,z
1/2-x,1/2-y,z
1/2+x,1/2-y,-z
1/2-x,1/2+y,-z
1/2-x,1/2-y,-z
1/2+x,1/2+y,-z
1/2-x,1/2+y,z
1/2+x,1/2-y,z
loop_
_atom_site_type_symbol
_atom_site_label
_atom_site_fract_x
_atom_site_fract_y
_atom_site_fract_z
Si Si1 0.305773 0.085774 0.700553
Si Si2 0.191182 0.000000 0.333961
Si Si3 0.317654 0.140433 0.380365
Si Si4 0.808496 0.204979 0.550497
Si Si5 0.311928 0.500000 0.066765
Si Si6 0.183417 0.914844 0.550013
O O1 0.500000 0.083301 0.697827
O O2 0.250000 0.097026 0.750000
O O3 0.250510 0.119141 0.664330
O O4 0.236351 0.041517 0.690235
O O5 0.289075 0.000000 0.379989
O O6 0.000000 0.000000 0.342747
O O7 0.500000 0.152026 0.370623
O O8 0.240024 0.176413 0.408520
O O9 0.306266 0.104954 0.416393
O O10 0.748127 0.193738 0.500000
O O11 0.750000 0.250000 0.558482
O O12 0.000000 0.204338 0.548376
O O13 0.500000 0.500000 0.055142
O O14 0.222551 0.461153 0.049399
O O15 0.196782 0.898664 0.500000
O O16 0.000000 0.907846 0.565455
#
# Coordination Sequence:
#
# PCOD9513174 Si02
#       6
#    32  16  32  32  16  32
#     4  11  24  41  61  86 116 152 197 248 300 355
#     4  12  23  38  61  83 111 152 197 250 304 352
#     4  11  23  38  59  86 118 152 191 239 291 346
#     4  10  21  38  62  92 125 159 195 234 281 342
#     4  12  23  36  53  76 108 149 194 240 290 344
#     4  11  23  37  54  78 110 151 196 237 284 343
#
# _framework density 19.146439999999998
#
# number of rings (size 3 to 8) (size 9 to 14) (size 15 to 20)
#    0.000    1.000    2.000    5.400    0.000    8.800 
#    0.000    0.000    0.000    0.600    0.000    4.200 
#    0.000    0.000    0.000    0.000    0.000    0.000 
#
# Total GULP energy -223323.785817 kJ/mol
# GULP energy per Si atom -5583.094645 kJ/mol
# Density = 1.910286 g / cm^3
# Si number density = 19.146440 Si / 1000 Ang^3
#
#
#
# Elastic Constant Matrix: (Units=GPa)
#
#
# Indices 1 2 3 4 5 6 
#
# 1 56.8920 14.9239 22.7508 0.0000 0.0000 0.0000
# 2 14.9239 130.0833 61.8988 0.0000 0.0000 0.0000
# 3 22.7508 61.8988 140.8202 0.0000 0.0000 0.0000
# 4 0.0000 0.0000 0.0000 59.6510 0.0000 0.0000
# 5 0.0000 0.0000 0.0000 0.0000 20.9874 0.0000
# 6 0.0000 0.0000 0.0000 0.0000 0.0000 29.5218
#
#
#
# Elastic Compliance Matrix: (Units=1/GPa)
#
#
# Indices 1 2 3 4 5 6 
#
# 1 0.018875 -0.000903 -0.002652 0.000000 0.000000 0.000000
# 2 -0.000903 0.009764 -0.004146 0.000000 0.000000 0.000000
# 3 -0.002652 -0.004146 0.009352 0.000000 0.000000 0.000000
# 4 0.000000 0.000000 0.000000 0.016764 0.000000 0.000000
# 5 0.000000 0.000000 0.000000 0.000000 0.047648 0.000000
# 6 0.000000 0.000000 0.000000 0.000000 0.000000 0.033873
#
#
# Mechanical properties :
#
#
# Convention : Reuss Voigt Hill
#
# Bulk Modulus (GPa) = 44.27190 58.54915 51.41053
# Shear Modulus (GPa) = 31.40548 37.24685 34.32617
#
# Velocity S-wave (km/s) = 4.05443 4.41542 4.23877
# Velocity P-wave (km/s) = 6.71497 7.52599 7.13202
#
# Compressibility (1/GPa) = 0.02258769
#
# Stress axis : x y z
#
# Youngs Moduli (GPa) = 52.98073 102.41963 106.92803
#
# Poissons Ratio (x) = 0.09252 0.28361
# Poissons Ratio (y) = 0.04786 0.44330
# Poissons Ratio (z) = 0.14052 0.42461
#
# Static dielectric constant tensor:
#      x y z
#    x 1.665060 0.000000 0.000000 
#    y 0.000000 1.675830 0.000000 
#    z 0.000000 0.000000 1.686040 
# 
# From -- ./inp_files/5737.got.cif
#   From: 2010.05.17/outbox.cif.g08.bks.cpg/sg69_3_cif.got.tgz:5737.got - 2010.06.03 19:29:58.
