data_PCOD9513118
_publ_section_title
;
Structure prediction by ZEFSAII (Michael W. Deem and Ramdas Pophale) SiO2 
 PCOD9513118
Probable space group: F M M M
;
_chemical_formula_sum "Si O2"
_cell_formula_units_Z 168
_cell_length_a 15.417319
_cell_length_b 27.911459
_cell_length_c 20.402171
_cell_angle_alpha 90.000000
_cell_angle_beta 90.000000
_cell_angle_gamma 90.000000
_cell_volume 8779.459514
_symmetry_space_group_name_H-M "F M M M"
_symmetry_group_IT_number 69
_symmetry_cell_setting 'orthorhombic'
loop_
_space_group_symop_operation_xyz
x,y,z
-x,-y,z
x,-y,-z
-x,y,-z
-x,-y,-z
x,y,-z
-x,y,z
x,-y,z
x,1/2+y,1/2+z
-x,1/2-y,1/2+z
x,1/2-y,1/2-z
-x,1/2+y,1/2-z
-x,1/2-y,1/2-z
x,1/2+y,1/2-z
-x,1/2+y,1/2+z
x,1/2-y,1/2+z
1/2+x,y,1/2+z
1/2-x,-y,1/2+z
1/2+x,-y,1/2-z
1/2-x,y,1/2-z
1/2-x,-y,1/2-z
1/2+x,y,1/2-z
1/2-x,y,1/2+z
1/2+x,-y,1/2+z
1/2+x,1/2+y,z
1/2-x,1/2-y,z
1/2+x,1/2-y,-z
1/2-x,1/2+y,-z
1/2-x,1/2-y,-z
1/2+x,1/2+y,-z
1/2-x,1/2+y,z
1/2+x,1/2-y,z
loop_
_atom_site_type_symbol
_atom_site_label
_atom_site_fract_x
_atom_site_fract_y
_atom_site_fract_z
Si Si1 0.243484 0.945203 0.671563
Si Si2 0.500000 0.364426 0.500000
Si Si3 0.897146 0.262037 0.177556
Si Si4 0.650170 0.356509 0.390659
Si Si5 0.666237 0.687111 0.072524
Si Si6 0.900203 0.082043 0.923394
O O1 0.250000 0.937050 0.750000
O O2 0.178405 0.906291 0.641820
O O3 0.333207 0.938410 0.630230
O O4 0.214778 0.000000 0.662042
O O5 0.575770 0.363260 0.443274
O O6 0.866404 0.250000 0.250000
O O7 0.880119 0.317196 0.161710
O O8 0.851749 0.227455 0.125486
O O9 0.000000 0.252750 0.173075
O O10 0.736906 0.333527 0.421957
O O11 0.607179 0.639888 0.081844
O O12 0.650572 0.707169 0.000000
O O13 0.000000 0.067237 0.912935
O O14 0.876615 0.070345 0.000000
#
# Coordination Sequence:
#
# PCOD9513118 Si02
#       6
#    32   8  32  32  32  32
#     4  10  24  46  69  94 127 170 217 269 332 394
#     4  12  24  48  65  96 138 178 226 278 327 390
#     4  11  25  39  58  93 133 172 216 265 323 386
#     4  11  24  42  66  91 129 170 217 273 327 382
#     4  10  21  37  63  93 124 169 217 259 319 388
#     4   9  19  38  66 100 130 160 204 265 329 385
#
# _framework density 19.135573999999998
#
# number of rings (size 3 to 8) (size 9 to 14) (size 15 to 20)
#    0.000    1.714    1.905    1.143    8.000    3.429 
#    1.714    1.905    0.000    0.000    0.000    0.000 
#    0.000    0.000    0.000    0.000    0.000    0.000 
#
# Total GULP energy -234049.206171 kJ/mol
# GULP energy per Si atom -5572.600147 kJ/mol
# Density = 1.909202 g / cm^3
# Si number density = 19.135574 Si / 1000 Ang^3
#
#
#
# Elastic Constant Matrix: (Units=GPa)
#
#
# Indices 1 2 3 4 5 6 
#
# 1 110.9534 49.6225 68.1153 0.0000 0.0000 0.0000
# 2 49.6225 124.4515 95.9596 0.0000 0.0000 0.0000
# 3 68.1153 95.9596 179.5826 0.0000 0.0000 0.0000
# 4 0.0000 0.0000 0.0000 10.6043 0.0000 0.0000
# 5 0.0000 0.0000 0.0000 0.0000 38.5574 0.0000
# 6 0.0000 0.0000 0.0000 0.0000 0.0000 8.5506
#
#
#
# Elastic Compliance Matrix: (Units=1/GPa)
#
#
# Indices 1 2 3 4 5 6 
#
# 1 0.012088 -0.002185 -0.003418 0.000000 0.000000 0.000000
# 2 -0.002185 0.014061 -0.006685 0.000000 0.000000 0.000000
# 3 -0.003418 -0.006685 0.010437 0.000000 0.000000 0.000000
# 4 0.000000 0.000000 0.000000 0.094301 0.000000 0.000000
# 5 0.000000 0.000000 0.000000 0.000000 0.025935 0.000000
# 6 0.000000 0.000000 0.000000 0.000000 0.000000 0.116950
#
#
# Mechanical properties :
#
#
# Convention : Reuss Voigt Hill
#
# Bulk Modulus (GPa) = 83.25361 93.59805 88.42583
# Shear Modulus (GPa) = 16.53713 24.96181 20.74947
#
# Velocity S-wave (km/s) = 2.94293 3.61566 3.29650
# Velocity P-wave (km/s) = 7.42627 8.15169 7.79742
#
# Compressibility (1/GPa) = 0.01201149
#
# Stress axis : x y z
#
# Youngs Moduli (GPa) = 82.72721 71.12077 95.81626
#
# Poissons Ratio (x) = 0.15538 0.32746
# Poissons Ratio (y) = 0.18073 0.64049
# Poissons Ratio (z) = 0.28272 0.47541
#
# Static dielectric constant tensor:
#      x y z
#    x 1.673080 0.000000 0.000000 
#    y 0.000000 1.656690 0.000000 
#    z 0.000000 0.000000 1.640030 
# 
# From -- ./inp_files/16931.got.cif
#   From: 2010.05.17/outbox.cif.g08.bks.cpg/sg69_9_cif.got.tgz:16931.got - 2010.06.03 19:29:58.
