data_PCOD9513258
_publ_section_title
;
Structure prediction by ZEFSAII (Michael W. Deem and Ramdas Pophale) SiO2 
 PCOD9513258
Probable space group: F M M M
;
_chemical_formula_sum "Si O2"
_cell_formula_units_Z 112
_cell_length_a 15.265852
_cell_length_b 16.833337
_cell_length_c 17.855087
_cell_angle_alpha 90.000000
_cell_angle_beta 90.000000
_cell_angle_gamma 90.000000
_cell_volume 4588.315112
_symmetry_space_group_name_H-M "F M M M"
_symmetry_group_IT_number 69
_symmetry_cell_setting 'orthorhombic'
loop_
_space_group_symop_operation_xyz
x,y,z
-x,-y,z
x,-y,-z
-x,y,-z
-x,-y,-z
x,y,-z
-x,y,z
x,-y,z
x,1/2+y,1/2+z
-x,1/2-y,1/2+z
x,1/2-y,1/2-z
-x,1/2+y,1/2-z
-x,1/2-y,1/2-z
x,1/2+y,1/2-z
-x,1/2+y,1/2+z
x,1/2-y,1/2+z
1/2+x,y,1/2+z
1/2-x,-y,1/2+z
1/2+x,-y,1/2-z
1/2-x,y,1/2-z
1/2-x,-y,1/2-z
1/2+x,y,1/2-z
1/2-x,y,1/2+z
1/2+x,-y,1/2+z
1/2+x,1/2+y,z
1/2-x,1/2-y,z
1/2+x,1/2-y,-z
1/2-x,1/2+y,-z
1/2-x,1/2-y,-z
1/2+x,1/2+y,-z
1/2-x,1/2+y,z
1/2+x,1/2-y,z
loop_
_atom_site_type_symbol
_atom_site_label
_atom_site_fract_x
_atom_site_fract_y
_atom_site_fract_z
Si Si1 0.841723 0.204622 0.632482
Si Si2 0.894105 0.406454 0.000000
Si Si3 0.099586 0.868753 0.082884
Si Si4 0.106376 0.587040 0.257862
O O1 0.750000 0.250000 0.632344
O O2 0.852465 0.135719 0.571747
O O3 0.903961 0.275749 0.604550
O O4 0.860903 0.161600 0.710576
O O5 0.879132 0.500000 0.000000
O O6 0.000000 0.393786 0.000000
O O7 0.140020 0.907997 0.156667
O O8 0.000000 0.898903 0.078294
O O9 0.139599 0.878547 0.000000
O O10 0.129584 0.500000 0.226536
O O11 0.000000 0.591949 0.258457
#
# Coordination Sequence:
#
# PCOD9513258 Si02
#       4
#    32  16  32  32
#     4  12  24  40  64 100 139 179 225 279 340 416
#     4  11  23  42  72 104 137 179 228 288 348 403
#     4  10  21  39  66  97 132 179 233 283 338 407
#     4  10  22  42  69 100 134 177 233 292 341 394
#
# _framework density 24.409832000000002
#
# number of rings (size 3 to 8) (size 9 to 14) (size 15 to 20)
#    0.000    1.286    1.429    4.714    0.000    7.429 
#    0.000    7.143    0.000    0.000    0.000    0.000 
#    0.000    0.000    0.000    0.000    0.000    0.000 
#
# Total GULP energy -156644.561648 kJ/mol
# GULP energy per Si atom -5594.448630 kJ/mol
# Density = 2.435427 g / cm^3
# Si number density = 24.409832 Si / 1000 Ang^3
#
#
#
# Elastic Constant Matrix: (Units=GPa)
#
#
# Indices 1 2 3 4 5 6 
#
# 1 89.8554 44.5626 32.5706 0.0000 0.0000 0.0000
# 2 44.5626 162.7965 60.8507 0.0000 0.0000 0.0000
# 3 32.5706 60.8507 170.3801 0.0000 0.0000 0.0000
# 4 0.0000 0.0000 0.0000 43.3686 0.0000 0.0000
# 5 0.0000 0.0000 0.0000 0.0000 70.2419 0.0000
# 6 0.0000 0.0000 0.0000 0.0000 0.0000 21.8565
#
#
#
# Elastic Compliance Matrix: (Units=1/GPa)
#
#
# Indices 1 2 3 4 5 6 
#
# 1 0.013168 -0.003074 -0.001419 0.000000 0.000000 0.000000
# 2 -0.003074 0.007807 -0.002200 0.000000 0.000000 0.000000
# 3 -0.001419 -0.002200 0.006926 0.000000 0.000000 0.000000
# 4 0.000000 0.000000 0.000000 0.023058 0.000000 0.000000
# 5 0.000000 0.000000 0.000000 0.000000 0.014237 0.000000
# 6 0.000000 0.000000 0.000000 0.000000 0.000000 0.045753
#
#
# Mechanical properties :
#
#
# Convention : Reuss Voigt Hill
#
# Bulk Modulus (GPa) = 68.90189 77.66663 73.28426
# Shear Modulus (GPa) = 38.70748 46.09661 42.40205
#
# Velocity S-wave (km/s) = 3.98645 4.35034 4.17236
# Velocity P-wave (km/s) = 7.03402 7.55783 7.30062
#
# Compressibility (1/GPa) = 0.01451339
#
# Stress axis : x y z
#
# Youngs Moduli (GPa) = 75.94181 128.09718 144.37396
#
# Poissons Ratio (x) = 0.39376 0.20492
# Poissons Ratio (y) = 0.23344 0.31769
# Poissons Ratio (z) = 0.10779 0.28187
#
# Static dielectric constant tensor:
#      x y z
#    x 2.006290 0.000000 0.000000 
#    y 0.000000 1.902050 0.000000 
#    z 0.000000 0.000000 1.974610 
# 
# From -- ./inp_files/22334.got.cif
#   From: 2010.05.17/outbox.cif.g08.bks.cpg/sg69_12_cif.got.tgz:22334.got - 2010.06.03 19:29:58.
