data_PCOD9513447
_publ_section_title
;
Structure prediction by ZEFSAII (Michael W. Deem and Ramdas Pophale) SiO2 
 PCOD9513447
Probable space group: F M M M
;
_chemical_formula_sum "Si O2"
_cell_formula_units_Z 160
_cell_length_a 22.136901
_cell_length_b 18.314610
_cell_length_c 18.827600
_cell_angle_alpha 90.000000
_cell_angle_beta 90.000000
_cell_angle_gamma 90.000000
_cell_volume 7633.249551
_symmetry_space_group_name_H-M "F M M M"
_symmetry_group_IT_number 69
_symmetry_cell_setting 'orthorhombic'
loop_
_space_group_symop_operation_xyz
x,y,z
-x,-y,z
x,-y,-z
-x,y,-z
-x,-y,-z
x,y,-z
-x,y,z
x,-y,z
x,1/2+y,1/2+z
-x,1/2-y,1/2+z
x,1/2-y,1/2-z
-x,1/2+y,1/2-z
-x,1/2-y,1/2-z
x,1/2+y,1/2-z
-x,1/2+y,1/2+z
x,1/2-y,1/2+z
1/2+x,y,1/2+z
1/2-x,-y,1/2+z
1/2+x,-y,1/2-z
1/2-x,y,1/2-z
1/2-x,-y,1/2-z
1/2+x,y,1/2-z
1/2-x,y,1/2+z
1/2+x,-y,1/2+z
1/2+x,1/2+y,z
1/2-x,1/2-y,z
1/2+x,1/2-y,-z
1/2-x,1/2+y,-z
1/2-x,1/2-y,-z
1/2+x,1/2+y,-z
1/2-x,1/2+y,z
1/2+x,1/2-y,z
loop_
_atom_site_type_symbol
_atom_site_label
_atom_site_fract_x
_atom_site_fract_y
_atom_site_fract_z
Si Si1 0.774825 0.332541 0.916461
Si Si2 0.066068 0.000000 0.914723
Si Si3 0.569626 0.178056 0.297028
Si Si4 0.619494 0.088497 0.830267
Si Si5 0.000000 0.588163 0.920001
Si Si6 0.858239 0.142100 0.082048
O O1 0.750000 0.250000 0.901845
O O2 0.824383 0.368204 0.865482
O O3 0.711808 0.375750 0.909232
O O4 0.794063 0.334269 0.000000
O O5 0.102859 0.071669 0.898886
O O6 0.000000 0.000000 0.882192
O O7 0.060409 0.000000 0.000000
O O8 0.500000 0.158629 0.316102
O O9 0.566224 0.250000 0.250000
O O10 0.602550 0.117438 0.248051
O O11 0.612165 0.198283 0.363779
O O12 0.560260 0.107095 0.877266
O O13 0.628580 0.000000 0.831251
O O14 0.000000 0.500000 0.924325
O O15 0.000000 0.617809 0.000000
O O16 0.867035 0.163317 0.000000
#
# Coordination Sequence:
#
# PCOD9513447 Si02
#       6
#    32  16  32  32  16  32
#     4  10  22  41  66  96 135 179 224 272 328 400
#     4   9  18  34  58  89 120 157 209 268 327 375
#     4  11  24  42  65  93 136 178 220 275 341 409
#     4  11  23  40  66  98 131 175 223 275 346 405
#     4   9  18  36  61  94 131 167 217 274 326 390
#     4  10  22  40  64  93 128 167 219 274 326 392
#
# _framework density 20.960927999999999
#
# number of rings (size 3 to 8) (size 9 to 14) (size 15 to 20)
#    0.000    1.800    1.000    2.400    2.800    3.200 
#    0.000    4.000    0.000    0.000    0.000    0.000 
#    0.000    0.000    0.000    0.000    0.000    0.000 
#
# Total GULP energy -223201.601370 kJ/mol
# GULP energy per Si atom -5580.040034 kJ/mol
# Density = 2.091322 g / cm^3
# Si number density = 20.960928 Si / 1000 Ang^3
#
#
#
# Elastic Constant Matrix: (Units=GPa)
#
#
# Indices 1 2 3 4 5 6 
#
# 1 155.2503 37.8408 78.4487 0.0000 0.0000 0.0000
# 2 37.8408 64.9601 11.2749 0.0000 0.0000 0.0000
# 3 78.4487 11.2749 135.7399 0.0000 0.0000 0.0000
# 4 0.0000 0.0000 0.0000 23.5371 0.0000 0.0000
# 5 0.0000 0.0000 0.0000 0.0000 31.2358 0.0000
# 6 0.0000 0.0000 0.0000 0.0000 0.0000 32.7481
#
#
#
# Elastic Compliance Matrix: (Units=1/GPa)
#
#
# Indices 1 2 3 4 5 6 
#
# 1 0.010572 -0.005173 -0.005680 0.000000 0.000000 0.000000
# 2 -0.005173 0.018150 0.001482 0.000000 0.000000 0.000000
# 3 -0.005680 0.001482 0.010527 0.000000 0.000000 0.000000
# 4 0.000000 0.000000 0.000000 0.042486 0.000000 0.000000
# 5 0.000000 0.000000 0.000000 0.000000 0.032015 0.000000
# 6 0.000000 0.000000 0.000000 0.000000 0.000000 0.030536
#
#
# Mechanical properties :
#
#
# Convention : Reuss Voigt Hill
#
# Bulk Modulus (GPa) = 48.76443 67.89767 58.33105
# Shear Modulus (GPa) = 29.43524 32.72992 31.08258
#
# Velocity S-wave (km/s) = 3.75145 3.95583 3.85500
# Velocity P-wave (km/s) = 6.48687 7.30258 6.90678
#
# Compressibility (1/GPa) = 0.02050675
#
# Stress axis : x y z
#
# Youngs Moduli (GPa) = 94.58594 55.09616 94.99478
#
# Poissons Ratio (x) = 0.28500 0.53962
# Poissons Ratio (y) = 0.48927 -0.14077
# Poissons Ratio (z) = 0.53729 -0.08165
#
# Static dielectric constant tensor:
#      x y z
#    x 1.740950 0.000000 0.000000 
#    y 0.000000 1.834180 0.000000 
#    z 0.000000 0.000000 1.777080 
# 
# From -- ./inp_files/31766.got.cif
#   From: 2010.05.17/outbox.cif.g08.bks.cpg/sg69_16_cif.got.tgz:31766.got - 2010.06.03 19:29:58.
