data_PCOD9513148
_publ_section_title
;
Structure prediction by ZEFSAII (Michael W. Deem and Ramdas Pophale) SiO2 
 PCOD9513148
Probable space group: F M M M
;
_chemical_formula_sum "Si O2"
_cell_formula_units_Z 160
_cell_length_a 8.568373
_cell_length_b 33.454332
_cell_length_c 29.767608
_cell_angle_alpha 90.000000
_cell_angle_beta 90.000000
_cell_angle_gamma 90.000000
_cell_volume 8532.860872
_symmetry_space_group_name_H-M "F M M M"
_symmetry_group_IT_number 69
_symmetry_cell_setting 'orthorhombic'
loop_
_space_group_symop_operation_xyz
x,y,z
-x,-y,z
x,-y,-z
-x,y,-z
-x,-y,-z
x,y,-z
-x,y,z
x,-y,z
x,1/2+y,1/2+z
-x,1/2-y,1/2+z
x,1/2-y,1/2-z
-x,1/2+y,1/2-z
-x,1/2-y,1/2-z
x,1/2+y,1/2-z
-x,1/2+y,1/2+z
x,1/2-y,1/2+z
1/2+x,y,1/2+z
1/2-x,-y,1/2+z
1/2+x,-y,1/2-z
1/2-x,y,1/2-z
1/2-x,-y,1/2-z
1/2+x,y,1/2-z
1/2-x,y,1/2+z
1/2+x,-y,1/2+z
1/2+x,1/2+y,z
1/2-x,1/2-y,z
1/2+x,1/2-y,-z
1/2-x,1/2+y,-z
1/2-x,1/2-y,-z
1/2+x,1/2+y,-z
1/2-x,1/2+y,z
1/2+x,1/2-y,z
loop_
_atom_site_type_symbol
_atom_site_label
_atom_site_fract_x
_atom_site_fract_y
_atom_site_fract_z
Si Si1 0.186121 0.089097 0.700784
Si Si2 0.188870 0.000000 0.334051
Si Si3 0.320702 0.140285 0.380943
Si Si4 0.812849 0.205209 0.551230
Si Si5 0.315745 0.500000 0.066857
Si Si6 0.177909 0.915775 0.550284
O O1 0.250000 0.098622 0.750000
O O2 0.247709 0.120634 0.663781
O O3 0.000000 0.091117 0.700530
O O4 0.226983 0.042399 0.689682
O O5 0.284852 0.000000 0.379953
O O6 0.000000 0.000000 0.342491
O O7 0.500000 0.149853 0.372349
O O8 0.242628 0.177062 0.407939
O O9 0.299051 0.105359 0.417514
O O10 0.761523 0.193199 0.500000
O O11 0.750000 0.250000 0.557928
O O12 0.000000 0.204985 0.551129
O O13 0.500000 0.500000 0.056662
O O14 0.227498 0.461402 0.048913
O O15 0.180533 0.899169 0.500000
O O16 0.000000 0.911306 0.567827
#
# Coordination Sequence:
#
# PCOD9513148 Si02
#       6
#    32  16  32  32  16  32
#     4  11  23  40  62  87 117 155 200 251 306 360
#     4  10  21  38  60  81 112 155 198 246 304 359
#     4  12  24  38  59  88 120 154 196 245 295 350
#     4  10  21  39  64  94 127 162 198 238 289 349
#     4  12  23  34  53  78 109 148 194 244 292 349
#     4  11  23  38  55  76 109 154 198 240 292 351
#
# _framework density 18.751038999999999
#
# number of rings (size 3 to 8) (size 9 to 14) (size 15 to 20)
#    0.000    1.000    2.000    5.700    0.000    7.200 
#    0.000    0.000    0.000    0.600    0.000    4.200 
#    0.000    0.000    0.000    0.000    0.000    0.000 
#
# Total GULP energy -223346.023704 kJ/mol
# GULP energy per Si atom -5583.650593 kJ/mol
# Density = 1.870836 g / cm^3
# Si number density = 18.751039 Si / 1000 Ang^3
#
#
#
# Elastic Constant Matrix: (Units=GPa)
#
#
# Indices 1 2 3 4 5 6 
#
# 1 74.5857 27.5256 46.6646 0.0000 0.0000 0.0000
# 2 27.5256 126.5332 63.3236 0.0000 0.0000 0.0000
# 3 46.6646 63.3236 149.0297 0.0000 0.0000 0.0000
# 4 0.0000 0.0000 0.0000 6.0112 0.0000 0.0000
# 5 0.0000 0.0000 0.0000 0.0000 28.3910 0.0000
# 6 0.0000 0.0000 0.0000 0.0000 0.0000 29.7128
#
#
#
# Elastic Compliance Matrix: (Units=1/GPa)
#
#
# Indices 1 2 3 4 5 6 
#
# 1 0.016841 -0.001301 -0.004720 0.000000 0.000000 0.000000
# 2 -0.001301 0.010138 -0.003900 0.000000 0.000000 0.000000
# 3 -0.004720 -0.003900 0.009845 0.000000 0.000000 0.000000
# 4 0.000000 0.000000 0.000000 0.166356 0.000000 0.000000
# 5 0.000000 0.000000 0.000000 0.000000 0.035222 0.000000
# 6 0.000000 0.000000 0.000000 0.000000 0.000000 0.033656
#
#
# Mechanical properties :
#
#
# Convention : Reuss Voigt Hill
#
# Bulk Modulus (GPa) = 58.89072 69.46401 64.17737
# Shear Modulus (GPa) = 16.80319 26.99865 21.90092
#
# Velocity S-wave (km/s) = 2.99677 3.79865 3.42129
# Velocity P-wave (km/s) = 6.59159 7.50770 7.06451
#
# Compressibility (1/GPa) = 0.01698060
#
# Stress axis : x y z
#
# Youngs Moduli (GPa) = 59.37923 98.63869 101.57049
#
# Poissons Ratio (x) = 0.12835 0.47945
# Poissons Ratio (y) = 0.07726 0.39615
# Poissons Ratio (z) = 0.28029 0.38472
#
# Static dielectric constant tensor:
#      x y z
#    x 1.633180 0.000000 0.000000 
#    y 0.000000 1.679420 0.000000 
#    z 0.000000 0.000000 1.661680 
# 
# From -- ./inp_files/44610.got.cif
#   From: 2010.05.17/outbox.cif.g08.bks.cpg/sg69_23_cif.got.tgz:44610.got - 2010.06.03 19:29:58.
