data_PCOD9513540
_publ_section_title
;
Structure prediction by ZEFSAII (Michael W. Deem and Ramdas Pophale) SiO2 
 PCOD9513540
Probable space group: F M M M
;
_chemical_formula_sum "Si O2"
_cell_formula_units_Z 100
_cell_length_a 21.079899
_cell_length_b 16.591146
_cell_length_c 14.595709
_cell_angle_alpha 90.000000
_cell_angle_beta 90.000000
_cell_angle_gamma 90.000000
_cell_volume 5104.698624
_symmetry_space_group_name_H-M "F M M M"
_symmetry_group_IT_number 69
_symmetry_cell_setting 'orthorhombic'
loop_
_space_group_symop_operation_xyz
x,y,z
-x,-y,z
x,-y,-z
-x,y,-z
-x,-y,-z
x,y,-z
-x,y,z
x,-y,z
x,1/2+y,1/2+z
-x,1/2-y,1/2+z
x,1/2-y,1/2-z
-x,1/2+y,1/2-z
-x,1/2-y,1/2-z
x,1/2+y,1/2-z
-x,1/2+y,1/2+z
x,1/2-y,1/2+z
1/2+x,y,1/2+z
1/2-x,-y,1/2+z
1/2+x,-y,1/2-z
1/2-x,y,1/2-z
1/2-x,-y,1/2-z
1/2+x,y,1/2-z
1/2-x,y,1/2+z
1/2+x,-y,1/2+z
1/2+x,1/2+y,z
1/2-x,1/2-y,z
1/2+x,1/2-y,-z
1/2-x,1/2+y,-z
1/2-x,1/2-y,-z
1/2+x,1/2+y,-z
1/2-x,1/2+y,z
1/2+x,1/2-y,z
loop_
_atom_site_type_symbol
_atom_site_label
_atom_site_fract_x
_atom_site_fract_y
_atom_site_fract_z
Si Si1 0.751600 0.000000 0.859424
Si Si2 0.855387 0.711395 0.000000
Si Si3 0.216794 0.629996 0.500000
Si Si4 0.500000 0.500000 0.500000
Si Si5 0.607403 0.000000 0.160472
Si Si6 0.423725 0.827078 0.189108
O O1 0.750000 0.000000 0.750000
O O2 0.783620 0.924034 0.908645
O O3 0.677004 0.000000 0.883825
O O4 0.839280 0.805894 0.000000
O O5 0.786039 0.671307 0.000000
O O6 0.894386 0.686177 0.911036
O O7 0.555022 0.500000 0.580801
O O8 0.598839 0.083169 0.217047
O O9 0.500000 0.827708 0.184952
O O10 0.404073 0.750000 0.250000
#
# Coordination Sequence:
#
# PCOD9513540 Si02
#       6
#    16  16  16   4  16  32
#     4  11  24  41  63  90 126 173 222 265 319 393
#     4  11  22  39  60  88 131 160 205 265 317 380
#     4  10  23  39  59  92 120 167 214 256 317 381
#     4  12  20  36  76 100 124 164 204 298 340 360
#     4  12  22  39  67  97 127 162 218 276 330 376
#     4  11  24  40  64  96 126 165 212 265 330 389
#
# _framework density 19.589794999999999
#
# number of rings (size 3 to 8) (size 9 to 14) (size 15 to 20)
#    0.000    0.960    4.800    2.400    4.480    0.000 
#    0.000    3.200    0.000    0.000    0.000    6.720 
#    0.000    0.000    0.000    0.000    0.000    0.000 
#
# Total GULP energy -139356.539364 kJ/mol
# GULP energy per Si atom -5574.261575 kJ/mol
# Density = 1.954521 g / cm^3
# Si number density = 19.589795 Si / 1000 Ang^3
#
#
#
# Elastic Constant Matrix: (Units=GPa)
#
#
# Indices 1 2 3 4 5 6 
#
# 1 36.0601 17.6837 -5.2043 0.0000 0.0000 0.0000
# 2 17.6837 180.8708 52.2864 0.0000 0.0000 0.0000
# 3 -5.2043 52.2864 105.3054 0.0000 0.0000 0.0000
# 4 0.0000 0.0000 0.0000 -14.1150 0.0000 0.0000
# 5 0.0000 0.0000 0.0000 0.0000 10.8400 0.0000
# 6 0.0000 0.0000 0.0000 0.0000 0.0000 28.4649
#
#
#
# Elastic Compliance Matrix: (Units=1/GPa)
#
#
# Indices 1 2 3 4 5 6 
#
# 1 0.030165 -0.003947 0.003450 0.000000 0.000000 0.000000
# 2 -0.003947 0.006972 -0.003657 0.000000 0.000000 0.000000
# 3 0.003450 -0.003657 0.011482 0.000000 0.000000 0.000000
# 4 0.000000 0.000000 0.000000 -0.070847 0.000000 0.000000
# 5 0.000000 0.000000 0.000000 0.000000 0.092251 0.000000
# 6 0.000000 0.000000 0.000000 0.000000 0.000000 0.035131
#
#
# Mechanical properties :
#
#
# Convention : Reuss Voigt Hill
#
# Bulk Modulus (GPa) = 24.80588 50.19644 37.50116
# Shear Modulus (GPa) = 39.40192 22.20269 30.80231
#
# Velocity S-wave (km/s) = 4.48967 3.37022 3.96961
# Velocity P-wave (km/s) = 6.29018 6.38936 6.33996
#
# Compressibility (1/GPa) = 0.04031302
#
# Stress axis : x y z
#
# Youngs Moduli (GPa) = 33.15116 143.43607 87.09037
#
# Poissons Ratio (x) = 0.56609 -0.30049
# Poissons Ratio (y) = 0.13084 0.31846
# Poissons Ratio (z) = -0.11438 0.52450
#
# Static dielectric constant tensor:
#      x y z
#    x 1.646710 0.000000 0.000000 
#    y 0.000000 1.778920 0.000000 
#    z 0.000000 0.000000 1.659250 
# 
# From -- ./inp_files/15000.got.cif
#   From: 2010.05.17/outbox.cif.g08.bks.cpg/sg69_8_cif.got.tgz:15000.got - 2010.06.03 19:29:58.
