data_PCOD9513005
_publ_section_title
;
Structure prediction by ZEFSAII (Michael W. Deem and Ramdas Pophale) SiO2 
 PCOD9513005
Probable space group: F M M M
;
_chemical_formula_sum "Si O2"
_cell_formula_units_Z 116
_cell_length_a 9.275041
_cell_length_b 25.334378
_cell_length_c 28.851487
_cell_angle_alpha 90.000000
_cell_angle_beta 90.000000
_cell_angle_gamma 90.000000
_cell_volume 6779.447247
_symmetry_space_group_name_H-M "F M M M"
_symmetry_group_IT_number 69
_symmetry_cell_setting 'orthorhombic'
loop_
_space_group_symop_operation_xyz
x,y,z
-x,-y,z
x,-y,-z
-x,y,-z
-x,-y,-z
x,y,-z
-x,y,z
x,-y,z
x,1/2+y,1/2+z
-x,1/2-y,1/2+z
x,1/2-y,1/2-z
-x,1/2+y,1/2-z
-x,1/2-y,1/2-z
x,1/2+y,1/2-z
-x,1/2+y,1/2+z
x,1/2-y,1/2+z
1/2+x,y,1/2+z
1/2-x,-y,1/2+z
1/2+x,-y,1/2-z
1/2-x,y,1/2-z
1/2-x,-y,1/2-z
1/2+x,y,1/2-z
1/2-x,y,1/2+z
1/2+x,-y,1/2+z
1/2+x,1/2+y,z
1/2-x,1/2-y,z
1/2+x,1/2-y,-z
1/2-x,1/2+y,-z
1/2-x,1/2-y,-z
1/2+x,1/2+y,-z
1/2-x,1/2+y,z
1/2+x,1/2-y,z
loop_
_atom_site_type_symbol
_atom_site_label
_atom_site_fract_x
_atom_site_fract_y
_atom_site_fract_z
Si Si1 0.000000 0.000000 0.000000
Si Si2 0.169925 0.936594 0.201822
Si Si3 0.705505 0.500000 0.448161
Si Si4 0.329472 0.194159 0.554675
Si Si5 0.833436 0.604525 0.112149
O O1 0.125260 0.000000 0.959817
O O2 0.250000 0.924184 0.250000
O O3 0.250684 0.908730 0.159517
O O4 0.000000 0.923387 0.203662
O O5 0.181060 0.000000 0.194920
O O6 0.642912 0.500000 0.500000
O O7 0.667899 0.551863 0.419332
O O8 0.316642 0.180341 0.500000
O O9 0.500000 0.197885 0.565191
O O10 0.250000 0.250000 0.561485
O O11 0.251275 0.149859 0.584697
O O12 0.000000 0.619297 0.120533
#
# Coordination Sequence:
#
# PCOD9513005 Si02
#       5
#     4  32  16  32  32
#     4   8  24  36  50  72 120 148 194 224 284 338
#     4  10  21  36  57  81 113 149 189 234 284 339
#     4  10  23  34  53  76 116 150 189 226 281 335
#     4  10  22  39  60  83 112 150 194 239 285 334
#     4  12  23  35  56  83 116 150 190 232 281 339
#
# _framework density 17.110541000000001
#
# number of rings (size 3 to 8) (size 9 to 14) (size 15 to 20)
#    0.414    1.103    1.379    3.724    3.862    4.966 
#    0.000    0.000    0.000    0.828    0.000    5.793 
#    0.000    0.000    0.000    0.000    0.000    0.000 
#
# Total GULP energy -161645.260144 kJ/mol
# GULP energy per Si atom -5573.974488 kJ/mol
# Density = 1.707160 g / cm^3
# Si number density = 17.110541 Si / 1000 Ang^3
#
#
#
# Elastic Constant Matrix: (Units=GPa)
#
#
# Indices 1 2 3 4 5 6 
#
# 1 216.4422 71.6246 96.6724 0.0000 0.0000 0.0000
# 2 71.6246 90.3253 85.1023 0.0000 0.0000 0.0000
# 3 96.6724 85.1023 144.7384 0.0000 0.0000 0.0000
# 4 0.0000 0.0000 0.0000 -40.8061 0.0000 0.0000
# 5 0.0000 0.0000 0.0000 0.0000 20.7798 0.0000
# 6 0.0000 0.0000 0.0000 0.0000 0.0000 15.6320
#
#
#
# Elastic Compliance Matrix: (Units=1/GPa)
#
#
# Indices 1 2 3 4 5 6 
#
# 1 0.006828 -0.002506 -0.003087 0.000000 0.000000 0.000000
# 2 -0.002506 0.025741 -0.013461 0.000000 0.000000 0.000000
# 3 -0.003087 -0.013461 0.016886 0.000000 0.000000 0.000000
# 4 0.000000 0.000000 0.000000 -0.024506 0.000000 0.000000
# 5 0.000000 0.000000 0.000000 0.000000 0.048124 0.000000
# 6 0.000000 0.000000 0.000000 0.000000 0.000000 0.063971
#
#
# Mechanical properties :
#
#
# Convention : Reuss Voigt Hill
#
# Bulk Modulus (GPa) = 88.13430 106.47829 97.30629
# Shear Modulus (GPa) = 27.94299 12.32825 20.13562
#
# Velocity S-wave (km/s) = 4.04553 2.68714 3.43417
# Velocity P-wave (km/s) = 8.56985 8.48483 8.52745
#
# Compressibility (1/GPa) = 0.01134632
#
# Stress axis : x y z
#
# Youngs Moduli (GPa) = 146.44850 38.84838 59.22016
#
# Poissons Ratio (x) = 0.09734 0.18284
# Poissons Ratio (y) = 0.36696 0.79719
# Poissons Ratio (z) = 0.45215 0.52296
#
# Static dielectric constant tensor:
#      x y z
#    x 1.582540 0.000000 0.000000 
#    y 0.000000 1.550840 0.000000 
#    z 0.000000 0.000000 1.558890 
# 
# From -- ./inp_files/39503.got.cif
#   From: 2010.05.17/outbox.cif.g08.bks.cpg/sg69_20_cif.got.tgz:39503.got - 2010.06.03 19:29:58.
