data_PCOD9513400
_publ_section_title
;
Structure prediction by ZEFSAII (Michael W. Deem and Ramdas Pophale) SiO2 
 PCOD9513400
Probable space group: F M M M
;
_chemical_formula_sum "Si O2"
_cell_formula_units_Z 200
_cell_length_a 31.359141
_cell_length_b 16.826667
_cell_length_c 20.374306
_cell_angle_alpha 90.000000
_cell_angle_beta 90.000000
_cell_angle_gamma 90.000000
_cell_volume 10750.906441
_symmetry_space_group_name_H-M "F M M M"
_symmetry_group_IT_number 69
_symmetry_cell_setting 'orthorhombic'
loop_
_space_group_symop_operation_xyz
x,y,z
-x,-y,z
x,-y,-z
-x,y,-z
-x,-y,-z
x,y,-z
-x,y,z
x,-y,z
x,1/2+y,1/2+z
-x,1/2-y,1/2+z
x,1/2-y,1/2-z
-x,1/2+y,1/2-z
-x,1/2-y,1/2-z
x,1/2+y,1/2-z
-x,1/2+y,1/2+z
x,1/2-y,1/2+z
1/2+x,y,1/2+z
1/2-x,-y,1/2+z
1/2+x,-y,1/2-z
1/2-x,y,1/2-z
1/2-x,-y,1/2-z
1/2+x,y,1/2-z
1/2-x,y,1/2+z
1/2+x,-y,1/2+z
1/2+x,1/2+y,z
1/2-x,1/2-y,z
1/2+x,1/2-y,-z
1/2-x,1/2+y,-z
1/2-x,1/2-y,-z
1/2+x,1/2+y,-z
1/2-x,1/2+y,z
1/2+x,1/2-y,z
loop_
_atom_site_type_symbol
_atom_site_label
_atom_site_fract_x
_atom_site_fract_y
_atom_site_fract_z
Si Si1 0.500000 0.851107 0.500000
Si Si2 0.225590 0.335945 0.811652
Si Si3 0.547631 0.595444 0.266964
Si Si4 0.141300 0.318235 0.577441
Si Si5 0.438382 0.092866 0.613107
Si Si6 0.126003 0.806548 0.311184
Si Si7 0.227350 0.908492 0.076411
O O1 0.536389 0.858044 0.558444
O O2 0.250000 0.374307 0.750000
O O3 0.250000 0.250000 0.818370
O O4 0.175121 0.332530 0.799556
O O5 0.234209 0.384674 0.877099
O O6 0.500000 0.622798 0.287873
O O7 0.548777 0.500000 0.271789
O O8 0.552203 0.613779 0.188805
O O9 0.587591 0.630520 0.306948
O O10 0.137937 0.302644 0.500000
O O11 0.110731 0.390296 0.598377
O O12 0.127806 0.243925 0.621876
O O13 0.188925 0.348154 0.591679
O O14 0.449239 0.000000 0.603297
O O15 0.115896 0.750000 0.250000
O O16 0.214331 0.000000 0.087082
O O17 0.238137 0.899689 0.000000
#
# Coordination Sequence:
#
# PCOD9513400 Si02
#       7
#     8  32  32  32  32  32  32
#     4  12  21  32  52  82 124 164 191 230 293 370
#     4  11  21  38  59  84 122 161 199 248 298 354
#     4  10  23  42  62  86 118 159 205 252 305 359
#     4  11  22  36  55  85 121 157 195 244 302 360
#     4  11  20  32  53  81 117 158 192 229 288 364
#     4  12  22  39  62  89 119 158 205 247 302 364
#     4  10  22  39  60  88 120 160 204 245 301 370
#
# _framework density 18.603083000000002
#
# number of rings (size 3 to 8) (size 9 to 14) (size 15 to 20)
#    0.000    1.120    6.400    1.200    0.000    2.880 
#    1.440    0.000    0.000    0.480    0.000    1.120 
#    0.000    0.000    0.000    0.000    0.000    0.000 
#
# Total GULP energy -278366.921525 kJ/mol
# GULP energy per Si atom -5567.338430 kJ/mol
# Density = 1.856074 g / cm^3
# Si number density = 18.603083 Si / 1000 Ang^3
#
#
#
# Elastic Constant Matrix: (Units=GPa)
#
#
# Indices 1 2 3 4 5 6 
#
# 1 109.4419 33.2061 28.8366 0.0000 0.0000 0.0000
# 2 33.2061 40.2148 40.3375 0.0000 0.0000 0.0000
# 3 28.8366 40.3375 62.0877 0.0000 0.0000 0.0000
# 4 0.0000 0.0000 0.0000 23.2998 0.0000 0.0000
# 5 0.0000 0.0000 0.0000 0.0000 41.0546 0.0000
# 6 0.0000 0.0000 0.0000 0.0000 0.0000 22.9493
#
#
#
# Elastic Compliance Matrix: (Units=1/GPa)
#
#
# Indices 1 2 3 4 5 6 
#
# 1 0.012331 -0.012738 0.002549 0.000000 0.000000 0.000000
# 2 -0.012738 0.084547 -0.049012 0.000000 0.000000 0.000000
# 3 0.002549 -0.049012 0.046765 0.000000 0.000000 0.000000
# 4 0.000000 0.000000 0.000000 0.042919 0.000000 0.000000
# 5 0.000000 0.000000 0.000000 0.000000 0.024358 0.000000
# 6 0.000000 0.000000 0.000000 0.000000 0.000000 0.043574
#
#
# Mechanical properties :
#
#
# Convention : Reuss Voigt Hill
#
# Bulk Modulus (GPa) = 39.62167 46.27830 42.94998
# Shear Modulus (GPa) = 13.11271 24.75169 18.93220
#
# Velocity S-wave (km/s) = 2.65781 3.65158 3.19359
# Velocity P-wave (km/s) = 5.54647 6.53524 6.06105
#
# Compressibility (1/GPa) = 0.02523872
#
# Stress axis : x y z
#
# Youngs Moduli (GPa) = 81.09887 11.82781 21.38353
#
# Poissons Ratio (x) = 0.15067 -0.05451
# Poissons Ratio (y) = 1.03306 1.04806
# Poissons Ratio (z) = -0.20672 0.57971
#
# Static dielectric constant tensor:
#      x y z
#    x 1.732270 0.000000 0.000000 
#    y 0.000000 1.672600 0.000000 
#    z 0.000000 0.000000 1.630900 
# 
# From -- ./inp_files/33985.got.cif
#   From: 2010.05.17/outbox.cif.g08.bks.cpg/sg69_17_cif.got.tgz:33985.got - 2010.06.03 19:29:58.
