data_PCOD9513298
_publ_section_title
;
Structure prediction by ZEFSAII (Michael W. Deem and Ramdas Pophale) SiO2 
 PCOD9513298
Probable space group: F M M M
;
_chemical_formula_sum "Si O2"
_cell_formula_units_Z 136
_cell_length_a 20.961981
_cell_length_b 14.067547
_cell_length_c 19.635535
_cell_angle_alpha 90.000000
_cell_angle_beta 90.000000
_cell_angle_gamma 90.000000
_cell_volume 5790.198288
_symmetry_space_group_name_H-M "F M M M"
_symmetry_group_IT_number 69
_symmetry_cell_setting 'orthorhombic'
loop_
_space_group_symop_operation_xyz
x,y,z
-x,-y,z
x,-y,-z
-x,y,-z
-x,-y,-z
x,y,-z
-x,y,z
x,-y,z
x,1/2+y,1/2+z
-x,1/2-y,1/2+z
x,1/2-y,1/2-z
-x,1/2+y,1/2-z
-x,1/2-y,1/2-z
x,1/2+y,1/2-z
-x,1/2+y,1/2+z
x,1/2-y,1/2+z
1/2+x,y,1/2+z
1/2-x,-y,1/2+z
1/2+x,-y,1/2-z
1/2-x,y,1/2-z
1/2-x,-y,1/2-z
1/2+x,y,1/2-z
1/2-x,y,1/2+z
1/2+x,-y,1/2+z
1/2+x,1/2+y,z
1/2-x,1/2-y,z
1/2+x,1/2-y,-z
1/2-x,1/2+y,-z
1/2-x,1/2-y,-z
1/2+x,1/2+y,-z
1/2-x,1/2+y,z
1/2+x,1/2-y,z
loop_
_atom_site_type_symbol
_atom_site_label
_atom_site_fract_x
_atom_site_fract_y
_atom_site_fract_z
Si Si1 0.871814 0.891365 0.124374
Si Si2 0.572612 0.222996 0.500000
Si Si3 0.000000 0.750000 0.250000
Si Si4 0.233247 0.892596 0.647311
Si Si5 0.698582 0.162484 0.000000
Si Si6 0.604603 0.609413 0.279714
O O1 0.911632 0.838589 0.067259
O O2 0.802511 0.844513 0.139756
O O3 0.903592 0.897037 0.197978
O O4 0.861645 0.000000 0.099431
O O5 0.500000 0.254485 0.500000
O O6 0.626424 0.302427 0.500000
O O7 0.055186 0.692154 0.205021
O O8 0.209106 0.892153 0.570005
O O9 0.175689 0.862123 0.696252
O O10 0.247867 0.000000 0.670877
O O11 0.750000 0.250000 0.000000
O O12 0.593799 0.500000 0.305277
#
# Coordination Sequence:
#
# PCOD9513298 Si02
#       6
#    32  16   8  32  16  32
#     4  10  21  41  66  94 129 172 218 277 343 406
#     4  12  27  40  61  98 141 176 220 281 348 427
#     4  12  26  40  66  92 140 184 220 274 360 406
#     4  10  21  42  68  94 127 173 226 283 341 401
#     4  12  23  39  65  95 133 172 226 282 335 403
#     4  10  24  42  66  97 133 176 230 283 339 413
#
# _framework density 23.487969
#
# number of rings (size 3 to 8) (size 9 to 14) (size 15 to 20)
#    0.000    1.412    2.353    1.765    4.941    5.647 
#    0.000    1.176    0.000    0.706    0.000    0.000 
#    0.000    0.000    0.000    0.000    0.000    0.000 
#
# Total GULP energy -189365.457757 kJ/mol
# GULP energy per Si atom -5569.572287 kJ/mol
# Density = 2.343451 g / cm^3
# Si number density = 23.487969 Si / 1000 Ang^3
#
#
#
# Elastic Constant Matrix: (Units=GPa)
#
#
# Indices 1 2 3 4 5 6 
#
# 1 114.6739 23.4385 -15.3690 0.0000 0.0000 0.0000
# 2 23.4385 85.2930 0.1647 0.0000 0.0000 0.0000
# 3 -15.3690 0.1647 103.3827 0.0000 0.0000 0.0000
# 4 0.0000 0.0000 0.0000 26.0014 0.0000 0.0000
# 5 0.0000 0.0000 0.0000 0.0000 25.9535 0.0000
# 6 0.0000 0.0000 0.0000 0.0000 0.0000 40.8022
#
#
#
# Elastic Compliance Matrix: (Units=1/GPa)
#
#
# Indices 1 2 3 4 5 6 
#
# 1 0.009440 -0.002597 0.001407 0.000000 0.000000 0.000000
# 2 -0.002597 0.012439 -0.000406 0.000000 0.000000 0.000000
# 3 0.001407 -0.000406 0.009883 0.000000 0.000000 0.000000
# 4 0.000000 0.000000 0.000000 0.038459 0.000000 0.000000
# 5 0.000000 0.000000 0.000000 0.000000 0.038530 0.000000
# 6 0.000000 0.000000 0.000000 0.000000 0.000000 0.024508
#
#
# Mechanical properties :
#
#
# Convention : Reuss Voigt Hill
#
# Bulk Modulus (GPa) = 35.00074 35.53532 35.26803
# Shear Modulus (GPa) = 34.25282 38.22578 36.23930
#
# Velocity S-wave (km/s) = 3.82293 4.03856 3.93222
# Velocity P-wave (km/s) = 5.86688 6.07525 5.97197
#
# Compressibility (1/GPa) = 0.02857082
#
# Stress axis : x y z
#
# Youngs Moduli (GPa) = 105.93473 80.39445 101.18709
#
# Poissons Ratio (x) = 0.20877 -0.14242
# Poissons Ratio (y) = 0.27509 0.04107
# Poissons Ratio (z) = -0.14910 0.03263
#
# Static dielectric constant tensor:
#      x y z
#    x 1.976310 0.000000 0.000000 
#    y 0.000000 2.018640 0.000000 
#    z 0.000000 0.000000 1.888060 
# 
# From -- ./inp_files/30538.got.cif
#   From: 2010.05.17/outbox.cif.g08.bks.cpg/sg69_16_cif.got.tgz:30538.got - 2010.06.03 19:29:58.
