data_PCOD9513259
_publ_section_title
;
Structure prediction by ZEFSAII (Michael W. Deem and Ramdas Pophale) SiO2 
 PCOD9513259
Probable space group: F M M M
;
_chemical_formula_sum "Si O2"
_cell_formula_units_Z 160
_cell_length_a 15.093539
_cell_length_b 28.765445
_cell_length_c 17.788417
_cell_angle_alpha 90.000000
_cell_angle_beta 90.000000
_cell_angle_gamma 90.000000
_cell_volume 7723.239096
_symmetry_space_group_name_H-M "F M M M"
_symmetry_group_IT_number 69
_symmetry_cell_setting 'orthorhombic'
loop_
_space_group_symop_operation_xyz
x,y,z
-x,-y,z
x,-y,-z
-x,y,-z
-x,-y,-z
x,y,-z
-x,y,z
x,-y,z
x,1/2+y,1/2+z
-x,1/2-y,1/2+z
x,1/2-y,1/2-z
-x,1/2+y,1/2-z
-x,1/2-y,1/2-z
x,1/2+y,1/2-z
-x,1/2+y,1/2+z
x,1/2-y,1/2+z
1/2+x,y,1/2+z
1/2-x,-y,1/2+z
1/2+x,-y,1/2-z
1/2-x,y,1/2-z
1/2-x,-y,1/2-z
1/2+x,y,1/2-z
1/2-x,y,1/2+z
1/2+x,-y,1/2+z
1/2+x,1/2+y,z
1/2-x,1/2-y,z
1/2+x,1/2-y,-z
1/2-x,1/2+y,-z
1/2-x,1/2-y,-z
1/2+x,1/2+y,-z
1/2-x,1/2+y,z
1/2+x,1/2-y,z
loop_
_atom_site_type_symbol
_atom_site_label
_atom_site_fract_x
_atom_site_fract_y
_atom_site_fract_z
Si Si1 0.897813 0.552651 0.636164
Si Si2 0.739591 0.946630 0.500000
Si Si3 0.899606 0.228346 0.915050
Si Si4 0.358841 0.350210 0.189936
Si Si5 0.102859 0.872292 0.500000
Si Si6 0.659225 0.819153 0.848633
O O1 0.886790 0.500000 0.666437
O O2 0.825688 0.559499 0.570894
O O3 0.880764 0.595458 0.691353
O O4 0.000000 0.555723 0.608845
O O5 0.822901 0.912539 0.500000
O O6 0.770680 0.000000 0.500000
O O7 0.902984 0.177897 0.877918
O O8 0.844205 0.264481 0.865894
O O9 0.000000 0.246807 0.917253
O O10 0.864775 0.225700 0.000000
O O11 0.387796 0.328655 0.269322
O O12 0.255931 0.340277 0.169486
O O13 0.120814 0.842788 0.423876
O O14 0.000000 0.887399 0.500000
#
# Coordination Sequence:
#
# PCOD9513259 Si02
#       6
#    32  16  32  32  16  32
#     4  10  21  39  66  99 132 169 213 268 337 396
#     4  10  21  41  65  94 133 172 212 273 334 387
#     4  11  24  39  61  95 132 172 220 272 325 392
#     4  11  24  41  65  97 129 172 224 275 329 396
#     4  12  24  42  69  92 127 180 229 272 324 390
#     4  11  24  43  63  92 129 177 220 271 334 389
#
# _framework density 20.716695999999999
#
# number of rings (size 3 to 8) (size 9 to 14) (size 15 to 20)
#    0.000    1.200    3.000    2.700    2.800    7.800 
#    0.000    3.000    0.000    0.000    0.000    0.000 
#    0.000    0.000    0.000    0.000    0.000    0.000 
#
# Total GULP energy -223279.585797 kJ/mol
# GULP energy per Si atom -5581.989645 kJ/mol
# Density = 2.066954 g / cm^3
# Si number density = 20.716696 Si / 1000 Ang^3
#
#
#
# Elastic Constant Matrix: (Units=GPa)
#
#
# Indices 1 2 3 4 5 6 
#
# 1 97.8702 18.0257 2.4049 0.0000 0.0000 0.0000
# 2 18.0257 108.6226 42.0560 0.0000 0.0000 0.0000
# 3 2.4049 42.0560 121.9633 0.0000 0.0000 0.0000
# 4 0.0000 0.0000 0.0000 8.8816 0.0000 0.0000
# 5 0.0000 0.0000 0.0000 0.0000 18.6176 0.0000
# 6 0.0000 0.0000 0.0000 0.0000 0.0000 26.6007
#
#
#
# Elastic Compliance Matrix: (Units=1/GPa)
#
#
# Indices 1 2 3 4 5 6 
#
# 1 0.010562 -0.001930 0.000457 0.000000 0.000000 0.000000
# 2 -0.001930 0.010977 -0.003747 0.000000 0.000000 0.000000
# 3 0.000457 -0.003747 0.009482 0.000000 0.000000 0.000000
# 4 0.000000 0.000000 0.000000 0.112592 0.000000 0.000000
# 5 0.000000 0.000000 0.000000 0.000000 0.053713 0.000000
# 6 0.000000 0.000000 0.000000 0.000000 0.000000 0.037593
#
#
# Mechanical properties :
#
#
# Convention : Reuss Voigt Hill
#
# Bulk Modulus (GPa) = 48.58647 50.38103 49.48375
# Shear Modulus (GPa) = 19.82402 28.55127 24.18765
#
# Velocity S-wave (km/s) = 3.09675 3.71641 3.42064
# Velocity P-wave (km/s) = 6.02414 6.54121 6.28799
#
# Compressibility (1/GPa) = 0.02058186
#
# Stress axis : x y z
#
# Youngs Moduli (GPa) = 94.68088 91.09759 105.45969
#
# Poissons Ratio (x) = 0.17579 -0.04821
# Poissons Ratio (y) = 0.18271 0.39518
# Poissons Ratio (z) = -0.04328 0.34136
#
# Static dielectric constant tensor:
#      x y z
#    x 1.823170 0.000000 0.000000 
#    y 0.000000 1.740470 0.000000 
#    z 0.000000 0.000000 1.729030 
# 
# From -- ./inp_files/21880.got.cif
#   From: 2010.05.17/outbox.cif.g08.bks.cpg/sg69_11_cif.got.tgz:21880.got - 2010.06.03 19:29:58.
