data_PCOD9513697
_publ_section_title
;
Structure prediction by ZEFSAII (Michael W. Deem and Ramdas Pophale) SiO2 
 PCOD9513697
Probable space group: F M M M
;
_chemical_formula_sum "Si O2"
_cell_formula_units_Z 168
_cell_length_a 30.240926
_cell_length_b 18.497665
_cell_length_c 14.942059
_cell_angle_alpha 90.000000
_cell_angle_beta 90.000000
_cell_angle_gamma 90.000000
_cell_volume 8358.386362
_symmetry_space_group_name_H-M "F M M M"
_symmetry_group_IT_number 69
_symmetry_cell_setting 'orthorhombic'
loop_
_space_group_symop_operation_xyz
x,y,z
-x,-y,z
x,-y,-z
-x,y,-z
-x,-y,-z
x,y,-z
-x,y,z
x,-y,z
x,1/2+y,1/2+z
-x,1/2-y,1/2+z
x,1/2-y,1/2-z
-x,1/2+y,1/2-z
-x,1/2-y,1/2-z
x,1/2+y,1/2-z
-x,1/2+y,1/2+z
x,1/2-y,1/2+z
1/2+x,y,1/2+z
1/2-x,-y,1/2+z
1/2+x,-y,1/2-z
1/2-x,y,1/2-z
1/2-x,-y,1/2-z
1/2+x,y,1/2-z
1/2-x,y,1/2+z
1/2+x,-y,1/2+z
1/2+x,1/2+y,z
1/2-x,1/2-y,z
1/2+x,1/2-y,-z
1/2-x,1/2+y,-z
1/2-x,1/2-y,-z
1/2+x,1/2+y,-z
1/2-x,1/2+y,z
1/2+x,1/2-y,z
loop_
_atom_site_type_symbol
_atom_site_label
_atom_site_fract_x
_atom_site_fract_y
_atom_site_fract_z
Si Si1 0.833345 0.916279 0.717358
Si Si2 0.000000 0.500000 0.132740
Si Si3 0.796107 0.722288 0.147841
Si Si4 0.550536 0.268293 0.855408
Si Si5 0.419777 0.389802 0.600498
Si Si6 0.138924 0.157564 0.899942
O O1 0.801373 0.863245 0.660547
O O2 0.880607 0.903922 0.669826
O O3 0.839403 0.888638 0.819706
O O4 0.820882 0.000000 0.714749
O O5 0.038480 0.562303 0.127075
O O6 0.797419 0.750000 0.250000
O O7 0.750000 0.750000 0.108431
O O8 0.836895 0.763842 0.103241
O O9 0.500000 0.288033 0.878162
O O10 0.552580 0.250000 0.750000
O O11 0.564936 0.193177 0.899639
O O12 0.587338 0.327623 0.879167
O O13 0.405489 0.409719 0.500000
O O14 0.144222 0.127639 0.000000
#
# Coordination Sequence:
#
# PCOD9513697 Si02
#       6
#    32   8  32  32  32  32
#     4  11  23  40  61  91 128 163 201 251 313 376
#     4  12  25  36  54  88 131 168 199 248 336 398
#     4   9  19  39  64  91 119 153 202 257 316 375
#     4  11  21  35  58  85 119 161 215 266 306 357
#     4  12  22  35  56  86 121 160 202 253 314 375
#     4  11  22  39  61  86 123 166 212 257 299 365
#
# _framework density 20.099572999999999
#
# number of rings (size 3 to 8) (size 9 to 14) (size 15 to 20)
#    0.000    1.143    5.714    2.000    0.000    1.905 
#    0.000    7.619    0.000    0.000    0.000    2.000 
#    0.000    0.000    0.000    0.000    0.000    0.000 
#
# Total GULP energy -233977.668849 kJ/mol
# GULP energy per Si atom -5570.896877 kJ/mol
# Density = 2.005383 g / cm^3
# Si number density = 20.099573 Si / 1000 Ang^3
#
#
#
# Elastic Constant Matrix: (Units=GPa)
#
#
# Indices 1 2 3 4 5 6 
#
# 1 84.6478 34.6113 40.7205 0.0000 0.0000 0.0000
# 2 34.6113 113.5086 12.4643 0.0000 0.0000 0.0000
# 3 40.7205 12.4643 82.2459 0.0000 0.0000 0.0000
# 4 0.0000 0.0000 0.0000 50.1580 0.0000 0.0000
# 5 0.0000 0.0000 0.0000 0.0000 -12.6253 0.0000
# 6 0.0000 0.0000 0.0000 0.0000 0.0000 43.3647
#
#
#
# Elastic Compliance Matrix: (Units=1/GPa)
#
#
# Indices 1 2 3 4 5 6 
#
# 1 0.017470 -0.004451 -0.007975 0.000000 0.000000 0.000000
# 2 -0.004451 0.010093 0.000674 0.000000 0.000000 0.000000
# 3 -0.007975 0.000674 0.016005 0.000000 0.000000 0.000000
# 4 0.000000 0.000000 0.000000 0.019937 0.000000 0.000000
# 5 0.000000 0.000000 0.000000 0.000000 -0.079206 0.000000
# 6 0.000000 0.000000 0.000000 0.000000 0.000000 0.023060
#
#
# Mechanical properties :
#
#
# Convention : Reuss Voigt Hill
#
# Bulk Modulus (GPa) = 49.84002 50.66603 50.25303
# Shear Modulus (GPa) = 133.15064 29.01990 81.08527
#
# Velocity S-wave (km/s) = 8.14796 3.80387 6.35841
# Velocity P-wave (km/s) = 10.64751 6.67494 8.88606
#
# Compressibility (1/GPa) = 0.02006420
#
# Stress axis : x y z
#
# Youngs Moduli (GPa) = 57.24037 99.07691 62.48062
#
# Poissons Ratio (x) = 0.44102 0.49828
# Poissons Ratio (y) = 0.25480 -0.04213
# Poissons Ratio (z) = 0.45649 -0.06680
#
# Static dielectric constant tensor:
#      x y z
#    x 1.739430 0.000000 0.000000 
#    y 0.000000 1.725680 0.000000 
#    z 0.000000 0.000000 1.761000 
# 
# From -- ./inp_files/19685.got.cif
#   From: 2010.05.17/outbox.cif.g08.bks.cpg/sg69_10_cif.got.tgz:19685.got - 2010.06.03 19:29:58.
