data_PCOD9513452
_publ_section_title
;
Structure prediction by ZEFSAII (Michael W. Deem and Ramdas Pophale) SiO2 
 PCOD9513452
Probable space group: F M M M
;
_chemical_formula_sum "Si O2"
_cell_formula_units_Z 176
_cell_length_a 25.261417
_cell_length_b 13.110153
_cell_length_c 24.979218
_cell_angle_alpha 90.000000
_cell_angle_beta 90.000000
_cell_angle_gamma 90.000000
_cell_volume 8272.643442
_symmetry_space_group_name_H-M "F M M M"
_symmetry_group_IT_number 69
_symmetry_cell_setting 'orthorhombic'
loop_
_space_group_symop_operation_xyz
x,y,z
-x,-y,z
x,-y,-z
-x,y,-z
-x,-y,-z
x,y,-z
-x,y,z
x,-y,z
x,1/2+y,1/2+z
-x,1/2-y,1/2+z
x,1/2-y,1/2-z
-x,1/2+y,1/2-z
-x,1/2-y,1/2-z
x,1/2+y,1/2-z
-x,1/2+y,1/2+z
x,1/2-y,1/2+z
1/2+x,y,1/2+z
1/2-x,-y,1/2+z
1/2+x,-y,1/2-z
1/2-x,y,1/2-z
1/2-x,-y,1/2-z
1/2+x,y,1/2-z
1/2-x,y,1/2+z
1/2+x,-y,1/2+z
1/2+x,1/2+y,z
1/2-x,1/2-y,z
1/2+x,1/2-y,-z
1/2-x,1/2+y,-z
1/2-x,1/2-y,-z
1/2+x,1/2+y,-z
1/2-x,1/2+y,z
1/2+x,1/2-y,z
loop_
_atom_site_type_symbol
_atom_site_label
_atom_site_fract_x
_atom_site_fract_y
_atom_site_fract_z
Si Si1 0.277131 0.500000 0.164692
Si Si2 0.096704 0.295197 0.197801
Si Si3 0.829876 0.883269 0.560380
Si Si4 0.837323 0.000000 0.278567
Si Si5 0.439864 0.204083 0.920517
Si Si6 0.697326 0.215326 0.648734
Si Si7 0.563630 0.116155 0.500000
O O1 0.216501 0.500000 0.185772
O O2 0.313945 0.500000 0.218344
O O3 0.291620 0.399422 0.131963
O O4 0.069066 0.250000 0.250000
O O5 0.125683 0.403033 0.208092
O O6 0.063149 0.294461 0.143731
O O7 0.146022 0.221028 0.184954
O O8 0.811805 0.862157 0.500000
O O9 0.893830 0.872743 0.562072
O O10 0.810458 0.796940 0.601391
O O11 0.815924 0.000000 0.573875
O O12 0.500000 0.180406 0.936890
O O13 0.424129 0.312439 0.948406
O O14 0.750000 0.250000 0.679939
O O15 0.500000 0.106836 0.500000
O O16 0.585089 0.000000 0.500000
#
# Coordination Sequence:
#
# PCOD9513452 Si02
#       7
#    16  32  32  16  32  32  16
#     4  11  22  38  63  92 121 166 221 264 304 377
#     4  11  23  40  58  91 131 171 213 262 317 377
#     4  10  23  43  63  89 126 166 206 263 329 381
#     4  11  22  38  61  87 131 168 207 263 318 370
#     4  10  22  40  65  95 123 164 217 262 319 382
#     4  11  23  37  62  91 122 163 213 259 314 378
#     4   9  18  40  69  93 122 159 209 271 322 377
#
# _framework density 21.274940999999998
#
# number of rings (size 3 to 8) (size 9 to 14) (size 15 to 20)
#    0.000    1.545    4.545    0.000    6.364    1.455 
#    8.182    1.364    0.000    0.000    0.000    0.000 
#    0.000    0.000    0.000    0.000    0.000    0.000 
#
# Total GULP energy -245547.925166 kJ/mol
# GULP energy per Si atom -5580.634663 kJ/mol
# Density = 2.122652 g / cm^3
# Si number density = 21.274941 Si / 1000 Ang^3
#
#
#
# Elastic Constant Matrix: (Units=GPa)
#
#
# Indices 1 2 3 4 5 6 
#
# 1 62.5113 17.4973 8.7275 0.0000 0.0000 0.0000
# 2 17.4973 165.1699 51.2587 0.0000 0.0000 0.0000
# 3 8.7275 51.2587 150.0796 0.0000 0.0000 0.0000
# 4 0.0000 0.0000 0.0000 29.0033 0.0000 0.0000
# 5 0.0000 0.0000 0.0000 0.0000 9.4349 0.0000
# 6 0.0000 0.0000 0.0000 0.0000 0.0000 17.3333
#
#
#
# Elastic Compliance Matrix: (Units=1/GPa)
#
#
# Indices 1 2 3 4 5 6 
#
# 1 0.016508 -0.001623 -0.000406 0.000000 0.000000 0.000000
# 2 -0.001623 0.006932 -0.002273 0.000000 0.000000 0.000000
# 3 -0.000406 -0.002273 0.007463 0.000000 0.000000 0.000000
# 4 0.000000 0.000000 0.000000 0.034479 0.000000 0.000000
# 5 0.000000 0.000000 0.000000 0.000000 0.105989 0.000000
# 6 0.000000 0.000000 0.000000 0.000000 0.000000 0.057692
#
#
# Mechanical properties :
#
#
# Convention : Reuss Voigt Hill
#
# Bulk Modulus (GPa) = 44.84414 59.19196 52.01805
# Shear Modulus (GPa) = 20.39987 31.17281 25.78634
#
# Velocity S-wave (km/s) = 3.09992 3.83199 3.48523
# Velocity P-wave (km/s) = 5.82553 6.88924 6.37960
#
# Compressibility (1/GPa) = 0.02229946
#
# Stress axis : x y z
#
# Youngs Moduli (GPa) = 60.57668 144.26418 133.99282
#
# Poissons Ratio (x) = 0.23412 0.05436
# Poissons Ratio (y) = 0.09831 0.30458
# Poissons Ratio (z) = 0.02458 0.32793
#
# Static dielectric constant tensor:
#      x y z
#    x 1.764250 0.000000 0.000000 
#    y 0.000000 1.788760 0.000000 
#    z 0.000000 0.000000 1.819590 
# 
# From -- ./inp_files/43915.got.cif
#   From: 2010.05.17/outbox.cif.g08.bks.cpg/sg69_22_cif.got.tgz:43915.got - 2010.06.03 19:29:58.
