data_PCOD9513284
_publ_section_title
;
Structure prediction by ZEFSAII (Michael W. Deem and Ramdas Pophale) SiO2 
 PCOD9513284
Probable space group: F M M M
;
_chemical_formula_sum "Si O2"
_cell_formula_units_Z 88
_cell_length_a 13.435114
_cell_length_b 25.440414
_cell_length_c 10.127067
_cell_angle_alpha 90.000000
_cell_angle_beta 90.000000
_cell_angle_gamma 90.000000
_cell_volume 3461.379471
_symmetry_space_group_name_H-M "F M M M"
_symmetry_group_IT_number 69
_symmetry_cell_setting 'orthorhombic'
loop_
_space_group_symop_operation_xyz
x,y,z
-x,-y,z
x,-y,-z
-x,y,-z
-x,-y,-z
x,y,-z
-x,y,z
x,-y,z
x,1/2+y,1/2+z
-x,1/2-y,1/2+z
x,1/2-y,1/2-z
-x,1/2+y,1/2-z
-x,1/2-y,1/2-z
x,1/2+y,1/2-z
-x,1/2+y,1/2+z
x,1/2-y,1/2+z
1/2+x,y,1/2+z
1/2-x,-y,1/2+z
1/2+x,-y,1/2-z
1/2-x,y,1/2-z
1/2-x,-y,1/2-z
1/2+x,y,1/2-z
1/2-x,y,1/2+z
1/2+x,-y,1/2+z
1/2+x,1/2+y,z
1/2-x,1/2-y,z
1/2+x,1/2-y,-z
1/2-x,1/2+y,-z
1/2-x,1/2-y,-z
1/2+x,1/2+y,-z
1/2-x,1/2+y,z
1/2+x,1/2-y,z
loop_
_atom_site_type_symbol
_atom_site_label
_atom_site_fract_x
_atom_site_fract_y
_atom_site_fract_z
Si Si1 0.881821 0.642895 0.500000
Si Si2 0.379082 0.266695 0.500000
Si Si3 0.378426 0.940240 0.712470
Si Si4 0.109505 0.562712 0.000000
Si Si5 0.250000 0.250000 0.250000
O O1 0.861061 0.703839 0.500000
O O2 0.850675 0.608163 0.377127
O O3 0.000000 0.640649 0.500000
O O4 0.500000 0.277317 0.500000
O O5 0.324703 0.280292 0.357260
O O6 0.500000 0.942325 0.716849
O O7 0.349345 0.000000 0.671283
O O8 0.343308 0.927877 0.859771
O O9 0.096926 0.500000 0.000000
O O10 0.000000 0.588546 0.000000
#
# Coordination Sequence:
#
# PCOD9513284 Si02
#       5
#    16  16  32  16   8
#     4   9  16  25  42  73 110 143 184 238 284 336
#     4  10  21  40  66  96 125 156 200 248 300 370
#     4   8  12  19  33  58  97 143 187 231 279 331
#     4   7  10  16  26  43  77 129 180 221 263 312
#     4  10  22  42  68  92 122 162 194 242 316 372
#
# _framework density 25.423390000000001
#
# number of rings (size 3 to 8) (size 9 to 14) (size 15 to 20)
#    0.000    3.455    0.000    3.273    0.000    2.182 
#    0.000    3.636    0.000   10.909    0.000    5.091 
#    0.000    0.000    0.000    0.000    0.000   39.273 
#
# Total GULP energy -122531.403633 kJ/mol
# GULP energy per Si atom -5569.609256 kJ/mol
# Density = 2.536553 g / cm^3
# Si number density = 25.423390 Si / 1000 Ang^3
#
#
#
# Elastic Constant Matrix: (Units=GPa)
#
#
# Indices 1 2 3 4 5 6 
#
# 1 164.7012 7.9389 -2.0264 0.0000 0.0000 0.0000
# 2 7.9389 110.5000 51.2601 0.0000 0.0000 0.0000
# 3 -2.0264 51.2601 188.6149 0.0000 0.0000 0.0000
# 4 0.0000 0.0000 0.0000 20.8442 0.0000 0.0000
# 5 0.0000 0.0000 0.0000 0.0000 12.3276 0.0000
# 6 0.0000 0.0000 0.0000 0.0000 0.0000 17.5928
#
#
#
# Elastic Compliance Matrix: (Units=1/GPa)
#
#
# Indices 1 2 3 4 5 6 
#
# 1 0.006100 -0.000536 0.000211 0.000000 0.000000 0.000000
# 2 -0.000536 0.010402 -0.002833 0.000000 0.000000 0.000000
# 3 0.000211 -0.002833 0.006074 0.000000 0.000000 0.000000
# 4 0.000000 0.000000 0.000000 0.047975 0.000000 0.000000
# 5 0.000000 0.000000 0.000000 0.000000 0.081119 0.000000
# 6 0.000000 0.000000 0.000000 0.000000 0.000000 0.056841
#
#
# Mechanical properties :
#
#
# Convention : Reuss Voigt Hill
#
# Bulk Modulus (GPa) = 61.49767 64.24014 62.86890
# Shear Modulus (GPa) = 22.70174 37.26250 29.98212
#
# Velocity S-wave (km/s) = 2.99146 3.83257 3.43784
# Velocity P-wave (km/s) = 6.01446 6.70133 6.36716
#
# Compressibility (1/GPa) = 0.01626078
#
# Stress axis : x y z
#
# Youngs Moduli (GPa) = 163.93307 96.13135 164.63718
#
# Poissons Ratio (x) = 0.05155 -0.03478
# Poissons Ratio (y) = 0.08791 0.46639
# Poissons Ratio (z) = -0.03464 0.27232
#
# Static dielectric constant tensor:
#      x y z
#    x 2.104530 0.000000 0.000000 
#    y 0.000000 1.949420 0.000000 
#    z 0.000000 0.000000 2.416360 
# 
# From -- ./inp_files/7016.got.cif
#   From: 2010.05.17/outbox.cif.g08.bks.cpg/sg69_4_cif.got.tgz:7016.got - 2010.06.03 19:29:58.
