data_PCOD9513617
_publ_section_title
;
Structure prediction by ZEFSAII (Michael W. Deem and Ramdas Pophale) SiO2 
 PCOD9513617
Probable space group: F M M M
;
_chemical_formula_sum "Si O2"
_cell_formula_units_Z 152
_cell_length_a 21.369816
_cell_length_b 14.887643
_cell_length_c 25.004795
_cell_angle_alpha 90.000000
_cell_angle_beta 90.000000
_cell_angle_gamma 90.000000
_cell_volume 7955.180301
_symmetry_space_group_name_H-M "F M M M"
_symmetry_group_IT_number 69
_symmetry_cell_setting 'orthorhombic'
loop_
_space_group_symop_operation_xyz
x,y,z
-x,-y,z
x,-y,-z
-x,y,-z
-x,-y,-z
x,y,-z
-x,y,z
x,-y,z
x,1/2+y,1/2+z
-x,1/2-y,1/2+z
x,1/2-y,1/2-z
-x,1/2+y,1/2-z
-x,1/2-y,1/2-z
x,1/2+y,1/2-z
-x,1/2+y,1/2+z
x,1/2-y,1/2+z
1/2+x,y,1/2+z
1/2-x,-y,1/2+z
1/2+x,-y,1/2-z
1/2-x,y,1/2-z
1/2-x,-y,1/2-z
1/2+x,y,1/2-z
1/2-x,y,1/2+z
1/2+x,-y,1/2+z
1/2+x,1/2+y,z
1/2-x,1/2-y,z
1/2+x,1/2-y,-z
1/2-x,1/2+y,-z
1/2-x,1/2-y,-z
1/2+x,1/2+y,-z
1/2-x,1/2+y,z
1/2+x,1/2-y,z
loop_
_atom_site_type_symbol
_atom_site_label
_atom_site_fract_x
_atom_site_fract_y
_atom_site_fract_z
Si Si1 0.247086 0.104466 0.186667
Si Si2 0.367791 0.340409 0.370453
Si Si3 0.108876 0.853627 0.149029
Si Si4 0.426219 0.101340 0.759289
Si Si5 0.000000 0.000000 0.874684
Si Si6 0.426371 0.500000 0.436130
O O1 0.250000 0.134032 0.250000
O O2 0.295745 0.155828 0.148559
O O3 0.179139 0.110627 0.159295
O O4 0.266750 0.000000 0.187592
O O5 0.387563 0.238953 0.383181
O O6 0.401272 0.371008 0.315913
O O7 0.390136 0.412825 0.413591
O O8 0.089918 0.834336 0.210607
O O9 0.056051 0.921863 0.128292
O O10 0.500000 0.095200 0.761464
O O11 0.402462 0.000000 0.745554
O O12 0.500000 0.500000 0.418280
O O13 0.425943 0.500000 0.500000
#
# Coordination Sequence:
#
# PCOD9513617 Si02
#       6
#    32  32  32  32   8  16
#     4  11  21  37  56  87 133 177 215 258 308 385
#     4  12  24  37  63  91 120 170 218 265 321 383
#     4  12  23  36  56  86 132 174 213 250 306 387
#     4  11  19  32  49  81 130 169 207 247 297 370
#     4  12  24  40  50  84 131 176 207 256 304 378
#     4  11  26  48  68  93 124 157 216 289 334 371
#
# _framework density 19.107047000000001
#
# number of rings (size 3 to 8) (size 9 to 14) (size 15 to 20)
#    0.000    0.526    7.368    1.895    2.947    1.684 
#    0.000    0.000    0.000    2.526    0.000    1.474 
#    0.000    0.000    0.000    0.000    0.000    0.000 
#
# Total GULP energy -211548.131885 kJ/mol
# GULP energy per Si atom -5567.056102 kJ/mol
# Density = 1.906356 g / cm^3
# Si number density = 19.107047 Si / 1000 Ang^3
#
#
#
# Elastic Constant Matrix: (Units=GPa)
#
#
# Indices 1 2 3 4 5 6 
#
# 1 179.4989 46.4599 3.4096 0.0000 0.0000 0.0000
# 2 46.4599 143.8950 36.8194 0.0000 0.0000 0.0000
# 3 3.4096 36.8194 50.1178 0.0000 0.0000 0.0000
# 4 0.0000 0.0000 0.0000 10.4933 0.0000 0.0000
# 5 0.0000 0.0000 0.0000 0.0000 15.2824 0.0000
# 6 0.0000 0.0000 0.0000 0.0000 0.0000 24.0219
#
#
#
# Elastic Compliance Matrix: (Units=1/GPa)
#
#
# Indices 1 2 3 4 5 6 
#
# 1 0.006145 -0.002312 0.001280 0.000000 0.000000 0.000000
# 2 -0.002312 0.009428 -0.006769 0.000000 0.000000 0.000000
# 3 0.001280 -0.006769 0.024839 0.000000 0.000000 0.000000
# 4 0.000000 0.000000 0.000000 0.095299 0.000000 0.000000
# 5 0.000000 0.000000 0.000000 0.000000 0.065435 0.000000
# 6 0.000000 0.000000 0.000000 0.000000 0.000000 0.041629
#
#
# Mechanical properties :
#
#
# Convention : Reuss Voigt Hill
#
# Bulk Modulus (GPa) = 40.30489 60.76549 50.53519
# Shear Modulus (GPa) = 18.75149 29.08104 23.91626
#
# Velocity S-wave (km/s) = 3.13611 3.90552 3.54177
# Velocity P-wave (km/s) = 5.85266 7.22559 6.57506
#
# Compressibility (1/GPa) = 0.02481088
#
# Stress axis : x y z
#
# Youngs Moduli (GPa) = 162.73186 106.06793 40.25958
#
# Poissons Ratio (x) = 0.24519 -0.05154
# Poissons Ratio (y) = 0.37618 0.27252
# Poissons Ratio (z) = -0.20833 0.71798
#
# Static dielectric constant tensor:
#      x y z
#    x 1.749310 0.000000 0.000000 
#    y 0.000000 1.743090 0.000000 
#    z 0.000000 0.000000 1.639820 
# 
# From -- ./inp_files/29950.got.cif
#   From: 2010.05.17/outbox.cif.g08.bks.cpg/sg69_15_cif.got.tgz:29950.got - 2010.06.03 19:29:58.
