data_PCOD9513941
_publ_section_title
;
Structure prediction by ZEFSAII (Michael W. Deem and Ramdas Pophale) SiO2 
 PCOD9513941
Probable space group: F M M M
;
_chemical_formula_sum "Si O2"
_cell_formula_units_Z 160
_cell_length_a 35.334866
_cell_length_b 14.866370
_cell_length_c 14.714518
_cell_angle_alpha 90.000000
_cell_angle_beta 90.000000
_cell_angle_gamma 90.000000
_cell_volume 7729.553843
_symmetry_space_group_name_H-M "F M M M"
_symmetry_group_IT_number 69
_symmetry_cell_setting 'orthorhombic'
loop_
_space_group_symop_operation_xyz
x,y,z
-x,-y,z
x,-y,-z
-x,y,-z
-x,-y,-z
x,y,-z
-x,y,z
x,-y,z
x,1/2+y,1/2+z
-x,1/2-y,1/2+z
x,1/2-y,1/2-z
-x,1/2+y,1/2-z
-x,1/2-y,1/2-z
x,1/2+y,1/2-z
-x,1/2+y,1/2+z
x,1/2-y,1/2+z
1/2+x,y,1/2+z
1/2-x,-y,1/2+z
1/2+x,-y,1/2-z
1/2-x,y,1/2-z
1/2-x,-y,1/2-z
1/2+x,y,1/2-z
1/2-x,y,1/2+z
1/2+x,-y,1/2+z
1/2+x,1/2+y,z
1/2-x,1/2-y,z
1/2+x,1/2-y,-z
1/2-x,1/2+y,-z
1/2-x,1/2-y,-z
1/2+x,1/2+y,-z
1/2-x,1/2+y,z
1/2+x,1/2-y,z
loop_
_atom_site_type_symbol
_atom_site_label
_atom_site_fract_x
_atom_site_fract_y
_atom_site_fract_z
Si Si1 0.318500 0.604214 0.602684
Si Si2 0.456795 0.109559 0.896228
Si Si3 0.387266 0.389447 0.276031
Si Si4 0.845671 0.608807 0.603338
Si Si5 0.738374 0.646416 0.104265
O O1 0.316816 0.643835 0.500000
O O2 0.328451 0.500000 0.592438
O O3 0.351737 0.643292 0.663308
O O4 0.276453 0.605069 0.645103
O O5 0.500000 0.138203 0.878185
O O6 0.425978 0.139952 0.823223
O O7 0.456708 0.000000 0.895063
O O8 0.446513 0.135482 0.000000
O O9 0.387442 0.500000 0.276009
O O10 0.377871 0.361668 0.173403
O O11 0.850042 0.642129 0.500000
O O12 0.846047 0.500000 0.600481
O O13 0.803811 0.634332 0.640075
O O14 0.750000 0.750000 0.102646
O O15 0.735868 0.611151 0.000000
#
# Coordination Sequence:
#
# PCOD9513941 Si02
#       5
#    32  32  32  32  32
#     4   9  16  26  41  60  82 107 135 169 208 249
#     4   8  13  22  38  61  88 113 133 159 204 259
#     4   9  16  25  39  59  81 107 139 170 201 246
#     4   9  17  29  43  57  77 109 147 182 213 245
#     4   9  17  29  43  58  80 110 142 177 215 251
#
# _framework density 20.699771999999999
#
# number of rings (size 3 to 8) (size 9 to 14) (size 15 to 20)
#    0.000    3.200    0.000    1.800    0.000    5.600 
#    0.000    5.000    0.000    0.600    0.000    4.200 
#    0.000    3.200    0.000   10.400    0.000   10.400 
#
# Total GULP energy -222922.461520 kJ/mol
# GULP energy per Si atom -5573.061538 kJ/mol
# Density = 2.065266 g / cm^3
# Si number density = 20.699772 Si / 1000 Ang^3
#
#
#
# Elastic Constant Matrix: (Units=GPa)
#
#
# Indices 1 2 3 4 5 6 
#
# 1 148.1726 1.1878 99.2368 0.0000 0.0000 0.0000
# 2 1.1878 33.7187 5.3365 0.0000 0.0000 0.0000
# 3 99.2368 5.3365 125.1598 0.0000 0.0000 0.0000
# 4 0.0000 0.0000 0.0000 -1.4274 0.0000 0.0000
# 5 0.0000 0.0000 0.0000 0.0000 35.1349 0.0000
# 6 0.0000 0.0000 0.0000 0.0000 0.0000 -3.7069
#
#
#
# Elastic Compliance Matrix: (Units=1/GPa)
#
#
# Indices 1 2 3 4 5 6 
#
# 1 0.014448 0.001313 -0.011512 0.000000 0.000000 0.000000
# 2 0.001313 0.029978 -0.002319 0.000000 0.000000 0.000000
# 3 -0.011512 -0.002319 0.017216 0.000000 0.000000 0.000000
# 4 0.000000 0.000000 0.000000 -0.700561 0.000000 0.000000
# 5 0.000000 0.000000 0.000000 0.000000 0.028462 0.000000
# 6 0.000000 0.000000 0.000000 0.000000 0.000000 -0.269765
#
#
# Mechanical properties :
#
#
# Convention : Reuss Voigt Hill
#
# Bulk Modulus (GPa) = 27.31770 57.61926 42.46848
# Shear Modulus (GPa) = -5.93130 19.41943 6.74406
#
# Velocity S-wave (km/s) = -1.69458 3.06624 1.80696
# Velocity P-wave (km/s) = 3.06544 6.35861 4.99143
#
# Compressibility (1/GPa) = 0.03660630
#
# Stress axis : x y z
#
# Youngs Moduli (GPa) = 69.21302 33.35789 58.08538
#
# Poissons Ratio (x) = -0.04380 0.66866
# Poissons Ratio (y) = -0.09087 0.13471
# Poissons Ratio (z) = 0.79676 0.07736
#
# Static dielectric constant tensor:
#      x y z
#    x 1.735850 0.000000 0.000000 
#    y 0.000000 1.814470 0.000000 
#    z 0.000000 0.000000 1.796050 
# 
# From -- ./inp_files/27834.got.cif
#   From: 2010.05.17/outbox.cif.g08.bks.cpg/sg69_14_cif.got.tgz:27834.got - 2010.06.03 19:29:58.
