data_PCOD9513398
_publ_section_title
;
Structure prediction by ZEFSAII (Michael W. Deem and Ramdas Pophale) SiO2 
 PCOD9513398
Probable space group: F M M M
;
_chemical_formula_sum "Si O2"
_cell_formula_units_Z 192
_cell_length_a 18.430241
_cell_length_b 25.961515
_cell_length_c 20.654943
_cell_angle_alpha 90.000000
_cell_angle_beta 90.000000
_cell_angle_gamma 90.000000
_cell_volume 9882.914711
_symmetry_space_group_name_H-M "F M M M"
_symmetry_group_IT_number 69
_symmetry_cell_setting 'orthorhombic'
loop_
_space_group_symop_operation_xyz
x,y,z
-x,-y,z
x,-y,-z
-x,y,-z
-x,-y,-z
x,y,-z
-x,y,z
x,-y,z
x,1/2+y,1/2+z
-x,1/2-y,1/2+z
x,1/2-y,1/2-z
-x,1/2+y,1/2-z
-x,1/2-y,1/2-z
x,1/2+y,1/2-z
-x,1/2+y,1/2+z
x,1/2-y,1/2+z
1/2+x,y,1/2+z
1/2-x,-y,1/2+z
1/2+x,-y,1/2-z
1/2-x,y,1/2-z
1/2-x,-y,1/2-z
1/2+x,y,1/2-z
1/2-x,y,1/2+z
1/2+x,-y,1/2+z
1/2+x,1/2+y,z
1/2-x,1/2-y,z
1/2+x,1/2-y,-z
1/2-x,1/2+y,-z
1/2-x,1/2-y,-z
1/2+x,1/2+y,-z
1/2-x,1/2+y,z
1/2+x,1/2-y,z
loop_
_atom_site_type_symbol
_atom_site_label
_atom_site_fract_x
_atom_site_fract_y
_atom_site_fract_z
Si Si1 0.916596 0.898505 0.737394
Si Si2 0.187460 0.207052 0.576444
Si Si3 0.417406 0.219829 0.190599
Si Si4 0.347448 0.559880 0.133800
Si Si5 0.815359 0.591230 0.120529
Si Si6 0.083564 0.561480 0.000000
Si Si7 0.083420 0.937421 0.000000
O O1 0.919216 0.839025 0.714890
O O2 0.880783 0.908110 0.807005
O O3 0.862305 0.921250 0.684100
O O4 0.000000 0.917839 0.736155
O O5 0.170130 0.200582 0.500000
O O6 0.250000 0.250000 0.581283
O O7 0.121864 0.224909 0.622280
O O8 0.205868 0.151236 0.607492
O O9 0.500000 0.238550 0.183463
O O10 0.380906 0.250000 0.250000
O O11 0.369302 0.500000 0.142940
O O12 0.260853 0.562658 0.126998
O O13 0.378651 0.579736 0.065684
O O14 0.869056 0.577720 0.061734
O O15 0.078799 0.500000 0.000000
O O16 0.000000 0.581869 0.000000
O O17 0.000000 0.922205 0.000000
O O18 0.087409 0.000000 0.000000
#
# Coordination Sequence:
#
# PCOD9513398 Si02
#       7
#    32  32  32  32  32  16  16
#     4  10  22  39  60  87 119 157 202 246 296 357
#     4  10  22  39  61  91 120 155 199 247 298 361
#     4   9  20  39  62  88 119 156 196 244 298 355
#     4  11  23  38  60  87 121 160 202 250 300 357
#     4  11  22  40  60  89 123 161 197 251 303 358
#     4  11  23  39  62  90 122 162 204 245 298 364
#     4   9  19  37  59  82 109 152 203 245 294 350
#
# _framework density 19.427467
#
# number of rings (size 3 to 8) (size 9 to 14) (size 15 to 20)
#    0.000    1.833    0.833    2.500    2.333    5.000 
#    0.000    0.000    0.000    0.000    0.000    0.000 
#    0.000    0.000    0.000    0.000    0.000    0.000 
#
# Total GULP energy -267700.586350 kJ/mol
# GULP energy per Si atom -5577.095549 kJ/mol
# Density = 1.938325 g / cm^3
# Si number density = 19.427467 Si / 1000 Ang^3
#
#
#
# Elastic Constant Matrix: (Units=GPa)
#
#
# Indices 1 2 3 4 5 6 
#
# 1 132.3772 12.9997 84.0587 0.0000 0.0000 0.0000
# 2 12.9997 26.8335 10.4908 0.0000 0.0000 0.0000
# 3 84.0587 10.4908 177.5074 0.0000 0.0000 0.0000
# 4 0.0000 0.0000 0.0000 8.9985 0.0000 0.0000
# 5 0.0000 0.0000 0.0000 0.0000 34.3565 0.0000
# 6 0.0000 0.0000 0.0000 0.0000 0.0000 19.5290
#
#
#
# Elastic Compliance Matrix: (Units=1/GPa)
#
#
# Indices 1 2 3 4 5 6 
#
# 1 0.011098 -0.003400 -0.005054 0.000000 0.000000 0.000000
# 2 -0.003400 0.039190 -0.000706 0.000000 0.000000 0.000000
# 3 -0.005054 -0.000706 0.008069 0.000000 0.000000 0.000000
# 4 0.000000 0.000000 0.000000 0.111130 0.000000 0.000000
# 5 0.000000 0.000000 0.000000 0.000000 0.029107 0.000000
# 6 0.000000 0.000000 0.000000 0.000000 0.000000 0.051206
#
#
# Mechanical properties :
#
#
# Convention : Reuss Voigt Hill
#
# Bulk Modulus (GPa) = 24.97793 61.31294 43.14543
# Shear Modulus (GPa) = 17.76420 27.85473 22.80947
#
# Velocity S-wave (km/s) = 3.02716 3.79064 3.43021
# Velocity P-wave (km/s) = 5.01031 7.12650 6.15996
#
# Compressibility (1/GPa) = 0.04003534
#
# Stress axis : x y z
#
# Youngs Moduli (GPa) = 90.11029 25.51668 123.93500
#
# Poissons Ratio (x) = 0.08676 0.62640
# Poissons Ratio (y) = 0.30640 0.08749
# Poissons Ratio (z) = 0.45544 0.01801
#
# Static dielectric constant tensor:
#      x y z
#    x 1.672480 0.000000 0.000000 
#    y 0.000000 1.711410 0.000000 
#    z 0.000000 0.000000 1.681180 
# 
# From -- ./inp_files/23726.got.cif
#   From: 2010.05.17/outbox.cif.g08.bks.cpg/sg69_12_cif.got.tgz:23726.got - 2010.06.03 19:29:58.
