data_PCOD9513864
_publ_section_title
;
Structure prediction by ZEFSAII (Michael W. Deem and Ramdas Pophale) SiO2 
 PCOD9513864
Probable space group: F M M M
;
_chemical_formula_sum "Si O2"
_cell_formula_units_Z 168
_cell_length_a 23.835666
_cell_length_b 15.042015
_cell_length_c 22.957769
_cell_angle_alpha 90.000000
_cell_angle_beta 90.000000
_cell_angle_gamma 90.000000
_cell_volume 8231.196894
_symmetry_space_group_name_H-M "F M M M"
_symmetry_group_IT_number 69
_symmetry_cell_setting 'orthorhombic'
loop_
_space_group_symop_operation_xyz
x,y,z
-x,-y,z
x,-y,-z
-x,y,-z
-x,-y,-z
x,y,-z
-x,y,z
x,-y,z
x,1/2+y,1/2+z
-x,1/2-y,1/2+z
x,1/2-y,1/2-z
-x,1/2+y,1/2-z
-x,1/2-y,1/2-z
x,1/2+y,1/2-z
-x,1/2+y,1/2+z
x,1/2-y,1/2+z
1/2+x,y,1/2+z
1/2-x,-y,1/2+z
1/2+x,-y,1/2-z
1/2-x,y,1/2-z
1/2-x,-y,1/2-z
1/2+x,y,1/2-z
1/2-x,y,1/2+z
1/2+x,-y,1/2+z
1/2+x,1/2+y,z
1/2-x,1/2-y,z
1/2+x,1/2-y,-z
1/2-x,1/2+y,-z
1/2-x,1/2-y,-z
1/2+x,1/2+y,-z
1/2-x,1/2+y,z
1/2+x,1/2-y,z
loop_
_atom_site_type_symbol
_atom_site_label
_atom_site_fract_x
_atom_site_fract_y
_atom_site_fract_z
Si Si1 0.148141 0.600795 0.140027
Si Si2 0.098896 0.146934 0.243677
Si Si3 0.564396 0.725482 0.568295
Si Si4 0.745048 0.856895 0.433526
Si Si5 0.000000 0.500000 0.241975
Si Si6 0.379223 0.897778 0.389346
O O1 0.127423 0.500000 0.134394
O O2 0.145867 0.628711 0.207324
O O3 0.106632 0.666325 0.105646
O O4 0.208827 0.607293 0.110846
O O5 0.081356 0.250000 0.250000
O O6 0.120406 0.127967 0.178704
O O7 0.048889 0.078293 0.255987
O O8 0.571639 0.705685 0.500000
O O9 0.500000 0.708374 0.584908
O O10 0.579837 0.828023 0.579543
O O11 0.756752 0.885582 0.500000
O O12 0.750000 0.750000 0.432132
O O13 0.682664 0.884797 0.415626
O O14 0.396956 0.000000 0.395635
#
# Coordination Sequence:
#
# PCOD9513864 Si02
#       6
#    32  32  32  32   8  32
#     4  12  25  44  70 103 140 180 233 290 347 415
#     4  12  25  44  70 105 141 186 231 288 353 415
#     4  11  26  44  66  97 136 184 233 288 354 412
#     4  11  23  44  73 101 137 189 237 285 348 419
#     4  12  26  44  72 104 138 192 242 276 346 440
#     4  12  25  44  70 103 140 180 233 290 347 415
#
# _framework density 20.410153999999999
#
# number of rings (size 3 to 8) (size 9 to 14) (size 15 to 20)
#    0.000    0.381    5.714    2.000    2.667    5.333 
#    0.000    5.714    0.000    0.000    0.000    0.000 
#    0.000    0.000    0.000    0.000    0.000    0.000 
#
# Total GULP energy -234482.554415 kJ/mol
# GULP energy per Si atom -5582.917962 kJ/mol
# Density = 2.036370 g / cm^3
# Si number density = 20.410154 Si / 1000 Ang^3
#
#
#
# Elastic Constant Matrix: (Units=GPa)
#
#
# Indices 1 2 3 4 5 6 
#
# 1 36.8177 -20.8158 4.1520 0.0000 0.0000 0.0000
# 2 -20.8158 139.7307 -21.2989 0.0000 0.0000 0.0000
# 3 4.1520 -21.2989 46.6808 0.0000 0.0000 0.0000
# 4 0.0000 0.0000 0.0000 3.9736 0.0000 0.0000
# 5 0.0000 0.0000 0.0000 0.0000 29.4103 0.0000
# 6 0.0000 0.0000 0.0000 0.0000 0.0000 30.3366
#
#
#
# Elastic Compliance Matrix: (Units=1/GPa)
#
#
# Indices 1 2 3 4 5 6 
#
# 1 0.029678 0.004319 -0.000669 0.000000 0.000000 0.000000
# 2 0.004319 0.008320 0.003412 0.000000 0.000000 0.000000
# 3 -0.000669 0.003412 0.023038 0.000000 0.000000 0.000000
# 4 0.000000 0.000000 0.000000 0.251661 0.000000 0.000000
# 5 0.000000 0.000000 0.000000 0.000000 0.034002 0.000000
# 6 0.000000 0.000000 0.000000 0.000000 0.000000 0.032964
#
#
# Mechanical properties :
#
#
# Convention : Reuss Voigt Hill
#
# Bulk Modulus (GPa) = 13.30471 16.36709 14.83590
# Shear Modulus (GPa) = 12.80109 30.15688 21.47898
#
# Velocity S-wave (km/s) = 2.50710 3.84805 3.24754
# Velocity P-wave (km/s) = 3.86181 5.27066 4.62025
#
# Compressibility (1/GPa) = 0.07516135
#
# Stress axis : x y z
#
# Youngs Moduli (GPa) = 33.69470 120.19012 43.40582
#
# Poissons Ratio (x) = -0.51913 0.02904
# Poissons Ratio (y) = -0.14554 -0.14810
# Poissons Ratio (z) = 0.02254 -0.41009
#
# Static dielectric constant tensor:
#      x y z
#    x 1.675850 0.000000 0.000000 
#    y 0.000000 1.735040 0.000000 
#    z 0.000000 0.000000 1.720370 
# 
# From -- ./inp_files/17869.got.cif
#   From: 2010.05.17/outbox.cif.g08.bks.cpg/sg69_9_cif.got.tgz:17869.got - 2010.06.03 19:29:58.
