data_PCOD9513957
_publ_section_title
;
Structure prediction by ZEFSAII (Michael W. Deem and Ramdas Pophale) SiO2 
 PCOD9513957
Probable space group: F M M M
;
_chemical_formula_sum "Si O2"
_cell_formula_units_Z 160
_cell_length_a 28.437247
_cell_length_b 14.355821
_cell_length_c 17.776560
_cell_angle_alpha 90.000000
_cell_angle_beta 90.000000
_cell_angle_gamma 90.000000
_cell_volume 7257.103346
_symmetry_space_group_name_H-M "F M M M"
_symmetry_group_IT_number 69
_symmetry_cell_setting 'orthorhombic'
loop_
_space_group_symop_operation_xyz
x,y,z
-x,-y,z
x,-y,-z
-x,y,-z
-x,-y,-z
x,y,-z
-x,y,z
x,-y,z
x,1/2+y,1/2+z
-x,1/2-y,1/2+z
x,1/2-y,1/2-z
-x,1/2+y,1/2-z
-x,1/2-y,1/2-z
x,1/2+y,1/2-z
-x,1/2+y,1/2+z
x,1/2-y,1/2+z
1/2+x,y,1/2+z
1/2-x,-y,1/2+z
1/2+x,-y,1/2-z
1/2-x,y,1/2-z
1/2-x,-y,1/2-z
1/2+x,y,1/2-z
1/2-x,y,1/2+z
1/2+x,-y,1/2+z
1/2+x,1/2+y,z
1/2-x,1/2-y,z
1/2+x,1/2-y,-z
1/2-x,1/2+y,-z
1/2-x,1/2-y,-z
1/2+x,1/2+y,-z
1/2-x,1/2+y,z
1/2+x,1/2-y,z
loop_
_atom_site_type_symbol
_atom_site_label
_atom_site_fract_x
_atom_site_fract_y
_atom_site_fract_z
Si Si1 0.148877 0.856038 0.161201
Si Si2 0.664848 0.633487 0.329916
Si Si3 0.244180 0.862931 0.084664
Si Si4 0.428754 0.900111 0.089587
Si Si5 0.947931 0.189114 0.909086
O O1 0.159812 0.745527 0.167778
O O2 0.152662 0.894942 0.245228
O O3 0.191699 0.889810 0.109359
O O4 0.096652 0.862327 0.127242
O O5 0.716632 0.606173 0.356017
O O6 0.626023 0.600378 0.388836
O O7 0.250000 0.750000 0.083665
O O8 0.254315 0.894021 0.000000
O O9 0.446615 0.798712 0.115784
O O10 0.447655 0.000000 0.118102
O O11 0.435741 0.899728 0.000000
O O12 0.000000 0.152124 0.890865
O O13 0.942417 0.187723 0.000000
#
# Coordination Sequence:
#
# PCOD9513957 Si02
#       5
#    32  32  32  32  32
#     4   9  16  26  40  61  89 117 142 178 227 271
#     4   9  16  26  40  62  87 114 144 178 222 270
#     4   9  15  23  39  61  84 111 145 180 215 263
#     4   9  17  29  44  61  84 118 159 195 224 261
#     4   9  17  29  45  65  90 119 151 187 225 267
#
# _framework density 22.047364000000002
#
# number of rings (size 3 to 8) (size 9 to 14) (size 15 to 20)
#    0.000    3.000    0.000    1.800    0.000    7.600 
#    0.000   10.000    0.000    2.400    0.000    0.000 
#    0.000    2.400    0.000    4.000    0.000    7.800 
#
# Total GULP energy -223054.467364 kJ/mol
# GULP energy per Si atom -5576.361684 kJ/mol
# Density = 2.199718 g / cm^3
# Si number density = 22.047364 Si / 1000 Ang^3
#
#
#
# Elastic Constant Matrix: (Units=GPa)
#
#
# Indices 1 2 3 4 5 6 
#
# 1 210.7903 7.8628 66.1239 0.0000 0.0000 0.0000
# 2 7.8628 66.7384 1.9978 0.0000 0.0000 0.0000
# 3 66.1239 1.9978 71.8451 0.0000 0.0000 0.0000
# 4 0.0000 0.0000 0.0000 -17.4998 0.0000 0.0000
# 5 0.0000 0.0000 0.0000 0.0000 20.7315 0.0000
# 6 0.0000 0.0000 0.0000 0.0000 0.0000 28.9205
#
#
#
# Elastic Compliance Matrix: (Units=1/GPa)
#
#
# Indices 1 2 3 4 5 6 
#
# 1 0.006694 -0.000605 -0.006144 0.000000 0.000000 0.000000
# 2 -0.000605 0.015051 0.000138 0.000000 0.000000 0.000000
# 3 -0.006144 0.000138 0.019570 0.000000 0.000000 0.000000
# 4 0.000000 0.000000 0.000000 -0.057143 0.000000 0.000000
# 5 0.000000 0.000000 0.000000 0.000000 0.048236 0.000000
# 6 0.000000 0.000000 0.000000 0.000000 0.000000 0.034577
#
#
# Mechanical properties :
#
#
# Convention : Reuss Voigt Hill
#
# Bulk Modulus (GPa) = 35.59573 55.70476 45.65024
# Shear Modulus (GPa) = 55.82191 24.65640 40.23916
#
# Velocity S-wave (km/s) = 5.03727 3.34778 4.27678
# Velocity P-wave (km/s) = 7.07193 6.34542 6.71850
#
# Compressibility (1/GPa) = 0.02809326
#
# Stress axis : x y z
#
# Youngs Moduli (GPa) = 149.38772 66.44079 51.09900
#
# Poissons Ratio (x) = 0.04018 0.31396
# Poissons Ratio (y) = 0.09034 -0.00706
# Poissons Ratio (z) = 0.91786 -0.00917
#
# Static dielectric constant tensor:
#      x y z
#    x 1.786580 0.000000 0.000000 
#    y 0.000000 1.873220 0.000000 
#    z 0.000000 0.000000 1.764580 
# 
# From -- ./inp_files/23468.got.cif
#   From: 2010.05.17/outbox.cif.g08.bks.cpg/sg69_12_cif.got.tgz:23468.got - 2010.06.03 19:29:58.
