data_PCOD9513496
_publ_section_title
;
Structure prediction by ZEFSAII (Michael W. Deem and Ramdas Pophale) SiO2 
 PCOD9513496
Probable space group: F M M M
;
_chemical_formula_sum "Si O2"
_cell_formula_units_Z 176
_cell_length_a 15.466266
_cell_length_b 15.288074
_cell_length_c 30.286747
_cell_angle_alpha 90.000000
_cell_angle_beta 90.000000
_cell_angle_gamma 90.000000
_cell_volume 7161.283735
_symmetry_space_group_name_H-M "F M M M"
_symmetry_group_IT_number 69
_symmetry_cell_setting 'orthorhombic'
loop_
_space_group_symop_operation_xyz
x,y,z
-x,-y,z
x,-y,-z
-x,y,-z
-x,-y,-z
x,y,-z
-x,y,z
x,-y,z
x,1/2+y,1/2+z
-x,1/2-y,1/2+z
x,1/2-y,1/2-z
-x,1/2+y,1/2-z
-x,1/2-y,1/2-z
x,1/2+y,1/2-z
-x,1/2+y,1/2+z
x,1/2-y,1/2+z
1/2+x,y,1/2+z
1/2-x,-y,1/2+z
1/2+x,-y,1/2-z
1/2-x,y,1/2-z
1/2-x,-y,1/2-z
1/2+x,y,1/2-z
1/2-x,y,1/2+z
1/2+x,-y,1/2+z
1/2+x,1/2+y,z
1/2-x,1/2-y,z
1/2+x,1/2-y,-z
1/2-x,1/2+y,-z
1/2-x,1/2-y,-z
1/2+x,1/2+y,-z
1/2-x,1/2+y,z
1/2+x,1/2-y,z
loop_
_atom_site_type_symbol
_atom_site_label
_atom_site_fract_x
_atom_site_fract_y
_atom_site_fract_z
Si Si1 0.190916 0.664661 0.359544
Si Si2 0.357380 0.401561 0.321346
Si Si3 0.163801 0.603798 0.548879
Si Si4 0.601436 0.103792 0.274683
Si Si5 0.000000 0.825251 0.617955
Si Si6 0.128846 0.900541 0.449209
O O1 0.250000 0.750000 0.363925
O O2 0.267377 0.596383 0.347585
O O3 0.137678 0.644728 0.404230
O O4 0.130812 0.658411 0.316848
O O5 0.394459 0.500000 0.321655
O O6 0.346931 0.376484 0.270211
O O7 0.424495 0.338765 0.344760
O O8 0.135454 0.636957 0.500000
O O9 0.144494 0.500000 0.549857
O O10 0.268195 0.613765 0.550663
O O11 0.500000 0.117467 0.265733
O O12 0.613559 0.000000 0.284612
O O13 0.924737 0.834590 0.579637
O O14 0.102289 0.897985 0.500000
O O15 0.111403 0.000000 0.432354
#
# Coordination Sequence:
#
# PCOD9513496 Si02
#       6
#    32  32  32  32  16  32
#     4  12  25  40  58  87 122 163 199 237 304 374
#     4  11  21  36  59  87 116 152 200 250 298 353
#     4   9  18  35  60  86 112 149 198 249 298 351
#     4  10  22  42  66  89 114 153 211 270 309 340
#     4  12  18  27  52  85 120 147 180 234 298 360
#     4   9  16  25  43  77 116 146 174 218 281 353
#
# _framework density 24.576599999999999
#
# number of rings (size 3 to 8) (size 9 to 14) (size 15 to 20)
#    0.000    1.636    2.727    5.182    0.000    4.000 
#    1.636    0.909    0.000    0.545    0.000    2.545 
#    0.000    0.000    0.000    0.000    0.000    0.000 
#
# Total GULP energy -245073.090049 kJ/mol
# GULP energy per Si atom -5569.842956 kJ/mol
# Density = 2.452066 g / cm^3
# Si number density = 24.576600 Si / 1000 Ang^3
#
#
#
# Elastic Constant Matrix: (Units=GPa)
#
#
# Indices 1 2 3 4 5 6 
#
# 1 19.6250 -6.9557 -10.4202 0.0000 0.0000 0.0000
# 2 -6.9557 61.7145 38.7671 0.0000 0.0000 0.0000
# 3 -10.4202 38.7671 223.3243 0.0000 0.0000 0.0000
# 4 0.0000 0.0000 0.0000 25.5633 0.0000 0.0000
# 5 0.0000 0.0000 0.0000 0.0000 59.5452 0.0000
# 6 0.0000 0.0000 0.0000 0.0000 0.0000 -12.0249
#
#
#
# Elastic Compliance Matrix: (Units=1/GPa)
#
#
# Indices 1 2 3 4 5 6 
#
# 1 0.053599 0.005017 0.001630 0.000000 0.000000 0.000000
# 2 0.005017 0.018656 -0.003004 0.000000 0.000000 0.000000
# 3 0.001630 -0.003004 0.005075 0.000000 0.000000 0.000000
# 4 0.000000 0.000000 0.000000 0.039119 0.000000 0.000000
# 5 0.000000 0.000000 0.000000 0.000000 0.016794 0.000000
# 6 0.000000 0.000000 0.000000 0.000000 0.000000 -0.083161
#
#
# Mechanical properties :
#
#
# Convention : Reuss Voigt Hill
#
# Bulk Modulus (GPa) = 11.81806 38.60513 25.21159
# Shear Modulus (GPa) = 70.41973 33.50157 51.96065
#
# Velocity S-wave (km/s) = 5.35867 3.69609 4.60307
# Velocity P-wave (km/s) = 6.56554 5.82726 6.20738
#
# Compressibility (1/GPa) = 0.08461627
#
# Stress axis : x y z
#
# Youngs Moduli (GPa) = 18.65703 53.60072 197.02877
#
# Poissons Ratio (x) = -0.26892 -0.32115
# Poissons Ratio (y) = -0.09361 0.59197
# Poissons Ratio (z) = -0.03041 0.16104
#
# Static dielectric constant tensor:
#      x y z
#    x 1.946020 0.000000 0.000000 
#    y 0.000000 2.025610 0.000000 
#    z 0.000000 0.000000 1.961580 
# 
# From -- ./inp_files/41861.got.cif
#   From: 2010.05.17/outbox.cif.g08.bks.cpg/sg69_21_cif.got.tgz:41861.got - 2010.06.03 19:29:58.
