data_PCOD9513835
_publ_section_title
;
Structure prediction by ZEFSAII (Michael W. Deem and Ramdas Pophale) SiO2 
 PCOD9513835
Probable space group: F M M M
;
_chemical_formula_sum "Si O2"
_cell_formula_units_Z 160
_cell_length_a 15.528179
_cell_length_b 14.917581
_cell_length_c 32.074136
_cell_angle_alpha 90.000000
_cell_angle_beta 90.000000
_cell_angle_gamma 90.000000
_cell_volume 7429.744852
_symmetry_space_group_name_H-M "F M M M"
_symmetry_group_IT_number 69
_symmetry_cell_setting 'orthorhombic'
loop_
_space_group_symop_operation_xyz
x,y,z
-x,-y,z
x,-y,-z
-x,y,-z
-x,-y,-z
x,y,-z
-x,y,z
x,-y,z
x,1/2+y,1/2+z
-x,1/2-y,1/2+z
x,1/2-y,1/2-z
-x,1/2+y,1/2-z
-x,1/2-y,1/2-z
x,1/2+y,1/2-z
-x,1/2+y,1/2+z
x,1/2-y,1/2+z
1/2+x,y,1/2+z
1/2-x,-y,1/2+z
1/2+x,-y,1/2-z
1/2-x,y,1/2-z
1/2-x,-y,1/2-z
1/2+x,y,1/2-z
1/2-x,y,1/2+z
1/2+x,-y,1/2+z
1/2+x,1/2+y,z
1/2-x,1/2-y,z
1/2+x,1/2-y,-z
1/2-x,1/2+y,-z
1/2-x,1/2-y,-z
1/2+x,1/2+y,-z
1/2-x,1/2+y,z
1/2+x,1/2-y,z
loop_
_atom_site_type_symbol
_atom_site_label
_atom_site_fract_x
_atom_site_fract_y
_atom_site_fract_z
Si Si1 0.000000 0.366673 0.281778
Si Si2 0.336577 0.608813 0.363263
Si Si3 0.593113 0.609657 0.066184
Si Si4 0.850902 0.603592 0.655689
Si Si5 0.000000 0.337616 0.189918
Si Si6 0.714485 0.390664 0.455113
O O1 0.912696 0.396263 0.304851
O O2 0.000000 0.392074 0.233405
O O3 0.000000 0.262048 0.292577
O O4 0.344263 0.500000 0.362186
O O5 0.246219 0.639050 0.342116
O O6 0.416466 0.645954 0.337902
O O7 0.330454 0.637023 0.411943
O O8 0.500000 0.640305 0.049892
O O9 0.591472 0.500000 0.063181
O O10 0.600693 0.638921 0.114693
O O11 0.684703 0.636768 0.047128
O O12 0.836495 0.500000 0.644621
O O13 0.678373 0.361784 0.500000
O O14 0.713281 0.500000 0.454436
#
# Coordination Sequence:
#
# PCOD9513835 Si02
#       6
#    16  32  32  32  16  32
#     4  11  23  37  55  77 105 134 175 224 269 330
#     4   9  19  36  56  78 109 144 179 220 266 314
#     4   8  12  20  39  70 106 134 160 202 257 313
#     4   9  17  32  56  82 105 133 168 213 271 327
#     4  11  25  39  50  74 105 141 184 225 263 310
#     4   8  14  25  44  74 108 138 172 216 262 308
#
# _framework density 21.535057999999999
#
# number of rings (size 3 to 8) (size 9 to 14) (size 15 to 20)
#    0.000    3.000    1.000    3.000    0.000    3.600 
#    0.000    6.500    0.000    2.400    0.000   16.800 
#    0.000    0.000    0.000    0.000    0.000    0.000 
#
# Total GULP energy -222891.890373 kJ/mol
# GULP energy per Si atom -5572.297259 kJ/mol
# Density = 2.148604 g / cm^3
# Si number density = 21.535058 Si / 1000 Ang^3
#
#
#
# Elastic Constant Matrix: (Units=GPa)
#
#
# Indices 1 2 3 4 5 6 
#
# 1 148.8261 9.5280 98.0849 0.0000 0.0000 0.0000
# 2 9.5280 42.7221 8.6345 0.0000 0.0000 0.0000
# 3 98.0849 8.6345 175.5200 0.0000 0.0000 0.0000
# 4 0.0000 0.0000 0.0000 183.0137 0.0000 0.0000
# 5 0.0000 0.0000 0.0000 0.0000 -39.1785 0.0000
# 6 0.0000 0.0000 0.0000 0.0000 0.0000 75.7564
#
#
#
# Elastic Compliance Matrix: (Units=1/GPa)
#
#
# Indices 1 2 3 4 5 6 
#
# 1 0.010696 -0.001189 -0.005919 0.000000 0.000000 0.000000
# 2 -0.001189 0.023774 -0.000505 0.000000 0.000000 0.000000
# 3 -0.005919 -0.000505 0.009030 0.000000 0.000000 0.000000
# 4 0.000000 0.000000 0.000000 0.005464 0.000000 0.000000
# 5 0.000000 0.000000 0.000000 0.000000 -0.025524 0.000000
# 6 0.000000 0.000000 0.000000 0.000000 0.000000 0.013200
#
#
# Mechanical properties :
#
#
# Convention : Reuss Voigt Hill
#
# Bulk Modulus (GPa) = 35.36778 66.61813 50.99295
# Shear Modulus (GPa) = 81.57765 60.63971 71.10868
#
# Velocity S-wave (km/s) = 6.16146 5.31222 5.75253
# Velocity P-wave (km/s) = 8.19006 8.28421 8.23727
#
# Compressibility (1/GPa) = 0.02827432
#
# Stress axis : x y z
#
# Youngs Moduli (GPa) = 93.49095 42.06206 110.74470
#
# Poissons Ratio (x) = 0.05002 0.65548
# Poissons Ratio (y) = 0.11118 0.05592
# Poissons Ratio (z) = 0.55336 0.02124
#
# Static dielectric constant tensor:
#      x y z
#    x 1.757120 0.000000 0.000000 
#    y 0.000000 1.877770 0.000000 
#    z 0.000000 0.000000 1.799500 
# 
# From -- ./inp_files/45693.got.cif
#   From: 2010.05.17/outbox.cif.g08.bks.cpg/sg69_23_cif.got.tgz:45693.got - 2010.06.03 19:29:58.
