data_PCOD9513524
_publ_section_title
;
Structure prediction by ZEFSAII (Michael W. Deem and Ramdas Pophale) SiO2 
 PCOD9513524
Probable space group: F M M M
;
_chemical_formula_sum "Si O2"
_cell_formula_units_Z 168
_cell_length_a 29.597150
_cell_length_b 18.832982
_cell_length_c 14.674652
_cell_angle_alpha 90.000000
_cell_angle_beta 90.000000
_cell_angle_gamma 90.000000
_cell_volume 8179.689079
_symmetry_space_group_name_H-M "F M M M"
_symmetry_group_IT_number 69
_symmetry_cell_setting 'orthorhombic'
loop_
_space_group_symop_operation_xyz
x,y,z
-x,-y,z
x,-y,-z
-x,y,-z
-x,-y,-z
x,y,-z
-x,y,z
x,-y,z
x,1/2+y,1/2+z
-x,1/2-y,1/2+z
x,1/2-y,1/2-z
-x,1/2+y,1/2-z
-x,1/2-y,1/2-z
x,1/2+y,1/2-z
-x,1/2+y,1/2+z
x,1/2-y,1/2+z
1/2+x,y,1/2+z
1/2-x,-y,1/2+z
1/2+x,-y,1/2-z
1/2-x,y,1/2-z
1/2-x,-y,1/2-z
1/2+x,y,1/2-z
1/2-x,y,1/2+z
1/2+x,-y,1/2+z
1/2+x,1/2+y,z
1/2-x,1/2-y,z
1/2+x,1/2-y,-z
1/2-x,1/2+y,-z
1/2-x,1/2-y,-z
1/2+x,1/2+y,-z
1/2-x,1/2+y,z
1/2+x,1/2-y,z
loop_
_atom_site_type_symbol
_atom_site_label
_atom_site_fract_x
_atom_site_fract_y
_atom_site_fract_z
Si Si1 0.358180 0.331730 0.605190
Si Si2 0.500000 0.000000 0.350986
Si Si3 0.328347 0.581996 0.223977
Si Si4 0.051390 0.737914 0.141624
Si Si5 0.918254 0.395204 0.395818
Si Si6 0.294240 0.702006 0.106286
O O1 0.346898 0.347084 0.500000
O O2 0.338699 0.388293 0.675571
O O3 0.411843 0.321241 0.616422
O O4 0.335666 0.255179 0.627846
O O5 0.539546 0.061219 0.357670
O O6 0.314789 0.500000 0.224418
O O7 0.374709 0.591031 0.165996
O O8 0.294495 0.634940 0.172085
O O9 0.052137 0.750000 0.250000
O O10 0.067987 0.812775 0.102301
O O11 0.000000 0.721731 0.114027
O O12 0.909477 0.417357 0.500000
O O13 0.250000 0.750000 0.116274
O O14 0.298280 0.680370 0.000000
#
# Coordination Sequence:
#
# PCOD9513524 Si02
#       6
#    32   8  32  32  32  32
#     4  11  23  42  64  88 126 174 227 277 323 383
#     4  12  25  36  54  88 139 180 203 256 352 422
#     4  12  25  41  63  96 134 171 213 269 329 394
#     4  11  21  35  60  89 123 167 225 281 329 387
#     4  12  22  35  56  88 126 167 209 260 328 399
#     4  10  22  43  72 101 129 165 208 263 332 400
#
# _framework density 20.538678000000001
#
# number of rings (size 3 to 8) (size 9 to 14) (size 15 to 20)
#    0.000    0.762    5.714    2.571    0.000    4.190 
#    0.000    1.905    0.000    3.429    0.000    2.000 
#    0.000    0.000    0.000    0.000    0.000    0.000 
#
# Total GULP energy -234476.019055 kJ/mol
# GULP energy per Si atom -5582.762358 kJ/mol
# Density = 2.049193 g / cm^3
# Si number density = 20.538678 Si / 1000 Ang^3
#
#
#
# Elastic Constant Matrix: (Units=GPa)
#
#
# Indices 1 2 3 4 5 6 
#
# 1 62.3986 25.5633 17.0660 0.0000 0.0000 0.0000
# 2 25.5633 105.9565 47.2445 0.0000 0.0000 0.0000
# 3 17.0660 47.2445 88.6401 0.0000 0.0000 0.0000
# 4 0.0000 0.0000 0.000014582.0076 0.0000 0.0000
# 5 0.0000 0.0000 0.0000 0.0000 7.5226 0.0000
# 6 0.0000 0.0000 0.0000 0.0000 0.0000 9.7356
#
#
#
# Elastic Compliance Matrix: (Units=1/GPa)
#
#
# Indices 1 2 3 4 5 6 
#
# 1 0.017935 -0.003656 -0.001504 0.000000 0.000000 0.000000
# 2 -0.003656 0.013125 -0.006292 0.000000 0.000000 0.000000
# 3 -0.001504 -0.006292 0.014925 0.000000 0.000000 0.000000
# 4 0.000000 0.000000 0.000000 0.000069 0.000000 0.000000
# 5 0.000000 0.000000 0.000000 0.000000 0.132933 0.000000
# 6 0.000000 0.000000 0.000000 0.000000 0.000000 0.102716
#
#
# Mechanical properties :
#
#
# Convention : Reuss Voigt Hill
#
# Bulk Modulus (GPa) = 43.32656 48.52698 45.92677
# Shear Modulus (GPa) = 16.01019 2930.99459 1473.50239
#
# Velocity S-wave (km/s) = 2.79501 37.81744 26.81391
# Velocity P-wave (km/s) = 5.61756 43.93811 31.32183
#
# Compressibility (1/GPa) = 0.02308053
#
# Stress axis : x y z
#
# Youngs Moduli (GPa) = 55.75579 76.18822 67.00314
#
# Poissons Ratio (x) = 0.27857 0.10079
# Poissons Ratio (y) = 0.20386 0.42157
# Poissons Ratio (z) = 0.08387 0.47936
#
# Static dielectric constant tensor:
#      x y z
#    x 1.761600 0.000000 0.000000 
#    y 0.000000 1.724860 0.000000 
#    z 0.000000 0.000000 1.756000 
# 
# From -- ./inp_files/19714.got.cif
#   From: 2010.05.17/outbox.cif.g08.bks.cpg/sg69_10_cif.got.tgz:19714.got - 2010.06.03 19:29:58.
