data_PCOD9513030
_publ_section_title
;
Structure prediction by ZEFSAII (Michael W. Deem and Ramdas Pophale) SiO2 
 PCOD9513030
Probable space group: F M M M
;
_chemical_formula_sum "Si O2"
_cell_formula_units_Z 200
_cell_length_a 32.084428
_cell_length_b 18.296998
_cell_length_c 18.742280
_cell_angle_alpha 90.000000
_cell_angle_beta 90.000000
_cell_angle_gamma 90.000000
_cell_volume 11002.631389
_symmetry_space_group_name_H-M "F M M M"
_symmetry_group_IT_number 69
_symmetry_cell_setting 'orthorhombic'
loop_
_space_group_symop_operation_xyz
x,y,z
-x,-y,z
x,-y,-z
-x,y,-z
-x,-y,-z
x,y,-z
-x,y,z
x,-y,z
x,1/2+y,1/2+z
-x,1/2-y,1/2+z
x,1/2-y,1/2-z
-x,1/2+y,1/2-z
-x,1/2-y,1/2-z
x,1/2+y,1/2-z
-x,1/2+y,1/2+z
x,1/2-y,1/2+z
1/2+x,y,1/2+z
1/2-x,-y,1/2+z
1/2+x,-y,1/2-z
1/2-x,y,1/2-z
1/2-x,-y,1/2-z
1/2+x,y,1/2-z
1/2-x,y,1/2+z
1/2+x,-y,1/2+z
1/2+x,1/2+y,z
1/2-x,1/2-y,z
1/2+x,1/2-y,-z
1/2-x,1/2+y,-z
1/2-x,1/2-y,-z
1/2+x,1/2+y,-z
1/2-x,1/2+y,z
1/2+x,1/2-y,z
loop_
_atom_site_type_symbol
_atom_site_label
_atom_site_fract_x
_atom_site_fract_y
_atom_site_fract_z
Si Si1 0.750000 0.250000 0.250000
Si Si2 0.179595 0.420403 0.676322
Si Si3 0.080419 0.085550 0.811793
Si Si4 0.099318 0.311053 0.810867
Si Si5 0.759298 0.663050 0.421046
Si Si6 0.450675 0.791797 0.416577
Si Si7 0.809312 0.635858 0.172445
O O1 0.781100 0.299130 0.204407
O O2 0.190878 0.500000 0.647140
O O3 0.130037 0.409955 0.671753
O O4 0.204821 0.358800 0.634691
O O5 0.190046 0.418350 0.760499
O O6 0.076116 0.125460 0.734633
O O7 0.058111 0.133624 0.872370
O O8 0.068699 0.000000 0.810356
O O9 0.108726 0.250000 0.750000
O O10 0.073262 0.271431 0.872544
O O11 0.143343 0.340372 0.839815
O O12 0.772821 0.641279 0.500000
O O13 0.750000 0.750000 0.423903
O O14 0.717583 0.619395 0.397225
O O15 0.437876 0.796711 0.500000
O O16 0.500000 0.777519 0.414561
#
# Coordination Sequence:
#
# PCOD9513030 Si02
#       7
#     8  32  32  32  32  32  32
#     4  12  16  28  52  76 102 132 168 224 260 300
#     4  10  21  37  55  75 104 143 183 226 278 331
#     4   9  20  37  58  86 113 143 187 235 284 335
#     4   9  19  33  56  82 108 143 187 233 280 330
#     4  11  23  33  46  73 107 141 181 228 272 316
#     4  10  22  38  57  84 118 152 184 225 283 347
#     4  11  18  31  53  75 101 136 183 227 270 313
#
# _framework density 18.177471000000001
#
# number of rings (size 3 to 8) (size 9 to 14) (size 15 to 20)
#    0.000    1.920    3.200    0.000    4.480    6.400 
#    0.000    2.400    0.000    0.480    0.000    5.600 
#    0.000    0.000    0.000    0.000    0.000    0.000 
#
# Total GULP energy -278578.292783 kJ/mol
# GULP energy per Si atom -5571.565856 kJ/mol
# Density = 1.813610 g / cm^3
# Si number density = 18.177471 Si / 1000 Ang^3
#
#
#
# Elastic Constant Matrix: (Units=GPa)
#
#
# Indices 1 2 3 4 5 6 
#
# 1 47.9629 25.2145 36.2568 0.0000 0.0000 0.0000
# 2 25.2145 90.0911 41.2805 0.0000 0.0000 0.0000
# 3 36.2568 41.2805 98.9500 0.0000 0.0000 0.0000
# 4 0.0000 0.0000 0.0000 12.0199 0.0000 0.0000
# 5 0.0000 0.0000 0.0000 0.0000 17.6515 0.0000
# 6 0.0000 0.0000 0.0000 0.0000 0.0000 8.8554
#
#
#
# Elastic Compliance Matrix: (Units=1/GPa)
#
#
# Indices 1 2 3 4 5 6 
#
# 1 0.030047 -0.004160 -0.009274 0.000000 0.000000 0.000000
# 2 -0.004160 0.014299 -0.004441 0.000000 0.000000 0.000000
# 3 -0.009274 -0.004441 0.015357 0.000000 0.000000 0.000000
# 4 0.000000 0.000000 0.000000 0.083196 0.000000 0.000000
# 5 0.000000 0.000000 0.000000 0.000000 0.056652 0.000000
# 6 0.000000 0.000000 0.000000 0.000000 0.000000 0.112925
#
#
# Mechanical properties :
#
#
# Convention : Reuss Voigt Hill
#
# Bulk Modulus (GPa) = 41.74899 49.16749 45.45824
# Shear Modulus (GPa) = 14.03661 16.65550 15.34606
#
# Velocity S-wave (km/s) = 2.78186 3.03028 2.90872
# Velocity P-wave (km/s) = 5.77370 6.27302 6.02853
#
# Compressibility (1/GPa) = 0.02395267
#
# Stress axis : x y z
#
# Youngs Moduli (GPa) = 33.28115 69.93440 65.11646
#
# Poissons Ratio (x) = 0.29092 0.60390
# Poissons Ratio (y) = 0.13845 0.28919
# Poissons Ratio (z) = 0.30866 0.31059
#
# Static dielectric constant tensor:
#      x y z
#    x 1.621520 0.000000 0.000000 
#    y 0.000000 1.664470 0.000000 
#    z 0.000000 0.000000 1.687440 
# 
# From -- ./inp_files/33984.got.cif
#   From: 2010.05.17/outbox.cif.g08.bks.cpg/sg69_17_cif.got.tgz:33984.got - 2010.06.03 19:29:58.
