data_PCOD9513172
_publ_section_title
;
Structure prediction by ZEFSAII (Michael W. Deem and Ramdas Pophale) SiO2 
 PCOD9513172
Probable space group: F M M M
;
_chemical_formula_sum "Si O2"
_cell_formula_units_Z 96
_cell_length_a 14.526248
_cell_length_b 21.825455
_cell_length_c 14.022671
_cell_angle_alpha 90.000000
_cell_angle_beta 90.000000
_cell_angle_gamma 90.000000
_cell_volume 4445.775267
_symmetry_space_group_name_H-M "F M M M"
_symmetry_group_IT_number 69
_symmetry_cell_setting 'orthorhombic'
loop_
_space_group_symop_operation_xyz
x,y,z
-x,-y,z
x,-y,-z
-x,y,-z
-x,-y,-z
x,y,-z
-x,y,z
x,-y,z
x,1/2+y,1/2+z
-x,1/2-y,1/2+z
x,1/2-y,1/2-z
-x,1/2+y,1/2-z
-x,1/2-y,1/2-z
x,1/2+y,1/2-z
-x,1/2+y,1/2+z
x,1/2-y,1/2+z
1/2+x,y,1/2+z
1/2-x,-y,1/2+z
1/2+x,-y,1/2-z
1/2-x,y,1/2-z
1/2-x,-y,1/2-z
1/2+x,y,1/2-z
1/2-x,y,1/2+z
1/2+x,-y,1/2+z
1/2+x,1/2+y,z
1/2-x,1/2-y,z
1/2+x,1/2-y,-z
1/2-x,1/2+y,-z
1/2-x,1/2-y,-z
1/2+x,1/2+y,-z
1/2-x,1/2+y,z
1/2+x,1/2-y,z
loop_
_atom_site_type_symbol
_atom_site_label
_atom_site_fract_x
_atom_site_fract_y
_atom_site_fract_z
Si Si1 0.352753 0.311044 0.705716
Si Si2 0.888567 0.378222 0.500000
Si Si3 0.147895 0.931932 0.205470
Si Si4 0.110952 0.232943 0.500000
O O1 0.397389 0.250000 0.750000
O O2 0.250000 0.312511 0.750000
O O3 0.396215 0.375101 0.737457
O O4 0.351340 0.299812 0.593841
O O5 0.851525 0.410390 0.404517
O O6 0.866552 0.305530 0.500000
O O7 0.000000 0.383701 0.500000
O O8 0.250000 0.936724 0.250000
O O9 0.106897 0.000000 0.212415
O O10 0.000000 0.228248 0.500000
#
# Coordination Sequence:
#
# PCOD9513172 Si02
#       4
#    32  16  32  16
#     4  10  21  38  62  91 118 158 202 249 295 357
#     4  11  23  39  63  92 122 157 201 256 304 350
#     4  10  22  40  61  90 124 159 201 250 302 357
#     4  11  24  39  60  93 128 156 197 254 307 354
#
# _framework density 21.593534999999999
#
# number of rings (size 3 to 8) (size 9 to 14) (size 15 to 20)
#    0.000    1.667    3.333    0.500    0.000   11.333 
#    0.000    2.500    0.000    1.000    0.000    0.000 
#    0.000    0.000    0.000    0.000    0.000    0.000 
#
# Total GULP energy -134076.178049 kJ/mol
# GULP energy per Si atom -5586.507419 kJ/mol
# Density = 2.154439 g / cm^3
# Si number density = 21.593535 Si / 1000 Ang^3
#
#
#
# Elastic Constant Matrix: (Units=GPa)
#
#
# Indices 1 2 3 4 5 6 
#
# 1 114.9881 23.5766 48.9323 0.0000 0.0000 0.0000
# 2 23.5766 257.4794 98.8880 0.0000 0.0000 0.0000
# 3 48.9323 98.8880 233.2498 0.0000 0.0000 0.0000
# 4 0.0000 0.0000 0.0000 -30.8831 0.0000 0.0000
# 5 0.0000 0.0000 0.0000 0.0000 350.9601 0.0000
# 6 0.0000 0.0000 0.0000 0.0000 0.0000-1373.7988
#
#
#
# Elastic Compliance Matrix: (Units=1/GPa)
#
#
# Indices 1 2 3 4 5 6 
#
# 1 0.009552 -0.000125 -0.001951 0.000000 0.000000 0.000000
# 2 -0.000125 0.004641 -0.001941 0.000000 0.000000 0.000000
# 3 -0.001951 -0.001941 0.005519 0.000000 0.000000 0.000000
# 4 0.000000 0.000000 0.000000 -0.032380 0.000000 0.000000
# 5 0.000000 0.000000 0.000000 0.000000 0.002849 0.000000
# 6 0.000000 0.000000 0.000000 0.000000 0.000000 -0.000728
#
#
# Mechanical properties :
#
#
# Convention : Reuss Voigt Hill
#
# Bulk Modulus (GPa) = 85.63209 105.39012 95.51110
# Shear Modulus (GPa) = 3619.36062 -181.78967 1718.78548
#
# Velocity S-wave (km/s) = 40.98500 -9.18531 28.24359
# Velocity P-wave (km/s) = 47.74344 7.97376 33.28555
#
# Compressibility (1/GPa) = 0.01167787
#
# Stress axis : x y z
#
# Youngs Moduli (GPa) = 104.68568 215.47851 181.17672
#
# Poissons Ratio (x) = 0.02704 0.35343
# Poissons Ratio (y) = 0.01314 0.35170
# Poissons Ratio (z) = 0.20422 0.41829
#
# Static dielectric constant tensor:
#      x y z
#    x 1.841720 0.000000 0.000000 
#    y 0.000000 1.864170 0.000000 
#    z 0.000000 0.000000 1.761160 
# 
# From -- ./inp_files/8001.got.cif
#   From: 2010.05.17/outbox.cif.g08.bks.cpg/sg69_5_cif.got.tgz:8001.got - 2010.06.03 19:29:58.
