data_PCOD9513631
_publ_section_title
;
Structure prediction by ZEFSAII (Michael W. Deem and Ramdas Pophale) SiO2 
 PCOD9513631
Probable space group: F M M M
;
_chemical_formula_sum "Si O2"
_cell_formula_units_Z 232
_cell_length_a 30.353211
_cell_length_b 24.307124
_cell_length_c 18.187058
_cell_angle_alpha 90.000000
_cell_angle_beta 90.000000
_cell_angle_gamma 90.000000
_cell_volume 13418.397999
_symmetry_space_group_name_H-M "F M M M"
_symmetry_group_IT_number 69
_symmetry_cell_setting 'orthorhombic'
loop_
_space_group_symop_operation_xyz
x,y,z
-x,-y,z
x,-y,-z
-x,y,-z
-x,-y,-z
x,y,-z
-x,y,z
x,-y,z
x,1/2+y,1/2+z
-x,1/2-y,1/2+z
x,1/2-y,1/2-z
-x,1/2+y,1/2-z
-x,1/2-y,1/2-z
x,1/2+y,1/2-z
-x,1/2+y,1/2+z
x,1/2-y,1/2+z
1/2+x,y,1/2+z
1/2-x,-y,1/2+z
1/2+x,-y,1/2-z
1/2-x,y,1/2-z
1/2-x,-y,1/2-z
1/2+x,y,1/2-z
1/2-x,y,1/2+z
1/2+x,-y,1/2+z
1/2+x,1/2+y,z
1/2-x,1/2-y,z
1/2+x,1/2-y,-z
1/2-x,1/2+y,-z
1/2-x,1/2-y,-z
1/2+x,1/2+y,-z
1/2-x,1/2+y,z
1/2+x,1/2-y,z
loop_
_atom_site_type_symbol
_atom_site_label
_atom_site_fract_x
_atom_site_fract_y
_atom_site_fract_z
Si Si1 0.450673 0.066071 0.276250
Si Si2 0.227819 0.672193 0.624917
Si Si3 0.362830 0.063996 0.190640
Si Si4 0.095429 0.114333 0.912737
Si Si5 0.860450 0.775191 0.082701
Si Si6 0.170650 0.160657 0.412749
Si Si7 0.181801 0.938239 0.150173
Si Si8 0.750000 0.750000 0.250000
O O1 0.500000 0.080429 0.251919
O O2 0.411790 0.080415 0.219044
O O3 0.440380 0.091819 0.356001
O O4 0.447811 0.000000 0.284610
O O5 0.188407 0.698067 0.578208
O O6 0.277641 0.675685 0.597254
O O7 0.217496 0.608420 0.636631
O O8 0.223486 0.708321 0.698766
O O9 0.343425 0.107020 0.132587
O O10 0.333792 0.065318 0.265202
O O11 0.363596 0.000000 0.165264
O O12 0.109498 0.175872 0.886760
O O13 0.138959 0.077168 0.898327
O O14 0.085024 0.113987 0.000000
O O15 0.855467 0.714740 0.116185
O O16 0.876581 0.766200 0.000000
O O17 0.163014 0.153449 0.500000
O O18 0.196684 0.000000 0.134441
#
# Coordination Sequence:
#
# PCOD9513631 Si02
#       8
#    32  32  32  32  32  32  32   8
#     4   9  18  34  56  79 103 132 162 198 249 303
#     4  11  20  31  47  71  99 132 176 219 250 285
#     4   9  19  36  53  72 100 132 165 206 257 312
#     4   9  17  30  50  77 107 138 168 200 241 297
#     4   9  18  33  49  67  98 138 173 207 251 294
#     4  11  21  34  52  72  97 131 173 222 264 294
#     4   9  19  33  48  68 102 144 173 200 250 307
#     4  12  20  28  44  68  92 120 170 220 256 280
#
# _framework density 17.289694999999998
#
# number of rings (size 3 to 8) (size 9 to 14) (size 15 to 20)
#    0.000    2.345    1.379    2.483    0.000    3.862 
#    0.000    2.414    0.000    2.069    0.000    3.862 
#    0.000    0.000    0.000    0.000    0.000    0.000 
#
# Total GULP energy -322976.198368 kJ/mol
# GULP energy per Si atom -5568.555144 kJ/mol
# Density = 1.725034 g / cm^3
# Si number density = 17.289695 Si / 1000 Ang^3
#
#
#
# Elastic Constant Matrix: (Units=GPa)
#
#
# Indices 1 2 3 4 5 6 
#
# 1 31.3335 5.0711 3.9293 0.0000 0.0000 0.0000
# 2 5.0711 99.6290 14.3290 0.0000 0.0000 0.0000
# 3 3.9293 14.3290 45.6083 0.0000 0.0000 0.0000
# 4 0.0000 0.0000 0.0000 -42.1359 0.0000 0.0000
# 5 0.0000 0.0000 0.0000 0.0000 5.9966 0.0000
# 6 0.0000 0.0000 0.0000 0.0000 0.0000 18.1427
#
#
#
# Elastic Compliance Matrix: (Units=1/GPa)
#
#
# Indices 1 2 3 4 5 6 
#
# 1 0.032425 -0.001308 -0.002383 0.000000 0.000000 0.000000
# 2 -0.001308 0.010565 -0.003207 0.000000 0.000000 0.000000
# 3 -0.002383 -0.003207 0.023139 0.000000 0.000000 0.000000
# 4 0.000000 0.000000 0.000000 -0.023733 0.000000 0.000000
# 5 0.000000 0.000000 0.000000 0.000000 0.166760 0.000000
# 6 0.000000 0.000000 0.000000 0.000000 0.000000 0.055119
#
#
# Mechanical properties :
#
#
# Convention : Reuss Voigt Hill
#
# Bulk Modulus (GPa) = 19.10778 24.80327 21.95552
# Shear Modulus (GPa) = 16.91972 6.61679 11.76825
#
# Velocity S-wave (km/s) = 3.13165 1.95840 2.61176
# Velocity P-wave (km/s) = 4.91446 4.41482 4.67132
#
# Compressibility (1/GPa) = 0.05233472
#
# Stress axis : x y z
#
# Youngs Moduli (GPa) = 30.84024 94.65226 43.21798
#
# Poissons Ratio (x) = 0.12378 0.10297
# Poissons Ratio (y) = 0.04033 0.13858
# Poissons Ratio (z) = 0.07348 0.30351
#
# Static dielectric constant tensor:
#      x y z
#    x 1.588060 0.000000 0.000000 
#    y 0.000000 1.610480 0.000000 
#    z 0.000000 0.000000 1.608170 
# 
# From -- ./inp_files/28095.got.cif
#   From: 2010.05.17/outbox.cif.g08.bks.cpg/sg69_15_cif.got.tgz:28095.got - 2010.06.03 19:29:58.
