data_PCOD9513700
_publ_section_title
;
Structure prediction by ZEFSAII (Michael W. Deem and Ramdas Pophale) SiO2 
 PCOD9513700
Probable space group: F M M M
;
_chemical_formula_sum "Si O2"
_cell_formula_units_Z 136
_cell_length_a 17.599878
_cell_length_b 23.709842
_cell_length_c 15.545385
_cell_angle_alpha 90.000000
_cell_angle_beta 90.000000
_cell_angle_gamma 90.000000
_cell_volume 6486.938784
_symmetry_space_group_name_H-M "F M M M"
_symmetry_group_IT_number 69
_symmetry_cell_setting 'orthorhombic'
loop_
_space_group_symop_operation_xyz
x,y,z
-x,-y,z
x,-y,-z
-x,y,-z
-x,-y,-z
x,y,-z
-x,y,z
x,-y,z
x,1/2+y,1/2+z
-x,1/2-y,1/2+z
x,1/2-y,1/2-z
-x,1/2+y,1/2-z
-x,1/2-y,1/2-z
x,1/2+y,1/2-z
-x,1/2+y,1/2+z
x,1/2-y,1/2+z
1/2+x,y,1/2+z
1/2-x,-y,1/2+z
1/2+x,-y,1/2-z
1/2-x,y,1/2-z
1/2-x,-y,1/2-z
1/2+x,y,1/2-z
1/2-x,y,1/2+z
1/2+x,-y,1/2+z
1/2+x,1/2+y,z
1/2-x,1/2-y,z
1/2+x,1/2-y,-z
1/2-x,1/2+y,-z
1/2-x,1/2-y,-z
1/2+x,1/2+y,-z
1/2-x,1/2+y,z
1/2+x,1/2-y,z
loop_
_atom_site_type_symbol
_atom_site_label
_atom_site_fract_x
_atom_site_fract_y
_atom_site_fract_z
Si Si1 0.655624 0.000000 0.104302
Si Si2 0.880271 0.878296 0.139743
Si Si3 0.587518 0.620659 0.659744
Si Si4 0.331477 0.500000 0.897788
Si Si5 0.500000 0.342057 0.000000
Si Si6 0.233227 0.187314 0.646397
O O1 0.615305 0.942849 0.137565
O O2 0.744070 0.000000 0.134766
O O3 0.653176 0.000000 0.000000
O O4 0.904778 0.868930 0.237945
O O5 0.795596 0.857528 0.117725
O O6 0.877934 0.945196 0.128395
O O7 0.935005 0.847333 0.074947
O O8 0.500000 0.628456 0.632775
O O9 0.649926 0.664488 0.623599
O O10 0.325459 0.500000 0.000000
O O11 0.250000 0.188946 0.750000
O O12 0.250000 0.250000 0.614028
#
# Coordination Sequence:
#
# PCOD9513700 Si02
#       6
#    16  32  32  16   8  32
#     4  11  24  40  64  93 129 166 212 264 319 381
#     4  11  22  39  63  92 131 168 209 263 319 382
#     4  11  22  39  65  99 126 168 218 261 313 382
#     4  11  21  35  61  86 123 171 204 250 320 386
#     4  12  24  41  62  98 130 162 210 267 326 372
#     4   9  20  41  65  90 125 171 219 263 318 379
#
# _framework density 20.965205000000001
#
# number of rings (size 3 to 8) (size 9 to 14) (size 15 to 20)
#    0.000    1.412    4.706    1.059    0.000    2.824 
#    2.118    2.941    0.000    0.000    0.000    0.000 
#    0.000    0.000    0.000    0.000    0.000    0.000 
#
# Total GULP energy -189341.159826 kJ/mol
# GULP energy per Si atom -5568.857642 kJ/mol
# Density = 2.091749 g / cm^3
# Si number density = 20.965205 Si / 1000 Ang^3
#
#
#
# Elastic Constant Matrix: (Units=GPa)
#
#
# Indices 1 2 3 4 5 6 
#
# 1 93.4893 -9.9426 -6.4821 0.0000 0.0000 0.0000
# 2 -9.9426 71.6901 -17.2451 0.0000 0.0000 0.0000
# 3 -6.4821 -17.2451 60.9042 0.0000 0.0000 0.0000
# 4 0.0000 0.0000 0.0000 169.9187 0.0000 0.0000
# 5 0.0000 0.0000 0.0000 0.0000 23.9644 0.0000
# 6 0.0000 0.0000 0.0000 0.0000 0.0000 10.1281
#
#
#
# Elastic Compliance Matrix: (Units=1/GPa)
#
#
# Indices 1 2 3 4 5 6 
#
# 1 0.011023 0.001943 0.001723 0.000000 0.000000 0.000000
# 2 0.001943 0.015311 0.004542 0.000000 0.000000 0.000000
# 3 0.001723 0.004542 0.017889 0.000000 0.000000 0.000000
# 4 0.000000 0.000000 0.000000 0.005885 0.000000 0.000000
# 5 0.000000 0.000000 0.000000 0.000000 0.041728 0.000000
# 6 0.000000 0.000000 0.000000 0.000000 0.000000 0.098736
#
#
# Mechanical properties :
#
#
# Convention : Reuss Voigt Hill
#
# Bulk Modulus (GPa) = 16.49075 17.63821 17.06448
# Shear Modulus (GPa) = 25.72449 58.11914 41.92182
#
# Velocity S-wave (km/s) = 3.50667 5.27085 4.47653
# Velocity P-wave (km/s) = 4.92732 6.74343 5.90561
#
# Compressibility (1/GPa) = 0.06064004
#
# Stress axis : x y z
#
# Youngs Moduli (GPa) = 90.72290 65.31228 55.90103
#
# Poissons Ratio (x) = -0.12692 -0.09634
# Poissons Ratio (y) = -0.17630 -0.25391
# Poissons Ratio (z) = -0.15635 -0.29666
#
# Static dielectric constant tensor:
#      x y z
#    x 1.806580 0.000000 0.000000 
#    y 0.000000 1.759230 0.000000 
#    z 0.000000 0.000000 1.759360 
# 
# From -- ./inp_files/22651.got.cif
#   From: 2010.05.17/outbox.cif.g08.bks.cpg/sg69_12_cif.got.tgz:22651.got - 2010.06.03 19:29:58.
