data_PCOD9513127
_publ_section_title
;
Structure prediction by ZEFSAII (Michael W. Deem and Ramdas Pophale) SiO2 
 PCOD9513127
Probable space group: F M M M
;
_chemical_formula_sum "Si O2"
_cell_formula_units_Z 160
_cell_length_a 8.732407
_cell_length_b 30.840502
_cell_length_c 29.920265
_cell_angle_alpha 90.000000
_cell_angle_beta 90.000000
_cell_angle_gamma 90.000000
_cell_volume 8057.880889
_symmetry_space_group_name_H-M "F M M M"
_symmetry_group_IT_number 69
_symmetry_cell_setting 'orthorhombic'
loop_
_space_group_symop_operation_xyz
x,y,z
-x,-y,z
x,-y,-z
-x,y,-z
-x,-y,-z
x,y,-z
-x,y,z
x,-y,z
x,1/2+y,1/2+z
-x,1/2-y,1/2+z
x,1/2-y,1/2-z
-x,1/2+y,1/2-z
-x,1/2-y,1/2-z
x,1/2+y,1/2-z
-x,1/2+y,1/2+z
x,1/2-y,1/2+z
1/2+x,y,1/2+z
1/2-x,-y,1/2+z
1/2+x,-y,1/2-z
1/2-x,y,1/2-z
1/2-x,-y,1/2-z
1/2+x,y,1/2-z
1/2-x,y,1/2+z
1/2+x,-y,1/2+z
1/2+x,1/2+y,z
1/2-x,1/2-y,z
1/2+x,1/2-y,-z
1/2-x,1/2+y,-z
1/2-x,1/2-y,-z
1/2+x,1/2+y,-z
1/2-x,1/2+y,z
1/2+x,1/2-y,z
loop_
_atom_site_type_symbol
_atom_site_label
_atom_site_fract_x
_atom_site_fract_y
_atom_site_fract_z
Si Si1 0.815063 0.704335 0.893282
Si Si2 0.682161 0.000000 0.299327
Si Si3 0.175576 0.910508 0.674637
Si Si4 0.825068 0.114629 0.570833
Si Si5 0.317987 0.177555 0.297123
Si Si6 0.317461 0.050323 0.500000
O O1 0.750000 0.750000 0.909262
O O2 0.765030 0.664041 0.924793
O O3 0.754716 0.697415 0.842361
O O4 0.000000 0.703939 0.891807
O O5 0.750000 0.000000 0.250000
O O6 0.747097 0.043246 0.321141
O O7 0.500000 0.000000 0.299192
O O8 0.171093 0.899298 0.622445
O O9 0.271898 0.873176 0.698892
O O10 0.000000 0.910627 0.691697
O O11 0.736570 0.079146 0.542098
O O12 0.000000 0.116061 0.554154
O O13 0.500000 0.183335 0.297756
O O14 0.250000 0.193976 0.250000
O O15 0.500000 0.048157 0.500000
O O16 0.259935 0.000000 0.500000
#
# Coordination Sequence:
#
# PCOD9513127 Si02
#       6
#    32  16  32  32  32  16
#     4  10  21  39  62  90 120 156 201 248 300 359
#     4  12  24  36  52  77 110 151 198 248 295 350
#     4  10  21  38  57  80 111 150 197 246 298 357
#     4   9  21  41  64  88 118 156 195 238 292 360
#     4  11  21  35  55  81 115 157 201 250 301 350
#     4  11  25  41  62  95 128 155 192 245 294 349
#
# _framework density 19.856338000000001
#
# number of rings (size 3 to 8) (size 9 to 14) (size 15 to 20)
#    0.000    1.700    0.000    6.000    1.400    6.000 
#    0.000    2.500    0.000    0.000    0.000    0.000 
#    0.000    0.000    0.000    0.000    0.000    0.000 
#
# Total GULP energy -223378.064341 kJ/mol
# GULP energy per Si atom -5584.451609 kJ/mol
# Density = 1.981114 g / cm^3
# Si number density = 19.856338 Si / 1000 Ang^3
#
#
#
# Elastic Constant Matrix: (Units=GPa)
#
#
# Indices 1 2 3 4 5 6 
#
# 1 104.4726 40.5226 19.6668 0.0000 0.0000 0.0000
# 2 40.5226 170.5968 31.9319 0.0000 0.0000 0.0000
# 3 19.6668 31.9319 65.4798 0.0000 0.0000 0.0000
# 4 0.0000 0.0000 0.0000 1.4061 0.0000 0.0000
# 5 0.0000 0.0000 0.0000 0.0000 28.7417 0.0000
# 6 0.0000 0.0000 0.0000 0.0000 0.0000 33.0761
#
#
#
# Elastic Compliance Matrix: (Units=1/GPa)
#
#
# Indices 1 2 3 4 5 6 
#
# 1 0.010823 -0.002160 -0.002198 0.000000 0.000000 0.000000
# 2 -0.002160 0.006881 -0.002707 0.000000 0.000000 0.000000
# 3 -0.002198 -0.002707 0.017252 0.000000 0.000000 0.000000
# 4 0.000000 0.000000 0.000000 0.711206 0.000000 0.000000
# 5 0.000000 0.000000 0.000000 0.000000 0.034793 0.000000
# 6 0.000000 0.000000 0.000000 0.000000 0.000000 0.030233
#
#
# Mechanical properties :
#
#
# Convention : Reuss Voigt Hill
#
# Bulk Modulus (GPa) = 48.01206 58.31020 53.16113
# Shear Modulus (GPa) = 6.00774 29.20663 17.60718
#
# Velocity S-wave (km/s) = 1.74131 3.83939 2.98103
# Velocity P-wave (km/s) = 5.31743 7.00602 6.21930
#
# Compressibility (1/GPa) = 0.02082810
#
# Stress axis : x y z
#
# Youngs Moduli (GPa) = 92.39391 145.31779 57.96381
#
# Poissons Ratio (x) = 0.31382 0.12738
# Poissons Ratio (y) = 0.19953 0.15692
# Poissons Ratio (z) = 0.20305 0.39341
#
# Static dielectric constant tensor:
#      x y z
#    x 1.672990 0.000000 0.000000 
#    y 0.000000 1.690470 0.000000 
#    z 0.000000 0.000000 1.691610 
# 
# From -- ./inp_files/44602.got.cif
#   From: 2010.05.17/outbox.cif.g08.bks.cpg/sg69_23_cif.got.tgz:44602.got - 2010.06.03 19:29:58.
