data_PCOD9513128
_publ_section_title
;
Structure prediction by ZEFSAII (Michael W. Deem and Ramdas Pophale) SiO2 
 PCOD9513128
Probable space group: F M M M
;
_chemical_formula_sum "Si O2"
_cell_formula_units_Z 148
_cell_length_a 34.048031
_cell_length_b 8.103763
_cell_length_c 29.214591
_cell_angle_alpha 90.000000
_cell_angle_beta 90.000000
_cell_angle_gamma 90.000000
_cell_volume 8060.807384
_symmetry_space_group_name_H-M "F M M M"
_symmetry_group_IT_number 69
_symmetry_cell_setting 'orthorhombic'
loop_
_space_group_symop_operation_xyz
x,y,z
-x,-y,z
x,-y,-z
-x,y,-z
-x,-y,-z
x,y,-z
-x,y,z
x,-y,z
x,1/2+y,1/2+z
-x,1/2-y,1/2+z
x,1/2-y,1/2-z
-x,1/2+y,1/2-z
-x,1/2-y,1/2-z
x,1/2+y,1/2-z
-x,1/2+y,1/2+z
x,1/2-y,1/2+z
1/2+x,y,1/2+z
1/2-x,-y,1/2+z
1/2+x,-y,1/2-z
1/2-x,y,1/2-z
1/2-x,-y,1/2-z
1/2+x,y,1/2-z
1/2-x,y,1/2+z
1/2+x,-y,1/2+z
1/2+x,1/2+y,z
1/2-x,1/2-y,z
1/2+x,1/2-y,-z
1/2-x,1/2+y,-z
1/2-x,1/2-y,-z
1/2+x,1/2+y,-z
1/2-x,1/2+y,z
1/2+x,1/2-y,z
loop_
_atom_site_type_symbol
_atom_site_label
_atom_site_fract_x
_atom_site_fract_y
_atom_site_fract_z
Si Si1 0.914433 0.692842 0.386596
Si Si2 0.000000 0.000000 0.500000
Si Si3 0.705358 0.199243 0.136076
Si Si4 0.655032 0.196231 0.051373
Si Si5 0.134244 0.303425 0.801974
Si Si6 0.500000 0.197783 0.425021
O O1 0.905948 0.500000 0.391320
O O2 0.887230 0.779220 0.424825
O O3 0.899611 0.747478 0.336849
O O4 0.960124 0.718219 0.396135
O O5 0.000000 0.151085 0.539051
O O6 0.750000 0.250000 0.142702
O O7 0.687104 0.260365 0.087758
O O8 0.675328 0.257299 0.175550
O O9 0.703873 0.000000 0.135434
O O10 0.661284 0.000000 0.048023
O O11 0.656710 0.265823 0.000000
O O12 0.135202 0.500000 0.803166
O O13 0.129208 0.250000 0.750000
O O14 0.500000 0.000000 0.441152
#
# Coordination Sequence:
#
# PCOD9513128 Si02
#       6
#    32   4  32  32  32  16
#     4  10  21  38  57  81 118 148 183 241 285 330
#     4  12  26  36  68  86 124 176 194 232 320 318
#     4   9  19  34  51  76 109 143 181 231 278 337
#     4   9  19  34  53  76 106 146 193 231 273 340
#     4  10  21  38  60  84 109 141 187 230 284 349
#     4  10  25  41  58  93 126 156 207 247 279 348
#
# _framework density 18.360444000000001
#
# number of rings (size 3 to 8) (size 9 to 14) (size 15 to 20)
#    0.000    2.378    0.000    2.757    4.541    5.622 
#    0.000    2.703    0.000    0.000    0.000    0.000 
#    0.000    0.000    0.000    0.000    0.000    0.000 
#
# Total GULP energy -205972.126045 kJ/mol
# GULP energy per Si atom -5566.814217 kJ/mol
# Density = 1.831866 g / cm^3
# Si number density = 18.360444 Si / 1000 Ang^3
#
#
#
# Elastic Constant Matrix: (Units=GPa)
#
#
# Indices 1 2 3 4 5 6 
#
# 1 115.8062 29.2048 57.2548 -0.0001 0.0000 0.0004
# 2 29.2048 44.6230 33.1951 -0.0002 0.0001 0.0002
# 3 57.2548 33.1951 150.1778 0.0000 0.0000 0.0000
# 4 -0.0001 -0.0002 0.0000 24.1687 0.0000 0.0000
# 5 0.0000 0.0001 0.0000 0.0000 -47.7822 -0.0002
# 6 0.0004 0.0002 0.0000 0.0000 -0.0002 26.4653
#
#
#
# Elastic Compliance Matrix: (Units=1/GPa)
#
#
# Indices 1 2 3 4 5 6 
#
# 1 0.011543 -0.005123 -0.003268 0.000000 0.000000 0.000000
# 2 -0.005123 0.029094 -0.004478 0.000000 0.000000 0.000000
# 3 -0.003268 -0.004478 0.008895 0.000000 0.000000 0.000000
# 4 0.000000 0.000000 0.000000 0.041376 0.000000 0.000000
# 5 0.000000 0.000000 0.000000 0.000000 -0.020928 0.000000
# 6 0.000000 0.000000 0.000000 0.000000 0.000000 0.037785
#
#
# Mechanical properties :
#
#
# Convention : Reuss Voigt Hill
#
# Bulk Modulus (GPa) = 42.02920 61.10183 51.56552
# Shear Modulus (GPa) = 35.35216 13.30049 24.32633
#
# Velocity S-wave (km/s) = 4.39276 2.69441 3.64391
# Velocity P-wave (km/s) = 6.97634 6.55981 6.77128
#
# Compressibility (1/GPa) = 0.02379298
#
# Stress axis : x y z
#
# Youngs Moduli (GPa) = 86.63262 34.37132 112.42873
#
# Poissons Ratio (x) = 0.17610 0.36745
# Poissons Ratio (y) = 0.44385 0.50342
# Poissons Ratio (z) = 0.28314 0.15390
#
# Static dielectric constant tensor:
#      x y z
#    x 1.615660 0.000000 0.000000 
#    y 0.000000 1.661830 0.000000 
#    z 0.000000 0.000000 1.618070 
# 
# From -- ./inp_files/47443.got.cif
#   From: 2010.05.17/outbox.cif.g08.bks.cpg/sg69_24_cif.got.tgz:47443.got - 2010.06.03 19:29:58.
