data_PCOD9513042
_publ_section_title
;
Structure prediction by ZEFSAII (Michael W. Deem and Ramdas Pophale) SiO2 
 PCOD9513042
Probable space group: F M M M
;
_chemical_formula_sum "Si O2"
_cell_formula_units_Z 192
_cell_length_a 16.779928
_cell_length_b 20.773651
_cell_length_c 30.148419
_cell_angle_alpha 90.000000
_cell_angle_beta 90.000000
_cell_angle_gamma 90.000000
_cell_volume 10509.146992
_symmetry_space_group_name_H-M "F M M M"
_symmetry_group_IT_number 69
_symmetry_cell_setting 'orthorhombic'
loop_
_space_group_symop_operation_xyz
x,y,z
-x,-y,z
x,-y,-z
-x,y,-z
-x,-y,-z
x,y,-z
-x,y,z
x,-y,z
x,1/2+y,1/2+z
-x,1/2-y,1/2+z
x,1/2-y,1/2-z
-x,1/2+y,1/2-z
-x,1/2-y,1/2-z
x,1/2+y,1/2-z
-x,1/2+y,1/2+z
x,1/2-y,1/2+z
1/2+x,y,1/2+z
1/2-x,-y,1/2+z
1/2+x,-y,1/2-z
1/2-x,y,1/2-z
1/2-x,-y,1/2-z
1/2+x,y,1/2-z
1/2-x,y,1/2+z
1/2+x,-y,1/2+z
1/2+x,1/2+y,z
1/2-x,1/2-y,z
1/2+x,1/2-y,-z
1/2-x,1/2+y,-z
1/2-x,1/2-y,-z
1/2+x,1/2+y,-z
1/2-x,1/2+y,z
1/2+x,1/2-y,z
loop_
_atom_site_type_symbol
_atom_site_label
_atom_site_fract_x
_atom_site_fract_y
_atom_site_fract_z
Si Si1 0.802785 0.575844 0.085440
Si Si2 0.842510 0.840584 0.262383
Si Si3 0.593645 0.776722 0.678839
Si Si4 0.410243 0.923696 0.167892
Si Si5 0.684565 0.806715 0.588080
Si Si6 0.905276 0.388922 0.000000
Si Si7 0.906643 0.266106 0.500000
O O1 0.781544 0.500000 0.089868
O O2 0.855869 0.598207 0.127231
O O3 0.728581 0.624516 0.083968
O O4 0.859393 0.584279 0.042776
O O5 0.750000 0.836975 0.250000
O O6 0.892334 0.828442 0.217916
O O7 0.864611 0.785803 0.298830
O O8 0.868084 0.905214 0.286554
O O9 0.500000 0.764908 0.672687
O O10 0.634172 0.798611 0.633239
O O11 0.500000 0.896758 0.166102
O O12 0.415732 0.000000 0.163560
O O13 0.750000 0.750000 0.589097
O O14 0.632847 0.794221 0.544230
O O15 0.896410 0.311424 0.000000
O O16 0.000000 0.404256 0.000000
O O17 0.000000 0.279771 0.500000
#
# Coordination Sequence:
#
# PCOD9513042 Si02
#       7
#    32  32  32  32  32  16  16
#     4  11  23  38  59  89 122 158 198 243 296 353
#     4  11  21  36  56  84 115 148 191 243 295 354
#     4  11  22  36  58  84 112 148 194 246 295 343
#     4  10  21  37  56  81 117 157 193 235 291 353
#     4  12  22  40  62  85 118 156 195 243 295 354
#     4  11  22  38  60  90 123 158 195 241 296 352
#     4  11  24  40  61  91 121 151 195 244 297 352
#
# _framework density 18.269798999999999
#
# number of rings (size 3 to 8) (size 9 to 14) (size 15 to 20)
#    0.000    1.000    1.667    8.000    0.000    1.667 
#    0.000    0.833    0.000    3.500    0.000    0.000 
#    0.000    0.000    0.000    0.000    0.000    0.000 
#
# Total GULP energy -268197.308274 kJ/mol
# GULP energy per Si atom -5587.443922 kJ/mol
# Density = 1.822822 g / cm^3
# Si number density = 18.269799 Si / 1000 Ang^3
#
#
#
# Elastic Constant Matrix: (Units=GPa)
#
#
# Indices 1 2 3 4 5 6 
#
# 1 124.6376 45.5180 50.6137 0.0000 0.0000 0.0000
# 2 45.5180 56.6198 31.8015 0.0000 0.0000 0.0000
# 3 50.6137 31.8015 139.5229 0.0000 0.0000 0.0000
# 4 0.0000 0.0000 0.0000 19.6571 0.0000 0.0000
# 5 0.0000 0.0000 0.0000 0.0000 50.6515 0.0000
# 6 0.0000 0.0000 0.0000 0.0000 0.0000 22.4236
#
#
#
# Elastic Compliance Matrix: (Units=1/GPa)
#
#
# Indices 1 2 3 4 5 6 
#
# 1 0.012065 -0.008304 -0.002484 0.000000 0.000000 0.000000
# 2 -0.008304 0.025970 -0.002907 0.000000 0.000000 0.000000
# 3 -0.002484 -0.002907 0.008731 0.000000 0.000000 0.000000
# 4 0.000000 0.000000 0.000000 0.050872 0.000000 0.000000
# 5 0.000000 0.000000 0.000000 0.000000 0.019743 0.000000
# 6 0.000000 0.000000 0.000000 0.000000 0.000000 0.044596
#
#
# Mechanical properties :
#
#
# Convention : Reuss Voigt Hill
#
# Bulk Modulus (GPa) = 51.61005 64.07186 57.84095
# Shear Modulus (GPa) = 25.53304 31.40291 28.46797
#
# Velocity S-wave (km/s) = 3.74244 4.15039 3.95168
# Velocity P-wave (km/s) = 6.85454 7.62323 7.24908
#
# Compressibility (1/GPa) = 0.01937607
#
# Stress axis : x y z
#
# Youngs Moduli (GPa) = 82.88769 38.50573 114.53525
#
# Poissons Ratio (x) = 0.31975 0.28449
# Poissons Ratio (y) = 0.68829 0.33296
# Poissons Ratio (z) = 0.20588 0.11194
#
# Static dielectric constant tensor:
#      x y z
#    x 1.628820 0.000000 0.000000 
#    y 0.000000 1.661350 0.000000 
#    z 0.000000 0.000000 1.624090 
# 
# From -- ./inp_files/41173.got.cif
#   From: 2010.05.17/outbox.cif.g08.bks.cpg/sg69_21_cif.got.tgz:41173.got - 2010.06.03 19:29:58.
