data_PCOD9513377
_publ_section_title
;
Structure prediction by ZEFSAII (Michael W. Deem and Ramdas Pophale) SiO2 
 PCOD9513377
Probable space group: F M M M
;
_chemical_formula_sum "Si O2"
_cell_formula_units_Z 208
_cell_length_a 20.396894
_cell_length_b 16.430495
_cell_length_c 27.487537
_cell_angle_alpha 90.000000
_cell_angle_beta 90.000000
_cell_angle_gamma 90.000000
_cell_volume 9211.927546
_symmetry_space_group_name_H-M "F M M M"
_symmetry_group_IT_number 69
_symmetry_cell_setting 'orthorhombic'
loop_
_space_group_symop_operation_xyz
x,y,z
-x,-y,z
x,-y,-z
-x,y,-z
-x,-y,-z
x,y,-z
-x,y,z
x,-y,z
x,1/2+y,1/2+z
-x,1/2-y,1/2+z
x,1/2-y,1/2-z
-x,1/2+y,1/2-z
-x,1/2-y,1/2-z
x,1/2+y,1/2-z
-x,1/2+y,1/2+z
x,1/2-y,1/2+z
1/2+x,y,1/2+z
1/2-x,-y,1/2+z
1/2+x,-y,1/2-z
1/2-x,y,1/2-z
1/2-x,-y,1/2-z
1/2+x,y,1/2-z
1/2-x,y,1/2+z
1/2+x,-y,1/2+z
1/2+x,1/2+y,z
1/2-x,1/2-y,z
1/2+x,1/2-y,-z
1/2-x,1/2+y,-z
1/2-x,1/2-y,-z
1/2+x,1/2+y,-z
1/2-x,1/2+y,z
1/2+x,1/2-y,z
loop_
_atom_site_type_symbol
_atom_site_label
_atom_site_fract_x
_atom_site_fract_y
_atom_site_fract_z
Si Si1 0.575127 0.849635 0.088601
Si Si2 0.572690 0.161769 0.406981
Si Si3 0.212297 0.095214 0.446216
Si Si4 0.075630 0.500000 0.443155
Si Si5 0.749129 0.152560 0.659389
Si Si6 0.611427 0.852353 0.803772
Si Si7 0.890666 0.845427 0.198202
O O1 0.500000 0.857703 0.070907
O O2 0.597039 0.753818 0.087488
O O3 0.633267 0.895516 0.061369
O O4 0.575650 0.873516 0.145965
O O5 0.500000 0.164815 0.429372
O O6 0.609128 0.084695 0.429172
O O7 0.568721 0.139789 0.350192
O O8 0.229539 0.128455 0.500000
O O9 0.243851 0.133916 0.397853
O O10 0.228419 0.000000 0.445568
O O11 0.069602 0.500000 0.500000
O O12 0.000000 0.500000 0.422407
O O13 0.750000 0.250000 0.664455
O O14 0.813650 0.121145 0.686857
O O15 0.682251 0.124732 0.684348
O O16 0.587831 0.878799 0.750486
O O17 0.610334 0.753586 0.800225
#
# Coordination Sequence:
#
# PCOD9513377 Si02
#       7
#    32  32  32  16  32  32  32
#     4   9  18  33  55  82 109 141 184 226 263 319
#     4   9  18  32  51  78 109 141 178 221 269 319
#     4  10  22  39  56  76 107 143 176 222 281 324
#     4   9  18  34  52  68  99 144 178 218 277 322
#     4   9  17  32  54  77 102 136 177 219 261 313
#     4   8  15  27  49  80 108 136 172 216 263 307
#     4   9  15  27  50  78 107 138 173 213 257 318
#
# _framework density 22.579421
#
# number of rings (size 3 to 8) (size 9 to 14) (size 15 to 20)
#    0.000    3.000    0.000    1.385    0.000    4.000 
#    1.385    6.154    6.769    3.692    0.000    0.000 
#    0.000    0.000    0.000    0.000    0.000    0.000 
#
# Total GULP energy -289689.024547 kJ/mol
# GULP energy per Si atom -5570.942780 kJ/mol
# Density = 2.252803 g / cm^3
# Si number density = 22.579421 Si / 1000 Ang^3
#
#
#
# Elastic Constant Matrix: (Units=GPa)
#
#
# Indices 1 2 3 4 5 6 
#
# 1 48.3908 0.0370 -18.0770 0.0000 0.0000 0.0000
# 2 0.0370 23.7837 5.1118 0.0000 0.0000 0.0000
# 3 -18.0770 5.1118 88.0533 0.0000 0.0000 0.0000
# 4 0.0000 0.0000 0.0000 31.6594 0.0000 0.0000
# 5 0.0000 0.0000 0.0000 0.0000 12.5281 0.0000
# 6 0.0000 0.0000 0.0000 0.0000 0.0000 10.6342
#
#
#
# Elastic Compliance Matrix: (Units=1/GPa)
#
#
# Indices 1 2 3 4 5 6 
#
# 1 0.022407 -0.001036 0.004660 0.000000 0.000000 0.000000
# 2 -0.001036 0.042625 -0.002687 0.000000 0.000000 0.000000
# 3 0.004660 -0.002687 0.012469 0.000000 0.000000 0.000000
# 4 0.000000 0.000000 0.000000 0.031586 0.000000 0.000000
# 5 0.000000 0.000000 0.000000 0.000000 0.079820 0.000000
# 6 0.000000 0.000000 0.000000 0.000000 0.000000 0.094036
#
#
# Mechanical properties :
#
#
# Convention : Reuss Voigt Hill
#
# Bulk Modulus (GPa) = 12.59861 14.93016 13.76438
# Shear Modulus (GPa) = 16.25864 22.50809 19.38336
#
# Velocity S-wave (km/s) = 2.68631 3.16070 2.93311
# Velocity P-wave (km/s) = 3.90045 4.46617 4.19286
#
# Compressibility (1/GPa) = 0.07937384
#
# Stress axis : x y z
#
# Youngs Moduli (GPa) = 44.62941 23.46054 80.19579
#
# Poissons Ratio (x) = 0.02432 -0.37373
# Poissons Ratio (y) = 0.04626 0.21551
# Poissons Ratio (z) = -0.20798 0.06305
#
# Static dielectric constant tensor:
#      x y z
#    x 1.869880 0.000000 0.000000 
#    y 0.000000 1.875370 0.000000 
#    z 0.000000 0.000000 1.842210 
# 
# From -- ./inp_files/43282.got.cif
#   From: 2010.05.17/outbox.cif.g08.bks.cpg/sg69_22_cif.got.tgz:43282.got - 2010.06.03 19:29:58.
