data_PCOD9513595
_publ_section_title
;
Structure prediction by ZEFSAII (Michael W. Deem and Ramdas Pophale) SiO2 
 PCOD9513595
Probable space group: F M M M
;
_chemical_formula_sum "Si O2"
_cell_formula_units_Z 132
_cell_length_a 15.141128
_cell_length_b 19.621450
_cell_length_c 22.204041
_cell_angle_alpha 90.000000
_cell_angle_beta 90.000000
_cell_angle_gamma 90.000000
_cell_volume 6596.618213
_symmetry_space_group_name_H-M "F M M M"
_symmetry_group_IT_number 69
_symmetry_cell_setting 'orthorhombic'
loop_
_space_group_symop_operation_xyz
x,y,z
-x,-y,z
x,-y,-z
-x,y,-z
-x,-y,-z
x,y,-z
-x,y,z
x,-y,z
x,1/2+y,1/2+z
-x,1/2-y,1/2+z
x,1/2-y,1/2-z
-x,1/2+y,1/2-z
-x,1/2-y,1/2-z
x,1/2+y,1/2-z
-x,1/2+y,1/2+z
x,1/2-y,1/2+z
1/2+x,y,1/2+z
1/2-x,-y,1/2+z
1/2+x,-y,1/2-z
1/2-x,y,1/2-z
1/2-x,-y,1/2-z
1/2+x,y,1/2-z
1/2-x,y,1/2+z
1/2+x,-y,1/2+z
1/2+x,1/2+y,z
1/2-x,1/2-y,z
1/2+x,1/2-y,-z
1/2-x,1/2+y,-z
1/2-x,1/2-y,-z
1/2+x,1/2+y,-z
1/2-x,1/2+y,z
1/2+x,1/2-y,z
loop_
_atom_site_type_symbol
_atom_site_label
_atom_site_fract_x
_atom_site_fract_y
_atom_site_fract_z
Si Si1 0.500000 0.311301 0.203636
Si Si2 0.179874 0.310827 0.369617
Si Si3 0.146301 0.381047 0.000000
Si Si4 0.500000 0.418071 0.306596
Si Si5 0.688043 0.580986 0.367834
Si Si6 0.500000 0.000000 0.000000
Si Si7 0.604436 0.720259 0.000000
O O1 0.500000 0.250000 0.250000
O O2 0.412217 0.303860 0.164525
O O3 0.500000 0.380204 0.243080
O O4 0.250000 0.250000 0.360536
O O5 0.230107 0.376778 0.342340
O O6 0.151559 0.307939 0.440079
O O7 0.193416 0.395906 0.062763
O O8 0.073757 0.440018 0.000000
O O9 0.114544 0.302805 0.000000
O O10 0.500000 0.500000 0.301059
O O11 0.409603 0.399935 0.342699
O O12 0.696940 0.500000 0.361610
O O13 0.500000 0.704080 0.000000
#
# Coordination Sequence:
#
# PCOD9513595 Si02
#       7
#    16  32  16  16  32   4  16
#     4  12  28  45  65  95 130 173 228 279 319 385
#     4  12  25  44  69  98 131 175 219 268 336 400
#     4  12  21  33  64 100 141 165 207 263 337 398
#     4  10  25  45  67  96 134 172 222 280 340 382
#     4  11  23  40  67 101 134 171 219 276 332 397
#     4  12  20  28  60 104 136 174 202 260 328 378
#     4  12  24  41  68  99 137 174 207 264 339 406
#
# _framework density 20.010254
#
# number of rings (size 3 to 8) (size 9 to 14) (size 15 to 20)
#    0.000    0.485    5.455    3.273    1.697    4.364 
#    0.000    2.424    0.000    0.727    0.000    0.000 
#    0.000    0.000    0.000    0.000    0.000    0.000 
#
# Total GULP energy -184032.894390 kJ/mol
# GULP energy per Si atom -5576.754375 kJ/mol
# Density = 1.996471 g / cm^3
# Si number density = 20.010254 Si / 1000 Ang^3
#
#
#
# Elastic Constant Matrix: (Units=GPa)
#
#
# Indices 1 2 3 4 5 6 
#
# 1 205.0677 80.1713 65.4307 0.0000 0.0000 0.0000
# 2 80.1713 76.9472 38.2002 0.0000 0.0000 0.0000
# 3 65.4307 38.2002 97.9903 0.0000 0.0000 0.0000
# 4 0.0000 0.0000 0.0000 16.0729 0.0000 0.0000
# 5 0.0000 0.0000 0.0000 0.0000 -9.2657 0.0000
# 6 0.0000 0.0000 0.0000 0.0000 0.0000 47.7538
#
#
#
# Elastic Compliance Matrix: (Units=1/GPa)
#
#
# Indices 1 2 3 4 5 6 
#
# 1 0.008832 -0.007780 -0.002864 0.000000 0.000000 0.000000
# 2 -0.007780 0.022968 -0.003759 0.000000 0.000000 0.000000
# 3 -0.002864 -0.003759 0.013583 0.000000 0.000000 0.000000
# 4 0.000000 0.000000 0.000000 0.062216 0.000000 0.000000
# 5 0.000000 0.000000 0.000000 0.000000 -0.107925 0.000000
# 6 0.000000 0.000000 0.000000 0.000000 0.000000 0.020941
#
#
# Mechanical properties :
#
#
# Convention : Reuss Voigt Hill
#
# Bulk Modulus (GPa) = 60.32638 83.06776 71.69707
# Shear Modulus (GPa) = 90.99612 23.99240 57.49426
#
# Velocity S-wave (km/s) = 6.75081 3.46642 5.36608
# Velocity P-wave (km/s) = 9.53823 7.59106 8.61980
#
# Compressibility (1/GPa) = 0.01657650
#
# Stress axis : x y z
#
# Youngs Moduli (GPa) = 113.22484 43.53884 73.62106
#
# Poissons Ratio (x) = 0.33873 0.21088
# Poissons Ratio (y) = 0.88089 0.27673
# Poissons Ratio (z) = 0.32432 0.16366
#
# Static dielectric constant tensor:
#      x y z
#    x 1.770460 0.000000 0.000000 
#    y 0.000000 1.747720 0.000000 
#    z 0.000000 0.000000 1.883330 
# 
# From -- ./inp_files/29707.got.cif
#   From: 2010.05.17/outbox.cif.g08.bks.cpg/sg69_15_cif.got.tgz:29707.got - 2010.06.03 19:29:58.
