data_PCOD9513615
_publ_section_title
;
Structure prediction by ZEFSAII (Michael W. Deem and Ramdas Pophale) SiO2 
 PCOD9513615
Probable space group: F M M M
;
_chemical_formula_sum "Si O2"
_cell_formula_units_Z 160
_cell_length_a 27.938420
_cell_length_b 21.318739
_cell_length_c 16.194665
_cell_angle_alpha 90.000000
_cell_angle_beta 90.000000
_cell_angle_gamma 90.000000
_cell_volume 9645.734932
_symmetry_space_group_name_H-M "F M M M"
_symmetry_group_IT_number 69
_symmetry_cell_setting 'orthorhombic'
loop_
_space_group_symop_operation_xyz
x,y,z
-x,-y,z
x,-y,-z
-x,y,-z
-x,-y,-z
x,y,-z
-x,y,z
x,-y,z
x,1/2+y,1/2+z
-x,1/2-y,1/2+z
x,1/2-y,1/2-z
-x,1/2+y,1/2-z
-x,1/2-y,1/2-z
x,1/2+y,1/2-z
-x,1/2+y,1/2+z
x,1/2-y,1/2+z
1/2+x,y,1/2+z
1/2-x,-y,1/2+z
1/2+x,-y,1/2-z
1/2-x,y,1/2-z
1/2-x,-y,1/2-z
1/2+x,y,1/2-z
1/2-x,y,1/2+z
1/2+x,-y,1/2+z
1/2+x,1/2+y,z
1/2-x,1/2-y,z
1/2+x,1/2-y,-z
1/2-x,1/2+y,-z
1/2-x,1/2-y,-z
1/2+x,1/2+y,-z
1/2-x,1/2+y,z
1/2+x,1/2-y,z
loop_
_atom_site_type_symbol
_atom_site_label
_atom_site_fract_x
_atom_site_fract_y
_atom_site_fract_z
Si Si1 0.760376 0.068781 0.847143
Si Si2 0.554273 0.251070 0.000000
Si Si3 0.445380 0.096040 0.500000
Si Si4 0.617342 0.750383 0.657803
Si Si5 0.359186 0.112272 0.594668
Si Si6 0.288375 0.195734 0.096725
O O1 0.750000 0.072766 0.750000
O O2 0.817192 0.074671 0.862587
O O3 0.734884 0.128004 0.889015
O O4 0.744476 0.000000 0.877356
O O5 0.553345 0.327631 0.000000
O O6 0.581725 0.232525 0.083518
O O7 0.500000 0.228549 0.000000
O O8 0.500000 0.073863 0.500000
O O9 0.411091 0.080321 0.578140
O O10 0.596813 0.750000 0.750000
O O11 0.633764 0.821418 0.638349
O O12 0.664372 0.707260 0.650604
O O13 0.342486 0.125186 0.500000
O O14 0.250000 0.250000 0.117523
O O15 0.300989 0.203828 0.000000
#
# Coordination Sequence:
#
# PCOD9513615 Si02
#       6
#    32  16  16  32  32  32
#     4  11  23  35  48  74 108 145 184 223 268 323
#     4   9  18  34  48  72 109 137 173 221 271 325
#     4   7  14  28  52  74  96 130 171 222 264 311
#     4  11  19  31  52  78 105 138 180 220 267 315
#     4   9  17  32  52  71 103 140 176 214 266 322
#     4  11  21  32  52  76 105 139 183 220 254 317
#
# _framework density 16.587641999999999
#
# number of rings (size 3 to 8) (size 9 to 14) (size 15 to 20)
#    0.600    1.400    4.000    1.800    0.000    2.000 
#    0.000    0.000    0.000    1.200    0.000    0.000 
#    0.000    3.200    0.000    0.000    0.000    0.000 
#
# Total GULP energy -222794.333309 kJ/mol
# GULP energy per Si atom -5569.858333 kJ/mol
# Density = 1.654989 g / cm^3
# Si number density = 16.587642 Si / 1000 Ang^3
#
#
#
# Elastic Constant Matrix: (Units=GPa)
#
#
# Indices 1 2 3 4 5 6 
#
# 1 114.0654 25.0725 44.5964 0.0000 0.0000 0.0000
# 2 25.0725 79.8214 10.4423 0.0000 0.0000 0.0000
# 3 44.5964 10.4423 94.1367 0.0000 0.0000 0.0000
# 4 0.0000 0.0000 0.0000 32.6774 0.0000 0.0000
# 5 0.0000 0.0000 0.0000 0.0000 6.9402 0.0000
# 6 0.0000 0.0000 0.0000 0.0000 0.0000 0.1545
#
#
#
# Elastic Compliance Matrix: (Units=1/GPa)
#
#
# Indices 1 2 3 4 5 6 
#
# 1 0.011391 -0.002914 -0.005073 0.000000 0.000000 0.000000
# 2 -0.002914 0.013458 -0.000112 0.000000 0.000000 0.000000
# 3 -0.005073 -0.000112 0.013039 0.000000 0.000000 0.000000
# 4 0.000000 0.000000 0.000000 0.030602 0.000000 0.000000
# 5 0.000000 0.000000 0.000000 0.000000 0.144087 0.000000
# 6 0.000000 0.000000 0.000000 0.000000 0.000000 6.473500
#
#
# Mechanical properties :
#
#
# Convention : Reuss Voigt Hill
#
# Bulk Modulus (GPa) = 46.10765 49.80510 47.95638
# Shear Modulus (GPa) = 0.74521 21.81524 11.28023
#
# Velocity S-wave (km/s) = 0.67099 3.63043 2.61058
# Velocity P-wave (km/s) = 5.33451 6.90391 6.16932
#
# Compressibility (1/GPa) = 0.02168837
#
# Stress axis : x y z
#
# Youngs Moduli (GPa) = 87.78918 74.30496 76.69525
#
# Poissons Ratio (x) = 0.21655 0.38908
# Poissons Ratio (y) = 0.25584 0.00861
# Poissons Ratio (z) = 0.44536 0.00834
#
# Static dielectric constant tensor:
#      x y z
#    x 1.582730 0.000000 0.000000 
#    y 0.000000 1.562610 0.000000 
#    z 0.000000 0.000000 1.571040 
# 
# From -- ./inp_files/18919.got.cif
#   From: 2010.05.17/outbox.cif.g08.bks.cpg/sg69_10_cif.got.tgz:18919.got - 2010.06.03 19:29:58.
