data_PCOD9513570
_publ_section_title
;
Structure prediction by ZEFSAII (Michael W. Deem and Ramdas Pophale) SiO2 
 PCOD9513570
Probable space group: F M M M
;
_chemical_formula_sum "Si O2"
_cell_formula_units_Z 192
_cell_length_a 16.645843
_cell_length_b 22.903940
_cell_length_c 25.432259
_cell_angle_alpha 90.000000
_cell_angle_beta 90.000000
_cell_angle_gamma 90.000000
_cell_volume 9696.185806
_symmetry_space_group_name_H-M "F M M M"
_symmetry_group_IT_number 69
_symmetry_cell_setting 'orthorhombic'
loop_
_space_group_symop_operation_xyz
x,y,z
-x,-y,z
x,-y,-z
-x,y,-z
-x,-y,-z
x,y,-z
-x,y,z
x,-y,z
x,1/2+y,1/2+z
-x,1/2-y,1/2+z
x,1/2-y,1/2-z
-x,1/2+y,1/2-z
-x,1/2-y,1/2-z
x,1/2+y,1/2-z
-x,1/2+y,1/2+z
x,1/2-y,1/2+z
1/2+x,y,1/2+z
1/2-x,-y,1/2+z
1/2+x,-y,1/2-z
1/2-x,y,1/2-z
1/2-x,-y,1/2-z
1/2+x,y,1/2-z
1/2-x,y,1/2+z
1/2+x,-y,1/2+z
1/2+x,1/2+y,z
1/2-x,1/2-y,z
1/2+x,1/2-y,-z
1/2-x,1/2+y,-z
1/2-x,1/2-y,-z
1/2+x,1/2+y,-z
1/2-x,1/2+y,z
1/2+x,1/2-y,z
loop_
_atom_site_type_symbol
_atom_site_label
_atom_site_fract_x
_atom_site_fract_y
_atom_site_fract_z
Si Si1 0.843427 0.364580 0.748142
Si Si2 0.906875 0.164452 0.638069
Si Si3 0.168590 0.878582 0.058090
Si Si4 0.500000 0.430645 0.208732
Si Si5 0.833982 0.782814 0.851491
Si Si6 0.000000 0.930459 0.086329
Si Si7 0.663914 0.065972 0.061740
O O1 0.750000 0.385645 0.750000
O O2 0.861782 0.344268 0.806871
O O3 0.851300 0.313254 0.704521
O O4 0.916513 0.407950 0.733626
O O5 0.894878 0.233352 0.627670
O O6 0.873203 0.118761 0.595409
O O7 0.000000 0.151618 0.645329
O O8 0.174455 0.832511 0.104791
O O9 0.239842 0.925373 0.065222
O O10 0.081175 0.906831 0.061094
O O11 0.180792 0.851966 0.000000
O O12 0.500000 0.500000 0.211161
O O13 0.500000 0.411942 0.147616
O O14 0.750000 0.750000 0.846526
O O15 0.000000 0.000000 0.083817
O O16 0.642098 0.000000 0.079285
O O17 0.641815 0.071360 0.000000
#
# Coordination Sequence:
#
# PCOD9513570 Si02
#       7
#    32  32  32  16  32  16  32
#     4  12  24  45  70  99 136 179 228 279 335 403
#     4  12  27  42  67 103 132 176 224 276 337 401
#     4  11  23  41  67  99 132 175 223 274 334 400
#     4  11  26  45  68 100 139 180 221 279 346 403
#     4  12  24  43  68  98 137 174 225 274 339 401
#     4  11  23  42  64  94 137 176 217 270 332 404
#     4  10  23  46  72  96 129 175 227 282 341 405
#
# _framework density 19.801601000000002
#
# number of rings (size 3 to 8) (size 9 to 14) (size 15 to 20)
#    0.000    0.667    5.833    1.250    2.333    4.667 
#    0.000    0.833    0.000    0.000    0.000    0.000 
#    0.000    0.000    0.000    0.000    0.000    0.000 
#
# Total GULP energy -268032.177170 kJ/mol
# GULP energy per Si atom -5584.003691 kJ/mol
# Density = 1.975653 g / cm^3
# Si number density = 19.801601 Si / 1000 Ang^3
#
#
#
# Elastic Constant Matrix: (Units=GPa)
#
#
# Indices 1 2 3 4 5 6 
#
# 1 125.1226 26.1133 14.4340 0.0000 0.0000 0.0000
# 2 26.1133 81.7790 54.3004 0.0000 0.0000 0.0000
# 3 14.4340 54.3004 104.0423 0.0000 0.0000 0.0000
# 4 0.0000 0.0000 0.0000 -4.3660 0.0000 0.0000
# 5 0.0000 0.0000 0.0000 0.0000 36.8448 0.0000
# 6 0.0000 0.0000 0.0000 0.0000 0.0000 25.6441
#
#
#
# Elastic Compliance Matrix: (Units=1/GPa)
#
#
# Indices 1 2 3 4 5 6 
#
# 1 0.008572 -0.002980 0.000366 0.000000 0.000000 0.000000
# 2 -0.002980 0.019749 -0.009894 0.000000 0.000000 0.000000
# 3 0.000366 -0.009894 0.014724 0.000000 0.000000 0.000000
# 4 0.000000 0.000000 0.000000 -0.229044 0.000000 0.000000
# 5 0.000000 0.000000 0.000000 0.000000 0.027141 0.000000
# 6 0.000000 0.000000 0.000000 0.000000 0.000000 0.038995
#
#
# Mechanical properties :
#
#
# Convention : Reuss Voigt Hill
#
# Bulk Modulus (GPa) = 55.46414 55.62659 55.54537
# Shear Modulus (GPa) = -56.28290 26.03101 -15.12595
#
# Velocity S-wave (km/s) = -5.33714 3.62966 -2.76683
# Velocity P-wave (km/s) = 3.14792 6.76157 4.23140
#
# Compressibility (1/GPa) = 0.01802967
#
# Stress axis : x y z
#
# Youngs Moduli (GPa) = 116.66011 50.63532 67.91519
#
# Poissons Ratio (x) = 0.15091 -0.02488
# Poissons Ratio (y) = 0.34769 0.67193
# Poissons Ratio (z) = -0.04273 0.50097
#
# Static dielectric constant tensor:
#      x y z
#    x 1.744350 0.000000 0.000000 
#    y 0.000000 1.707320 0.000000 
#    z 0.000000 0.000000 1.708020 
# 
# From -- ./inp_files/41145.got.cif
#   From: 2010.05.17/outbox.cif.g08.bks.cpg/sg69_21_cif.got.tgz:41145.got - 2010.06.03 19:29:58.
