data_PCOD9513037
_publ_section_title
;
Structure prediction by ZEFSAII (Michael W. Deem and Ramdas Pophale) SiO2 
 PCOD9513037
Probable space group: F M M M
;
_chemical_formula_sum "Si O2"
_cell_formula_units_Z 144
_cell_length_a 13.278100
_cell_length_b 31.374050
_cell_length_c 19.222633
_cell_angle_alpha 90.000000
_cell_angle_beta 90.000000
_cell_angle_gamma 90.000000
_cell_volume 8007.913879
_symmetry_space_group_name_H-M "F M M M"
_symmetry_group_IT_number 69
_symmetry_cell_setting 'orthorhombic'
loop_
_space_group_symop_operation_xyz
x,y,z
-x,-y,z
x,-y,-z
-x,y,-z
-x,-y,-z
x,y,-z
-x,y,z
x,-y,z
x,1/2+y,1/2+z
-x,1/2-y,1/2+z
x,1/2-y,1/2-z
-x,1/2+y,1/2-z
-x,1/2-y,1/2-z
x,1/2+y,1/2-z
-x,1/2+y,1/2+z
x,1/2-y,1/2+z
1/2+x,y,1/2+z
1/2-x,-y,1/2+z
1/2+x,-y,1/2-z
1/2-x,y,1/2-z
1/2-x,-y,1/2-z
1/2+x,y,1/2-z
1/2-x,y,1/2+z
1/2+x,-y,1/2+z
1/2+x,1/2+y,z
1/2-x,1/2-y,z
1/2+x,1/2-y,-z
1/2-x,1/2+y,-z
1/2-x,1/2-y,-z
1/2+x,1/2+y,-z
1/2-x,1/2+y,z
1/2+x,1/2-y,z
loop_
_atom_site_type_symbol
_atom_site_label
_atom_site_fract_x
_atom_site_fract_y
_atom_site_fract_z
Si Si1 0.378268 0.229564 0.142587
Si Si2 0.750000 0.391727 0.250000
Si Si3 0.123045 0.314365 0.000000
Si Si4 0.879816 0.683435 0.289758
Si Si5 0.377890 0.587320 0.500000
Si Si6 0.879509 0.050009 0.351502
O O1 0.500000 0.232219 0.137834
O O2 0.344067 0.209359 0.070271
O O3 0.345781 0.277781 0.160522
O O4 0.361563 0.200658 0.210970
O O5 0.819977 0.360287 0.295835
O O6 0.820521 0.420708 0.202347
O O7 0.156063 0.363576 0.000000
O O8 0.000000 0.314831 0.000000
O O9 0.000000 0.677439 0.297649
O O10 0.500000 0.587873 0.500000
O O11 0.348426 0.563434 0.429535
O O12 0.000000 0.057261 0.345170
O O13 0.860479 0.000000 0.340278
#
# Coordination Sequence:
#
# PCOD9513037 Si02
#       6
#    32  16  16  32  16  32
#     4   8  15  28  45  66  96 133 171 208 246 288
#     4  12  21  31  52  78 104 132 172 215 255 304
#     4   9  14  23  45  73  95 122 165 210 246 287
#     4   9  18  32  47  66  97 137 173 204 244 295
#     4   9  17  32  56  80 102 131 166 209 264 317
#     4  10  21  37  56  79 105 131 163 210 269 324
#
# _framework density 17.982211
#
# number of rings (size 3 to 8) (size 9 to 14) (size 15 to 20)
#    0.000    2.667    0.000    4.000    0.000    6.667 
#    0.000    1.111    0.000    2.667    0.000    2.333 
#    0.000    8.889    0.000    0.000    0.000    0.000 
#
# Total GULP energy -200989.288516 kJ/mol
# GULP energy per Si atom -5583.035792 kJ/mol
# Density = 1.794128 g / cm^3
# Si number density = 17.982211 Si / 1000 Ang^3
#
#
#
# Elastic Constant Matrix: (Units=GPa)
#
#
# Indices 1 2 3 4 5 6 
#
# 1 57.4861 53.6145 14.2549 0.0000 0.0000 0.0000
# 2 53.6145 154.6578 63.7294 0.0000 0.0000 0.0000
# 3 14.2549 63.7294 65.5019 0.0000 0.0000 0.0000
# 4 0.0000 0.0000 0.0000 26.9190 0.0000 0.0000
# 5 0.0000 0.0000 0.0000 0.0000 11.2289 0.0000
# 6 0.0000 0.0000 0.0000 0.0000 0.0000 34.5276
#
#
#
# Elastic Compliance Matrix: (Units=1/GPa)
#
#
# Indices 1 2 3 4 5 6 
#
# 1 0.026785 -0.011490 0.005350 0.000000 0.000000 0.000000
# 2 -0.011490 0.015722 -0.012796 0.000000 0.000000 0.000000
# 3 0.005350 -0.012796 0.026552 0.000000 0.000000 0.000000
# 4 0.000000 0.000000 0.000000 0.037149 0.000000 0.000000
# 5 0.000000 0.000000 0.000000 0.000000 0.089056 0.000000
# 6 0.000000 0.000000 0.000000 0.000000 0.000000 0.028962
#
#
# Mechanical properties :
#
#
# Convention : Reuss Voigt Hill
#
# Bulk Modulus (GPa) = 32.06450 60.09371 46.07911
# Shear Modulus (GPa) = 18.34909 24.27157 21.31033
#
# Velocity S-wave (km/s) = 3.19784 3.67789 3.44623
# Velocity P-wave (km/s) = 5.61292 7.17821 6.44328
#
# Compressibility (1/GPa) = 0.03118714
#
# Stress axis : x y z
#
# Youngs Moduli (GPa) = 37.33426 63.60575 37.66183
#
# Poissons Ratio (x) = 0.73083 -0.20149
# Poissons Ratio (y) = 0.42897 0.48192
# Poissons Ratio (z) = -0.19974 0.81389
#
# Static dielectric constant tensor:
#      x y z
#    x 1.662910 0.000000 0.000000 
#    y 0.000000 1.607240 0.000000 
#    z 0.000000 0.000000 1.595490 
# 
# From -- ./inp_files/19490.got.cif
#   From: 2010.05.17/outbox.cif.g08.bks.cpg/sg69_10_cif.got.tgz:19490.got - 2010.06.03 19:29:58.
