data_PCOD9513526
_publ_section_title
;
Structure prediction by ZEFSAII (Michael W. Deem and Ramdas Pophale) SiO2 
 PCOD9513526
Probable space group: F M M M
;
_chemical_formula_sum "Si O2"
_cell_formula_units_Z 112
_cell_length_a 23.490453
_cell_length_b 14.241669
_cell_length_c 18.063711
_cell_angle_alpha 90.000000
_cell_angle_beta 90.000000
_cell_angle_gamma 90.000000
_cell_volume 6043.092699
_symmetry_space_group_name_H-M "F M M M"
_symmetry_group_IT_number 69
_symmetry_cell_setting 'orthorhombic'
loop_
_space_group_symop_operation_xyz
x,y,z
-x,-y,z
x,-y,-z
-x,y,-z
-x,-y,-z
x,y,-z
-x,y,z
x,-y,z
x,1/2+y,1/2+z
-x,1/2-y,1/2+z
x,1/2-y,1/2-z
-x,1/2+y,1/2-z
-x,1/2-y,1/2-z
x,1/2+y,1/2-z
-x,1/2+y,1/2+z
x,1/2-y,1/2+z
1/2+x,y,1/2+z
1/2-x,-y,1/2+z
1/2+x,-y,1/2-z
1/2-x,y,1/2-z
1/2-x,-y,1/2-z
1/2+x,y,1/2-z
1/2-x,y,1/2+z
1/2+x,-y,1/2+z
1/2+x,1/2+y,z
1/2-x,1/2-y,z
1/2+x,1/2-y,-z
1/2-x,1/2+y,-z
1/2-x,1/2-y,-z
1/2+x,1/2+y,-z
1/2-x,1/2+y,z
1/2+x,1/2-y,z
loop_
_atom_site_type_symbol
_atom_site_label
_atom_site_fract_x
_atom_site_fract_y
_atom_site_fract_z
Si Si1 0.570192 0.000000 0.273289
Si Si2 0.645275 0.500000 0.913795
Si Si3 0.000000 0.109769 0.413147
Si Si4 0.313885 0.789425 0.413948
Si Si5 0.095994 0.315984 0.813750
O O1 0.592300 0.000000 0.357514
O O2 0.598978 0.087176 0.230891
O O3 0.500000 0.000000 0.270398
O O4 0.679780 0.597823 0.901959
O O5 0.627526 0.500000 0.000000
O O6 0.053794 0.161718 0.380026
O O7 0.000000 0.112540 0.500000
O O8 0.000000 0.000000 0.390478
O O9 0.332916 0.772087 0.500000
O O10 0.250000 0.750000 0.408942
O O11 0.350618 0.734683 0.352088
O O12 0.071013 0.250000 0.750000
#
# Coordination Sequence:
#
# PCOD9513526 Si02
#       5
#    16  16  16  32  32
#     4  12  24  42  61  95 133 163 210 263 319 370
#     4  10  22  44  65  91 127 166 213 261 309 376
#     4  11  23  40  60  89 128 166 208 260 315 381
#     4  10  23  43  66  93 126 168 214 260 313 375
#     4  12  22  39  63  90 127 162 209 260 315 373
#
# _framework density 18.533556999999998
#
# number of rings (size 3 to 8) (size 9 to 14) (size 15 to 20)
#    0.000    1.000    5.714    1.286    0.000    2.000 
#    0.000    2.857    0.000    0.000    0.000    0.000 
#    0.000    0.000    0.000    0.000    0.000    0.000 
#
# Total GULP energy -155980.302244 kJ/mol
# GULP energy per Si atom -5570.725080 kJ/mol
# Density = 1.849137 g / cm^3
# Si number density = 18.533557 Si / 1000 Ang^3
#
#
#
# Elastic Constant Matrix: (Units=GPa)
#
#
# Indices 1 2 3 4 5 6 
#
# 1 83.8215 55.0530 62.8865 0.0000 0.0000 0.0000
# 2 55.0530 160.4338 67.1403 0.0000 0.0000 0.0000
# 3 62.8865 67.1403 124.0378 0.0000 0.0000 0.0000
# 4 0.0000 0.0000 0.0000 32.6884 0.0000 0.0000
# 5 0.0000 0.0000 0.0000 0.0000 33.0972 0.0000
# 6 0.0000 0.0000 0.0000 0.0000 0.0000 20.1044
#
#
#
# Elastic Compliance Matrix: (Units=1/GPa)
#
#
# Indices 1 2 3 4 5 6 
#
# 1 0.020670 -0.003500 -0.008585 0.000000 0.000000 0.000000
# 2 -0.003500 0.008651 -0.002908 0.000000 0.000000 0.000000
# 3 -0.008585 -0.002908 0.013989 0.000000 0.000000 0.000000
# 4 0.000000 0.000000 0.000000 0.030592 0.000000 0.000000
# 5 0.000000 0.000000 0.000000 0.000000 0.030214 0.000000
# 6 0.000000 0.000000 0.000000 0.000000 0.000000 0.049740
#
#
# Mechanical properties :
#
#
# Convention : Reuss Voigt Hill
#
# Bulk Modulus (GPa) = 75.05713 82.05030 78.55372
# Shear Modulus (GPa) = 26.55570 29.39223 27.97396
#
# Velocity S-wave (km/s) = 3.78940 3.98665 3.88927
# Velocity P-wave (km/s) = 7.72864 8.09682 7.91487
#
# Compressibility (1/GPa) = 0.01332318
#
# Stress axis : x y z
#
# Youngs Moduli (GPa) = 48.38007 115.58999 71.48606
#
# Poissons Ratio (x) = 0.40458 0.61370
# Poissons Ratio (y) = 0.16934 0.20790
# Poissons Ratio (z) = 0.41533 0.33617
#
# Static dielectric constant tensor:
#      x y z
#    x 1.614450 0.000000 0.000000 
#    y 0.000000 0.881800 0.000000 
#    z 0.000000 0.000000 1.645380 
# 
# From -- ./inp_files/8339.got.cif
#   From: 2010.05.17/outbox.cif.g08.bks.cpg/sg69_5_cif.got.tgz:8339.got - 2010.06.03 19:29:58.
