data_PCOD9513723
_publ_section_title
;
Structure prediction by ZEFSAII (Michael W. Deem and Ramdas Pophale) SiO2 
 PCOD9513723
Probable space group: F M M M
;
_chemical_formula_sum "Si O2"
_cell_formula_units_Z 144
_cell_length_a 19.902005
_cell_length_b 16.434011
_cell_length_c 23.755675
_cell_angle_alpha 90.000000
_cell_angle_beta 90.000000
_cell_angle_gamma 90.000000
_cell_volume 7769.763137
_symmetry_space_group_name_H-M "F M M M"
_symmetry_group_IT_number 69
_symmetry_cell_setting 'orthorhombic'
loop_
_space_group_symop_operation_xyz
x,y,z
-x,-y,z
x,-y,-z
-x,y,-z
-x,-y,-z
x,y,-z
-x,y,z
x,-y,z
x,1/2+y,1/2+z
-x,1/2-y,1/2+z
x,1/2-y,1/2-z
-x,1/2+y,1/2-z
-x,1/2-y,1/2-z
x,1/2+y,1/2-z
-x,1/2+y,1/2+z
x,1/2-y,1/2+z
1/2+x,y,1/2+z
1/2-x,-y,1/2+z
1/2+x,-y,1/2-z
1/2-x,y,1/2-z
1/2-x,-y,1/2-z
1/2+x,y,1/2-z
1/2-x,y,1/2+z
1/2+x,-y,1/2+z
1/2+x,1/2+y,z
1/2-x,1/2-y,z
1/2+x,1/2-y,-z
1/2-x,1/2+y,-z
1/2-x,1/2-y,-z
1/2+x,1/2+y,-z
1/2-x,1/2+y,z
1/2+x,1/2-y,z
loop_
_atom_site_type_symbol
_atom_site_label
_atom_site_fract_x
_atom_site_fract_y
_atom_site_fract_z
Si Si1 0.648115 0.702129 0.087590
Si Si2 0.220136 0.000000 0.342877
Si Si3 0.703832 0.867557 0.063479
Si Si4 0.421096 0.909492 0.500000
Si Si5 0.142900 0.500000 0.724598
Si Si6 0.920426 0.323252 0.704779
O O1 0.649734 0.795417 0.068098
O O2 0.721993 0.669944 0.071965
O O3 0.627104 0.697686 0.152123
O O4 0.600048 0.642584 0.053608
O O5 0.199475 0.074267 0.383020
O O6 0.181071 0.000000 0.284255
O O7 0.299377 0.000000 0.324775
O O8 0.700612 0.902385 0.000000
O O9 0.500000 0.918077 0.500000
O O10 0.389666 0.000000 0.500000
O O11 0.100942 0.584392 0.721707
O O12 0.910850 0.250000 0.750000
O O13 0.000000 0.323559 0.690313
#
# Coordination Sequence:
#
# PCOD9513723 Si02
#       6
#    32  16  32  16  16  32
#     4  11  21  39  58  89 124 162 205 246 314 371
#     4  11  23  38  62  91 122 159 205 260 307 366
#     4  11  21  38  61  89 125 164 201 252 307 371
#     4  11  24  37  58  91 125 164 208 255 309 373
#     4  11  23  42  60  93 125 158 210 261 317 366
#     4  11  24  42  64  89 123 167 211 257 310 377
#
# _framework density 18.533383000000001
#
# number of rings (size 3 to 8) (size 9 to 14) (size 15 to 20)
#    0.000    1.000    4.444    3.333    3.111    0.000 
#    0.000    0.000    0.000    0.000    0.000    0.778 
#    0.000    0.000    0.000    0.000    0.000    0.000 
#
# Total GULP energy -200706.281562 kJ/mol
# GULP energy per Si atom -5575.174488 kJ/mol
# Density = 1.849120 g / cm^3
# Si number density = 18.533383 Si / 1000 Ang^3
#
#
#
# Elastic Constant Matrix: (Units=GPa)
#
#
# Indices 1 2 3 4 5 6 
#
# 1 52.8009 32.3961 19.3839 0.0000 0.0000 0.0000
# 2 32.3961 133.1018 50.1455 0.0000 0.0000 0.0000
# 3 19.3839 50.1455 118.3192 0.0000 0.0000 0.0000
# 4 0.0000 0.0000 0.0000 34.8459 0.0000 0.0000
# 5 0.0000 0.0000 0.0000 0.0000 25.6751 0.0000
# 6 0.0000 0.0000 0.0000 0.0000 0.0000 17.0741
#
#
#
# Elastic Compliance Matrix: (Units=1/GPa)
#
#
# Indices 1 2 3 4 5 6 
#
# 1 0.022524 -0.004869 -0.001626 0.000000 0.000000 0.000000
# 2 -0.004869 0.009993 -0.003438 0.000000 0.000000 0.000000
# 3 -0.001626 -0.003438 0.010175 0.000000 0.000000 0.000000
# 4 0.000000 0.000000 0.000000 0.028698 0.000000 0.000000
# 5 0.000000 0.000000 0.000000 0.000000 0.038948 0.000000
# 6 0.000000 0.000000 0.000000 0.000000 0.000000 0.058568
#
#
# Mechanical properties :
#
#
# Convention : Reuss Voigt Hill
#
# Bulk Modulus (GPa) = 43.81055 56.45254 50.13155
# Shear Modulus (GPa) = 25.46067 29.00546 27.23307
#
# Velocity S-wave (km/s) = 3.71047 3.96035 3.83744
# Velocity P-wave (km/s) = 6.48435 7.17207 6.83686
#
# Compressibility (1/GPa) = 0.02282555
#
# Stress axis : x y z
#
# Youngs Moduli (GPa) = 44.39761 100.06679 98.27972
#
# Poissons Ratio (x) = 0.48727 0.15983
# Poissons Ratio (y) = 0.21619 0.33784
# Poissons Ratio (z) = 0.07220 0.34399
#
# Static dielectric constant tensor:
#      x y z
#    x 1.630730 0.000000 0.000000 
#    y 0.000000 1.693040 0.000000 
#    z 0.000000 0.000000 1.654700 
# 
# From -- ./inp_files/22948.got.cif
#   From: 2010.05.17/outbox.cif.g08.bks.cpg/sg69_12_cif.got.tgz:22948.got - 2010.06.03 19:29:58.
