data_PCOD9513554
_publ_section_title
;
Structure prediction by ZEFSAII (Michael W. Deem and Ramdas Pophale) SiO2 
 PCOD9513554
Probable space group: F M M M
;
_chemical_formula_sum "Si O2"
_cell_formula_units_Z 144
_cell_length_a 25.687837
_cell_length_b 24.550168
_cell_length_c 11.165211
_cell_angle_alpha 90.000000
_cell_angle_beta 90.000000
_cell_angle_gamma 90.000000
_cell_volume 7041.236636
_symmetry_space_group_name_H-M "F M M M"
_symmetry_group_IT_number 69
_symmetry_cell_setting 'orthorhombic'
loop_
_space_group_symop_operation_xyz
x,y,z
-x,-y,z
x,-y,-z
-x,y,-z
-x,-y,-z
x,y,-z
-x,y,z
x,-y,z
x,1/2+y,1/2+z
-x,1/2-y,1/2+z
x,1/2-y,1/2-z
-x,1/2+y,1/2-z
-x,1/2-y,1/2-z
x,1/2+y,1/2-z
-x,1/2+y,1/2+z
x,1/2-y,1/2+z
1/2+x,y,1/2+z
1/2-x,-y,1/2+z
1/2+x,-y,1/2-z
1/2-x,y,1/2-z
1/2-x,-y,1/2-z
1/2+x,y,1/2-z
1/2-x,y,1/2+z
1/2+x,-y,1/2+z
1/2+x,1/2+y,z
1/2-x,1/2-y,z
1/2+x,1/2-y,-z
1/2-x,1/2+y,-z
1/2-x,1/2-y,-z
1/2+x,1/2+y,-z
1/2-x,1/2+y,z
1/2+x,1/2-y,z
loop_
_atom_site_type_symbol
_atom_site_label
_atom_site_fract_x
_atom_site_fract_y
_atom_site_fract_z
Si Si1 0.725641 0.666674 0.369117
Si Si2 0.937466 0.208001 0.860535
Si Si3 0.062158 0.436323 0.000000
Si Si4 0.701543 0.060970 0.369796
Si Si5 0.878321 0.620244 0.785756
O O1 0.736190 0.690506 0.500000
O O2 0.750000 0.692485 0.250000
O O3 0.753894 0.607006 0.370768
O O4 0.664375 0.659226 0.349070
O O5 0.926409 0.250000 0.750000
O O6 0.908029 0.153724 0.816963
O O7 0.000000 0.200447 0.860235
O O8 0.923331 0.222934 0.000000
O O9 0.084222 0.405599 0.116241
O O10 0.078091 0.500000 0.000000
O O11 0.000000 0.433842 0.000000
O O12 0.675760 0.065095 0.500000
O O13 0.658014 0.074417 0.273464
O O14 0.722560 0.000000 0.359383
#
# Coordination Sequence:
#
# PCOD9513554 Si02
#       5
#    32  32  16  32  32
#     4   9  18  31  49  79 112 153 195 239 290 350
#     4  10  23  42  66  93 117 148 198 262 326 382
#     4  11  24  36  50  80 122 169 214 250 294 363
#     4   9  18  32  53  83 118 155 199 249 298 355
#     4  11  20  35  57  81 117 158 199 245 305 361
#
# _framework density 20.450952999999998
#
# number of rings (size 3 to 8) (size 9 to 14) (size 15 to 20)
#    0.000    2.111    1.111    2.000    1.556    5.778 
#    0.000    0.000    0.000    6.000    0.000   31.111 
#    0.000    0.000    0.000    0.000    0.000    0.000 
#
# Total GULP energy -200627.525367 kJ/mol
# GULP energy per Si atom -5572.986816 kJ/mol
# Density = 2.040441 g / cm^3
# Si number density = 20.450953 Si / 1000 Ang^3
#
#
#
# Elastic Constant Matrix: (Units=GPa)
#
#
# Indices 1 2 3 4 5 6 
#
# 1 67.1013 32.2230 43.6661 0.0000 0.0000 0.0000
# 2 32.2230 88.2002 35.0028 -0.0002 0.0000 0.0001
# 3 43.6661 35.0028 203.8330 -0.0004 0.0001 0.0003
# 4 0.0000 -0.0002 -0.0004 7.3290 0.0001 0.0002
# 5 0.0000 0.0000 0.0001 0.0001 28.3109 0.0000
# 6 0.0000 0.0001 0.0003 0.0002 0.0000 -33.8876
#
#
#
# Elastic Compliance Matrix: (Units=1/GPa)
#
#
# Indices 1 2 3 4 5 6 
#
# 1 0.019877 -0.005980 -0.003231 0.000000 0.000000 0.000000
# 2 -0.005980 0.013966 -0.001117 0.000000 0.000000 0.000000
# 3 -0.003231 -0.001117 0.005790 0.000000 0.000000 0.000000
# 4 0.000000 0.000000 0.000000 0.136445 0.000000 0.000001
# 5 0.000000 0.000000 0.000000 0.000000 0.035322 0.000000
# 6 0.000000 0.000000 0.000000 0.000001 0.000000 -0.029509
#
#
# Mechanical properties :
#
#
# Convention : Reuss Voigt Hill
#
# Bulk Modulus (GPa) = 52.69629 64.54648 58.62139
# Shear Modulus (GPa) = 23.93803 16.89995 20.41899
#
# Velocity S-wave (km/s) = 3.42498 2.87777 3.16323
# Velocity P-wave (km/s) = 6.43924 6.53240 6.48598
#
# Compressibility (1/GPa) = 0.01897667
#
# Stress axis : x y z
#
# Youngs Moduli (GPa) = 50.30920 71.60349 172.70934
#
# Poissons Ratio (x) = 0.42815 0.55808
# Poissons Ratio (y) = 0.30082 0.19297
# Poissons Ratio (z) = 0.16257 0.08000
#
# Static dielectric constant tensor:
#      x y z
#    x 1.679460 0.000000 0.000000 
#    y 0.000000 1.739700 0.000000 
#    z 0.000000 0.000000 1.791420 
# 
# From -- ./inp_files/10363.got.cif
#   From: 2010.05.17/outbox.cif.g08.bks.cpg/sg69_6_cif.got.tgz:10363.got - 2010.06.03 19:29:58.
