data_PCOD9513421
_publ_section_title
;
Structure prediction by ZEFSAII (Michael W. Deem and Ramdas Pophale) SiO2 
 PCOD9513421
Probable space group: F M M M
;
_chemical_formula_sum "Si O2"
_cell_formula_units_Z 176
_cell_length_a 11.193028
_cell_length_b 25.846164
_cell_length_c 34.250535
_cell_angle_alpha 90.000000
_cell_angle_beta 90.000000
_cell_angle_gamma 90.000000
_cell_volume 9908.571453
_symmetry_space_group_name_H-M "F M M M"
_symmetry_group_IT_number 69
_symmetry_cell_setting 'orthorhombic'
loop_
_space_group_symop_operation_xyz
x,y,z
-x,-y,z
x,-y,-z
-x,y,-z
-x,-y,-z
x,y,-z
-x,y,z
x,-y,z
x,1/2+y,1/2+z
-x,1/2-y,1/2+z
x,1/2-y,1/2-z
-x,1/2+y,1/2-z
-x,1/2-y,1/2-z
x,1/2+y,1/2-z
-x,1/2+y,1/2+z
x,1/2-y,1/2+z
1/2+x,y,1/2+z
1/2-x,-y,1/2+z
1/2+x,-y,1/2-z
1/2-x,y,1/2-z
1/2-x,-y,1/2-z
1/2+x,y,1/2-z
1/2-x,y,1/2+z
1/2+x,-y,1/2+z
1/2+x,1/2+y,z
1/2-x,1/2-y,z
1/2+x,1/2-y,-z
1/2-x,1/2+y,-z
1/2-x,1/2-y,-z
1/2+x,1/2+y,-z
1/2-x,1/2+y,z
1/2+x,1/2-y,z
loop_
_atom_site_type_symbol
_atom_site_label
_atom_site_fract_x
_atom_site_fract_y
_atom_site_fract_z
Si Si1 0.858243 0.557982 0.318611
Si Si2 0.000000 0.061668 0.955352
Si Si3 0.701736 0.105291 0.600911
Si Si4 0.135851 0.286303 0.637953
Si Si5 0.642077 0.558923 0.543854
Si Si6 0.136884 0.335361 0.276068
O O1 0.826397 0.500000 0.305533
O O2 0.794338 0.572983 0.358948
O O3 0.842496 0.604362 0.287961
O O4 0.000000 0.558505 0.328080
O O5 0.111183 0.080761 0.930097
O O6 0.000000 0.000000 0.956484
O O7 0.000000 0.080778 0.000000
O O8 0.657487 0.161786 0.612949
O O9 0.822783 0.099557 0.576888
O O10 0.250000 0.250000 0.630964
O O11 0.138630 0.304134 0.683286
O O12 0.000000 0.266429 0.630387
O O13 0.687663 0.570934 0.500000
O O14 0.500000 0.557060 0.541579
O O15 0.682849 0.500000 0.553583
O O16 0.250000 0.319162 0.250000
O O17 0.000000 0.330270 0.259854
#
# Coordination Sequence:
#
# PCOD9513421 Si02
#       6
#    32  16  32  32  32  32
#     4   9  16  28  48  73 106 145 176 206 257 325
#     4  11  20  28  50  88 118 137 164 212 273 324
#     4  11  18  32  52  77 106 137 178 225 271 319
#     4  10  22  40  59  80 105 139 185 234 287 337
#     4   9  18  31  47  72 109 148 179 210 258 322
#     4   9  19  35  54  79 109 137 173 224 274 328
#
# _framework density 17.762398999999998
#
# number of rings (size 3 to 8) (size 9 to 14) (size 15 to 20)
#    0.000    2.273    1.818    3.818    0.000    3.636 
#    0.000    4.545    0.000    3.273    0.000    0.000 
#    0.000    0.000    0.000    0.000    0.000    0.000 
#
# Total GULP energy -245102.253512 kJ/mol
# GULP energy per Si atom -5570.505762 kJ/mol
# Density = 1.772197 g / cm^3
# Si number density = 17.762399 Si / 1000 Ang^3
#
#
#
# Elastic Constant Matrix: (Units=GPa)
#
#
# Indices 1 2 3 4 5 6 
#
# 1 99.9031 30.7950 40.9070 0.0000 0.0000 0.0000
# 2 30.7950 48.6134 7.3100 0.0000 0.0000 0.0000
# 3 40.9070 7.3100 60.1840 0.0000 0.0000 0.0000
# 4 0.0000 0.0000 0.0000 4.9396 0.0000 0.0000
# 5 0.0000 0.0000 0.0000 0.0000 36.3563 0.0000
# 6 0.0000 0.0000 0.0000 0.0000 0.0000 25.5412
#
#
#
# Elastic Compliance Matrix: (Units=1/GPa)
#
#
# Indices 1 2 3 4 5 6 
#
# 1 0.017205 -0.009310 -0.010563 0.000000 0.000000 0.000000
# 2 -0.009310 0.025991 0.003171 0.000000 0.000000 0.000000
# 3 -0.010563 0.003171 0.023410 0.000000 0.000000 0.000000
# 4 0.000000 0.000000 0.000000 0.202447 0.000000 0.000000
# 5 0.000000 0.000000 0.000000 0.000000 0.027506 0.000000
# 6 0.000000 0.000000 0.000000 0.000000 0.000000 0.039152
#
#
# Mechanical properties :
#
#
# Convention : Reuss Voigt Hill
#
# Bulk Modulus (GPa) = 30.11874 40.74718 35.43296
# Shear Modulus (GPa) = 13.15152 22.01331 17.58242
#
# Velocity S-wave (km/s) = 2.72401 3.52422 3.14963
# Velocity P-wave (km/s) = 5.18526 6.28889 5.76355
#
# Compressibility (1/GPa) = 0.03320192
#
# Stress axis : x y z
#
# Youngs Moduli (GPa) = 58.12291 38.47432 42.71608
#
# Poissons Ratio (x) = 0.35821 0.45122
# Poissons Ratio (y) = 0.54114 -0.13546
# Poissons Ratio (z) = 0.61397 -0.12201
#
# Static dielectric constant tensor:
#      x y z
#    x 1.737940 0.000000 0.000000 
#    y 0.000000 1.623450 0.000000 
#    z 0.000000 0.000000 1.594630 
# 
# From -- ./inp_files/45235.got.cif
#   From: 2010.05.17/outbox.cif.g08.bks.cpg/sg69_23_cif.got.tgz:45235.got - 2010.06.03 19:29:58.
