data_PCOD9513028
_publ_section_title
;
Structure prediction by ZEFSAII (Michael W. Deem and Ramdas Pophale) SiO2 
 PCOD9513028
Probable space group: F M M M
;
_chemical_formula_sum "Si O2"
_cell_formula_units_Z 160
_cell_length_a 14.393933
_cell_length_b 26.781423
_cell_length_c 19.364528
_cell_angle_alpha 90.000000
_cell_angle_beta 90.000000
_cell_angle_gamma 90.000000
_cell_volume 7464.832060
_symmetry_space_group_name_H-M "F M M M"
_symmetry_group_IT_number 69
_symmetry_cell_setting 'orthorhombic'
loop_
_space_group_symop_operation_xyz
x,y,z
-x,-y,z
x,-y,-z
-x,y,-z
-x,-y,-z
x,y,-z
-x,y,z
x,-y,z
x,1/2+y,1/2+z
-x,1/2-y,1/2+z
x,1/2-y,1/2-z
-x,1/2+y,1/2-z
-x,1/2-y,1/2-z
x,1/2+y,1/2-z
-x,1/2+y,1/2+z
x,1/2-y,1/2+z
1/2+x,y,1/2+z
1/2-x,-y,1/2+z
1/2+x,-y,1/2-z
1/2-x,y,1/2-z
1/2-x,-y,1/2-z
1/2+x,y,1/2-z
1/2-x,y,1/2+z
1/2+x,-y,1/2+z
1/2+x,1/2+y,z
1/2-x,1/2-y,z
1/2+x,1/2-y,-z
1/2-x,1/2+y,-z
1/2-x,1/2-y,-z
1/2+x,1/2+y,-z
1/2-x,1/2+y,z
1/2+x,1/2-y,z
loop_
_atom_site_type_symbol
_atom_site_label
_atom_site_fract_x
_atom_site_fract_y
_atom_site_fract_z
Si Si1 0.613787 0.054275 0.132134
Si Si2 0.887464 0.160722 0.575501
Si Si3 0.854961 0.697809 0.223917
Si Si4 0.394362 0.910000 0.278366
Si Si5 0.111333 0.940198 0.924931
O O1 0.500000 0.054446 0.132977
O O2 0.640195 0.103060 0.089180
O O3 0.645840 0.062252 0.211391
O O4 0.644088 0.000000 0.106076
O O5 0.855245 0.177281 0.500000
O O6 0.857009 0.192523 0.641405
O O7 0.000000 0.161897 0.576156
O O8 0.895633 0.750000 0.250000
O O9 0.750000 0.696387 0.250000
O O10 0.898119 0.647770 0.256012
O O11 0.500000 0.929441 0.284465
O O12 0.350755 0.917126 0.353796
O O13 0.000000 0.929576 0.926883
O O14 0.121210 0.000000 0.920186
O O15 0.148877 0.923849 0.000000
#
# Coordination Sequence:
#
# PCOD9513028 Si02
#       5
#    32  32  32  32  32
#     4   8  13  22  41  71 101 126 154 190 235 289
#     4   9  18  33  54  79 104 129 160 203 251 292
#     4  10  21  37  53  70  93 127 168 205 250 305
#     4   9  16  27  46  70  94 123 162 205 244 286
#     4   8  13  22  39  66  99 129 156 191 234 279
#
# _framework density 21.433838999999999
#
# number of rings (size 3 to 8) (size 9 to 14) (size 15 to 20)
#    0.000    3.200    0.000    3.000    0.000    4.400 
#    0.000    6.000    0.000   17.400    0.000    0.000 
#    0.000    0.000    0.000    0.000    0.000    0.000 
#
# Total GULP energy -223065.068235 kJ/mol
# GULP energy per Si atom -5576.626706 kJ/mol
# Density = 2.138505 g / cm^3
# Si number density = 21.433839 Si / 1000 Ang^3
#
#
#
# Elastic Constant Matrix: (Units=GPa)
#
#
# Indices 1 2 3 4 5 6 
#
# 1 61.3016 -9.0532 17.3320 0.0000 0.0000 0.0000
# 2 -9.0532 85.2937 41.3892 0.0000 0.0000 0.0000
# 3 17.3320 41.3892 202.4423 0.0000 0.0000 0.0000
# 4 0.0000 0.0000 0.0000 4.6480 0.0000 0.0000
# 5 0.0000 0.0000 0.0000 0.0000 14.9548 0.0000
# 6 0.0000 0.0000 0.0000 0.0000 0.0000 -259.2699
#
#
#
# Elastic Compliance Matrix: (Units=1/GPa)
#
#
# Indices 1 2 3 4 5 6 
#
# 1 0.017315 0.002839 -0.002063 0.000000 0.000000 0.000000
# 2 0.002839 0.013481 -0.002999 0.000000 0.000000 0.000000
# 3 -0.002063 -0.002999 0.005729 0.000000 0.000000 0.000000
# 4 0.000000 0.000000 0.000000 0.215147 0.000000 0.000000
# 5 0.000000 0.000000 0.000000 0.000000 0.066868 0.000000
# 6 0.000000 0.000000 0.000000 0.000000 0.000000 -0.003857
#
#
# Mechanical properties :
#
#
# Convention : Reuss Voigt Hill
#
# Bulk Modulus (GPa) = 31.17278 49.81929 40.49603
# Shear Modulus (GPa) = 15.15963 -27.97545 -6.40791
#
# Velocity S-wave (km/s) = 2.66235 -3.61667 -1.73093
# Velocity P-wave (km/s) = 4.90164 2.41936 3.86519
#
# Compressibility (1/GPa) = 0.03207927
#
# Stress axis : x y z
#
# Youngs Moduli (GPa) = 57.75247 74.17906 174.53602
#
# Poissons Ratio (x) = -0.21058 0.36004
# Poissons Ratio (y) = -0.16395 0.52347
# Poissons Ratio (z) = 0.11913 0.22248
#
# Static dielectric constant tensor:
#      x y z
#    x 1.875720 0.000000 0.000000 
#    y 0.000000 1.770330 0.000000 
#    z 0.000000 0.000000 1.808840 
# 
# From -- ./inp_files/23118.got.cif
#   From: 2010.05.17/outbox.cif.g08.bks.cpg/sg69_12_cif.got.tgz:23118.got - 2010.06.03 19:29:58.
