data_PCOD9513023
_publ_section_title
;
Structure prediction by ZEFSAII (Michael W. Deem and Ramdas Pophale) SiO2 
 PCOD9513023
Probable space group: F M M M
;
_chemical_formula_sum "Si O2"
_cell_formula_units_Z 100
_cell_length_a 14.630872
_cell_length_b 15.775533
_cell_length_c 21.364903
_cell_angle_alpha 90.000000
_cell_angle_beta 90.000000
_cell_angle_gamma 90.000000
_cell_volume 4931.229075
_symmetry_space_group_name_H-M "F M M M"
_symmetry_group_IT_number 69
_symmetry_cell_setting 'orthorhombic'
loop_
_space_group_symop_operation_xyz
x,y,z
-x,-y,z
x,-y,-z
-x,y,-z
-x,-y,-z
x,y,-z
-x,y,z
x,-y,z
x,1/2+y,1/2+z
-x,1/2-y,1/2+z
x,1/2-y,1/2-z
-x,1/2+y,1/2-z
-x,1/2-y,1/2-z
x,1/2+y,1/2-z
-x,1/2+y,1/2+z
x,1/2-y,1/2+z
1/2+x,y,1/2+z
1/2-x,-y,1/2+z
1/2+x,-y,1/2-z
1/2-x,y,1/2-z
1/2-x,-y,1/2-z
1/2+x,y,1/2-z
1/2-x,y,1/2+z
1/2+x,-y,1/2+z
1/2+x,1/2+y,z
1/2-x,1/2-y,z
1/2+x,1/2-y,-z
1/2-x,1/2+y,-z
1/2-x,1/2-y,-z
1/2+x,1/2+y,-z
1/2-x,1/2+y,z
1/2+x,1/2-y,z
loop_
_atom_site_type_symbol
_atom_site_label
_atom_site_fract_x
_atom_site_fract_y
_atom_site_fract_z
Si Si1 0.609571 0.173912 0.204422
Si Si2 0.389007 0.500000 0.229905
Si Si3 0.321489 0.500000 0.089576
Si Si4 0.000000 0.500000 0.500000
Si Si5 0.693799 0.836778 0.067908
O O1 0.500000 0.178147 0.205975
O O2 0.642767 0.250000 0.250000
O O3 0.638107 0.084439 0.233505
O O4 0.637724 0.173325 0.131882
O O5 0.500000 0.500000 0.224100
O O6 0.344530 0.500000 0.162415
O O7 0.417802 0.500000 0.053434
O O8 0.261798 0.416805 0.073910
O O9 0.750000 0.750000 0.064767
O O10 0.644597 0.845657 0.000000
#
# Coordination Sequence:
#
# PCOD9513023 Si02
#       5
#    32  16  16   4  32
#     4  10  22  41  62  91 128 168 213 262 317 391
#     4  10  21  36  61  89 117 159 212 256 314 377
#     4  12  23  43  67  93 131 169 218 276 324 389
#     4  12  24  44  68  96 126 178 210 284 332 380
#     4  11  24  41  61  95 128 165 218 266 325 388
#
# _framework density 20.278918999999998
#
# number of rings (size 3 to 8) (size 9 to 14) (size 15 to 20)
#    0.000    1.280    2.400    2.880    0.000    6.400 
#    2.880    0.000    0.000    4.800    0.000    0.000 
#    0.000    0.000    0.000    0.000    0.000    0.000 
#
# Total GULP energy -139358.015515 kJ/mol
# GULP energy per Si atom -5574.320621 kJ/mol
# Density = 2.023276 g / cm^3
# Si number density = 20.278919 Si / 1000 Ang^3
#
#
#
# Elastic Constant Matrix: (Units=GPa)
#
#
# Indices 1 2 3 4 5 6 
#
# 1 63.1161 34.1166 37.7683 0.0000 0.0000 0.0000
# 2 34.1166 178.0694 72.9106 0.0000 0.0000 0.0000
# 3 37.7683 72.9106 248.2486 0.0000 0.0000 0.0000
# 4 0.0000 0.0000 0.0000 33.2136 0.0000 0.0000
# 5 0.0000 0.0000 0.0000 0.0000 39.7347 0.0000
# 6 0.0000 0.0000 0.0000 0.0000 0.0000 -11.4998
#
#
#
# Elastic Compliance Matrix: (Units=1/GPa)
#
#
# Indices 1 2 3 4 5 6 
#
# 1 0.018523 -0.002722 -0.002019 0.000000 0.000000 0.000000
# 2 -0.002722 0.006784 -0.001578 0.000000 0.000000 0.000000
# 3 -0.002019 -0.001578 0.004799 0.000000 0.000000 0.000000
# 4 0.000000 0.000000 0.000000 0.030108 0.000000 0.000000
# 5 0.000000 0.000000 0.000000 0.000000 0.025167 0.000000
# 6 0.000000 0.000000 0.000000 0.000000 0.000000 -0.086958
#
#
# Mechanical properties :
#
#
# Convention : Reuss Voigt Hill
#
# Bulk Modulus (GPa) = 57.24933 86.55835 71.90384
# Shear Modulus (GPa) = 296.14873 35.26558 165.70716
#
# Velocity S-wave (km/s) = 12.09772 4.17469 9.04939
# Velocity P-wave (km/s) = 14.94764 8.12490 12.03008
#
# Compressibility (1/GPa) = 0.01746745
#
# Stress axis : x y z
#
# Youngs Moduli (GPa) = 53.98612 147.41538 208.38449
#
# Poissons Ratio (x) = 0.40133 0.42063
# Poissons Ratio (y) = 0.14697 0.32886
# Poissons Ratio (z) = 0.10897 0.23264
#
# Static dielectric constant tensor:
#      x y z
#    x 1.704410 0.000000 0.000000 
#    y 0.000000 1.700160 0.000000 
#    z 0.000000 0.000000 1.761550 
# 
# From -- ./inp_files/29512.got.cif
#   From: 2010.05.17/outbox.cif.g08.bks.cpg/sg69_15_cif.got.tgz:29512.got - 2010.06.03 19:29:58.
