data_PCOD9513699
_publ_section_title
;
Structure prediction by ZEFSAII (Michael W. Deem and Ramdas Pophale) SiO2 
 PCOD9513699
Probable space group: F M M M
;
_chemical_formula_sum "Si O2"
_cell_formula_units_Z 136
_cell_length_a 18.767731
_cell_length_b 21.353539
_cell_length_c 17.332189
_cell_angle_alpha 90.000000
_cell_angle_beta 90.000000
_cell_angle_gamma 90.000000
_cell_volume 6946.004315
_symmetry_space_group_name_H-M "F M M M"
_symmetry_group_IT_number 69
_symmetry_cell_setting 'orthorhombic'
loop_
_space_group_symop_operation_xyz
x,y,z
-x,-y,z
x,-y,-z
-x,y,-z
-x,-y,-z
x,y,-z
-x,y,z
x,-y,z
x,1/2+y,1/2+z
-x,1/2-y,1/2+z
x,1/2-y,1/2-z
-x,1/2+y,1/2-z
-x,1/2-y,1/2-z
x,1/2+y,1/2-z
-x,1/2+y,1/2+z
x,1/2-y,1/2+z
1/2+x,y,1/2+z
1/2-x,-y,1/2+z
1/2+x,-y,1/2-z
1/2-x,y,1/2-z
1/2-x,-y,1/2-z
1/2+x,y,1/2-z
1/2-x,y,1/2+z
1/2+x,-y,1/2+z
1/2+x,1/2+y,z
1/2-x,1/2-y,z
1/2+x,1/2-y,-z
1/2-x,1/2+y,-z
1/2-x,1/2-y,-z
1/2+x,1/2+y,-z
1/2-x,1/2+y,z
1/2+x,1/2-y,z
loop_
_atom_site_type_symbol
_atom_site_label
_atom_site_fract_x
_atom_site_fract_y
_atom_site_fract_z
Si Si1 0.875305 0.305325 0.306394
Si Si2 0.500000 0.906669 0.910211
Si Si3 0.865169 0.900049 0.681149
Si Si4 0.500000 0.254525 0.408770
Si Si5 0.250000 0.000000 0.750000
Si Si6 0.249152 0.174651 0.412879
O O1 0.846825 0.250000 0.250000
O O2 0.901800 0.358464 0.248172
O O3 0.814822 0.338246 0.356938
O O4 0.932671 0.274407 0.363260
O O5 0.571344 0.928893 0.868232
O O6 0.500000 0.829912 0.904580
O O7 0.500000 0.922558 0.000000
O O8 0.821497 0.853555 0.624282
O O9 0.806544 0.945886 0.717571
O O10 0.500000 0.237896 0.500000
O O11 0.258188 0.150852 0.500000
O O12 0.250000 0.250000 0.416177
#
# Coordination Sequence:
#
# PCOD9513699 Si02
#       6
#    32  16  32  16   8  32
#     4  12  20  35  62  96 129 172 210 269 334 408
#     4  11  23  42  68 102 139 170 205 271 350 415
#     4  12  24  42  66  93 130 174 232 278 322 390
#     4  11  22  36  60 103 143 164 199 258 348 435
#     4  12  28  46  66  92 122 182 246 284 304 362
#     4  11  21  35  60  96 132 166 205 264 343 411
#
# _framework density 19.579602000000001
#
# number of rings (size 3 to 8) (size 9 to 14) (size 15 to 20)
#    0.000    0.471    7.059    2.471    0.000    4.235 
#    0.000    2.941    0.000    0.000    0.000    0.824 
#    0.000    0.000    0.000    0.000    0.000    0.000 
#
# Total GULP energy -189376.114390 kJ/mol
# GULP energy per Si atom -5569.885717 kJ/mol
# Density = 1.953504 g / cm^3
# Si number density = 19.579602 Si / 1000 Ang^3
#
#
#
# Elastic Constant Matrix: (Units=GPa)
#
#
# Indices 1 2 3 4 5 6 
#
# 1 140.5191 29.7302 68.2519 0.0000 0.0000 0.0000
# 2 29.7302 87.0586 40.3444 0.0000 0.0000 0.0000
# 3 68.2519 40.3444 156.5085 0.0000 0.0000 0.0000
# 4 0.0000 0.0000 0.0000 -3.3977 0.0000 0.0000
# 5 0.0000 0.0000 0.0000 0.0000 -44.4740 0.0000
# 6 0.0000 0.0000 0.0000 0.0000 0.0000 14.9017
#
#
#
# Elastic Compliance Matrix: (Units=1/GPa)
#
#
# Indices 1 2 3 4 5 6 
#
# 1 0.009188 -0.001455 -0.003632 0.000000 0.000000 0.000000
# 2 -0.001455 0.013275 -0.002788 0.000000 0.000000 0.000000
# 3 -0.003632 -0.002788 0.008692 0.000000 0.000000 0.000000
# 4 0.000000 0.000000 0.000000 -0.294321 0.000000 0.000000
# 5 0.000000 0.000000 0.000000 0.000000 -0.022485 0.000000
# 6 0.000000 0.000000 0.000000 0.000000 0.000000 0.067106
#
#
# Mechanical properties :
#
#
# Convention : Reuss Voigt Hill
#
# Bulk Modulus (GPa) = 64.90658 73.41546 69.16102
# Shear Modulus (GPa) = -25.29598 9.78999 -7.75300
#
# Velocity S-wave (km/s) = -3.59828 2.23852 -1.99207
# Velocity P-wave (km/s) = 3.99482 6.65271 5.48713
#
# Compressibility (1/GPa) = 0.01540676
#
# Stress axis : x y z
#
# Youngs Moduli (GPa) = 108.83369 75.32888 115.04971
#
# Poissons Ratio (x) = 0.10958 0.41786
# Poissons Ratio (y) = 0.15832 0.32072
# Poissons Ratio (z) = 0.39528 0.20999
#
# Static dielectric constant tensor:
#      x y z
#    x 1.698880 0.000000 0.000000 
#    y 0.000000 1.678540 0.000000 
#    z 0.000000 0.000000 1.691320 
# 
# From -- ./inp_files/22944.got.cif
#   From: 2010.05.17/outbox.cif.g08.bks.cpg/sg69_12_cif.got.tgz:22944.got - 2010.06.03 19:29:58.
