data_PCOD9513569
_publ_section_title
;
Structure prediction by ZEFSAII (Michael W. Deem and Ramdas Pophale) SiO2 
 PCOD9513569
Probable space group: F M M M
;
_chemical_formula_sum "Si O2"
_cell_formula_units_Z 116
_cell_length_a 17.002705
_cell_length_b 11.497662
_cell_length_c 27.688970
_cell_angle_alpha 90.000000
_cell_angle_beta 90.000000
_cell_angle_gamma 90.000000
_cell_volume 5412.954269
_symmetry_space_group_name_H-M "F M M M"
_symmetry_group_IT_number 69
_symmetry_cell_setting 'orthorhombic'
loop_
_space_group_symop_operation_xyz
x,y,z
-x,-y,z
x,-y,-z
-x,y,-z
-x,-y,-z
x,y,-z
-x,y,z
x,-y,z
x,1/2+y,1/2+z
-x,1/2-y,1/2+z
x,1/2-y,1/2-z
-x,1/2+y,1/2-z
-x,1/2-y,1/2-z
x,1/2+y,1/2-z
-x,1/2+y,1/2+z
x,1/2-y,1/2+z
1/2+x,y,1/2+z
1/2-x,-y,1/2+z
1/2+x,-y,1/2-z
1/2-x,y,1/2-z
1/2-x,-y,1/2-z
1/2+x,y,1/2-z
1/2-x,y,1/2+z
1/2+x,-y,1/2+z
1/2+x,1/2+y,z
1/2-x,1/2-y,z
1/2+x,1/2-y,-z
1/2-x,1/2+y,-z
1/2-x,1/2-y,-z
1/2+x,1/2+y,-z
1/2-x,1/2+y,z
1/2+x,1/2-y,z
loop_
_atom_site_type_symbol
_atom_site_label
_atom_site_fract_x
_atom_site_fract_y
_atom_site_fract_z
Si Si1 0.500000 0.000000 0.000000
Si Si2 0.830282 0.199762 0.627627
Si Si3 0.094395 0.864244 0.947532
Si Si4 0.405474 0.371020 0.274874
Si Si5 0.665852 0.000000 0.052869
O O1 0.428490 0.000000 0.958689
O O2 0.750000 0.250000 0.648879
O O3 0.875097 0.301158 0.599515
O O4 0.880846 0.141383 0.669371
O O5 0.811749 0.109705 0.584907
O O6 0.000000 0.854021 0.947803
O O7 0.114307 0.000000 0.946258
O O8 0.121142 0.814518 0.000000
O O9 0.500000 0.371604 0.270462
O O10 0.377886 0.500000 0.257095
O O11 0.377641 0.250000 0.250000
O O12 0.703888 0.000000 0.000000
#
# Coordination Sequence:
#
# PCOD9513569 Si02
#       5
#     4  32  32  32  16
#     4   8  24  40  68  96 122 176 238 276 324 390
#     4  12  25  39  62  94 132 173 212 267 330 402
#     4   9  20  37  58  86 122 169 217 264 317 377
#     4  10  23  45  73 100 128 166 223 286 345 402
#     4  10  24  40  64  97 126 175 228 270 327 379
#
# _framework density 21.430073
#
# number of rings (size 3 to 8) (size 9 to 14) (size 15 to 20)
#    0.414    1.379    1.379    2.483    5.793    3.862 
#    0.000    4.138    0.000    0.000    0.000    0.000 
#    0.000    0.000    0.000    0.000    0.000    0.000 
#
# Total GULP energy -161591.755621 kJ/mol
# GULP energy per Si atom -5572.129504 kJ/mol
# Density = 2.138130 g / cm^3
# Si number density = 21.430073 Si / 1000 Ang^3
#
#
#
# Elastic Constant Matrix: (Units=GPa)
#
#
# Indices 1 2 3 4 5 6 
#
# 1 23.3364 20.0943 -7.6498 0.0000 0.0000 0.0000
# 2 20.0943 117.9821 45.3062 0.0000 0.0000 0.0000
# 3 -7.6498 45.3062 75.1717 0.0000 0.0000 0.0000
# 4 0.0000 0.0000 0.0000 53.6839 0.0000 0.0000
# 5 0.0000 0.0000 0.0000 0.0000 5.6602 0.0000
# 6 0.0000 0.0000 0.0000 0.0000 0.0000 4.5777
#
#
#
# Elastic Compliance Matrix: (Units=1/GPa)
#
#
# Indices 1 2 3 4 5 6 
#
# 1 0.063183 -0.017214 0.016805 0.000000 0.000000 0.000000
# 2 -0.017214 0.015718 -0.011225 0.000000 0.000000 0.000000
# 3 0.016805 -0.011225 0.021779 0.000000 0.000000 0.000000
# 4 0.000000 0.000000 0.000000 0.018628 0.000000 0.000000
# 5 0.000000 0.000000 0.000000 0.000000 0.176671 0.000000
# 6 0.000000 0.000000 0.000000 0.000000 0.000000 0.218452
#
#
# Mechanical properties :
#
#
# Convention : Reuss Voigt Hill
#
# Bulk Modulus (GPa) = 12.91819 36.88797 24.90308
# Shear Modulus (GPa) = 8.87306 23.36700 16.12003
#
# Velocity S-wave (km/s) = 2.03702 3.30568 2.74563
# Velocity P-wave (km/s) = 3.40202 5.64097 4.65802
#
# Compressibility (1/GPa) = 0.07741025
#
# Stress axis : x y z
#
# Youngs Moduli (GPa) = 15.82707 63.61987 45.91678
#
# Poissons Ratio (x) = 1.09517 -0.77163
# Poissons Ratio (y) = 0.27245 0.51543
# Poissons Ratio (z) = -0.26597 0.71415
#
# Static dielectric constant tensor:
#      x y z
#    x 1.766780 0.000000 0.000000 
#    y 0.000000 1.828160 0.000000 
#    z 0.000000 0.000000 1.734030 
# 
# From -- ./inp_files/11004.got.cif
#   From: 2010.05.17/outbox.cif.g08.bks.cpg/sg69_6_cif.got.tgz:11004.got - 2010.06.03 19:29:58.
