data_PCOD9513342
_publ_section_title
;
Structure prediction by ZEFSAII (Michael W. Deem and Ramdas Pophale) SiO2 
 PCOD9513342
Probable space group: F M M M
;
_chemical_formula_sum "Si O2"
_cell_formula_units_Z 144
_cell_length_a 27.474530
_cell_length_b 12.326010
_cell_length_c 25.294286
_cell_angle_alpha 90.000000
_cell_angle_beta 90.000000
_cell_angle_gamma 90.000000
_cell_volume 8565.943634
_symmetry_space_group_name_H-M "F M M M"
_symmetry_group_IT_number 69
_symmetry_cell_setting 'orthorhombic'
loop_
_space_group_symop_operation_xyz
x,y,z
-x,-y,z
x,-y,-z
-x,y,-z
-x,-y,-z
x,y,-z
-x,y,z
x,-y,z
x,1/2+y,1/2+z
-x,1/2-y,1/2+z
x,1/2-y,1/2-z
-x,1/2+y,1/2-z
-x,1/2-y,1/2-z
x,1/2+y,1/2-z
-x,1/2+y,1/2+z
x,1/2-y,1/2+z
1/2+x,y,1/2+z
1/2-x,-y,1/2+z
1/2+x,-y,1/2-z
1/2-x,y,1/2-z
1/2-x,-y,1/2-z
1/2+x,y,1/2-z
1/2-x,y,1/2+z
1/2+x,-y,1/2+z
1/2+x,1/2+y,z
1/2-x,1/2-y,z
1/2+x,1/2-y,-z
1/2-x,1/2+y,-z
1/2-x,1/2-y,-z
1/2+x,1/2+y,-z
1/2-x,1/2+y,z
1/2+x,1/2-y,z
loop_
_atom_site_type_symbol
_atom_site_label
_atom_site_fract_x
_atom_site_fract_y
_atom_site_fract_z
Si Si1 0.140860 0.623258 0.850120
Si Si2 0.391794 0.500000 0.827850
Si Si3 0.445308 0.726263 0.811803
Si Si4 0.650090 0.000000 0.558880
Si Si5 0.692496 0.238156 0.440744
Si Si6 0.808304 0.500000 0.760157
O O1 0.130991 0.500000 0.868706
O O2 0.091711 0.686385 0.836032
O O3 0.167895 0.692802 0.894586
O O4 0.173973 0.601476 0.797297
O O5 0.421756 0.607806 0.815712
O O6 0.383647 0.500000 0.890448
O O7 0.341673 0.500000 0.792918
O O8 0.500000 0.730057 0.834513
O O9 0.448578 0.750000 0.750000
O O10 0.680427 0.110740 0.563483
O O11 0.627409 0.000000 0.500000
O O12 0.676935 0.273614 0.500000
O O13 0.750000 0.250000 0.436922
O O14 0.750000 0.500000 0.750000
#
# Coordination Sequence:
#
# PCOD9513342 Si02
#       6
#    32  16  32  16  32  16
#     4  10  22  39  57  87 122 150 201 241 302 354
#     4  12  21  40  62  86 125 155 203 245 295 368
#     4  11  22  39  61  87 118 157 204 254 300 352
#     4  10  22  37  61  87 117 156 197 246 297 344
#     4  10  22  38  60  87 119 163 207 246 289 352
#     4  10  24  37  56  89 125 163 192 236 299 365
#
# _framework density 16.810756999999999
#
# number of rings (size 3 to 8) (size 9 to 14) (size 15 to 20)
#    0.667    0.889    4.444    0.333    4.667    0.889 
#    0.000    1.111    0.000    3.333    0.000    1.556 
#    0.000    0.000    0.000    0.000    0.000    0.000 
#
# Total GULP energy -200528.875341 kJ/mol
# GULP energy per Si atom -5570.246537 kJ/mol
# Density = 1.677249 g / cm^3
# Si number density = 16.810757 Si / 1000 Ang^3
#
#
#
# Elastic Constant Matrix: (Units=GPa)
#
#
# Indices 1 2 3 4 5 6 
#
# 1 134.9799 63.4690 58.8585 0.0000 0.0000 0.0000
# 2 63.4690 126.2456 55.7414 0.0000 0.0000 0.0000
# 3 58.8585 55.7414 111.3885 0.0000 0.0000 0.0000
# 4 0.0000 0.0000 0.0000 31.9564 0.0000 0.0000
# 5 0.0000 0.0000 0.0000 0.0000 22.6433 0.0000
# 6 0.0000 0.0000 0.0000 0.0000 0.0000 61.0413
#
#
#
# Elastic Compliance Matrix: (Units=1/GPa)
#
#
# Indices 1 2 3 4 5 6 
#
# 1 0.010856 -0.003755 -0.003858 0.000000 0.000000 0.000000
# 2 -0.003755 0.011466 -0.003754 0.000000 0.000000 0.000000
# 3 -0.003858 -0.003754 0.012895 0.000000 0.000000 0.000000
# 4 0.000000 0.000000 0.000000 0.031293 0.000000 0.000000
# 5 0.000000 0.000000 0.000000 0.000000 0.044163 0.000000
# 6 0.000000 0.000000 0.000000 0.000000 0.000000 0.016382
#
#
# Mechanical properties :
#
#
# Convention : Reuss Voigt Hill
#
# Bulk Modulus (GPa) = 80.09915 80.97242 80.53579
# Shear Modulus (GPa) = 32.47838 36.09788 34.28813
#
# Velocity S-wave (km/s) = 4.40022 4.63893 4.52115
# Velocity P-wave (km/s) = 8.57712 8.77294 8.67558
#
# Compressibility (1/GPa) = 0.01248453
#
# Stress axis : x y z
#
# Youngs Moduli (GPa) = 92.11456 87.21319 77.55231
#
# Poissons Ratio (x) = 0.32745 0.29916
# Poissons Ratio (y) = 0.34585 0.29113
# Poissons Ratio (z) = 0.35534 0.32740
#
# Static dielectric constant tensor:
#      x y z
#    x 1.566130 0.000000 0.000000 
#    y 0.000000 1.558850 0.000000 
#    z 0.000000 0.000000 1.584470 
# 
# From -- ./inp_files/43472.got.cif
#   From: 2010.05.17/outbox.cif.g08.bks.cpg/sg69_22_cif.got.tgz:43472.got - 2010.06.03 19:29:58.
