data_PCOD9513366
_publ_section_title
;
Structure prediction by ZEFSAII (Michael W. Deem and Ramdas Pophale) SiO2 
 PCOD9513366
Probable space group: F M M M
;
_chemical_formula_sum "Si O2"
_cell_formula_units_Z 168
_cell_length_a 27.946871
_cell_length_b 14.673607
_cell_length_c 20.690317
_cell_angle_alpha 90.000000
_cell_angle_beta 90.000000
_cell_angle_gamma 90.000000
_cell_volume 8484.714202
_symmetry_space_group_name_H-M "F M M M"
_symmetry_group_IT_number 69
_symmetry_cell_setting 'orthorhombic'
loop_
_space_group_symop_operation_xyz
x,y,z
-x,-y,z
x,-y,-z
-x,y,-z
-x,-y,-z
x,y,-z
-x,y,z
x,-y,z
x,1/2+y,1/2+z
-x,1/2-y,1/2+z
x,1/2-y,1/2-z
-x,1/2+y,1/2-z
-x,1/2-y,1/2-z
x,1/2+y,1/2-z
-x,1/2+y,1/2+z
x,1/2-y,1/2+z
1/2+x,y,1/2+z
1/2-x,-y,1/2+z
1/2+x,-y,1/2-z
1/2-x,y,1/2-z
1/2-x,-y,1/2-z
1/2+x,y,1/2-z
1/2-x,y,1/2+z
1/2+x,-y,1/2+z
1/2+x,1/2+y,z
1/2-x,1/2-y,z
1/2+x,1/2-y,-z
1/2-x,1/2+y,-z
1/2-x,1/2-y,-z
1/2+x,1/2+y,-z
1/2-x,1/2+y,z
1/2+x,1/2-y,z
loop_
_atom_site_type_symbol
_atom_site_label
_atom_site_fract_x
_atom_site_fract_y
_atom_site_fract_z
Si Si1 0.757059 0.139922 0.178072
Si Si2 0.135304 0.500000 0.500000
Si Si3 0.929151 0.603112 0.074435
Si Si4 0.853145 0.152269 0.889910
Si Si5 0.946742 0.766083 0.826909
Si Si6 0.680672 0.354329 0.428074
O O1 0.750000 0.105198 0.250000
O O2 0.750000 0.250000 0.180489
O O3 0.810365 0.118473 0.155514
O O4 0.717679 0.111775 0.125418
O O5 0.136358 0.420331 0.444268
O O6 0.946278 0.500000 0.084485
O O7 0.945153 0.674112 0.129166
O O8 0.871429 0.601523 0.077066
O O9 0.941439 0.631368 0.000000
O O10 0.901813 0.176177 0.852089
O O11 0.831563 0.247007 0.918659
O O12 0.941120 0.750000 0.750000
O O13 0.000000 0.806708 0.836638
O O14 0.700554 0.369110 0.500000
#
# Coordination Sequence:
#
# PCOD9513366 Si02
#       6
#    32   8  32  32  32  32
#     4   9  19  32  56  88 116 159 206 248 303 358
#     4  12  24  44  57  92 126 170 210 254 305 354
#     4   9  19  37  63  97 126 151 193 255 316 368
#     4  10  22  38  60  83 124 161 210 259 297 359
#     4  10  23  43  67  90 118 162 207 253 318 378
#     4   9  17  33  59  86 118 162 204 243 302 368
#
# _framework density 19.800312999999999
#
# number of rings (size 3 to 8) (size 9 to 14) (size 15 to 20)
#    0.000    2.476    0.952    0.000   10.667    1.905 
#    3.429    2.381    0.000    0.000    0.000    0.000 
#    0.000    0.000    0.000    0.000    0.000    0.000 
#
# Total GULP energy -233808.148744 kJ/mol
# GULP energy per Si atom -5566.860684 kJ/mol
# Density = 1.975525 g / cm^3
# Si number density = 19.800313 Si / 1000 Ang^3
#
#
#
# Elastic Constant Matrix: (Units=GPa)
#
#
# Indices 1 2 3 4 5 6 
#
# 1 161.5508 27.7243 98.7029 0.0000 0.0000 0.0000
# 2 27.7243 81.3295 42.1558 0.0000 0.0000 0.0000
# 3 98.7029 42.1558 187.8079 0.0000 0.0000 0.0000
# 4 0.0000 0.0000 0.0000 -89.7011 0.0000 0.0000
# 5 0.0000 0.0000 0.0000 0.0000 10.1881 0.0000
# 6 0.0000 0.0000 0.0000 0.0000 0.0000 -10.5896
#
#
#
# Elastic Compliance Matrix: (Units=1/GPa)
#
#
# Indices 1 2 3 4 5 6 
#
# 1 0.009154 -0.000709 -0.004652 0.000000 0.000000 0.000000
# 2 -0.000709 0.013970 -0.002763 0.000000 0.000000 0.000000
# 3 -0.004652 -0.002763 0.008389 0.000000 0.000000 0.000000
# 4 0.000000 0.000000 0.000000 -0.011148 0.000000 0.000000
# 5 0.000000 0.000000 0.000000 0.000000 0.098154 0.000000
# 6 0.000000 0.000000 0.000000 0.000000 0.000000 -0.094432
#
#
# Mechanical properties :
#
#
# Convention : Reuss Voigt Hill
#
# Bulk Modulus (GPa) = 65.50859 85.31714 75.41286
# Shear Modulus (GPa) = 110.07922 -0.54684 54.76619
#
# Velocity S-wave (km/s) = 7.46427 -0.52610 5.26491
# Velocity P-wave (km/s) = 10.36550 6.54319 8.66767
#
# Compressibility (1/GPa) = 0.01526517
#
# Stress axis : x y z
#
# Youngs Moduli (GPa) = 109.24565 71.58435 119.19858
#
# Poissons Ratio (x) = 0.05078 0.55445
# Poissons Ratio (y) = 0.07749 0.32933
# Poissons Ratio (z) = 0.50816 0.19778
#
# Static dielectric constant tensor:
#      x y z
#    x 1.692850 0.000000 0.000000 
#    y 0.000000 1.712240 0.000000 
#    z 0.000000 0.000000 1.683370 
# 
# From -- ./inp_files/33397.got.cif
#   From: 2010.05.17/outbox.cif.g08.bks.cpg/sg69_17_cif.got.tgz:33397.got - 2010.06.03 19:29:58.
