data_PCOD9513966
_publ_section_title
;
Structure prediction by ZEFSAII (Michael W. Deem and Ramdas Pophale) SiO2 
 PCOD9513966
Probable space group: F M M M
;
_chemical_formula_sum "Si O2"
_cell_formula_units_Z 44
_cell_length_a 15.000000
_cell_length_b 24.000000
_cell_length_c 27.000000
_cell_angle_alpha 90.000000
_cell_angle_beta 90.000000
_cell_angle_gamma 90.000000
_cell_volume 9720.000000
_symmetry_space_group_name_H-M "F M M M"
_symmetry_group_IT_number 69
_symmetry_cell_setting 'orthorhombic'
loop_
_space_group_symop_operation_xyz
x,y,z
-x,-y,z
x,-y,-z
-x,y,-z
-x,-y,-z
x,y,-z
-x,y,z
x,-y,z
x,1/2+y,1/2+z
-x,1/2-y,1/2+z
x,1/2-y,1/2-z
-x,1/2+y,1/2-z
-x,1/2-y,1/2-z
x,1/2+y,1/2-z
-x,1/2+y,1/2+z
x,1/2-y,1/2+z
1/2+x,y,1/2+z
1/2-x,-y,1/2+z
1/2+x,-y,1/2-z
1/2-x,y,1/2-z
1/2-x,-y,1/2-z
1/2+x,y,1/2-z
1/2-x,y,1/2+z
1/2+x,-y,1/2+z
1/2+x,1/2+y,z
1/2-x,1/2-y,z
1/2+x,1/2-y,-z
1/2-x,1/2+y,-z
1/2-x,1/2-y,-z
1/2+x,1/2+y,-z
1/2-x,1/2+y,z
1/2+x,1/2-y,z
loop_
_atom_site_type_symbol
_atom_site_label
_atom_site_fract_x
_atom_site_fract_y
_atom_site_fract_z
Si Si1 0.108592 0.337147 0.943822
Si Si2 0.108811 0.784483 0.057102
Si Si3 0.104228 0.438315 0.875915
Si Si4 0.732097 0.435463 0.803818
Si Si5 0.891681 0.500000 0.555685
Si Si6 0.892460 0.391284 0.617682
O O1 0.137240 0.276519 0.924985
O O2 0.133958 0.389868 0.912319
O O3 0.000000 0.336656 0.944748
O O4 0.139468 0.342399 0.000000
O O5 0.137265 0.835530 0.090301
O O6 0.000000 0.785465 0.056713
O O7 0.136617 0.791320 0.000000
O O8 0.110165 0.500000 0.898993
O O9 0.173500 0.436430 0.831530
O O10 0.000000 0.430165 0.861929
O O11 0.700520 0.500000 0.800965
O O12 0.750000 0.413184 0.750000
O O13 0.658419 0.400090 0.831685
O O14 0.857627 0.500000 0.500000
O O15 0.865978 0.444649 0.584661
O O16 0.000000 0.500000 0.553678
O O17 0.000000 0.391255 0.622778
#
# Coordination Sequence:
#
# PCOD9513966 Si02
#       6
#    32  32  32  32  16  32
#     4   8  14  27  49  75 102 133 167 200 238 290
#     4   8  14  26  47  75 105 137 166 192 233 295
#     4   9  18  33  53  74  96 126 165 208 255 296
#     4  10  21  36  52  71  98 127 164 216 259 294
#     4   9  16  26  43  70 103 133 156 185 228 282
#     4  10  18  30  50  75 103 133 164 196 241 299
#
# _framework density 4.5267489999999997
#
# number of rings (size 3 to 8) (size 9 to 14) (size 15 to 20)
#    0.000    3.000    0.909    1.636    0.000    3.273 
#    0.000    6.364    0.000    4.364    0.000    5.091 
#    0.000    0.000    0.000    0.000    0.000    0.000 
#
# Total GULP energy -245144.578849 kJ/mol
# GULP energy per Si atom -5571.467701 kJ/mol
# Density = 0.451645 g / cm^3
# Si number density = 4.526749 Si / 1000 Ang^3
#
#
#
# Elastic Constant Matrix: (Units=GPa)
#
#
# Indices 1 2 3 4 5 6 
#
# 1 27.4836 34.1201 23.7101 0.0000 0.0000 0.0000
# 2 34.1201 137.6057 88.6569 0.0000 0.0000 0.0000
# 3 23.7101 88.6569 99.1104 0.0000 0.0000 0.0000
# 4 0.0000 0.0000 0.0000 12.2385 0.0000 0.0000
# 5 0.0000 0.0000 0.0000 0.0000 21.1290 0.0000
# 6 0.0000 0.0000 0.0000 0.0000 0.0000 -53.4896
#
#
#
# Elastic Compliance Matrix: (Units=1/GPa)
#
#
# Indices 1 2 3 4 5 6 
#
# 1 0.052764 -0.011685 -0.002170 0.000000 0.000000 0.000000
# 2 -0.011685 0.019740 -0.014863 0.000000 0.000000 0.000000
# 3 -0.002170 -0.014863 0.023904 0.000000 0.000000 0.000000
# 4 0.000000 0.000000 0.000000 0.081710 0.000000 0.000000
# 5 0.000000 0.000000 0.000000 0.000000 0.047328 0.000000
# 6 0.000000 0.000000 0.000000 0.000000 0.000000 -0.018695
#
#
# Mechanical properties :
#
#
# Convention : Reuss Voigt Hill
#
# Bulk Modulus (GPa) = 25.65908 61.90819 43.78363
# Shear Modulus (GPa) = 18.03893 3.82309 10.93101
#
# Velocity S-wave (km/s) = 3.15975 1.45464 2.45968
# Velocity P-wave (km/s) = 5.24534 6.08980 5.68328
#
# Compressibility (1/GPa) = 0.03897256
#
# Stress axis : x y z
#
# Youngs Moduli (GPa) = 18.95228 50.65749 41.83353
#
# Poissons Ratio (x) = 0.59193 0.09079
# Poissons Ratio (y) = 0.22146 0.62177
# Poissons Ratio (z) = 0.04113 0.75292
#
# Static dielectric constant tensor:
#      x y z
#    x 1.640290 0.000000 0.000000 
#    y 0.000000 1.635670 0.000000 
#    z 0.000000 0.000000 1.599770 
# 
# From -- ./inp_files/18061.got.cif
#   From: 2010.05.17/outbox.ucp.g08.bks.cvg/sg69_10_cif.got.tgz:18061.got - 2010.06.11 16:51:34.
