data_PCOD9513973
_publ_section_title
;
Structure prediction by ZEFSAII (Michael W. Deem and Ramdas Pophale) SiO2 
 PCOD9513973
Probable space group: F M M M
;
_chemical_formula_sum "Si O2"
_cell_formula_units_Z 36
_cell_length_a 21.000000
_cell_length_b 18.000000
_cell_length_c 21.000000
_cell_angle_alpha 90.000000
_cell_angle_beta 90.000000
_cell_angle_gamma 90.000000
_cell_volume 7938.000000
_symmetry_space_group_name_H-M "F M M M"
_symmetry_group_IT_number 69
_symmetry_cell_setting 'orthorhombic'
loop_
_space_group_symop_operation_xyz
x,y,z
-x,-y,z
x,-y,-z
-x,y,-z
-x,-y,-z
x,y,-z
-x,y,z
x,-y,z
x,1/2+y,1/2+z
-x,1/2-y,1/2+z
x,1/2-y,1/2-z
-x,1/2+y,1/2-z
-x,1/2-y,1/2-z
x,1/2+y,1/2-z
-x,1/2+y,1/2+z
x,1/2-y,1/2+z
1/2+x,y,1/2+z
1/2-x,-y,1/2+z
1/2+x,-y,1/2-z
1/2-x,y,1/2-z
1/2-x,-y,1/2-z
1/2+x,y,1/2-z
1/2-x,y,1/2+z
1/2+x,-y,1/2+z
1/2+x,1/2+y,z
1/2-x,1/2-y,z
1/2+x,1/2-y,-z
1/2-x,1/2+y,-z
1/2-x,1/2-y,-z
1/2+x,1/2+y,-z
1/2-x,1/2+y,z
1/2+x,1/2-y,z
loop_
_atom_site_type_symbol
_atom_site_label
_atom_site_fract_x
_atom_site_fract_y
_atom_site_fract_z
Si Si1 0.694891 0.911036 0.197737
Si Si2 0.393044 0.803929 0.574562
Si Si3 0.500000 0.417238 0.922725
Si Si4 0.075110 0.694266 0.189783
Si Si5 0.251512 0.661154 0.927686
O O1 0.750000 0.889814 0.250000
O O2 0.626867 0.869750 0.205537
O O3 0.719194 0.884704 0.128095
O O4 0.687887 0.000000 0.200503
O O5 0.404697 0.780554 0.500000
O O6 0.441519 0.866786 0.596044
O O7 0.400990 0.737034 0.625156
O O8 0.326913 0.847995 0.574116
O O9 0.500000 0.500000 0.897081
O O10 0.500000 0.421484 0.000000
O O11 0.077365 0.750000 0.250000
O O12 0.000000 0.672688 0.181381
O O13 0.250000 0.750000 0.916231
O O14 0.227389 0.647220 0.000000
#
# Coordination Sequence:
#
# PCOD9513973 Si02
#       5
#    32  32  16  32  32
#     4  11  25  42  62  89 122 161 200 245 306 367
#     4  10  19  34  59  88 117 155 201 243 290 355
#     4   9  18  32  51  80 119 155 187 234 292 342
#     4  11  23  39  63  89 116 154 202 249 300 353
#     4  10  20  35  61  93 119 153 202 250 295 348
#
# _framework density 4.5351470000000003
#
# number of rings (size 3 to 8) (size 9 to 14) (size 15 to 20)
#    0.000    1.667    3.333    1.333    0.000    1.778 
#    0.000    3.333    0.000    0.000    0.000    3.111 
#    0.000    0.000    0.000    0.000    0.000    0.000 
#
# Total GULP energy -200554.997136 kJ/mol
# GULP energy per Si atom -5570.972143 kJ/mol
# Density = 0.452483 g / cm^3
# Si number density = 4.535147 Si / 1000 Ang^3
#
#
#
# Elastic Constant Matrix: (Units=GPa)
#
#
# Indices 1 2 3 4 5 6 
#
# 1 118.7540 51.6647 30.8887 0.0000 0.0000 0.0000
# 2 51.6647 83.7345 37.7356 0.0000 0.0000 0.0000
# 3 30.8887 37.7356 104.2787 0.0000 0.0000 0.0000
# 4 0.0000 0.0000 0.0000 23.5808 0.0000 0.0000
# 5 0.0000 0.0000 0.0000 0.0000 26.6035 0.0000
# 6 0.0000 0.0000 0.0000 0.0000 0.0000 31.1491
#
#
#
# Elastic Compliance Matrix: (Units=1/GPa)
#
#
# Indices 1 2 3 4 5 6 
#
# 1 0.011599 -0.006701 -0.001011 0.000000 0.000000 0.000000
# 2 -0.006701 0.018141 -0.004580 0.000000 0.000000 0.000000
# 3 -0.001011 -0.004580 0.011546 0.000000 0.000000 0.000000
# 4 0.000000 0.000000 0.000000 0.042407 0.000000 0.000000
# 5 0.000000 0.000000 0.000000 0.000000 0.037589 0.000000
# 6 0.000000 0.000000 0.000000 0.000000 0.000000 0.032104
#
#
# Mechanical properties :
#
#
# Convention : Reuss Voigt Hill
#
# Bulk Modulus (GPa) = 59.86946 60.81612 60.34279
# Shear Modulus (GPa) = 27.24232 28.69855 27.97044
#
# Velocity S-wave (km/s) = 3.87942 3.98176 3.93093
# Velocity P-wave (km/s) = 7.28981 7.39844 7.34432
#
# Compressibility (1/GPa) = 0.01670301
#
# Stress axis : x y z
#
# Youngs Moduli (GPa) = 86.21380 55.12353 86.60699
#
# Poissons Ratio (x) = 0.36939 0.08755
# Poissons Ratio (y) = 0.57773 0.39664
# Poissons Ratio (z) = 0.08715 0.25245
#
# Static dielectric constant tensor:
#      x y z
#    x 1.886550 0.000000 0.000000 
#    y 0.000000 1.614010 0.000000 
#    z 0.000000 0.000000 1.644750 
# 
# From -- ./inp_files/22870.got.cif
#   From: 2010.05.17/outbox.ucp.g08.bks.cvg/sg69_12_cif.got.tgz:22870.got - 2010.06.11 16:51:34.
