data_PCOD9513135
_publ_section_title
;
Structure prediction by ZEFSAII (Michael W. Deem and Ramdas Pophale) SiO2 
 PCOD9513135
Probable space group: F M M M
;
_chemical_formula_sum "Si O2"
_cell_formula_units_Z 116
_cell_length_a 24.101934
_cell_length_b 17.847901
_cell_length_c 14.421218
_cell_angle_alpha 90.000000
_cell_angle_beta 90.000000
_cell_angle_gamma 90.000000
_cell_volume 6203.559944
_symmetry_space_group_name_H-M "F M M M"
_symmetry_group_IT_number 69
_symmetry_cell_setting 'orthorhombic'
loop_
_space_group_symop_operation_xyz
x,y,z
-x,-y,z
x,-y,-z
-x,y,-z
-x,-y,-z
x,y,-z
-x,y,z
x,-y,z
x,1/2+y,1/2+z
-x,1/2-y,1/2+z
x,1/2-y,1/2-z
-x,1/2+y,1/2-z
-x,1/2-y,1/2-z
x,1/2+y,1/2-z
-x,1/2+y,1/2+z
x,1/2-y,1/2+z
1/2+x,y,1/2+z
1/2-x,-y,1/2+z
1/2+x,-y,1/2-z
1/2-x,y,1/2-z
1/2-x,-y,1/2-z
1/2+x,y,1/2-z
1/2-x,y,1/2+z
1/2+x,-y,1/2+z
1/2+x,1/2+y,z
1/2-x,1/2-y,z
1/2+x,1/2-y,-z
1/2-x,1/2+y,-z
1/2-x,1/2-y,-z
1/2+x,1/2+y,-z
1/2-x,1/2+y,z
1/2+x,1/2-y,z
loop_
_atom_site_type_symbol
_atom_site_label
_atom_site_fract_x
_atom_site_fract_y
_atom_site_fract_z
Si Si1 0.000000 0.500000 0.000000
Si Si2 0.935216 0.330730 0.202931
Si Si3 0.560958 0.155535 0.000000
Si Si4 0.831924 0.088813 0.234567
Si Si5 0.754172 0.339642 0.891873
O O1 0.047385 0.566949 0.000000
O O2 0.932999 0.250000 0.250000
O O3 0.895826 0.387844 0.256015
O O4 0.000000 0.355353 0.198036
O O5 0.913032 0.324182 0.097532
O O6 0.500000 0.194372 0.000000
O O7 0.799403 0.125434 0.321976
O O8 0.803179 0.123859 0.143934
O O9 0.824712 0.000000 0.236303
O O10 0.750000 0.250000 0.879408
O O11 0.765159 0.355483 0.000000
#
# Coordination Sequence:
#
# PCOD9513135 Si02
#       5
#     4  32  16  32  32
#     4   8  16  32  52  88 120 134 182 244 292 340
#     4  10  21  38  58  85 119 155 196 237 286 345
#     4   8  18  32  56  80 114 145 180 242 287 327
#     4  11  23  36  58  88 119 150 190 238 290 353
#     4  10  21  40  63  84 113 151 193 241 286 340
#
# _framework density 18.698941999999999
#
# number of rings (size 3 to 8) (size 9 to 14) (size 15 to 20)
#    0.414    1.655    0.000    4.966    3.862    2.759 
#    2.483    0.000    0.000    0.000    0.000    1.931 
#    0.000    0.000    0.000    0.000    0.000    0.000 
#
# Total GULP energy -161463.203546 kJ/mol
# GULP energy per Si atom -5567.696674 kJ/mol
# Density = 1.865638 g / cm^3
# Si number density = 18.698942 Si / 1000 Ang^3
#
#
#
# Elastic Constant Matrix: (Units=GPa)
#
#
# Indices 1 2 3 4 5 6 
#
# 1 69.0826 27.7110 12.2654 0.0000 0.0000 0.0000
# 2 27.7110 115.8001 46.3745 0.0000 0.0000 0.0000
# 3 12.2654 46.3745 75.9763 0.0000 0.0000 0.0000
# 4 0.0000 0.0000 0.0000 3031.4043 0.0000 0.0000
# 5 0.0000 0.0000 0.0000 0.0000 17.8184 0.0000
# 6 0.0000 0.0000 0.0000 0.0000 0.0000 6.6062
#
#
#
# Elastic Compliance Matrix: (Units=1/GPa)
#
#
# Indices 1 2 3 4 5 6 
#
# 1 0.016019 -0.003703 -0.000326 0.000000 0.000000 0.000000
# 2 -0.003703 0.012285 -0.006901 0.000000 0.000000 0.000000
# 3 -0.000326 -0.006901 0.017427 0.000000 0.000000 0.000000
# 4 0.000000 0.000000 0.000000 0.000330 0.000000 0.000000
# 5 0.000000 0.000000 0.000000 0.000000 0.056122 0.000000
# 6 0.000000 0.000000 0.000000 0.000000 0.000000 0.151374
#
#
# Mechanical properties :
#
#
# Convention : Reuss Voigt Hill
#
# Bulk Modulus (GPa) = 41.89100 48.17343 45.03222
# Shear Modulus (GPa) = 17.64464 622.79966 320.22215
#
# Velocity S-wave (km/s) = 3.07517 18.26992 13.10051
# Velocity P-wave (km/s) = 5.92118 21.69958 15.90491
#
# Compressibility (1/GPa) = 0.02387147
#
# Stress axis : x y z
#
# Youngs Moduli (GPa) = 62.42763 81.39836 57.38284
#
# Poissons Ratio (x) = 0.30140 0.01870
# Poissons Ratio (y) = 0.23115 0.39600
# Poissons Ratio (z) = 0.02035 0.56173
#
# Static dielectric constant tensor:
#      x y z
#    x 1.722940 0.000000 0.000000 
#    y 0.000000 1.593790 0.000000 
#    z 0.000000 0.000000 1.708370 
# 
# From -- ./inp_files/18588.got.cif
#   From: 2010.05.17/outbox.cif.g08.bks.cpg/sg69_10_cif.got.tgz:18588.got - 2010.06.03 19:29:58.
