data_PCOD9513946
_publ_section_title
;
Structure prediction by ZEFSAII (Michael W. Deem and Ramdas Pophale) SiO2 
 PCOD9513946
Probable space group: F M M M
;
_chemical_formula_sum "Si O2"
_cell_formula_units_Z 192
_cell_length_a 30.808537
_cell_length_b 13.286149
_cell_length_c 24.713340
_cell_angle_alpha 90.000000
_cell_angle_beta 90.000000
_cell_angle_gamma 90.000000
_cell_volume 10115.832702
_symmetry_space_group_name_H-M "F M M M"
_symmetry_group_IT_number 69
_symmetry_cell_setting 'orthorhombic'
loop_
_space_group_symop_operation_xyz
x,y,z
-x,-y,z
x,-y,-z
-x,y,-z
-x,-y,-z
x,y,-z
-x,y,z
x,-y,z
x,1/2+y,1/2+z
-x,1/2-y,1/2+z
x,1/2-y,1/2-z
-x,1/2+y,1/2-z
-x,1/2-y,1/2-z
x,1/2+y,1/2-z
-x,1/2+y,1/2+z
x,1/2-y,1/2+z
1/2+x,y,1/2+z
1/2-x,-y,1/2+z
1/2+x,-y,1/2-z
1/2-x,y,1/2-z
1/2-x,-y,1/2-z
1/2+x,y,1/2-z
1/2-x,y,1/2+z
1/2+x,-y,1/2+z
1/2+x,1/2+y,z
1/2-x,1/2-y,z
1/2+x,1/2-y,-z
1/2-x,1/2+y,-z
1/2-x,1/2-y,-z
1/2+x,1/2+y,-z
1/2-x,1/2+y,z
1/2+x,1/2-y,z
loop_
_atom_site_type_symbol
_atom_site_label
_atom_site_fract_x
_atom_site_fract_y
_atom_site_fract_z
Si Si1 0.000000 0.213331 0.560380
Si Si2 0.905317 0.621590 0.169973
Si Si3 0.095656 0.758463 0.438504
Si Si4 0.677746 0.620762 0.060980
Si Si5 0.183563 0.122379 0.722328
Si Si6 0.771535 0.877616 0.166201
Si Si7 0.500000 0.882799 0.173738
O O1 0.954973 0.273752 0.565448
O O2 0.000000 0.167902 0.500000
O O3 0.000000 0.132393 0.608460
O O4 0.906621 0.500000 0.169566
O O5 0.898419 0.660874 0.108943
O O6 0.864039 0.655324 0.204599
O O7 0.952760 0.658615 0.190434
O O8 0.101691 0.797816 0.500000
O O9 0.130818 0.671343 0.430795
O O10 0.673680 0.500000 0.063749
O O11 0.709715 0.654668 0.108655
O O12 0.692648 0.646762 0.000000
O O13 0.198063 0.150504 0.782837
O O14 0.222501 0.152068 0.681611
O O15 0.182916 0.000000 0.721454
O O16 0.771384 0.000000 0.165274
O O17 0.500000 0.000000 0.188047
#
# Coordination Sequence:
#
# PCOD9513946 Si02
#       7
#    16  32  32  32  32  32  16
#     4   8  14  25  41  59  83 116 148 182 222 257
#     4   9  16  27  44  66  92 120 147 176 216 264
#     4   9  17  29  44  64  90 118 150 186 221 261
#     4   9  17  30  48  67  87 114 147 183 225 268
#     4   8  14  26  46  69  91 117 149 184 219 258
#     4   8  14  27  47  68  89 116 151 187 221 258
#     4   8  14  23  38  62  88 115 146 176 210 260
#
# _framework density 18.980148
#
# number of rings (size 3 to 8) (size 9 to 14) (size 15 to 20)
#    0.000    3.500    0.000    1.000    0.000    0.500 
#    0.000    6.250    0.000   10.500    0.000    7.000 
#    0.000    0.000    0.000    0.000    0.000    0.000 
#
# Total GULP energy -267281.506871 kJ/mol
# GULP energy per Si atom -5568.364726 kJ/mol
# Density = 1.893695 g / cm^3
# Si number density = 18.980148 Si / 1000 Ang^3
#
#
#
# Elastic Constant Matrix: (Units=GPa)
#
#
# Indices 1 2 3 4 5 6 
#
# 1 169.6757 28.2705 86.0878 0.0000 0.0000 0.0000
# 2 28.2705 35.2158 27.7668 0.0000 0.0000 0.0000
# 3 86.0878 27.7668 97.6230 0.0000 0.0000 0.0000
# 4 0.0000 0.0000 0.0000 21.5602 0.0000 0.0000
# 5 0.0000 0.0000 0.0000 0.0000 30.3581 0.0000
# 6 0.0000 0.0000 0.0000 0.0000 0.0000 22.6818
#
#
#
# Elastic Compliance Matrix: (Units=1/GPa)
#
#
# Indices 1 2 3 4 5 6 
#
# 1 0.010725 -0.001486 -0.009036 0.000000 0.000000 0.000000
# 2 -0.001486 0.036812 -0.009160 0.000000 0.000000 0.000000
# 3 -0.009036 -0.009160 0.020817 0.000000 0.000000 0.000000
# 4 0.000000 0.000000 0.000000 0.046382 0.000000 0.000000
# 5 0.000000 0.000000 0.000000 0.000000 0.032940 0.000000
# 6 0.000000 0.000000 0.000000 0.000000 0.000000 0.044088
#
#
# Mechanical properties :
#
#
# Convention : Reuss Voigt Hill
#
# Bulk Modulus (GPa) = 34.49337 65.19607 49.84472
# Shear Modulus (GPa) = 20.76496 25.61266 23.18881
#
# Velocity S-wave (km/s) = 3.31121 3.67746 3.49913
# Velocity P-wave (km/s) = 5.72989 7.24264 6.53022
#
# Compressibility (1/GPa) = 0.02899108
#
# Stress axis : x y z
#
# Youngs Moduli (GPa) = 93.23587 27.16533 48.03839
#
# Poissons Ratio (x) = 0.04037 0.43405
# Poissons Ratio (y) = 0.13854 0.44003
# Poissons Ratio (z) = 0.84243 0.24883
#
# Static dielectric constant tensor:
#      x y z
#    x 1.687470 0.000000 0.000000 
#    y 0.000000 1.675200 0.000000 
#    z 0.000000 0.000000 1.653100 
# 
# From -- ./inp_files/19814.got.cif
#   From: 2010.05.17/outbox.cif.g08.bks.cpg/sg69_10_cif.got.tgz:19814.got - 2010.06.03 19:29:58.
