data_PCOD9513079
_publ_section_title
;
Structure prediction by ZEFSAII (Michael W. Deem and Ramdas Pophale) SiO2 
 PCOD9513079
Probable space group: F M M M
;
_chemical_formula_sum "Si O2"
_cell_formula_units_Z 136
_cell_length_a 14.131731
_cell_length_b 22.157968
_cell_length_c 17.969432
_cell_angle_alpha 90.000000
_cell_angle_beta 90.000000
_cell_angle_gamma 90.000000
_cell_volume 5626.776208
_symmetry_space_group_name_H-M "F M M M"
_symmetry_group_IT_number 69
_symmetry_cell_setting 'orthorhombic'
loop_
_space_group_symop_operation_xyz
x,y,z
-x,-y,z
x,-y,-z
-x,y,-z
-x,-y,-z
x,y,-z
-x,y,z
x,-y,z
x,1/2+y,1/2+z
-x,1/2-y,1/2+z
x,1/2-y,1/2-z
-x,1/2+y,1/2-z
-x,1/2-y,1/2-z
x,1/2+y,1/2-z
-x,1/2+y,1/2+z
x,1/2-y,1/2+z
1/2+x,y,1/2+z
1/2-x,-y,1/2+z
1/2+x,-y,1/2-z
1/2-x,y,1/2-z
1/2-x,-y,1/2-z
1/2+x,y,1/2-z
1/2-x,y,1/2+z
1/2+x,-y,1/2+z
1/2+x,1/2+y,z
1/2-x,1/2-y,z
1/2+x,1/2-y,-z
1/2-x,1/2+y,-z
1/2-x,1/2-y,-z
1/2+x,1/2+y,-z
1/2-x,1/2+y,z
1/2+x,1/2-y,z
loop_
_atom_site_type_symbol
_atom_site_label
_atom_site_fract_x
_atom_site_fract_y
_atom_site_fract_z
Si Si1 0.385457 0.434166 0.796142
Si Si2 0.640364 0.267454 0.333537
Si Si3 0.108006 0.652836 0.419354
Si Si4 0.886620 0.408254 0.130887
Si Si5 0.832724 0.500000 0.000000
O O1 0.500000 0.425875 0.789405
O O2 0.368611 0.500000 0.828887
O O3 0.346979 0.383596 0.851333
O O4 0.352131 0.430711 0.711788
O O5 0.604136 0.250000 0.250000
O O6 0.750000 0.250000 0.331156
O O7 0.601761 0.221657 0.394834
O O8 0.624531 0.335702 0.360100
O O9 0.153723 0.645569 0.500000
O O10 0.000000 0.629835 0.425063
O O11 0.000000 0.420158 0.122594
O O12 0.839617 0.446524 0.065400
#
# Coordination Sequence:
#
# PCOD9513079 Si02
#       5
#    32  32  32  32   8
#     4   9  17  32  57  86 119 159 197 250 320 377
#     4  11  24  41  63  89 125 172 215 260 320 384
#     4  10  21  37  59  89 121 158 213 266 314 375
#     4  11  21  37  63  95 130 163 206 265 325 389
#     4  12  25  40  66 106 132 160 215 272 335 392
#
# _framework density 24.170145000000002
#
# number of rings (size 3 to 8) (size 9 to 14) (size 15 to 20)
#    0.000    1.647    3.529    1.765    1.647    1.882 
#    0.000    2.353    2.588    2.824    0.000    0.000 
#    0.000    0.000    0.000    0.000    0.000    0.000 
#
# Total GULP energy -189517.247888 kJ/mol
# GULP energy per Si atom -5574.036703 kJ/mol
# Density = 2.411513 g / cm^3
# Si number density = 24.170145 Si / 1000 Ang^3
#
#
#
# Elastic Constant Matrix: (Units=GPa)
#
#
# Indices 1 2 3 4 5 6 
#
# 1 71.7620 -8.6729 10.6419 0.0000 0.0000 0.0000
# 2 -8.6729 188.3624 94.7360 0.0000 0.0000 0.0000
# 3 10.6419 94.7360 211.8336 0.0000 0.0000 0.0000
# 4 0.0000 0.0000 0.0000 43.5327 0.0000 0.0000
# 5 0.0000 0.0000 0.0000 0.0000 7.4118 0.0000
# 6 0.0000 0.0000 0.0000 0.0000 0.0000 6.3031
#
#
#
# Elastic Compliance Matrix: (Units=1/GPa)
#
#
# Indices 1 2 3 4 5 6 
#
# 1 0.014287 0.001315 -0.001306 0.000000 0.000000 0.000000
# 2 0.001315 0.006971 -0.003183 0.000000 0.000000 0.000000
# 3 -0.001306 -0.003183 0.006210 0.000000 0.000000 0.000000
# 4 0.000000 0.000000 0.000000 0.022971 0.000000 0.000000
# 5 0.000000 0.000000 0.000000 0.000000 0.134920 0.000000
# 6 0.000000 0.000000 0.000000 0.000000 0.000000 0.158653
#
#
# Mechanical properties :
#
#
# Convention : Reuss Voigt Hill
#
# Bulk Modulus (GPa) = 47.35101 73.92977 60.64039
# Shear Modulus (GPa) = 13.98989 36.46638 25.22813
#
# Velocity S-wave (km/s) = 2.40845 3.88846 3.23425
# Velocity P-wave (km/s) = 5.23139 7.12838 6.25225
#
# Compressibility (1/GPa) = 0.02111887
#
# Stress axis : x y z
#
# Youngs Moduli (GPa) = 69.99159 143.46170 161.03204
#
# Poissons Ratio (x) = -0.18858 0.21025
# Poissons Ratio (y) = -0.09200 0.51263
# Poissons Ratio (z) = 0.09138 0.45669
#
# Static dielectric constant tensor:
#      x y z
#    x 2.122670 0.000000 0.000000 
#    y 0.000000 1.916080 0.000000 
#    z 0.000000 0.000000 1.916520 
# 
# From -- ./inp_files/22566.got.cif
#   From: 2010.05.17/outbox.cif.g08.bks.cpg/sg69_12_cif.got.tgz:22566.got - 2010.06.03 19:29:58.
