data_PCOD9513289
_publ_section_title
;
Structure prediction by ZEFSAII (Michael W. Deem and Ramdas Pophale) SiO2 
 PCOD9513289
Probable space group: F M M M
;
_chemical_formula_sum "Si O2"
_cell_formula_units_Z 96
_cell_length_a 15.154838
_cell_length_b 14.148454
_cell_length_c 18.698491
_cell_angle_alpha 90.000000
_cell_angle_beta 90.000000
_cell_angle_gamma 90.000000
_cell_volume 4009.284224
_symmetry_space_group_name_H-M "F M M M"
_symmetry_group_IT_number 69
_symmetry_cell_setting 'orthorhombic'
loop_
_space_group_symop_operation_xyz
x,y,z
-x,-y,z
x,-y,-z
-x,y,-z
-x,-y,-z
x,y,-z
-x,y,z
x,-y,z
x,1/2+y,1/2+z
-x,1/2-y,1/2+z
x,1/2-y,1/2-z
-x,1/2+y,1/2-z
-x,1/2-y,1/2-z
x,1/2+y,1/2-z
-x,1/2+y,1/2+z
x,1/2-y,1/2+z
1/2+x,y,1/2+z
1/2-x,-y,1/2+z
1/2+x,-y,1/2-z
1/2-x,y,1/2-z
1/2-x,-y,1/2-z
1/2+x,y,1/2-z
1/2-x,y,1/2+z
1/2+x,-y,1/2+z
1/2+x,1/2+y,z
1/2-x,1/2-y,z
1/2+x,1/2-y,-z
1/2-x,1/2+y,-z
1/2-x,1/2-y,-z
1/2+x,1/2+y,-z
1/2-x,1/2+y,z
1/2+x,1/2-y,z
loop_
_atom_site_type_symbol
_atom_site_label
_atom_site_fract_x
_atom_site_fract_y
_atom_site_fract_z
Si Si1 0.810303 0.386190 0.415875
Si Si2 0.000000 0.809366 0.916518
Si Si3 0.177225 0.653646 0.796524
Si Si4 0.500000 0.899486 0.860525
O O1 0.803348 0.362263 0.500000
O O2 0.808495 0.500000 0.409776
O O3 0.906332 0.349451 0.388262
O O4 0.727361 0.344094 0.372849
O O5 0.000000 0.696533 0.906258
O O6 0.000000 0.835423 0.000000
O O7 0.163052 0.750000 0.750000
O O8 0.250000 0.600589 0.750000
O O9 0.085124 0.606917 0.810745
O O10 0.500000 0.000000 0.900044
#
# Coordination Sequence:
#
# PCOD9513289 Si02
#       4
#    32  16  32  16
#     4  10  22  43  73 107 141 180 226 277 338 408
#     4  10  21  40  68 102 140 179 225 283 339 399
#     4  11  24  45  70  98 136 176 223 281 341 407
#     4  12  27  45  65  93 133 182 234 286 341 404
#
# _framework density 23.944424000000001
#
# number of rings (size 3 to 8) (size 9 to 14) (size 15 to 20)
#    0.000    1.333    0.000    6.000    0.000    7.667 
#    0.000    7.500    0.000    0.000    0.000    0.000 
#    0.000    1.333    0.000    0.000    0.000    0.000 
#
# Total GULP energy -134055.705193 kJ/mol
# GULP energy per Si atom -5585.654383 kJ/mol
# Density = 2.388993 g / cm^3
# Si number density = 23.944424 Si / 1000 Ang^3
#
#
#
# Elastic Constant Matrix: (Units=GPa)
#
#
# Indices 1 2 3 4 5 6 
#
# 1 231.0191 47.2550 56.6746 0.0000 0.0000 0.0000
# 2 47.2550 149.3501 22.4906 0.0000 0.0000 0.0000
# 3 56.6746 22.4906 100.7849 0.0000 0.0000 0.0000
# 4 0.0000 0.0000 0.0000 22.9247 0.0000 0.0000
# 5 0.0000 0.0000 0.0000 0.0000 17.9121 0.0000
# 6 0.0000 0.0000 0.0000 0.0000 0.0000 -303.6482
#
#
#
# Elastic Compliance Matrix: (Units=1/GPa)
#
#
# Indices 1 2 3 4 5 6 
#
# 1 0.005240 -0.001256 -0.002666 0.000000 0.000000 0.000000
# 2 -0.001256 0.007230 -0.000907 0.000000 0.000000 0.000000
# 3 -0.002666 -0.000907 0.011624 0.000000 0.000000 0.000000
# 4 0.000000 0.000000 0.000000 0.043621 0.000000 0.000000
# 5 0.000000 0.000000 0.000000 0.000000 0.055828 0.000000
# 6 0.000000 0.000000 0.000000 0.000000 0.000000 -0.003293
#
#
# Mechanical properties :
#
#
# Convention : Reuss Voigt Hill
#
# Bulk Modulus (GPa) = 69.27826 81.55496 75.41661
# Shear Modulus (GPa) = 37.11418 -28.91336 4.10041
#
# Velocity S-wave (km/s) = 3.94129 -3.47871 1.31003
# Velocity P-wave (km/s) = 7.05035 4.24250 5.81835
#
# Compressibility (1/GPa) = 0.01443454
#
# Stress axis : x y z
#
# Youngs Moduli (GPa) = 190.85093 138.31706 86.03106
#
# Poissons Ratio (x) = 0.17378 0.22937
# Poissons Ratio (y) = 0.23978 0.07802
# Poissons Ratio (z) = 0.50882 0.12543
#
# Static dielectric constant tensor:
#      x y z
#    x 1.904530 0.000000 0.000000 
#    y 0.000000 1.945260 0.000000 
#    z 0.000000 0.000000 1.961300 
# 
# From -- ./inp_files/15925.got.cif
#   From: 2010.05.17/outbox.cif.g08.bks.cpg/sg69_8_cif.got.tgz:15925.got - 2010.06.03 19:29:58.
