data_PCOD9513733
_publ_section_title
;
Structure prediction by ZEFSAII (Michael W. Deem and Ramdas Pophale) SiO2 
 PCOD9513733
Probable space group: F M M M
;
_chemical_formula_sum "Si O2"
_cell_formula_units_Z 144
_cell_length_a 30.777570
_cell_length_b 16.295336
_cell_length_c 14.911258
_cell_angle_alpha 90.000000
_cell_angle_beta 90.000000
_cell_angle_gamma 90.000000
_cell_volume 7478.455816
_symmetry_space_group_name_H-M "F M M M"
_symmetry_group_IT_number 69
_symmetry_cell_setting 'orthorhombic'
loop_
_space_group_symop_operation_xyz
x,y,z
-x,-y,z
x,-y,-z
-x,y,-z
-x,-y,-z
x,y,-z
-x,y,z
x,-y,z
x,1/2+y,1/2+z
-x,1/2-y,1/2+z
x,1/2-y,1/2-z
-x,1/2+y,1/2-z
-x,1/2-y,1/2-z
x,1/2+y,1/2-z
-x,1/2+y,1/2+z
x,1/2-y,1/2+z
1/2+x,y,1/2+z
1/2-x,-y,1/2+z
1/2+x,-y,1/2-z
1/2-x,y,1/2-z
1/2-x,-y,1/2-z
1/2+x,y,1/2-z
1/2-x,y,1/2+z
1/2+x,-y,1/2+z
1/2+x,1/2+y,z
1/2-x,1/2-y,z
1/2+x,1/2-y,-z
1/2-x,1/2+y,-z
1/2-x,1/2-y,-z
1/2+x,1/2+y,-z
1/2-x,1/2+y,z
1/2+x,1/2-y,z
loop_
_atom_site_type_symbol
_atom_site_label
_atom_site_fract_x
_atom_site_fract_y
_atom_site_fract_z
Si Si1 0.146298 0.250000 0.750000
Si Si2 0.500000 0.086427 0.843579
Si Si3 0.000000 0.768988 0.897889
Si Si4 0.211604 0.683261 0.600048
Si Si5 0.876799 0.000000 0.106317
Si Si6 0.573304 0.136212 0.289647
Si Si7 0.720835 0.500000 0.839086
O O1 0.176700 0.285293 0.671851
O O2 0.112221 0.176839 0.732734
O O3 0.500000 0.170808 0.897253
O O4 0.458488 0.090559 0.778025
O O5 0.500000 0.000000 0.892979
O O6 0.042067 0.800647 0.843140
O O7 0.000000 0.800096 0.000000
O O8 0.192516 0.683763 0.500000
O O9 0.250000 0.750000 0.604027
O O10 0.228800 0.590280 0.617160
O O11 0.904636 0.077985 0.136895
O O12 0.831831 0.000000 0.162371
O O13 0.867296 0.000000 0.000000
O O14 0.750000 0.500000 0.750000
#
# Coordination Sequence:
#
# PCOD9513733 Si02
#       7
#    16  16  16  32  16  32  16
#     4  12  21  39  66  90 126 166 210 259 327 370
#     4  11  21  40  58  86 124 166 209 244 312 383
#     4  11  23  39  59  87 125 168 211 261 316 376
#     4  11  25  43  65  96 130 169 217 268 323 393
#     4  12  24  39  66 102 124 154 210 272 320 380
#     4  11  22  39  62  90 126 162 202 259 323 382
#     4  12  24  40  63  93 130 169 210 259 333 383
#
# _framework density 19.255313000000001
#
# number of rings (size 3 to 8) (size 9 to 14) (size 15 to 20)
#    0.000    0.667    5.556    4.000    0.000    1.111 
#    0.000    1.667    0.000    0.000    0.000    0.000 
#    0.000    0.000    0.000    0.000    0.000    0.000 
#
# Total GULP energy -200715.803987 kJ/mol
# GULP energy per Si atom -5575.439000 kJ/mol
# Density = 1.921149 g / cm^3
# Si number density = 19.255313 Si / 1000 Ang^3
#
#
#
# Elastic Constant Matrix: (Units=GPa)
#
#
# Indices 1 2 3 4 5 6 
#
# 1 98.7034 42.2772 49.0992 0.0000 0.0000 0.0000
# 2 42.2772 154.7101 39.0948 0.0000 0.0000 0.0000
# 3 49.0992 39.0948 107.4781 0.0000 0.0000 0.0000
# 4 0.0000 0.0000 0.0000 27.9873 0.0000 0.0000
# 5 0.0000 0.0000 0.0000 0.0000 -13.5839 0.0000
# 6 0.0000 0.0000 0.0000 0.0000 0.0000 -79.9564
#
#
#
# Elastic Compliance Matrix: (Units=1/GPa)
#
#
# Indices 1 2 3 4 5 6 
#
# 1 0.013883 -0.002413 -0.005465 0.000000 0.000000 0.000000
# 2 -0.002413 0.007537 -0.001639 0.000000 0.000000 0.000000
# 3 -0.005465 -0.001639 0.012397 0.000000 0.000000 0.000000
# 4 0.000000 0.000000 0.000000 0.035731 0.000000 0.000000
# 5 0.000000 0.000000 0.000000 0.000000 -0.073617 0.000000
# 6 0.000000 0.000000 0.000000 0.000000 0.000000 -0.012507
#
#
# Mechanical properties :
#
#
# Convention : Reuss Voigt Hill
#
# Bulk Modulus (GPa) = 67.64209 69.09265 68.36737
# Shear Modulus (GPa) = 676.93406 2.25075 339.59240
#
# Velocity S-wave (km/s) = 18.77020 1.08233 13.29458
# Velocity P-wave (km/s) = 22.47144 6.12554 16.46948
#
# Compressibility (1/GPa) = 0.01478369
#
# Stress axis : x y z
#
# Youngs Moduli (GPa) = 72.02951 132.67268 80.66522
#
# Poissons Ratio (x) = 0.32013 0.44080
# Poissons Ratio (y) = 0.17380 0.13224
# Poissons Ratio (z) = 0.39361 0.21750
#
# Static dielectric constant tensor:
#      x y z
#    x 1.652660 0.000000 0.000000 
#    y 0.000000 1.727710 0.000000 
#    z 0.000000 0.000000 1.649410 
# 
# From -- ./inp_files/19546.got.cif
#   From: 2010.05.17/outbox.cif.g08.bks.cpg/sg69_10_cif.got.tgz:19546.got - 2010.06.03 19:29:58.
