data_PCOD9513158
_publ_section_title
;
Structure prediction by ZEFSAII (Michael W. Deem and Ramdas Pophale) SiO2 
 PCOD9513158
Probable space group: F M M M
;
_chemical_formula_sum "Si O2"
_cell_formula_units_Z 152
_cell_length_a 15.465136
_cell_length_b 22.057817
_cell_length_c 23.686682
_cell_angle_alpha 90.000000
_cell_angle_beta 90.000000
_cell_angle_gamma 90.000000
_cell_volume 8080.170081
_symmetry_space_group_name_H-M "F M M M"
_symmetry_group_IT_number 69
_symmetry_cell_setting 'orthorhombic'
loop_
_space_group_symop_operation_xyz
x,y,z
-x,-y,z
x,-y,-z
-x,y,-z
-x,-y,-z
x,y,-z
-x,y,z
x,-y,z
x,1/2+y,1/2+z
-x,1/2-y,1/2+z
x,1/2-y,1/2-z
-x,1/2+y,1/2-z
-x,1/2-y,1/2-z
x,1/2+y,1/2-z
-x,1/2+y,1/2+z
x,1/2-y,1/2+z
1/2+x,y,1/2+z
1/2-x,-y,1/2+z
1/2+x,-y,1/2-z
1/2-x,y,1/2-z
1/2-x,-y,1/2-z
1/2+x,y,1/2-z
1/2-x,y,1/2+z
1/2+x,-y,1/2+z
1/2+x,1/2+y,z
1/2-x,1/2-y,z
1/2+x,1/2-y,-z
1/2-x,1/2+y,-z
1/2-x,1/2-y,-z
1/2+x,1/2+y,-z
1/2-x,1/2+y,z
1/2+x,1/2-y,z
loop_
_atom_site_type_symbol
_atom_site_label
_atom_site_fract_x
_atom_site_fract_y
_atom_site_fract_z
Si Si1 0.190321 0.692770 0.332073
Si Si2 0.896601 0.000000 0.566884
Si Si3 0.401454 0.105269 0.752360
Si Si4 0.348959 0.876487 0.875804
Si Si5 0.750000 0.000000 0.250000
Si Si6 0.102074 0.243564 0.562704
O O1 0.250000 0.750000 0.313561
O O2 0.130694 0.662714 0.284683
O O3 0.253796 0.640751 0.354943
O O4 0.140288 0.717016 0.386798
O O5 0.856721 0.941307 0.595893
O O6 0.882047 0.000000 0.500000
O O7 0.000000 0.000000 0.576653
O O8 0.500000 0.087399 0.736050
O O9 0.402956 0.124136 0.818106
O O10 0.327733 0.053208 0.747916
O O11 0.379057 0.825627 0.919745
O O12 0.137480 0.256674 0.500000
O O13 0.000000 0.252471 0.561171
#
# Coordination Sequence:
#
# PCOD9513158 Si02
#       6
#    32  16  32  32   8  32
#     4  10  23  40  62  89 129 163 206 261 305 375
#     4  11  23  38  57  84 118 157 203 250 304 368
#     4  12  24  42  67  92 128 169 210 261 321 380
#     4  11  22  38  59  88 123 159 206 258 309 373
#     4  12  24  44  62  90 124 156 210 260 314 376
#     4  10  21  38  60  88 122 163 212 257 308 375
#
# _framework density 18.811485999999999
#
# number of rings (size 3 to 8) (size 9 to 14) (size 15 to 20)
#    0.000    1.158    2.105    4.105    0.000   12.211 
#    0.000    5.263    0.000    0.000    0.000    0.000 
#    0.000    6.737    0.000    0.000    0.000    0.000 
#
# Total GULP energy -211693.016233 kJ/mol
# GULP energy per Si atom -5570.868848 kJ/mol
# Density = 1.876867 g / cm^3
# Si number density = 18.811486 Si / 1000 Ang^3
#
#
#
# Elastic Constant Matrix: (Units=GPa)
#
#
# Indices 1 2 3 4 5 6 
#
# 1 119.6384 35.5805 28.0710 0.0000 0.0000 0.0000
# 2 35.5805 100.9153 52.6261 0.0000 0.0000 0.0000
# 3 28.0710 52.6261 110.5421 0.0000 0.0000 0.0000
# 4 0.0000 0.0000 0.0000 18.5055 0.0000 0.0000
# 5 0.0000 0.0000 0.0000 0.0000 34.5770 0.0000
# 6 0.0000 0.0000 0.0000 0.0000 0.0000 -0.8550
#
#
#
# Elastic Compliance Matrix: (Units=1/GPa)
#
#
# Indices 1 2 3 4 5 6 
#
# 1 0.009434 -0.002763 -0.001080 0.000000 0.000000 0.000000
# 2 -0.002763 0.013991 -0.005959 0.000000 0.000000 0.000000
# 3 -0.001080 -0.005959 0.012158 0.000000 0.000000 0.000000
# 4 0.000000 0.000000 0.000000 0.054038 0.000000 0.000000
# 5 0.000000 0.000000 0.000000 0.000000 0.028921 0.000000
# 6 0.000000 0.000000 0.000000 0.000000 0.000000 -1.169584
#
#
# Mechanical properties :
#
#
# Convention : Reuss Voigt Hill
#
# Bulk Modulus (GPa) = 62.58652 62.62790 62.60721
# Shear Modulus (GPa) = -4.87276 24.76671 9.94697
#
# Velocity S-wave (km/s) = -1.61119 3.63240 2.30200
# Velocity P-wave (km/s) = 5.46638 7.13842 6.35761
#
# Compressibility (1/GPa) = 0.01597788
#
# Stress axis : x y z
#
# Youngs Moduli (GPa) = 106.00374 71.47441 82.25258
#
# Poissons Ratio (x) = 0.19746 0.08886
# Poissons Ratio (y) = 0.29286 0.49016
# Poissons Ratio (z) = 0.11452 0.42593
#
# Static dielectric constant tensor:
#      x y z
#    x 1.684170 0.000000 0.000000 
#    y 0.000000 1.662560 0.000000 
#    z 0.000000 0.000000 1.674610 
# 
# From -- ./inp_files/35841.got.cif
#   From: 2010.05.17/outbox.cif.g08.bks.cpg/sg69_18_cif.got.tgz:35841.got - 2010.06.03 19:29:58.
