data_PCOD9513636
_publ_section_title
;
Structure prediction by ZEFSAII (Michael W. Deem and Ramdas Pophale) SiO2 
 PCOD9513636
Probable space group: F M M M
;
_chemical_formula_sum "Si O2"
_cell_formula_units_Z 160
_cell_length_a 13.192057
_cell_length_b 25.963086
_cell_length_c 25.613719
_cell_angle_alpha 90.000000
_cell_angle_beta 90.000000
_cell_angle_gamma 90.000000
_cell_volume 8772.865513
_symmetry_space_group_name_H-M "F M M M"
_symmetry_group_IT_number 69
_symmetry_cell_setting 'orthorhombic'
loop_
_space_group_symop_operation_xyz
x,y,z
-x,-y,z
x,-y,-z
-x,y,-z
-x,-y,-z
x,y,-z
-x,y,z
x,-y,z
x,1/2+y,1/2+z
-x,1/2-y,1/2+z
x,1/2-y,1/2-z
-x,1/2+y,1/2-z
-x,1/2-y,1/2-z
x,1/2+y,1/2-z
-x,1/2+y,1/2+z
x,1/2-y,1/2+z
1/2+x,y,1/2+z
1/2-x,-y,1/2+z
1/2+x,-y,1/2-z
1/2-x,y,1/2-z
1/2-x,-y,1/2-z
1/2+x,y,1/2-z
1/2-x,y,1/2+z
1/2+x,-y,1/2+z
1/2+x,1/2+y,z
1/2-x,1/2-y,z
1/2+x,1/2-y,-z
1/2-x,1/2+y,-z
1/2-x,1/2-y,-z
1/2+x,1/2+y,-z
1/2-x,1/2+y,z
1/2+x,1/2-y,z
loop_
_atom_site_type_symbol
_atom_site_label
_atom_site_fract_x
_atom_site_fract_y
_atom_site_fract_z
Si Si1 0.699979 0.398493 0.199170
Si Si2 0.000000 0.223623 0.335652
Si Si3 0.119861 0.830508 0.940626
Si Si4 0.620370 0.555852 0.096243
Si Si5 0.500000 0.332042 0.223245
Si Si6 0.716721 0.301545 0.645916
O O1 0.750000 0.422975 0.250000
O O2 0.676673 0.435630 0.151104
O O3 0.597219 0.367518 0.212519
O O4 0.773593 0.353046 0.179141
O O5 0.000000 0.282849 0.315810
O O6 0.000000 0.191016 0.281525
O O7 0.899708 0.208637 0.367274
O O8 0.137214 0.892407 0.936784
O O9 0.202064 0.807048 0.900944
O O10 0.000000 0.821815 0.927304
O O11 0.135084 0.813157 0.000000
O O12 0.500000 0.555461 0.106680
O O13 0.647019 0.500000 0.073121
O O14 0.750000 0.250000 0.676948
#
# Coordination Sequence:
#
# PCOD9513636 Si02
#       6
#    32  16  32  32  16  32
#     4  11  20  32  49  73 107 144 179 212 255 303
#     4  11  22  32  49  76 110 143 190 217 245 297
#     4   9  20  38  57  77 103 134 171 220 278 327
#     4   9  18  32  53  78 102 131 169 217 272 323
#     4  11  20  32  47  72 108 147 180 217 247 293
#     4  11  22  32  51  76 105 141 179 218 257 303
#
# _framework density 18.238054999999999
#
# number of rings (size 3 to 8) (size 9 to 14) (size 15 to 20)
#    0.000    1.800    5.000    0.000    2.800    1.600 
#    0.000    2.500    0.000    0.000    0.000    6.300 
#    0.000    6.400    0.000    0.000    0.000    0.000 
#
# Total GULP energy -223046.058634 kJ/mol
# GULP energy per Si atom -5576.151466 kJ/mol
# Density = 1.819654 g / cm^3
# Si number density = 18.238055 Si / 1000 Ang^3
#
#
#
# Elastic Constant Matrix: (Units=GPa)
#
#
# Indices 1 2 3 4 5 6 
#
# 1 111.5971 13.9969 22.4602 0.0000 0.0000 0.0000
# 2 13.9969 54.0624 -3.1089 0.0000 0.0000 0.0000
# 3 22.4602 -3.1089 72.2852 0.0000 0.0000 0.0000
# 4 0.0000 0.0000 0.0000 5.1145 0.0000 0.0000
# 5 0.0000 0.0000 0.0000 0.0000 24.2432 0.0000
# 6 0.0000 0.0000 0.0000 0.0000 0.0000 16.3526
#
#
#
# Elastic Compliance Matrix: (Units=1/GPa)
#
#
# Indices 1 2 3 4 5 6 
#
# 1 0.009954 -0.002762 -0.003211 0.000000 0.000000 0.000000
# 2 -0.002762 0.019309 0.001689 0.000000 0.000000 0.000000
# 3 -0.003211 0.001689 0.014905 0.000000 0.000000 0.000000
# 4 0.000000 0.000000 0.000000 0.195524 0.000000 0.000000
# 5 0.000000 0.000000 0.000000 0.000000 0.041249 0.000000
# 6 0.000000 0.000000 0.000000 0.000000 0.000000 0.061152
#
#
# Mechanical properties :
#
#
# Convention : Reuss Voigt Hill
#
# Bulk Modulus (GPa) = 28.09135 33.84900 30.97017
# Shear Modulus (GPa) = 13.79205 22.78182 18.28693
#
# Velocity S-wave (km/s) = 2.75294 3.53815 3.16995
# Velocity P-wave (km/s) = 5.05380 5.94064 5.51507
#
# Compressibility (1/GPa) = 0.03559815
#
# Stress axis : x y z
#
# Youngs Moduli (GPa) = 100.46684 51.78866 67.09346
#
# Poissons Ratio (x) = 0.14302 0.21547
# Poissons Ratio (y) = 0.27746 -0.11329
# Poissons Ratio (z) = 0.32265 -0.08745
#
# Static dielectric constant tensor:
#      x y z
#    x 1.644750 0.000000 0.000000 
#    y 0.000000 1.638470 0.000000 
#    z 0.000000 0.000000 1.642310 
# 
# From -- ./inp_files/11506.got.cif
#   From: 2010.05.17/outbox.cif.g08.bks.cpg/sg69_6_cif.got.tgz:11506.got - 2010.06.03 19:29:58.
