data_PCOD9513602
_publ_section_title
;
Structure prediction by ZEFSAII (Michael W. Deem and Ramdas Pophale) SiO2 
 PCOD9513602
Probable space group: F M M M
;
_chemical_formula_sum "Si O2"
_cell_formula_units_Z 192
_cell_length_a 23.073020
_cell_length_b 24.346113
_cell_length_c 21.200618
_cell_angle_alpha 90.000000
_cell_angle_beta 90.000000
_cell_angle_gamma 90.000000
_cell_volume 11909.200220
_symmetry_space_group_name_H-M "F M M M"
_symmetry_group_IT_number 69
_symmetry_cell_setting 'orthorhombic'
loop_
_space_group_symop_operation_xyz
x,y,z
-x,-y,z
x,-y,-z
-x,y,-z
-x,-y,-z
x,y,-z
-x,y,z
x,-y,z
x,1/2+y,1/2+z
-x,1/2-y,1/2+z
x,1/2-y,1/2-z
-x,1/2+y,1/2-z
-x,1/2-y,1/2-z
x,1/2+y,1/2-z
-x,1/2+y,1/2+z
x,1/2-y,1/2+z
1/2+x,y,1/2+z
1/2-x,-y,1/2+z
1/2+x,-y,1/2-z
1/2-x,y,1/2-z
1/2-x,-y,1/2-z
1/2+x,y,1/2-z
1/2-x,y,1/2+z
1/2+x,-y,1/2+z
1/2+x,1/2+y,z
1/2-x,1/2-y,z
1/2+x,1/2-y,-z
1/2-x,1/2+y,-z
1/2-x,1/2-y,-z
1/2+x,1/2+y,-z
1/2-x,1/2+y,z
1/2+x,1/2-y,z
loop_
_atom_site_type_symbol
_atom_site_label
_atom_site_fract_x
_atom_site_fract_y
_atom_site_fract_z
Si Si1 0.433609 0.000000 0.101628
Si Si2 0.434549 0.195256 0.158833
Si Si3 0.066412 0.321313 0.689972
Si Si4 0.720647 0.565222 0.337138
Si Si5 0.656126 0.092474 0.289907
Si Si6 0.634447 0.611534 0.427575
Si Si7 0.433072 0.000000 0.746048
O O1 0.403601 0.055902 0.079101
O O2 0.500000 0.000000 0.081577
O O3 0.431671 0.000000 0.177960
O O4 0.500000 0.182746 0.137095
O O5 0.426624 0.260999 0.159788
O O6 0.432153 0.181086 0.233318
O O7 0.392020 0.159014 0.116790
O O8 0.123799 0.356705 0.677495
O O9 0.000000 0.340232 0.674075
O O10 0.706722 0.500000 0.332274
O O11 0.686695 0.595599 0.279469
O O12 0.789349 0.571381 0.329849
O O13 0.695992 0.592062 0.400009
O O14 0.602905 0.051366 0.278986
O O15 0.636291 0.628668 0.500000
O O16 0.500000 0.000000 0.726647
#
# Coordination Sequence:
#
# PCOD9513602 Si02
#       7
#    16  32  32  32  32  32  16
#     4  11  21  31  45  73 111 144 180 211 243 305
#     4   9  18  33  50  73 105 138 173 218 265 304
#     4   9  17  31  54  76 100 133 174 223 269 313
#     4  11  20  33  49  72 108 148 178 212 261 310
#     4  11  17  31  51  74 102 137 177 217 265 317
#     4  12  22  34  51  73 106 144 183 213 245 308
#     4  11  18  27  49  79 113 138 161 216 278 316
#
# _framework density 16.121988999999999
#
# number of rings (size 3 to 8) (size 9 to 14) (size 15 to 20)
#    0.000    1.500    5.833    2.750    0.000    4.333 
#    0.000    0.833    0.000    2.000    0.000    0.000 
#    0.000    2.667    0.000    0.000    0.000    0.167 
#
# Total GULP energy -267308.103680 kJ/mol
# GULP energy per Si atom -5568.918827 kJ/mol
# Density = 1.608529 g / cm^3
# Si number density = 16.121989 Si / 1000 Ang^3
#
#
#
# Elastic Constant Matrix: (Units=GPa)
#
#
# Indices 1 2 3 4 5 6 
#
# 1 121.2033 35.6914 31.3592 0.0000 0.0000 0.0000
# 2 35.6914 52.0533 26.3472 0.0000 0.0000 0.0000
# 3 31.3592 26.3472 61.4861 0.0000 0.0000 0.0000
# 4 0.0000 0.0000 0.0000 7.3288 0.0000 0.0000
# 5 0.0000 0.0000 0.0000 0.0000 9.6196 0.0000
# 6 0.0000 0.0000 0.0000 0.0000 0.0000 27.6358
#
#
#
# Elastic Compliance Matrix: (Units=1/GPa)
#
#
# Indices 1 2 3 4 5 6 
#
# 1 0.010746 -0.005866 -0.002967 0.000000 0.000000 0.000000
# 2 -0.005866 0.027734 -0.008892 0.000000 0.000000 0.000000
# 3 -0.002967 -0.008892 0.021587 0.000000 0.000000 0.000000
# 4 0.000000 0.000000 0.000000 0.136448 0.000000 0.000000
# 5 0.000000 0.000000 0.000000 0.000000 0.103954 0.000000
# 6 0.000000 0.000000 0.000000 0.000000 0.000000 0.036185
#
#
# Mechanical properties :
#
#
# Convention : Reuss Voigt Hill
#
# Bulk Modulus (GPa) = 40.62322 46.83758 43.73040
# Shear Modulus (GPa) = 13.14710 18.33982 15.74346
#
# Velocity S-wave (km/s) = 2.85875 3.37644 3.12832
# Velocity P-wave (km/s) = 6.01238 6.65699 6.34288
#
# Compressibility (1/GPa) = 0.02461646
#
# Stress axis : x y z
#
# Youngs Moduli (GPa) = 93.06055 36.05623 46.32327
#
# Poissons Ratio (x) = 0.21152 0.13743
# Poissons Ratio (y) = 0.54593 0.41193
# Poissons Ratio (z) = 0.27609 0.32063
#
# Static dielectric constant tensor:
#      x y z
#    x 1.560410 0.000000 0.000000 
#    y 0.000000 1.614280 0.000000 
#    z 0.000000 0.000000 1.535090 
# 
# From -- ./inp_files/32949.got.cif
#   From: 2010.05.17/outbox.cif.g08.bks.cpg/sg69_17_cif.got.tgz:32949.got - 2010.06.03 19:29:58.
