data_PCOD9513401
_publ_section_title
;
Structure prediction by ZEFSAII (Michael W. Deem and Ramdas Pophale) SiO2 
 PCOD9513401
Probable space group: F M M M
;
_chemical_formula_sum "Si O2"
_cell_formula_units_Z 88
_cell_length_a 34.048008
_cell_length_b 7.374194
_cell_length_c 15.507121
_cell_angle_alpha 90.000000
_cell_angle_beta 90.000000
_cell_angle_gamma 90.000000
_cell_volume 3893.475469
_symmetry_space_group_name_H-M "F M M M"
_symmetry_group_IT_number 69
_symmetry_cell_setting 'orthorhombic'
loop_
_space_group_symop_operation_xyz
x,y,z
-x,-y,z
x,-y,-z
-x,y,-z
-x,-y,-z
x,y,-z
-x,y,z
x,-y,z
x,1/2+y,1/2+z
-x,1/2-y,1/2+z
x,1/2-y,1/2-z
-x,1/2+y,1/2-z
-x,1/2-y,1/2-z
x,1/2+y,1/2-z
-x,1/2+y,1/2+z
x,1/2-y,1/2+z
1/2+x,y,1/2+z
1/2-x,-y,1/2+z
1/2+x,-y,1/2-z
1/2-x,y,1/2-z
1/2-x,-y,1/2-z
1/2+x,y,1/2-z
1/2-x,y,1/2+z
1/2+x,-y,1/2+z
1/2+x,1/2+y,z
1/2-x,1/2-y,z
1/2+x,1/2-y,-z
1/2-x,1/2+y,-z
1/2-x,1/2-y,-z
1/2+x,1/2+y,-z
1/2-x,1/2+y,z
1/2+x,1/2-y,z
loop_
_atom_site_type_symbol
_atom_site_label
_atom_site_fract_x
_atom_site_fract_y
_atom_site_fract_z
Si Si1 0.544005 0.000000 0.397682
Si Si2 0.608120 0.287893 0.650336
Si Si3 0.305653 0.779170 0.903394
Si Si4 0.250000 0.250000 0.250000
O O1 0.570124 0.172417 0.372589
O O2 0.500000 0.000000 0.360043
O O3 0.540741 0.000000 0.500000
O O4 0.601148 0.500000 0.635444
O O5 0.616672 0.250000 0.750000
O O6 0.648214 0.235480 0.602437
O O7 0.281889 0.692531 0.824004
O O8 0.301851 0.000000 0.892643
O O9 0.292391 0.730311 0.000000
#
# Coordination Sequence:
#
# PCOD9513401 Si02
#       4
#    16  32  32   8
#     4  11  26  46  70 105 139 171 225 285 342 416
#     4  11  22  43  70  98 135 182 230 279 339 405
#     4  10  22  39  60  91 132 177 225 279 339 402
#     4  12  20  36  64  92 130 170 234 282 334 402
#
# _framework density 22.601914000000001
#
# number of rings (size 3 to 8) (size 9 to 14) (size 15 to 20)
#    0.000    1.273    3.636    2.182    0.000    3.636 
#    3.273    1.818    0.000    0.000    0.000    0.000 
#    0.000    0.000    0.000    0.000    0.000    0.000 
#
# Total GULP energy -122741.174839 kJ/mol
# GULP energy per Si atom -5579.144311 kJ/mol
# Density = 2.255047 g / cm^3
# Si number density = 22.601914 Si / 1000 Ang^3
#
#
#
# Elastic Constant Matrix: (Units=GPa)
#
#
# Indices 1 2 3 4 5 6 
#
# 1 223.5863 69.8692 63.8593 0.0000 0.0000 0.0000
# 2 69.8692 120.4610 21.4144 0.0000 0.0000 0.0000
# 3 63.8593 21.4144 183.9147 0.0000 0.0000 0.0000
# 4 0.0000 0.0000 0.0000 -35.1982 0.0000 0.0000
# 5 0.0000 0.0000 0.0000 0.0000 46.0821 0.0000
# 6 0.0000 0.0000 0.0000 0.0000 0.0000 232.4042
#
#
#
# Elastic Compliance Matrix: (Units=1/GPa)
#
#
# Indices 1 2 3 4 5 6 
#
# 1 0.005939 -0.003143 -0.001696 0.000000 0.000000 0.000000
# 2 -0.003143 0.010140 -0.000089 0.000000 0.000000 0.000000
# 3 -0.001696 -0.000089 0.006037 0.000000 0.000000 0.000000
# 4 0.000000 0.000000 0.000000 -0.028411 0.000000 0.000000
# 5 0.000000 0.000000 0.000000 0.000000 0.021700 0.000000
# 6 0.000000 0.000000 0.000000 0.000000 0.000000 0.004303
#
#
# Mechanical properties :
#
#
# Convention : Reuss Voigt Hill
#
# Bulk Modulus (GPa) = 81.57469 93.13865 87.35667
# Shear Modulus (GPa) = 148.57428 73.51222 111.04325
#
# Velocity S-wave (km/s) = 8.11652 5.70924 7.01689
# Velocity P-wave (km/s) = 11.13587 9.20643 10.21680
#
# Compressibility (1/GPa) = 0.01225870
#
# Stress axis : x y z
#
# Youngs Moduli (GPa) = 168.37034 98.61454 165.65405
#
# Poissons Ratio (x) = 0.30998 0.28099
# Poissons Ratio (y) = 0.52924 0.01479
# Poissons Ratio (z) = 0.28560 0.00881
#
# Static dielectric constant tensor:
#      x y z
#    x 1.836250 0.000000 0.000000 
#    y 0.000000 1.908100 0.000000 
#    z 0.000000 0.000000 1.810640 
# 
# From -- ./inp_files/27164.got.cif
#   From: 2010.05.17/outbox.cif.g08.bks.cpg/sg69_14_cif.got.tgz:27164.got - 2010.06.03 19:29:58.
