data_PCOD9513768
_publ_section_title
;
Structure prediction by ZEFSAII (Michael W. Deem and Ramdas Pophale) SiO2 
 PCOD9513768
Probable space group: F M M M
;
_chemical_formula_sum "Si O2"
_cell_formula_units_Z 160
_cell_length_a 29.819320
_cell_length_b 8.547215
_cell_length_c 33.231066
_cell_angle_alpha 90.000000
_cell_angle_beta 90.000000
_cell_angle_gamma 90.000000
_cell_volume 8469.672879
_symmetry_space_group_name_H-M "F M M M"
_symmetry_group_IT_number 69
_symmetry_cell_setting 'orthorhombic'
loop_
_space_group_symop_operation_xyz
x,y,z
-x,-y,z
x,-y,-z
-x,y,-z
-x,-y,-z
x,y,-z
-x,y,z
x,-y,z
x,1/2+y,1/2+z
-x,1/2-y,1/2+z
x,1/2-y,1/2-z
-x,1/2+y,1/2-z
-x,1/2-y,1/2-z
x,1/2+y,1/2-z
-x,1/2+y,1/2+z
x,1/2-y,1/2+z
1/2+x,y,1/2+z
1/2-x,-y,1/2+z
1/2+x,-y,1/2-z
1/2-x,y,1/2-z
1/2-x,-y,1/2-z
1/2+x,y,1/2-z
1/2-x,y,1/2+z
1/2+x,-y,1/2+z
1/2+x,1/2+y,z
1/2-x,1/2-y,z
1/2+x,1/2-y,-z
1/2-x,1/2+y,-z
1/2-x,1/2-y,-z
1/2+x,1/2+y,-z
1/2-x,1/2+y,z
1/2+x,1/2-y,z
loop_
_atom_site_type_symbol
_atom_site_label
_atom_site_fract_x
_atom_site_fract_y
_atom_site_fract_z
Si Si1 0.200415 0.813283 0.295082
Si Si2 0.921078 0.679513 0.500000
Si Si3 0.203433 0.815895 0.585302
Si Si4 0.948261 0.686938 0.912361
Si Si5 0.186673 0.316927 0.500000
Si Si6 0.369466 0.317764 0.140592
O O1 0.193005 0.750000 0.250000
O O2 0.250000 0.750000 0.307435
O O3 0.158817 0.761404 0.323207
O O4 0.202962 0.000000 0.295004
O O5 0.936734 0.500000 0.500000
O O6 0.936291 0.755840 0.542278
O O7 0.867224 0.681651 0.500000
O O8 0.250000 0.750000 0.601699
O O9 0.202310 0.778941 0.538440
O O10 0.163826 0.713814 0.603504
O O11 0.197977 0.000000 0.593790
O O12 0.943444 0.500000 0.912455
O O13 0.916061 0.751947 0.877097
O O14 0.000000 0.728863 0.904641
O O15 0.201518 0.500000 0.500000
O O16 0.374328 0.500000 0.149522
#
# Coordination Sequence:
#
# PCOD9513768 Si02
#       6
#    32  16  32  32  16  32
#     4  11  22  40  65  96 130 164 200 240 288 348
#     4  11  22  37  60  85 115 154 201 253 306 361
#     4  12  24  38  56  79 111 153 196 242 292 349
#     4  11  24  41  62  88 118 155 201 253 307 361
#     4  11  22  37  54  78 110 150 194 243 292 350
#     4  12  24  40  61  88 120 155 197 245 296 353
#
# _framework density 18.890930000000001
#
# number of rings (size 3 to 8) (size 9 to 14) (size 15 to 20)
#    0.000    0.600    2.000    8.400    0.000    3.600 
#    0.000    0.000    0.000    0.600    0.000    0.000 
#    0.000    0.000    0.000    0.000    0.000    0.000 
#
# Total GULP energy -223502.577421 kJ/mol
# GULP energy per Si atom -5587.564436 kJ/mol
# Density = 1.884793 g / cm^3
# Si number density = 18.890930 Si / 1000 Ang^3
#
#
#
# Elastic Constant Matrix: (Units=GPa)
#
#
# Indices 1 2 3 4 5 6 
#
# 1 143.3502 60.9097 56.0033 0.0001 -0.0002 -0.0001
# 2 60.9097 120.4570 36.0293 0.0003 -0.0003 -0.0002
# 3 56.0033 36.0293 131.8223 0.0000 0.0000 0.0000
# 4 0.0001 0.0003 0.0000 30.4803 0.0000 -0.0001
# 5 -0.0002 -0.0003 0.0000 0.0000 23.7290 0.0001
# 6 -0.0001 -0.0002 0.0000 -0.0001 0.0001 29.0132
#
#
#
# Elastic Compliance Matrix: (Units=1/GPa)
#
#
# Indices 1 2 3 4 5 6 
#
# 1 0.009925 -0.004092 -0.003098 0.000000 0.000000 0.000000
# 2 -0.004092 0.010728 -0.001194 0.000000 0.000000 0.000000
# 3 -0.003098 -0.001194 0.009228 0.000000 0.000000 0.000000
# 4 0.000000 0.000000 0.000000 0.032808 0.000000 0.000000
# 5 0.000000 0.000000 0.000000 0.000000 0.042143 0.000000
# 6 0.000000 0.000000 0.000000 0.000000 0.000000 0.034467
#
#
# Mechanical properties :
#
#
# Convention : Reuss Voigt Hill
#
# Bulk Modulus (GPa) = 76.25584 77.94603 77.10093
# Shear Modulus (GPa) = 31.16476 32.82365 31.99420
#
# Velocity S-wave (km/s) = 4.06608 4.17290 4.11984
# Velocity P-wave (km/s) = 7.90557 8.03543 7.97076
#
# Compressibility (1/GPa) = 0.01311375
#
# Stress axis : x y z
#
# Youngs Moduli (GPa) = 100.75623 93.21521 108.36083
#
# Poissons Ratio (x) = 0.38143 0.33571
# Poissons Ratio (y) = 0.41229 0.12935
# Poissons Ratio (z) = 0.31215 0.11127
#
# Static dielectric constant tensor:
#      x y z
#    x 1.736270 0.000000 0.000000 
#    y 0.000000 1.647430 0.000000 
#    z 0.000000 0.000000 1.710180 
# 
# From -- ./inp_files/47516.got.cif
#   From: 2010.05.17/outbox.cif.g08.bks.cpg/sg69_24_cif.got.tgz:47516.got - 2010.06.03 19:29:58.
