data_PCOD9513159
_publ_section_title
;
Structure prediction by ZEFSAII (Michael W. Deem and Ramdas Pophale) SiO2 
 PCOD9513159
Probable space group: F M M M
;
_chemical_formula_sum "Si O2"
_cell_formula_units_Z 128
_cell_length_a 25.741816
_cell_length_b 16.066636
_cell_length_c 14.225793
_cell_angle_alpha 90.000000
_cell_angle_beta 90.000000
_cell_angle_gamma 90.000000
_cell_volume 5883.565887
_symmetry_space_group_name_H-M "F M M M"
_symmetry_group_IT_number 69
_symmetry_cell_setting 'orthorhombic'
loop_
_space_group_symop_operation_xyz
x,y,z
-x,-y,z
x,-y,-z
-x,y,-z
-x,-y,-z
x,y,-z
-x,y,z
x,-y,z
x,1/2+y,1/2+z
-x,1/2-y,1/2+z
x,1/2-y,1/2-z
-x,1/2+y,1/2-z
-x,1/2-y,1/2-z
x,1/2+y,1/2-z
-x,1/2+y,1/2+z
x,1/2-y,1/2+z
1/2+x,y,1/2+z
1/2-x,-y,1/2+z
1/2+x,-y,1/2-z
1/2-x,y,1/2-z
1/2-x,-y,1/2-z
1/2+x,y,1/2-z
1/2-x,y,1/2+z
1/2+x,-y,1/2+z
1/2+x,1/2+y,z
1/2-x,1/2-y,z
1/2+x,1/2-y,-z
1/2-x,1/2+y,-z
1/2-x,1/2-y,-z
1/2+x,1/2+y,-z
1/2-x,1/2+y,z
1/2+x,1/2-y,z
loop_
_atom_site_type_symbol
_atom_site_label
_atom_site_fract_x
_atom_site_fract_y
_atom_site_fract_z
Si Si1 0.869697 0.000000 0.893359
Si Si2 0.793416 0.813923 0.609072
Si Si3 0.751511 0.500000 0.860983
Si Si4 0.413033 0.302459 0.613498
Si Si5 0.442837 0.627292 0.199757
O O1 0.807790 0.000000 0.894702
O O2 0.894215 0.922847 0.839486
O O3 0.888772 0.000000 0.000000
O O4 0.797585 0.790886 0.500000
O O5 0.750000 0.750000 0.648274
O O6 0.777658 0.911537 0.613052
O O7 0.852096 0.801776 0.643052
O O8 0.750000 0.500000 0.750000
O O9 0.418184 0.315392 0.500000
O O10 0.438104 0.366848 0.687092
O O11 0.437833 0.215963 0.647487
O O12 0.500000 0.593742 0.176359
#
# Coordination Sequence:
#
# PCOD9513159 Si02
#       5
#    16  32  16  32  32
#     4  12  25  42  65  93 126 164 209 262 321 382
#     4  10  21  38  60  88 123 163 207 254 308 376
#     4  12  24  39  63  93 129 168 204 251 314 382
#     4  10  21  39  63  89 122 164 209 259 317 383
#     4  11  24  41  62  91 124 161 214 271 322 378
#
# _framework density 21.755514000000002
#
# number of rings (size 3 to 8) (size 9 to 14) (size 15 to 20)
#    0.000    1.250    0.000    6.750    0.000    8.500 
#    0.000    1.875    0.000    1.500    0.000    0.000 
#    0.000    0.000    0.000    0.000    0.000    0.000 
#
# Total GULP energy -178527.169069 kJ/mol
# GULP energy per Si atom -5578.974033 kJ/mol
# Density = 2.170600 g / cm^3
# Si number density = 21.755514 Si / 1000 Ang^3
#
#
#
# Elastic Constant Matrix: (Units=GPa)
#
#
# Indices 1 2 3 4 5 6 
#
# 1 145.0409 37.1929 12.6245 0.0000 0.0000 0.0000
# 2 37.1929 80.1209 5.6598 0.0000 0.0000 0.0000
# 3 12.6245 5.6598 138.0362 0.0000 0.0000 0.0000
# 4 0.0000 0.0000 0.0000 31.1955 0.0000 0.0000
# 5 0.0000 0.0000 0.0000 0.0000 35.9356 0.0000
# 6 0.0000 0.0000 0.0000 0.0000 0.0000 53.2574
#
#
#
# Elastic Compliance Matrix: (Units=1/GPa)
#
#
# Indices 1 2 3 4 5 6 
#
# 1 0.007871 -0.003613 -0.000572 0.000000 0.000000 0.000000
# 2 -0.003613 0.014176 -0.000251 0.000000 0.000000 0.000000
# 3 -0.000572 -0.000251 0.007307 0.000000 0.000000 0.000000
# 4 0.000000 0.000000 0.000000 0.032056 0.000000 0.000000
# 5 0.000000 0.000000 0.000000 0.000000 0.027828 0.000000
# 6 0.000000 0.000000 0.000000 0.000000 0.000000 0.018777
#
#
# Mechanical properties :
#
#
# Convention : Reuss Voigt Hill
#
# Bulk Modulus (GPa) = 48.82223 52.68361 50.75292
# Shear Modulus (GPa) = 40.41591 44.59242 42.50416
#
# Velocity S-wave (km/s) = 4.31482 4.53228 4.42488
# Velocity P-wave (km/s) = 6.87849 7.18732 7.03460
#
# Compressibility (1/GPa) = 0.02048247
#
# Stress axis : x y z
#
# Youngs Moduli (GPa) = 127.04952 70.54067 136.85421
#
# Poissons Ratio (x) = 0.25489 0.07824
# Poissons Ratio (y) = 0.45908 0.03432
# Poissons Ratio (z) = 0.07263 0.01769
#
# Static dielectric constant tensor:
#      x y z
#    x 1.813900 0.000000 0.000000 
#    y 0.000000 1.866110 0.000000 
#    z 0.000000 0.000000 1.778530 
# 
# From -- ./inp_files/18641.got.cif
#   From: 2010.05.17/outbox.cif.g08.bks.cpg/sg69_10_cif.got.tgz:18641.got - 2010.06.03 19:29:58.
