data_PCOD9513765
_publ_section_title
;
Structure prediction by ZEFSAII (Michael W. Deem and Ramdas Pophale) SiO2 
 PCOD9513765
Probable space group: F M M M
;
_chemical_formula_sum "Si O2"
_cell_formula_units_Z 128
_cell_length_a 8.468770
_cell_length_b 29.795125
_cell_length_c 26.213011
_cell_angle_alpha 90.000000
_cell_angle_beta 90.000000
_cell_angle_gamma 90.000000
_cell_volume 6614.278232
_symmetry_space_group_name_H-M "F M M M"
_symmetry_group_IT_number 69
_symmetry_cell_setting 'orthorhombic'
loop_
_space_group_symop_operation_xyz
x,y,z
-x,-y,z
x,-y,-z
-x,y,-z
-x,-y,-z
x,y,-z
-x,y,z
x,-y,z
x,1/2+y,1/2+z
-x,1/2-y,1/2+z
x,1/2-y,1/2-z
-x,1/2+y,1/2-z
-x,1/2-y,1/2-z
x,1/2+y,1/2-z
-x,1/2+y,1/2+z
x,1/2-y,1/2+z
1/2+x,y,1/2+z
1/2-x,-y,1/2+z
1/2+x,-y,1/2-z
1/2-x,y,1/2-z
1/2-x,-y,1/2-z
1/2+x,y,1/2-z
1/2-x,y,1/2+z
1/2+x,-y,1/2+z
1/2+x,1/2+y,z
1/2-x,1/2-y,z
1/2+x,1/2-y,-z
1/2-x,1/2+y,-z
1/2-x,1/2-y,-z
1/2+x,1/2+y,-z
1/2-x,1/2+y,z
1/2+x,1/2-y,z
loop_
_atom_site_type_symbol
_atom_site_label
_atom_site_fract_x
_atom_site_fract_y
_atom_site_fract_z
Si Si1 0.183241 0.357988 0.906914
Si Si2 0.308503 0.899624 0.807491
Si Si3 0.314235 0.699722 0.000000
Si Si4 0.817480 0.049695 0.938585
Si Si5 0.691036 0.000000 0.808475
O O1 0.244764 0.362467 0.848703
O O2 0.262302 0.326717 0.948991
O O3 0.205897 0.409206 0.925343
O O4 0.000000 0.345748 0.905488
O O5 0.500000 0.899675 0.807368
O O6 0.250000 0.892339 0.750000
O O7 0.255737 0.949960 0.825358
O O8 0.250000 0.750000 0.000000
O O9 0.500000 0.701304 0.000000
O O10 0.000000 0.057457 0.921854
O O11 0.765437 0.000000 0.921225
O O12 0.823052 0.048237 0.000000
O O13 0.750000 0.000000 0.750000
O O14 0.500000 0.000000 0.811423
#
# Coordination Sequence:
#
# PCOD9513765 Si02
#       5
#    32  32  16  32  16
#     4  11  22  36  58  88 118 151 193 240 291 346
#     4   9  19  33  52  78 115 157 201 243 281 330
#     4  12  26  46  69  90 115 144 182 235 295 361
#     4   9  18  32  49  74 113 156 197 238 282 335
#     4   8  14  28  46  69 106 153 201 242 274 310
#
# _framework density 19.352073000000001
#
# number of rings (size 3 to 8) (size 9 to 14) (size 15 to 20)
#    0.000    2.250    1.250    2.625    1.750    2.500 
#    0.000    1.250    0.000    0.750    0.000    5.250 
#    0.000    0.000    0.000    0.000    0.000    0.000 
#
# Total GULP energy -178381.299053 kJ/mol
# GULP energy per Si atom -5574.415595 kJ/mol
# Density = 1.930803 g / cm^3
# Si number density = 19.352073 Si / 1000 Ang^3
#
#
#
# Elastic Constant Matrix: (Units=GPa)
#
#
# Indices 1 2 3 4 5 6 
#
# 1 38.7085 26.0804 34.7534 0.0000 0.0000 0.0000
# 2 26.0804 98.7718 71.8047 0.0000 0.0000 0.0000
# 3 34.7534 71.8047 143.2063 0.0000 0.0000 0.0000
# 4 0.0000 0.0000 0.0000 14.7641 0.0000 0.0000
# 5 0.0000 0.0000 0.0000 0.0000 21.0462 0.0000
# 6 0.0000 0.0000 0.0000 0.0000 0.0000 26.2920
#
#
#
# Elastic Compliance Matrix: (Units=1/GPa)
#
#
# Indices 1 2 3 4 5 6 
#
# 1 0.034387 -0.004741 -0.005968 0.000000 0.000000 0.000000
# 2 -0.004741 0.016585 -0.007165 0.000000 0.000000 0.000000
# 3 -0.005968 -0.007165 0.012024 0.000000 0.000000 0.000000
# 4 0.000000 0.000000 0.000000 0.067732 0.000000 0.000000
# 5 0.000000 0.000000 0.000000 0.000000 0.047514 0.000000
# 6 0.000000 0.000000 0.000000 0.000000 0.000000 0.038034
#
#
# Mechanical properties :
#
#
# Convention : Reuss Voigt Hill
#
# Bulk Modulus (GPa) = 36.70110 60.66263 48.68186
# Shear Modulus (GPa) = 19.14918 22.29033 20.71976
#
# Velocity S-wave (km/s) = 3.14907 3.39755 3.27566
# Velocity P-wave (km/s) = 5.67700 6.84149 6.28627
#
# Compressibility (1/GPa) = 0.02724714
#
# Stress axis : x y z
#
# Youngs Moduli (GPa) = 29.08113 60.29419 83.16746
#
# Poissons Ratio (x) = 0.28588 0.49631
# Poissons Ratio (y) = 0.13788 0.59593
# Poissons Ratio (z) = 0.17354 0.43203
#
# Static dielectric constant tensor:
#      x y z
#    x 1.686900 0.000000 0.000000 
#    y 0.000000 1.645400 0.000000 
#    z 0.000000 0.000000 1.749190 
# 
# From -- ./inp_files/44388.got.cif
#   From: 2010.05.17/outbox.cif.g08.bks.cpg/sg69_23_cif.got.tgz:44388.got - 2010.06.03 19:29:58.
