data_PCOD9513881
_publ_section_title
;
Structure prediction by ZEFSAII (Michael W. Deem and Ramdas Pophale) SiO2 
 PCOD9513881
Probable space group: F M M M
;
_chemical_formula_sum "Si O2"
_cell_formula_units_Z 160
_cell_length_a 17.323286
_cell_length_b 21.859375
_cell_length_c 21.859376
_cell_angle_alpha 90.000000
_cell_angle_beta 90.000000
_cell_angle_gamma 90.000000
_cell_volume 8277.625545
_symmetry_space_group_name_H-M "F M M M"
_symmetry_group_IT_number 69
_symmetry_cell_setting 'orthorhombic'
loop_
_space_group_symop_operation_xyz
x,y,z
-x,-y,z
x,-y,-z
-x,y,-z
-x,-y,-z
x,y,-z
-x,y,z
x,-y,z
x,1/2+y,1/2+z
-x,1/2-y,1/2+z
x,1/2-y,1/2-z
-x,1/2+y,1/2-z
-x,1/2-y,1/2-z
x,1/2+y,1/2-z
-x,1/2+y,1/2+z
x,1/2-y,1/2+z
1/2+x,y,1/2+z
1/2-x,-y,1/2+z
1/2+x,-y,1/2-z
1/2-x,y,1/2-z
1/2-x,-y,1/2-z
1/2+x,y,1/2-z
1/2-x,y,1/2+z
1/2+x,-y,1/2+z
1/2+x,1/2+y,z
1/2-x,1/2-y,z
1/2+x,1/2-y,-z
1/2-x,1/2+y,-z
1/2-x,1/2-y,-z
1/2+x,1/2+y,-z
1/2-x,1/2+y,z
1/2+x,1/2-y,z
loop_
_atom_site_type_symbol
_atom_site_label
_atom_site_fract_x
_atom_site_fract_y
_atom_site_fract_z
Si Si1 0.841488 0.120350 0.132798
Si Si2 0.411016 0.572999 0.500000
Si Si3 0.407602 0.242315 0.427784
Si Si4 0.907602 0.572216 0.242315
Si Si5 0.911015 0.000000 0.072999
Si Si6 0.658512 0.632798 0.379650
O O1 0.882030 0.178615 0.102031
O O2 0.868008 0.108412 0.202231
O O3 0.750000 0.128608 0.128608
O O4 0.868599 0.059982 0.096949
O O5 0.412128 0.500000 0.500000
O O6 0.500000 0.595574 0.500000
O O7 0.368599 0.596949 0.559982
O O8 0.385987 0.244496 0.500000
O O9 0.500000 0.248683 0.424174
O O10 0.368008 0.297769 0.391588
O O11 0.885987 0.500000 0.244496
O O12 0.882030 0.602031 0.178615
O O13 0.000000 0.575826 0.248683
O O14 0.000000 0.000000 0.095574
O O15 0.912128 0.000000 0.000000
#
# Coordination Sequence:
#
# PCOD9513881 Si02
#       6
#    32  16  32  32  16  32
#     4  12  26  41  69 101 138 174 229 285 347 399
#     4  11  24  42  65  96 136 181 232 279 337 411
#     4  11  24  45  70  97 137 185 232 278 339 413
#     4  11  24  45  70  97 137 185 232 278 339 413
#     4  11  24  42  65  96 136 181 232 279 337 411
#     4  12  26  41  69 101 138 174 229 285 347 399
#
# _framework density 19.329214
#
# number of rings (size 3 to 8) (size 9 to 14) (size 15 to 20)
#    0.000    0.600    2.000    6.000    5.600    5.600 
#    0.000    4.000    0.000    0.000    0.000    0.000 
#    0.000    0.000    0.000    0.000    0.000    0.000 
#
# Total GULP energy -223942.760216 kJ/mol
# GULP energy per Si atom -5598.569005 kJ/mol
# Density = 1.928522 g / cm^3
# Si number density = 19.329214 Si / 1000 Ang^3
#
#
#
# Elastic Constant Matrix: (Units=GPa)
#
#
# Indices 1 2 3 4 5 6 
#
# 1 136.9230 72.1940 72.1941 0.0000 0.0000 0.0000
# 2 72.1940 158.7553 65.9002 0.0000 0.0000 0.0000
# 3 72.1941 65.9002 158.7552 0.0000 0.0000 0.0000
# 4 0.0000 0.0000 0.0000 43.2518 0.0000 0.0000
# 5 0.0000 0.0000 0.0000 0.0000 40.9929 0.0000
# 6 0.0000 0.0000 0.0000 0.0000 0.0000 40.9929
#
#
#
# Elastic Compliance Matrix: (Units=1/GPa)
#
#
# Indices 1 2 3 4 5 6 
#
# 1 0.011047 -0.003550 -0.003550 0.000000 0.000000 0.000000
# 2 -0.003550 0.008751 -0.002018 0.000000 0.000000 0.000000
# 3 -0.003550 -0.002018 0.008751 0.000000 0.000000 0.000000
# 4 0.000000 0.000000 0.000000 0.023120 0.000000 0.000000
# 5 0.000000 0.000000 0.000000 0.000000 0.024394 0.000000
# 6 0.000000 0.000000 0.000000 0.000000 0.000000 0.024394
#
#
# Mechanical properties :
#
#
# Convention : Reuss Voigt Hill
#
# Bulk Modulus (GPa) = 96.96752 97.22334 97.09543
# Shear Modulus (GPa) = 40.93910 41.32387 41.13149
#
# Velocity S-wave (km/s) = 4.60716 4.62876 4.61797
# Velocity P-wave (km/s) = 8.86433 8.88679 8.87557
#
# Compressibility (1/GPa) = 0.01031273
#
# Stress axis : x y z
#
# Youngs Moduli (GPa) = 90.52321 114.27053 114.27039
#
# Poissons Ratio (x) = 0.40566 0.40566
# Poissons Ratio (y) = 0.32135 0.23063
# Poissons Ratio (z) = 0.32136 0.23063
#
# Static dielectric constant tensor:
#      x y z
#    x 1.650410 0.000000 0.000000 
#    y 0.000000 1.650470 0.000000 
#    z 0.000000 0.000000 1.650470 
# 
# From -- ./inp_files/30848.got.cif
#   From: 2010.05.17/outbox.cif.g08.bks.cpg/sg69_16_cif.got.tgz:30848.got - 2010.06.03 19:29:58.
