data_PCOD9513499
_publ_section_title
;
Structure prediction by ZEFSAII (Michael W. Deem and Ramdas Pophale) SiO2 
 PCOD9513499
Probable space group: F M M M
;
_chemical_formula_sum "Si O2"
_cell_formula_units_Z 136
_cell_length_a 14.490093
_cell_length_b 21.119442
_cell_length_c 21.119440
_cell_angle_alpha 90.000000
_cell_angle_beta 90.000000
_cell_angle_gamma 90.000000
_cell_volume 6463.027601
_symmetry_space_group_name_H-M "F M M M"
_symmetry_group_IT_number 69
_symmetry_cell_setting 'orthorhombic'
loop_
_space_group_symop_operation_xyz
x,y,z
-x,-y,z
x,-y,-z
-x,y,-z
-x,-y,-z
x,y,-z
-x,y,z
x,-y,z
x,1/2+y,1/2+z
-x,1/2-y,1/2+z
x,1/2-y,1/2-z
-x,1/2+y,1/2-z
-x,1/2-y,1/2-z
x,1/2+y,1/2-z
-x,1/2+y,1/2+z
x,1/2-y,1/2+z
1/2+x,y,1/2+z
1/2-x,-y,1/2+z
1/2+x,-y,1/2-z
1/2-x,y,1/2-z
1/2-x,-y,1/2-z
1/2+x,y,1/2-z
1/2-x,y,1/2+z
1/2+x,-y,1/2+z
1/2+x,1/2+y,z
1/2-x,1/2-y,z
1/2+x,1/2-y,-z
1/2-x,1/2+y,-z
1/2-x,1/2-y,-z
1/2+x,1/2+y,-z
1/2-x,1/2+y,z
1/2+x,1/2-y,z
loop_
_atom_site_type_symbol
_atom_site_label
_atom_site_fract_x
_atom_site_fract_y
_atom_site_fract_z
Si Si1 0.798072 0.102628 0.602628
Si Si2 0.648317 0.000000 0.000000
Si Si3 0.605103 0.632463 0.132463
Si Si4 0.893523 0.927216 0.267408
Si Si5 0.106477 0.732592 0.072784
O O1 0.847690 0.055181 0.555181
O O2 0.687525 0.096758 0.596758
O O3 0.827929 0.088052 0.674336
O O4 0.827929 0.174336 0.588051
O O5 0.500000 0.614550 0.114550
O O6 0.616650 0.617242 0.206596
O O7 0.616651 0.706596 0.117242
O O8 0.000000 0.921660 0.289525
O O9 0.879005 0.000000 0.246791
O O10 0.000000 0.710475 0.078340
O O11 0.120995 0.753209 0.000000
#
# Coordination Sequence:
#
# PCOD9513499 Si02
#       5
#    32   8  32  32  32
#     4  12  23  43  66  96 133 174 212 263 322 385
#     4  12  28  40  62 104 136 166 220 256 314 396
#     4  10  24  42  66  95 128 170 222 267 315 379
#     4  10  22  42  66  95 129 170 215 269 326 379
#     4  10  22  42  66  95 129 170 215 269 326 379
#
# _framework density 21.042770000000001
#
# number of rings (size 3 to 8) (size 9 to 14) (size 15 to 20)
#    0.000    1.412    2.353    2.118    3.294    2.824 
#    0.000    8.824    0.000    0.000    0.000    0.000 
#    0.000    0.000    0.000    0.000    0.000    0.000 
#
# Total GULP energy -189542.687007 kJ/mol
# GULP energy per Si atom -5574.784912 kJ/mol
# Density = 2.099488 g / cm^3
# Si number density = 21.042770 Si / 1000 Ang^3
#
#
#
# Elastic Constant Matrix: (Units=GPa)
#
#
# Indices 1 2 3 4 5 6 
#
# 1 95.6318 28.9894 28.9893 0.0000 0.0000 0.0000
# 2 28.9894 86.2389 65.3620 0.0000 0.0000 0.0000
# 3 28.9893 65.3620 86.2389 0.0000 0.0000 0.0000
# 4 0.0000 0.0000 0.0000 58.8310 0.0000 0.0000
# 5 0.0000 0.0000 0.0000 0.0000 -17.3548 0.0000
# 6 0.0000 0.0000 0.0000 0.0000 0.0000 -17.3549
#
#
#
# Elastic Compliance Matrix: (Units=1/GPa)
#
#
# Indices 1 2 3 4 5 6 
#
# 1 0.011828 -0.002262 -0.002262 0.000000 0.000000 0.000000
# 2 -0.002262 0.027681 -0.020219 0.000000 0.000000 0.000000
# 3 -0.002262 -0.020219 0.027681 0.000000 0.000000 0.000000
# 4 0.000000 0.000000 0.000000 0.016998 0.000000 0.000000
# 5 0.000000 0.000000 0.000000 0.000000 -0.057621 0.000000
# 6 0.000000 0.000000 0.000000 0.000000 0.000000 -0.057621
#
#
# Mechanical properties :
#
#
# Convention : Reuss Voigt Hill
#
# Bulk Modulus (GPa) = 56.48613 57.19901 56.84257
# Shear Modulus (GPa) = 205.48878 14.47553 109.98215
#
# Velocity S-wave (km/s) = 9.89267 2.62565 7.23737
# Velocity P-wave (km/s) = 12.54545 6.03600 9.84433
#
# Compressibility (1/GPa) = 0.01770346
#
# Stress axis : x y z
#
# Youngs Moduli (GPa) = 84.54504 36.12637 36.12639
#
# Poissons Ratio (x) = 0.08171 0.08171
# Poissons Ratio (y) = 0.19122 0.73045
# Poissons Ratio (z) = 0.19122 0.73045
#
# Static dielectric constant tensor:
#      x y z
#    x 1.833900 0.000000 0.000000 
#    y 0.000000 1.709220 0.000000 
#    z 0.000000 0.000000 1.709220 
# 
# From -- ./inp_files/24208.got.cif
#   From: 2010.05.17/outbox.cif.g08.bks.cpg/sg69_13_cif.got.tgz:24208.got - 2010.06.03 19:29:58.
