data_PCOD9513949
_publ_section_title
;
Structure prediction by ZEFSAII (Michael W. Deem and Ramdas Pophale) SiO2 
 PCOD9513949
Probable space group: F M M M
;
_chemical_formula_sum "Si O2"
_cell_formula_units_Z 160
_cell_length_a 23.296097
_cell_length_b 14.060722
_cell_length_c 19.046766
_cell_angle_alpha 90.000000
_cell_angle_beta 90.000000
_cell_angle_gamma 90.000000
_cell_volume 6238.957597
_symmetry_space_group_name_H-M "F M M M"
_symmetry_group_IT_number 69
_symmetry_cell_setting 'orthorhombic'
loop_
_space_group_symop_operation_xyz
x,y,z
-x,-y,z
x,-y,-z
-x,y,-z
-x,-y,-z
x,y,-z
-x,y,z
x,-y,z
x,1/2+y,1/2+z
-x,1/2-y,1/2+z
x,1/2-y,1/2-z
-x,1/2+y,1/2-z
-x,1/2-y,1/2-z
x,1/2+y,1/2-z
-x,1/2+y,1/2+z
x,1/2-y,1/2+z
1/2+x,y,1/2+z
1/2-x,-y,1/2+z
1/2+x,-y,1/2-z
1/2-x,y,1/2-z
1/2-x,-y,1/2-z
1/2+x,y,1/2-z
1/2-x,y,1/2+z
1/2+x,-y,1/2+z
1/2+x,1/2+y,z
1/2-x,1/2-y,z
1/2+x,1/2-y,-z
1/2-x,1/2+y,-z
1/2-x,1/2-y,-z
1/2+x,1/2+y,-z
1/2-x,1/2+y,z
1/2+x,1/2-y,z
loop_
_atom_site_type_symbol
_atom_site_label
_atom_site_fract_x
_atom_site_fract_y
_atom_site_fract_z
Si Si1 0.563310 0.887577 0.774026
Si Si2 0.066501 0.290280 0.079175
Si Si3 0.138798 0.893962 0.084793
Si Si4 0.271402 0.886230 0.077688
Si Si5 0.812429 0.884118 0.278951
O O1 0.500000 0.852108 0.749087
O O2 0.567533 0.865252 0.857381
O O3 0.626337 0.855563 0.745910
O O4 0.561848 0.000000 0.764183
O O5 0.098691 0.194069 0.100472
O O6 0.000000 0.264073 0.072788
O O7 0.085356 0.322279 0.000000
O O8 0.205440 0.874802 0.101086
O O9 0.123290 0.000000 0.111732
O O10 0.137869 0.900798 0.000000
O O11 0.310717 0.850451 0.139994
O O12 0.279818 0.000000 0.073056
O O13 0.280435 0.845926 0.000000
O O14 0.750000 0.855543 0.250000
O O15 0.811864 0.000000 0.277807
#
# Coordination Sequence:
#
# PCOD9513949 Si02
#       5
#    32  32  32  32  32
#     4   9  18  32  49  70 100 139 178 217 265 320
#     4   9  17  28  44  70 104 142 183 223 264 316
#     4   8  14  26  45  69  98 133 174 221 271 320
#     4   8  14  26  46  72 101 132 165 209 272 334
#     4   9  17  30  51  78 105 136 179 228 271 315
#
# _framework density 25.645311
#
# number of rings (size 3 to 8) (size 9 to 14) (size 15 to 20)
#    0.000    3.400    0.000    1.200    0.000    1.600 
#    0.000    7.000    0.000    7.200    0.000    8.400 
#    0.000    0.000    0.000    0.000    0.000    0.400 
#
# Total GULP energy -223416.728021 kJ/mol
# GULP energy per Si atom -5585.418201 kJ/mol
# Density = 2.558694 g / cm^3
# Si number density = 25.645311 Si / 1000 Ang^3
#
#
#
# Elastic Constant Matrix: (Units=GPa)
#
#
# Indices 1 2 3 4 5 6 
#
# 1 196.2327 17.1742 40.0535 0.0000 0.0000 0.0000
# 2 17.1742 98.5053 0.4972 0.0000 0.0000 0.0000
# 3 40.0535 0.4972 93.5057 0.0000 0.0000 0.0000
# 4 0.0000 0.0000 0.0000 18.8675 0.0000 0.0000
# 5 0.0000 0.0000 0.0000 0.0000 30.8303 0.0000
# 6 0.0000 0.0000 0.0000 0.0000 0.0000 13.7016
#
#
#
# Elastic Compliance Matrix: (Units=1/GPa)
#
#
# Indices 1 2 3 4 5 6 
#
# 1 0.005677 -0.000977 -0.002426 0.000000 0.000000 0.000000
# 2 -0.000977 0.010320 0.000364 0.000000 0.000000 0.000000
# 3 -0.002426 0.000364 0.011732 0.000000 0.000000 0.000000
# 4 0.000000 0.000000 0.000000 0.053001 0.000000 0.000000
# 5 0.000000 0.000000 0.000000 0.000000 0.032436 0.000000
# 6 0.000000 0.000000 0.000000 0.000000 0.000000 0.072984
#
#
# Mechanical properties :
#
#
# Convention : Reuss Voigt Hill
#
# Bulk Modulus (GPa) = 46.19184 55.96594 51.07889
# Shear Modulus (GPa) = 25.06937 34.71447 29.89192
#
# Velocity S-wave (km/s) = 3.12996 3.68317 3.41778
# Velocity P-wave (km/s) = 5.57791 6.32124 5.96118
#
# Compressibility (1/GPa) = 0.02164884
#
# Stress axis : x y z
#
# Youngs Moduli (GPa) = 176.15506 96.89619 85.23702
#
# Poissons Ratio (x) = 0.09472 0.20683
# Poissons Ratio (y) = 0.17219 -0.03101
# Poissons Ratio (z) = 0.42744 -0.03525
#
# Static dielectric constant tensor:
#      x y z
#    x 2.052380 0.000000 0.000000 
#    y 0.000000 1.941420 0.000000 
#    z 0.000000 0.000000 2.082390 
# 
# From -- ./inp_files/37758.got.cif
#   From: 2010.05.17/outbox.cif.g08.bks.cpg/sg69_19_cif.got.tgz:37758.got - 2010.06.03 19:29:58.
