data_PCOD9513328
_publ_section_title
;
Structure prediction by ZEFSAII (Michael W. Deem and Ramdas Pophale) SiO2 
 PCOD9513328
Probable space group: F M M M
;
_chemical_formula_sum "Si O2"
_cell_formula_units_Z 128
_cell_length_a 16.308646
_cell_length_b 24.621515
_cell_length_c 17.536120
_cell_angle_alpha 90.000000
_cell_angle_beta 90.000000
_cell_angle_gamma 90.000000
_cell_volume 7041.516266
_symmetry_space_group_name_H-M "F M M M"
_symmetry_group_IT_number 69
_symmetry_cell_setting 'orthorhombic'
loop_
_space_group_symop_operation_xyz
x,y,z
-x,-y,z
x,-y,-z
-x,y,-z
-x,-y,-z
x,y,-z
-x,y,z
x,-y,z
x,1/2+y,1/2+z
-x,1/2-y,1/2+z
x,1/2-y,1/2-z
-x,1/2+y,1/2-z
-x,1/2-y,1/2-z
x,1/2+y,1/2-z
-x,1/2+y,1/2+z
x,1/2-y,1/2+z
1/2+x,y,1/2+z
1/2-x,-y,1/2+z
1/2+x,-y,1/2-z
1/2-x,y,1/2-z
1/2-x,-y,1/2-z
1/2+x,y,1/2-z
1/2-x,y,1/2+z
1/2+x,-y,1/2+z
1/2+x,1/2+y,z
1/2-x,1/2-y,z
1/2+x,1/2-y,-z
1/2-x,1/2+y,-z
1/2-x,1/2-y,-z
1/2+x,1/2+y,-z
1/2-x,1/2+y,z
1/2+x,1/2-y,z
loop_
_atom_site_type_symbol
_atom_site_label
_atom_site_fract_x
_atom_site_fract_y
_atom_site_fract_z
Si Si1 0.191958 0.652207 0.181202
Si Si2 0.849728 0.131106 0.089524
Si Si3 0.850094 0.253694 0.086528
Si Si4 0.404413 0.937977 0.727269
O O1 0.250000 0.674193 0.250000
O O2 0.254457 0.632514 0.115576
O O3 0.134413 0.699076 0.147073
O O4 0.144675 0.601622 0.216724
O O5 0.880313 0.193028 0.104901
O O6 0.892952 0.087849 0.143412
O O7 0.857940 0.120951 0.000000
O O8 0.750000 0.250000 0.085714
O O9 0.875716 0.267335 0.000000
O O10 0.500000 0.937491 0.746845
O O11 0.374450 0.000000 0.729412
#
# Coordination Sequence:
#
# PCOD9513328 Si02
#       4
#    32  32  32  32
#     4   9  17  29  51  76  99 126 160 199 239 284
#     4   9  18  32  53  79 101 123 157 200 242 288
#     4   8  14  27  48  75 103 125 148 188 244 296
#     4  10  22  37  49  65  96 136 170 201 241 286
#
# _framework density 18.177903000000001
#
# number of rings (size 3 to 8) (size 9 to 14) (size 15 to 20)
#    0.000    3.000    0.000    2.250    0.000   17.000 
#    0.000    3.750    0.000    6.750    0.000    7.000 
#    0.000    0.000    0.000    0.000    0.000    0.000 
#
# Total GULP energy -178303.168798 kJ/mol
# GULP energy per Si atom -5571.974025 kJ/mol
# Density = 1.813653 g / cm^3
# Si number density = 18.177903 Si / 1000 Ang^3
#
#
#
# Elastic Constant Matrix: (Units=GPa)
#
#
# Indices 1 2 3 4 5 6 
#
# 1 19.2527 27.4020 14.4104 0.0000 0.0000 0.0000
# 2 27.4020 156.4167 94.2252 0.0000 0.0000 0.0000
# 3 14.4104 94.2252 85.0999 0.0000 0.0000 0.0000
# 4 0.0000 0.0000 0.0000 4.4847 0.0000 0.0000
# 5 0.0000 0.0000 0.0000 0.0000 4.6388 0.0000
# 6 0.0000 0.0000 0.0000 0.0000 0.0000 69.3409
#
#
#
# Elastic Compliance Matrix: (Units=1/GPa)
#
#
# Indices 1 2 3 4 5 6 
#
# 1 0.069944 -0.015370 0.005175 0.000000 0.000000 0.000000
# 2 -0.015370 0.022576 -0.022394 0.000000 0.000000 0.000000
# 3 0.005175 -0.022394 0.035670 0.000000 0.000000 0.000000
# 4 0.000000 0.000000 0.000000 0.222980 0.000000 0.000000
# 5 0.000000 0.000000 0.000000 0.000000 0.215574 0.000000
# 6 0.000000 0.000000 0.000000 0.000000 0.000000 0.014421
#
#
# Mechanical properties :
#
#
# Convention : Reuss Voigt Hill
#
# Bulk Modulus (GPa) = 15.87038 59.20494 37.53766
# Shear Modulus (GPa) = 7.49232 24.00833 15.75032
#
# Velocity S-wave (km/s) = 2.03239 3.63814 2.94675
# Velocity P-wave (km/s) = 3.77585 7.09144 5.68092
#
# Compressibility (1/GPa) = 0.06301046
#
# Stress axis : x y z
#
# Youngs Moduli (GPa) = 14.29713 44.29458 28.03455
#
# Poissons Ratio (x) = 0.68083 -0.14507
# Poissons Ratio (y) = 0.21975 0.62781
# Poissons Ratio (z) = -0.07398 0.99194
#
# Static dielectric constant tensor:
#      x y z
#    x 1.647340 0.000000 0.000000 
#    y 0.000000 1.651520 0.000000 
#    z 0.000000 0.000000 1.635810 
# 
# From -- ./inp_files/22724.got.cif
#   From: 2010.05.17/outbox.cif.g08.bks.cpg/sg69_12_cif.got.tgz:22724.got - 2010.06.03 19:29:58.
