data_PCOD9513601
_publ_section_title
;
Structure prediction by ZEFSAII (Michael W. Deem and Ramdas Pophale) SiO2 
 PCOD9513601
Probable space group: F M M M
;
_chemical_formula_sum "Si O2"
_cell_formula_units_Z 80
_cell_length_a 11.660384
_cell_length_b 14.918331
_cell_length_c 23.441684
_cell_angle_alpha 90.000000
_cell_angle_beta 90.000000
_cell_angle_gamma 90.000000
_cell_volume 4077.762230
_symmetry_space_group_name_H-M "F M M M"
_symmetry_group_IT_number 69
_symmetry_cell_setting 'orthorhombic'
loop_
_space_group_symop_operation_xyz
x,y,z
-x,-y,z
x,-y,-z
-x,y,-z
-x,-y,-z
x,y,-z
-x,y,z
x,-y,z
x,1/2+y,1/2+z
-x,1/2-y,1/2+z
x,1/2-y,1/2-z
-x,1/2+y,1/2-z
-x,1/2-y,1/2-z
x,1/2+y,1/2-z
-x,1/2+y,1/2+z
x,1/2-y,1/2+z
1/2+x,y,1/2+z
1/2-x,-y,1/2+z
1/2+x,-y,1/2-z
1/2-x,y,1/2-z
1/2-x,-y,1/2-z
1/2+x,y,1/2-z
1/2-x,y,1/2+z
1/2+x,-y,1/2+z
1/2+x,1/2+y,z
1/2-x,1/2-y,z
1/2+x,1/2-y,-z
1/2-x,1/2+y,-z
1/2-x,1/2-y,-z
1/2+x,1/2+y,-z
1/2-x,1/2+y,z
1/2+x,1/2-y,z
loop_
_atom_site_type_symbol
_atom_site_label
_atom_site_fract_x
_atom_site_fract_y
_atom_site_fract_z
Si Si1 0.866122 0.000000 0.111360
Si Si2 0.000000 0.136918 0.500000
Si Si3 0.500000 0.895534 0.121300
Si Si4 0.262702 0.143813 0.183012
Si Si5 0.707683 0.500000 0.500000
O O1 0.829958 0.913387 0.148233
O O2 0.787479 0.000000 0.055235
O O3 0.000000 0.000000 0.097929
O O4 0.000000 0.170277 0.565878
O O5 0.120892 0.083601 0.500000
O O6 0.612960 0.882664 0.158765
O O7 0.500000 0.000000 0.100622
O O8 0.250000 0.123577 0.250000
O O9 0.250000 0.250000 0.175161
#
# Coordination Sequence:
#
# PCOD9513601 Si02
#       5
#    16   8  16  32   8
#     4  12  25  42  65  95 134 166 209 270 330 376
#     4  11  16  38  70  92 118 165 230 269 294 380
#     4  12  21  41  71  90 123 171 228 262 310 383
#     4  11  26  42  64  97 131 171 215 262 322 383
#     4  11  19  42  64  96 123 169 212 266 322 379
#
# _framework density 19.618603
#
# number of rings (size 3 to 8) (size 9 to 14) (size 15 to 20)
#    0.000    0.600    8.000    0.900    5.600    1.600 
#    0.000    4.000    0.000    0.000    0.000    0.000 
#    0.000    0.000    0.000    0.000    0.000    0.000 
#
# Total GULP energy -111664.557759 kJ/mol
# GULP energy per Si atom -5583.227888 kJ/mol
# Density = 1.957395 g / cm^3
# Si number density = 19.618603 Si / 1000 Ang^3
#
#
#
# Elastic Constant Matrix: (Units=GPa)
#
#
# Indices 1 2 3 4 5 6 
#
# 1 160.6669 16.9590 59.4318 0.0000 0.0000 0.0000
# 2 16.9590 62.1303 38.1984 0.0000 0.0000 0.0000
# 3 59.4318 38.1984 160.4182 0.0000 0.0000 0.0000
# 4 0.0000 0.0000 0.0000 190.4228 0.0000 0.0000
# 5 0.0000 0.0000 0.0000 0.0000 15.0083 0.0000
# 6 0.0000 0.0000 0.0000 0.0000 0.0000 10.0605
#
#
#
# Elastic Compliance Matrix: (Units=1/GPa)
#
#
# Indices 1 2 3 4 5 6 
#
# 1 0.007220 -0.000382 -0.002584 0.000000 0.000000 0.000000
# 2 -0.000382 0.018876 -0.004353 0.000000 0.000000 0.000000
# 3 -0.002584 -0.004353 0.008228 0.000000 0.000000 0.000000
# 4 0.000000 0.000000 0.000000 0.005251 0.000000 0.000000
# 5 0.000000 0.000000 0.000000 0.000000 0.066630 0.000000
# 6 0.000000 0.000000 0.000000 0.000000 0.000000 0.099399
#
#
# Mechanical properties :
#
#
# Convention : Reuss Voigt Hill
#
# Bulk Modulus (GPa) = 50.79959 68.04377 59.42168
# Shear Modulus (GPa) = 22.04547 61.00673 41.52610
#
# Velocity S-wave (km/s) = 3.35580 5.58246 4.60572
# Velocity P-wave (km/s) = 6.40039 8.73558 7.65753
#
# Compressibility (1/GPa) = 0.01968520
#
# Stress axis : x y z
#
# Youngs Moduli (GPa) = 138.49999 52.97776 121.54284
#
# Poissons Ratio (x) = 0.02025 0.31406
# Poissons Ratio (y) = 0.05293 0.52909
# Poissons Ratio (z) = 0.35788 0.23062
#
# Static dielectric constant tensor:
#      x y z
#    x 1.640230 0.000000 0.000000 
#    y 0.000000 1.730450 0.000000 
#    z 0.000000 0.000000 1.715520 
# 
# From -- ./inp_files/13130.got.cif
#   From: 2010.05.17/outbox.cif.g08.bks.cpg/sg69_7_cif.got.tgz:13130.got - 2010.06.03 19:29:58.
