data_PCOD9513297
_publ_section_title
;
Structure prediction by ZEFSAII (Michael W. Deem and Ramdas Pophale) SiO2 
 PCOD9513297
Probable space group: F M M M
;
_chemical_formula_sum "Si O2"
_cell_formula_units_Z 144
_cell_length_a 17.433254
_cell_length_b 14.538025
_cell_length_c 29.353567
_cell_angle_alpha 90.000000
_cell_angle_beta 90.000000
_cell_angle_gamma 90.000000
_cell_volume 7439.517209
_symmetry_space_group_name_H-M "F M M M"
_symmetry_group_IT_number 69
_symmetry_cell_setting 'orthorhombic'
loop_
_space_group_symop_operation_xyz
x,y,z
-x,-y,z
x,-y,-z
-x,y,-z
-x,-y,-z
x,y,-z
-x,y,z
x,-y,z
x,1/2+y,1/2+z
-x,1/2-y,1/2+z
x,1/2-y,1/2-z
-x,1/2+y,1/2-z
-x,1/2-y,1/2-z
x,1/2+y,1/2-z
-x,1/2+y,1/2+z
x,1/2-y,1/2+z
1/2+x,y,1/2+z
1/2-x,-y,1/2+z
1/2+x,-y,1/2-z
1/2-x,y,1/2-z
1/2-x,-y,1/2-z
1/2+x,y,1/2-z
1/2-x,y,1/2+z
1/2+x,-y,1/2+z
1/2+x,1/2+y,z
1/2-x,1/2-y,z
1/2+x,1/2-y,-z
1/2-x,1/2+y,-z
1/2-x,1/2-y,-z
1/2+x,1/2+y,-z
1/2-x,1/2+y,z
1/2+x,1/2-y,z
loop_
_atom_site_type_symbol
_atom_site_label
_atom_site_fract_x
_atom_site_fract_y
_atom_site_fract_z
Si Si1 0.805610 0.500000 0.293763
Si Si2 0.410631 0.293402 0.623948
Si Si3 0.091579 0.680616 0.707990
Si Si4 0.737526 0.500000 0.099180
Si Si5 0.591031 0.500000 0.397478
Si Si6 0.676533 0.816576 0.448194
O O1 0.750000 0.500000 0.250000
O O2 0.859798 0.588774 0.288925
O O3 0.767204 0.500000 0.345044
O O4 0.500000 0.278160 0.628036
O O5 0.375120 0.236737 0.664967
O O6 0.400859 0.402730 0.627831
O O7 0.384370 0.247941 0.577134
O O8 0.099000 0.750000 0.750000
O O9 0.000000 0.659232 0.703742
O O10 0.824867 0.500000 0.077953
O O11 0.696099 0.591589 0.080185
O O12 0.500000 0.500000 0.415444
O O13 0.655317 0.840516 0.500000
O O14 0.750000 0.750000 0.449206
#
# Coordination Sequence:
#
# PCOD9513297 Si02
#       6
#    16  32  32  16  16  32
#     4  12  27  40  63  99 126 166 207 264 320 376
#     4  10  21  41  66  93 128 169 213 268 322 377
#     4  10  23  43  66  90 125 170 212 258 316 382
#     4  12  23  43  66  92 133 166 213 267 320 381
#     4  10  22  39  64  94 122 162 213 259 317 382
#     4  11  23  40  65  93 129 173 214 264 324 385
#
# _framework density 19.356093999999999
#
# number of rings (size 3 to 8) (size 9 to 14) (size 15 to 20)
#    0.000    1.333    4.444    0.667    3.111    0.889 
#    0.000    1.111    0.000    4.667    0.000    0.000 
#    0.000    0.000    0.000    0.000    0.000    0.000 
#
# Total GULP energy -200448.962978 kJ/mol
# GULP energy per Si atom -5568.026749 kJ/mol
# Density = 1.931204 g / cm^3
# Si number density = 19.356094 Si / 1000 Ang^3
#
#
#
# Elastic Constant Matrix: (Units=GPa)
#
#
# Indices 1 2 3 4 5 6 
#
# 1 38.2753 58.6448 15.1702 0.0000 0.0000 0.0000
# 2 58.6448 169.5921 65.9264 0.0000 0.0000 0.0000
# 3 15.1702 65.9264 115.8466 0.0000 0.0000 0.0000
# 4 0.0000 0.0000 0.0000 20.9092 0.0000 0.0000
# 5 0.0000 0.0000 0.0000 0.0000 17.8589 0.0000
# 6 0.0000 0.0000 0.0000 0.0000 0.0000 24.5881
#
#
#
# Elastic Compliance Matrix: (Units=1/GPa)
#
#
# Indices 1 2 3 4 5 6 
#
# 1 0.057633 -0.021824 0.004872 0.000000 0.000000 0.000000
# 2 -0.021824 0.015835 -0.006154 0.000000 0.000000 0.000000
# 3 0.004872 -0.006154 0.011496 0.000000 0.000000 0.000000
# 4 0.000000 0.000000 0.000000 0.047826 0.000000 0.000000
# 5 0.000000 0.000000 0.000000 0.000000 0.055994 0.000000
# 6 0.000000 0.000000 0.000000 0.000000 0.000000 0.040670
#
#
# Mechanical properties :
#
#
# Convention : Reuss Voigt Hill
#
# Bulk Modulus (GPa) = 25.80345 67.02189 46.41267
# Shear Modulus (GPa) = 17.32603 24.93608 21.13106
#
# Velocity S-wave (km/s) = 2.99510 3.59316 3.30767
# Velocity P-wave (km/s) = 5.03197 7.20522 6.21434
#
# Compressibility (1/GPa) = 0.03875451
#
# Stress axis : x y z
#
# Youngs Moduli (GPa) = 17.35112 63.15019 86.98613
#
# Poissons Ratio (x) = 1.37816 -0.42383
# Poissons Ratio (y) = 0.37866 0.53529
# Poissons Ratio (z) = -0.08454 0.38861
#
# Static dielectric constant tensor:
#      x y z
#    x 1.714280 0.000000 0.000000 
#    y 0.000000 1.665790 0.000000 
#    z 0.000000 0.000000 1.715950 
# 
# From -- ./inp_files/46190.got.cif
#   From: 2010.05.17/outbox.cif.g08.bks.cpg/sg69_24_cif.got.tgz:46190.got - 2010.06.03 19:29:58.
