data_PCOD9513997
_publ_section_title
;
Structure prediction by ZEFSAII (Michael W. Deem and Ramdas Pophale) SiO2 
 PCOD9513997
Probable space group: F M M M
;
_chemical_formula_sum "Si O2"
_cell_formula_units_Z 56
_cell_length_a 18.000000
_cell_length_b 30.000000
_cell_length_c 21.000000
_cell_angle_alpha 90.000000
_cell_angle_beta 90.000000
_cell_angle_gamma 90.000000
_cell_volume 11340.000000
_symmetry_space_group_name_H-M "F M M M"
_symmetry_group_IT_number 69
_symmetry_cell_setting 'orthorhombic'
loop_
_space_group_symop_operation_xyz
x,y,z
-x,-y,z
x,-y,-z
-x,y,-z
-x,-y,-z
x,y,-z
-x,y,z
x,-y,z
x,1/2+y,1/2+z
-x,1/2-y,1/2+z
x,1/2-y,1/2-z
-x,1/2+y,1/2-z
-x,1/2-y,1/2-z
x,1/2+y,1/2-z
-x,1/2+y,1/2+z
x,1/2-y,1/2+z
1/2+x,y,1/2+z
1/2-x,-y,1/2+z
1/2+x,-y,1/2-z
1/2-x,y,1/2-z
1/2-x,-y,1/2-z
1/2+x,y,1/2-z
1/2-x,y,1/2+z
1/2+x,-y,1/2+z
1/2+x,1/2+y,z
1/2-x,1/2-y,z
1/2+x,1/2-y,-z
1/2-x,1/2+y,-z
1/2-x,1/2-y,-z
1/2+x,1/2+y,-z
1/2-x,1/2+y,z
1/2+x,1/2-y,z
loop_
_atom_site_type_symbol
_atom_site_label
_atom_site_fract_x
_atom_site_fract_y
_atom_site_fract_z
Si Si1 0.411034 0.616449 0.369567
Si Si2 0.089780 0.126567 0.776008
Si Si3 0.803332 0.053278 0.571878
Si Si4 0.157027 0.449660 0.636598
Si Si5 0.414968 0.561833 0.000000
Si Si6 0.590415 0.291433 0.572150
Si Si7 0.590778 0.295593 0.865510
Si Si8 0.586104 0.667800 0.000000
O O1 0.500000 0.616238 0.369955
O O2 0.385974 0.620437 0.296523
O O3 0.379554 0.573460 0.404164
O O4 0.384656 0.659595 0.408658
O O5 0.115476 0.085594 0.819737
O O6 0.115502 0.172981 0.808107
O O7 0.000000 0.126980 0.776292
O O8 0.785882 0.068657 0.500000
O O9 0.740221 0.066485 0.622084
O O10 0.804194 0.000000 0.570873
O O11 0.156423 0.500000 0.663398
O O12 0.122212 0.452276 0.565793
O O13 0.500000 0.547777 0.000000
O O14 0.413649 0.615076 0.000000
O O15 0.613731 0.279438 0.500000
O O16 0.500000 0.291566 0.571394
O O17 0.612552 0.255758 0.625940
O O18 0.500000 0.296944 0.863803
O O19 0.617038 0.316526 0.932666
O O20 0.500000 0.683920 0.000000
#
# Coordination Sequence:
#
# PCOD9513997 Si02
#       8
#    32  32  32  32  16  32  32  16
#     4  10  22  38  56  81 112 146 188 237 282 324
#     4  10  21  35  52  81 119 155 188 219 263 332
#     4  10  22  41  62  82 106 138 183 238 291 343
#     4  11  22  36  55  81 112 146 183 226 278 333
#     4  11  19  30  53  85 117 149 181 220 273 327
#     4   9  16  28  51  81 109 139 181 235 285 324
#     4   9  15  26  47  77 112 146 179 219 271 326
#     4   9  14  23  44  76 110 142 176 212 255 311
#
# _framework density 4.9382720000000004
#
# number of rings (size 3 to 8) (size 9 to 14) (size 15 to 20)
#    0.000    2.143    2.857    1.071    0.000    4.286 
#    0.000    6.429    0.000    0.857    0.000    5.000 
#    0.000    0.000    0.000    0.000    0.000    0.000 
#
# Total GULP energy -312087.103424 kJ/mol
# GULP energy per Si atom -5572.983990 kJ/mol
# Density = 0.492703 g / cm^3
# Si number density = 4.938272 Si / 1000 Ang^3
#
#
#
# Elastic Constant Matrix: (Units=GPa)
#
#
# Indices 1 2 3 4 5 6 
#
# 1 12.9444 17.9377 14.4473 0.0000 0.0000 0.0000
# 2 17.9377 19.0535 14.3712 0.0000 0.0000 0.0000
# 3 14.4473 14.3712 44.4133 0.0000 0.0000 0.0000
# 4 0.0000 0.0000 0.0000 10.0728 0.0000 0.0000
# 5 0.0000 0.0000 0.0000 0.0000 14.0368 0.0000
# 6 0.0000 0.0000 0.0000 0.0000 0.0000 30.4389
#
#
#
# Elastic Compliance Matrix: (Units=1/GPa)
#
#
# Indices 1 2 3 4 5 6 
#
# 1 -0.252023 0.232068 0.006889 0.000000 0.000000 0.000000
# 2 0.232068 -0.144264 -0.028809 0.000000 0.000000 0.000000
# 3 0.006889 -0.028809 0.029597 0.000000 0.000000 0.000000
# 4 0.000000 0.000000 0.000000 0.099277 0.000000 0.000000
# 5 0.000000 0.000000 0.000000 0.000000 0.071241 0.000000
# 6 0.000000 0.000000 0.000000 0.000000 0.000000 0.032853
#
#
# Mechanical properties :
#
#
# Convention : Reuss Voigt Hill
#
# Bulk Modulus (GPa) = 18.65492 18.88041 18.76767
# Shear Modulus (GPa) = -8.83790 12.88669 2.02439
#
# Velocity S-wave (km/s) = -2.11752 2.55696 1.01345
# Velocity P-wave (km/s) = 1.86709 4.27742 3.30018
#
# Compressibility (1/GPa) = 0.05360515
#
# Stress axis : x y z
#
# Youngs Moduli (GPa) = -3.96790 -6.93173 33.78742
#
# Poissons Ratio (x) = 1.60863 -0.23277
# Poissons Ratio (y) = 0.92082 0.97339
# Poissons Ratio (z) = 0.02734 -0.19970
#
# Static dielectric constant tensor:
#      x y z
#    x 1.697200 0.000000 0.000000 
#    y 0.000000 1.714400 0.000000 
#    z 0.000000 0.000000 1.675810 
# 
# From -- ./inp_files/31211.got.cif
#   From: 2010.05.17/outbox.ucp.g08.bks.cvg/sg69_16_cif.got.tgz:31211.got - 2010.06.11 16:51:34.
