data_PCOD9513204
_publ_section_title
;
Structure prediction by ZEFSAII (Michael W. Deem and Ramdas Pophale) SiO2 
 PCOD9513204
Probable space group: F M M M
;
_chemical_formula_sum "Si O2"
_cell_formula_units_Z 160
_cell_length_a 14.389798
_cell_length_b 17.807459
_cell_length_c 32.577126
_cell_angle_alpha 90.000000
_cell_angle_beta 90.000000
_cell_angle_gamma 90.000000
_cell_volume 8347.749691
_symmetry_space_group_name_H-M "F M M M"
_symmetry_group_IT_number 69
_symmetry_cell_setting 'orthorhombic'
loop_
_space_group_symop_operation_xyz
x,y,z
-x,-y,z
x,-y,-z
-x,y,-z
-x,-y,-z
x,y,-z
-x,y,z
x,-y,z
x,1/2+y,1/2+z
-x,1/2-y,1/2+z
x,1/2-y,1/2-z
-x,1/2+y,1/2-z
-x,1/2-y,1/2-z
x,1/2+y,1/2-z
-x,1/2+y,1/2+z
x,1/2-y,1/2+z
1/2+x,y,1/2+z
1/2-x,-y,1/2+z
1/2+x,-y,1/2-z
1/2-x,y,1/2-z
1/2-x,-y,1/2-z
1/2+x,y,1/2-z
1/2-x,y,1/2+z
1/2+x,-y,1/2+z
1/2+x,1/2+y,z
1/2-x,1/2-y,z
1/2+x,1/2-y,-z
1/2-x,1/2+y,-z
1/2-x,1/2-y,-z
1/2+x,1/2+y,-z
1/2-x,1/2+y,z
1/2+x,1/2-y,z
loop_
_atom_site_type_symbol
_atom_site_label
_atom_site_fract_x
_atom_site_fract_y
_atom_site_fract_z
Si Si1 0.610207 0.323299 0.277284
Si Si2 0.389484 0.084848 0.300599
Si Si3 0.235779 0.587964 0.061088
Si Si4 0.610342 0.141271 0.500000
Si Si5 0.109525 0.321396 0.000000
Si Si6 0.745242 0.834154 0.145841
O O1 0.500000 0.317977 0.285478
O O2 0.635984 0.250000 0.250000
O O3 0.628557 0.392113 0.246435
O O4 0.666806 0.332255 0.318904
O O5 0.500000 0.089692 0.306546
O O6 0.338149 0.142443 0.330160
O O7 0.358365 0.000000 0.308813
O O8 0.217957 0.500000 0.054304
O O9 0.232990 0.608555 0.108783
O O10 0.334207 0.608573 0.039353
O O11 0.159990 0.639557 0.038381
O O12 0.500000 0.124726 0.500000
O O13 0.622891 0.231577 0.500000
O O14 0.000000 0.336117 0.000000
O O15 0.750000 0.750000 0.128445
#
# Coordination Sequence:
#
# PCOD9513204 Si02
#       6
#    32  32  32  16  16  32
#     4  10  21  39  60  85 118 160 210 256 307 372
#     4  10  22  39  59  85 119 158 202 256 314 370
#     4  11  24  40  60  93 131 163 203 254 307 374
#     4  10  21  42  71  95 122 164 209 253 308 371
#     4  10  21  42  69  91 120 162 203 251 308 371
#     4  12  23  36  61  89 122 162 205 256 310 363
#
# _framework density 19.166841999999999
#
# number of rings (size 3 to 8) (size 9 to 14) (size 15 to 20)
#    0.000    1.400    2.000    4.800    0.000    5.600 
#    0.000    0.000    0.000    0.000    0.000    0.000 
#    0.000    0.000    0.000    0.000    0.000    0.000 
#
# Total GULP energy -223472.845603 kJ/mol
# GULP energy per Si atom -5586.821140 kJ/mol
# Density = 1.912322 g / cm^3
# Si number density = 19.166842 Si / 1000 Ang^3
#
#
#
# Elastic Constant Matrix: (Units=GPa)
#
#
# Indices 1 2 3 4 5 6 
#
# 1 72.1074 15.8864 28.8081 0.0000 0.0000 0.0000
# 2 15.8864 86.2476 10.3601 0.0000 0.0000 0.0000
# 3 28.8081 10.3601 103.8124 0.0000 0.0000 0.0000
# 4 0.0000 0.0000 0.0000 25.1934 0.0000 0.0000
# 5 0.0000 0.0000 0.0000 0.0000 -13.1772 0.0000
# 6 0.0000 0.0000 0.0000 0.0000 0.0000 18.7159
#
#
#
# Elastic Compliance Matrix: (Units=1/GPa)
#
#
# Indices 1 2 3 4 5 6 
#
# 1 0.016096 -0.002458 -0.004221 0.000000 0.000000 0.000000
# 2 -0.002458 0.012110 -0.000527 0.000000 0.000000 0.000000
# 3 -0.004221 -0.000527 0.010857 0.000000 0.000000 0.000000
# 4 0.000000 0.000000 0.000000 0.039693 0.000000 0.000000
# 5 0.000000 0.000000 0.000000 0.000000 -0.075889 0.000000
# 6 0.000000 0.000000 0.000000 0.000000 0.000000 0.053431
#
#
# Mechanical properties :
#
#
# Convention : Reuss Voigt Hill
#
# Bulk Modulus (GPa) = 40.56474 41.36406 40.96440
# Shear Modulus (GPa) = 63.34982 19.95396 41.65189
#
# Velocity S-wave (km/s) = 5.75530 3.23006 4.66673
# Velocity P-wave (km/s) = 8.08546 5.96145 7.10329
#
# Compressibility (1/GPa) = 0.02465195
#
# Stress axis : x y z
#
# Youngs Moduli (GPa) = 62.12635 82.57313 92.10845
#
# Poissons Ratio (x) = 0.20294 0.38883
# Poissons Ratio (y) = 0.15269 0.04850
# Poissons Ratio (z) = 0.26226 0.04348
#
# Static dielectric constant tensor:
#      x y z
#    x 1.658830 0.000000 0.000000 
#    y 0.000000 1.688370 0.000000 
#    z 0.000000 0.000000 1.669320 
# 
# From -- ./inp_files/45698.got.cif
#   From: 2010.05.17/outbox.cif.g08.bks.cpg/sg69_23_cif.got.tgz:45698.got - 2010.06.03 19:29:58.
