data_PCOD9513812
_publ_section_title
;
Structure prediction by ZEFSAII (Michael W. Deem and Ramdas Pophale) SiO2 
 PCOD9513812
Probable space group: F M M M
;
_chemical_formula_sum "Si O2"
_cell_formula_units_Z 104
_cell_length_a 14.693847
_cell_length_b 31.278416
_cell_length_c 12.153876
_cell_angle_alpha 90.000000
_cell_angle_beta 90.000000
_cell_angle_gamma 90.000000
_cell_volume 5585.924559
_symmetry_space_group_name_H-M "F M M M"
_symmetry_group_IT_number 69
_symmetry_cell_setting 'orthorhombic'
loop_
_space_group_symop_operation_xyz
x,y,z
-x,-y,z
x,-y,-z
-x,y,-z
-x,-y,-z
x,y,-z
-x,y,z
x,-y,z
x,1/2+y,1/2+z
-x,1/2-y,1/2+z
x,1/2-y,1/2-z
-x,1/2+y,1/2-z
-x,1/2-y,1/2-z
x,1/2+y,1/2-z
-x,1/2+y,1/2+z
x,1/2-y,1/2+z
1/2+x,y,1/2+z
1/2-x,-y,1/2+z
1/2+x,-y,1/2-z
1/2-x,y,1/2-z
1/2-x,-y,1/2-z
1/2+x,y,1/2-z
1/2-x,y,1/2+z
1/2+x,-y,1/2+z
1/2+x,1/2+y,z
1/2-x,1/2-y,z
1/2+x,1/2-y,-z
1/2-x,1/2+y,-z
1/2-x,1/2-y,-z
1/2+x,1/2+y,-z
1/2-x,1/2+y,z
1/2+x,1/2-y,z
loop_
_atom_site_type_symbol
_atom_site_label
_atom_site_fract_x
_atom_site_fract_y
_atom_site_fract_z
Si Si1 0.000000 0.550960 0.368064
Si Si2 0.355028 0.900752 0.779229
Si Si3 0.250000 0.750000 0.750000
Si Si4 0.109344 0.048135 0.500000
Si Si5 0.102431 0.691381 0.869256
O O1 0.913519 0.574370 0.312559
O O2 0.000000 0.500000 0.341687
O O3 0.000000 0.555466 0.500000
O O4 0.250000 0.896771 0.750000
O O5 0.362107 0.927576 0.890968
O O6 0.392651 0.853649 0.805614
O O7 0.182509 0.721240 0.823842
O O8 0.000000 0.046906 0.500000
O O9 0.145175 0.000000 0.500000
O O10 0.000000 0.709446 0.854216
O O11 0.114536 0.683698 0.000000
#
# Coordination Sequence:
#
# PCOD9513812 Si02
#       5
#    16  32   8  16  32
#     4  11  26  45  63  94 139 179 217 270 333 388
#     4  12  24  42  67  96 131 173 222 271 326 389
#     4  12  24  44  68 100 130 168 212 268 340 408
#     4  11  22  40  68  96 125 171 227 276 322 385
#     4  11  23  43  69  97 129 167 214 270 331 390
#
# _framework density 18.618224999999999
#
# number of rings (size 3 to 8) (size 9 to 14) (size 15 to 20)
#    0.000    0.615    6.154    1.846    2.154    2.462 
#    0.000    0.000    0.000    0.000    0.000    0.000 
#    0.000    0.000    0.000    0.000    0.000    0.000 
#
# Total GULP energy -145309.584856 kJ/mol
# GULP energy per Si atom -5588.830187 kJ/mol
# Density = 1.857585 g / cm^3
# Si number density = 18.618225 Si / 1000 Ang^3
#
#
#
# Elastic Constant Matrix: (Units=GPa)
#
#
# Indices 1 2 3 4 5 6 
#
# 1 155.9769 53.1504 59.8176 0.0000 0.0000 0.0000
# 2 53.1504 119.5182 53.4353 0.0000 0.0000 0.0000
# 3 59.8176 53.4353 115.9381 0.0000 0.0000 0.0000
# 4 0.0000 0.0000 0.0000 34.4252 0.0000 0.0000
# 5 0.0000 0.0000 0.0000 0.0000 26.2800 0.0000
# 6 0.0000 0.0000 0.0000 0.0000 0.0000 38.5106
#
#
#
# Elastic Compliance Matrix: (Units=1/GPa)
#
#
# Indices 1 2 3 4 5 6 
#
# 1 0.008459 -0.002280 -0.003313 0.000000 0.000000 0.000000
# 2 -0.002280 0.011153 -0.003964 0.000000 0.000000 0.000000
# 3 -0.003313 -0.003964 0.012162 0.000000 0.000000 0.000000
# 4 0.000000 0.000000 0.000000 0.029049 0.000000 0.000000
# 5 0.000000 0.000000 0.000000 0.000000 0.038052 0.000000
# 6 0.000000 0.000000 0.000000 0.000000 0.000000 0.025967
#
#
# Mechanical properties :
#
#
# Convention : Reuss Voigt Hill
#
# Bulk Modulus (GPa) = 78.99732 80.47109 79.73420
# Shear Modulus (GPa) = 33.74370 34.84516 34.29443
#
# Velocity S-wave (km/s) = 4.26185 4.33085 4.29649
# Velocity P-wave (km/s) = 8.16946 8.26582 8.21778
#
# Compressibility (1/GPa) = 0.01265866
#
# Stress axis : x y z
#
# Youngs Moduli (GPa) = 118.21825 89.65999 82.22510
#
# Poissons Ratio (x) = 0.20446 0.27244
# Poissons Ratio (y) = 0.26958 0.32593
# Poissons Ratio (z) = 0.39170 0.35541
#
# Static dielectric constant tensor:
#      x y z
#    x 1.625520 0.000000 0.000000 
#    y 0.000000 1.636420 0.000000 
#    z 0.000000 0.000000 1.600420 
# 
# From -- ./inp_files/7443.got.cif
#   From: 2010.05.17/outbox.cif.g08.bks.cpg/sg69_4_cif.got.tgz:7443.got - 2010.06.03 19:29:58.
