data_PCOD9513860
_publ_section_title
;
Structure prediction by ZEFSAII (Michael W. Deem and Ramdas Pophale) SiO2 
 PCOD9513860
Probable space group: F M M M
;
_chemical_formula_sum "Si O2"
_cell_formula_units_Z 176
_cell_length_a 15.219051
_cell_length_b 22.718086
_cell_length_c 25.693389
_cell_angle_alpha 90.000000
_cell_angle_beta 90.000000
_cell_angle_gamma 90.000000
_cell_volume 8883.430395
_symmetry_space_group_name_H-M "F M M M"
_symmetry_group_IT_number 69
_symmetry_cell_setting 'orthorhombic'
loop_
_space_group_symop_operation_xyz
x,y,z
-x,-y,z
x,-y,-z
-x,y,-z
-x,-y,-z
x,y,-z
-x,y,z
x,-y,z
x,1/2+y,1/2+z
-x,1/2-y,1/2+z
x,1/2-y,1/2-z
-x,1/2+y,1/2-z
-x,1/2-y,1/2-z
x,1/2+y,1/2-z
-x,1/2+y,1/2+z
x,1/2-y,1/2+z
1/2+x,y,1/2+z
1/2-x,-y,1/2+z
1/2+x,-y,1/2-z
1/2-x,y,1/2-z
1/2-x,-y,1/2-z
1/2+x,y,1/2-z
1/2-x,y,1/2+z
1/2+x,-y,1/2+z
1/2+x,1/2+y,z
1/2-x,1/2-y,z
1/2+x,1/2-y,-z
1/2-x,1/2+y,-z
1/2-x,1/2-y,-z
1/2+x,1/2+y,-z
1/2-x,1/2+y,z
1/2+x,1/2-y,z
loop_
_atom_site_type_symbol
_atom_site_label
_atom_site_fract_x
_atom_site_fract_y
_atom_site_fract_z
Si Si1 0.643543 0.182963 0.560191
Si Si2 0.750000 0.000000 0.158514
Si Si3 0.356457 0.317037 0.560191
Si Si4 0.901930 0.900035 0.846229
Si Si5 0.356094 0.682177 0.750000
Si Si6 0.598070 0.900035 0.153771
O O1 0.618949 0.172454 0.500000
O O2 0.617185 0.250000 0.573933
O O3 0.750000 0.180910 0.562996
O O4 0.607448 0.135080 0.599558
O O5 0.826923 0.948688 0.158442
O O6 0.673077 0.948688 0.158442
O O7 0.381052 0.327546 0.500000
O O8 0.392552 0.364920 0.599558
O O9 0.888219 0.852436 0.800607
O O10 0.000000 0.924823 0.841944
O O11 0.384380 0.750000 0.750000
O O12 0.250000 0.681030 0.750000
O O13 0.388219 0.647564 0.699393
O O14 0.500000 0.924823 0.158056
#
# Coordination Sequence:
#
# PCOD9513860 Si02
#       6
#    32  16  32  32  32  32
#     4   9  18  37  66  97 130 166 203 254 323 386
#     4  12  26  49  63  86 128 174 219 263 304 362
#     4   9  18  37  66  97 130 166 203 254 323 386
#     4  12  25  42  67  95 125 167 214 261 313 368
#     4  11  23  43  70  98 132 166 197 252 326 383
#     4  12  25  42  67  95 125 167 214 261 313 368
#
# _framework density 19.812166000000001
#
# number of rings (size 3 to 8) (size 9 to 14) (size 15 to 20)
#    0.000    1.273    3.636    3.273    0.000    8.727 
#    0.000    5.455    0.000    2.182    0.000    0.000 
#    0.000    0.000    0.000    0.000    0.000    0.000 
#
# Total GULP energy -244949.854147 kJ/mol
# GULP energy per Si atom -5567.042140 kJ/mol
# Density = 1.976707 g / cm^3
# Si number density = 19.812166 Si / 1000 Ang^3
#
#
#
# Elastic Constant Matrix: (Units=GPa)
#
#
# Indices 1 2 3 4 5 6 
#
# 1 178.1319 79.4059 33.0307 0.0000 0.0000 0.0000
# 2 79.4059 171.3594 67.4279 0.0000 0.0000 0.0000
# 3 33.0307 67.4279 76.5700 0.0000 0.0000 0.0000
# 4 0.0000 0.0000 0.0000 -9.6871 0.0000 0.0000
# 5 0.0000 0.0000 0.0000 0.0000 27.5013 0.0000
# 6 0.0000 0.0000 0.0000 0.0000 0.0000 -40.2463
#
#
#
# Elastic Compliance Matrix: (Units=1/GPa)
#
#
# Indices 1 2 3 4 5 6 
#
# 1 0.007079 -0.003181 -0.000253 0.000000 0.000000 0.000000
# 2 -0.003181 0.010359 -0.007750 0.000000 0.000000 0.000000
# 3 -0.000253 -0.007750 0.019994 0.000000 0.000000 0.000000
# 4 0.000000 0.000000 0.000000 -0.103230 0.000000 0.000000
# 5 0.000000 0.000000 0.000000 0.000000 0.036362 0.000000
# 6 0.000000 0.000000 0.000000 0.000000 0.000000 -0.024847
#
#
# Mechanical properties :
#
#
# Convention : Reuss Voigt Hill
#
# Bulk Modulus (GPa) = 66.38151 87.31003 76.84577
# Shear Modulus (GPa) = -185.91045 11.92670 -86.99187
#
# Velocity S-wave (km/s) = -9.69743 2.45621 -6.63352
# Velocity P-wave (km/s) = 9.58169 7.22555 4.44974
#
# Compressibility (1/GPa) = 0.01506444
#
# Stress axis : x y z
#
# Youngs Moduli (GPa) = 141.27244 96.53196 50.01531
#
# Poissons Ratio (x) = 0.30704 0.01263
# Poissons Ratio (y) = 0.44935 0.38764
# Poissons Ratio (z) = 0.03568 0.74815
#
# Static dielectric constant tensor:
#      x y z
#    x 1.719270 0.000000 0.000000 
#    y 0.000000 1.641550 0.000000 
#    z 0.000000 0.000000 1.690630 
# 
# From -- ./inp_files/35885.got.cif
#   From: 2010.05.17/outbox.cif.g08.bks.cpg/sg69_18_cif.got.tgz:35885.got - 2010.06.03 19:29:58.
