data_PCOD9513731
_publ_section_title
;
Structure prediction by ZEFSAII (Michael W. Deem and Ramdas Pophale) SiO2 
 PCOD9513731
Probable space group: F M M M
;
_chemical_formula_sum "Si O2"
_cell_formula_units_Z 88
_cell_length_a 7.769068
_cell_length_b 25.493355
_cell_length_c 22.383766
_cell_angle_alpha 90.000000
_cell_angle_beta 90.000000
_cell_angle_gamma 90.000000
_cell_volume 4433.319932
_symmetry_space_group_name_H-M "F M M M"
_symmetry_group_IT_number 69
_symmetry_cell_setting 'orthorhombic'
loop_
_space_group_symop_operation_xyz
x,y,z
-x,-y,z
x,-y,-z
-x,y,-z
-x,-y,-z
x,y,-z
-x,y,z
x,-y,z
x,1/2+y,1/2+z
-x,1/2-y,1/2+z
x,1/2-y,1/2-z
-x,1/2+y,1/2-z
-x,1/2-y,1/2-z
x,1/2+y,1/2-z
-x,1/2+y,1/2+z
x,1/2-y,1/2+z
1/2+x,y,1/2+z
1/2-x,-y,1/2+z
1/2+x,-y,1/2-z
1/2-x,y,1/2-z
1/2-x,-y,1/2-z
1/2+x,y,1/2-z
1/2-x,y,1/2+z
1/2+x,-y,1/2+z
1/2+x,1/2+y,z
1/2-x,1/2-y,z
1/2+x,1/2-y,-z
1/2-x,1/2+y,-z
1/2-x,1/2-y,-z
1/2+x,1/2+y,-z
1/2-x,1/2+y,z
1/2+x,1/2-y,z
loop_
_atom_site_type_symbol
_atom_site_label
_atom_site_fract_x
_atom_site_fract_y
_atom_site_fract_z
Si Si1 0.703258 0.189000 0.681662
Si Si2 0.294446 0.500000 0.819589
Si Si3 0.307385 0.596641 0.401078
Si Si4 0.000000 0.407309 0.500000
O O1 0.500000 0.182571 0.674381
O O2 0.750000 0.175042 0.750000
O O3 0.750000 0.250000 0.673222
O O4 0.793333 0.151509 0.634330
O O5 0.500000 0.500000 0.826681
O O6 0.250000 0.500000 0.750000
O O7 0.220155 0.449113 0.852550
O O8 0.500000 0.591546 0.426658
O O9 0.152970 0.592585 0.448246
#
# Coordination Sequence:
#
# PCOD9513731 Si02
#       4
#    32  16  32   8
#     4  11  21  39  66 101 135 173 222 281 344 403
#     4  12  24  44  69 105 140 171 216 276 339 398
#     4  12  25  45  69  98 136 177 226 275 330 397
#     4  12  26  49  68  96 136 180 234 261 328 394
#
# _framework density 19.849685999999998
#
# number of rings (size 3 to 8) (size 9 to 14) (size 15 to 20)
#    0.000    0.364    3.636    7.636    0.000    1.455 
#    0.000    2.727    0.000    0.000    0.000    0.000 
#    0.000    0.000    0.000    0.000    0.000    0.000 
#
# Total GULP energy -122542.608540 kJ/mol
# GULP energy per Si atom -5570.118570 kJ/mol
# Density = 1.980451 g / cm^3
# Si number density = 19.849686 Si / 1000 Ang^3
#
#
#
# Elastic Constant Matrix: (Units=GPa)
#
#
# Indices 1 2 3 4 5 6 
#
# 1 225.7333 24.5590 60.1620 0.0000 0.0000 0.0000
# 2 24.5590 64.1872 59.9233 0.0000 0.0000 0.0000
# 3 60.1620 59.9233 159.9154 0.0000 0.0000 0.0000
# 4 0.0000 0.0000 0.0000 -12.5072 0.0000 0.0000
# 5 0.0000 0.0000 0.0000 0.0000 49.0866 0.0000
# 6 0.0000 0.0000 0.0000 0.0000 0.0000 22.1655
#
#
#
# Elastic Compliance Matrix: (Units=1/GPa)
#
#
# Indices 1 2 3 4 5 6 
#
# 1 0.004926 -0.000238 -0.001764 0.000000 0.000000 0.000000
# 2 -0.000238 0.023973 -0.008894 0.000000 0.000000 0.000000
# 3 -0.001764 -0.008894 0.010250 0.000000 0.000000 0.000000
# 4 0.000000 0.000000 0.000000 -0.079954 0.000000 0.000000
# 5 0.000000 0.000000 0.000000 0.000000 0.020372 0.000000
# 6 0.000000 0.000000 0.000000 0.000000 0.000000 0.045115
#
#
# Mechanical properties :
#
#
# Convention : Reuss Voigt Hill
#
# Bulk Modulus (GPa) = 57.61171 82.12494 69.86833
# Shear Modulus (GPa) = 95.67591 32.09508 63.88550
#
# Velocity S-wave (km/s) = 6.95017 4.02544 5.67931
# Velocity P-wave (km/s) = 9.66920 7.94159 8.84766
#
# Compressibility (1/GPa) = 0.01735758
#
# Stress axis : x y z
#
# Youngs Moduli (GPa) = 203.00231 41.71287 97.56423
#
# Poissons Ratio (x) = 0.00992 0.17211
# Poissons Ratio (y) = 0.04829 0.86772
# Poissons Ratio (z) = 0.35812 0.37099
#
# Static dielectric constant tensor:
#      x y z
#    x 1.707550 0.000000 0.000000 
#    y 0.000000 1.710920 0.000000 
#    z 0.000000 0.000000 1.661760 
# 
# From -- ./inp_files/28362.got.cif
#   From: 2010.05.17/outbox.cif.g08.bks.cpg/sg69_15_cif.got.tgz:28362.got - 2010.06.03 19:29:58.
