data_PCOD9513717
_publ_section_title
;
Structure prediction by ZEFSAII (Michael W. Deem and Ramdas Pophale) SiO2 
 PCOD9513717
Probable space group: F M M M
;
_chemical_formula_sum "Si O2"
_cell_formula_units_Z 160
_cell_length_a 18.211529
_cell_length_b 23.042666
_cell_length_c 20.384851
_cell_angle_alpha 90.000000
_cell_angle_beta 90.000000
_cell_angle_gamma 90.000000
_cell_volume 8554.343315
_symmetry_space_group_name_H-M "F M M M"
_symmetry_group_IT_number 69
_symmetry_cell_setting 'orthorhombic'
loop_
_space_group_symop_operation_xyz
x,y,z
-x,-y,z
x,-y,-z
-x,y,-z
-x,-y,-z
x,y,-z
-x,y,z
x,-y,z
x,1/2+y,1/2+z
-x,1/2-y,1/2+z
x,1/2-y,1/2-z
-x,1/2+y,1/2-z
-x,1/2-y,1/2-z
x,1/2+y,1/2-z
-x,1/2+y,1/2+z
x,1/2-y,1/2+z
1/2+x,y,1/2+z
1/2-x,-y,1/2+z
1/2+x,-y,1/2-z
1/2-x,y,1/2-z
1/2-x,-y,1/2-z
1/2+x,y,1/2-z
1/2-x,y,1/2+z
1/2+x,-y,1/2+z
1/2+x,1/2+y,z
1/2-x,1/2-y,z
1/2+x,1/2-y,-z
1/2-x,1/2+y,-z
1/2-x,1/2-y,-z
1/2+x,1/2+y,-z
1/2-x,1/2+y,z
1/2+x,1/2-y,z
loop_
_atom_site_type_symbol
_atom_site_label
_atom_site_fract_x
_atom_site_fract_y
_atom_site_fract_z
Si Si1 0.324162 0.171365 0.000000
Si Si2 0.418129 0.681517 0.261294
Si Si3 0.186080 0.620730 0.860717
Si Si4 0.672229 0.500000 0.288549
Si Si5 0.412756 0.000000 0.653788
Si Si6 0.351681 0.196098 0.500000
Si Si7 0.138772 0.874072 0.871070
O O1 0.338844 0.135004 0.065559
O O2 0.362607 0.234563 0.000000
O O3 0.236540 0.185024 0.000000
O O4 0.500000 0.665379 0.284679
O O5 0.415787 0.750000 0.250000
O O6 0.356175 0.663866 0.312532
O O7 0.402323 0.649473 0.192889
O O8 0.168800 0.556877 0.833411
O O9 0.273828 0.629745 0.858098
O O10 0.750000 0.500000 0.250000
O O11 0.612956 0.500000 0.230048
O O12 0.381144 0.058374 0.621228
O O13 0.500000 0.000000 0.649751
O O14 0.379930 0.164446 0.434528
#
# Coordination Sequence:
#
# PCOD9513717 Si02
#       7
#    16  32  32  16  16  16  32
#     4   9  20  37  58  92 119 161 201 253 307 358
#     4  11  23  37  56  86 120 157 205 255 309 368
#     4  11  21  37  63  87 123 157 207 256 303 362
#     4  12  20  37  59  93 123 158 206 254 304 360
#     4  12  24  39  60  89 126 159 198 250 309 371
#     4   9  20  37  59  86 126 155 204 251 302 361
#     4  11  21  38  61  88 117 161 202 253 303 367
#
# _framework density 18.703949000000001
#
# number of rings (size 3 to 8) (size 9 to 14) (size 15 to 20)
#    0.000    1.200    4.000    2.400    0.000    4.000 
#    0.000    6.000    0.000    4.800    0.000    2.100 
#    0.000    0.000    0.000    0.000    0.000    0.000 
#
# Total GULP energy -223491.789600 kJ/mol
# GULP energy per Si atom -5587.294740 kJ/mol
# Density = 1.866138 g / cm^3
# Si number density = 18.703949 Si / 1000 Ang^3
#
#
#
# Elastic Constant Matrix: (Units=GPa)
#
#
# Indices 1 2 3 4 5 6 
#
# 1 95.0745 28.8989 26.3260 0.0000 0.0000 0.0000
# 2 28.8989 119.4677 47.3530 0.0000 0.0000 0.0000
# 3 26.3260 47.3530 104.3509 0.0000 0.0000 0.0000
# 4 0.0000 0.0000 0.0000 26.2569 0.0000 0.0000
# 5 0.0000 0.0000 0.0000 0.0000 -8.1262 0.0000
# 6 0.0000 0.0000 0.0000 0.0000 0.0000 48.7456
#
#
#
# Elastic Compliance Matrix: (Units=1/GPa)
#
#
# Indices 1 2 3 4 5 6 
#
# 1 0.011696 -0.002024 -0.002032 0.000000 0.000000 0.000000
# 2 -0.002024 0.010556 -0.004280 0.000000 0.000000 0.000000
# 3 -0.002032 -0.004280 0.012038 0.000000 0.000000 0.000000
# 4 0.000000 0.000000 0.000000 0.038085 0.000000 0.000000
# 5 0.000000 0.000000 0.000000 0.000000 -0.123058 0.000000
# 6 0.000000 0.000000 0.000000 0.000000 0.000000 0.020515
#
#
# Mechanical properties :
#
#
# Convention : Reuss Voigt Hill
#
# Bulk Modulus (GPa) = 56.75842 58.22766 57.49304
# Shear Modulus (GPa) = -655.85474 27.79625 -314.02925
#
# Velocity S-wave (km/s) = -18.74598 3.85920 -12.97147
# Velocity P-wave (km/s) = 20.93173 7.14540 13.91188
#
# Compressibility (1/GPa) = 0.01761853
#
# Stress axis : x y z
#
# Youngs Moduli (GPa) = 85.49968 94.72972 83.07087
#
# Poissons Ratio (x) = 0.19170 0.16883
# Poissons Ratio (y) = 0.17302 0.35553
# Poissons Ratio (z) = 0.17377 0.40542
#
# Static dielectric constant tensor:
#      x y z
#    x 1.645780 0.000000 0.000000 
#    y 0.000000 1.645780 0.000000 
#    z 0.000000 0.000000 1.627880 
# 
# From -- ./inp_files/30874.got.cif
#   From: 2010.05.17/outbox.cif.g08.bks.cpg/sg69_16_cif.got.tgz:30874.got - 2010.06.03 19:29:58.
