data_PCOD9513109
_publ_section_title
;
Structure prediction by ZEFSAII (Michael W. Deem and Ramdas Pophale) SiO2 
 PCOD9513109
Probable space group: F M M M
;
_chemical_formula_sum "Si O2"
_cell_formula_units_Z 176
_cell_length_a 17.545152
_cell_length_b 26.225016
_cell_length_c 20.168601
_cell_angle_alpha 90.000000
_cell_angle_beta 90.000000
_cell_angle_gamma 90.000000
_cell_volume 9280.014850
_symmetry_space_group_name_H-M "F M M M"
_symmetry_group_IT_number 69
_symmetry_cell_setting 'orthorhombic'
loop_
_space_group_symop_operation_xyz
x,y,z
-x,-y,z
x,-y,-z
-x,y,-z
-x,-y,-z
x,y,-z
-x,y,z
x,-y,z
x,1/2+y,1/2+z
-x,1/2-y,1/2+z
x,1/2-y,1/2-z
-x,1/2+y,1/2-z
-x,1/2-y,1/2-z
x,1/2+y,1/2-z
-x,1/2+y,1/2+z
x,1/2-y,1/2+z
1/2+x,y,1/2+z
1/2-x,-y,1/2+z
1/2+x,-y,1/2-z
1/2-x,y,1/2-z
1/2-x,-y,1/2-z
1/2+x,y,1/2-z
1/2-x,y,1/2+z
1/2+x,-y,1/2+z
1/2+x,1/2+y,z
1/2-x,1/2-y,z
1/2+x,1/2-y,-z
1/2-x,1/2+y,-z
1/2-x,1/2-y,-z
1/2+x,1/2+y,-z
1/2-x,1/2+y,z
1/2+x,1/2-y,z
loop_
_atom_site_type_symbol
_atom_site_label
_atom_site_fract_x
_atom_site_fract_y
_atom_site_fract_z
Si Si1 0.000000 0.939403 0.079269
Si Si2 0.275564 0.439893 0.672754
Si Si3 0.588172 0.306627 0.756932
Si Si4 0.140530 0.625773 0.375426
Si Si5 0.588017 0.873579 0.126399
Si Si6 0.838866 0.196117 0.000000
Si Si7 0.155338 0.185760 0.500000
O O1 0.073019 0.914292 0.113474
O O2 0.000000 0.000000 0.087482
O O3 0.000000 0.928573 0.000000
O O4 0.269046 0.500000 0.658875
O O5 0.250000 0.432666 0.750000
O O6 0.218104 0.406087 0.628915
O O7 0.359296 0.419319 0.653973
O O8 0.500000 0.302385 0.780414
O O9 0.620576 0.250000 0.750000
O O10 0.631325 0.342225 0.808370
O O11 0.587952 0.332785 0.685786
O O12 0.135563 0.665825 0.435045
O O13 0.500000 0.888375 0.113085
O O14 0.624740 0.845313 0.063308
O O15 0.868091 0.254366 0.000000
O O16 0.746891 0.190972 0.000000
#
# Coordination Sequence:
#
# PCOD9513109 Si02
#       7
#    16  32  32  32  32  16  16
#     4  11  24  40  61  92 128 167 208 255 317 387
#     4  11  24  43  67  94 126 166 214 274 336 384
#     4  10  21  37  61  92 126 162 206 258 318 385
#     4  12  21  42  62  94 128 165 211 263 321 388
#     4  11  23  43  65  93 127 168 217 270 320 386
#     4  11  24  37  67  94 129 169 214 253 320 390
#     4  11  23  44  61  94 130 170 212 262 318 385
#
# _framework density 18.965487
#
# number of rings (size 3 to 8) (size 9 to 14) (size 15 to 20)
#    0.000    1.000    5.455    1.909    0.000    0.364 
#    3.273    2.273    0.000    1.091    0.000    0.000 
#    0.000    0.000    0.000    0.000    0.000    0.000 
#
# Total GULP energy -245738.111206 kJ/mol
# GULP energy per Si atom -5584.957073 kJ/mol
# Density = 1.892232 g / cm^3
# Si number density = 18.965487 Si / 1000 Ang^3
#
#
#
# Elastic Constant Matrix: (Units=GPa)
#
#
# Indices 1 2 3 4 5 6 
#
# 1 90.7842 38.6179 19.0512 0.0000 0.0000 0.0000
# 2 38.6179 126.3012 43.3582 0.0000 0.0000 0.0000
# 3 19.0512 43.3582 96.8519 0.0000 0.0000 0.0000
# 4 0.0000 0.0000 0.0000 -9.7375 0.0000 0.0000
# 5 0.0000 0.0000 0.0000 0.0000 73.0901 0.0000
# 6 0.0000 0.0000 0.0000 0.0000 0.0000 -7.3235
#
#
#
# Elastic Compliance Matrix: (Units=1/GPa)
#
#
# Indices 1 2 3 4 5 6 
#
# 1 0.012728 -0.003583 -0.000900 0.000000 0.000000 0.000000
# 2 -0.003583 0.010364 -0.003935 0.000000 0.000000 0.000000
# 3 -0.000900 -0.003935 0.012264 0.000000 0.000000 0.000000
# 4 0.000000 0.000000 0.000000 -0.102696 0.000000 0.000000
# 5 0.000000 0.000000 0.000000 0.000000 0.013682 0.000000
# 6 0.000000 0.000000 0.000000 0.000000 0.000000 -0.136546
#
#
# Mechanical properties :
#
#
# Convention : Reuss Voigt Hill
#
# Bulk Modulus (GPa) = 53.99402 57.33244 55.66323
# Shear Modulus (GPa) = -29.90496 25.39982 -2.25257
#
# Velocity S-wave (km/s) = -3.97521 3.66357 -1.09101
# Velocity P-wave (km/s) = 2.73160 6.94198 5.27507
#
# Compressibility (1/GPa) = 0.01852057
#
# Stress axis : x y z
#
# Youngs Moduli (GPa) = 78.56679 96.48884 81.54231
#
# Poissons Ratio (x) = 0.34571 0.07336
# Poissons Ratio (y) = 0.28149 0.32086
# Poissons Ratio (z) = 0.07069 0.37967
#
# Static dielectric constant tensor:
#      x y z
#    x 1.671960 0.000000 0.000000 
#    y 0.000000 1.627270 0.000000 
#    z 0.000000 0.000000 1.634040 
# 
# From -- ./inp_files/23321.got.cif
#   From: 2010.05.17/outbox.cif.g08.bks.cpg/sg69_12_cif.got.tgz:23321.got - 2010.06.03 19:29:58.
