data_PCOD9513448
_publ_section_title
;
Structure prediction by ZEFSAII (Michael W. Deem and Ramdas Pophale) SiO2 
 PCOD9513448
Probable space group: F M M M
;
_chemical_formula_sum "Si O2"
_cell_formula_units_Z 192
_cell_length_a 30.719193
_cell_length_b 13.213423
_cell_length_c 27.089160
_cell_angle_alpha 90.000000
_cell_angle_beta 90.000000
_cell_angle_gamma 90.000000
_cell_volume 10995.644217
_symmetry_space_group_name_H-M "F M M M"
_symmetry_group_IT_number 69
_symmetry_cell_setting 'orthorhombic'
loop_
_space_group_symop_operation_xyz
x,y,z
-x,-y,z
x,-y,-z
-x,y,-z
-x,-y,-z
x,y,-z
-x,y,z
x,-y,z
x,1/2+y,1/2+z
-x,1/2-y,1/2+z
x,1/2-y,1/2-z
-x,1/2+y,1/2-z
-x,1/2-y,1/2-z
x,1/2+y,1/2-z
-x,1/2+y,1/2+z
x,1/2-y,1/2+z
1/2+x,y,1/2+z
1/2-x,-y,1/2+z
1/2+x,-y,1/2-z
1/2-x,y,1/2-z
1/2-x,-y,1/2-z
1/2+x,y,1/2-z
1/2-x,y,1/2+z
1/2+x,-y,1/2+z
1/2+x,1/2+y,z
1/2-x,1/2-y,z
1/2+x,1/2-y,-z
1/2-x,1/2+y,-z
1/2-x,1/2-y,-z
1/2+x,1/2+y,-z
1/2-x,1/2+y,z
1/2+x,1/2-y,z
loop_
_atom_site_type_symbol
_atom_site_label
_atom_site_fract_x
_atom_site_fract_y
_atom_site_fract_z
Si Si1 0.369389 0.691718 0.617073
Si Si2 0.000000 0.624560 0.727063
Si Si3 0.047441 0.878266 0.556967
Si Si4 0.703865 0.692095 0.942635
Si Si5 0.721851 0.500000 0.125654
Si Si6 0.335059 0.000000 0.275703
Si Si7 0.904477 0.327276 0.704739
Si Si8 0.680035 0.500000 0.662491
O O1 0.411547 0.655851 0.587528
O O2 0.334069 0.738264 0.579756
O O3 0.387225 0.772437 0.656092
O O4 0.346942 0.598560 0.645704
O O5 0.000000 0.750000 0.750000
O O6 0.953344 0.628045 0.700324
O O7 0.000000 0.500000 0.748852
O O8 0.051009 0.845396 0.500000
O O9 0.000000 0.844347 0.576430
O O10 0.047121 0.000000 0.557014
O O11 0.750000 0.750000 0.941156
O O12 0.708385 0.596489 0.906743
O O13 0.695244 0.665417 0.000000
O O14 0.698269 0.500000 0.178735
O O15 0.773452 0.500000 0.135597
O O16 0.367672 0.906602 0.280775
O O17 0.313915 0.000000 0.221544
O O18 0.906324 0.250000 0.750000
#
# Coordination Sequence:
#
# PCOD9513448 Si02
#       8
#    32  16  32  32  16  16  32  16
#     4  12  22  39  61  90 124 166 211 257 324 385
#     4  10  22  40  64  96 129 172 223 273 328 387
#     4   9  19  36  58  88 124 160 204 261 325 387
#     4  11  24  41  63  90 122 157 206 262 317 381
#     4  12  24  44  63  90 118 164 209 256 324 375
#     4  12  23  42  63  88 122 166 207 263 314 374
#     4  11  23  39  62  88 127 169 211 262 316 383
#     4  12  25  39  63  92 123 155 215 269 311 393
#
# _framework density 17.461459999999999
#
# number of rings (size 3 to 8) (size 9 to 14) (size 15 to 20)
#    0.000    1.000    6.667    1.500    1.167    0.000 
#    0.000    0.000    1.833    0.000    0.000    0.000 
#    0.000    6.667    0.000    0.000    0.000    0.000 
#
# Total GULP energy -267316.666501 kJ/mol
# GULP energy per Si atom -5569.097219 kJ/mol
# Density = 1.742172 g / cm^3
# Si number density = 17.461460 Si / 1000 Ang^3
#
#
#
# Elastic Constant Matrix: (Units=GPa)
#
#
# Indices 1 2 3 4 5 6 
#
# 1 113.2940 32.3583 56.4587 0.0000 0.0000 0.0000
# 2 32.3583 77.0689 39.6496 0.0000 0.0000 0.0000
# 3 56.4587 39.6496 119.8843 0.0000 0.0000 0.0000
# 4 0.0000 0.0000 0.0000 39.2889 0.0000 0.0000
# 5 0.0000 0.0000 0.0000 0.0000 22.4884 0.0000
# 6 0.0000 0.0000 0.0000 0.0000 0.0000 16.3633
#
#
#
# Elastic Compliance Matrix: (Units=1/GPa)
#
#
# Indices 1 2 3 4 5 6 
#
# 1 0.011936 -0.002554 -0.004777 0.000000 0.000000 0.000000
# 2 -0.002554 0.016182 -0.004149 0.000000 0.000000 0.000000
# 3 -0.004777 -0.004149 0.011963 0.000000 0.000000 0.000000
# 4 0.000000 0.000000 0.000000 0.025452 0.000000 0.000000
# 5 0.000000 0.000000 0.000000 0.000000 0.044467 0.000000
# 6 0.000000 0.000000 0.000000 0.000000 0.000000 0.061113
#
#
# Mechanical properties :
#
#
# Convention : Reuss Voigt Hill
#
# Bulk Modulus (GPa) = 58.40430 63.02004 60.71217
# Shear Modulus (GPa) = 25.02731 27.74684 26.38707
#
# Velocity S-wave (km/s) = 3.78999 3.99059 3.89158
# Velocity P-wave (km/s) = 7.25756 7.57644 7.41871
#
# Compressibility (1/GPa) = 0.01712203
#
# Stress axis : x y z
#
# Youngs Moduli (GPa) = 83.77668 61.79535 83.58998
#
# Poissons Ratio (x) = 0.15784 0.39928
# Poissons Ratio (y) = 0.21399 0.34683
# Poissons Ratio (z) = 0.40017 0.25640
#
# Static dielectric constant tensor:
#      x y z
#    x 1.570520 0.000000 0.000000 
#    y 0.000000 1.600010 0.000000 
#    z 0.000000 0.000000 1.591420 
# 
# From -- ./inp_files/43958.got.cif
#   From: 2010.05.17/outbox.cif.g08.bks.cpg/sg69_22_cif.got.tgz:43958.got - 2010.06.03 19:29:58.
