data_PCOD9513417
_publ_section_title
;
Structure prediction by ZEFSAII (Michael W. Deem and Ramdas Pophale) SiO2 
 PCOD9513417
Probable space group: F M M M
;
_chemical_formula_sum "Si O2"
_cell_formula_units_Z 160
_cell_length_a 27.054976
_cell_length_b 16.061197
_cell_length_c 18.555562
_cell_angle_alpha 90.000000
_cell_angle_beta 90.000000
_cell_angle_gamma 90.000000
_cell_volume 8063.046689
_symmetry_space_group_name_H-M "F M M M"
_symmetry_group_IT_number 69
_symmetry_cell_setting 'orthorhombic'
loop_
_space_group_symop_operation_xyz
x,y,z
-x,-y,z
x,-y,-z
-x,y,-z
-x,-y,-z
x,y,-z
-x,y,z
x,-y,z
x,1/2+y,1/2+z
-x,1/2-y,1/2+z
x,1/2-y,1/2-z
-x,1/2+y,1/2-z
-x,1/2-y,1/2-z
x,1/2+y,1/2-z
-x,1/2+y,1/2+z
x,1/2-y,1/2+z
1/2+x,y,1/2+z
1/2-x,-y,1/2+z
1/2+x,-y,1/2-z
1/2-x,y,1/2-z
1/2-x,-y,1/2-z
1/2+x,y,1/2-z
1/2-x,y,1/2+z
1/2+x,-y,1/2+z
1/2+x,1/2+y,z
1/2-x,1/2-y,z
1/2+x,1/2-y,-z
1/2-x,1/2+y,-z
1/2-x,1/2-y,-z
1/2+x,1/2+y,-z
1/2-x,1/2+y,z
1/2+x,1/2-y,z
loop_
_atom_site_type_symbol
_atom_site_label
_atom_site_fract_x
_atom_site_fract_y
_atom_site_fract_z
Si Si1 0.639454 0.276424 0.413579
Si Si2 0.646112 0.000000 0.581538
Si Si3 0.941408 0.188297 0.817175
Si Si4 0.314704 0.901356 0.182988
Si Si5 0.057903 0.000000 0.168565
Si Si6 0.297106 0.146052 0.657363
O O1 0.637652 0.281136 0.500000
O O2 0.593620 0.223860 0.380509
O O3 0.645579 0.364669 0.372807
O O4 0.688739 0.229204 0.384745
O O5 0.587922 0.000000 0.594461
O O6 0.669326 0.078278 0.619651
O O7 0.660124 0.000000 0.500000
O O8 0.933441 0.250000 0.750000
O O9 0.930064 0.091007 0.797442
O O10 0.000000 0.191944 0.836012
O O11 0.313861 0.852508 0.259164
O O12 0.258952 0.885591 0.154431
O O13 0.320964 0.000000 0.196561
O O14 0.000000 0.000000 0.157942
#
# Coordination Sequence:
#
# PCOD9513417 Si02
#       6
#    32  16  32  32  16  32
#     4  12  26  40  60  92 130 171 206 255 326 381
#     4  12  22  34  61  94 129 162 192 256 329 373
#     4  10  22  42  67  95 126 162 209 262 315 376
#     4  11  23  42  64  88 121 168 222 266 308 369
#     4  10  22  39  65  98 127 161 203 251 318 385
#     4  11  21  41  63  91 120 162 215 260 317 374
#
# _framework density 19.843616000000001
#
# number of rings (size 3 to 8) (size 9 to 14) (size 15 to 20)
#    0.000    1.000    4.000    3.600    0.000    5.000 
#    0.000    2.000    0.000    0.000    0.000    1.400 
#    0.000    0.000    0.000    0.000    0.000    0.000 
#
# Total GULP energy -223236.995824 kJ/mol
# GULP energy per Si atom -5580.924896 kJ/mol
# Density = 1.979845 g / cm^3
# Si number density = 19.843616 Si / 1000 Ang^3
#
#
#
# Elastic Constant Matrix: (Units=GPa)
#
#
# Indices 1 2 3 4 5 6 
#
# 1 61.2916 41.1813 33.1132 0.0000 0.0000 0.0000
# 2 41.1813 118.2700 54.6773 0.0000 0.0000 0.0000
# 3 33.1132 54.6773 121.7701 0.0000 0.0000 0.0000
# 4 0.0000 0.0000 0.0000 98.8079 0.0000 0.0000
# 5 0.0000 0.0000 0.0000 0.0000 16.6541 0.0000
# 6 0.0000 0.0000 0.0000 0.0000 0.0000 28.2700
#
#
#
# Elastic Compliance Matrix: (Units=1/GPa)
#
#
# Indices 1 2 3 4 5 6 
#
# 1 0.022272 -0.006253 -0.003249 0.000000 0.000000 0.000000
# 2 -0.006253 0.012426 -0.003879 0.000000 0.000000 0.000000
# 3 -0.003249 -0.003879 0.010837 0.000000 0.000000 0.000000
# 4 0.000000 0.000000 0.000000 0.010121 0.000000 0.000000
# 5 0.000000 0.000000 0.000000 0.000000 0.060045 0.000000
# 6 0.000000 0.000000 0.000000 0.000000 0.000000 0.035373
#
#
# Mechanical properties :
#
#
# Convention : Reuss Voigt Hill
#
# Bulk Modulus (GPa) = 53.26653 62.14171 57.70412
# Shear Modulus (GPa) = 27.16005 40.23707 33.69856
#
# Velocity S-wave (km/s) = 3.70361 4.50789 4.12540
# Velocity P-wave (km/s) = 6.72238 7.64712 7.19962
#
# Compressibility (1/GPa) = 0.01877351
#
# Stress axis : x y z
#
# Youngs Moduli (GPa) = 44.89939 80.47716 92.27318
#
# Poissons Ratio (x) = 0.50324 0.29977
# Poissons Ratio (y) = 0.28076 0.35793
# Poissons Ratio (z) = 0.14586 0.31217
#
# Static dielectric constant tensor:
#      x y z
#    x 1.722630 0.000000 0.000000 
#    y 0.000000 1.778070 0.000000 
#    z 0.000000 0.000000 1.661680 
# 
# From -- ./inp_files/27523.got.cif
#   From: 2010.05.17/outbox.cif.g08.bks.cpg/sg69_14_cif.got.tgz:27523.got - 2010.06.03 19:29:58.
