data_PCOD9513408
_publ_section_title
;
Structure prediction by ZEFSAII (Michael W. Deem and Ramdas Pophale) SiO2 
 PCOD9513408
Probable space group: F M M M
;
_chemical_formula_sum "Si O2"
_cell_formula_units_Z 80
_cell_length_a 14.844772
_cell_length_b 10.145646
_cell_length_c 23.850836
_cell_angle_alpha 90.000000
_cell_angle_beta 90.000000
_cell_angle_gamma 90.000000
_cell_volume 3592.169679
_symmetry_space_group_name_H-M "F M M M"
_symmetry_group_IT_number 69
_symmetry_cell_setting 'orthorhombic'
loop_
_space_group_symop_operation_xyz
x,y,z
-x,-y,z
x,-y,-z
-x,y,-z
-x,-y,-z
x,y,-z
-x,y,z
x,-y,z
x,1/2+y,1/2+z
-x,1/2-y,1/2+z
x,1/2-y,1/2-z
-x,1/2+y,1/2-z
-x,1/2-y,1/2-z
x,1/2+y,1/2-z
-x,1/2+y,1/2+z
x,1/2-y,1/2+z
1/2+x,y,1/2+z
1/2-x,-y,1/2+z
1/2+x,-y,1/2-z
1/2-x,y,1/2-z
1/2-x,-y,1/2-z
1/2+x,y,1/2-z
1/2-x,y,1/2+z
1/2+x,-y,1/2+z
1/2+x,1/2+y,z
1/2-x,1/2-y,z
1/2+x,1/2-y,-z
1/2-x,1/2+y,-z
1/2-x,1/2-y,-z
1/2+x,1/2+y,-z
1/2-x,1/2+y,z
1/2+x,1/2-y,z
loop_
_atom_site_type_symbol
_atom_site_label
_atom_site_fract_x
_atom_site_fract_y
_atom_site_fract_z
Si Si1 0.842374 0.852915 0.287938
Si Si2 0.105522 0.649742 0.375597
Si Si3 0.170334 0.647529 0.500000
O O1 0.897282 0.750000 0.250000
O O2 0.750000 0.868312 0.250000
O O3 0.843329 0.770832 0.345771
O O4 0.876995 0.000000 0.295832
O O5 0.138562 0.500000 0.359325
O O6 0.115597 0.660803 0.442488
O O7 0.000000 0.655963 0.361781
O O8 0.208938 0.500000 0.500000
O O9 0.250000 0.750000 0.500000
#
# Coordination Sequence:
#
# PCOD9513408 Si02
#       3
#    32  32  16
#     4  10  22  39  62  91 126 166 211 261 314 373
#     4  10  22  42  67  95 129 169 211 259 317 378
#     4  10  23  41  65  97 131 168 210 257 313 379
#
# _framework density 22.270662999999999
#
# number of rings (size 3 to 8) (size 9 to 14) (size 15 to 20)
#    0.000    2.000    0.000    1.800    5.600    8.000 
#    0.000    0.000    0.000    3.600    0.000    0.000 
#    0.000    0.000    0.000    0.000    0.000    0.000 
#
# Total GULP energy -111344.362611 kJ/mol
# GULP energy per Si atom -5567.218131 kJ/mol
# Density = 2.221997 g / cm^3
# Si number density = 22.270663 Si / 1000 Ang^3
#
#
#
# Elastic Constant Matrix: (Units=GPa)
#
#
# Indices 1 2 3 4 5 6 
#
# 1 78.4541 44.6400 22.2653 0.0000 0.0000 0.0000
# 2 44.6400 251.9734 88.3821 0.0000 0.0000 0.0000
# 3 22.2653 88.3821 144.0960 0.0000 0.0000 0.0000
# 4 0.0000 0.0000 0.0000 39.2836 0.0000 0.0000
# 5 0.0000 0.0000 0.0000 0.0000 22.4539 0.0000
# 6 0.0000 0.0000 0.0000 0.0000 0.0000 10.7524
#
#
#
# Elastic Compliance Matrix: (Units=1/GPa)
#
#
# Indices 1 2 3 4 5 6 
#
# 1 0.014253 -0.002233 -0.000833 0.000000 0.000000 0.000000
# 2 -0.002233 0.005406 -0.002971 0.000000 0.000000 0.000000
# 3 -0.000833 -0.002971 0.008891 0.000000 0.000000 0.000000
# 4 0.000000 0.000000 0.000000 0.025456 0.000000 0.000000
# 5 0.000000 0.000000 0.000000 0.000000 0.044536 0.000000
# 6 0.000000 0.000000 0.000000 0.000000 0.000000 0.093002
#
#
# Mechanical properties :
#
#
# Convention : Reuss Voigt Hill
#
# Bulk Modulus (GPa) = 60.69113 87.23312 73.96213
# Shear Modulus (GPa) = 23.91088 35.78040 29.84564
#
# Velocity S-wave (km/s) = 3.28021 4.01261 3.66475
# Velocity P-wave (km/s) = 6.45424 7.79247 7.15471
#
# Compressibility (1/GPa) = 0.01647687
#
# Stress axis : x y z
#
# Youngs Moduli (GPa) = 70.15956 184.96653 112.47633
#
# Poissons Ratio (x) = 0.41304 0.09366
# Poissons Ratio (y) = 0.15667 0.33417
# Poissons Ratio (z) = 0.05842 0.54953
#
# Static dielectric constant tensor:
#      x y z
#    x 1.915970 0.000000 0.000000 
#    y 0.000000 1.901700 0.000000 
#    z 0.000000 0.000000 1.931270 
# 
# From -- ./inp_files/9630.got.cif
#   From: 2010.05.17/outbox.cif.g08.bks.cpg/sg69_5_cif.got.tgz:9630.got - 2010.06.03 19:29:58.
