data_PCOD9513308
_publ_section_title
;
Structure prediction by ZEFSAII (Michael W. Deem and Ramdas Pophale) SiO2 
 PCOD9513308
Probable space group: F M M M
;
_chemical_formula_sum "Si O2"
_cell_formula_units_Z 128
_cell_length_a 23.684018
_cell_length_b 30.999893
_cell_length_c 7.446611
_cell_angle_alpha 90.000000
_cell_angle_beta 90.000000
_cell_angle_gamma 90.000000
_cell_volume 5467.316867
_symmetry_space_group_name_H-M "F M M M"
_symmetry_group_IT_number 69
_symmetry_cell_setting 'orthorhombic'
loop_
_space_group_symop_operation_xyz
x,y,z
-x,-y,z
x,-y,-z
-x,y,-z
-x,-y,-z
x,y,-z
-x,y,z
x,-y,z
x,1/2+y,1/2+z
-x,1/2-y,1/2+z
x,1/2-y,1/2-z
-x,1/2+y,1/2-z
-x,1/2-y,1/2-z
x,1/2+y,1/2-z
-x,1/2+y,1/2+z
x,1/2-y,1/2+z
1/2+x,y,1/2+z
1/2-x,-y,1/2+z
1/2+x,-y,1/2-z
1/2-x,y,1/2-z
1/2-x,-y,1/2-z
1/2+x,y,1/2-z
1/2-x,y,1/2+z
1/2+x,-y,1/2+z
1/2+x,1/2+y,z
1/2-x,1/2-y,z
1/2+x,1/2-y,-z
1/2-x,1/2+y,-z
1/2-x,1/2-y,-z
1/2+x,1/2+y,-z
1/2-x,1/2+y,z
1/2+x,1/2-y,z
loop_
_atom_site_type_symbol
_atom_site_label
_atom_site_fract_x
_atom_site_fract_y
_atom_site_fract_z
Si Si1 0.500000 0.807704 0.222271
Si Si2 0.395366 0.750000 0.250000
Si Si3 0.184175 0.500000 0.789132
Si Si4 0.122166 0.412647 0.291307
Si Si5 0.683126 0.174679 0.716380
Si Si6 0.000000 0.591174 0.292054
O O1 0.444218 0.785108 0.301632
O O2 0.500000 0.857103 0.276520
O O3 0.500000 0.803618 0.000000
O O4 0.349693 0.786006 0.190298
O O5 0.250000 0.500000 0.750000
O O6 0.157721 0.543954 0.716918
O O7 0.174402 0.500000 0.000000
O O8 0.112153 0.401897 0.500000
O O9 0.155820 0.370840 0.222310
O O10 0.060306 0.421435 0.210667
O O11 0.674765 0.180579 0.500000
O O12 0.750000 0.174740 0.750000
O O13 0.000000 0.575979 0.500000
#
# Coordination Sequence:
#
# PCOD9513308 Si02
#       6
#    16  16  16  32  32  16
#     4  11  23  37  63  94 124 164 217 271 318 372
#     4  11  23  40  60  90 127 173 216 260 322 375
#     4  12  26  45  70  99 131 166 208 262 315 378
#     4  10  22  43  69  96 127 168 212 258 314 381
#     4  11  24  41  62  89 126 169 217 266 315 375
#     4  10  21  42  69  94 129 169 208 255 317 384
#
# _framework density 23.411850999999999
#
# number of rings (size 3 to 8) (size 9 to 14) (size 15 to 20)
#    0.000    1.250    2.500    3.000    0.000    9.500 
#    0.000    2.500    0.000    0.000    0.000    0.000 
#    0.000    0.000    0.000    0.000    0.000    0.000 
#
# Total GULP energy -178250.009488 kJ/mol
# GULP energy per Si atom -5570.312796 kJ/mol
# Density = 2.335856 g / cm^3
# Si number density = 23.411851 Si / 1000 Ang^3
#
#
#
# Elastic Constant Matrix: (Units=GPa)
#
#
# Indices 1 2 3 4 5 6 
#
# 1 261.7700 90.6692 0.7970 0.0160 0.0162 0.0029
# 2 90.6692 152.1706 -15.2362 -0.0049 0.0048 0.0381
# 3 0.7970 -15.2362 117.8427 0.0014 0.0044 -0.0170
# 4 0.0160 -0.0049 0.0014 80.3813 -0.0114 0.0369
# 5 0.0162 0.0048 0.0044 -0.0114 8.7823 0.0188
# 6 0.0029 0.0381 -0.0170 0.0369 0.0188 176.9466
#
#
#
# Elastic Compliance Matrix: (Units=1/GPa)
#
#
# Indices 1 2 3 4 5 6 
#
# 1 0.004833 -0.002921 -0.000410 -0.000001 -0.000007 0.000001
# 2 -0.002921 0.008423 0.001109 0.000001 0.000000 -0.000002
# 3 -0.000410 0.001109 0.008632 0.000000 -0.000004 0.000001
# 4 -0.000001 0.000001 0.000000 0.012441 0.000016 -0.000003
# 5 -0.000007 0.000000 -0.000004 0.000016 0.113865 -0.000012
# 6 0.000001 -0.000002 0.000001 -0.000003 -0.000012 0.005651
#
#
# Mechanical properties :
#
#
# Convention : Reuss Voigt Hill
#
# Bulk Modulus (GPa) = 57.32866 76.02705 66.67786
# Shear Modulus (GPa) = 30.46836 83.59226 57.03031
#
# Velocity S-wave (km/s) = 3.61142 5.98186 4.94090
# Velocity P-wave (km/s) = 6.47533 8.95848 7.81615
#
# Compressibility (1/GPa) = 0.01744328
#
# Stress axis : x y z
#
# Youngs Moduli (GPa) = 206.90730 118.72349 115.84773
#
# Poissons Ratio (x) = 0.34677 0.04754
# Poissons Ratio (y) = 0.60434 -0.12845
# Poissons Ratio (z) = 0.08490 -0.13164
#
# Static dielectric constant tensor:
#      x y z
#    x 1.856830 0.000000 0.000000 
#    y 0.000000 1.819070 0.000010 
#    z 0.000000 0.000010 1.908190 
# 
# From -- ./inp_files/4911.got.cif
#   From: 2010.05.17/outbox.cif.g08.bks.cpg/sg69_3_cif.got.tgz:4911.got - 2010.06.03 19:29:58.
