data_PCOD9513795
_publ_section_title
;
Structure prediction by ZEFSAII (Michael W. Deem and Ramdas Pophale) SiO2 
 PCOD9513795
Probable space group: F M M M
;
_chemical_formula_sum "Si O2"
_cell_formula_units_Z 104
_cell_length_a 15.067445
_cell_length_b 14.873254
_cell_length_c 23.509730
_cell_angle_alpha 90.000000
_cell_angle_beta 90.000000
_cell_angle_gamma 90.000000
_cell_volume 5268.576022
_symmetry_space_group_name_H-M "F M M M"
_symmetry_group_IT_number 69
_symmetry_cell_setting 'orthorhombic'
loop_
_space_group_symop_operation_xyz
x,y,z
-x,-y,z
x,-y,-z
-x,y,-z
-x,-y,-z
x,y,-z
-x,y,z
x,-y,z
x,1/2+y,1/2+z
-x,1/2-y,1/2+z
x,1/2-y,1/2-z
-x,1/2+y,1/2-z
-x,1/2-y,1/2-z
x,1/2+y,1/2-z
-x,1/2+y,1/2+z
x,1/2-y,1/2+z
1/2+x,y,1/2+z
1/2-x,-y,1/2+z
1/2+x,-y,1/2-z
1/2-x,y,1/2-z
1/2-x,-y,1/2-z
1/2+x,y,1/2-z
1/2-x,y,1/2+z
1/2+x,-y,1/2+z
1/2+x,1/2+y,z
1/2-x,1/2-y,z
1/2+x,1/2-y,-z
1/2-x,1/2+y,-z
1/2-x,1/2-y,-z
1/2+x,1/2+y,-z
1/2-x,1/2+y,z
1/2+x,1/2-y,z
loop_
_atom_site_type_symbol
_atom_site_label
_atom_site_fract_x
_atom_site_fract_y
_atom_site_fract_z
Si Si1 0.903083 0.100939 0.393884
Si Si2 0.684158 0.000000 0.500000
Si Si3 0.183725 0.331090 0.000000
Si Si4 0.392761 0.500000 0.872530
Si Si5 0.759144 0.642082 0.682712
O O1 0.876762 0.166411 0.444508
O O2 0.827350 0.103143 0.347573
O O3 0.000000 0.121350 0.370165
O O4 0.905099 0.000000 0.418548
O O5 0.750446 0.084174 0.500000
O O6 0.629695 0.000000 0.440489
O O7 0.250000 0.250000 0.000000
O O8 0.500000 0.500000 0.864071
O O9 0.343030 0.412365 0.844140
O O10 0.750000 0.627157 0.750000
O O11 0.750000 0.750000 0.672505
#
# Coordination Sequence:
#
# PCOD9513795 Si02
#       5
#    32   8  16  16  32
#     4  11  22  39  66  96 127 165 217 274 328 390
#     4  12  23  44  63  92 132 168 217 262 321 400
#     4  12  21  39  66  89 129 175 210 265 337 388
#     4  12  26  45  69  98 135 178 220 272 334 398
#     4  11  24  45  69  95 132 176 222 274 330 390
#
# _framework density 19.739678999999999
#
# number of rings (size 3 to 8) (size 9 to 14) (size 15 to 20)
#    0.000    0.615    6.154    2.077    0.000    3.692 
#    0.000    4.615    0.000    0.000    0.000    0.000 
#    0.000    0.000    0.000    0.000    0.000    0.000 
#
# Total GULP energy -145109.756597 kJ/mol
# GULP energy per Si atom -5581.144485 kJ/mol
# Density = 1.969475 g / cm^3
# Si number density = 19.739679 Si / 1000 Ang^3
#
#
#
# Elastic Constant Matrix: (Units=GPa)
#
#
# Indices 1 2 3 4 5 6 
#
# 1 192.4459 47.2337 57.6176 0.0000 0.0000 0.0000
# 2 47.2337 111.1696 26.0760 0.0000 0.0000 0.0000
# 3 57.6176 26.0760 115.2316 0.0000 0.0000 0.0000
# 4 0.0000 0.0000 0.0000 20.0273 0.0000 0.0000
# 5 0.0000 0.0000 0.0000 0.0000 -1.5812 0.0000
# 6 0.0000 0.0000 0.0000 0.0000 0.0000 23.5376
#
#
#
# Elastic Compliance Matrix: (Units=1/GPa)
#
#
# Indices 1 2 3 4 5 6 
#
# 1 0.006556 -0.002130 -0.002796 0.000000 0.000000 0.000000
# 2 -0.002130 0.010191 -0.001241 0.000000 0.000000 0.000000
# 3 -0.002796 -0.001241 0.010357 0.000000 0.000000 0.000000
# 4 0.000000 0.000000 0.000000 0.049932 0.000000 0.000000
# 5 0.000000 0.000000 0.000000 0.000000 -0.632422 0.000000
# 6 0.000000 0.000000 0.000000 0.000000 0.000000 0.042485
#
#
# Mechanical properties :
#
#
# Convention : Reuss Voigt Hill
#
# Bulk Modulus (GPa) = 67.70410 75.63354 71.66882
# Shear Modulus (GPa) = -10.08791 27.59140 8.75174
#
# Velocity S-wave (km/s) = -2.26309 3.74272 2.10789
# Velocity P-wave (km/s) = 5.24826 7.55486 6.50462
#
# Compressibility (1/GPa) = 0.01477015
#
# Stress axis : x y z
#
# Youngs Moduli (GPa) = 152.52835 98.12302 96.55076
#
# Poissons Ratio (x) = 0.20897 0.26998
# Poissons Ratio (y) = 0.32484 0.11985
# Poissons Ratio (z) = 0.42651 0.12180
#
# Static dielectric constant tensor:
#      x y z
#    x 1.670690 0.000000 0.000000 
#    y 0.000000 1.792460 0.000000 
#    z 0.000000 0.000000 1.706320 
# 
# From -- ./inp_files/14129.got.cif
#   From: 2010.05.17/outbox.cif.g08.bks.cpg/sg69_8_cif.got.tgz:14129.got - 2010.06.03 19:29:58.
