data_PCOD9513959
_publ_section_title
;
Structure prediction by ZEFSAII (Michael W. Deem and Ramdas Pophale) SiO2 
 PCOD9513959
Probable space group: F M M M
;
_chemical_formula_sum "Si O2"
_cell_formula_units_Z 144
_cell_length_a 30.050378
_cell_length_b 14.421924
_cell_length_c 14.827345
_cell_angle_alpha 90.000000
_cell_angle_beta 90.000000
_cell_angle_gamma 90.000000
_cell_volume 6425.938055
_symmetry_space_group_name_H-M "F M M M"
_symmetry_group_IT_number 69
_symmetry_cell_setting 'orthorhombic'
loop_
_space_group_symop_operation_xyz
x,y,z
-x,-y,z
x,-y,-z
-x,y,-z
-x,-y,-z
x,y,-z
-x,y,z
x,-y,z
x,1/2+y,1/2+z
-x,1/2-y,1/2+z
x,1/2-y,1/2-z
-x,1/2+y,1/2-z
-x,1/2-y,1/2-z
x,1/2+y,1/2-z
-x,1/2+y,1/2+z
x,1/2-y,1/2+z
1/2+x,y,1/2+z
1/2-x,-y,1/2+z
1/2+x,-y,1/2-z
1/2-x,y,1/2-z
1/2-x,-y,1/2-z
1/2+x,y,1/2-z
1/2-x,y,1/2+z
1/2+x,-y,1/2+z
1/2+x,1/2+y,z
1/2-x,1/2-y,z
1/2+x,1/2-y,-z
1/2-x,1/2+y,-z
1/2-x,1/2-y,-z
1/2+x,1/2+y,-z
1/2-x,1/2+y,z
1/2+x,1/2-y,z
loop_
_atom_site_type_symbol
_atom_site_label
_atom_site_fract_x
_atom_site_fract_y
_atom_site_fract_z
Si Si1 0.734049 0.606494 0.147351
Si Si2 0.827407 0.895546 0.604456
Si Si3 0.000000 0.107804 0.389721
Si Si4 0.911705 0.716206 0.889316
Si Si5 0.634895 0.394410 0.109373
O O1 0.730943 0.500000 0.112169
O O2 0.750000 0.605370 0.250000
O O3 0.778313 0.649125 0.104336
O O4 0.684096 0.641693 0.137335
O O5 0.839048 0.905914 0.500000
O O6 0.867943 0.838587 0.644349
O O7 0.824670 0.000000 0.644247
O O8 0.956098 0.163705 0.360676
O O9 0.000000 0.106521 0.500000
O O10 0.000000 0.000000 0.361143
O O11 0.903129 0.822474 0.862313
O O12 0.912220 0.715998 0.000000
O O13 0.628924 0.500000 0.141605
O O14 0.635600 0.396292 0.000000
#
# Coordination Sequence:
#
# PCOD9513959 Si02
#       5
#    32  32  16  32  32
#     4   9  17  29  45  66  93 125 159 194 232 272
#     4   9  16  27  44  66  92 121 152 187 229 278
#     4   9  16  28  47  71  98 121 144 188 246 289
#     4   9  17  28  44  67  92 119 152 188 232 284
#     4   9  17  30  46  64  91 127 162 195 231 273
#
# _framework density 22.409179999999999
#
# number of rings (size 3 to 8) (size 9 to 14) (size 15 to 20)
#    0.000    3.000    0.000    1.333    0.000    6.222 
#    0.000    6.111    0.000    3.333    0.000    3.111 
#    0.000    7.111    0.000    0.000    0.000    0.000 
#
# Total GULP energy -200729.978801 kJ/mol
# GULP energy per Si atom -5575.832744 kJ/mol
# Density = 2.235818 g / cm^3
# Si number density = 22.409180 Si / 1000 Ang^3
#
#
#
# Elastic Constant Matrix: (Units=GPa)
#
#
# Indices 1 2 3 4 5 6 
#
# 1 177.7295 110.7304 -0.7303 0.0000 0.0000 0.0000
# 2 110.7304 148.8585 4.7355 0.0000 0.0000 0.0000
# 3 -0.7303 4.7355 37.7894 0.0000 0.0000 0.0000
# 4 0.0000 0.0000 0.0000 -0.6724 0.0000 0.0000
# 5 0.0000 0.0000 0.0000 0.0000 -0.2217 0.0000
# 6 0.0000 0.0000 0.0000 0.0000 0.0000 41.1390
#
#
#
# Elastic Compliance Matrix: (Units=1/GPa)
#
#
# Indices 1 2 3 4 5 6 
#
# 1 0.010540 -0.007878 0.001191 0.000000 0.000000 0.000000
# 2 -0.007878 0.012633 -0.001735 0.000000 0.000000 0.000000
# 3 0.001191 -0.001735 0.026703 0.000000 0.000000 0.000000
# 4 0.000000 0.000000 0.000000 -1.487144 0.000000 0.000000
# 5 0.000000 0.000000 0.000000 0.000000 -4.510822 0.000000
# 6 0.000000 0.000000 0.000000 0.000000 0.000000 0.024308
#
#
# Mechanical properties :
#
#
# Convention : Reuss Voigt Hill
#
# Bulk Modulus (GPa) = 30.27472 65.98319 48.12896
# Shear Modulus (GPa) = -0.84804 24.69177 11.92186
#
# Velocity S-wave (km/s) = -0.61584 3.32303 2.30903
# Velocity P-wave (km/s) = 3.61021 6.65071 5.35096
#
# Compressibility (1/GPa) = 0.03303086
#
# Stress axis : x y z
#
# Youngs Moduli (GPa) = 94.88065 79.15736 37.44911
#
# Poissons Ratio (x) = 0.62359 -0.04460
# Poissons Ratio (y) = 0.74746 0.06499
# Poissons Ratio (z) = -0.11299 0.13736
#
# Static dielectric constant tensor:
#      x y z
#    x 1.812030 0.000000 0.000000 
#    y 0.000000 1.888100 0.000000 
#    z 0.000000 0.000000 1.950320 
# 
# From -- ./inp_files/15525.got.cif
#   From: 2010.05.17/outbox.cif.g08.bks.cpg/sg69_8_cif.got.tgz:15525.got - 2010.06.03 19:29:58.
