data_PCOD9513384
_publ_section_title
;
Structure prediction by ZEFSAII (Michael W. Deem and Ramdas Pophale) SiO2 
 PCOD9513384
Probable space group: F M M M
;
_chemical_formula_sum "Si O2"
_cell_formula_units_Z 208
_cell_length_a 21.797967
_cell_length_b 18.296054
_cell_length_c 24.995962
_cell_angle_alpha 90.000000
_cell_angle_beta 90.000000
_cell_angle_gamma 90.000000
_cell_volume 9968.809111
_symmetry_space_group_name_H-M "F M M M"
_symmetry_group_IT_number 69
_symmetry_cell_setting 'orthorhombic'
loop_
_space_group_symop_operation_xyz
x,y,z
-x,-y,z
x,-y,-z
-x,y,-z
-x,-y,-z
x,y,-z
-x,y,z
x,-y,z
x,1/2+y,1/2+z
-x,1/2-y,1/2+z
x,1/2-y,1/2-z
-x,1/2+y,1/2-z
-x,1/2-y,1/2-z
x,1/2+y,1/2-z
-x,1/2+y,1/2+z
x,1/2-y,1/2+z
1/2+x,y,1/2+z
1/2-x,-y,1/2+z
1/2+x,-y,1/2-z
1/2-x,y,1/2-z
1/2-x,-y,1/2-z
1/2+x,y,1/2-z
1/2-x,y,1/2+z
1/2+x,-y,1/2+z
1/2+x,1/2+y,z
1/2-x,1/2-y,z
1/2+x,1/2-y,-z
1/2-x,1/2+y,-z
1/2-x,1/2-y,-z
1/2+x,1/2+y,-z
1/2-x,1/2+y,z
1/2+x,1/2-y,z
loop_
_atom_site_type_symbol
_atom_site_label
_atom_site_fract_x
_atom_site_fract_y
_atom_site_fract_z
Si Si1 0.144338 0.680994 0.061646
Si Si2 0.877119 0.344909 0.562544
Si Si3 0.569524 0.588345 0.772242
Si Si4 0.500000 0.083926 0.434131
Si Si5 0.927409 0.916959 0.645909
Si Si6 0.745245 0.417686 0.085893
Si Si7 0.704474 0.586800 0.205219
O O1 0.144650 0.765098 0.080378
O O2 0.104992 0.635270 0.103919
O O3 0.210850 0.643638 0.062448
O O4 0.121431 0.676331 0.000000
O O5 0.889970 0.335320 0.500000
O O6 0.939766 0.375298 0.586418
O O7 0.823852 0.403890 0.567356
O O8 0.500000 0.615285 0.786224
O O9 0.566730 0.500000 0.779409
O O10 0.579440 0.602180 0.708545
O O11 0.633981 0.615092 0.798171
O O12 0.500000 0.082830 0.500000
O O13 0.500000 0.000000 0.416815
O O14 0.000000 0.917088 0.635321
O O15 0.903727 0.000000 0.639385
O O16 0.765247 0.500000 0.072524
O O17 0.740159 0.408340 0.149553
O O18 0.697157 0.500000 0.217247
O O19 0.750000 0.618667 0.250000
#
# Coordination Sequence:
#
# PCOD9513384 Si02
#       7
#    32  32  32  16  32  32  32
#     4  11  23  36  54  78 113 155 193 232 282 344
#     4  10  22  39  58  80 111 150 191 234 286 345
#     4   8  14  28  50  76 107 143 185 236 291 345
#     4   9  18  36  62  86 107 140 187 237 284 331
#     4   9  18  32  53  82 113 148 191 236 280 333
#     4  11  22  36  56  84 112 145 191 241 290 336
#     4   9  17  30  51  79 110 143 182 233 287 341
#
# _framework density 20.865079999999999
#
# number of rings (size 3 to 8) (size 9 to 14) (size 15 to 20)
#    0.000    2.385    0.000    3.692    1.077    6.769 
#    1.385    0.769    0.000    6.462    0.000    2.154 
#    0.000    0.000    0.000    0.000    0.000    0.000 
#
# Total GULP energy -290069.990992 kJ/mol
# GULP energy per Si atom -5578.269058 kJ/mol
# Density = 2.081759 g / cm^3
# Si number density = 20.865080 Si / 1000 Ang^3
#
#
#
# Elastic Constant Matrix: (Units=GPa)
#
#
# Indices 1 2 3 4 5 6 
#
# 1 81.1565 29.0049 15.4710 0.0000 0.0000 0.0000
# 2 29.0049 75.2014 16.1092 0.0000 0.0000 0.0000
# 3 15.4710 16.1092 32.9654 0.0000 0.0000 0.0000
# 4 0.0000 0.0000 0.0000 -10.6384 0.0000 0.0000
# 5 0.0000 0.0000 0.0000 0.0000 35.2277 0.0000
# 6 0.0000 0.0000 0.0000 0.0000 0.0000 -52.0230
#
#
#
# Elastic Compliance Matrix: (Units=1/GPa)
#
#
# Indices 1 2 3 4 5 6 
#
# 1 0.014911 -0.004749 -0.004677 0.000000 0.000000 0.000000
# 2 -0.004749 0.016365 -0.005768 0.000000 0.000000 0.000000
# 3 -0.004677 -0.005768 0.035349 0.000000 0.000000 0.000000
# 4 0.000000 0.000000 0.000000 -0.093999 0.000000 0.000000
# 5 0.000000 0.000000 0.000000 0.000000 0.028387 0.000000
# 6 0.000000 0.000000 0.000000 0.000000 0.000000 -0.019222
#
#
# Mechanical properties :
#
#
# Convention : Reuss Voigt Hill
#
# Bulk Modulus (GPa) = 27.59720 34.49927 31.04824
# Shear Modulus (GPa) = 206.12426 3.09581 104.61004
#
# Velocity S-wave (km/s) = 9.95005 1.21941 7.08839
# Velocity P-wave (km/s) = 12.05238 4.30731 9.05022
#
# Compressibility (1/GPa) = 0.03623556
#
# Stress axis : x y z
#
# Youngs Moduli (GPa) = 67.06555 61.10603 28.28966
#
# Poissons Ratio (x) = 0.29020 0.13231
# Poissons Ratio (y) = 0.31851 0.16318
# Poissons Ratio (z) = 0.31367 0.35247
#
# Static dielectric constant tensor:
#      x y z
#    x 1.786420 0.000000 0.000000 
#    y 0.000000 1.712530 0.000000 
#    z 0.000000 0.000000 1.789400 
# 
# From -- ./inp_files/42719.got.cif
#   From: 2010.05.17/outbox.cif.g08.bks.cpg/sg69_22_cif.got.tgz:42719.got - 2010.06.03 19:29:58.
