data_PCOD9513856
_publ_section_title
;
Structure prediction by ZEFSAII (Michael W. Deem and Ramdas Pophale) SiO2 
 PCOD9513856
Probable space group: F M M M
;
_chemical_formula_sum "Si O2"
_cell_formula_units_Z 88
_cell_length_a 14.371910
_cell_length_b 13.547339
_cell_length_c 19.432277
_cell_angle_alpha 90.000000
_cell_angle_beta 90.000000
_cell_angle_gamma 90.000000
_cell_volume 3783.486423
_symmetry_space_group_name_H-M "F M M M"
_symmetry_group_IT_number 69
_symmetry_cell_setting 'orthorhombic'
loop_
_space_group_symop_operation_xyz
x,y,z
-x,-y,z
x,-y,-z
-x,y,-z
-x,-y,-z
x,y,-z
-x,y,z
x,-y,z
x,1/2+y,1/2+z
-x,1/2-y,1/2+z
x,1/2-y,1/2-z
-x,1/2+y,1/2-z
-x,1/2-y,1/2-z
x,1/2+y,1/2-z
-x,1/2+y,1/2+z
x,1/2-y,1/2+z
1/2+x,y,1/2+z
1/2-x,-y,1/2+z
1/2+x,-y,1/2-z
1/2-x,y,1/2-z
1/2-x,-y,1/2-z
1/2+x,y,1/2-z
1/2-x,y,1/2+z
1/2+x,-y,1/2+z
1/2+x,1/2+y,z
1/2-x,1/2-y,z
1/2+x,1/2-y,-z
1/2-x,1/2+y,-z
1/2-x,1/2-y,-z
1/2+x,1/2+y,-z
1/2-x,1/2+y,z
1/2+x,1/2-y,z
loop_
_atom_site_type_symbol
_atom_site_label
_atom_site_fract_x
_atom_site_fract_y
_atom_site_fract_z
Si Si1 0.500000 0.500000 0.598154
Si Si2 0.176757 0.331558 0.642589
Si Si3 0.389156 0.000000 0.254047
Si Si4 0.500000 0.280480 0.417731
Si Si5 0.701981 0.000000 0.897475
O O1 0.500000 0.615255 0.622528
O O2 0.603264 0.500000 0.566806
O O3 0.250000 0.250000 0.667561
O O4 0.137865 0.403388 0.702009
O O5 0.091101 0.279497 0.604994
O O6 0.235371 0.404035 0.592740
O O7 0.332281 0.000000 0.183042
O O8 0.500000 0.000000 0.242454
O O9 0.500000 0.297721 0.500000
#
# Coordination Sequence:
#
# PCOD9513856 Si02
#       5
#     8  32  16  16  16
#     4  12  23  48  64 104 136 172 231 298 332 412
#     4  11  23  44  67  99 141 175 233 278 334 414
#     4  11  23  42  69 104 148 181 217 272 342 414
#     4  12  27  48  72  96 132 181 237 296 349 389
#     4  11  24  42  69 102 146 177 214 278 345 410
#
# _framework density 23.258972
#
# number of rings (size 3 to 8) (size 9 to 14) (size 15 to 20)
#    0.000    0.727    6.364    2.455    0.000    3.636 
#    0.000   10.909    0.000    0.000    0.000    0.000 
#    0.000    0.000    0.000    0.000    0.000    0.000 
#
# Total GULP energy -122972.375089 kJ/mol
# GULP energy per Si atom -5589.653413 kJ/mol
# Density = 2.320603 g / cm^3
# Si number density = 23.258972 Si / 1000 Ang^3
#
#
#
# Elastic Constant Matrix: (Units=GPa)
#
#
# Indices 1 2 3 4 5 6 
#
# 1 230.0104 102.3551 36.9167 0.0000 0.0000 0.0000
# 2 102.3551 199.8532 43.5092 0.0000 0.0000 0.0000
# 3 36.9167 43.5092 104.3378 0.0000 0.0000 0.0000
# 4 0.0000 0.0000 0.0000 26.9105 0.0000 0.0000
# 5 0.0000 0.0000 0.0000 0.0000 479.2198 0.0000
# 6 0.0000 0.0000 0.0000 0.0000 0.0000 51.5309
#
#
#
# Elastic Compliance Matrix: (Units=1/GPa)
#
#
# Indices 1 2 3 4 5 6 
#
# 1 0.005703 -0.002730 -0.000880 0.000000 0.000000 0.000000
# 2 -0.002730 0.006810 -0.001874 0.000000 0.000000 0.000000
# 3 -0.000880 -0.001874 0.010677 0.000000 0.000000 0.000000
# 4 0.000000 0.000000 0.000000 0.037160 0.000000 0.000000
# 5 0.000000 0.000000 0.000000 0.000000 0.002087 0.000000
# 6 0.000000 0.000000 0.000000 0.000000 0.000000 0.019406
#
#
# Mechanical properties :
#
#
# Convention : Reuss Voigt Hill
#
# Bulk Modulus (GPa) = 81.80849 99.97374 90.89112
# Shear Modulus (GPa) = 51.60831 134.96025 93.28428
#
# Velocity S-wave (km/s) = 4.71558 7.62568 6.33986
# Velocity P-wave (km/s) = 8.05594 10.98230 9.63092
#
# Compressibility (1/GPa) = 0.01222367
#
# Stress axis : x y z
#
# Youngs Moduli (GPa) = 175.33184 146.85278 93.65977
#
# Poissons Ratio (x) = 0.40084 0.08240
# Poissons Ratio (y) = 0.47857 0.17550
# Poissons Ratio (z) = 0.15425 0.27518
#
# Static dielectric constant tensor:
#      x y z
#    x 1.855350 0.000000 0.000000 
#    y 0.000000 1.842290 0.000000 
#    z 0.000000 0.000000 2.093040 
# 
# From -- ./inp_files/35403.got.cif
#   From: 2010.05.17/outbox.cif.g08.bks.cpg/sg69_18_cif.got.tgz:35403.got - 2010.06.03 19:29:58.
