data_PCOD9513223
_publ_section_title
;
Structure prediction by ZEFSAII (Michael W. Deem and Ramdas Pophale) SiO2 
 PCOD9513223
Probable space group: F M M M
;
_chemical_formula_sum "Si O2"
_cell_formula_units_Z 240
_cell_length_a 27.288310
_cell_length_b 21.008318
_cell_length_c 21.538078
_cell_angle_alpha 90.000000
_cell_angle_beta 90.000000
_cell_angle_gamma 90.000000
_cell_volume 12347.381537
_symmetry_space_group_name_H-M "F M M M"
_symmetry_group_IT_number 69
_symmetry_cell_setting 'orthorhombic'
loop_
_space_group_symop_operation_xyz
x,y,z
-x,-y,z
x,-y,-z
-x,y,-z
-x,-y,-z
x,y,-z
-x,y,z
x,-y,z
x,1/2+y,1/2+z
-x,1/2-y,1/2+z
x,1/2-y,1/2-z
-x,1/2+y,1/2-z
-x,1/2-y,1/2-z
x,1/2+y,1/2-z
-x,1/2+y,1/2+z
x,1/2-y,1/2+z
1/2+x,y,1/2+z
1/2-x,-y,1/2+z
1/2+x,-y,1/2-z
1/2-x,y,1/2-z
1/2-x,-y,1/2-z
1/2+x,y,1/2-z
1/2-x,y,1/2+z
1/2+x,-y,1/2+z
1/2+x,1/2+y,z
1/2-x,1/2-y,z
1/2+x,1/2-y,-z
1/2-x,1/2+y,-z
1/2-x,1/2-y,-z
1/2+x,1/2+y,-z
1/2-x,1/2+y,z
1/2+x,1/2-y,z
loop_
_atom_site_type_symbol
_atom_site_label
_atom_site_fract_x
_atom_site_fract_y
_atom_site_fract_z
Si Si1 0.559171 0.354079 0.626023
Si Si2 0.614597 0.740860 0.929505
Si Si3 0.788094 0.191677 0.604646
Si Si4 0.778184 0.929653 0.928678
Si Si5 0.695114 0.825260 0.760952
Si Si6 0.559647 0.573024 0.500000
Si Si7 0.866754 0.383399 0.650800
Si Si8 0.557598 0.426309 0.752225
O O1 0.500000 0.353494 0.625323
O O2 0.580337 0.284385 0.613547
O O3 0.575429 0.393344 0.564207
O O4 0.573445 0.384274 0.692407
O O5 0.667938 0.775143 0.932131
O O6 0.619968 0.672904 0.896714
O O7 0.595760 0.736438 0.000000
O O8 0.750000 0.250000 0.618443
O O9 0.757449 0.131467 0.579821
O O10 0.814057 0.166306 0.666842
O O11 0.825210 0.923744 0.884237
O O12 0.755017 0.000000 0.918576
O O13 0.794983 0.927142 0.000000
O O14 0.694693 0.750000 0.750000
O O15 0.750000 0.849988 0.750000
O O16 0.660189 0.854512 0.710768
O O17 0.575626 0.500000 0.500000
O O18 0.500000 0.574159 0.500000
O O19 0.913155 0.415638 0.683716
O O20 0.500000 0.413598 0.762404
O O21 0.563288 0.500000 0.733577
#
# Coordination Sequence:
#
# PCOD9513223 Si02
#       8
#    32  32  32  32  32  16  32  32
#     4  10  21  39  62  89 124 161 199 254 313 373
#     4  12  24  37  60  94 128 165 211 257 311 376
#     4  12  21  38  63  88 120 164 209 253 309 371
#     4  11  24  42  62  88 124 166 213 263 313 370
#     4  11  17  34  57  88 121 154 192 247 299 359
#     4   9  16  32  60  86 113 158 203 235 288 371
#     4  12  23  38  64  90 122 165 210 255 315 371
#     4  10  23  43  65  90 121 160 209 260 316 383
#
# _framework density 19.43732
#
# number of rings (size 3 to 8) (size 9 to 14) (size 15 to 20)
#    0.000    1.000    6.000    2.400    0.000    2.667 
#    0.000    6.000    0.000    1.200    0.000    4.667 
#    0.000    0.000    0.000    0.000    0.000    0.000 
#
# Total GULP energy -334695.483729 kJ/mol
# GULP energy per Si atom -5578.258062 kJ/mol
# Density = 1.939308 g / cm^3
# Si number density = 19.437320 Si / 1000 Ang^3
#
#
#
# Elastic Constant Matrix: (Units=GPa)
#
#
# Indices 1 2 3 4 5 6 
#
# 1 41.2185 13.9961 19.4390 0.0000 0.0000 0.0000
# 2 13.9961 83.4416 19.5560 0.0000 0.0000 0.0000
# 3 19.4390 19.5560 108.1752 0.0000 0.0000 0.0000
# 4 0.0000 0.0000 0.0000 -0.7679 0.0000 0.0000
# 5 0.0000 0.0000 0.0000 0.0000 -13.2299 0.0000
# 6 0.0000 0.0000 0.0000 0.0000 0.0000 29.0573
#
#
#
# Elastic Compliance Matrix: (Units=1/GPa)
#
#
# Indices 1 2 3 4 5 6 
#
# 1 0.027510 -0.003609 -0.004291 0.000000 0.000000 0.000000
# 2 -0.003609 0.012988 -0.001700 0.000000 0.000000 0.000000
# 3 -0.004291 -0.001700 0.010323 0.000000 0.000000 0.000000
# 4 0.000000 0.000000 0.000000 -1.302296 0.000000 0.000000
# 5 0.000000 0.000000 0.000000 0.000000 -0.075586 0.000000
# 6 0.000000 0.000000 0.000000 0.000000 0.000000 0.034415
#
#
# Mechanical properties :
#
#
# Convention : Reuss Voigt Hill
#
# Bulk Modulus (GPa) = 31.62355 37.64638 34.63496
# Shear Modulus (GPa) = -3.95912 15.00153 5.52120
#
# Velocity S-wave (km/s) = -1.42874 2.78112 1.68721
# Velocity P-wave (km/s) = 3.68553 5.45188 4.65328
#
# Compressibility (1/GPa) = 0.03162201
#
# Stress axis : x y z
#
# Youngs Moduli (GPa) = 36.35035 76.99390 96.87467
#
# Poissons Ratio (x) = 0.27785 0.41570
# Poissons Ratio (y) = 0.13118 0.16464
# Poissons Ratio (z) = 0.15598 0.13085
#
# Static dielectric constant tensor:
#      x y z
#    x 1.711890 0.000000 0.000000 
#    y 0.000000 1.703440 0.000000 
#    z 0.000000 0.000000 1.683980 
# 
# From -- ./inp_files/33573.got.cif
#   From: 2010.05.17/outbox.cif.g08.bks.cpg/sg69_17_cif.got.tgz:33573.got - 2010.06.03 19:29:58.
