data_PCOD9513171
_publ_section_title
;
Structure prediction by ZEFSAII (Michael W. Deem and Ramdas Pophale) SiO2 
 PCOD9513171
Probable space group: F M M M
;
_chemical_formula_sum "Si O2"
_cell_formula_units_Z 208
_cell_length_a 20.700183
_cell_length_b 18.630822
_cell_length_c 28.375358
_cell_angle_alpha 90.000000
_cell_angle_beta 90.000000
_cell_angle_gamma 90.000000
_cell_volume 10943.280997
_symmetry_space_group_name_H-M "F M M M"
_symmetry_group_IT_number 69
_symmetry_cell_setting 'orthorhombic'
loop_
_space_group_symop_operation_xyz
x,y,z
-x,-y,z
x,-y,-z
-x,y,-z
-x,-y,-z
x,y,-z
-x,y,z
x,-y,z
x,1/2+y,1/2+z
-x,1/2-y,1/2+z
x,1/2-y,1/2-z
-x,1/2+y,1/2-z
-x,1/2-y,1/2-z
x,1/2+y,1/2-z
-x,1/2+y,1/2+z
x,1/2-y,1/2+z
1/2+x,y,1/2+z
1/2-x,-y,1/2+z
1/2+x,-y,1/2-z
1/2-x,y,1/2-z
1/2-x,-y,1/2-z
1/2+x,y,1/2-z
1/2-x,y,1/2+z
1/2+x,-y,1/2+z
1/2+x,1/2+y,z
1/2-x,1/2-y,z
1/2+x,1/2-y,-z
1/2-x,1/2+y,-z
1/2-x,1/2-y,-z
1/2+x,1/2+y,-z
1/2-x,1/2+y,z
1/2+x,1/2-y,z
loop_
_atom_site_type_symbol
_atom_site_label
_atom_site_fract_x
_atom_site_fract_y
_atom_site_fract_z
Si Si1 0.406850 0.844087 0.867290
Si Si2 0.270021 0.584106 0.370602
Si Si3 0.425546 0.318093 0.101485
Si Si4 0.500000 0.913715 0.943729
Si Si5 0.639858 0.415363 0.819707
Si Si6 0.790356 0.820548 0.054668
Si Si7 0.927634 0.666170 0.240993
O O1 0.332771 0.867438 0.865984
O O2 0.420872 0.760676 0.875826
O O3 0.440642 0.884929 0.911345
O O4 0.429526 0.855948 0.813678
O O5 0.286640 0.500000 0.370992
O O6 0.215088 0.597477 0.331536
O O7 0.235511 0.610107 0.418254
O O8 0.500000 0.330103 0.086090
O O9 0.403043 0.375146 0.140788
O O10 0.367283 0.315992 0.063623
O O11 0.500000 0.000000 0.943711
O O12 0.500000 0.891314 0.000000
O O13 0.628281 0.500000 0.821941
O O14 0.620714 0.383066 0.769814
O O15 0.750000 0.750000 0.071978
O O16 0.776780 0.826626 0.000000
O O17 0.910840 0.750000 0.250000
O O18 0.000000 0.656941 0.260806
#
# Coordination Sequence:
#
# PCOD9513171 Si02
#       7
#    32  32  32  16  32  32  32
#     4  12  22  41  66  93 127 173 217 267 326 388
#     4  10  23  42  63  89 127 169 215 268 325 387
#     4  11  21  38  63  92 130 166 209 264 323 387
#     4  11  26  44  61  92 135 175 220 273 334 394
#     4  10  23  41  63  93 128 171 213 259 321 384
#     4  10  21  38  62  90 119 160 215 266 319 386
#     4  11  22  39  64  94 131 169 214 266 319 384
#
# _framework density 19.007097000000002
#
# number of rings (size 3 to 8) (size 9 to 14) (size 15 to 20)
#    0.000    1.308    4.615    0.923    0.000    4.923 
#    0.000    2.308    0.000    0.000    0.000    4.308 
#    0.000    0.000    0.000    0.000    0.000    0.000 
#
# Total GULP energy -289976.256110 kJ/mol
# GULP energy per Si atom -5576.466464 kJ/mol
# Density = 1.896384 g / cm^3
# Si number density = 19.007097 Si / 1000 Ang^3
#
#
#
# Elastic Constant Matrix: (Units=GPa)
#
#
# Indices 1 2 3 4 5 6 
#
# 1 128.5102 52.5583 29.8095 0.0000 0.0000 0.0000
# 2 52.5583 73.3329 40.4412 0.0000 0.0000 0.0000
# 3 29.8095 40.4412 106.3569 0.0000 0.0000 0.0000
# 4 0.0000 0.0000 0.0000 16.5214 0.0000 0.0000
# 5 0.0000 0.0000 0.0000 0.0000 31.7567 0.0000
# 6 0.0000 0.0000 0.0000 0.0000 0.0000 29.7548
#
#
#
# Elastic Compliance Matrix: (Units=1/GPa)
#
#
# Indices 1 2 3 4 5 6 
#
# 1 0.011009 -0.007831 -0.000108 0.000000 0.000000 0.000000
# 2 -0.007831 0.022825 -0.006484 0.000000 0.000000 0.000000
# 3 -0.000108 -0.006484 0.011898 0.000000 0.000000 0.000000
# 4 0.000000 0.000000 0.000000 0.060528 0.000000 0.000000
# 5 0.000000 0.000000 0.000000 0.000000 0.031489 0.000000
# 6 0.000000 0.000000 0.000000 0.000000 0.000000 0.033608
#
#
# Mechanical properties :
#
#
# Convention : Reuss Voigt Hill
#
# Bulk Modulus (GPa) = 59.22022 61.53533 60.37777
# Shear Modulus (GPa) = 24.29172 27.96597 26.12884
#
# Velocity S-wave (km/s) = 3.57884 3.83997 3.71170
# Velocity P-wave (km/s) = 6.94996 7.21843 7.08547
#
# Compressibility (1/GPa) = 0.01688612
#
# Stress axis : x y z
#
# Youngs Moduli (GPa) = 90.83306 43.81230 84.04716
#
# Poissons Ratio (x) = 0.34309 0.00908
# Poissons Ratio (y) = 0.71130 0.54497
# Poissons Ratio (z) = 0.00981 0.28408
#
# Static dielectric constant tensor:
#      x y z
#    x 1.688330 0.000000 0.000000 
#    y 0.000000 1.642490 0.000000 
#    z 0.000000 0.000000 1.665090 
# 
# From -- ./inp_files/42734.got.cif
#   From: 2010.05.17/outbox.cif.g08.bks.cpg/sg69_22_cif.got.tgz:42734.got - 2010.06.03 19:29:58.
