data_PCOD9513886
_publ_section_title
;
Structure prediction by ZEFSAII (Michael W. Deem and Ramdas Pophale) SiO2 
 PCOD9513886
Probable space group: F M M M
;
_chemical_formula_sum "Si O2"
_cell_formula_units_Z 136
_cell_length_a 19.227248
_cell_length_b 23.084332
_cell_length_c 14.667286
_cell_angle_alpha 90.000000
_cell_angle_beta 90.000000
_cell_angle_gamma 90.000000
_cell_volume 6510.048142
_symmetry_space_group_name_H-M "F M M M"
_symmetry_group_IT_number 69
_symmetry_cell_setting 'orthorhombic'
loop_
_space_group_symop_operation_xyz
x,y,z
-x,-y,z
x,-y,-z
-x,y,-z
-x,-y,-z
x,y,-z
-x,y,z
x,-y,z
x,1/2+y,1/2+z
-x,1/2-y,1/2+z
x,1/2-y,1/2-z
-x,1/2+y,1/2-z
-x,1/2-y,1/2-z
x,1/2+y,1/2-z
-x,1/2+y,1/2+z
x,1/2-y,1/2+z
1/2+x,y,1/2+z
1/2-x,-y,1/2+z
1/2+x,-y,1/2-z
1/2-x,y,1/2-z
1/2-x,-y,1/2-z
1/2+x,y,1/2-z
1/2-x,y,1/2+z
1/2+x,-y,1/2+z
1/2+x,1/2+y,z
1/2-x,1/2-y,z
1/2+x,1/2-y,-z
1/2-x,1/2+y,-z
1/2-x,1/2-y,-z
1/2+x,1/2+y,-z
1/2-x,1/2+y,z
1/2+x,1/2-y,z
loop_
_atom_site_type_symbol
_atom_site_label
_atom_site_fract_x
_atom_site_fract_y
_atom_site_fract_z
Si Si1 0.646982 0.878512 0.395218
Si Si2 0.420947 0.430866 0.721736
Si Si3 0.804382 0.135471 0.390856
Si Si4 0.382107 0.254807 0.645357
Si Si5 0.000000 0.714158 0.000000
O O1 0.636827 0.896908 0.500000
O O2 0.597711 0.910187 0.323648
O O3 0.727475 0.886879 0.367343
O O4 0.633771 0.809707 0.388871
O O5 0.500000 0.413453 0.698503
O O6 0.416136 0.500000 0.715781
O O7 0.364747 0.401554 0.656034
O O8 0.809765 0.133453 0.500000
O O9 0.816957 0.201429 0.359054
O O10 0.405317 0.250000 0.750000
O O11 0.439523 0.281872 0.579507
#
# Coordination Sequence:
#
# PCOD9513886 Si02
#       5
#    32  32  32  32   8
#     4  11  24  43  69  99 135 175 216 269 331 395
#     4  11  27  46  67  96 130 172 225 279 332 389
#     4  11  24  43  69  99 135 175 216 269 331 395
#     4  12  24  38  66 103 137 177 217 260 330 392
#     4  12  26  40  58 102 150 184 208 272 312 408
#
# _framework density 20.890782000000002
#
# number of rings (size 3 to 8) (size 9 to 14) (size 15 to 20)
#    0.000    0.706    4.706    1.765    3.294    6.588 
#    0.000    4.706    0.000    0.000    0.000    0.000 
#    0.000    0.000    0.000    0.000    0.000    0.000 
#
# Total GULP energy -189721.032001 kJ/mol
# GULP energy per Si atom -5580.030353 kJ/mol
# Density = 2.084323 g / cm^3
# Si number density = 20.890782 Si / 1000 Ang^3
#
#
#
# Elastic Constant Matrix: (Units=GPa)
#
#
# Indices 1 2 3 4 5 6 
#
# 1 65.5294 15.4410 -8.2495 0.0000 0.0000 0.0000
# 2 15.4410 59.9802 -1.0871 0.0000 0.0000 0.0000
# 3 -8.2495 -1.0871 87.7908 0.0000 0.0000 0.0000
# 4 0.0000 0.0000 0.0000 -25.1361 0.0000 0.0000
# 5 0.0000 0.0000 0.0000 0.0000 44.1067 0.0000
# 6 0.0000 0.0000 0.0000 0.0000 0.0000 17.7833
#
#
#
# Elastic Compliance Matrix: (Units=1/GPa)
#
#
# Indices 1 2 3 4 5 6 
#
# 1 0.016439 -0.004205 0.001493 0.000000 0.000000 0.000000
# 2 -0.004205 0.017752 -0.000175 0.000000 0.000000 0.000000
# 3 0.001493 -0.000175 0.011529 0.000000 0.000000 0.000000
# 4 0.000000 0.000000 0.000000 -0.039783 0.000000 0.000000
# 5 0.000000 0.000000 0.000000 0.000000 0.022672 0.000000
# 6 0.000000 0.000000 0.000000 0.000000 0.000000 0.056232
#
#
# Mechanical properties :
#
#
# Convention : Reuss Voigt Hill
#
# Bulk Modulus (GPa) = 25.03492 25.05658 25.04575
# Shear Modulus (GPa) = 48.10900 21.16385 34.63643
#
# Velocity S-wave (km/s) = 4.80404 3.18633 4.07624
# Velocity P-wave (km/s) = 6.54076 5.05540 5.84545
#
# Compressibility (1/GPa) = 0.03994420
#
# Stress axis : x y z
#
# Youngs Moduli (GPa) = 60.83069 56.33325 86.73929
#
# Poissons Ratio (x) = 0.23688 -0.12947
# Poissons Ratio (y) = 0.25579 0.01521
# Poissons Ratio (z) = -0.09080 0.00988
#
# Static dielectric constant tensor:
#      x y z
#    x 1.754690 0.000000 0.000000 
#    y 0.000000 1.729990 0.000000 
#    z 0.000000 0.000000 1.740530 
# 
# From -- ./inp_files/16566.got.cif
#   From: 2010.05.17/outbox.cif.g08.bks.cpg/sg69_9_cif.got.tgz:16566.got - 2010.06.03 19:29:58.
