data_PCOD9513151
_publ_section_title
;
Structure prediction by ZEFSAII (Michael W. Deem and Ramdas Pophale) SiO2 
 PCOD9513151
Probable space group: F M M M
;
_chemical_formula_sum "Si O2"
_cell_formula_units_Z 144
_cell_length_a 18.106813
_cell_length_b 13.758427
_cell_length_c 29.075215
_cell_angle_alpha 90.000000
_cell_angle_beta 90.000000
_cell_angle_gamma 90.000000
_cell_volume 7243.254337
_symmetry_space_group_name_H-M "F M M M"
_symmetry_group_IT_number 69
_symmetry_cell_setting 'orthorhombic'
loop_
_space_group_symop_operation_xyz
x,y,z
-x,-y,z
x,-y,-z
-x,y,-z
-x,-y,-z
x,y,-z
-x,y,z
x,-y,z
x,1/2+y,1/2+z
-x,1/2-y,1/2+z
x,1/2-y,1/2-z
-x,1/2+y,1/2-z
-x,1/2-y,1/2-z
x,1/2+y,1/2-z
-x,1/2+y,1/2+z
x,1/2-y,1/2+z
1/2+x,y,1/2+z
1/2-x,-y,1/2+z
1/2+x,-y,1/2-z
1/2-x,y,1/2-z
1/2-x,-y,1/2-z
1/2+x,y,1/2-z
1/2-x,y,1/2+z
1/2+x,-y,1/2+z
1/2+x,1/2+y,z
1/2-x,1/2-y,z
1/2+x,1/2-y,-z
1/2-x,1/2+y,-z
1/2-x,1/2-y,-z
1/2+x,1/2+y,-z
1/2-x,1/2+y,z
1/2+x,1/2-y,z
loop_
_atom_site_type_symbol
_atom_site_label
_atom_site_fract_x
_atom_site_fract_y
_atom_site_fract_z
Si Si1 0.419975 0.882264 0.251265
Si Si2 0.136335 0.115800 0.847434
Si Si3 0.804346 0.616302 0.823455
Si Si4 0.911101 0.884098 0.500000
Si Si5 0.336195 0.225880 0.915060
O O1 0.500000 0.854399 0.231949
O O2 0.415192 0.856349 0.304904
O O3 0.351821 0.848712 0.219962
O O4 0.416159 0.000000 0.251024
O O5 0.217867 0.140391 0.826962
O O6 0.128244 0.175483 0.894401
O O7 0.132161 0.000000 0.855383
O O8 0.807563 0.500000 0.822682
O O9 0.837361 0.655863 0.870703
O O10 0.877106 0.828003 0.543827
O O11 0.000000 0.877358 0.500000
O O12 0.891955 0.000000 0.500000
O O13 0.250000 0.250000 0.926550
#
# Coordination Sequence:
#
# PCOD9513151 Si02
#       5
#    32  32  32  16  32
#     4   9  17  29  47  74 110 151 190 228 275 330
#     4   9  18  33  53  78 110 148 188 231 276 324
#     4   9  17  31  52  77 107 144 187 235 282 327
#     4  11  25  44  65  89 117 145 176 229 300 360
#     4  10  21  38  60  85 110 143 191 238 284 341
#
# _framework density 19.880566000000002
#
# number of rings (size 3 to 8) (size 9 to 14) (size 15 to 20)
#    0.000    2.556    0.000    1.667    0.000    6.222 
#    0.000    7.222    0.000    0.667    0.000    0.000 
#    0.000    0.000    0.000    0.000    0.000    0.000 
#
# Total GULP energy -200833.862790 kJ/mol
# GULP energy per Si atom -5578.718411 kJ/mol
# Density = 1.983532 g / cm^3
# Si number density = 19.880566 Si / 1000 Ang^3
#
#
#
# Elastic Constant Matrix: (Units=GPa)
#
#
# Indices 1 2 3 4 5 6 
#
# 1 61.6748 45.8329 63.4513 0.0000 0.0000 0.0000
# 2 45.8329 91.7038 49.1887 0.0000 0.0000 0.0000
# 3 63.4513 49.1887 138.6418 0.0000 0.0000 0.0000
# 4 0.0000 0.0000 0.0000 35.3067 0.0000 0.0000
# 5 0.0000 0.0000 0.0000 0.0000 4.3965 0.0000
# 6 0.0000 0.0000 0.0000 0.0000 0.0000 14.1728
#
#
#
# Elastic Compliance Matrix: (Units=1/GPa)
#
#
# Indices 1 2 3 4 5 6 
#
# 1 0.039509 -0.012409 -0.013679 0.000000 0.000000 0.000000
# 2 -0.012409 0.017365 -0.000482 0.000000 0.000000 0.000000
# 3 -0.013679 -0.000482 0.013644 0.000000 0.000000 0.000000
# 4 0.000000 0.000000 0.000000 0.028323 0.000000 0.000000
# 5 0.000000 0.000000 0.000000 0.000000 0.227456 0.000000
# 6 0.000000 0.000000 0.000000 0.000000 0.000000 0.070558
#
#
# Mechanical properties :
#
#
# Convention : Reuss Voigt Hill
#
# Bulk Modulus (GPa) = 57.54321 67.66289 62.60305
# Shear Modulus (GPa) = 10.97002 19.67836 15.32419
#
# Velocity S-wave (km/s) = 2.35158 3.14957 2.77936
# Velocity P-wave (km/s) = 6.03163 6.88004 6.46976
#
# Compressibility (1/GPa) = 0.01737825
#
# Stress axis : x y z
#
# Youngs Moduli (GPa) = 25.31082 57.58714 73.29094
#
# Poissons Ratio (x) = 0.71459 1.00256
# Poissons Ratio (y) = 0.31408 0.03531
# Poissons Ratio (z) = 0.34623 0.02775
#
# Static dielectric constant tensor:
#      x y z
#    x 1.720160 0.000000 0.000000 
#    y 0.000000 1.763360 0.000000 
#    z 0.000000 0.000000 1.662620 
# 
# From -- ./inp_files/15561.got.cif
#   From: 2010.05.17/outbox.cif.g08.bks.cpg/sg69_8_cif.got.tgz:15561.got - 2010.06.03 19:29:58.
