data_PCOD9513071
_publ_section_title
;
Structure prediction by ZEFSAII (Michael W. Deem and Ramdas Pophale) SiO2 
 PCOD9513071
Probable space group: F M M M
;
_chemical_formula_sum "Si O2"
_cell_formula_units_Z 192
_cell_length_a 17.072130
_cell_length_b 25.114712
_cell_length_c 22.950600
_cell_angle_alpha 90.000000
_cell_angle_beta 90.000000
_cell_angle_gamma 90.000000
_cell_volume 9840.336624
_symmetry_space_group_name_H-M "F M M M"
_symmetry_group_IT_number 69
_symmetry_cell_setting 'orthorhombic'
loop_
_space_group_symop_operation_xyz
x,y,z
-x,-y,z
x,-y,-z
-x,y,-z
-x,-y,-z
x,y,-z
-x,y,z
x,-y,z
x,1/2+y,1/2+z
-x,1/2-y,1/2+z
x,1/2-y,1/2-z
-x,1/2+y,1/2-z
-x,1/2-y,1/2-z
x,1/2+y,1/2-z
-x,1/2+y,1/2+z
x,1/2-y,1/2+z
1/2+x,y,1/2+z
1/2-x,-y,1/2+z
1/2+x,-y,1/2-z
1/2-x,y,1/2-z
1/2-x,-y,1/2-z
1/2+x,y,1/2-z
1/2-x,y,1/2+z
1/2+x,-y,1/2+z
1/2+x,1/2+y,z
1/2-x,1/2-y,z
1/2+x,1/2-y,-z
1/2-x,1/2+y,-z
1/2-x,1/2-y,-z
1/2+x,1/2+y,-z
1/2-x,1/2+y,z
1/2+x,1/2-y,z
loop_
_atom_site_type_symbol
_atom_site_label
_atom_site_fract_x
_atom_site_fract_y
_atom_site_fract_z
Si Si1 0.592864 0.358253 0.273277
Si Si2 0.092525 0.937912 0.619417
Si Si3 0.092711 0.058676 0.935606
Si Si4 0.802874 0.351333 0.066479
Si Si5 0.158662 0.764098 0.351291
Si Si6 0.348230 0.145946 0.351698
O O1 0.500000 0.355101 0.258448
O O2 0.602550 0.406332 0.319396
O O3 0.620432 0.303506 0.304314
O O4 0.645806 0.366537 0.216442
O O5 0.141773 0.902420 0.574410
O O6 0.000000 0.935771 0.605449
O O7 0.115712 0.000000 0.622157
O O8 0.105724 0.101962 0.887081
O O9 0.000000 0.053619 0.940948
O O10 0.125176 0.000000 0.920829
O O11 0.123815 0.073689 0.000000
O O12 0.844201 0.297018 0.088370
O O13 0.734980 0.356325 0.115117
O O14 0.776119 0.346329 0.000000
O O15 0.250000 0.750000 0.336306
O O16 0.120427 0.706301 0.356895
#
# Coordination Sequence:
#
# PCOD9513071 Si02
#       6
#    32  32  32  32  32  32
#     4  10  21  37  58  87 120 149 186 239 287 333
#     4   9  20  40  63  85 111 147 191 238 290 345
#     4   9  19  35  51  70 102 142 184 230 272 313
#     4  10  22  38  56  83 116 147 186 236 283 331
#     4   9  21  37  56  80 112 149 185 228 282 337
#     4  11  21  33  56  83 110 148 188 223 275 344
#
# _framework density 19.511527999999998
#
# number of rings (size 3 to 8) (size 9 to 14) (size 15 to 20)
#    0.000    2.333    0.000    2.000    0.000   15.667 
#    0.000    3.333    0.000    0.000    0.000    0.000 
#    0.000    0.000    0.000    0.000    0.000    0.000 
#
# Total GULP energy -267510.161859 kJ/mol
# GULP energy per Si atom -5573.128372 kJ/mol
# Density = 1.946712 g / cm^3
# Si number density = 19.511528 Si / 1000 Ang^3
#
#
#
# Elastic Constant Matrix: (Units=GPa)
#
#
# Indices 1 2 3 4 5 6 
#
# 1 20.1532 5.3895 26.1678 0.0000 0.0000 0.0000
# 2 5.3895 86.3638 24.2977 0.0000 0.0000 0.0000
# 3 26.1678 24.2977 98.9690 0.0000 0.0000 0.0000
# 4 0.0000 0.0000 0.0000 8.5618 0.0000 0.0000
# 5 0.0000 0.0000 0.0000 0.0000 25.4857 0.0000
# 6 0.0000 0.0000 0.0000 0.0000 0.0000 38.6147
#
#
#
# Elastic Compliance Matrix: (Units=1/GPa)
#
#
# Indices 1 2 3 4 5 6 
#
# 1 0.075637 0.000974 -0.020238 0.000000 0.000000 0.000000
# 2 0.000974 0.012451 -0.003314 0.000000 0.000000 0.000000
# 3 -0.020238 -0.003314 0.016269 0.000000 0.000000 0.000000
# 4 0.000000 0.000000 0.000000 0.116797 0.000000 0.000000
# 5 0.000000 0.000000 0.000000 0.000000 0.039238 0.000000
# 6 0.000000 0.000000 0.000000 0.000000 0.000000 0.025897
#
#
# Mechanical properties :
#
#
# Convention : Reuss Voigt Hill
#
# Bulk Modulus (GPa) = 16.89198 35.24402 26.06800
# Shear Modulus (GPa) = 14.23780 24.50785 19.37282
#
# Velocity S-wave (km/s) = 2.70425 3.54795 3.15444
# Velocity P-wave (km/s) = 4.29265 5.90647 5.16300
#
# Compressibility (1/GPa) = 0.05919969
#
# Stress axis : x y z
#
# Youngs Moduli (GPa) = 13.22107 80.31761 61.46760
#
# Poissons Ratio (x) = -0.07820 1.24396
# Poissons Ratio (y) = -0.01287 0.20371
# Poissons Ratio (z) = 0.26756 0.26618
#
# Static dielectric constant tensor:
#      x y z
#    x 1.747170 0.000000 0.000000 
#    y 0.000000 1.716030 0.000000 
#    z 0.000000 0.000000 1.685930 
# 
# From -- ./inp_files/32083.got.cif
#   From: 2010.05.17/outbox.cif.g08.bks.cpg/sg69_17_cif.got.tgz:32083.got - 2010.06.03 19:29:58.
