data_PCOD9513635
_publ_section_title
;
Structure prediction by ZEFSAII (Michael W. Deem and Ramdas Pophale) SiO2 
 PCOD9513635
Probable space group: F M M M
;
_chemical_formula_sum "Si O2"
_cell_formula_units_Z 176
_cell_length_a 13.170321
_cell_length_b 32.005969
_cell_length_c 26.472415
_cell_angle_alpha 90.000000
_cell_angle_beta 90.000000
_cell_angle_gamma 90.000000
_cell_volume 11158.887595
_symmetry_space_group_name_H-M "F M M M"
_symmetry_group_IT_number 69
_symmetry_cell_setting 'orthorhombic'
loop_
_space_group_symop_operation_xyz
x,y,z
-x,-y,z
x,-y,-z
-x,y,-z
-x,-y,-z
x,y,-z
-x,y,z
x,-y,z
x,1/2+y,1/2+z
-x,1/2-y,1/2+z
x,1/2-y,1/2-z
-x,1/2+y,1/2-z
-x,1/2-y,1/2-z
x,1/2+y,1/2-z
-x,1/2+y,1/2+z
x,1/2-y,1/2+z
1/2+x,y,1/2+z
1/2-x,-y,1/2+z
1/2+x,-y,1/2-z
1/2-x,y,1/2-z
1/2-x,-y,1/2-z
1/2+x,y,1/2-z
1/2-x,y,1/2+z
1/2+x,-y,1/2+z
1/2+x,1/2+y,z
1/2-x,1/2-y,z
1/2+x,1/2-y,-z
1/2-x,1/2+y,-z
1/2-x,1/2-y,-z
1/2+x,1/2+y,-z
1/2-x,1/2+y,z
1/2+x,1/2-y,z
loop_
_atom_site_type_symbol
_atom_site_label
_atom_site_fract_x
_atom_site_fract_y
_atom_site_fract_z
Si Si1 0.000000 0.727319 0.664559
Si Si2 0.717149 0.792857 0.358908
Si Si3 0.620559 0.586992 0.394062
Si Si4 0.123766 0.500000 0.942268
Si Si5 0.199196 0.368264 0.200289
Si Si6 0.500000 0.185838 0.775947
Si Si7 0.119608 0.822403 0.440611
O O1 0.098780 0.715178 0.632248
O O2 0.000000 0.775240 0.684666
O O3 0.000000 0.702585 0.718429
O O4 0.750000 0.750000 0.331289
O O5 0.728770 0.833038 0.324003
O O6 0.796466 0.799773 0.405203
O O7 0.500000 0.583715 0.385135
O O8 0.656278 0.543273 0.416807
O O9 0.674382 0.598110 0.341976
O O10 0.633394 0.627896 0.429614
O O11 0.000000 0.500000 0.941877
O O12 0.156790 0.500000 0.000000
O O13 0.250000 0.386034 0.250000
O O14 0.097596 0.342569 0.213372
O O15 0.134107 0.813716 0.500000
O O16 0.000000 0.812947 0.428052
#
# Coordination Sequence:
#
# PCOD9513635 Si02
#       7
#    16  32  32  16  32  16  32
#     4  11  22  32  47  72  98 128 179 224 252 285
#     4  11  22  31  48  69  96 129 170 216 255 294
#     4   9  17  29  50  73  99 128 159 199 248 307
#     4   9  16  28  49  78 102 121 154 201 253 300
#     4  11  20  32  47  70  98 133 170 202 245 300
#     4  11  20  32  48  65  97 136 168 211 253 286
#     4   9  19  35  52  70  95 130 169 209 259 313
#
# _framework density 15.772182000000001
#
# number of rings (size 3 to 8) (size 9 to 14) (size 15 to 20)
#    0.000    1.909    4.545    0.545    2.545    2.909 
#    0.000    0.909    0.000    0.000    0.000    0.000 
#    0.000    7.091    0.000   28.818    0.000    4.364 
#
# Total GULP energy -245205.850042 kJ/mol
# GULP energy per Si atom -5572.860228 kJ/mol
# Density = 1.573628 g / cm^3
# Si number density = 15.772182 Si / 1000 Ang^3
#
#
#
# Elastic Constant Matrix: (Units=GPa)
#
#
# Indices 1 2 3 4 5 6 
#
# 1 90.2763 24.9204 28.9193 0.0000 0.0000 0.0000
# 2 24.9204 88.1683 42.8724 0.0000 0.0000 0.0000
# 3 28.9193 42.8724 100.7201 0.0000 0.0000 0.0000
# 4 0.0000 0.0000 0.0000 14.9632 0.0000 0.0000
# 5 0.0000 0.0000 0.0000 0.0000 17.6069 0.0000
# 6 0.0000 0.0000 0.0000 0.0000 0.0000 13.3604
#
#
#
# Elastic Compliance Matrix: (Units=1/GPa)
#
#
# Indices 1 2 3 4 5 6 
#
# 1 0.012547 -0.002263 -0.002639 0.000000 0.000000 0.000000
# 2 -0.002263 0.014710 -0.005612 0.000000 0.000000 0.000000
# 3 -0.002639 -0.005612 0.013075 0.000000 0.000000 0.000000
# 4 0.000000 0.000000 0.000000 0.066831 0.000000 0.000000
# 5 0.000000 0.000000 0.000000 0.000000 0.056796 0.000000
# 6 0.000000 0.000000 0.000000 0.000000 0.000000 0.074848
#
#
# Mechanical properties :
#
#
# Convention : Reuss Voigt Hill
#
# Bulk Modulus (GPa) = 51.80200 52.50989 52.15595
# Shear Modulus (GPa) = 18.77789 21.34960 20.06375
#
# Velocity S-wave (km/s) = 3.45421 3.68315 3.57052
# Velocity P-wave (km/s) = 6.98741 7.17304 7.08083
#
# Compressibility (1/GPa) = 0.01930427
#
# Stress axis : x y z
#
# Youngs Moduli (GPa) = 79.69840 67.97926 76.48149
#
# Poissons Ratio (x) = 0.15384 0.20186
# Poissons Ratio (y) = 0.18036 0.42920
# Poissons Ratio (z) = 0.21035 0.38149
#
# Static dielectric constant tensor:
#      x y z
#    x 1.552220 0.000000 0.000000 
#    y 0.000000 1.514520 0.000000 
#    z 0.000000 0.000000 1.540100 
# 
# From -- ./inp_files/40478.got.cif
#   From: 2010.05.17/outbox.cif.g08.bks.cpg/sg69_21_cif.got.tgz:40478.got - 2010.06.03 19:29:58.
