data_PCOD9513642
_publ_section_title
;
Structure prediction by ZEFSAII (Michael W. Deem and Ramdas Pophale) SiO2 
 PCOD9513642
Probable space group: F M M M
;
_chemical_formula_sum "Si O2"
_cell_formula_units_Z 96
_cell_length_a 15.081504
_cell_length_b 19.430686
_cell_length_c 19.559673
_cell_angle_alpha 90.000000
_cell_angle_beta 90.000000
_cell_angle_gamma 90.000000
_cell_volume 5731.844201
_symmetry_space_group_name_H-M "F M M M"
_symmetry_group_IT_number 69
_symmetry_cell_setting 'orthorhombic'
loop_
_space_group_symop_operation_xyz
x,y,z
-x,-y,z
x,-y,-z
-x,y,-z
-x,-y,-z
x,y,-z
-x,y,z
x,-y,z
x,1/2+y,1/2+z
-x,1/2-y,1/2+z
x,1/2-y,1/2-z
-x,1/2+y,1/2-z
-x,1/2-y,1/2-z
x,1/2+y,1/2-z
-x,1/2+y,1/2+z
x,1/2-y,1/2+z
1/2+x,y,1/2+z
1/2-x,-y,1/2+z
1/2+x,-y,1/2-z
1/2-x,y,1/2-z
1/2-x,-y,1/2-z
1/2+x,y,1/2-z
1/2-x,y,1/2+z
1/2+x,-y,1/2+z
1/2+x,1/2+y,z
1/2-x,1/2-y,z
1/2+x,1/2-y,-z
1/2-x,1/2+y,-z
1/2-x,1/2-y,-z
1/2+x,1/2+y,-z
1/2-x,1/2+y,z
1/2+x,1/2-y,z
loop_
_atom_site_type_symbol
_atom_site_label
_atom_site_fract_x
_atom_site_fract_y
_atom_site_fract_z
Si Si1 0.898087 0.215162 0.076138
Si Si2 0.000000 0.919046 0.278370
Si Si3 0.652650 0.324084 0.220800
Si Si4 0.000000 0.350721 0.922332
O O1 0.845284 0.185014 0.139119
O O2 0.000000 0.187335 0.079710
O O3 0.916857 0.297239 0.083870
O O4 0.863025 0.202235 0.000000
O O5 0.915143 0.881901 0.244898
O O6 0.000000 0.901939 0.359433
O O7 0.000000 0.000000 0.266786
O O8 0.620400 0.250000 0.250000
O O9 0.750000 0.336059 0.250000
O O10 0.000000 0.378202 0.000000
#
# Coordination Sequence:
#
# PCOD9513642 Si02
#       4
#    32  16  32  16
#     4   8  14  29  57  81 105 135 175 233 276 308
#     4  12  22  35  54  75 114 153 175 220 269 329
#     4  11  20  34  57  83 108 138 181 232 274 313
#     4   8  15  30  52  77 104 138 181 221 261 322
#
# _framework density 16.748536000000001
#
# number of rings (size 3 to 8) (size 9 to 14) (size 15 to 20)
#    1.000    1.333    5.000    0.500    0.000    1.000 
#    0.000    5.000    0.000    2.000    0.000    0.000 
#    0.000    0.000    0.000    0.000    0.000    0.000 
#
# Total GULP energy -133609.635805 kJ/mol
# GULP energy per Si atom -5567.068159 kJ/mol
# Density = 1.671042 g / cm^3
# Si number density = 16.748536 Si / 1000 Ang^3
#
#
#
# Elastic Constant Matrix: (Units=GPa)
#
#
# Indices 1 2 3 4 5 6 
#
# 1 66.3720 52.9673 40.9079 0.0000 0.0000 0.0000
# 2 52.9673 106.7668 55.8621 0.0000 0.0000 0.0000
# 3 40.9079 55.8621 151.0639 0.0000 0.0000 0.0000
# 4 0.0000 0.0000 0.0000 15.5233 0.0000 0.0000
# 5 0.0000 0.0000 0.0000 0.0000 12.9420 0.0000
# 6 0.0000 0.0000 0.0000 0.0000 0.0000 -3.0873
#
#
#
# Elastic Compliance Matrix: (Units=1/GPa)
#
#
# Indices 1 2 3 4 5 6 
#
# 1 0.025863 -0.011365 -0.002801 0.000000 0.000000 0.000000
# 2 -0.011365 0.016607 -0.003064 0.000000 0.000000 0.000000
# 3 -0.002801 -0.003064 0.008511 0.000000 0.000000 0.000000
# 4 0.000000 0.000000 0.000000 0.064419 0.000000 0.000000
# 5 0.000000 0.000000 0.000000 0.000000 0.077268 0.000000
# 6 0.000000 0.000000 0.000000 0.000000 0.000000 -0.323913
#
#
# Mechanical properties :
#
#
# Convention : Reuss Voigt Hill
#
# Bulk Modulus (GPa) = 60.52538 69.29748 64.91143
# Shear Modulus (GPa) = -54.77764 16.70664 -19.03550
#
# Velocity S-wave (km/s) = -5.72511 3.16175 -3.37493
# Velocity P-wave (km/s) = 2.73613 7.40229 4.86351
#
# Compressibility (1/GPa) = 0.01652199
#
# Stress axis : x y z
#
# Youngs Moduli (GPa) = 38.66584 60.21417 117.49380
#
# Poissons Ratio (x) = 0.68434 0.32908
# Poissons Ratio (y) = 0.43944 0.35996
# Poissons Ratio (z) = 0.10830 0.18447
#
# Static dielectric constant tensor:
#      x y z
#    x 1.588030 0.000000 0.000000 
#    y 0.000000 1.534450 0.000000 
#    z 0.000000 0.000000 1.594360 
# 
# From -- ./inp_files/22199.got.cif
#   From: 2010.05.17/outbox.cif.g08.bks.cpg/sg69_12_cif.got.tgz:22199.got - 2010.06.03 19:29:58.
