data_PCOD9513337
_publ_section_title
;
Structure prediction by ZEFSAII (Michael W. Deem and Ramdas Pophale) SiO2 
 PCOD9513337
Probable space group: F M M M
;
_chemical_formula_sum "Si O2"
_cell_formula_units_Z 160
_cell_length_a 19.086788
_cell_length_b 21.565729
_cell_length_c 23.088591
_cell_angle_alpha 90.000000
_cell_angle_beta 90.000000
_cell_angle_gamma 90.000000
_cell_volume 9503.737314
_symmetry_space_group_name_H-M "F M M M"
_symmetry_group_IT_number 69
_symmetry_cell_setting 'orthorhombic'
loop_
_space_group_symop_operation_xyz
x,y,z
-x,-y,z
x,-y,-z
-x,y,-z
-x,-y,-z
x,y,-z
-x,y,z
x,-y,z
x,1/2+y,1/2+z
-x,1/2-y,1/2+z
x,1/2-y,1/2-z
-x,1/2+y,1/2-z
-x,1/2-y,1/2-z
x,1/2+y,1/2-z
-x,1/2+y,1/2+z
x,1/2-y,1/2+z
1/2+x,y,1/2+z
1/2-x,-y,1/2+z
1/2+x,-y,1/2-z
1/2-x,y,1/2-z
1/2-x,-y,1/2-z
1/2+x,y,1/2-z
1/2-x,y,1/2+z
1/2+x,-y,1/2+z
1/2+x,1/2+y,z
1/2-x,1/2-y,z
1/2+x,1/2-y,-z
1/2-x,1/2+y,-z
1/2-x,1/2-y,-z
1/2+x,1/2+y,-z
1/2-x,1/2+y,z
1/2+x,1/2-y,z
loop_
_atom_site_type_symbol
_atom_site_label
_atom_site_fract_x
_atom_site_fract_y
_atom_site_fract_z
Si Si1 0.000000 0.218617 0.567324
Si Si2 0.637982 0.367166 0.776533
Si Si3 0.225119 0.820830 0.669806
Si Si4 0.418272 0.000000 0.758730
Si Si5 0.137756 0.366808 0.065346
Si Si6 0.081644 0.000000 0.601978
Si Si7 0.500000 0.291989 0.809122
O O1 0.932089 0.174728 0.570711
O O2 0.000000 0.245723 0.500000
O O3 0.000000 0.259481 0.626962
O O4 0.706656 0.361546 0.816035
O O5 0.664624 0.334320 0.717219
O O6 0.617883 0.437628 0.763347
O O7 0.570729 0.332519 0.802659
O O8 0.250000 0.750000 0.673693
O O9 0.193827 0.839108 0.608843
O O10 0.500000 0.000000 0.741562
O O11 0.415831 0.000000 0.828401
O O12 0.117737 0.437381 0.080268
O O13 0.163186 0.363577 0.000000
O O14 0.000000 0.000000 0.583753
O O15 0.500000 0.250000 0.750000
#
# Coordination Sequence:
#
# PCOD9513337 Si02
#       7
#    16  32  32  16  32  16  16
#     4  10  22  37  56  87 122 160 201 242 294 357
#     4  11  22  38  59  84 117 152 189 242 301 346
#     4  11  23  39  55  86 122 155 191 237 296 354
#     4  11  22  37  59  91 120 146 190 245 297 357
#     4  11  22  37  58  84 118 159 199 237 289 353
#     4  11  21  35  59  87 125 151 190 246 292 352
#     4  12  22  35  63  87 113 153 201 253 286 348
#
# _framework density 16.835481999999999
#
# number of rings (size 3 to 8) (size 9 to 14) (size 15 to 20)
#    0.000    1.000    4.000    5.100    0.000    3.200 
#    0.000    1.000    0.000    0.000    0.000    2.800 
#    0.000    0.000    0.000    0.000    0.000    0.000 
#
# Total GULP energy -223342.969413 kJ/mol
# GULP energy per Si atom -5583.574235 kJ/mol
# Density = 1.679716 g / cm^3
# Si number density = 16.835482 Si / 1000 Ang^3
#
#
#
# Elastic Constant Matrix: (Units=GPa)
#
#
# Indices 1 2 3 4 5 6 
#
# 1 95.3427 53.3141 69.1572 0.0000 0.0000 0.0000
# 2 53.3141 129.2852 80.3547 0.0000 0.0000 0.0000
# 3 69.1572 80.3547 133.3126 0.0000 0.0000 0.0000
# 4 0.0000 0.0000 0.0000 156.9977 0.0000 0.0000
# 5 0.0000 0.0000 0.0000 0.0000 28.5151 0.0000
# 6 0.0000 0.0000 0.0000 0.0000 0.0000 22.9434
#
#
#
# Elastic Compliance Matrix: (Units=1/GPa)
#
#
# Indices 1 2 3 4 5 6 
#
# 1 0.017303 -0.002489 -0.007476 0.000000 0.000000 0.000000
# 2 -0.002489 0.012726 -0.006380 0.000000 0.000000 0.000000
# 3 -0.007476 -0.006380 0.015225 0.000000 0.000000 0.000000
# 4 0.000000 0.000000 0.000000 0.006370 0.000000 0.000000
# 5 0.000000 0.000000 0.000000 0.000000 0.035069 0.000000
# 6 0.000000 0.000000 0.000000 0.000000 0.000000 0.043585
#
#
# Mechanical properties :
#
#
# Convention : Reuss Voigt Hill
#
# Bulk Modulus (GPa) = 79.58559 84.84360 82.21460
# Shear Modulus (GPa) = 29.91228 52.03222 40.97225
#
# Velocity S-wave (km/s) = 4.21971 5.56537 4.93859
# Velocity P-wave (km/s) = 8.43306 9.58139 9.02550
#
# Compressibility (1/GPa) = 0.01256509
#
# Stress axis : x y z
#
# Youngs Moduli (GPa) = 57.79400 78.57691 65.68230
#
# Poissons Ratio (x) = 0.19556 0.49103
# Poissons Ratio (y) = 0.14384 0.41904
# Poissons Ratio (z) = 0.43206 0.50130
#
# Static dielectric constant tensor:
#      x y z
#    x 1.550770 0.000000 0.000000 
#    y 0.000000 1.556110 0.000000 
#    z 0.000000 0.000000 1.579550 
# 
# From -- ./inp_files/24703.got.cif
#   From: 2010.05.17/outbox.cif.g08.bks.cpg/sg69_13_cif.got.tgz:24703.got - 2010.06.03 19:29:58.
