data_PCOD9513051
_publ_section_title
;
Structure prediction by ZEFSAII (Michael W. Deem and Ramdas Pophale) SiO2 
 PCOD9513051
Probable space group: F M M M
;
_chemical_formula_sum "Si O2"
_cell_formula_units_Z 192
_cell_length_a 22.557194
_cell_length_b 20.049475
_cell_length_c 21.379656
_cell_angle_alpha 90.000000
_cell_angle_beta 90.000000
_cell_angle_gamma 90.000000
_cell_volume 9669.161024
_symmetry_space_group_name_H-M "F M M M"
_symmetry_group_IT_number 69
_symmetry_cell_setting 'orthorhombic'
loop_
_space_group_symop_operation_xyz
x,y,z
-x,-y,z
x,-y,-z
-x,y,-z
-x,-y,-z
x,y,-z
-x,y,z
x,-y,z
x,1/2+y,1/2+z
-x,1/2-y,1/2+z
x,1/2-y,1/2-z
-x,1/2+y,1/2-z
-x,1/2-y,1/2-z
x,1/2+y,1/2-z
-x,1/2+y,1/2+z
x,1/2-y,1/2+z
1/2+x,y,1/2+z
1/2-x,-y,1/2+z
1/2+x,-y,1/2-z
1/2-x,y,1/2-z
1/2-x,-y,1/2-z
1/2+x,y,1/2-z
1/2-x,y,1/2+z
1/2+x,-y,1/2+z
1/2+x,1/2+y,z
1/2-x,1/2-y,z
1/2+x,1/2-y,-z
1/2-x,1/2+y,-z
1/2-x,1/2-y,-z
1/2+x,1/2+y,-z
1/2-x,1/2+y,z
1/2+x,1/2-y,z
loop_
_atom_site_type_symbol
_atom_site_label
_atom_site_fract_x
_atom_site_fract_y
_atom_site_fract_z
Si Si1 0.066732 0.802640 0.625800
Si Si2 0.350320 0.175733 0.755479
Si Si3 0.117990 0.572209 0.930172
Si Si4 0.675087 0.419801 0.071405
Si Si5 0.929133 0.153623 0.868797
Si Si6 0.225328 0.422925 0.832044
O O1 0.107896 0.815693 0.684631
O O2 0.077610 0.863489 0.579398
O O3 0.077436 0.727870 0.601695
O O4 0.000000 0.803455 0.649020
O O5 0.322683 0.250000 0.750000
O O6 0.393558 0.157975 0.697481
O O7 0.303612 0.119038 0.775218
O O8 0.087410 0.500000 0.920874
O O9 0.172060 0.575380 0.882513
O O10 0.142427 0.573267 0.000000
O O11 0.679707 0.500000 0.072250
O O12 0.608813 0.397181 0.089620
O O13 0.719425 0.394870 0.126876
O O14 0.689624 0.397880 0.000000
O O15 0.000000 0.139750 0.862056
O O16 0.237842 0.500000 0.815603
#
# Coordination Sequence:
#
# PCOD9513051 Si02
#       6
#    32  32  32  32  32  32
#     4   9  18  33  52  75 107 148 189 228 273 327
#     4   9  18  35  58  83 114 146 181 224 277 335
#     4   9  17  30  50  77 109 144 182 227 280 335
#     4  10  22  40  60  81 108 145 188 233 280 329
#     4  10  21  37  57  81 111 149 191 232 274 323
#     4   9  18  35  59  84 110 143 183 227 278 336
#
# _framework density 19.856945
#
# number of rings (size 3 to 8) (size 9 to 14) (size 15 to 20)
#    0.000    2.667    0.000    1.000    0.000    7.333 
#    0.000   15.000    0.000   13.000    0.000    0.000 
#    0.000    0.000    0.000    0.000    0.000    0.000 
#
# Total GULP energy -267315.522362 kJ/mol
# GULP energy per Si atom -5569.073383 kJ/mol
# Density = 1.981175 g / cm^3
# Si number density = 19.856945 Si / 1000 Ang^3
#
#
#
# Elastic Constant Matrix: (Units=GPa)
#
#
# Indices 1 2 3 4 5 6 
#
# 1 94.2032 35.9752 21.7842 0.0000 0.0000 0.0000
# 2 35.9752 60.3714 30.5944 0.0000 0.0000 0.0000
# 3 21.7842 30.5944 71.2002 0.0000 0.0000 0.0000
# 4 0.0000 0.0000 0.0000 19.6731 0.0000 0.0000
# 5 0.0000 0.0000 0.0000 0.0000 8.1019 0.0000
# 6 0.0000 0.0000 0.0000 0.0000 0.0000 61.5700
#
#
#
# Elastic Compliance Matrix: (Units=1/GPa)
#
#
# Indices 1 2 3 4 5 6 
#
# 1 0.013786 -0.007769 -0.000879 0.000000 0.000000 0.000000
# 2 -0.007769 0.025554 -0.008603 0.000000 0.000000 0.000000
# 3 -0.000879 -0.008603 0.018011 0.000000 0.000000 0.000000
# 4 0.000000 0.000000 0.000000 0.050831 0.000000 0.000000
# 5 0.000000 0.000000 0.000000 0.000000 0.123428 0.000000
# 6 0.000000 0.000000 0.000000 0.000000 0.000000 0.016242
#
#
# Mechanical properties :
#
#
# Convention : Reuss Voigt Hill
#
# Bulk Modulus (GPa) = 43.77072 44.72027 44.24549
# Shear Modulus (GPa) = 17.24317 27.03038 22.13678
#
# Velocity S-wave (km/s) = 2.95001 3.69352 3.34250
# Velocity P-wave (km/s) = 5.80468 6.38432 6.10139
#
# Compressibility (1/GPa) = 0.02284632
#
# Stress axis : x y z
#
# Youngs Moduli (GPa) = 72.53902 39.13338 55.52235
#
# Poissons Ratio (x) = 0.30403 0.04883
# Poissons Ratio (y) = 0.56357 0.47767
# Poissons Ratio (z) = 0.06379 0.33667
#
# Static dielectric constant tensor:
#      x y z
#    x 1.688220 0.000000 0.000000 
#    y 0.000000 1.754850 0.000000 
#    z 0.000000 0.000000 1.730490 
# 
# From -- ./inp_files/32064.got.cif
#   From: 2010.05.17/outbox.cif.g08.bks.cpg/sg69_17_cif.got.tgz:32064.got - 2010.06.03 19:29:58.
