data_PCOD9513440
_publ_section_title
;
Structure prediction by ZEFSAII (Michael W. Deem and Ramdas Pophale) SiO2 
 PCOD9513440
Probable space group: F M M M
;
_chemical_formula_sum "Si O2"
_cell_formula_units_Z 112
_cell_length_a 23.967707
_cell_length_b 13.866823
_cell_length_c 14.077142
_cell_angle_alpha 90.000000
_cell_angle_beta 90.000000
_cell_angle_gamma 90.000000
_cell_volume 4678.621912
_symmetry_space_group_name_H-M "F M M M"
_symmetry_group_IT_number 69
_symmetry_cell_setting 'orthorhombic'
loop_
_space_group_symop_operation_xyz
x,y,z
-x,-y,z
x,-y,-z
-x,y,-z
-x,-y,-z
x,y,-z
-x,y,z
x,-y,z
x,1/2+y,1/2+z
-x,1/2-y,1/2+z
x,1/2-y,1/2-z
-x,1/2+y,1/2-z
-x,1/2-y,1/2-z
x,1/2+y,1/2-z
-x,1/2+y,1/2+z
x,1/2-y,1/2+z
1/2+x,y,1/2+z
1/2-x,-y,1/2+z
1/2+x,-y,1/2-z
1/2-x,y,1/2-z
1/2-x,-y,1/2-z
1/2+x,y,1/2-z
1/2-x,y,1/2+z
1/2+x,-y,1/2+z
1/2+x,1/2+y,z
1/2-x,1/2-y,z
1/2+x,1/2-y,-z
1/2-x,1/2+y,-z
1/2-x,1/2-y,-z
1/2+x,1/2+y,-z
1/2-x,1/2+y,z
1/2+x,1/2-y,z
loop_
_atom_site_type_symbol
_atom_site_label
_atom_site_fract_x
_atom_site_fract_y
_atom_site_fract_z
Si Si1 0.669420 0.115803 0.684812
Si Si2 0.433410 0.606511 0.500000
Si Si3 0.562539 0.273298 0.140351
Si Si4 0.210313 0.117491 0.607371
O O1 0.613669 0.153534 0.634575
O O2 0.725105 0.144204 0.627667
O O3 0.678190 0.147687 0.795529
O O4 0.667461 0.000000 0.687083
O O5 0.408220 0.500000 0.500000
O O6 0.500000 0.594453 0.500000
O O7 0.422163 0.673837 0.411089
O O8 0.500000 0.304349 0.107845
O O9 0.557508 0.250000 0.250000
O O10 0.193864 0.148322 0.500000
O O11 0.208293 0.000000 0.607707
#
# Coordination Sequence:
#
# PCOD9513440 Si02
#       4
#    32  16  32  32
#     4   9  18  33  58  94 134 175 219 273 343 409
#     4   9  20  42  69  93 124 177 238 286 334 401
#     4  10  22  40  62  93 135 174 219 283 341 402
#     4   8  15  31  56  88 130 179 228 275 323 393
#
# _framework density 23.938672
#
# number of rings (size 3 to 8) (size 9 to 14) (size 15 to 20)
#    0.000    3.000    0.000    1.714    2.000    1.714 
#    2.571    5.714    0.000    4.286    0.000    4.000 
#    0.000    0.000    0.000    0.000    0.000    0.000 
#
# Total GULP energy -156523.012978 kJ/mol
# GULP energy per Si atom -5590.107606 kJ/mol
# Density = 2.388419 g / cm^3
# Si number density = 23.938672 Si / 1000 Ang^3
#
#
#
# Elastic Constant Matrix: (Units=GPa)
#
#
# Indices 1 2 3 4 5 6 
#
# 1 193.0550 63.7916 43.1859 0.0000 0.0000 0.0000
# 2 63.7916 104.6583 65.6826 0.0000 0.0000 0.0000
# 3 43.1859 65.6826 170.4725 0.0000 0.0000 0.0000
# 4 0.0000 0.0000 0.0000 52.8636 0.0000 0.0000
# 5 0.0000 0.0000 0.0000 0.0000 27.7951 0.0000
# 6 0.0000 0.0000 0.0000 0.0000 0.0000 40.2196
#
#
#
# Elastic Compliance Matrix: (Units=1/GPa)
#
#
# Indices 1 2 3 4 5 6 
#
# 1 0.006489 -0.003856 -0.000158 0.000000 0.000000 0.000000
# 2 -0.003856 0.014894 -0.004762 0.000000 0.000000 0.000000
# 3 -0.000158 -0.004762 0.007741 0.000000 0.000000 0.000000
# 4 0.000000 0.000000 0.000000 0.018917 0.000000 0.000000
# 5 0.000000 0.000000 0.000000 0.000000 0.035978 0.000000
# 6 0.000000 0.000000 0.000000 0.000000 0.000000 0.024864
#
#
# Mechanical properties :
#
#
# Convention : Reuss Voigt Hill
#
# Bulk Modulus (GPa) = 86.41611 90.38954 88.40283
# Shear Modulus (GPa) = 38.37566 43.87736 41.12651
#
# Velocity S-wave (km/s) = 4.00819 4.28589 4.14937
# Velocity P-wave (km/s) = 7.58934 7.89510 7.74373
#
# Compressibility (1/GPa) = 0.01157192
#
# Stress axis : x y z
#
# Youngs Moduli (GPa) = 154.09580 67.14257 129.18626
#
# Poissons Ratio (x) = 0.25891 0.02044
# Poissons Ratio (y) = 0.59422 0.61513
# Poissons Ratio (z) = 0.02438 0.31971
#
# Static dielectric constant tensor:
#      x y z
#    x 2.005320 0.000000 0.000000 
#    y 0.000000 1.903060 0.000000 
#    z 0.000000 0.000000 1.903320 
# 
# From -- ./inp_files/17228.got.cif
#   From: 2010.05.17/outbox.cif.g08.bks.cpg/sg69_9_cif.got.tgz:17228.got - 2010.06.03 19:29:58.
