data_PCOD9513861
_publ_section_title
;
Structure prediction by ZEFSAII (Michael W. Deem and Ramdas Pophale) SiO2 
 PCOD9513861
Probable space group: F M M M
;
_chemical_formula_sum "Si O2"
_cell_formula_units_Z 160
_cell_length_a 28.751083
_cell_length_b 19.928680
_cell_length_c 14.997112
_cell_angle_alpha 90.000000
_cell_angle_beta 90.000000
_cell_angle_gamma 90.000000
_cell_volume 8592.912251
_symmetry_space_group_name_H-M "F M M M"
_symmetry_group_IT_number 69
_symmetry_cell_setting 'orthorhombic'
loop_
_space_group_symop_operation_xyz
x,y,z
-x,-y,z
x,-y,-z
-x,y,-z
-x,-y,-z
x,y,-z
-x,y,z
x,-y,z
x,1/2+y,1/2+z
-x,1/2-y,1/2+z
x,1/2-y,1/2-z
-x,1/2+y,1/2-z
-x,1/2-y,1/2-z
x,1/2+y,1/2-z
-x,1/2+y,1/2+z
x,1/2-y,1/2+z
1/2+x,y,1/2+z
1/2-x,-y,1/2+z
1/2+x,-y,1/2-z
1/2-x,y,1/2-z
1/2-x,-y,1/2-z
1/2+x,y,1/2-z
1/2-x,y,1/2+z
1/2+x,-y,1/2+z
1/2+x,1/2+y,z
1/2-x,1/2-y,z
1/2+x,1/2-y,-z
1/2-x,1/2+y,-z
1/2-x,1/2-y,-z
1/2+x,1/2+y,-z
1/2-x,1/2+y,z
1/2+x,1/2-y,z
loop_
_atom_site_type_symbol
_atom_site_label
_atom_site_fract_x
_atom_site_fract_y
_atom_site_fract_z
Si Si1 0.355209 0.316290 0.190891
Si Si2 0.192612 0.308285 0.500000
Si Si3 0.652793 0.422852 0.664105
Si Si4 0.948225 0.616186 0.894062
Si Si5 0.205428 0.647521 0.000000
Si Si6 0.946836 0.277487 0.394649
O O1 0.343293 0.250000 0.250000
O O2 0.333000 0.319169 0.093419
O O3 0.340034 0.380161 0.247095
O O4 0.410225 0.312182 0.169841
O O5 0.198527 0.227559 0.500000
O O6 0.238760 0.354204 0.500000
O O7 0.666712 0.500000 0.669817
O O8 0.597363 0.417878 0.645059
O O9 0.680656 0.385961 0.584921
O O10 0.942284 0.696853 0.884640
O O11 0.000000 0.598093 0.859992
O O12 0.948146 0.602431 0.000000
O O13 0.938037 0.291695 0.500000
O O14 0.000000 0.295562 0.374559
#
# Coordination Sequence:
#
# PCOD9513861 Si02
#       6
#    32  16  32  32  16  32
#     4  12  22  39  67  96 130 163 216 266 314 376
#     4  11  24  44  69  95 117 155 218 272 317 367
#     4  12  25  41  62  95 134 172 206 256 327 391
#     4   9  17  31  56  91 129 168 207 253 311 379
#     4  11  23  44  67  94 124 157 203 266 329 384
#     4   9  17  32  59  94 132 168 211 264 314 363
#
# _framework density 18.619997000000001
#
# number of rings (size 3 to 8) (size 9 to 14) (size 15 to 20)
#    0.000    1.400    6.000    1.500    0.000    2.400 
#    0.000    4.500    0.000    0.000    0.000    1.400 
#    0.000    0.000    0.000    0.000    0.000    0.000 
#
# Total GULP energy -223276.618917 kJ/mol
# GULP energy per Si atom -5581.915473 kJ/mol
# Density = 1.857762 g / cm^3
# Si number density = 18.619997 Si / 1000 Ang^3
#
#
#
# Elastic Constant Matrix: (Units=GPa)
#
#
# Indices 1 2 3 4 5 6 
#
# 1 86.3390 36.1437 57.0440 0.0000 0.0000 0.0000
# 2 36.1437 82.5970 45.1201 0.0000 0.0000 0.0000
# 3 57.0440 45.1201 136.1106 0.0000 0.0000 0.0000
# 4 0.0000 0.0000 0.0000 62.4863 0.0000 0.0000
# 5 0.0000 0.0000 0.0000 0.0000 8.9598 0.0000
# 6 0.0000 0.0000 0.0000 0.0000 0.0000 10.9695
#
#
#
# Elastic Compliance Matrix: (Units=1/GPa)
#
#
# Indices 1 2 3 4 5 6 
#
# 1 0.017229 -0.004390 -0.005766 0.000000 0.000000 0.000000
# 2 -0.004390 0.015903 -0.003432 0.000000 0.000000 0.000000
# 3 -0.005766 -0.003432 0.010901 0.000000 0.000000 0.000000
# 4 0.000000 0.000000 0.000000 0.016003 0.000000 0.000000
# 5 0.000000 0.000000 0.000000 0.000000 0.111610 0.000000
# 6 0.000000 0.000000 0.000000 0.000000 0.000000 0.091162
#
#
# Mechanical properties :
#
#
# Convention : Reuss Voigt Hill
#
# Bulk Modulus (GPa) = 59.31790 64.62914 61.97352
# Shear Modulus (GPa) = 16.91465 27.59905 22.25685
#
# Velocity S-wave (km/s) = 3.01726 3.85415 3.46109
# Velocity P-wave (km/s) = 6.63813 7.38856 7.02337
#
# Compressibility (1/GPa) = 0.01685832
#
# Stress axis : x y z
#
# Youngs Moduli (GPa) = 58.04094 62.88258 91.73488
#
# Poissons Ratio (x) = 0.27604 0.52890
# Poissons Ratio (y) = 0.25479 0.31483
# Poissons Ratio (z) = 0.33464 0.21581
#
# Static dielectric constant tensor:
#      x y z
#    x 1.682860 0.000000 0.000000 
#    y 0.000000 1.620670 0.000000 
#    z 0.000000 0.000000 1.604350 
# 
# From -- ./inp_files/19560.got.cif
#   From: 2010.05.17/outbox.cif.g08.bks.cpg/sg69_10_cif.got.tgz:19560.got - 2010.06.03 19:29:58.
