data_PCOD9513583
_publ_section_title
;
Structure prediction by ZEFSAII (Michael W. Deem and Ramdas Pophale) SiO2 
 PCOD9513583
Probable space group: F M M M
;
_chemical_formula_sum "Si O2"
_cell_formula_units_Z 88
_cell_length_a 7.670673
_cell_length_b 34.117649
_cell_length_c 14.969884
_cell_angle_alpha 90.000000
_cell_angle_beta 90.000000
_cell_angle_gamma 90.000000
_cell_volume 3917.698417
_symmetry_space_group_name_H-M "F M M M"
_symmetry_group_IT_number 69
_symmetry_cell_setting 'orthorhombic'
loop_
_space_group_symop_operation_xyz
x,y,z
-x,-y,z
x,-y,-z
-x,y,-z
-x,-y,-z
x,y,-z
-x,y,z
x,-y,z
x,1/2+y,1/2+z
-x,1/2-y,1/2+z
x,1/2-y,1/2-z
-x,1/2+y,1/2-z
-x,1/2-y,1/2-z
x,1/2+y,1/2-z
-x,1/2+y,1/2+z
x,1/2-y,1/2+z
1/2+x,y,1/2+z
1/2-x,-y,1/2+z
1/2+x,-y,1/2-z
1/2-x,y,1/2-z
1/2-x,-y,1/2-z
1/2+x,y,1/2-z
1/2-x,y,1/2+z
1/2+x,-y,1/2+z
1/2+x,1/2+y,z
1/2-x,1/2-y,z
1/2+x,1/2-y,-z
1/2-x,1/2+y,-z
1/2-x,1/2-y,-z
1/2+x,1/2+y,-z
1/2-x,1/2+y,z
1/2+x,1/2-y,z
loop_
_atom_site_type_symbol
_atom_site_label
_atom_site_fract_x
_atom_site_fract_y
_atom_site_fract_z
Si Si1 0.791088 0.295629 0.000000
Si Si2 0.291837 0.355783 0.647426
Si Si3 0.804254 0.943837 0.105958
Si Si4 0.000000 0.500000 0.830380
O O1 0.750000 0.250000 0.000000
O O2 0.728787 0.320199 0.085698
O O3 0.000000 0.298044 0.000000
O O4 0.500000 0.359791 0.636314
O O5 0.250000 0.348364 0.750000
O O6 0.212081 0.397343 0.619006
O O7 0.653744 0.966163 0.157999
O O8 0.000000 0.955978 0.133416
O O9 0.782751 0.952509 0.000000
#
# Coordination Sequence:
#
# PCOD9513583 Si02
#       4
#    16  32  32   8
#     4  10  24  44  72 102 139 178 223 289 351 410
#     4  11  23  43  69  99 138 186 230 282 347 415
#     4  11  22  38  65  98 133 184 235 284 350 411
#     4  12  23  38  66  98 142 179 236 299 348 406
#
# _framework density 22.462168999999999
#
# number of rings (size 3 to 8) (size 9 to 14) (size 15 to 20)
#    0.000    1.091    3.636    3.273    0.000    5.091 
#    0.000    4.545    0.000    0.000    0.000    0.000 
#    0.000    0.000    0.000    0.000    0.000    0.000 
#
# Total GULP energy -122750.846783 kJ/mol
# GULP energy per Si atom -5579.583945 kJ/mol
# Density = 2.241104 g / cm^3
# Si number density = 22.462169 Si / 1000 Ang^3
#
#
#
# Elastic Constant Matrix: (Units=GPa)
#
#
# Indices 1 2 3 4 5 6 
#
# 1 163.4065 44.4436 26.6770 0.0000 0.0000 0.0000
# 2 44.4436 229.9427 58.8974 0.0000 0.0000 0.0000
# 3 26.6770 58.8974 110.7680 0.0000 0.0000 0.0000
# 4 0.0000 0.0000 0.0000 36.1914 0.0000 0.0000
# 5 0.0000 0.0000 0.0000 0.0000 18.6853 0.0000
# 6 0.0000 0.0000 0.0000 0.0000 0.0000 40.1967
#
#
#
# Elastic Compliance Matrix: (Units=1/GPa)
#
#
# Indices 1 2 3 4 5 6 
#
# 1 0.006563 -0.001000 -0.001049 0.000000 0.000000 0.000000
# 2 -0.001000 0.005187 -0.002517 0.000000 0.000000 0.000000
# 3 -0.001049 -0.002517 0.010619 0.000000 0.000000 0.000000
# 4 0.000000 0.000000 0.000000 0.027631 0.000000 0.000000
# 5 0.000000 0.000000 0.000000 0.000000 0.053518 0.000000
# 6 0.000000 0.000000 0.000000 0.000000 0.000000 0.024878
#
#
# Mechanical properties :
#
#
# Convention : Reuss Voigt Hill
#
# Bulk Modulus (GPa) = 75.54684 84.90592 80.22638
# Shear Modulus (GPa) = 35.22630 43.95462 39.59046
#
# Velocity S-wave (km/s) = 3.96441 4.42840 4.20282
# Velocity P-wave (km/s) = 7.39333 8.00183 7.70359
#
# Compressibility (1/GPa) = 0.01323682
#
# Stress axis : x y z
#
# Youngs Moduli (GPa) = 152.37200 192.79324 94.17129
#
# Poissons Ratio (x) = 0.19275 0.09878
# Poissons Ratio (y) = 0.15234 0.23705
# Poissons Ratio (z) = 0.15983 0.48530
#
# Static dielectric constant tensor:
#      x y z
#    x 1.829770 0.000000 0.000000 
#    y 0.000000 1.781680 0.000000 
#    z 0.000000 0.000000 1.877100 
# 
# From -- ./inp_files/20307.got.cif
#   From: 2010.05.17/outbox.cif.g08.bks.cpg/sg69_11_cif.got.tgz:20307.got - 2010.06.03 19:29:58.
