data_PCOD9513387
_publ_section_title
;
Structure prediction by ZEFSAII (Michael W. Deem and Ramdas Pophale) SiO2 
 PCOD9513387
Probable space group: F M M M
;
_chemical_formula_sum "Si O2"
_cell_formula_units_Z 88
_cell_length_a 13.833608
_cell_length_b 29.794495
_cell_length_c 10.343745
_cell_angle_alpha 90.000000
_cell_angle_beta 90.000000
_cell_angle_gamma 90.000000
_cell_volume 4263.333427
_symmetry_space_group_name_H-M "F M M M"
_symmetry_group_IT_number 69
_symmetry_cell_setting 'orthorhombic'
loop_
_space_group_symop_operation_xyz
x,y,z
-x,-y,z
x,-y,-z
-x,y,-z
-x,-y,-z
x,y,-z
-x,y,z
x,-y,z
x,1/2+y,1/2+z
-x,1/2-y,1/2+z
x,1/2-y,1/2-z
-x,1/2+y,1/2-z
-x,1/2-y,1/2-z
x,1/2+y,1/2-z
-x,1/2+y,1/2+z
x,1/2-y,1/2+z
1/2+x,y,1/2+z
1/2-x,-y,1/2+z
1/2+x,-y,1/2-z
1/2-x,y,1/2-z
1/2-x,-y,1/2-z
1/2+x,y,1/2-z
1/2-x,y,1/2+z
1/2+x,-y,1/2+z
1/2+x,1/2+y,z
1/2-x,1/2-y,z
1/2+x,1/2-y,-z
1/2-x,1/2+y,-z
1/2-x,1/2-y,-z
1/2+x,1/2+y,-z
1/2-x,1/2+y,z
1/2+x,1/2-y,z
loop_
_atom_site_type_symbol
_atom_site_label
_atom_site_fract_x
_atom_site_fract_y
_atom_site_fract_z
Si Si1 0.109787 0.500000 0.843207
Si Si2 0.886210 0.325265 0.646418
Si Si3 0.250000 0.750000 0.750000
Si Si4 0.882288 0.901581 0.352609
O O1 0.151413 0.548718 0.810735
O O2 0.000000 0.500000 0.791990
O O3 0.105426 0.500000 0.000000
O O4 0.875861 0.342244 0.500000
O O5 0.819399 0.282175 0.667363
O O6 0.859451 0.362946 0.751205
O O7 0.000000 0.313890 0.665448
O O8 0.850000 0.891961 0.500000
O O9 0.000000 0.903971 0.357274
#
# Coordination Sequence:
#
# PCOD9513387 Si02
#       4
#    16  32   8  32
#     4   7  10  20  43  76 109 142 180 214 250 312
#     4  10  22  39  58  83 113 142 180 233 283 325
#     4  12  24  40  60  78 102 148 194 226 274 344
#     4   8  14  27  50  79 111 146 181 217 262 321
#
# _framework density 20.641126
#
# number of rings (size 3 to 8) (size 9 to 14) (size 15 to 20)
#    0.000    3.091    0.000    3.273    0.000    2.909 
#    0.000    4.545    0.000    6.545    0.000    0.000 
#    0.000    0.000    0.000    0.000    0.000    2.545 
#
# Total GULP energy -122687.006275 kJ/mol
# GULP energy per Si atom -5576.682103 kJ/mol
# Density = 2.059415 g / cm^3
# Si number density = 20.641126 Si / 1000 Ang^3
#
#
#
# Elastic Constant Matrix: (Units=GPa)
#
#
# Indices 1 2 3 4 5 6 
#
# 1 107.2459 48.1772 46.8728 0.0000 0.0000 0.0000
# 2 48.1772 173.0162 90.8726 0.0000 0.0000 0.0000
# 3 46.8728 90.8726 121.2236 0.0000 0.0000 0.0000
# 4 0.0000 0.0000 0.0000 -126.7476 0.0000 0.0000
# 5 0.0000 0.0000 0.0000 0.0000 -7.5083 0.0000
# 6 0.0000 0.0000 0.0000 0.0000 0.0000 -40.4075
#
#
#
# Elastic Compliance Matrix: (Units=1/GPa)
#
#
# Indices 1 2 3 4 5 6 
#
# 1 0.011428 -0.001421 -0.003354 0.000000 0.000000 0.000000
# 2 -0.001421 0.009710 -0.006729 0.000000 0.000000 0.000000
# 3 -0.003354 -0.006729 0.014591 0.000000 0.000000 0.000000
# 4 0.000000 0.000000 0.000000 -0.007890 0.000000 0.000000
# 5 0.000000 0.000000 0.000000 0.000000 -0.133186 0.000000
# 6 0.000000 0.000000 0.000000 0.000000 0.000000 -0.024748
#
#
# Mechanical properties :
#
#
# Convention : Reuss Voigt Hill
#
# Bulk Modulus (GPa) = 78.61186 85.92567 82.26876
# Shear Modulus (GPa) = -48.61663 -20.56180 -34.58921
#
# Velocity S-wave (km/s) = -4.85844 -3.15962 -4.09802
# Velocity P-wave (km/s) = 2.58751 5.32990 4.18945
#
# Compressibility (1/GPa) = 0.01272073
#
# Stress axis : x y z
#
# Youngs Moduli (GPa) = 87.50083 102.98748 68.53685
#
# Poissons Ratio (x) = 0.14632 0.22987
# Poissons Ratio (y) = 0.12431 0.46122
# Poissons Ratio (z) = 0.29347 0.69305
#
# Static dielectric constant tensor:
#      x y z
#    x 1.780400 0.000000 0.000000 
#    y 0.000000 1.738970 0.000000 
#    z 0.000000 0.000000 1.698910 
# 
# From -- ./inp_files/6978.got.cif
#   From: 2010.05.17/outbox.cif.g08.bks.cpg/sg69_4_cif.got.tgz:6978.got - 2010.06.03 19:29:58.
