data_PCOD9513317
_publ_section_title
;
Structure prediction by ZEFSAII (Michael W. Deem and Ramdas Pophale) SiO2 
 PCOD9513317
Probable space group: F M M M
;
_chemical_formula_sum "Si O2"
_cell_formula_units_Z 160
_cell_length_a 17.573412
_cell_length_b 20.338257
_cell_length_c 23.462707
_cell_angle_alpha 90.000000
_cell_angle_beta 90.000000
_cell_angle_gamma 90.000000
_cell_volume 8385.866399
_symmetry_space_group_name_H-M "F M M M"
_symmetry_group_IT_number 69
_symmetry_cell_setting 'orthorhombic'
loop_
_space_group_symop_operation_xyz
x,y,z
-x,-y,z
x,-y,-z
-x,y,-z
-x,-y,-z
x,y,-z
-x,y,z
x,-y,z
x,1/2+y,1/2+z
-x,1/2-y,1/2+z
x,1/2-y,1/2-z
-x,1/2+y,1/2-z
-x,1/2-y,1/2-z
x,1/2+y,1/2-z
-x,1/2+y,1/2+z
x,1/2-y,1/2+z
1/2+x,y,1/2+z
1/2-x,-y,1/2+z
1/2+x,-y,1/2-z
1/2-x,y,1/2-z
1/2-x,-y,1/2-z
1/2+x,y,1/2-z
1/2-x,y,1/2+z
1/2+x,-y,1/2+z
1/2+x,1/2+y,z
1/2-x,1/2-y,z
1/2+x,1/2-y,-z
1/2-x,1/2+y,-z
1/2-x,1/2-y,-z
1/2+x,1/2+y,-z
1/2-x,1/2+y,z
1/2+x,1/2-y,z
loop_
_atom_site_type_symbol
_atom_site_label
_atom_site_fract_x
_atom_site_fract_y
_atom_site_fract_z
Si Si1 0.587634 0.661337 0.000000
Si Si2 0.304919 0.137310 0.117730
Si Si3 0.911207 0.500000 0.618565
Si Si4 0.757257 0.000000 0.568245
Si Si5 0.087503 0.726892 0.811772
Si Si6 0.631671 0.641911 0.127391
Si Si7 0.329013 0.710330 0.500000
O O1 0.623857 0.637044 0.941343
O O2 0.601565 0.739211 0.000000
O O3 0.500000 0.643055 0.000000
O O4 0.294571 0.061774 0.100253
O O5 0.363864 0.167472 0.162307
O O6 0.220192 0.155056 0.138920
O O7 0.326844 0.170404 0.057846
O O8 0.834722 0.500000 0.578772
O O9 0.899503 0.428673 0.649447
O O10 0.000000 0.500000 0.597119
O O11 0.770330 0.000000 0.500000
O O12 0.116148 0.750000 0.750000
O O13 0.090469 0.792551 0.851030
O O14 0.000000 0.706145 0.805936
O O15 0.250000 0.750000 0.500000
#
# Coordination Sequence:
#
# PCOD9513317 Si02
#       7
#    16  32  16  16  32  32  16
#     4  12  22  31  52  87 122 152 193 244 296 363
#     4  11  21  38  61  86 124 161 202 249 303 370
#     4  10  22  35  53  84 129 168 197 237 296 372
#     4  10  22  37  58  89 126 171 207 244 304 369
#     4  11  24  42  64  88 114 149 203 267 320 363
#     4  11  22  37  56  87 121 161 198 238 300 373
#     4  12  18  31  55  85 118 158 198 239 304 367
#
# _framework density 19.079722
#
# number of rings (size 3 to 8) (size 9 to 14) (size 15 to 20)
#    0.000    1.000    5.000    2.400    4.200    1.800 
#    0.000    1.500    0.000    6.600    0.000    0.000 
#    0.000    0.000    0.000    0.000    0.000    0.000 
#
# Total GULP energy -222975.106054 kJ/mol
# GULP energy per Si atom -5574.377651 kJ/mol
# Density = 1.903630 g / cm^3
# Si number density = 19.079722 Si / 1000 Ang^3
#
#
#
# Elastic Constant Matrix: (Units=GPa)
#
#
# Indices 1 2 3 4 5 6 
#
# 1 94.0597 45.3917 36.2920 0.0000 0.0000 0.0000
# 2 45.3917 102.2251 29.2971 0.0000 0.0000 0.0000
# 3 36.2920 29.2971 79.7374 0.0000 0.0000 0.0000
# 4 0.0000 0.0000 0.0000 -14.3405 0.0000 0.0000
# 5 0.0000 0.0000 0.0000 0.0000 15.9206 0.0000
# 6 0.0000 0.0000 0.0000 0.0000 0.0000 4.1477
#
#
#
# Elastic Compliance Matrix: (Units=1/GPa)
#
#
# Indices 1 2 3 4 5 6 
#
# 1 0.015082 -0.005286 -0.004922 0.000000 0.000000 0.000000
# 2 -0.005286 0.012786 -0.002292 0.000000 0.000000 0.000000
# 3 -0.004922 -0.002292 0.015624 0.000000 0.000000 0.000000
# 4 0.000000 0.000000 0.000000 -0.069733 0.000000 0.000000
# 5 0.000000 0.000000 0.000000 0.000000 0.062812 0.000000
# 6 0.000000 0.000000 0.000000 0.000000 0.000000 0.241100
#
#
# Mechanical properties :
#
#
# Convention : Reuss Voigt Hill
#
# Bulk Modulus (GPa) = 54.07999 55.33152 54.70576
# Shear Modulus (GPa) = 16.18985 12.14832 14.16909
#
# Velocity S-wave (km/s) = 2.91613 2.52606 2.72807
# Velocity P-wave (km/s) = 6.30430 6.12952 6.21752
#
# Compressibility (1/GPa) = 0.01849113
#
# Stress axis : x y z
#
# Youngs Moduli (GPa) = 66.30547 78.20763 64.00585
#
# Poissons Ratio (x) = 0.41342 0.31504
# Poissons Ratio (y) = 0.35050 0.14670
# Poissons Ratio (z) = 0.32636 0.17925
#
# Static dielectric constant tensor:
#      x y z
#    x 1.684460 0.000000 0.000000 
#    y 0.000000 1.675220 0.000000 
#    z 0.000000 0.000000 1.658310 
# 
# From -- ./inp_files/30879.got.cif
#   From: 2010.05.17/outbox.cif.g08.bks.cpg/sg69_16_cif.got.tgz:30879.got - 2010.06.03 19:29:58.
