data_PCOD9513162
_publ_section_title
;
Structure prediction by ZEFSAII (Michael W. Deem and Ramdas Pophale) SiO2 
 PCOD9513162
Probable space group: F M M M
;
_chemical_formula_sum "Si O2"
_cell_formula_units_Z 136
_cell_length_a 18.816446
_cell_length_b 24.277993
_cell_length_c 13.602335
_cell_angle_alpha 90.000000
_cell_angle_beta 90.000000
_cell_angle_gamma 90.000000
_cell_volume 6213.894090
_symmetry_space_group_name_H-M "F M M M"
_symmetry_group_IT_number 69
_symmetry_cell_setting 'orthorhombic'
loop_
_space_group_symop_operation_xyz
x,y,z
-x,-y,z
x,-y,-z
-x,y,-z
-x,-y,-z
x,y,-z
-x,y,z
x,-y,z
x,1/2+y,1/2+z
-x,1/2-y,1/2+z
x,1/2-y,1/2-z
-x,1/2+y,1/2-z
-x,1/2-y,1/2-z
x,1/2+y,1/2-z
-x,1/2+y,1/2+z
x,1/2-y,1/2+z
1/2+x,y,1/2+z
1/2-x,-y,1/2+z
1/2+x,-y,1/2-z
1/2-x,y,1/2-z
1/2-x,-y,1/2-z
1/2+x,y,1/2-z
1/2-x,y,1/2+z
1/2+x,-y,1/2+z
1/2+x,1/2+y,z
1/2-x,1/2-y,z
1/2+x,1/2-y,-z
1/2-x,1/2+y,-z
1/2-x,1/2-y,-z
1/2+x,1/2+y,-z
1/2-x,1/2+y,z
1/2+x,1/2-y,z
loop_
_atom_site_type_symbol
_atom_site_label
_atom_site_fract_x
_atom_site_fract_y
_atom_site_fract_z
Si Si1 0.921897 0.222753 0.119540
Si Si2 0.500000 0.000000 0.341051
Si Si3 0.630206 0.439693 0.238212
Si Si4 0.207128 0.855895 0.883632
Si Si5 0.128698 0.657791 0.116997
O O1 0.854792 0.185891 0.148903
O O2 0.910565 0.286394 0.147763
O O3 0.000000 0.202965 0.149889
O O4 0.920462 0.222442 0.000000
O O5 0.437145 0.952849 0.331234
O O6 0.649770 0.500000 0.279459
O O7 0.691234 0.411956 0.173529
O O8 0.609193 0.396719 0.322875
O O9 0.286445 0.834218 0.866940
O O10 0.200199 0.864766 0.000000
O O11 0.117320 0.649911 0.000000
#
# Coordination Sequence:
#
# PCOD9513162 Si02
#       5
#    32   8  32  32  32
#     4   9  19  34  57  88 119 152 191 233 282 343
#     4   8  24  44  56  82 120 150 190 248 292 320
#     4  10  23  41  59  82 114 151 194 242 283 341
#     4  10  21  38  61  87 118 153 189 235 289 341
#     4  10  21  38  61  87 118 153 189 235 289 341
#
# _framework density 21.886437000000001
#
# number of rings (size 3 to 8) (size 9 to 14) (size 15 to 20)
#    0.706    1.647    0.000    1.412    3.294    6.588 
#    0.000    7.059    0.000    0.000    0.000    0.000 
#    0.000    0.000    0.000    0.000    0.000    0.000 
#
# Total GULP energy -189352.449559 kJ/mol
# GULP energy per Si atom -5569.189693 kJ/mol
# Density = 2.183662 g / cm^3
# Si number density = 21.886437 Si / 1000 Ang^3
#
#
#
# Elastic Constant Matrix: (Units=GPa)
#
#
# Indices 1 2 3 4 5 6 
#
# 1 70.7917 13.2959 2.8786 0.0000 0.0000 0.0000
# 2 13.2959 112.3438 6.6231 0.0000 0.0000 0.0000
# 3 2.8786 6.6231 49.6245 0.0000 0.0000 0.0000
# 4 0.0000 0.0000 0.0000 9.4501 0.0000 0.0000
# 5 0.0000 0.0000 0.0000 0.0000 12.1053 0.0000
# 6 0.0000 0.0000 0.0000 0.0000 0.0000 40.3011
#
#
#
# Elastic Compliance Matrix: (Units=1/GPa)
#
#
# Indices 1 2 3 4 5 6 
#
# 1 0.014466 -0.001676 -0.000615 0.000000 0.000000 0.000000
# 2 -0.001676 0.009166 -0.001126 0.000000 0.000000 0.000000
# 3 -0.000615 -0.001126 0.020337 0.000000 0.000000 0.000000
# 4 0.000000 0.000000 0.000000 0.105819 0.000000 0.000000
# 5 0.000000 0.000000 0.000000 0.000000 0.082608 0.000000
# 6 0.000000 0.000000 0.000000 0.000000 0.000000 0.024813
#
#
# Mechanical properties :
#
#
# Convention : Reuss Voigt Hill
#
# Bulk Modulus (GPa) = 26.92922 30.92834 28.92878
# Shear Modulus (GPa) = 18.08828 26.36881 22.22855
#
# Velocity S-wave (km/s) = 2.87794 3.47479 3.19035
# Velocity P-wave (km/s) = 4.83468 5.50099 5.17856
#
# Compressibility (1/GPa) = 0.03713438
#
# Stress axis : x y z
#
# Youngs Moduli (GPa) = 69.12903 109.09930 49.17061
#
# Poissons Ratio (x) = 0.18282 0.03026
# Poissons Ratio (y) = 0.11584 0.05537
# Poissons Ratio (z) = 0.04255 0.12286
#
# Static dielectric constant tensor:
#      x y z
#    x 1.790920 0.000000 0.000000 
#    y 0.000000 1.782950 0.000000 
#    z 0.000000 0.000000 1.871310 
# 
# From -- ./inp_files/16523.got.cif
#   From: 2010.05.17/outbox.cif.g08.bks.cpg/sg69_9_cif.got.tgz:16523.got - 2010.06.03 19:29:58.
