data_PCOD9513770
_publ_section_title
;
Structure prediction by ZEFSAII (Michael W. Deem and Ramdas Pophale) SiO2 
 PCOD9513770
Probable space group: F M M M
;
_chemical_formula_sum "Si O2"
_cell_formula_units_Z 112
_cell_length_a 17.101022
_cell_length_b 22.819966
_cell_length_c 14.802785
_cell_angle_alpha 90.000000
_cell_angle_beta 90.000000
_cell_angle_gamma 90.000000
_cell_volume 5776.708993
_symmetry_space_group_name_H-M "F M M M"
_symmetry_group_IT_number 69
_symmetry_cell_setting 'orthorhombic'
loop_
_space_group_symop_operation_xyz
x,y,z
-x,-y,z
x,-y,-z
-x,y,-z
-x,-y,-z
x,y,-z
-x,y,z
x,-y,z
x,1/2+y,1/2+z
-x,1/2-y,1/2+z
x,1/2-y,1/2-z
-x,1/2+y,1/2-z
-x,1/2-y,1/2-z
x,1/2+y,1/2-z
-x,1/2+y,1/2+z
x,1/2-y,1/2+z
1/2+x,y,1/2+z
1/2-x,-y,1/2+z
1/2+x,-y,1/2-z
1/2-x,y,1/2-z
1/2-x,-y,1/2-z
1/2+x,y,1/2-z
1/2-x,y,1/2+z
1/2+x,-y,1/2+z
1/2+x,1/2+y,z
1/2-x,1/2-y,z
1/2+x,1/2-y,-z
1/2-x,1/2+y,-z
1/2-x,1/2-y,-z
1/2+x,1/2+y,-z
1/2-x,1/2+y,z
1/2+x,1/2-y,z
loop_
_atom_site_type_symbol
_atom_site_label
_atom_site_fract_x
_atom_site_fract_y
_atom_site_fract_z
Si Si1 0.838813 0.389978 0.283148
Si Si2 0.405732 0.500000 0.107632
Si Si3 0.593885 0.850192 0.904025
Si Si4 0.411120 0.724940 0.148705
O O1 0.750000 0.394714 0.250000
O O2 0.869408 0.443978 0.341640
O O3 0.883549 0.382495 0.187621
O O4 0.857050 0.331705 0.342269
O O5 0.500000 0.500000 0.117910
O O6 0.388754 0.500000 0.000000
O O7 0.500000 0.846728 0.903909
O O8 0.620928 0.782237 0.901225
O O9 0.619653 0.876906 0.000000
O O10 0.500000 0.709533 0.117959
O O11 0.418504 0.750000 0.250000
#
# Coordination Sequence:
#
# PCOD9513770 Si02
#       4
#    32  16  32  32
#     4  11  22  37  57  84 116 147 181 235 296 341
#     4  11  25  44  63  79 101 145 202 245 278 332
#     4   9  18  34  58  87 117 151 190 229 273 331
#     4   8  15  30  52  78 111 149 183 212 252 318
#
# _framework density 19.388200999999999
#
# number of rings (size 3 to 8) (size 9 to 14) (size 15 to 20)
#    0.000    2.429    0.000    4.714    0.000    7.429 
#    0.000    5.000    0.000    2.571    0.000    0.000 
#    0.000    0.000    0.000    0.000    0.000    0.000 
#
# Total GULP energy -155970.111975 kJ/mol
# GULP energy per Si atom -5570.361142 kJ/mol
# Density = 1.934407 g / cm^3
# Si number density = 19.388201 Si / 1000 Ang^3
#
#
#
# Elastic Constant Matrix: (Units=GPa)
#
#
# Indices 1 2 3 4 5 6 
#
# 1 83.7122 54.9531 34.9377 0.0000 0.0000 0.0000
# 2 54.9531 123.0883 58.1303 0.0000 0.0000 0.0000
# 3 34.9377 58.1303 137.3656 0.0000 0.0000 0.0000
# 4 0.0000 0.0000 0.0000 15.6289 0.0000 0.0000
# 5 0.0000 0.0000 0.0000 0.0000 11.4451 0.0000
# 6 0.0000 0.0000 0.0000 0.0000 0.0000 -4.8378
#
#
#
# Elastic Compliance Matrix: (Units=1/GPa)
#
#
# Indices 1 2 3 4 5 6 
#
# 1 0.017110 -0.006978 -0.001399 0.000000 0.000000 0.000000
# 2 -0.006978 0.013000 -0.003726 0.000000 0.000000 0.000000
# 3 -0.001399 -0.003726 0.009212 0.000000 0.000000 0.000000
# 4 0.000000 0.000000 0.000000 0.063984 0.000000 0.000000
# 5 0.000000 0.000000 0.000000 0.000000 0.087373 0.000000
# 6 0.000000 0.000000 0.000000 0.000000 0.000000 -0.206707
#
#
# Mechanical properties :
#
#
# Convention : Reuss Voigt Hill
#
# Bulk Modulus (GPa) = 66.15668 71.13426 68.64547
# Shear Modulus (GPa) = 378.27370 17.52361 197.89865
#
# Velocity S-wave (km/s) = 13.98316 3.00964 10.11401
# Velocity P-wave (km/s) = 17.17268 6.98901 13.11006
#
# Compressibility (1/GPa) = 0.01511563
#
# Stress axis : x y z
#
# Youngs Moduli (GPa) = 58.44379 76.92574 108.54843
#
# Poissons Ratio (x) = 0.53682 0.15183
# Poissons Ratio (y) = 0.40784 0.40448
# Poissons Ratio (z) = 0.08175 0.28664
#
# Static dielectric constant tensor:
#      x y z
#    x 1.706860 0.000000 0.000000 
#    y 0.000000 1.688710 0.000000 
#    z 0.000000 0.000000 1.725030 
# 
# From -- ./inp_files/14091.got.cif
#   From: 2010.05.17/outbox.cif.g08.bks.cpg/sg69_8_cif.got.tgz:14091.got - 2010.06.03 19:29:58.
