data_PCOD9513900
_publ_section_title
;
Structure prediction by ZEFSAII (Michael W. Deem and Ramdas Pophale) SiO2 
 PCOD9513900
Probable space group: F M M M
;
_chemical_formula_sum "Si O2"
_cell_formula_units_Z 168
_cell_length_a 14.511432
_cell_length_b 32.170389
_cell_length_c 16.311956
_cell_angle_alpha 90.000000
_cell_angle_beta 90.000000
_cell_angle_gamma 90.000000
_cell_volume 7615.047642
_symmetry_space_group_name_H-M "F M M M"
_symmetry_group_IT_number 69
_symmetry_cell_setting 'orthorhombic'
loop_
_space_group_symop_operation_xyz
x,y,z
-x,-y,z
x,-y,-z
-x,y,-z
-x,-y,-z
x,y,-z
-x,y,z
x,-y,z
x,1/2+y,1/2+z
-x,1/2-y,1/2+z
x,1/2-y,1/2-z
-x,1/2+y,1/2-z
-x,1/2-y,1/2-z
x,1/2+y,1/2-z
-x,1/2+y,1/2+z
x,1/2-y,1/2+z
1/2+x,y,1/2+z
1/2-x,-y,1/2+z
1/2+x,-y,1/2-z
1/2-x,y,1/2-z
1/2-x,-y,1/2-z
1/2+x,y,1/2-z
1/2-x,y,1/2+z
1/2+x,-y,1/2+z
1/2+x,1/2+y,z
1/2-x,1/2-y,z
1/2+x,1/2-y,-z
1/2-x,1/2+y,-z
1/2-x,1/2-y,-z
1/2+x,1/2+y,-z
1/2-x,1/2+y,z
1/2+x,1/2-y,z
loop_
_atom_site_type_symbol
_atom_site_label
_atom_site_fract_x
_atom_site_fract_y
_atom_site_fract_z
Si Si1 0.110545 0.059982 0.856467
Si Si2 0.827894 0.500000 0.500000
Si Si3 0.759810 0.799324 0.088480
Si Si4 0.102183 0.152233 0.183579
Si Si5 0.105701 0.365197 0.876948
Si Si6 0.612345 0.954325 0.165717
O O1 0.161360 0.035577 0.927125
O O2 0.122937 0.109328 0.862812
O O3 0.137594 0.048504 0.762469
O O4 0.000000 0.051255 0.863672
O O5 0.750000 0.750000 0.094050
O O6 0.822879 0.814502 0.161618
O O7 0.668595 0.827986 0.090807
O O8 0.805248 0.808004 0.000000
O O9 0.102869 0.141161 0.278964
O O10 0.000000 0.166585 0.161468
O O11 0.141872 0.412969 0.883601
O O12 0.000000 0.363143 0.906581
O O13 0.500000 0.952623 0.164387
O O14 0.639848 0.000000 0.133471
#
# Coordination Sequence:
#
# PCOD9513900 Si02
#       6
#    32   8  32  32  32  32
#     4   9  16  24  41  74 113 151 187 225 271 332
#     4  12  17  20  40  76 116 160 195 220 273 346
#     4  11  25  42  60  83 114 150 187 238 302 359
#     4   9  20  38  60  86 115 150 191 234 283 341
#     4   9  19  37  63  90 115 149 195 240 282 338
#     4   8  13  26  49  78 111 146 188 235 279 325
#
# _framework density 22.061582000000001
#
# number of rings (size 3 to 8) (size 9 to 14) (size 15 to 20)
#    0.000    2.667    0.952    3.714    1.333    3.048 
#    0.000    3.810    2.095    2.857    0.000    2.667 
#    0.000    0.000    0.000    0.000    0.000    0.000 
#
# Total GULP energy -233978.914890 kJ/mol
# GULP energy per Si atom -5570.926545 kJ/mol
# Density = 2.201137 g / cm^3
# Si number density = 22.061582 Si / 1000 Ang^3
#
#
#
# Elastic Constant Matrix: (Units=GPa)
#
#
# Indices 1 2 3 4 5 6 
#
# 1 66.6091 46.1155 18.6542 0.0000 0.0000 0.0000
# 2 46.1155 148.4858 38.0035 0.0000 0.0000 0.0000
# 3 18.6542 38.0035 47.6637 0.0000 0.0000 0.0000
# 4 0.0000 0.0000 0.0000 89.6778 0.0000 0.0000
# 5 0.0000 0.0000 0.0000 0.0000 15.8684 0.0000
# 6 0.0000 0.0000 0.0000 0.0000 0.0000 44.3218
#
#
#
# Elastic Compliance Matrix: (Units=1/GPa)
#
#
# Indices 1 2 3 4 5 6 
#
# 1 0.019589 -0.005178 -0.003538 0.000000 0.000000 0.000000
# 2 -0.005178 0.009830 -0.005811 0.000000 0.000000 0.000000
# 3 -0.003538 -0.005811 0.026998 0.000000 0.000000 0.000000
# 4 0.000000 0.000000 0.000000 0.011151 0.000000 0.000000
# 5 0.000000 0.000000 0.000000 0.000000 0.063018 0.000000
# 6 0.000000 0.000000 0.000000 0.000000 0.000000 0.022562
#
#
# Mechanical properties :
#
#
# Convention : Reuss Voigt Hill
#
# Bulk Modulus (GPa) = 36.54589 52.03391 44.28990
# Shear Modulus (GPa) = 26.13364 40.63930 33.38647
#
# Velocity S-wave (km/s) = 3.44550 4.29661 3.89438
# Velocity P-wave (km/s) = 5.69474 6.94632 6.35143
#
# Compressibility (1/GPa) = 0.02736285
#
# Stress axis : x y z
#
# Youngs Moduli (GPa) = 51.04955 101.72717 37.03929
#
# Poissons Ratio (x) = 0.52677 0.13103
# Poissons Ratio (y) = 0.26435 0.21524
# Poissons Ratio (z) = 0.18060 0.59116
#
# Static dielectric constant tensor:
#      x y z
#    x 1.857850 0.000000 0.000000 
#    y 0.000000 1.811390 0.000000 
#    z 0.000000 0.000000 1.771690 
# 
# From -- ./inp_files/30134.got.cif
#   From: 2010.05.17/outbox.cif.g08.bks.cpg/sg69_16_cif.got.tgz:30134.got - 2010.06.03 19:29:58.
