data_PCOD9513453
_publ_section_title
;
Structure prediction by ZEFSAII (Michael W. Deem and Ramdas Pophale) SiO2 
 PCOD9513453
Probable space group: F M M M
;
_chemical_formula_sum "Si O2"
_cell_formula_units_Z 100
_cell_length_a 17.958768
_cell_length_b 10.603384
_cell_length_c 25.655854
_cell_angle_alpha 90.000000
_cell_angle_beta 90.000000
_cell_angle_gamma 90.000000
_cell_volume 4885.482986
_symmetry_space_group_name_H-M "F M M M"
_symmetry_group_IT_number 69
_symmetry_cell_setting 'orthorhombic'
loop_
_space_group_symop_operation_xyz
x,y,z
-x,-y,z
x,-y,-z
-x,y,-z
-x,-y,-z
x,y,-z
-x,y,z
x,-y,z
x,1/2+y,1/2+z
-x,1/2-y,1/2+z
x,1/2-y,1/2-z
-x,1/2+y,1/2-z
-x,1/2-y,1/2-z
x,1/2+y,1/2-z
-x,1/2+y,1/2+z
x,1/2-y,1/2+z
1/2+x,y,1/2+z
1/2-x,-y,1/2+z
1/2+x,-y,1/2-z
1/2-x,y,1/2-z
1/2-x,-y,1/2-z
1/2+x,y,1/2-z
1/2-x,y,1/2+z
1/2+x,-y,1/2+z
1/2+x,1/2+y,z
1/2-x,1/2-y,z
1/2+x,1/2-y,-z
1/2-x,1/2+y,-z
1/2-x,1/2-y,-z
1/2+x,1/2+y,-z
1/2-x,1/2+y,z
1/2+x,1/2-y,z
loop_
_atom_site_type_symbol
_atom_site_label
_atom_site_fract_x
_atom_site_fract_y
_atom_site_fract_z
Si Si1 0.317654 0.648668 0.000000
Si Si2 0.411077 0.361964 0.212345
Si Si3 0.500000 0.500000 0.500000
Si Si4 0.338892 0.264248 0.888624
Si Si5 0.581519 0.000000 0.107944
O O1 0.250000 0.750000 0.000000
O O2 0.358858 0.679962 0.945766
O O3 0.295497 0.500000 0.000000
O O4 0.500000 0.348877 0.203866
O O5 0.397246 0.500000 0.235686
O O6 0.386345 0.250000 0.250000
O O7 0.370057 0.349509 0.157438
O O8 0.563240 0.500000 0.546318
O O9 0.250000 0.250000 0.885901
O O10 0.374776 0.127062 0.880780
O O11 0.500000 0.000000 0.134834
#
# Coordination Sequence:
#
# PCOD9513453 Si02
#       5
#    16  32   4  32  16
#     4  10  23  38  61  92 140 179 215 265 340 405
#     4  10  23  44  68  93 128 172 223 275 337 405
#     4   8  20  40  64  92 134 180 250 256 314 402
#     4  11  24  39  69  97 138 170 227 275 342 390
#     4  10  22  40  66  95 136 180 232 270 326 409
#
# _framework density 20.468805
#
# number of rings (size 3 to 8) (size 9 to 14) (size 15 to 20)
#    0.480    1.280    0.000    2.880   13.440    0.640 
#    0.000    1.600    0.000    3.840    0.000    0.000 
#    0.000    0.000    0.000    0.000    0.000    0.000 
#
# Total GULP energy -139325.404278 kJ/mol
# GULP energy per Si atom -5573.016171 kJ/mol
# Density = 2.042222 g / cm^3
# Si number density = 20.468805 Si / 1000 Ang^3
#
#
#
# Elastic Constant Matrix: (Units=GPa)
#
#
# Indices 1 2 3 4 5 6 
#
# 1 67.2889 47.4573 13.4687 0.0000 0.0000 0.0000
# 2 47.4573 173.5319 42.0697 0.0000 0.0000 0.0000
# 3 13.4687 42.0697 108.8413 0.0000 0.0000 0.0000
# 4 0.0000 0.0000 0.0000 69.4365 0.0000 0.0000
# 5 0.0000 0.0000 0.0000 0.0000 40.3469 0.0000
# 6 0.0000 0.0000 0.0000 0.0000 0.0000 28.4339
#
#
#
# Elastic Compliance Matrix: (Units=1/GPa)
#
#
# Indices 1 2 3 4 5 6 
#
# 1 0.018426 -0.004950 -0.000367 0.000000 0.000000 0.000000
# 2 -0.004950 0.007688 -0.002359 0.000000 0.000000 0.000000
# 3 -0.000367 -0.002359 0.010145 0.000000 0.000000 0.000000
# 4 0.000000 0.000000 0.000000 0.014402 0.000000 0.000000
# 5 0.000000 0.000000 0.000000 0.000000 0.024785 0.000000
# 6 0.000000 0.000000 0.000000 0.000000 0.000000 0.035169
#
#
# Mechanical properties :
#
#
# Convention : Reuss Voigt Hill
#
# Bulk Modulus (GPa) = 47.83091 61.73929 54.78510
# Shear Modulus (GPa) = 37.61196 44.08789 40.84992
#
# Velocity S-wave (km/s) = 4.29129 4.64605 4.47219
# Velocity P-wave (km/s) = 6.92618 7.68175 7.31373
#
# Compressibility (1/GPa) = 0.02090698
#
# Stress axis : x y z
#
# Youngs Moduli (GPa) = 54.27128 130.06714 98.57129
#
# Poissons Ratio (x) = 0.64386 0.03615
# Poissons Ratio (y) = 0.26865 0.23254
# Poissons Ratio (z) = 0.01991 0.30685
#
# Static dielectric constant tensor:
#      x y z
#    x 1.717400 0.000000 0.000000 
#    y 0.000000 1.636110 0.000000 
#    z 0.000000 0.000000 1.733420 
# 
# From -- ./inp_files/4352.got.cif
#   From: 2010.05.17/outbox.cif.g08.bks.cpg/sg69_3_cif.got.tgz:4352.got - 2010.06.03 19:29:58.
