data_PCOD9513673
_publ_section_title
;
Structure prediction by ZEFSAII (Michael W. Deem and Ramdas Pophale) SiO2 
 PCOD9513673
Probable space group: F M M M
;
_chemical_formula_sum "Si O2"
_cell_formula_units_Z 192
_cell_length_a 20.066608
_cell_length_b 16.835088
_cell_length_c 30.204455
_cell_angle_alpha 90.000000
_cell_angle_beta 90.000000
_cell_angle_gamma 90.000000
_cell_volume 10203.762971
_symmetry_space_group_name_H-M "F M M M"
_symmetry_group_IT_number 69
_symmetry_cell_setting 'orthorhombic'
loop_
_space_group_symop_operation_xyz
x,y,z
-x,-y,z
x,-y,-z
-x,y,-z
-x,-y,-z
x,y,-z
-x,y,z
x,-y,z
x,1/2+y,1/2+z
-x,1/2-y,1/2+z
x,1/2-y,1/2-z
-x,1/2+y,1/2-z
-x,1/2-y,1/2-z
x,1/2+y,1/2-z
-x,1/2+y,1/2+z
x,1/2-y,1/2+z
1/2+x,y,1/2+z
1/2-x,-y,1/2+z
1/2+x,-y,1/2-z
1/2-x,y,1/2-z
1/2-x,-y,1/2-z
1/2+x,y,1/2-z
1/2-x,y,1/2+z
1/2+x,-y,1/2+z
1/2+x,1/2+y,z
1/2-x,1/2-y,z
1/2+x,1/2-y,-z
1/2-x,1/2+y,-z
1/2-x,1/2-y,-z
1/2+x,1/2+y,-z
1/2-x,1/2+y,z
1/2+x,1/2-y,z
loop_
_atom_site_type_symbol
_atom_site_label
_atom_site_fract_x
_atom_site_fract_y
_atom_site_fract_z
Si Si1 0.919657 0.764954 0.550206
Si Si2 0.421824 0.086291 0.569439
Si Si3 0.117893 0.364073 0.665814
Si Si4 0.000000 0.408376 0.169551
Si Si5 0.632389 0.181356 0.139704
Si Si6 0.500000 0.591616 0.774795
Si Si7 0.740547 0.908762 0.199326
O O1 0.913226 0.794320 0.500000
O O2 0.898596 0.671551 0.551205
O O3 0.875098 0.811156 0.586266
O O4 0.000000 0.767851 0.562036
O O5 0.500000 0.083670 0.558417
O O6 0.413083 0.096019 0.622193
O O7 0.393008 0.000000 0.555976
O O8 0.131222 0.272322 0.655389
O O9 0.065354 0.369035 0.705212
O O10 0.186122 0.405881 0.678728
O O11 0.065569 0.363794 0.153663
O O12 0.000000 0.500000 0.154801
O O13 0.000000 0.406305 0.222465
O O14 0.692461 0.138885 0.165946
O O15 0.500000 0.500000 0.789360
O O16 0.750000 0.877785 0.250000
O O17 0.716041 0.000000 0.202891
#
# Coordination Sequence:
#
# PCOD9513673 Si02
#       7
#    32  32  32  16  32  16  32
#     4   9  18  34  57  85 116 150 193 245 298 350
#     4   9  16  28  50  81 115 149 186 230 286 350
#     4  11  21  34  55  82 114 149 190 235 286 347
#     4  11  23  37  54  78 110 151 194 236 287 340
#     4  11  22  38  58  83 114 153 194 242 295 346
#     4  11  21  33  53  81 114 150 187 234 287 344
#     4  11  24  40  57  80 113 155 199 241 292 355
#
# _framework density 18.816587999999999
#
# number of rings (size 3 to 8) (size 9 to 14) (size 15 to 20)
#    0.000    1.667    1.667    4.000    0.000    7.000 
#    0.000    1.667    0.000   10.500    0.000    0.000 
#    0.000    0.000    0.000    0.000    0.000    0.000 
#
# Total GULP energy -267717.749880 kJ/mol
# GULP energy per Si atom -5577.453122 kJ/mol
# Density = 1.877376 g / cm^3
# Si number density = 18.816588 Si / 1000 Ang^3
#
#
#
# Elastic Constant Matrix: (Units=GPa)
#
#
# Indices 1 2 3 4 5 6 
#
# 1 75.4930 23.7607 32.8939 0.0000 0.0000 0.0000
# 2 23.7607 65.5538 40.9758 0.0000 0.0000 0.0000
# 3 32.8939 40.9758 113.2896 0.0000 0.0000 0.0000
# 4 0.0000 0.0000 0.0000 46.9492 0.0000 0.0000
# 5 0.0000 0.0000 0.0000 0.0000 -95.3076 0.0000
# 6 0.0000 0.0000 0.0000 0.0000 0.0000 30.1820
#
#
#
# Elastic Compliance Matrix: (Units=1/GPa)
#
#
# Indices 1 2 3 4 5 6 
#
# 1 0.015831 -0.003702 -0.003258 0.000000 0.000000 0.000000
# 2 -0.003702 0.020577 -0.006368 0.000000 0.000000 0.000000
# 3 -0.003258 -0.006368 0.012076 0.000000 0.000000 0.000000
# 4 0.000000 0.000000 0.000000 0.021300 0.000000 0.000000
# 5 0.000000 0.000000 0.000000 0.000000 -0.010492 0.000000
# 6 0.000000 0.000000 0.000000 0.000000 0.000000 0.033132
#
#
# Mechanical properties :
#
#
# Convention : Reuss Voigt Hill
#
# Bulk Modulus (GPa) = 45.80990 49.95524 47.88257
# Shear Modulus (GPa) = 39.57168 6.81179 23.19174
#
# Velocity S-wave (km/s) = 4.59085 1.90472 3.51453
# Velocity P-wave (km/s) = 7.24565 5.60744 6.47854
#
# Compressibility (1/GPa) = 0.02182934
#
# Stress axis : x y z
#
# Youngs Moduli (GPa) = 63.16813 48.59903 82.80988
#
# Poissons Ratio (x) = 0.17990 0.26976
# Poissons Ratio (y) = 0.23384 0.52729
# Poissons Ratio (z) = 0.20578 0.30946
#
# Static dielectric constant tensor:
#      x y z
#    x 1.639650 0.000000 0.000000 
#    y 0.000000 1.682520 0.000000 
#    z 0.000000 0.000000 1.675400 
# 
# From -- ./inp_files/46447.got.cif
#   From: 2010.05.17/outbox.cif.g08.bks.cpg/sg69_24_cif.got.tgz:46447.got - 2010.06.03 19:29:58.
