data_PCOD9513477
_publ_section_title
;
Structure prediction by ZEFSAII (Michael W. Deem and Ramdas Pophale) SiO2 
 PCOD9513477
Probable space group: F M M M
;
_chemical_formula_sum "Si O2"
_cell_formula_units_Z 216
_cell_length_a 23.314744
_cell_length_b 30.695558
_cell_length_c 14.583683
_cell_angle_alpha 90.000000
_cell_angle_beta 90.000000
_cell_angle_gamma 90.000000
_cell_volume 10436.945111
_symmetry_space_group_name_H-M "F M M M"
_symmetry_group_IT_number 69
_symmetry_cell_setting 'orthorhombic'
loop_
_space_group_symop_operation_xyz
x,y,z
-x,-y,z
x,-y,-z
-x,y,-z
-x,-y,-z
x,y,-z
-x,y,z
x,-y,z
x,1/2+y,1/2+z
-x,1/2-y,1/2+z
x,1/2-y,1/2-z
-x,1/2+y,1/2-z
-x,1/2-y,1/2-z
x,1/2+y,1/2-z
-x,1/2+y,1/2+z
x,1/2-y,1/2+z
1/2+x,y,1/2+z
1/2-x,-y,1/2+z
1/2+x,-y,1/2-z
1/2-x,y,1/2-z
1/2-x,-y,1/2-z
1/2+x,y,1/2-z
1/2-x,y,1/2+z
1/2+x,-y,1/2+z
1/2+x,1/2+y,z
1/2-x,1/2-y,z
1/2+x,1/2-y,-z
1/2-x,1/2+y,-z
1/2-x,1/2-y,-z
1/2+x,1/2+y,-z
1/2-x,1/2+y,z
1/2+x,1/2-y,z
loop_
_atom_site_type_symbol
_atom_site_label
_atom_site_fract_x
_atom_site_fract_y
_atom_site_fract_z
Si Si1 0.791909 0.208824 0.399277
Si Si2 0.068852 0.810600 0.105190
Si Si3 0.110776 0.590093 0.097752
Si Si4 0.842755 0.950804 0.101717
Si Si5 0.868251 0.250000 0.250000
Si Si6 0.097157 0.000000 0.500000
Si Si7 0.933635 0.099379 0.792510
Si Si8 0.741320 0.614093 0.358403
O O1 0.821216 0.208621 0.500000
O O2 0.750000 0.250000 0.397710
O O3 0.831311 0.215633 0.310106
O O4 0.757221 0.163899 0.391219
O O5 0.096078 0.775856 0.173802
O O6 0.081169 0.858234 0.147053
O O7 0.000000 0.805624 0.105032
O O8 0.089464 0.807062 0.000000
O O9 0.098035 0.539217 0.078232
O O10 0.077319 0.607703 0.185156
O O11 0.178402 0.596494 0.115468
O O12 0.096375 0.612307 0.000000
O O13 0.889954 0.937652 0.175531
O O14 0.790345 0.917279 0.104209
O O15 0.821509 0.000000 0.116840
O O16 0.869198 0.948733 0.000000
O O17 0.000000 0.088392 0.807757
O O18 0.750000 0.614046 0.250000
#
# Coordination Sequence:
#
# PCOD9513477 Si02
#       8
#    32  32  32  32  16   8  32  32
#     4  11  25  41  60  95 134 174 213 263 332 403
#     4  10  23  43  68  98 132 176 226 279 339 399
#     4  10  22  41  65  95 130 167 217 271 340 402
#     4  11  26  42  64  96 127 172 225 272 332 398
#     4  12  22  40  70  98 134 174 224 274 330 402
#     4   8  24  40  67  96 132 174 217 270 348 412
#     4  11  24  44  68  95 131 176 226 280 336 401
#     4  12  23  40  67  93 133 172 215 274 333 405
#
# _framework density 20.695710999999999
#
# number of rings (size 3 to 8) (size 9 to 14) (size 15 to 20)
#    0.444    0.741    1.481    4.444    4.148    1.778 
#    0.000    1.852    0.000    1.778    0.000    0.000 
#    0.000    0.000    0.000    0.000    0.000    0.000 
#
# Total GULP energy -301135.224340 kJ/mol
# GULP energy per Si atom -5576.578229 kJ/mol
# Density = 2.064861 g / cm^3
# Si number density = 20.695711 Si / 1000 Ang^3
#
#
#
# Elastic Constant Matrix: (Units=GPa)
#
#
# Indices 1 2 3 4 5 6 
#
# 1 43.1549 38.9033 20.6521 0.0000 0.0000 0.0000
# 2 38.9033 112.0926 48.0605 0.0000 0.0000 0.0000
# 3 20.6521 48.0605 177.9512 0.0000 0.0000 0.0000
# 4 0.0000 0.0000 0.0000 35.8330 0.0000 0.0000
# 5 0.0000 0.0000 0.0000 0.0000 -8.3639 0.0000
# 6 0.0000 0.0000 0.0000 0.0000 0.0000 18.9819
#
#
#
# Elastic Compliance Matrix: (Units=1/GPa)
#
#
# Indices 1 2 3 4 5 6 
#
# 1 0.033838 -0.011378 -0.000854 0.000000 0.000000 0.000000
# 2 -0.011378 0.013915 -0.002438 0.000000 0.000000 0.000000
# 3 -0.000854 -0.002438 0.006377 0.000000 0.000000 0.000000
# 4 0.000000 0.000000 0.000000 0.027907 0.000000 0.000000
# 5 0.000000 0.000000 0.000000 0.000000 -0.119561 0.000000
# 6 0.000000 0.000000 0.000000 0.000000 0.000000 0.052682
#
#
# Mechanical properties :
#
#
# Convention : Reuss Voigt Hill
#
# Bulk Modulus (GPa) = 40.33747 60.93674 50.63711
# Shear Modulus (GPa) = 94.76813 24.32905 59.54859
#
# Velocity S-wave (km/s) = 6.77426 3.43236 5.36990
# Velocity P-wave (km/s) = 8.98446 6.72430 7.93526
#
# Compressibility (1/GPa) = 0.02479084
#
# Stress axis : x y z
#
# Youngs Moduli (GPa) = 29.55277 71.86417 156.81287
#
# Poissons Ratio (x) = 0.81764 0.13395
# Poissons Ratio (y) = 0.33624 0.38227
# Poissons Ratio (z) = 0.02524 0.17519
#
# Static dielectric constant tensor:
#      x y z
#    x 1.731560 0.000000 0.000000 
#    y 0.000000 1.727830 0.000000 
#    z 0.000000 0.000000 1.801690 
# 
# From -- ./inp_files/18299.got.cif
#   From: 2010.05.17/outbox.cif.g08.bks.cpg/sg69_10_cif.got.tgz:18299.got - 2010.06.03 19:29:58.
