data_PCOD9513254
_publ_section_title
;
Structure prediction by ZEFSAII (Michael W. Deem and Ramdas Pophale) SiO2 
 PCOD9513254
Probable space group: F M M M
;
_chemical_formula_sum "Si O2"
_cell_formula_units_Z 176
_cell_length_a 26.227936
_cell_length_b 20.595721
_cell_length_c 17.356342
_cell_angle_alpha 90.000000
_cell_angle_beta 90.000000
_cell_angle_gamma 90.000000
_cell_volume 9375.605269
_symmetry_space_group_name_H-M "F M M M"
_symmetry_group_IT_number 69
_symmetry_cell_setting 'orthorhombic'
loop_
_space_group_symop_operation_xyz
x,y,z
-x,-y,z
x,-y,-z
-x,y,-z
-x,-y,-z
x,y,-z
-x,y,z
x,-y,z
x,1/2+y,1/2+z
-x,1/2-y,1/2+z
x,1/2-y,1/2-z
-x,1/2+y,1/2-z
-x,1/2-y,1/2-z
x,1/2+y,1/2-z
-x,1/2+y,1/2+z
x,1/2-y,1/2+z
1/2+x,y,1/2+z
1/2-x,-y,1/2+z
1/2+x,-y,1/2-z
1/2-x,y,1/2-z
1/2-x,-y,1/2-z
1/2+x,y,1/2-z
1/2-x,y,1/2+z
1/2+x,-y,1/2+z
1/2+x,1/2+y,z
1/2-x,1/2-y,z
1/2+x,1/2-y,-z
1/2-x,1/2+y,-z
1/2-x,1/2-y,-z
1/2+x,1/2+y,-z
1/2-x,1/2+y,z
1/2+x,1/2-y,z
loop_
_atom_site_type_symbol
_atom_site_label
_atom_site_fract_x
_atom_site_fract_y
_atom_site_fract_z
Si Si1 0.939315 0.078225 0.500000
Si Si2 0.441110 0.421645 0.783282
Si Si3 0.625190 0.626737 0.091553
Si Si4 0.372106 0.619625 0.358309
Si Si5 0.803772 0.500000 0.906372
Si Si6 0.810033 0.256752 0.092752
Si Si7 0.687918 0.500000 0.093312
O O1 0.913637 0.111324 0.426258
O O2 0.000000 0.085159 0.500000
O O3 0.928295 0.000000 0.500000
O O4 0.500000 0.410745 0.761450
O O5 0.434922 0.500000 0.791223
O O6 0.426395 0.383638 0.861096
O O7 0.402369 0.394268 0.719713
O O8 0.658439 0.690781 0.106621
O O9 0.658925 0.564824 0.116346
O O10 0.616138 0.623640 0.000000
O O11 0.332076 0.562693 0.374988
O O12 0.340521 0.685962 0.364987
O O13 0.745637 0.500000 0.880332
O O14 0.805489 0.500000 0.000000
O O15 0.750000 0.250000 0.113771
O O16 0.811049 0.270280 0.000000
O O17 0.688942 0.500000 0.000000
#
# Coordination Sequence:
#
# PCOD9513254 Si02
#       7
#    16  32  32  32  16  32  16
#     4  11  20  34  57  86 122 165 212 251 295 357
#     4  11  24  42  64  89 121 160 205 266 324 364
#     4  10  21  41  64  90 117 159 210 260 308 368
#     4  12  20  37  58  92 124 162 203 247 302 371
#     4  11  18  31  56  90 122 159 201 241 296 365
#     4  10  21  39  65  93 128 169 203 243 304 370
#     4   9  18  33  59  87 116 150 201 256 302 353
#
# _framework density 18.772122
#
# number of rings (size 3 to 8) (size 9 to 14) (size 15 to 20)
#    0.000    1.364    4.545    1.636    0.000    5.455 
#    0.000    9.091    0.000    0.000    0.000    0.000 
#    0.000    0.000    0.000    0.000    0.000    0.000 
#
# Total GULP energy -245680.823302 kJ/mol
# GULP energy per Si atom -5583.655075 kJ/mol
# Density = 1.872940 g / cm^3
# Si number density = 18.772122 Si / 1000 Ang^3
#
#
#
# Elastic Constant Matrix: (Units=GPa)
#
#
# Indices 1 2 3 4 5 6 
#
# 1 104.8401 49.4808 34.6746 0.0000 0.0000 0.0000
# 2 49.4808 126.7379 40.8191 0.0000 0.0000 0.0000
# 3 34.6746 40.8191 57.5377 0.0000 0.0000 0.0000
# 4 0.0000 0.0000 0.0000 18.0179 0.0000 0.0000
# 5 0.0000 0.0000 0.0000 0.0000 44.9096 0.0000
# 6 0.0000 0.0000 0.0000 0.0000 0.0000 21.6789
#
#
#
# Elastic Compliance Matrix: (Units=1/GPa)
#
#
# Indices 1 2 3 4 5 6 
#
# 1 0.012885 -0.003279 -0.005439 0.000000 0.000000 0.000000
# 2 -0.003279 0.011061 -0.005871 0.000000 0.000000 0.000000
# 3 -0.005439 -0.005871 0.024823 0.000000 0.000000 0.000000
# 4 0.000000 0.000000 0.000000 0.055500 0.000000 0.000000
# 5 0.000000 0.000000 0.000000 0.000000 0.022267 0.000000
# 6 0.000000 0.000000 0.000000 0.000000 0.000000 0.046128
#
#
# Mechanical properties :
#
#
# Convention : Reuss Voigt Hill
#
# Bulk Modulus (GPa) = 51.04357 59.89607 55.46982
# Shear Modulus (GPa) = 23.99552 27.86403 25.92977
#
# Velocity S-wave (km/s) = 3.57914 3.85688 3.72061
# Velocity P-wave (km/s) = 6.65812 7.19793 6.93328
#
# Compressibility (1/GPa) = 0.01959111
#
# Stress axis : x y z
#
# Youngs Moduli (GPa) = 77.61228 90.40444 40.28534
#
# Poissons Ratio (x) = 0.29641 0.21910
# Poissons Ratio (y) = 0.25447 0.23653
# Poissons Ratio (z) = 0.42211 0.53081
#
# Static dielectric constant tensor:
#      x y z
#    x 1.629680 0.000000 0.000000 
#    y 0.000000 1.745320 0.000000 
#    z 0.000000 0.000000 1.775680 
# 
# From -- ./inp_files/26830.got.cif
#   From: 2010.05.17/outbox.cif.g08.bks.cpg/sg69_14_cif.got.tgz:26830.got - 2010.06.03 19:29:58.
