data_PCOD9513345
_publ_section_title
;
Structure prediction by ZEFSAII (Michael W. Deem and Ramdas Pophale) SiO2 
 PCOD9513345
Probable space group: F M M M
;
_chemical_formula_sum "Si O2"
_cell_formula_units_Z 136
_cell_length_a 12.841723
_cell_length_b 28.157114
_cell_length_c 17.599766
_cell_angle_alpha 90.000000
_cell_angle_beta 90.000000
_cell_angle_gamma 90.000000
_cell_volume 6363.826498
_symmetry_space_group_name_H-M "F M M M"
_symmetry_group_IT_number 69
_symmetry_cell_setting 'orthorhombic'
loop_
_space_group_symop_operation_xyz
x,y,z
-x,-y,z
x,-y,-z
-x,y,-z
-x,-y,-z
x,y,-z
-x,y,z
x,-y,z
x,1/2+y,1/2+z
-x,1/2-y,1/2+z
x,1/2-y,1/2-z
-x,1/2+y,1/2-z
-x,1/2-y,1/2-z
x,1/2+y,1/2-z
-x,1/2+y,1/2+z
x,1/2-y,1/2+z
1/2+x,y,1/2+z
1/2-x,-y,1/2+z
1/2+x,-y,1/2-z
1/2-x,y,1/2-z
1/2-x,-y,1/2-z
1/2+x,y,1/2-z
1/2-x,y,1/2+z
1/2+x,-y,1/2+z
1/2+x,1/2+y,z
1/2-x,1/2-y,z
1/2+x,1/2-y,-z
1/2-x,1/2+y,-z
1/2-x,1/2-y,-z
1/2+x,1/2+y,-z
1/2-x,1/2+y,z
1/2+x,1/2-y,z
loop_
_atom_site_type_symbol
_atom_site_label
_atom_site_fract_x
_atom_site_fract_y
_atom_site_fract_z
Si Si1 0.500000 0.249642 0.422557
Si Si2 0.819374 0.297490 0.352313
Si Si3 0.500000 0.597308 0.344488
Si Si4 0.236089 0.000000 0.342539
Si Si5 0.500000 0.191736 0.232613
Si Si6 0.728750 0.102066 0.090390
Si Si7 0.500000 0.500000 0.329456
O O1 0.500000 0.278818 0.500000
O O2 0.599696 0.216142 0.418149
O O3 0.500000 0.281946 0.347927
O O4 0.750000 0.250000 0.346545
O O5 0.605184 0.299564 0.220707
O O6 0.767645 0.348557 0.369903
O O7 0.500000 0.637651 0.284450
O O8 0.395671 0.600599 0.393927
O O9 0.500000 0.550352 0.291984
O O10 0.250000 0.000000 0.250000
O O11 0.272741 0.051833 0.374456
O O12 0.113254 0.000000 0.368603
O O13 0.749051 0.103771 0.000000
#
# Coordination Sequence:
#
# PCOD9513345 Si02
#       7
#    16  32  16  16  16  32   8
#     4  11  25  44  62  90 131 170 216 269 329 381
#     4  11  25  43  66  95 134 172 220 265 324 387
#     4  10  22  37  64  92 132 164 217 260 333 376
#     4  10  23  43  68  97 130 171 218 270 325 386
#     4  11  26  43  63  94 129 179 218 270 319 392
#     4  11  24  42  68  98 133 172 217 271 328 386
#     4   8  20  38  57  92 127 162 202 272 324 360
#
# _framework density 21.370788999999998
#
# number of rings (size 3 to 8) (size 9 to 14) (size 15 to 20)
#    0.000    1.412    0.000    4.235    6.588   11.294 
#    0.000    3.529    0.000    0.000    0.000    8.235 
#    0.000    0.000    0.000    0.000    0.000    0.000 
#
# Total GULP energy -189296.168143 kJ/mol
# GULP energy per Si atom -5567.534357 kJ/mol
# Density = 2.132215 g / cm^3
# Si number density = 21.370789 Si / 1000 Ang^3
#
#
#
# Elastic Constant Matrix: (Units=GPa)
#
#
# Indices 1 2 3 4 5 6 
#
# 1 88.5579 65.2152 41.8797 0.0000 0.0000 0.0000
# 2 65.2152 262.6915 82.3835 0.0000 0.0000 0.0000
# 3 41.8797 82.3835 158.6270 0.0000 0.0000 0.0000
# 4 0.0000 0.0000 0.0000 27.2099 0.0000 0.0000
# 5 0.0000 0.0000 0.0000 0.0000 4.2637 0.0000
# 6 0.0000 0.0000 0.0000 0.0000 0.0000 27.2812
#
#
#
# Elastic Compliance Matrix: (Units=1/GPa)
#
#
# Indices 1 2 3 4 5 6 
#
# 1 0.014512 -0.002868 -0.002342 0.000000 0.000000 0.000000
# 2 -0.002868 0.005114 -0.001899 0.000000 0.000000 0.000000
# 3 -0.002342 -0.001899 0.007909 0.000000 0.000000 0.000000
# 4 0.000000 0.000000 0.000000 0.036751 0.000000 0.000000
# 5 0.000000 0.000000 0.000000 0.000000 0.234536 0.000000
# 6 0.000000 0.000000 0.000000 0.000000 0.000000 0.036655
#
#
# Mechanical properties :
#
#
# Convention : Reuss Voigt Hill
#
# Bulk Modulus (GPa) = 75.09237 98.75925 86.92581
# Shear Modulus (GPa) = 14.11895 33.11084 23.61490
#
# Velocity S-wave (km/s) = 2.57313 3.94045 3.32777
# Velocity P-wave (km/s) = 6.63643 8.18630 7.45176
#
# Compressibility (1/GPa) = 0.01331693
#
# Stress axis : x y z
#
# Youngs Moduli (GPa) = 68.91016 195.52899 126.44606
#
# Poissons Ratio (x) = 0.56083 0.29609
# Poissons Ratio (y) = 0.19765 0.24011
# Poissons Ratio (z) = 0.16136 0.37129
#
# Static dielectric constant tensor:
#      x y z
#    x 1.847430 0.000000 0.000000 
#    y 0.000000 1.844480 0.000000 
#    z 0.000000 0.000000 1.783350 
# 
# From -- ./inp_files/29232.got.cif
#   From: 2010.05.17/outbox.cif.g08.bks.cpg/sg69_15_cif.got.tgz:29232.got - 2010.06.03 19:29:58.
