data_PCOD9513489
_publ_section_title
;
Structure prediction by ZEFSAII (Michael W. Deem and Ramdas Pophale) SiO2 
 PCOD9513489
Probable space group: F M M M
;
_chemical_formula_sum "Si O2"
_cell_formula_units_Z 88
_cell_length_a 18.834294
_cell_length_b 9.343270
_cell_length_c 26.006405
_cell_angle_alpha 90.000000
_cell_angle_beta 90.000000
_cell_angle_gamma 90.000000
_cell_volume 4576.448359
_symmetry_space_group_name_H-M "F M M M"
_symmetry_group_IT_number 69
_symmetry_cell_setting 'orthorhombic'
loop_
_space_group_symop_operation_xyz
x,y,z
-x,-y,z
x,-y,-z
-x,y,-z
-x,-y,-z
x,y,-z
-x,y,z
x,-y,z
x,1/2+y,1/2+z
-x,1/2-y,1/2+z
x,1/2-y,1/2-z
-x,1/2+y,1/2-z
-x,1/2-y,1/2-z
x,1/2+y,1/2-z
-x,1/2+y,1/2+z
x,1/2-y,1/2+z
1/2+x,y,1/2+z
1/2-x,-y,1/2+z
1/2+x,-y,1/2-z
1/2-x,y,1/2-z
1/2-x,-y,1/2-z
1/2+x,y,1/2-z
1/2-x,y,1/2+z
1/2+x,-y,1/2+z
1/2+x,1/2+y,z
1/2-x,1/2-y,z
1/2+x,1/2-y,-z
1/2-x,1/2+y,-z
1/2-x,1/2-y,-z
1/2+x,1/2+y,-z
1/2-x,1/2+y,z
1/2+x,1/2-y,z
loop_
_atom_site_type_symbol
_atom_site_label
_atom_site_fract_x
_atom_site_fract_y
_atom_site_fract_z
Si Si1 0.250000 0.250000 0.750000
Si Si2 0.173782 0.172703 0.000000
Si Si3 0.583247 0.170296 0.914253
Si Si4 0.110457 0.661114 0.797814
O O1 0.195318 0.335010 0.786213
O O2 0.250000 0.250000 0.000000
O O3 0.130462 0.232560 0.049003
O O4 0.179371 0.000000 0.000000
O O5 0.500000 0.183087 0.927236
O O6 0.594242 0.214266 0.854776
O O7 0.602022 0.000000 0.918999
O O8 0.084498 0.500000 0.795349
O O9 0.080921 0.750000 0.750000
#
# Coordination Sequence:
#
# PCOD9513489 Si02
#       4
#     8  16  32  32
#     4   8  18  32  52  82 122 156 200 248 292 352
#     4  12  27  44  65  93 121 153 203 258 311 370
#     4  10  22  42  64  88 125 168 206 250 308 368
#     4   9  19  33  55  85 119 160 203 246 298 353
#
# _framework density 19.228884000000001
#
# number of rings (size 3 to 8) (size 9 to 14) (size 15 to 20)
#    1.091    1.091    0.000    2.727    2.545    5.091 
#    0.000    0.000    0.000    0.000    0.000    0.000 
#    0.000    0.000    0.000    0.000    0.000    0.000 
#
# Total GULP energy -122585.589840 kJ/mol
# GULP energy per Si atom -5572.072265 kJ/mol
# Density = 1.918512 g / cm^3
# Si number density = 19.228884 Si / 1000 Ang^3
#
#
#
# Elastic Constant Matrix: (Units=GPa)
#
#
# Indices 1 2 3 4 5 6 
#
# 1 122.6816 51.5492 53.6064 0.0000 0.0000 0.0000
# 2 51.5492 110.4964 90.9700 0.0000 0.0000 0.0000
# 3 53.6064 90.9700 173.1911 0.0000 0.0000 0.0000
# 4 0.0000 0.0000 0.0000 28.7040 0.0000 0.0000
# 5 0.0000 0.0000 0.0000 0.0000 36.5774 0.0000
# 6 0.0000 0.0000 0.0000 0.0000 0.0000 14.5980
#
#
#
# Elastic Compliance Matrix: (Units=1/GPa)
#
#
# Indices 1 2 3 4 5 6 
#
# 1 0.010271 -0.003831 -0.001167 0.000000 0.000000 0.000000
# 2 -0.003831 0.017374 -0.007940 0.000000 0.000000 0.000000
# 3 -0.001167 -0.007940 0.010306 0.000000 0.000000 0.000000
# 4 0.000000 0.000000 0.000000 0.034838 0.000000 0.000000
# 5 0.000000 0.000000 0.000000 0.000000 0.027339 0.000000
# 6 0.000000 0.000000 0.000000 0.000000 0.000000 0.068503
#
#
# Mechanical properties :
#
#
# Convention : Reuss Voigt Hill
#
# Bulk Modulus (GPa) = 82.81623 88.73558 85.77590
# Shear Modulus (GPa) = 25.18483 29.99212 27.58848
#
# Velocity S-wave (km/s) = 3.62296 3.95364 3.79191
# Velocity P-wave (km/s) = 7.78866 8.19078 7.99225
#
# Compressibility (1/GPa) = 0.01207493
#
# Stress axis : x y z
#
# Youngs Moduli (GPa) = 97.36418 57.55596 97.03276
#
# Poissons Ratio (x) = 0.22049 0.11322
# Poissons Ratio (y) = 0.37300 0.77047
# Poissons Ratio (z) = 0.11360 0.45701
#
# Static dielectric constant tensor:
#      x y z
#    x 1.685070 0.000000 0.000000 
#    y 0.000000 1.657030 0.000000 
#    z 0.000000 0.000000 1.667020 
# 
# From -- ./inp_files/42320.got.cif
#   From: 2010.05.17/outbox.cif.g08.bks.cpg/sg69_22_cif.got.tgz:42320.got - 2010.06.03 19:29:58.
