data_PCOD9513275
_publ_section_title
;
Structure prediction by ZEFSAII (Michael W. Deem and Ramdas Pophale) SiO2 
 PCOD9513275
Probable space group: F M M M
;
_chemical_formula_sum "Si O2"
_cell_formula_units_Z 200
_cell_length_a 19.122226
_cell_length_b 17.693606
_cell_length_c 26.633981
_cell_angle_alpha 90.000000
_cell_angle_beta 90.000000
_cell_angle_gamma 90.000000
_cell_volume 9011.371300
_symmetry_space_group_name_H-M "F M M M"
_symmetry_group_IT_number 69
_symmetry_cell_setting 'orthorhombic'
loop_
_space_group_symop_operation_xyz
x,y,z
-x,-y,z
x,-y,-z
-x,y,-z
-x,-y,-z
x,y,-z
-x,y,z
x,-y,z
x,1/2+y,1/2+z
-x,1/2-y,1/2+z
x,1/2-y,1/2-z
-x,1/2+y,1/2-z
-x,1/2-y,1/2-z
x,1/2+y,1/2-z
-x,1/2+y,1/2+z
x,1/2-y,1/2+z
1/2+x,y,1/2+z
1/2-x,-y,1/2+z
1/2+x,-y,1/2-z
1/2-x,y,1/2-z
1/2-x,-y,1/2-z
1/2+x,y,1/2-z
1/2-x,y,1/2+z
1/2+x,-y,1/2+z
1/2+x,1/2+y,z
1/2-x,1/2-y,z
1/2+x,1/2-y,-z
1/2-x,1/2+y,-z
1/2-x,1/2-y,-z
1/2+x,1/2+y,-z
1/2-x,1/2+y,z
1/2+x,1/2-y,z
loop_
_atom_site_type_symbol
_atom_site_label
_atom_site_fract_x
_atom_site_fract_y
_atom_site_fract_z
Si Si1 0.339484 0.816447 0.788565
Si Si2 0.336511 0.638115 0.055150
Si Si3 0.582896 0.084885 0.291346
Si Si4 0.895386 0.000000 0.000000
Si Si5 0.211823 0.910595 0.627121
Si Si6 0.420563 0.091542 0.057253
Si Si7 0.081231 0.217295 0.867991
O O1 0.320122 0.750000 0.750000
O O2 0.376984 0.879866 0.755539
O O3 0.282883 0.857801 0.823644
O O4 0.392771 0.777582 0.827562
O O5 0.388577 0.567795 0.042902
O O6 0.274395 0.607582 0.089486
O O7 0.374089 0.707963 0.081844
O O8 0.308420 0.658764 0.000000
O O9 0.500000 0.085871 0.280061
O O10 0.592766 0.137561 0.339413
O O11 0.605927 0.000000 0.301217
O O12 0.139918 0.891372 0.597114
O O13 0.210757 0.000000 0.639428
O O14 0.500000 0.115646 0.070678
O O15 0.421761 0.000000 0.055366
O O16 0.405491 0.117257 0.000000
O O17 0.000000 0.226137 0.878682
#
# Coordination Sequence:
#
# PCOD9513275 Si02
#       7
#    32  32  32   8  32  32  32
#     4  10  22  40  59  84 122 162 203 250 306 362
#     4  10  21  40  65  92 124 154 198 247 306 363
#     4   9  18  34  60  91 120 154 201 254 306 359
#     4   8  20  40  65  94 119 156 190 258 310 356
#     4  11  20  36  64  91 121 162 204 249 304 368
#     4   8  15  27  47  81 119 150 184 232 290 351
#     4  10  22  40  62  87 124 167 204 247 303 362
#
# _framework density 22.194181
#
# number of rings (size 3 to 8) (size 9 to 14) (size 15 to 20)
#    0.480    1.920    0.800    1.920    1.120    4.800 
#    0.000   10.000    0.000    4.800    0.000    0.000 
#    0.000    0.000    0.000    0.000    0.000    0.000 
#
# Total GULP energy -278694.873138 kJ/mol
# GULP energy per Si atom -5573.897463 kJ/mol
# Density = 2.214367 g / cm^3
# Si number density = 22.194181 Si / 1000 Ang^3
#
#
#
# Elastic Constant Matrix: (Units=GPa)
#
#
# Indices 1 2 3 4 5 6 
#
# 1 48.7930 17.5928 18.0228 0.0000 0.0000 0.0000
# 2 17.5928 90.2883 49.7630 0.0000 0.0000 0.0000
# 3 18.0228 49.7630 104.1648 0.0000 0.0000 0.0000
# 4 0.0000 0.0000 0.0000 51.8193 0.0000 0.0000
# 5 0.0000 0.0000 0.0000 0.0000 -27.6248 0.0000
# 6 0.0000 0.0000 0.0000 0.0000 0.0000 -11.8736
#
#
#
# Elastic Compliance Matrix: (Units=1/GPa)
#
#
# Indices 1 2 3 4 5 6 
#
# 1 0.022491 -0.003037 -0.002440 0.000000 0.000000 0.000000
# 2 -0.003037 0.015444 -0.006853 0.000000 0.000000 0.000000
# 3 -0.002440 -0.006853 0.013296 0.000000 0.000000 0.000000
# 4 0.000000 0.000000 0.000000 0.019298 0.000000 0.000000
# 5 0.000000 0.000000 0.000000 0.000000 -0.036199 0.000000
# 6 0.000000 0.000000 0.000000 0.000000 0.000000 -0.084220
#
#
# Mechanical properties :
#
#
# Convention : Reuss Voigt Hill
#
# Bulk Modulus (GPa) = 37.63537 46.00037 41.81787
# Shear Modulus (GPa) = -305.40329 12.98868 -146.20730
#
# Velocity S-wave (km/s) = -11.74325 2.42178 -8.12523
# Velocity P-wave (km/s) = 12.91811 5.34708 8.31524
#
# Compressibility (1/GPa) = 0.02657075
#
# Stress axis : x y z
#
# Youngs Moduli (GPa) = 44.46159 64.74816 75.20926
#
# Poissons Ratio (x) = 0.19667 0.18354
# Poissons Ratio (y) = 0.13505 0.51539
# Poissons Ratio (z) = 0.10850 0.44371
#
# Static dielectric constant tensor:
#      x y z
#    x 1.817530 0.000000 0.000000 
#    y 0.000000 1.843860 0.000000 
#    z 0.000000 0.000000 1.809070 
# 
# From -- ./inp_files/42708.got.cif
#   From: 2010.05.17/outbox.cif.g08.bks.cpg/sg69_22_cif.got.tgz:42708.got - 2010.06.03 19:29:58.
