data_PCOD9513510
_publ_section_title
;
Structure prediction by ZEFSAII (Michael W. Deem and Ramdas Pophale) SiO2 
 PCOD9513510
Probable space group: F M M M
;
_chemical_formula_sum "Si O2"
_cell_formula_units_Z 112
_cell_length_a 8.708532
_cell_length_b 29.195759
_cell_length_c 21.651927
_cell_angle_alpha 90.000000
_cell_angle_beta 90.000000
_cell_angle_gamma 90.000000
_cell_volume 5505.050107
_symmetry_space_group_name_H-M "F M M M"
_symmetry_group_IT_number 69
_symmetry_cell_setting 'orthorhombic'
loop_
_space_group_symop_operation_xyz
x,y,z
-x,-y,z
x,-y,-z
-x,y,-z
-x,-y,-z
x,y,-z
-x,y,z
x,-y,z
x,1/2+y,1/2+z
-x,1/2-y,1/2+z
x,1/2-y,1/2-z
-x,1/2+y,1/2-z
-x,1/2-y,1/2-z
x,1/2+y,1/2-z
-x,1/2+y,1/2+z
x,1/2-y,1/2+z
1/2+x,y,1/2+z
1/2-x,-y,1/2+z
1/2+x,-y,1/2-z
1/2-x,y,1/2-z
1/2-x,-y,1/2-z
1/2+x,y,1/2-z
1/2-x,y,1/2+z
1/2+x,-y,1/2+z
1/2+x,1/2+y,z
1/2-x,1/2-y,z
1/2+x,1/2-y,-z
1/2-x,1/2+y,-z
1/2-x,1/2-y,-z
1/2+x,1/2+y,-z
1/2-x,1/2+y,z
1/2+x,1/2-y,z
loop_
_atom_site_type_symbol
_atom_site_label
_atom_site_fract_x
_atom_site_fract_y
_atom_site_fract_z
Si Si1 0.315648 0.198535 0.568889
Si Si2 0.316020 0.144776 0.185726
Si Si3 0.315369 0.051784 0.868897
Si Si4 0.826941 0.444486 0.500000
O O1 0.276771 0.179961 0.500000
O O2 0.500000 0.199477 0.574028
O O3 0.250000 0.250000 0.571518
O O4 0.245821 0.170819 0.625685
O O5 0.500000 0.147247 0.186692
O O6 0.250000 0.163079 0.250000
O O7 0.266922 0.091590 0.177422
O O8 0.500000 0.050269 0.869716
O O9 0.258972 0.000000 0.855816
O O10 0.258804 0.066602 0.936814
O O11 0.835189 0.500000 0.500000
O O12 0.000000 0.425869 0.500000
#
# Coordination Sequence:
#
# PCOD9513510 Si02
#       4
#    32  32  32  16
#     4  10  22  42  68  96 124 155 194 245 301 362
#     4  11  24  40  60  88 123 163 206 251 301 359
#     4   9  19  36  56  80 115 160 205 248 297 353
#     4   9  17  29  49  79 110 143 190 247 299 345
#
# _framework density 20.344954999999999
#
# number of rings (size 3 to 8) (size 9 to 14) (size 15 to 20)
#    0.000    2.143    0.000    2.143    2.000    6.857 
#    0.000    2.857    0.000    0.000    0.000    0.000 
#    0.000    0.000    0.000    0.000    0.000    0.000 
#
# Total GULP energy -156358.714099 kJ/mol
# GULP energy per Si atom -5584.239789 kJ/mol
# Density = 2.029865 g / cm^3
# Si number density = 20.344955 Si / 1000 Ang^3
#
#
#
# Elastic Constant Matrix: (Units=GPa)
#
#
# Indices 1 2 3 4 5 6 
#
# 1 39.7850 28.5886 44.7711 0.0000 0.0000 0.0000
# 2 28.5886 76.8534 68.1383 0.0000 0.0000 0.0000
# 3 44.7711 68.1383 172.0821 0.0000 0.0000 0.0000
# 4 0.0000 0.0000 0.0000 32.5728 0.0000 0.0000
# 5 0.0000 0.0000 0.0000 0.0000 23.6912 0.0000
# 6 0.0000 0.0000 0.0000 0.0000 0.0000 20.1024
#
#
#
# Elastic Compliance Matrix: (Units=1/GPa)
#
#
# Indices 1 2 3 4 5 6 
#
# 1 0.038802 -0.008450 -0.006749 0.000000 0.000000 0.000000
# 2 -0.008450 0.021891 -0.006470 0.000000 0.000000 0.000000
# 3 -0.006749 -0.006470 0.010129 0.000000 0.000000 0.000000
# 4 0.000000 0.000000 0.000000 0.030700 0.000000 0.000000
# 5 0.000000 0.000000 0.000000 0.000000 0.042210 0.000000
# 6 0.000000 0.000000 0.000000 0.000000 0.000000 0.049745
#
#
# Mechanical properties :
#
#
# Convention : Reuss Voigt Hill
#
# Bulk Modulus (GPa) = 36.38439 63.52406 49.95422
# Shear Modulus (GPa) = 20.32708 25.08812 22.70760
#
# Velocity S-wave (km/s) = 3.16432 3.51541 3.34448
# Velocity P-wave (km/s) = 5.59224 6.91150 6.28657
#
# Compressibility (1/GPa) = 0.02748431
#
# Stress axis : x y z
#
# Youngs Moduli (GPa) = 25.77160 45.68082 98.72711
#
# Poissons Ratio (x) = 0.38600 0.66635
# Poissons Ratio (y) = 0.21777 0.63873
# Poissons Ratio (z) = 0.17394 0.29554
#
# Static dielectric constant tensor:
#      x y z
#    x 1.680020 0.000000 0.000000 
#    y 0.000000 1.761660 0.000000 
#    z 0.000000 0.000000 1.698540 
# 
# From -- ./inp_files/3728.got.cif
#   From: 2010.05.17/outbox.cif.g08.bks.cpg/sg69_2_cif.got.tgz:3728.got - 2010.06.03 19:29:58.
