data_PCOD9513507
_publ_section_title
;
Structure prediction by ZEFSAII (Michael W. Deem and Ramdas Pophale) SiO2 
 PCOD9513507
Probable space group: F M M M
;
_chemical_formula_sum "Si O2"
_cell_formula_units_Z 112
_cell_length_a 30.926905
_cell_length_b 9.562541
_cell_length_c 19.069670
_cell_angle_alpha 90.000000
_cell_angle_beta 90.000000
_cell_angle_gamma 90.000000
_cell_volume 5639.660336
_symmetry_space_group_name_H-M "F M M M"
_symmetry_group_IT_number 69
_symmetry_cell_setting 'orthorhombic'
loop_
_space_group_symop_operation_xyz
x,y,z
-x,-y,z
x,-y,-z
-x,y,-z
-x,-y,-z
x,y,-z
-x,y,z
x,-y,z
x,1/2+y,1/2+z
-x,1/2-y,1/2+z
x,1/2-y,1/2-z
-x,1/2+y,1/2-z
-x,1/2-y,1/2-z
x,1/2+y,1/2-z
-x,1/2+y,1/2+z
x,1/2-y,1/2+z
1/2+x,y,1/2+z
1/2-x,-y,1/2+z
1/2+x,-y,1/2-z
1/2-x,y,1/2-z
1/2-x,-y,1/2-z
1/2+x,y,1/2-z
1/2-x,y,1/2+z
1/2+x,-y,1/2+z
1/2+x,1/2+y,z
1/2-x,1/2-y,z
1/2+x,1/2-y,-z
1/2-x,1/2+y,-z
1/2-x,1/2-y,-z
1/2+x,1/2+y,-z
1/2-x,1/2+y,z
1/2+x,1/2-y,z
loop_
_atom_site_type_symbol
_atom_site_label
_atom_site_fract_x
_atom_site_fract_y
_atom_site_fract_z
Si Si1 0.706101 0.164645 0.915954
Si Si2 0.951478 0.775920 0.166778
Si Si3 0.143195 0.657911 0.678955
Si Si4 0.948543 0.500000 0.922095
O O1 0.750000 0.250000 0.899294
O O2 0.668373 0.250945 0.878346
O O3 0.707803 0.000000 0.895045
O O4 0.700552 0.167839 0.000000
O O5 0.954967 0.750000 0.250000
O O6 0.907184 0.858084 0.158497
O O7 0.940547 0.635131 0.124552
O O8 0.000000 0.825117 0.144688
O O9 0.161003 0.500000 0.687759
O O10 0.145415 0.750000 0.750000
O O11 0.000000 0.500000 0.931325
O O12 0.928321 0.500000 0.000000
#
# Coordination Sequence:
#
# PCOD9513507 Si02
#       4
#    32  32  32  16
#     4  10  22  42  68  94 122 157 200 251 310 379
#     4   9  20  35  57  86 121 165 213 261 310 370
#     4  11  24  39  60  90 126 164 208 259 310 367
#     4   9  18  34  56  84 117 156 207 265 318 371
#
# _framework density 19.859351
#
# number of rings (size 3 to 8) (size 9 to 14) (size 15 to 20)
#    0.000    2.143    0.000    1.714   10.000    4.000 
#    0.000    2.857    0.000    0.000    0.000    6.000 
#    0.000    0.000    0.000    0.000    0.000    0.000 
#
# Total GULP energy -155928.308568 kJ/mol
# GULP energy per Si atom -5568.868163 kJ/mol
# Density = 1.981415 g / cm^3
# Si number density = 19.859351 Si / 1000 Ang^3
#
#
#
# Elastic Constant Matrix: (Units=GPa)
#
#
# Indices 1 2 3 4 5 6 
#
# 1 132.4354 57.5850 30.2310 0.0000 0.0000 0.0000
# 2 57.5850 194.6845 62.4864 0.0000 0.0000 0.0000
# 3 30.2310 62.4864 75.0481 0.0000 0.0000 0.0000
# 4 0.0000 0.0000 0.0000 -39.3400 0.0000 0.0000
# 5 0.0000 0.0000 0.0000 0.0000 41.7237 0.0000
# 6 0.0000 0.0000 0.0000 0.0000 0.0000 23.2361
#
#
#
# Elastic Compliance Matrix: (Units=1/GPa)
#
#
# Indices 1 2 3 4 5 6 
#
# 1 0.008858 -0.002013 -0.001892 0.000000 0.000000 0.000000
# 2 -0.002013 0.007467 -0.005407 0.000000 0.000000 0.000000
# 3 -0.001892 -0.005407 0.018589 0.000000 0.000000 0.000000
# 4 0.000000 0.000000 0.000000 -0.025419 0.000000 0.000000
# 5 0.000000 0.000000 0.000000 0.000000 0.023967 0.000000
# 6 0.000000 0.000000 0.000000 0.000000 0.000000 0.043036
#
#
# Mechanical properties :
#
#
# Convention : Reuss Voigt Hill
#
# Bulk Modulus (GPa) = 61.38520 78.08586 69.73553
# Shear Modulus (GPa) = 49.72587 21.91501 35.82044
#
# Velocity S-wave (km/s) = 5.00933 3.32552 4.25161
# Velocity P-wave (km/s) = 8.02714 7.35868 7.70017
#
# Compressibility (1/GPa) = 0.01629057
#
# Stress axis : x y z
#
# Youngs Moduli (GPa) = 112.89268 133.92036 53.79630
#
# Poissons Ratio (x) = 0.26954 0.10180
# Poissons Ratio (y) = 0.22722 0.29085
# Poissons Ratio (z) = 0.21364 0.72404
#
# Static dielectric constant tensor:
#      x y z
#    x 1.733840 0.000000 0.000000 
#    y 0.000000 1.648060 0.000000 
#    z 0.000000 0.000000 1.690480 
# 
# From -- ./inp_files/38073.got.cif
#   From: 2010.05.17/outbox.cif.g08.bks.cpg/sg69_20_cif.got.tgz:38073.got - 2010.06.03 19:29:58.
