data_PCOD9513857
_publ_section_title
;
Structure prediction by ZEFSAII (Michael W. Deem and Ramdas Pophale) SiO2 
 PCOD9513857
Probable space group: F M M M
;
_chemical_formula_sum "Si O2"
_cell_formula_units_Z 168
_cell_length_a 24.128167
_cell_length_b 22.332508
_cell_length_c 14.476855
_cell_angle_alpha 90.000000
_cell_angle_beta 90.000000
_cell_angle_gamma 90.000000
_cell_volume 7800.744488
_symmetry_space_group_name_H-M "F M M M"
_symmetry_group_IT_number 69
_symmetry_cell_setting 'orthorhombic'
loop_
_space_group_symop_operation_xyz
x,y,z
-x,-y,z
x,-y,-z
-x,y,-z
-x,-y,-z
x,y,-z
-x,y,z
x,-y,z
x,1/2+y,1/2+z
-x,1/2-y,1/2+z
x,1/2-y,1/2-z
-x,1/2+y,1/2-z
-x,1/2-y,1/2-z
x,1/2+y,1/2-z
-x,1/2+y,1/2+z
x,1/2-y,1/2+z
1/2+x,y,1/2+z
1/2-x,-y,1/2+z
1/2+x,-y,1/2-z
1/2-x,y,1/2-z
1/2-x,-y,1/2-z
1/2+x,y,1/2-z
1/2-x,y,1/2+z
1/2+x,-y,1/2+z
1/2+x,1/2+y,z
1/2-x,1/2-y,z
1/2+x,1/2-y,-z
1/2-x,1/2+y,-z
1/2-x,1/2-y,-z
1/2+x,1/2+y,-z
1/2-x,1/2+y,z
1/2+x,1/2-y,z
loop_
_atom_site_type_symbol
_atom_site_label
_atom_site_fract_x
_atom_site_fract_y
_atom_site_fract_z
Si Si1 0.903854 0.252692 0.356695
Si Si2 0.110160 0.107268 0.106639
Si Si3 0.562045 0.070072 0.208004
Si Si4 0.765703 0.431924 0.612016
Si Si5 0.500000 0.779079 0.000000
Si Si6 0.839646 0.857911 0.389767
O O1 0.920426 0.250000 0.250000
O O2 0.894175 0.321085 0.385794
O O3 0.951368 0.225476 0.420427
O O4 0.849277 0.211750 0.368420
O O5 0.069283 0.079822 0.182278
O O6 0.171923 0.086971 0.135086
O O7 0.099896 0.089573 0.000000
O O8 0.500000 0.088367 0.179457
O O9 0.609416 0.107711 0.157998
O O10 0.569043 0.000000 0.186793
O O11 0.764125 0.431595 0.500000
O O12 0.754375 0.500000 0.642039
O O13 0.717871 0.386814 0.643505
O O14 0.843051 0.866309 0.500000
#
# Coordination Sequence:
#
# PCOD9513857 Si02
#       6
#    32  32  32  32   8  32
#     4  12  25  42  66 103 136 175 225 278 333 404
#     4  11  23  43  68  97 134 174 222 278 337 398
#     4  11  26  42  62  95 132 174 225 280 338 398
#     4   9  20  40  69  98 129 178 230 275 328 399
#     4  12  26  44  72  96 130 192 230 260 346 412
#     4  11  23  43  68  97 134 174 222 278 337 398
#
# _framework density 21.536405999999999
#
# number of rings (size 3 to 8) (size 9 to 14) (size 15 to 20)
#    0.000    1.143    3.810    1.429    2.667    4.571 
#    0.000    7.619    0.000    0.000    0.000    0.000 
#    0.000    0.000    0.000    0.000    0.000    0.000 
#
# Total GULP energy -234415.017072 kJ/mol
# GULP energy per Si atom -5581.309930 kJ/mol
# Density = 2.148739 g / cm^3
# Si number density = 21.536406 Si / 1000 Ang^3
#
#
#
# Elastic Constant Matrix: (Units=GPa)
#
#
# Indices 1 2 3 4 5 6 
#
# 1 59.7831 1.0758 -1.4595 0.0000 0.0000 0.0000
# 2 1.0758 45.0226 -18.4865 0.0000 0.0000 0.0000
# 3 -1.4595 -18.4865 114.1266 0.0000 0.0000 0.0000
# 4 0.0000 0.0000 0.0000 20.8531 0.0000 0.0000
# 5 0.0000 0.0000 0.0000 0.0000 1019.8006 0.0000
# 6 0.0000 0.0000 0.0000 0.0000 0.0000 -12.0455
#
#
#
# Elastic Compliance Matrix: (Units=1/GPa)
#
#
# Indices 1 2 3 4 5 6 
#
# 1 0.016737 -0.000334 0.000160 0.000000 0.000000 0.000000
# 2 -0.000334 0.023800 0.003851 0.000000 0.000000 0.000000
# 3 0.000160 0.003851 0.009388 0.000000 0.000000 0.000000
# 4 0.000000 0.000000 0.000000 0.047954 0.000000 0.000000
# 5 0.000000 0.000000 0.000000 0.000000 0.000981 0.000000
# 6 0.000000 0.000000 0.000000 0.000000 0.000000 -0.083018
#
#
# Mechanical properties :
#
#
# Convention : Reuss Voigt Hill
#
# Bulk Modulus (GPa) = 17.45856 20.13243 18.79550
# Shear Modulus (GPa) = 181.27898 221.57514 201.42706
#
# Velocity S-wave (km/s) = 9.18455 10.15418 9.68151
# Velocity P-wave (km/s) = 10.98175 12.11796 11.56382
#
# Compressibility (1/GPa) = 0.05727849
#
# Stress axis : x y z
#
# Youngs Moduli (GPa) = 59.74772 42.01631 106.51860
#
# Poissons Ratio (x) = 0.01405 -0.01703
# Poissons Ratio (y) = 0.01997 -0.41020
# Poissons Ratio (z) = -0.00955 -0.16180
#
# Static dielectric constant tensor:
#      x y z
#    x 1.747020 0.000000 0.000000 
#    y 0.000000 1.776710 0.000000 
#    z 0.000000 0.000000 1.792900 
# 
# From -- ./inp_files/17870.got.cif
#   From: 2010.05.17/outbox.cif.g08.bks.cpg/sg69_9_cif.got.tgz:17870.got - 2010.06.03 19:29:58.
