data_PCOD9513989
_publ_section_title
;
Structure prediction by ZEFSAII (Michael W. Deem and Ramdas Pophale) SiO2 
 PCOD9513989
Probable space group: F M M M
;
_chemical_formula_sum "Si O2"
_cell_formula_units_Z 40
_cell_length_a 30.000000
_cell_length_b 15.000000
_cell_length_c 18.000000
_cell_angle_alpha 90.000000
_cell_angle_beta 90.000000
_cell_angle_gamma 90.000000
_cell_volume 8100.000000
_symmetry_space_group_name_H-M "F M M M"
_symmetry_group_IT_number 69
_symmetry_cell_setting 'orthorhombic'
loop_
_space_group_symop_operation_xyz
x,y,z
-x,-y,z
x,-y,-z
-x,y,-z
-x,-y,-z
x,y,-z
-x,y,z
x,-y,z
x,1/2+y,1/2+z
-x,1/2-y,1/2+z
x,1/2-y,1/2-z
-x,1/2+y,1/2-z
-x,1/2-y,1/2-z
x,1/2+y,1/2-z
-x,1/2+y,1/2+z
x,1/2-y,1/2+z
1/2+x,y,1/2+z
1/2-x,-y,1/2+z
1/2+x,-y,1/2-z
1/2-x,y,1/2-z
1/2-x,-y,1/2-z
1/2+x,y,1/2-z
1/2-x,y,1/2+z
1/2+x,-y,1/2+z
1/2+x,1/2+y,z
1/2-x,1/2-y,z
1/2+x,1/2-y,-z
1/2-x,1/2+y,-z
1/2-x,1/2-y,-z
1/2+x,1/2+y,-z
1/2-x,1/2+y,z
1/2+x,1/2-y,z
loop_
_atom_site_type_symbol
_atom_site_label
_atom_site_fract_x
_atom_site_fract_y
_atom_site_fract_z
Si Si1 0.113556 0.395580 0.000000
Si Si2 0.240930 0.500000 0.838540
Si Si3 0.139064 0.843252 0.189314
Si Si4 0.664583 0.500000 0.086613
Si Si5 0.669142 0.855000 0.849809
Si Si6 0.050768 0.392309 0.649565
Si Si7 0.050724 0.278523 0.500000
O O1 0.141067 0.382027 0.077308
O O2 0.097696 0.500000 0.000000
O O3 0.080483 0.310403 0.000000
O O4 0.250000 0.500000 0.750000
O O5 0.284795 0.500000 0.887096
O O6 0.215020 0.408638 0.858907
O O7 0.144691 0.912211 0.123225
O O8 0.155710 0.885001 0.266374
O O9 0.163226 0.751812 0.164252
O O10 0.086054 0.840118 0.200005
O O11 0.658547 0.500000 0.000000
O O12 0.057907 0.500000 0.646216
O O13 0.056197 0.343252 0.570518
O O14 0.000000 0.380149 0.674267
O O15 0.000000 0.246374 0.500000
#
# Coordination Sequence:
#
# PCOD9513989 Si02
#       7
#    16  16  32  16  32  32  16
#     4  12  24  40  69  91 128 181 228 268 323 397
#     4  12  24  50  68  94 133 170 223 279 336 391
#     4  11  23  44  67  97 136 172 220 268 340 399
#     4  12  28  42  69 102 133 168 217 285 334 402
#     4  11  25  43  68  95 126 178 218 273 334 400
#     4  10  20  35  64 100 135 174 217 272 333 394
#     4  10  21  39  60  95 137 176 227 277 327 382
#
# _framework density 4.9382720000000004
#
# number of rings (size 3 to 8) (size 9 to 14) (size 15 to 20)
#    0.000    1.000    6.000    0.300    4.200    2.200 
#    0.000    4.000    0.000    0.000    0.000    0.000 
#    0.000    0.000    0.000    0.000    0.000    0.000 
#
# Total GULP energy -222694.562637 kJ/mol
# GULP energy per Si atom -5567.364066 kJ/mol
# Density = 0.492703 g / cm^3
# Si number density = 4.938272 Si / 1000 Ang^3
#
#
#
# Elastic Constant Matrix: (Units=GPa)
#
#
# Indices 1 2 3 4 5 6 
#
# 1 106.5105 46.5259 15.8356 0.0000 0.0000 0.0000
# 2 46.5259 120.6988 19.1966 0.0000 0.0000 0.0000
# 3 15.8356 19.1966 92.5019 0.0000 0.0000 0.0000
# 4 0.0000 0.0000 0.0000 28.8613 0.0000 0.0000
# 5 0.0000 0.0000 0.0000 0.0000 8.9076 0.0000
# 6 0.0000 0.0000 0.0000 0.0000 0.0000 28.0576
#
#
#
# Elastic Compliance Matrix: (Units=1/GPa)
#
#
# Indices 1 2 3 4 5 6 
#
# 1 0.011392 -0.004220 -0.001074 0.000000 0.000000 0.000000
# 2 -0.004220 0.010131 -0.001380 0.000000 0.000000 0.000000
# 3 -0.001074 -0.001380 0.011281 0.000000 0.000000 0.000000
# 4 0.000000 0.000000 0.000000 0.034648 0.000000 0.000000
# 5 0.000000 0.000000 0.000000 0.000000 0.112263 0.000000
# 6 0.000000 0.000000 0.000000 0.000000 0.000000 0.035641
#
#
# Mechanical properties :
#
#
# Convention : Reuss Voigt Hill
#
# Bulk Modulus (GPa) = 51.40147 53.64748 52.52448
# Shear Modulus (GPa) = 21.25925 29.04218 25.15072
#
# Velocity S-wave (km/s) = 3.28418 3.83856 3.57214
# Velocity P-wave (km/s) = 6.36079 6.84573 6.60771
#
# Compressibility (1/GPa) = 0.01945470
#
# Stress axis : x y z
#
# Youngs Moduli (GPa) = 87.78059 98.70277 88.64538
#
# Poissons Ratio (x) = 0.41657 0.09524
# Poissons Ratio (y) = 0.37047 0.12233
# Poissons Ratio (z) = 0.09431 0.13621
#
# Static dielectric constant tensor:
#      x y z
#    x 1.694530 0.000000 0.000000 
#    y 0.000000 1.728520 0.000000 
#    z 0.000000 0.000000 1.670390 
# 
# From -- ./inp_files/21906.got.cif
#   From: 2010.05.17/outbox.ucp.g08.bks.cvg/sg69_11_cif.got.tgz:21906.got - 2010.06.11 16:51:34.
