data_PCOD9513911
_publ_section_title
;
Structure prediction by ZEFSAII (Michael W. Deem and Ramdas Pophale) SiO2 
 PCOD9513911
Probable space group: F M M M
;
_chemical_formula_sum "Si O2"
_cell_formula_units_Z 88
_cell_length_a 7.603375
_cell_length_b 14.091160
_cell_length_c 34.984805
_cell_angle_alpha 90.000000
_cell_angle_beta 90.000000
_cell_angle_gamma 90.000000
_cell_volume 3748.285080
_symmetry_space_group_name_H-M "F M M M"
_symmetry_group_IT_number 69
_symmetry_cell_setting 'orthorhombic'
loop_
_space_group_symop_operation_xyz
x,y,z
-x,-y,z
x,-y,-z
-x,y,-z
-x,-y,-z
x,y,-z
-x,y,z
x,-y,z
x,1/2+y,1/2+z
-x,1/2-y,1/2+z
x,1/2-y,1/2-z
-x,1/2+y,1/2-z
-x,1/2-y,1/2-z
x,1/2+y,1/2-z
-x,1/2+y,1/2+z
x,1/2-y,1/2+z
1/2+x,y,1/2+z
1/2-x,-y,1/2+z
1/2+x,-y,1/2-z
1/2-x,y,1/2-z
1/2-x,-y,1/2-z
1/2+x,y,1/2-z
1/2-x,y,1/2+z
1/2+x,-y,1/2+z
1/2+x,1/2+y,z
1/2-x,1/2-y,z
1/2+x,1/2-y,-z
1/2-x,1/2+y,-z
1/2-x,1/2-y,-z
1/2+x,1/2+y,-z
1/2-x,1/2+y,z
1/2+x,1/2-y,z
loop_
_atom_site_type_symbol
_atom_site_label
_atom_site_fract_x
_atom_site_fract_y
_atom_site_fract_z
Si Si1 0.786409 0.611474 0.187451
Si Si2 0.199356 0.884623 0.601034
Si Si3 0.500000 0.616212 0.956459
Si Si4 0.750000 0.750000 0.750000
O O1 0.750728 0.500000 0.192311
O O2 0.741198 0.639386 0.144012
O O3 0.687060 0.673534 0.218574
O O4 0.000000 0.624451 0.192153
O O5 0.330651 0.854755 0.568020
O O6 0.000000 0.851664 0.595390
O O7 0.195074 0.000000 0.600716
O O8 0.500000 0.500000 0.957513
O O9 0.500000 0.650025 0.000000
#
# Coordination Sequence:
#
# PCOD9513911 Si02
#       4
#    32  32  16   8
#     4   9  19  36  53  74 113 157 193 237 293 348
#     4   8  15  30  49  69 105 153 186 221 285 347
#     4   9  16  26  46  81 112 136 183 238 281 342
#     4  12  20  32  56  88 110 138 210 250 286 334
#
# _framework density 23.477405000000001
#
# number of rings (size 3 to 8) (size 9 to 14) (size 15 to 20)
#    0.000    3.091    0.000    3.273    0.000    0.727 
#    6.545    3.636    0.000    0.000    0.000    1.273 
#    0.000    0.000    0.000    0.000    0.000    1.455 
#
# Total GULP energy -122759.816011 kJ/mol
# GULP energy per Si atom -5579.991637 kJ/mol
# Density = 2.342397 g / cm^3
# Si number density = 23.477405 Si / 1000 Ang^3
#
#
#
# Elastic Constant Matrix: (Units=GPa)
#
#
# Indices 1 2 3 4 5 6 
#
# 1 110.3642 26.7108 115.4813 0.0000 0.0000 0.0000
# 2 26.7108 121.4315 52.9190 0.0000 0.0000 0.0000
# 3 115.4813 52.9190 267.5607 0.0000 0.0000 0.0000
# 4 0.0000 0.0000 0.0000 -603.5919 0.0000 0.0000
# 5 0.0000 0.0000 0.0000 0.0000 57.4466 0.0000
# 6 0.0000 0.0000 0.0000 0.0000 0.0000 -8.7947
#
#
#
# Elastic Compliance Matrix: (Units=1/GPa)
#
#
# Indices 1 2 3 4 5 6 
#
# 1 0.016560 -0.000578 -0.007033 0.000000 0.000000 0.000000
# 2 -0.000578 0.009032 -0.001537 0.000000 0.000000 0.000000
# 3 -0.007033 -0.001537 0.007077 0.000000 0.000000 0.000000
# 4 0.000000 0.000000 0.000000 -0.001657 0.000000 0.000000
# 5 0.000000 0.000000 0.000000 0.000000 0.017407 0.000000
# 6 0.000000 0.000000 0.000000 0.000000 0.000000 -0.113704
#
#
# Mechanical properties :
#
#
# Convention : Reuss Voigt Hill
#
# Bulk Modulus (GPa) = 69.57347 98.84206 84.20776
# Shear Modulus (GPa) = -118.48999 -90.70500 -104.59750
#
# Velocity S-wave (km/s) = -7.11192 -6.22245 -6.68200
# Velocity P-wave (km/s) = 6.14334 3.07130 4.85662
#
# Compressibility (1/GPa) = 0.01437330
#
# Stress axis : x y z
#
# Youngs Moduli (GPa) = 60.38658 110.71744 141.30184
#
# Poissons Ratio (x) = 0.06395 0.99380
# Poissons Ratio (y) = 0.03488 0.21719
# Poissons Ratio (z) = 0.42471 0.17018
#
# Static dielectric constant tensor:
#      x y z
#    x 2.072190 0.000000 0.000000 
#    y 0.000000 1.888290 0.000000 
#    z 0.000000 0.000000 1.813720 
# 
# From -- ./inp_files/44186.got.cif
#   From: 2010.05.17/outbox.cif.g08.bks.cpg/sg69_23_cif.got.tgz:44186.got - 2010.06.03 19:29:58.
