data_PCOD9513041
_publ_section_title
;
Structure prediction by ZEFSAII (Michael W. Deem and Ramdas Pophale) SiO2 
 PCOD9513041
Probable space group: F M M M
;
_chemical_formula_sum "Si O2"
_cell_formula_units_Z 176
_cell_length_a 21.524733
_cell_length_b 26.575735
_cell_length_c 14.997013
_cell_angle_alpha 90.000000
_cell_angle_beta 90.000000
_cell_angle_gamma 90.000000
_cell_volume 8578.825332
_symmetry_space_group_name_H-M "F M M M"
_symmetry_group_IT_number 69
_symmetry_cell_setting 'orthorhombic'
loop_
_space_group_symop_operation_xyz
x,y,z
-x,-y,z
x,-y,-z
-x,y,-z
-x,-y,-z
x,y,-z
-x,y,z
x,-y,z
x,1/2+y,1/2+z
-x,1/2-y,1/2+z
x,1/2-y,1/2-z
-x,1/2+y,1/2-z
-x,1/2-y,1/2-z
x,1/2+y,1/2-z
-x,1/2+y,1/2+z
x,1/2-y,1/2+z
1/2+x,y,1/2+z
1/2-x,-y,1/2+z
1/2+x,-y,1/2-z
1/2-x,y,1/2-z
1/2-x,-y,1/2-z
1/2+x,y,1/2-z
1/2-x,y,1/2+z
1/2+x,-y,1/2+z
1/2+x,1/2+y,z
1/2-x,1/2-y,z
1/2+x,1/2-y,-z
1/2-x,1/2+y,-z
1/2-x,1/2-y,-z
1/2+x,1/2+y,-z
1/2-x,1/2+y,z
1/2+x,1/2-y,z
loop_
_atom_site_type_symbol
_atom_site_label
_atom_site_fract_x
_atom_site_fract_y
_atom_site_fract_z
Si Si1 0.179571 0.161461 0.727937
Si Si2 0.930071 0.927745 0.097559
Si Si3 0.874403 0.942867 0.711477
Si Si4 0.568957 0.202660 0.895073
Si Si5 0.000000 0.439080 0.896760
Si Si6 0.603846 0.315383 0.097509
O O1 0.250000 0.176541 0.750000
O O2 0.175283 0.101890 0.704008
O O3 0.131256 0.185946 0.656786
O O4 0.148784 0.175447 0.821415
O O5 0.892594 0.943783 0.184099
O O6 0.933704 0.867149 0.097298
O O7 0.000000 0.946598 0.105528
O O8 0.904503 0.942008 0.000000
O O9 0.936613 0.926420 0.656473
O O10 0.857211 0.000000 0.684109
O O11 0.500000 0.184447 0.863051
O O12 0.568368 0.263367 0.889175
O O13 0.574041 0.189448 0.000000
O O14 0.000000 0.500000 0.898807
O O15 0.000000 0.421637 0.000000
O O16 0.634887 0.311448 0.000000
#
# Coordination Sequence:
#
# PCOD9513041 Si02
#       6
#    32  32  32  32  16  32
#     4  11  25  40  58  87 121 161 207 253 305 364
#     4   9  16  28  51  83 117 148 180 227 291 361
#     4  10  21  37  56  80 114 154 199 249 305 363
#     4  10  22  40  64  94 124 159 205 255 305 361
#     4   9  18  34  57  85 114 147 194 252 309 357
#     4   9  19  36  58  84 119 158 194 236 297 366
#
# _framework density 20.515630000000002
#
# number of rings (size 3 to 8) (size 9 to 14) (size 15 to 20)
#    0.000    2.273    0.909    1.091    1.273    8.000 
#    0.000    2.727    0.000    0.000    0.000    5.091 
#    0.000    0.000    0.000    0.000    0.000    0.000 
#
# Total GULP energy -245040.864667 kJ/mol
# GULP energy per Si atom -5569.110561 kJ/mol
# Density = 2.046894 g / cm^3
# Si number density = 20.515630 Si / 1000 Ang^3
#
#
#
# Elastic Constant Matrix: (Units=GPa)
#
#
# Indices 1 2 3 4 5 6 
#
# 1 107.6206 29.2491 50.0934 0.0000 0.0000 0.0000
# 2 29.2491 111.7395 17.2532 0.0000 0.0000 0.0000
# 3 50.0934 17.2532 94.2966 0.0000 0.0000 0.0000
# 4 0.0000 0.0000 0.0000 21.5549 0.0000 0.0000
# 5 0.0000 0.0000 0.0000 0.0000 -157.3514 0.0000
# 6 0.0000 0.0000 0.0000 0.0000 0.0000 19.6338
#
#
#
# Elastic Compliance Matrix: (Units=1/GPa)
#
#
# Indices 1 2 3 4 5 6 
#
# 1 0.012938 -0.002393 -0.006435 0.000000 0.000000 0.000000
# 2 -0.002393 0.009652 -0.000495 0.000000 0.000000 0.000000
# 3 -0.006435 -0.000495 0.014114 0.000000 0.000000 0.000000
# 4 0.000000 0.000000 0.000000 0.046393 0.000000 0.000000
# 5 0.000000 0.000000 0.000000 0.000000 -0.006355 0.000000
# 6 0.000000 0.000000 0.000000 0.000000 0.000000 0.050932
#
#
# Mechanical properties :
#
#
# Convention : Reuss Voigt Hill
#
# Bulk Modulus (GPa) = 55.37710 56.31646 55.84678
# Shear Modulus (GPa) = 32.82160 -8.76178 12.02991
#
# Velocity S-wave (km/s) = 4.00413 -2.06883 2.42415
# Velocity P-wave (km/s) = 6.95907 4.66941 5.92588
#
# Compressibility (1/GPa) = 0.01805801
#
# Stress axis : x y z
#
# Youngs Moduli (GPa) = 77.29461 103.60366 70.85241
#
# Poissons Ratio (x) = 0.24792 0.45593
# Poissons Ratio (y) = 0.18496 0.03506
# Poissons Ratio (z) = 0.49739 0.05127
#
# Static dielectric constant tensor:
#      x y z
#    x 1.762930 0.000000 0.000000 
#    y 0.000000 1.817650 0.000000 
#    z 0.000000 0.000000 1.732880 
# 
# From -- ./inp_files/18093.got.cif
#   From: 2010.05.17/outbox.cif.g08.bks.cpg/sg69_10_cif.got.tgz:18093.got - 2010.06.03 19:29:58.
