data_PCOD9513845
_publ_section_title
;
Structure prediction by ZEFSAII (Michael W. Deem and Ramdas Pophale) SiO2 
 PCOD9513845
Probable space group: F M M M
;
_chemical_formula_sum "Si O2"
_cell_formula_units_Z 112
_cell_length_a 16.586811
_cell_length_b 21.976667
_cell_length_c 15.749693
_cell_angle_alpha 90.000000
_cell_angle_beta 90.000000
_cell_angle_gamma 90.000000
_cell_volume 5741.122537
_symmetry_space_group_name_H-M "F M M M"
_symmetry_group_IT_number 69
_symmetry_cell_setting 'orthorhombic'
loop_
_space_group_symop_operation_xyz
x,y,z
-x,-y,z
x,-y,-z
-x,y,-z
-x,-y,-z
x,y,-z
-x,y,z
x,-y,z
x,1/2+y,1/2+z
-x,1/2-y,1/2+z
x,1/2-y,1/2-z
-x,1/2+y,1/2-z
-x,1/2-y,1/2-z
x,1/2+y,1/2-z
-x,1/2+y,1/2+z
x,1/2-y,1/2+z
1/2+x,y,1/2+z
1/2-x,-y,1/2+z
1/2+x,-y,1/2-z
1/2-x,y,1/2-z
1/2-x,-y,1/2-z
1/2+x,y,1/2-z
1/2-x,y,1/2+z
1/2+x,-y,1/2+z
1/2+x,1/2+y,z
1/2-x,1/2-y,z
1/2+x,1/2-y,-z
1/2-x,1/2+y,-z
1/2-x,1/2-y,-z
1/2+x,1/2+y,-z
1/2-x,1/2+y,z
1/2+x,1/2-y,z
loop_
_atom_site_type_symbol
_atom_site_label
_atom_site_fract_x
_atom_site_fract_y
_atom_site_fract_z
Si Si1 0.805968 0.070882 0.000000
Si Si2 0.092831 0.281604 0.158290
Si Si3 0.405759 0.000000 0.099207
Si Si4 0.300118 0.899381 0.836197
Si Si5 0.161694 0.286973 0.500000
O O1 0.754809 0.078106 0.086158
O O2 0.844983 0.139236 0.000000
O O3 0.839537 0.000000 0.000000
O O4 0.096921 0.250000 0.250000
O O5 0.161629 0.333021 0.154111
O O6 0.000000 0.303699 0.146276
O O7 0.115693 0.235650 0.083628
O O8 0.624161 0.056753 0.153430
O O9 0.500000 0.000000 0.092769
O O10 0.624126 0.000000 0.000000
O O11 0.250000 0.904471 0.750000
O O12 0.250000 0.250000 0.500000
#
# Coordination Sequence:
#
# PCOD9513845 Si02
#       5
#    16  32  16  32  16
#     4  12  24  40  59  99 130 164 224 270 324 376
#     4  11  25  43  65  97 132 166 213 275 336 397
#     4  11  23  40  62  95 139 177 217 271 331 392
#     4  12  22  39  67  96 132 171 217 273 327 394
#     4  12  23  40  69  97 125 175 217 268 328 395
#
# _framework density 19.508379000000001
#
# number of rings (size 3 to 8) (size 9 to 14) (size 15 to 20)
#    0.000    0.429    5.714    3.429    0.000    0.000 
#    0.000    0.000    0.000    1.714    0.000    0.000 
#    0.000    0.000    0.000    0.000    0.000    0.000 
#
# Total GULP energy -156002.202640 kJ/mol
# GULP energy per Si atom -5571.507237 kJ/mol
# Density = 1.946398 g / cm^3
# Si number density = 19.508379 Si / 1000 Ang^3
#
#
#
# Elastic Constant Matrix: (Units=GPa)
#
#
# Indices 1 2 3 4 5 6 
#
# 1 60.6818 33.7562 56.7277 0.0000 0.0000 0.0000
# 2 33.7562 142.7283 62.1906 0.0000 0.0000 0.0000
# 3 56.7277 62.1906 144.6950 0.0000 0.0000 0.0000
# 4 0.0000 0.0000 0.0000 25.3442 0.0000 0.0000
# 5 0.0000 0.0000 0.0000 0.0000 42.5937 0.0000
# 6 0.0000 0.0000 0.0000 0.0000 0.0000 41.9699
#
#
#
# Elastic Compliance Matrix: (Units=1/GPa)
#
#
# Indices 1 2 3 4 5 6 
#
# 1 0.026536 -0.002145 -0.009482 0.000000 0.000000 0.000000
# 2 -0.002145 0.008794 -0.002939 0.000000 0.000000 0.000000
# 3 -0.009482 -0.002939 0.011892 0.000000 0.000000 0.000000
# 4 0.000000 0.000000 0.000000 0.039457 0.000000 0.000000
# 5 0.000000 0.000000 0.000000 0.000000 0.023478 0.000000
# 6 0.000000 0.000000 0.000000 0.000000 0.000000 0.023827
#
#
# Mechanical properties :
#
#
# Convention : Reuss Voigt Hill
#
# Bulk Modulus (GPa) = 55.27498 72.60602 63.94050
# Shear Modulus (GPa) = 29.56054 35.01027 32.28541
#
# Velocity S-wave (km/s) = 3.89688 4.24090 4.07252
# Velocity P-wave (km/s) = 6.97445 7.82809 7.41357
#
# Compressibility (1/GPa) = 0.01809137
#
# Stress axis : x y z
#
# Youngs Moduli (GPa) = 37.68413 113.71242 84.09262
#
# Poissons Ratio (x) = 0.24386 0.79735
# Poissons Ratio (y) = 0.08081 0.24715
# Poissons Ratio (z) = 0.35732 0.33420
#
# Static dielectric constant tensor:
#      x y z
#    x 1.710770 0.000000 0.000000 
#    y 0.000000 2.030390 0.000000 
#    z 0.000000 0.000000 1.646200 
# 
# From -- ./inp_files/14123.got.cif
#   From: 2010.05.17/outbox.cif.g08.bks.cpg/sg69_8_cif.got.tgz:14123.got - 2010.06.03 19:29:58.
