data_PCOD9513460
_publ_section_title
;
Structure prediction by ZEFSAII (Michael W. Deem and Ramdas Pophale) SiO2 
 PCOD9513460
Probable space group: F M M M
;
_chemical_formula_sum "Si O2"
_cell_formula_units_Z 160
_cell_length_a 14.357814
_cell_length_b 18.677829
_cell_length_c 29.096316
_cell_angle_alpha 90.000000
_cell_angle_beta 90.000000
_cell_angle_gamma 90.000000
_cell_volume 7802.840377
_symmetry_space_group_name_H-M "F M M M"
_symmetry_group_IT_number 69
_symmetry_cell_setting 'orthorhombic'
loop_
_space_group_symop_operation_xyz
x,y,z
-x,-y,z
x,-y,-z
-x,y,-z
-x,-y,-z
x,y,-z
-x,y,z
x,-y,z
x,1/2+y,1/2+z
-x,1/2-y,1/2+z
x,1/2-y,1/2-z
-x,1/2+y,1/2-z
-x,1/2-y,1/2-z
x,1/2+y,1/2-z
-x,1/2+y,1/2+z
x,1/2-y,1/2+z
1/2+x,y,1/2+z
1/2-x,-y,1/2+z
1/2+x,-y,1/2-z
1/2-x,y,1/2-z
1/2-x,-y,1/2-z
1/2+x,y,1/2-z
1/2-x,y,1/2+z
1/2+x,-y,1/2+z
1/2+x,1/2+y,z
1/2-x,1/2-y,z
1/2+x,1/2-y,-z
1/2-x,1/2+y,-z
1/2-x,1/2-y,-z
1/2+x,1/2+y,-z
1/2-x,1/2+y,z
1/2+x,1/2-y,z
loop_
_atom_site_type_symbol
_atom_site_label
_atom_site_fract_x
_atom_site_fract_y
_atom_site_fract_z
Si Si1 0.720204 0.828120 0.338976
Si Si2 0.110020 0.823228 0.930500
Si Si3 0.394074 0.583850 0.232709
Si Si4 0.104518 0.584723 0.156930
Si Si5 0.890376 0.304417 0.000000
Si Si6 0.225820 0.914766 0.000000
O O1 0.750000 0.750000 0.323129
O O2 0.643676 0.820035 0.378534
O O3 0.677886 0.871565 0.296678
O O4 0.809546 0.868988 0.360295
O O5 0.129163 0.748220 0.956755
O O6 0.166903 0.884936 0.956754
O O7 0.000000 0.836460 0.934478
O O8 0.500000 0.600469 0.218020
O O9 0.376373 0.500000 0.224319
O O10 0.391429 0.594055 0.287584
O O11 0.115733 0.500000 0.147422
O O12 0.000000 0.606019 0.141678
O O13 0.823713 0.372478 0.000000
O O14 0.000000 0.322636 0.000000
O O15 0.235568 0.000000 0.000000
#
# Coordination Sequence:
#
# PCOD9513460 Si02
#       6
#    32  32  32  32  16  16
#     4  12  23  34  54  86 117 144 184 237 287 331
#     4  10  22  41  62  82 112 155 194 226 269 332
#     4   9  19  37  58  78 106 148 194 236 282 339
#     4   9  20  39  58  76 106 152 197 233 279 341
#     4   9  19  41  67  85 112 157 193 214 258 335
#     4  11  22  38  63  95 123 143 175 229 284 328
#
# _framework density 20.505352999999999
#
# number of rings (size 3 to 8) (size 9 to 14) (size 15 to 20)
#    0.000    2.000    0.000    6.300    0.000    7.400 
#    0.000    3.000    0.000    0.000    0.000    0.000 
#    0.000    0.000    0.000    0.000    0.000    0.000 
#
# Total GULP energy -223638.388787 kJ/mol
# GULP energy per Si atom -5590.959720 kJ/mol
# Density = 2.045868 g / cm^3
# Si number density = 20.505353 Si / 1000 Ang^3
#
#
#
# Elastic Constant Matrix: (Units=GPa)
#
#
# Indices 1 2 3 4 5 6 
#
# 1 123.9157 80.6086 16.6735 0.0000 0.0000 0.0000
# 2 80.6086 90.5608 5.2141 0.0000 0.0000 0.0000
# 3 16.6735 5.2141 25.0918 0.0000 0.0000 0.0000
# 4 0.0000 0.0000 0.0000 245.7170 0.0000 0.0000
# 5 0.0000 0.0000 0.0000 0.0000 23.0556 0.0000
# 6 0.0000 0.0000 0.0000 0.0000 0.0000 16.4484
#
#
#
# Elastic Compliance Matrix: (Units=1/GPa)
#
#
# Indices 1 2 3 4 5 6 
#
# 1 0.021586 -0.018611 -0.010477 0.000000 0.000000 0.000000
# 2 -0.018611 0.027222 0.006710 0.000000 0.000000 0.000000
# 3 -0.010477 0.006710 0.045421 0.000000 0.000000 0.000000
# 4 0.000000 0.000000 0.000000 0.004070 0.000000 0.000000
# 5 0.000000 0.000000 0.000000 0.000000 0.043373 0.000000
# 6 0.000000 0.000000 0.000000 0.000000 0.000000 0.060796
#
#
# Mechanical properties :
#
#
# Convention : Reuss Voigt Hill
#
# Bulk Modulus (GPa) = 20.21255 49.39565 34.80410
# Shear Modulus (GPa) = 18.95990 66.18232 42.57111
#
# Velocity S-wave (km/s) = 3.04407 5.68733 4.56136
# Velocity P-wave (km/s) = 4.71527 8.20177 6.68965
#
# Compressibility (1/GPa) = 0.04947422
#
# Stress axis : x y z
#
# Youngs Moduli (GPa) = 46.32577 36.73562 22.01620
#
# Poissons Ratio (x) = 0.68368 0.23066
# Poissons Ratio (y) = 0.86216 -0.14773
# Poissons Ratio (z) = 0.48534 -0.24650
#
# Static dielectric constant tensor:
#      x y z
#    x 1.759390 0.000000 0.000000 
#    y 0.000000 1.688660 0.000000 
#    z 0.000000 0.000000 1.727400 
# 
# From -- ./inp_files/45681.got.cif
#   From: 2010.05.17/outbox.cif.g08.bks.cpg/sg69_23_cif.got.tgz:45681.got - 2010.06.03 19:29:58.
