data_PCOD9513140
_publ_section_title
;
Structure prediction by ZEFSAII (Michael W. Deem and Ramdas Pophale) SiO2 
 PCOD9513140
Probable space group: F M M M
;
_chemical_formula_sum "Si O2"
_cell_formula_units_Z 128
_cell_length_a 14.012336
_cell_length_b 19.472272
_cell_length_c 24.452253
_cell_angle_alpha 90.000000
_cell_angle_beta 90.000000
_cell_angle_gamma 90.000000
_cell_volume 6671.846574
_symmetry_space_group_name_H-M "F M M M"
_symmetry_group_IT_number 69
_symmetry_cell_setting 'orthorhombic'
loop_
_space_group_symop_operation_xyz
x,y,z
-x,-y,z
x,-y,-z
-x,y,-z
-x,-y,-z
x,y,-z
-x,y,z
x,-y,z
x,1/2+y,1/2+z
-x,1/2-y,1/2+z
x,1/2-y,1/2-z
-x,1/2+y,1/2-z
-x,1/2-y,1/2-z
x,1/2+y,1/2-z
-x,1/2+y,1/2+z
x,1/2-y,1/2+z
1/2+x,y,1/2+z
1/2-x,-y,1/2+z
1/2+x,-y,1/2-z
1/2-x,y,1/2-z
1/2-x,-y,1/2-z
1/2+x,y,1/2-z
1/2-x,y,1/2+z
1/2+x,-y,1/2+z
1/2+x,1/2+y,z
1/2-x,1/2-y,z
1/2+x,1/2-y,-z
1/2-x,1/2+y,-z
1/2-x,1/2-y,-z
1/2+x,1/2+y,-z
1/2-x,1/2+y,z
1/2+x,1/2-y,z
loop_
_atom_site_type_symbol
_atom_site_label
_atom_site_fract_x
_atom_site_fract_y
_atom_site_fract_z
Si Si1 0.829024 0.190004 0.120446
Si Si2 0.500000 0.190448 0.295044
Si Si3 0.165353 0.582506 0.880181
Si Si4 0.667124 0.418090 0.500000
Si Si5 0.328878 0.810746 0.500000
Si Si6 0.000000 0.582491 0.796685
O O1 0.750000 0.250000 0.124445
O O2 0.765835 0.120872 0.125542
O O3 0.907549 0.195506 0.166744
O O4 0.875527 0.193760 0.059583
O O5 0.500000 0.250000 0.250000
O O6 0.500000 0.119970 0.260891
O O7 0.176131 0.500000 0.878392
O O8 0.124423 0.601164 0.940892
O O9 0.092129 0.602654 0.832823
O O10 0.673798 0.500000 0.500000
O O11 0.769795 0.381799 0.500000
O O12 0.250000 0.750000 0.500000
O O13 0.000000 0.500000 0.791398
#
# Coordination Sequence:
#
# PCOD9513140 Si02
#       6
#    32  16  32  16  16  16
#     4  10  21  38  59  81 107 138 173 219 272 319
#     4  12  26  39  54  79 108 142 186 223 254 311
#     4   9  18  34  56  81 110 142 176 220 270 315
#     4   8  14  27  51  81 108 135 171 215 266 320
#     4   8  16  33  56  81 104 129 168 215 266 324
#     4  10  22  37  53  79 111 144 187 225 255 307
#
# _framework density 19.185092999999998
#
# number of rings (size 3 to 8) (size 9 to 14) (size 15 to 20)
#    0.000    2.500    0.000    1.500    0.000    5.500 
#    0.000    5.000    0.000   10.500    0.000    9.625 
#    0.000    0.000    0.000    0.000    0.000    0.000 
#
# Total GULP energy -178345.473441 kJ/mol
# GULP energy per Si atom -5573.296045 kJ/mol
# Density = 1.914143 g / cm^3
# Si number density = 19.185093 Si / 1000 Ang^3
#
#
#
# Elastic Constant Matrix: (Units=GPa)
#
#
# Indices 1 2 3 4 5 6 
#
# 1 88.4350 26.0835 79.8933 0.0000 0.0000 0.0000
# 2 26.0835 28.0424 39.9318 0.0000 0.0000 0.0000
# 3 79.8933 39.9318 193.4858 0.0000 0.0000 0.0000
# 4 0.0000 0.0000 0.0000 30.5322 0.0000 0.0000
# 5 0.0000 0.0000 0.0000 0.0000 51.6793 0.0000
# 6 0.0000 0.0000 0.0000 0.0000 0.0000 16.4691
#
#
#
# Elastic Compliance Matrix: (Units=1/GPa)
#
#
# Indices 1 2 3 4 5 6 
#
# 1 0.019686 -0.009539 -0.006160 0.000000 0.000000 0.000000
# 2 -0.009539 0.055124 -0.007438 0.000000 0.000000 0.000000
# 3 -0.006160 -0.007438 0.009247 0.000000 0.000000 0.000000
# 4 0.000000 0.000000 0.000000 0.032752 0.000000 0.000000
# 5 0.000000 0.000000 0.000000 0.000000 0.019350 0.000000
# 6 0.000000 0.000000 0.000000 0.000000 0.000000 0.060720
#
#
# Mechanical properties :
#
#
# Convention : Reuss Voigt Hill
#
# Bulk Modulus (GPa) = 26.46657 66.86448 46.66553
# Shear Modulus (GPa) = 19.55042 30.67309 25.11176
#
# Velocity S-wave (km/s) = 3.19571 4.00284 3.62183
# Velocity P-wave (km/s) = 5.23852 7.50277 6.47046
#
# Compressibility (1/GPa) = 0.03778352
#
# Stress axis : x y z
#
# Youngs Moduli (GPa) = 50.79645 18.14076 108.14402
#
# Poissons Ratio (x) = 0.17305 0.66618
# Poissons Ratio (y) = 0.48457 0.80434
# Poissons Ratio (z) = 0.31291 0.13493
#
# Static dielectric constant tensor:
#      x y z
#    x 1.622190 0.000000 0.000000 
#    y 0.000000 1.690910 0.000000 
#    z 0.000000 0.000000 1.703830 
# 
# From -- ./inp_files/16398.got.cif
#   From: 2010.05.17/outbox.cif.g08.bks.cpg/sg69_9_cif.got.tgz:16398.got - 2010.06.03 19:29:58.
