data_PCOD9513713
_publ_section_title
;
Structure prediction by ZEFSAII (Michael W. Deem and Ramdas Pophale) SiO2 
 PCOD9513713
Probable space group: F M M M
;
_chemical_formula_sum "Si O2"
_cell_formula_units_Z 160
_cell_length_a 22.450990
_cell_length_b 17.085911
_cell_length_c 21.922240
_cell_angle_alpha 90.000000
_cell_angle_beta 90.000000
_cell_angle_gamma 90.000000
_cell_volume 8409.275179
_symmetry_space_group_name_H-M "F M M M"
_symmetry_group_IT_number 69
_symmetry_cell_setting 'orthorhombic'
loop_
_space_group_symop_operation_xyz
x,y,z
-x,-y,z
x,-y,-z
-x,y,-z
-x,-y,-z
x,y,-z
-x,y,z
x,-y,z
x,1/2+y,1/2+z
-x,1/2-y,1/2+z
x,1/2-y,1/2-z
-x,1/2+y,1/2-z
-x,1/2-y,1/2-z
x,1/2+y,1/2-z
-x,1/2+y,1/2+z
x,1/2-y,1/2+z
1/2+x,y,1/2+z
1/2-x,-y,1/2+z
1/2+x,-y,1/2-z
1/2-x,y,1/2-z
1/2-x,-y,1/2-z
1/2+x,y,1/2-z
1/2-x,y,1/2+z
1/2+x,-y,1/2+z
1/2+x,1/2+y,z
1/2-x,1/2-y,z
1/2+x,1/2-y,-z
1/2-x,1/2+y,-z
1/2-x,1/2-y,-z
1/2+x,1/2+y,-z
1/2-x,1/2+y,z
1/2+x,1/2-y,z
loop_
_atom_site_type_symbol
_atom_site_label
_atom_site_fract_x
_atom_site_fract_y
_atom_site_fract_z
Si Si1 0.346201 0.092144 0.892141
Si Si2 0.500000 0.595304 0.071562
Si Si3 0.119772 0.906263 0.857048
Si Si4 0.819657 0.342850 0.239890
Si Si5 0.568407 0.095632 0.000000
Si Si6 0.228121 0.333502 0.430003
O O1 0.340800 0.135113 0.827709
O O2 0.396602 0.120975 0.939131
O O3 0.283302 0.107796 0.924900
O O4 0.354720 0.000000 0.881363
O O5 0.500000 0.500000 0.069383
O O6 0.558247 0.618710 0.110526
O O7 0.500000 0.621221 0.000000
O O8 0.134896 0.881491 0.788030
O O9 0.173150 0.867392 0.894251
O O10 0.122875 0.000000 0.861164
O O11 0.820433 0.250000 0.250000
O O12 0.750000 0.369032 0.250000
O O13 0.500000 0.120342 0.000000
O O14 0.570274 0.000000 0.000000
O O15 0.211271 0.320911 0.500000
O O16 0.250000 0.250000 0.404274
#
# Coordination Sequence:
#
# PCOD9513713 Si02
#       6
#    32  16  32  32  16  32
#     4  11  21  36  62  92 118 152 204 256 299 356
#     4   9  20  40  63  90 124 159 201 256 312 364
#     4  11  22  38  63  90 120 160 209 257 305 365
#     4  11  23  39  61  87 128 165 197 247 316 371
#     4   9  20  40  63  90 124 157 197 254 312 362
#     4  11  22  35  57  86 125 160 197 249 314 364
#
# _framework density 19.026610999999999
#
# number of rings (size 3 to 8) (size 9 to 14) (size 15 to 20)
#    0.000    1.400    3.000    3.000    0.000    2.800 
#    1.800    0.500    6.600    0.000    0.000    0.000 
#    0.000    0.000    0.000    0.000    0.000    0.000 
#
# Total GULP energy -223364.647626 kJ/mol
# GULP energy per Si atom -5584.116191 kJ/mol
# Density = 1.898331 g / cm^3
# Si number density = 19.026611 Si / 1000 Ang^3
#
#
#
# Elastic Constant Matrix: (Units=GPa)
#
#
# Indices 1 2 3 4 5 6 
#
# 1 153.8289 25.2931 84.4258 0.0000 0.0000 0.0000
# 2 25.2931 54.3524 39.4210 0.0000 0.0000 0.0000
# 3 84.4258 39.4210 161.0704 0.0000 0.0000 0.0000
# 4 0.0000 0.0000 0.0000 45.0268 0.0000 0.0000
# 5 0.0000 0.0000 0.0000 0.0000 30.7360 0.0000
# 6 0.0000 0.0000 0.0000 0.0000 0.0000 -0.7693
#
#
#
# Elastic Compliance Matrix: (Units=1/GPa)
#
#
# Indices 1 2 3 4 5 6 
#
# 1 0.009166 -0.000949 -0.004572 0.000000 0.000000 0.000000
# 2 -0.000949 0.022468 -0.005001 0.000000 0.000000 0.000000
# 3 -0.004572 -0.005001 0.009829 0.000000 0.000000 0.000000
# 4 0.000000 0.000000 0.000000 0.022209 0.000000 0.000000
# 5 0.000000 0.000000 0.000000 0.000000 0.032535 0.000000
# 6 0.000000 0.000000 0.000000 0.000000 0.000000 -1.299967
#
#
# Mechanical properties :
#
#
# Convention : Reuss Voigt Hill
#
# Bulk Modulus (GPa) = 48.97816 74.17017 61.57417
# Shear Modulus (GPa) = -4.25203 29.67284 12.71040
#
# Velocity S-wave (km/s) = -1.49654 3.95339 2.58744
# Velocity P-wave (km/s) = 4.77615 7.73990 6.43108
#
# Compressibility (1/GPa) = 0.02041726
#
# Stress axis : x y z
#
# Youngs Moduli (GPa) = 109.09709 44.50871 101.74013
#
# Poissons Ratio (x) = 0.04226 0.46517
# Poissons Ratio (y) = 0.10358 0.50882
# Poissons Ratio (z) = 0.49880 0.22259
#
# Static dielectric constant tensor:
#      x y z
#    x 1.639310 0.000000 0.000000 
#    y 0.000000 1.663400 0.000000 
#    z 0.000000 0.000000 1.696900 
# 
# From -- ./inp_files/31749.got.cif
#   From: 2010.05.17/outbox.cif.g08.bks.cpg/sg69_16_cif.got.tgz:31749.got - 2010.06.03 19:29:58.
