data_PCOD9513976
_publ_section_title
;
Structure prediction by ZEFSAII (Michael W. Deem and Ramdas Pophale) SiO2 
 PCOD9513976
Probable space group: F M M M
;
_chemical_formula_sum "Si O2"
_cell_formula_units_Z 40
_cell_length_a 9.000000
_cell_length_b 30.000000
_cell_length_c 30.000000
_cell_angle_alpha 90.000000
_cell_angle_beta 90.000000
_cell_angle_gamma 90.000000
_cell_volume 8100.000000
_symmetry_space_group_name_H-M "F M M M"
_symmetry_group_IT_number 69
_symmetry_cell_setting 'orthorhombic'
loop_
_space_group_symop_operation_xyz
x,y,z
-x,-y,z
x,-y,-z
-x,y,-z
-x,-y,-z
x,y,-z
-x,y,z
x,-y,z
x,1/2+y,1/2+z
-x,1/2-y,1/2+z
x,1/2-y,1/2-z
-x,1/2+y,1/2-z
-x,1/2-y,1/2-z
x,1/2+y,1/2-z
-x,1/2+y,1/2+z
x,1/2-y,1/2+z
1/2+x,y,1/2+z
1/2-x,-y,1/2+z
1/2+x,-y,1/2-z
1/2-x,y,1/2-z
1/2-x,-y,1/2-z
1/2+x,y,1/2-z
1/2-x,y,1/2+z
1/2+x,-y,1/2+z
1/2+x,1/2+y,z
1/2-x,1/2-y,z
1/2+x,1/2-y,-z
1/2-x,1/2+y,-z
1/2-x,1/2-y,-z
1/2+x,1/2+y,-z
1/2-x,1/2+y,z
1/2+x,1/2-y,z
loop_
_atom_site_type_symbol
_atom_site_label
_atom_site_fract_x
_atom_site_fract_y
_atom_site_fract_z
Si Si1 0.675548 0.681578 0.704724
Si Si2 0.319144 0.550547 0.000000
Si Si3 0.676322 0.205445 0.896056
Si Si4 0.830083 0.403955 0.675628
Si Si5 0.330541 0.378806 0.927574
Si Si6 0.321566 0.000000 0.297784
O O1 0.500000 0.687460 0.708092
O O2 0.750000 0.699098 0.750000
O O3 0.726504 0.699740 0.656178
O O4 0.722005 0.629870 0.700314
O O5 0.277105 0.580319 0.042468
O O6 0.262858 0.500000 0.000000
O O7 0.500000 0.547730 0.000000
O O8 0.500000 0.208121 0.895152
O O9 0.750000 0.250000 0.913284
O O10 0.728674 0.164416 0.926121
O O11 0.835284 0.393153 0.623696
O O12 0.777930 0.454327 0.679370
O O13 0.000000 0.398826 0.693171
O O14 0.500000 0.367566 0.941359
O O15 0.250000 0.000000 0.250000
O O16 0.500000 0.000000 0.295387
#
# Coordination Sequence:
#
# PCOD9513976 Si02
#       6
#    32  16  32  32  32  16
#     4  10  20  33  50  73 103 138 178 224 270 318
#     4   9  18  32  58  93 120 143 178 223 268 321
#     4  10  21  37  57  80 108 143 183 226 273 326
#     4   9  18  31  48  69  99 139 179 220 267 317
#     4   9  18  34  56  82 112 143 177 221 270 323
#     4  10  20  30  42  65  95 131 177 222 262 306
#
# _framework density 4.9382720000000004
#
# number of rings (size 3 to 8) (size 9 to 14) (size 15 to 20)
#    0.000    2.500    0.000    1.800    1.400    5.200 
#    0.000    3.000    0.000    1.200    0.000    0.000 
#    0.000    0.000    0.000    0.000    0.000    0.000 
#
# Total GULP energy -222893.207047 kJ/mol
# GULP energy per Si atom -5572.330176 kJ/mol
# Density = 0.492703 g / cm^3
# Si number density = 4.938272 Si / 1000 Ang^3
#
#
#
# Elastic Constant Matrix: (Units=GPa)
#
#
# Indices 1 2 3 4 5 6 
#
# 1 17.7018 37.0017 20.1179 0.0000 0.0000 0.0000
# 2 37.0017 158.5740 35.1837 0.0000 0.0000 0.0000
# 3 20.1179 35.1837 55.7692 0.0000 0.0000 0.0000
# 4 0.0000 0.0000 0.0000 -10.5538 0.0000 0.0000
# 5 0.0000 0.0000 0.0000 0.0000 7.4614 0.0000
# 6 0.0000 0.0000 0.0000 0.0000 0.0000 15.1113
#
#
#
# Elastic Compliance Matrix: (Units=1/GPa)
#
#
# Indices 1 2 3 4 5 6 
#
# 1 0.163632 -0.029168 -0.040626 0.000000 0.000000 0.000000
# 2 -0.029168 0.012532 0.002616 0.000000 0.000000 0.000000
# 3 -0.040626 0.002616 0.030936 0.000000 0.000000 0.000000
# 4 0.000000 0.000000 0.000000 -0.094753 0.000000 0.000000
# 5 0.000000 0.000000 0.000000 0.000000 0.134024 0.000000
# 6 0.000000 0.000000 0.000000 0.000000 0.000000 0.066176
#
#
# Mechanical properties :
#
#
# Convention : Reuss Voigt Hill
#
# Bulk Modulus (GPa) = 13.74697 46.29460 30.02079
# Shear Modulus (GPa) = 10.61229 11.71988 11.16609
#
# Velocity S-wave (km/s) = 2.32037 2.43846 2.38015
# Velocity P-wave (km/s) = 3.76210 5.60496 4.77331
#
# Compressibility (1/GPa) = 0.07274328
#
# Stress axis : x y z
#
# Youngs Moduli (GPa) = 6.11127 79.79640 32.32476
#
# Poissons Ratio (x) = 2.32750 1.31323
# Poissons Ratio (y) = 0.17825 -0.08455
# Poissons Ratio (z) = 0.24828 -0.20873
#
# Static dielectric constant tensor:
#      x y z
#    x 1.680850 0.000000 0.000000 
#    y 0.000000 1.710760 0.000000 
#    z 0.000000 0.000000 1.695350 
# 
# From -- ./inp_files/5723.got.cif
#   From: 2010.05.17/outbox.ucp.g08.bks.cvg/sg69_3_cif.got.tgz:5723.got - 2010.06.11 16:51:34.
