data_PCOD9513597
_publ_section_title
;
Structure prediction by ZEFSAII (Michael W. Deem and Ramdas Pophale) SiO2 
 PCOD9513597
Probable space group: F M M M
;
_chemical_formula_sum "Si O2"
_cell_formula_units_Z 132
_cell_length_a 22.427047
_cell_length_b 18.085327
_cell_length_c 16.460049
_cell_angle_alpha 90.000000
_cell_angle_beta 90.000000
_cell_angle_gamma 90.000000
_cell_volume 6676.203753
_symmetry_space_group_name_H-M "F M M M"
_symmetry_group_IT_number 69
_symmetry_cell_setting 'orthorhombic'
loop_
_space_group_symop_operation_xyz
x,y,z
-x,-y,z
x,-y,-z
-x,y,-z
-x,-y,-z
x,y,-z
-x,y,z
x,-y,z
x,1/2+y,1/2+z
-x,1/2-y,1/2+z
x,1/2-y,1/2-z
-x,1/2+y,1/2-z
-x,1/2-y,1/2-z
x,1/2+y,1/2-z
-x,1/2+y,1/2+z
x,1/2-y,1/2+z
1/2+x,y,1/2+z
1/2-x,-y,1/2+z
1/2+x,-y,1/2-z
1/2-x,y,1/2-z
1/2-x,-y,1/2-z
1/2+x,y,1/2-z
1/2-x,y,1/2+z
1/2+x,-y,1/2+z
1/2+x,1/2+y,z
1/2-x,1/2-y,z
1/2+x,1/2-y,-z
1/2-x,1/2+y,-z
1/2-x,1/2-y,-z
1/2+x,1/2+y,-z
1/2-x,1/2+y,z
1/2+x,1/2-y,z
loop_
_atom_site_type_symbol
_atom_site_label
_atom_site_fract_x
_atom_site_fract_y
_atom_site_fract_z
Si Si1 0.383491 0.175070 0.303053
Si Si2 0.568307 0.090329 0.000000
Si Si3 0.853150 0.412411 0.847622
Si Si4 0.000000 0.654982 0.409592
Si Si5 0.000000 0.000000 0.000000
Si Si6 0.765057 0.336538 0.407042
O O1 0.375718 0.250000 0.250000
O O2 0.383458 0.110945 0.235958
O O3 0.442155 0.176763 0.357913
O O4 0.327399 0.159013 0.360929
O O5 0.604960 0.114620 0.078807
O O6 0.500000 0.114836 0.000000
O O7 0.567753 0.000000 0.000000
O O8 0.846965 0.500000 0.853504
O O9 0.788216 0.376431 0.859172
O O10 0.000000 0.690507 0.500000
O O11 0.000000 0.567010 0.430379
O O12 0.767956 0.365085 0.500000
O O13 0.750000 0.250000 0.410457
#
# Coordination Sequence:
#
# PCOD9513597 Si02
#       6
#    32  16  32  16   4  32
#     4  12  25  43  69 101 135 177 224 289 345 411
#     4   9  20  42  63  94 136 173 208 269 343 405
#     4  11  24  41  67 100 133 170 229 283 339 412
#     4  10  25  49  70  97 137 177 234 280 338 414
#     4   8  24  52  72  96 140 178 242 280 330 416
#     4  11  23  43  67  92 134 181 219 270 341 404
#
# _framework density 19.771715
#
# number of rings (size 3 to 8) (size 9 to 14) (size 15 to 20)
#    0.364    0.848    3.636    1.818    3.394    1.939 
#    2.182    0.000    0.000    0.000    0.000    0.000 
#    0.000    0.000    0.000    0.000    0.000    0.000 
#
# Total GULP energy -184109.119417 kJ/mol
# GULP energy per Si atom -5579.064225 kJ/mol
# Density = 1.972671 g / cm^3
# Si number density = 19.771715 Si / 1000 Ang^3
#
#
#
# Elastic Constant Matrix: (Units=GPa)
#
#
# Indices 1 2 3 4 5 6 
#
# 1 174.3617 5.6945 75.5525 0.0000 0.0000 0.0000
# 2 5.6945 44.4896 3.1036 0.0000 0.0000 0.0000
# 3 75.5525 3.1036 138.4745 0.0000 0.0000 0.0000
# 4 0.0000 0.0000 0.0000 7.2190 0.0000 0.0000
# 5 0.0000 0.0000 0.0000 0.0000 49.7435 0.0000
# 6 0.0000 0.0000 0.0000 0.0000 0.0000 8.6912
#
#
#
# Elastic Compliance Matrix: (Units=1/GPa)
#
#
# Indices 1 2 3 4 5 6 
#
# 1 0.007531 -0.000678 -0.004094 0.000000 0.000000 0.000000
# 2 -0.000678 0.022573 -0.000136 0.000000 0.000000 0.000000
# 3 -0.004094 -0.000136 0.009458 0.000000 0.000000 0.000000
# 4 0.000000 0.000000 0.000000 0.138523 0.000000 0.000000
# 5 0.000000 0.000000 0.000000 0.000000 0.020103 0.000000
# 6 0.000000 0.000000 0.000000 0.000000 0.000000 0.115059
#
#
# Mechanical properties :
#
#
# Convention : Reuss Voigt Hill
#
# Bulk Modulus (GPa) = 33.61704 58.44745 46.03224
# Shear Modulus (GPa) = 15.01591 31.32909 23.17250
#
# Velocity S-wave (km/s) = 2.75883 3.98495 3.42717
# Velocity P-wave (km/s) = 5.21418 7.12730 6.24444
#
# Compressibility (1/GPa) = 0.02974682
#
# Stress axis : x y z
#
# Youngs Moduli (GPa) = 132.77944 44.29976 105.72781
#
# Poissons Ratio (x) = 0.03005 0.43284
# Poissons Ratio (y) = 0.09008 0.01436
# Poissons Ratio (z) = 0.54359 0.00602
#
# Static dielectric constant tensor:
#      x y z
#    x 1.673090 0.000000 0.000000 
#    y 0.000000 1.700450 0.000000 
#    z 0.000000 0.000000 1.697690 
# 
# From -- ./inp_files/16415.got.cif
#   From: 2010.05.17/outbox.cif.g08.bks.cpg/sg69_9_cif.got.tgz:16415.got - 2010.06.03 19:29:58.
