data_PCOD9513329
_publ_section_title
;
Structure prediction by ZEFSAII (Michael W. Deem and Ramdas Pophale) SiO2 
 PCOD9513329
Probable space group: F M M M
;
_chemical_formula_sum "Si O2"
_cell_formula_units_Z 192
_cell_length_a 27.815359
_cell_length_b 14.410587
_cell_length_c 24.751977
_cell_angle_alpha 90.000000
_cell_angle_beta 90.000000
_cell_angle_gamma 90.000000
_cell_volume 9921.474810
_symmetry_space_group_name_H-M "F M M M"
_symmetry_group_IT_number 69
_symmetry_cell_setting 'orthorhombic'
loop_
_space_group_symop_operation_xyz
x,y,z
-x,-y,z
x,-y,-z
-x,y,-z
-x,-y,-z
x,y,-z
-x,y,z
x,-y,z
x,1/2+y,1/2+z
-x,1/2-y,1/2+z
x,1/2-y,1/2-z
-x,1/2+y,1/2-z
-x,1/2-y,1/2-z
x,1/2+y,1/2-z
-x,1/2+y,1/2+z
x,1/2-y,1/2+z
1/2+x,y,1/2+z
1/2-x,-y,1/2+z
1/2+x,-y,1/2-z
1/2-x,y,1/2-z
1/2-x,-y,1/2-z
1/2+x,y,1/2-z
1/2-x,y,1/2+z
1/2+x,-y,1/2+z
1/2+x,1/2+y,z
1/2-x,1/2-y,z
1/2+x,1/2-y,-z
1/2-x,1/2+y,-z
1/2-x,1/2-y,-z
1/2+x,1/2+y,-z
1/2-x,1/2+y,z
1/2+x,1/2-y,z
loop_
_atom_site_type_symbol
_atom_site_label
_atom_site_fract_x
_atom_site_fract_y
_atom_site_fract_z
Si Si1 0.230232 0.113265 0.500000
Si Si2 0.201745 0.107173 0.712867
Si Si3 0.237345 0.886592 0.117062
Si Si4 0.554255 0.732487 0.186174
Si Si5 0.855515 0.888015 0.813248
Si Si6 0.943421 0.608006 0.897443
Si Si7 0.119466 0.387196 0.000000
O O1 0.255731 0.142009 0.555487
O O2 0.174609 0.143704 0.500000
O O3 0.229882 0.000000 0.500000
O O4 0.250000 0.107602 0.750000
O O5 0.219178 0.147992 0.656018
O O6 0.161384 0.144088 0.753133
O O7 0.188804 0.000000 0.702341
O O8 0.186958 0.862799 0.145066
O O9 0.239765 0.000000 0.118833
O O10 0.500000 0.702199 0.171695
O O11 0.555149 0.750000 0.250000
O O12 0.594641 0.658311 0.172030
O O13 0.564056 0.827425 0.154101
O O14 0.858457 0.000000 0.812119
O O15 0.932996 0.500000 0.885481
O O16 0.000000 0.613438 0.913004
O O17 0.909796 0.639869 0.946550
O O18 0.119656 0.500000 0.000000
#
# Coordination Sequence:
#
# PCOD9513329 Si02
#       7
#    16  32  32  32  32  32  16
#     4   9  16  25  43  75 110 136 161 204 260 312
#     4   7  11  22  43  70  97 129 171 210 241 283
#     4   8  14  26  45  72 104 137 173 208 249 304
#     4  10  22  37  52  76 108 137 170 216 271 328
#     4   9  17  31  53  76 101 139 179 212 248 297
#     4   9  18  35  58  80 104 137 177 222 271 324
#     4   9  17  30  54  86 108 130 172 223 279 331
#
# _framework density 19.351960999999999
#
# number of rings (size 3 to 8) (size 9 to 14) (size 15 to 20)
#    0.000    3.333    0.000    2.250    0.000    3.333 
#    0.000    5.833    0.000   12.500    0.000    0.000 
#    0.000   12.000    0.000    0.000    0.000    0.000 
#
# Total GULP energy -267734.543511 kJ/mol
# GULP energy per Si atom -5577.802990 kJ/mol
# Density = 1.930792 g / cm^3
# Si number density = 19.351961 Si / 1000 Ang^3
#
#
#
# Elastic Constant Matrix: (Units=GPa)
#
#
# Indices 1 2 3 4 5 6 
#
# 1 113.7632 50.0798 72.5255 0.0000 0.0000 0.0000
# 2 50.0798 69.1170 28.9796 0.0000 0.0000 0.0000
# 3 72.5255 28.9796 158.5163 0.0000 0.0000 0.0000
# 4 0.0000 0.0000 0.0000 8.8398 0.0000 0.0000
# 5 0.0000 0.0000 0.0000 0.0000 -48.9098 0.0000
# 6 0.0000 0.0000 0.0000 0.0000 0.0000 12.5677
#
#
#
# Elastic Compliance Matrix: (Units=1/GPa)
#
#
# Indices 1 2 3 4 5 6 
#
# 1 0.016853 -0.009723 -0.005933 0.000000 0.000000 0.000000
# 2 -0.009723 0.021279 0.000559 0.000000 0.000000 0.000000
# 3 -0.005933 0.000559 0.008921 0.000000 0.000000 0.000000
# 4 0.000000 0.000000 0.000000 0.113125 0.000000 0.000000
# 5 0.000000 0.000000 0.000000 0.000000 -0.020446 0.000000
# 6 0.000000 0.000000 0.000000 0.000000 0.000000 0.079569
#
#
# Mechanical properties :
#
#
# Convention : Reuss Voigt Hill
#
# Bulk Modulus (GPa) = 59.32184 71.61847 65.47016
# Shear Modulus (GPa) = 19.59892 7.15366 13.37629
#
# Velocity S-wave (km/s) = 3.18584 1.92474 2.63194
# Velocity P-wave (km/s) = 6.65233 6.48292 6.56817
#
# Compressibility (1/GPa) = 0.01685720
#
# Stress axis : x y z
#
# Youngs Moduli (GPa) = 59.33670 46.99397 112.09588
#
# Poissons Ratio (x) = 0.45694 0.66507
# Poissons Ratio (y) = 0.57696 -0.06261
# Poissons Ratio (z) = 0.35205 -0.02625
#
# Static dielectric constant tensor:
#      x y z
#    x 1.677950 0.000000 0.000000 
#    y 0.000000 1.686010 0.000000 
#    z 0.000000 0.000000 1.674990 
# 
# From -- ./inp_files/38385.got.cif
#   From: 2010.05.17/outbox.cif.g08.bks.cpg/sg69_20_cif.got.tgz:38385.got - 2010.06.03 19:29:58.
