data_PCOD9513735
_publ_section_title
;
Structure prediction by ZEFSAII (Michael W. Deem and Ramdas Pophale) SiO2 
 PCOD9513735
Probable space group: F M M M
;
_chemical_formula_sum "Si O2"
_cell_formula_units_Z 144
_cell_length_a 23.850173
_cell_length_b 17.866897
_cell_length_c 17.308959
_cell_angle_alpha 90.000000
_cell_angle_beta 90.000000
_cell_angle_gamma 90.000000
_cell_volume 7375.842197
_symmetry_space_group_name_H-M "F M M M"
_symmetry_group_IT_number 69
_symmetry_cell_setting 'orthorhombic'
loop_
_space_group_symop_operation_xyz
x,y,z
-x,-y,z
x,-y,-z
-x,y,-z
-x,-y,-z
x,y,-z
-x,y,z
x,-y,z
x,1/2+y,1/2+z
-x,1/2-y,1/2+z
x,1/2-y,1/2-z
-x,1/2+y,1/2-z
-x,1/2-y,1/2-z
x,1/2+y,1/2-z
-x,1/2+y,1/2+z
x,1/2-y,1/2+z
1/2+x,y,1/2+z
1/2-x,-y,1/2+z
1/2+x,-y,1/2-z
1/2-x,y,1/2-z
1/2-x,-y,1/2-z
1/2+x,y,1/2-z
1/2-x,y,1/2+z
1/2+x,-y,1/2+z
1/2+x,1/2+y,z
1/2-x,1/2-y,z
1/2+x,1/2-y,-z
1/2-x,1/2+y,-z
1/2-x,1/2-y,-z
1/2+x,1/2+y,-z
1/2-x,1/2+y,z
1/2+x,1/2-y,z
loop_
_atom_site_type_symbol
_atom_site_label
_atom_site_fract_x
_atom_site_fract_y
_atom_site_fract_z
Si Si1 0.936281 0.336525 0.778880
Si Si2 0.741389 0.086243 0.161165
Si Si3 0.564064 0.089714 0.500000
Si Si4 0.140040 0.139804 0.860696
Si Si5 0.146268 0.690862 0.907766
O O1 0.938738 0.250000 0.750000
O O2 0.890918 0.373193 0.721039
O O3 0.909782 0.337332 0.864109
O O4 0.000000 0.365976 0.774460
O O5 0.750000 0.111836 0.250000
O O6 0.803787 0.092922 0.127322
O O7 0.697443 0.137627 0.116711
O O8 0.722695 0.000000 0.161549
O O9 0.500000 0.114540 0.500000
O O10 0.595028 0.120456 0.425305
O O11 0.566056 0.000000 0.500000
O O12 0.156568 0.226610 0.872351
O O13 0.140821 0.695100 0.000000
#
# Coordination Sequence:
#
# PCOD9513735 Si02
#       5
#    32  32  16  32  32
#     4   9  19  36  60  89 121 158 203 253 305 365
#     4  11  24  41  63  88 120 161 206 256 316 379
#     4  11  24  40  61  96 137 167 199 252 312 372
#     4  11  21  40  64  90 123 164 208 252 312 372
#     4  11  23  39  61  94 125 161 206 260 312 372
#
# _framework density 19.523194
#
# number of rings (size 3 to 8) (size 9 to 14) (size 15 to 20)
#    0.000    1.444    3.333    2.000    1.556    3.556 
#    0.000    0.000    0.000    2.000    0.000    1.556 
#    0.000    0.000    0.000    0.000    0.000    0.000 
#
# Total GULP energy -201064.733707 kJ/mol
# GULP energy per Si atom -5585.131492 kJ/mol
# Density = 1.947876 g / cm^3
# Si number density = 19.523194 Si / 1000 Ang^3
#
#
#
# Elastic Constant Matrix: (Units=GPa)
#
#
# Indices 1 2 3 4 5 6 
#
# 1 117.8250 21.8507 24.1983 0.0000 0.0000 0.0000
# 2 21.8507 42.2046 13.9119 0.0000 0.0000 0.0000
# 3 24.1983 13.9119 93.8561 0.0000 0.0000 0.0000
# 4 0.0000 0.0000 0.0000 18.1919 0.0000 0.0000
# 5 0.0000 0.0000 0.0000 0.0000 47.7072 0.0000
# 6 0.0000 0.0000 0.0000 0.0000 0.0000 -13.4179
#
#
#
# Elastic Compliance Matrix: (Units=1/GPa)
#
#
# Indices 1 2 3 4 5 6 
#
# 1 0.009683 -0.004405 -0.001843 0.000000 0.000000 0.000000
# 2 -0.004405 0.026916 -0.002854 0.000000 0.000000 0.000000
# 3 -0.001843 -0.002854 0.011553 0.000000 0.000000 0.000000
# 4 0.000000 0.000000 0.000000 0.054969 0.000000 0.000000
# 5 0.000000 0.000000 0.000000 0.000000 0.020961 0.000000
# 6 0.000000 0.000000 0.000000 0.000000 0.000000 -0.074527
#
#
# Mechanical properties :
#
#
# Convention : Reuss Voigt Hill
#
# Bulk Modulus (GPa) = 33.39346 41.53416 37.46381
# Shear Modulus (GPa) = 64.31542 23.42457 43.87000
#
# Velocity S-wave (km/s) = 5.74583 3.46762 4.74547
# Velocity P-wave (km/s) = 7.82056 6.11171 7.01834
#
# Compressibility (1/GPa) = 0.02994599
#
# Stress axis : x y z
#
# Youngs Moduli (GPa) = 103.27648 37.15316 86.55837
#
# Poissons Ratio (x) = 0.16367 0.15957
# Poissons Ratio (y) = 0.45498 0.24702
# Poissons Ratio (z) = 0.19038 0.10603
#
# Static dielectric constant tensor:
#      x y z
#    x 1.683420 0.000000 0.000000 
#    y 0.000000 1.678810 0.000000 
#    z 0.000000 0.000000 1.695770 
# 
# From -- ./inp_files/22847.got.cif
#   From: 2010.05.17/outbox.cif.g08.bks.cpg/sg69_12_cif.got.tgz:22847.got - 2010.06.03 19:29:58.
