data_PCOD9513925
_publ_section_title
;
Structure prediction by ZEFSAII (Michael W. Deem and Ramdas Pophale) SiO2 
 PCOD9513925
Probable space group: F M M M
;
_chemical_formula_sum "Si O2"
_cell_formula_units_Z 72
_cell_length_a 5.400001
_cell_length_b 28.126538
_cell_length_c 22.000073
_cell_angle_alpha 90.000000
_cell_angle_beta 90.000000
_cell_angle_gamma 90.000000
_cell_volume 3341.444421
_symmetry_space_group_name_H-M "F M M M"
_symmetry_group_IT_number 69
_symmetry_cell_setting 'orthorhombic'
loop_
_space_group_symop_operation_xyz
x,y,z
-x,-y,z
x,-y,-z
-x,y,-z
-x,-y,-z
x,y,-z
-x,y,z
x,-y,z
x,1/2+y,1/2+z
-x,1/2-y,1/2+z
x,1/2-y,1/2-z
-x,1/2+y,1/2-z
-x,1/2-y,1/2-z
x,1/2+y,1/2-z
-x,1/2+y,1/2+z
x,1/2-y,1/2+z
1/2+x,y,1/2+z
1/2-x,-y,1/2+z
1/2+x,-y,1/2-z
1/2-x,y,1/2-z
1/2-x,-y,1/2-z
1/2+x,y,1/2-z
1/2-x,y,1/2+z
1/2+x,-y,1/2+z
1/2+x,1/2+y,z
1/2-x,1/2-y,z
1/2+x,1/2-y,-z
1/2-x,1/2+y,-z
1/2-x,1/2-y,-z
1/2+x,1/2+y,-z
1/2-x,1/2+y,z
1/2+x,1/2-y,z
loop_
_atom_site_type_symbol
_atom_site_label
_atom_site_fract_x
_atom_site_fract_y
_atom_site_fract_z
Si Si1 0.000000 0.500000 0.209781
Si Si2 0.500000 0.095462 0.131130
Si Si3 0.500000 0.809152 0.789353
Si Si4 0.500000 0.372412 0.927933
Si Si5 0.500000 0.264892 0.901178
O O1 0.750000 0.500000 0.250000
O O2 0.000000 0.453108 0.168332
O O3 0.500000 0.139972 0.177468
O O4 0.249976 0.100877 0.091794
O O5 0.750000 0.805595 0.750000
O O6 0.500000 0.768228 0.840806
O O7 0.500000 0.321339 0.893690
O O8 0.500000 0.363525 0.000000
O O9 0.750000 0.250000 0.933594
#
# Coordination Sequence:
#
# PCOD9513925 Si02
#       5
#     8  16  16  16  16
#     4  12  26  50  79 112 143 180 216 282 360 414
#     4  12  25  49  69 106 136 176 238 288 338 436
#     4  12  24  40  63  94 138 183 218 274 345 409
#     4  12  26  48  71  98 139 188 233 294 346 390
#     4  12  23  43  61 101 135 181 243 277 333 413
#
# _framework density 21.547567000000001
#
# number of rings (size 3 to 8) (size 9 to 14) (size 15 to 20)
#    0.000    0.000    4.444    6.000    0.000    3.556 
#    0.000    3.333    0.000    0.000    0.000    0.000 
#    0.000    0.000    0.000    0.000    0.000    0.000 
#
# Total GULP energy -100827.534542 kJ/mol
# GULP energy per Si atom -5601.529697 kJ/mol
# Density = 2.149852 g / cm^3
# Si number density = 21.547567 Si / 1000 Ang^3
#
#
#
# Elastic Constant Matrix: (Units=GPa)
#
#
# Indices 1 2 3 4 5 6 
#
# 1 249.2966 58.2896 75.2469 0.0000 0.0000 0.0000
# 2 58.2896 164.1526 79.6795 0.0000 0.0000 0.0000
# 3 75.2469 79.6795 151.5644 0.0000 0.0000 0.0000
# 4 0.0000 0.0000 0.0000 -40.4556 0.0000 0.0000
# 5 0.0000 0.0000 0.0000 0.0000 9.0096 0.0000
# 6 0.0000 0.0000 0.0000 0.0000 0.0000 23.6347
#
#
#
# Elastic Compliance Matrix: (Units=1/GPa)
#
#
# Indices 1 2 3 4 5 6 
#
# 1 0.004783 -0.000733 -0.001989 0.000000 0.000000 0.000000
# 2 -0.000733 0.008291 -0.003995 0.000000 0.000000 0.000000
# 3 -0.001989 -0.003995 0.009686 0.000000 0.000000 0.000000
# 4 0.000000 0.000000 0.000000 -0.024718 0.000000 0.000000
# 5 0.000000 0.000000 0.000000 0.000000 0.110993 0.000000
# 6 0.000000 0.000000 0.000000 0.000000 0.000000 0.042311
#
#
# Mechanical properties :
#
#
# Convention : Reuss Voigt Hill
#
# Bulk Modulus (GPa) = 107.23078 110.16064 108.69571
# Shear Modulus (GPa) = 29.78164 21.89092 25.83628
#
# Velocity S-wave (km/s) = 3.72174 3.19083 3.46646
# Velocity P-wave (km/s) = 8.26687 8.05050 8.15940
#
# Compressibility (1/GPa) = 0.00932568
#
# Stress axis : x y z
#
# Youngs Moduli (GPa) = 209.06922 120.60851 103.24397
#
# Poissons Ratio (x) = 0.08838 0.20540
# Poissons Ratio (y) = 0.15320 0.41246
# Poissons Ratio (z) = 0.41593 0.48184
#
# Static dielectric constant tensor:
#      x y z
#    x 1.838150 0.000000 0.000000 
#    y 0.000000 1.726080 0.000000 
#    z 0.000000 0.000000 1.767370 
# 
# From -- ./inp_files/34189.got.cif
#   From: 2010.05.17/outbox.cif.g08.bks.cpg/sg69_18_cif.got.tgz:34189.got - 2010.06.03 19:29:58.
