data_PCOD9513590
_publ_section_title
;
Structure prediction by ZEFSAII (Michael W. Deem and Ramdas Pophale) SiO2 
 PCOD9513590
Probable space group: F M M M
;
_chemical_formula_sum "Si O2"
_cell_formula_units_Z 148
_cell_length_a 28.859307
_cell_length_b 13.864062
_cell_length_c 17.993682
_cell_angle_alpha 90.000000
_cell_angle_beta 90.000000
_cell_angle_gamma 90.000000
_cell_volume 7199.402110
_symmetry_space_group_name_H-M "F M M M"
_symmetry_group_IT_number 69
_symmetry_cell_setting 'orthorhombic'
loop_
_space_group_symop_operation_xyz
x,y,z
-x,-y,z
x,-y,-z
-x,y,-z
-x,-y,-z
x,y,-z
-x,y,z
x,-y,z
x,1/2+y,1/2+z
-x,1/2-y,1/2+z
x,1/2-y,1/2-z
-x,1/2+y,1/2-z
-x,1/2-y,1/2-z
x,1/2+y,1/2-z
-x,1/2+y,1/2+z
x,1/2-y,1/2+z
1/2+x,y,1/2+z
1/2-x,-y,1/2+z
1/2+x,-y,1/2-z
1/2-x,y,1/2-z
1/2-x,-y,1/2-z
1/2+x,y,1/2-z
1/2-x,y,1/2+z
1/2+x,-y,1/2+z
1/2+x,1/2+y,z
1/2-x,1/2-y,z
1/2+x,1/2-y,-z
1/2-x,1/2+y,-z
1/2-x,1/2-y,-z
1/2+x,1/2+y,-z
1/2-x,1/2+y,z
1/2+x,1/2-y,z
loop_
_atom_site_type_symbol
_atom_site_label
_atom_site_fract_x
_atom_site_fract_y
_atom_site_fract_z
Si Si1 0.945972 0.107310 0.410717
Si Si2 0.000000 0.500000 0.500000
Si Si3 0.281850 0.893921 0.090109
Si Si4 0.181671 0.184803 0.089348
Si Si5 0.000000 0.104810 0.843563
Si Si6 0.904574 0.785805 0.170367
O O1 0.943614 0.109550 0.500000
O O2 0.915576 0.191834 0.378485
O O3 0.000000 0.121788 0.390043
O O4 0.931807 0.000000 0.386363
O O5 0.000000 0.582657 0.432643
O O6 0.227727 0.875201 0.108084
O O7 0.308396 0.796469 0.112484
O O8 0.296979 0.000000 0.116777
O O9 0.284912 0.894880 0.000000
O O10 0.134872 0.153170 0.129248
O O11 0.176307 0.181646 0.000000
O O12 0.953245 0.159256 0.822462
O O13 0.000000 0.000000 0.806180
O O14 0.888202 0.750000 0.250000
#
# Coordination Sequence:
#
# PCOD9513590 Si02
#       6
#    32   4  32  32  16  32
#     4   9  19  35  58  82 104 138 189 243 287 330
#     4   8  24  44  64  84 102 152 210 264 284 328
#     4   8  15  33  57  84 111 140 180 236 294 337
#     4   9  19  33  57  85 111 143 188 238 281 340
#     4  10  25  41  59  82 113 154 200 244 290 336
#     4  12  24  38  56  84 120 161 193 233 293 346
#
# _framework density 20.557262999999999
#
# number of rings (size 3 to 8) (size 9 to 14) (size 15 to 20)
#    0.324    2.162    1.081    2.919    3.027    2.595 
#    0.000    4.324    0.000    1.297    0.000    0.000 
#    0.000    0.000    0.000    0.000    0.000    0.000 
#
# Total GULP energy -206189.092921 kJ/mol
# GULP energy per Si atom -5572.678187 kJ/mol
# Density = 2.051047 g / cm^3
# Si number density = 20.557263 Si / 1000 Ang^3
#
#
#
# Elastic Constant Matrix: (Units=GPa)
#
#
# Indices 1 2 3 4 5 6 
#
# 1 77.4248 -5.1384 6.7728 0.0000 0.0000 0.0000
# 2 -5.1384 47.9996 -10.6112 0.0000 0.0000 0.0000
# 3 6.7728 -10.6112 25.2213 0.0000 0.0000 0.0000
# 4 0.0000 0.0000 0.0000 -9.2313 0.0000 0.0000
# 5 0.0000 0.0000 0.0000 0.0000 15.5065 0.0000
# 6 0.0000 0.0000 0.0000 0.0000 0.0000 3.3766
#
#
#
# Elastic Compliance Matrix: (Units=1/GPa)
#
#
# Indices 1 2 3 4 5 6 
#
# 1 0.013248 0.000696 -0.003264 0.000000 0.000000 0.000000
# 2 0.000696 0.023007 0.009492 0.000000 0.000000 0.000000
# 3 -0.003264 0.009492 0.044519 0.000000 0.000000 0.000000
# 4 0.000000 0.000000 0.000000 -0.108327 0.000000 0.000000
# 5 0.000000 0.000000 0.000000 0.000000 0.064489 0.000000
# 6 0.000000 0.000000 0.000000 0.000000 0.000000 0.296160
#
#
# Mechanical properties :
#
#
# Convention : Reuss Voigt Hill
#
# Bulk Modulus (GPa) = 10.56833 14.74357 12.65595
# Shear Modulus (GPa) = 14.25366 12.57185 13.41275
#
# Velocity S-wave (km/s) = 2.63604 2.47564 2.55710
# Velocity P-wave (km/s) = 3.79697 3.91909 3.85851
#
# Compressibility (1/GPa) = 0.09462230
#
# Stress axis : x y z
#
# Youngs Moduli (GPa) = 75.48570 43.46588 22.46219
#
# Poissons Ratio (x) = -0.03027 0.07333
# Poissons Ratio (y) = -0.05258 -0.21322
# Poissons Ratio (z) = 0.24642 -0.41259
#
# Static dielectric constant tensor:
#      x y z
#    x 1.749940 0.000000 0.000000 
#    y 0.000000 1.770440 0.000000 
#    z 0.000000 0.000000 1.587300 
# 
# From -- ./inp_files/27417.got.cif
#   From: 2010.05.17/outbox.cif.g08.bks.cpg/sg69_14_cif.got.tgz:27417.got - 2010.06.03 19:29:58.
