data_PCOD9513265
_publ_section_title
;
Structure prediction by ZEFSAII (Michael W. Deem and Ramdas Pophale) SiO2 
 PCOD9513265
Probable space group: F M M M
;
_chemical_formula_sum "Si O2"
_cell_formula_units_Z 192
_cell_length_a 17.256952
_cell_length_b 18.036103
_cell_length_c 29.464246
_cell_angle_alpha 90.000000
_cell_angle_beta 90.000000
_cell_angle_gamma 90.000000
_cell_volume 9170.692463
_symmetry_space_group_name_H-M "F M M M"
_symmetry_group_IT_number 69
_symmetry_cell_setting 'orthorhombic'
loop_
_space_group_symop_operation_xyz
x,y,z
-x,-y,z
x,-y,-z
-x,y,-z
-x,-y,-z
x,y,-z
-x,y,z
x,-y,z
x,1/2+y,1/2+z
-x,1/2-y,1/2+z
x,1/2-y,1/2-z
-x,1/2+y,1/2-z
-x,1/2-y,1/2-z
x,1/2+y,1/2-z
-x,1/2+y,1/2+z
x,1/2-y,1/2+z
1/2+x,y,1/2+z
1/2-x,-y,1/2+z
1/2+x,-y,1/2-z
1/2-x,y,1/2-z
1/2-x,-y,1/2-z
1/2+x,y,1/2-z
1/2-x,y,1/2+z
1/2+x,-y,1/2+z
1/2+x,1/2+y,z
1/2-x,1/2-y,z
1/2+x,1/2-y,-z
1/2-x,1/2+y,-z
1/2-x,1/2-y,-z
1/2+x,1/2+y,-z
1/2-x,1/2+y,z
1/2+x,1/2-y,z
loop_
_atom_site_type_symbol
_atom_site_label
_atom_site_fract_x
_atom_site_fract_y
_atom_site_fract_z
Si Si1 0.304077 0.364043 0.311214
Si Si2 0.083597 0.235326 0.813324
Si Si3 0.758335 0.585685 0.402011
Si Si4 0.907646 0.235140 0.500000
Si Si5 0.364950 0.584118 0.224664
Si Si6 0.588725 0.325751 0.088677
Si Si7 0.681119 0.415525 0.500000
O O1 0.340838 0.283298 0.300723
O O2 0.295773 0.372831 0.365310
O O3 0.359355 0.413935 0.279444
O O4 0.219237 0.389444 0.294270
O O5 0.084777 0.152487 0.793139
O O6 0.086278 0.226335 0.867432
O O7 0.000000 0.270305 0.801351
O O8 0.754629 0.500000 0.388904
O O9 0.846582 0.613522 0.400392
O O10 0.729931 0.592834 0.453730
O O11 0.883873 0.280083 0.455183
O O12 0.878372 0.151678 0.500000
O O13 0.000000 0.234231 0.500000
O O14 0.382704 0.500000 0.209901
O O15 0.500000 0.353097 0.081218
O O16 0.649341 0.500000 0.500000
#
# Coordination Sequence:
#
# PCOD9513265 Si02
#       7
#    32  32  32  16  32  32  16
#     4  11  22  39  63  88 120 161 207 254 305 366
#     4  11  24  40  61  92 126 162 206 257 314 373
#     4  11  22  39  63  92 126 161 201 254 309 368
#     4  10  21  40  62  86 122 164 207 254 304 370
#     4  11  23  40  63  90 118 158 209 258 309 369
#     4  10  22  38  60  91 123 161 204 248 307 372
#     4  10  23  38  60  94 124 156 205 258 310 366
#
# _framework density 20.936260999999998
#
# number of rings (size 3 to 8) (size 9 to 14) (size 15 to 20)
#    0.000    1.333    1.667    4.500    0.000    6.167 
#    0.000    1.667    0.000    8.000    0.000    0.000 
#    0.000    0.000    0.000    0.000    0.000    0.000 
#
# Total GULP energy -267634.169176 kJ/mol
# GULP energy per Si atom -5575.711858 kJ/mol
# Density = 2.088861 g / cm^3
# Si number density = 20.936261 Si / 1000 Ang^3
#
#
#
# Elastic Constant Matrix: (Units=GPa)
#
#
# Indices 1 2 3 4 5 6 
#
# 1 58.7048 53.2926 18.7600 0.0000 0.0000 0.0000
# 2 53.2926 121.8859 27.4727 0.0000 0.0000 0.0000
# 3 18.7600 27.4727 137.0088 0.0000 0.0000 0.0000
# 4 0.0000 0.0000 0.0000 27.1663 0.0000 0.0000
# 5 0.0000 0.0000 0.0000 0.0000 41.2274 0.0000
# 6 0.0000 0.0000 0.0000 0.0000 0.0000 6.4145
#
#
#
# Elastic Compliance Matrix: (Units=1/GPa)
#
#
# Indices 1 2 3 4 5 6 
#
# 1 0.028526 -0.012141 -0.001472 0.000000 0.000000 0.000000
# 2 -0.012141 0.013760 -0.001097 0.000000 0.000000 0.000000
# 3 -0.001472 -0.001097 0.007720 0.000000 0.000000 0.000000
# 4 0.000000 0.000000 0.000000 0.036810 0.000000 0.000000
# 5 0.000000 0.000000 0.000000 0.000000 0.024256 0.000000
# 6 0.000000 0.000000 0.000000 0.000000 0.000000 0.155898
#
#
# Mechanical properties :
#
#
# Convention : Reuss Voigt Hill
#
# Bulk Modulus (GPa) = 48.57167 57.40556 52.98862
# Shear Modulus (GPa) = 16.48798 29.49991 22.99394
#
# Velocity S-wave (km/s) = 2.80935 3.75778 3.31763
# Velocity P-wave (km/s) = 5.81149 6.80490 6.32772
#
# Compressibility (1/GPa) = 0.02058813
#
# Stress axis : x y z
#
# Youngs Moduli (GPa) = 35.05539 72.67428 129.53035
#
# Poissons Ratio (x) = 0.88234 0.19060
# Poissons Ratio (y) = 0.42561 0.14206
# Poissons Ratio (z) = 0.05158 0.07970
#
# Static dielectric constant tensor:
#      x y z
#    x 1.754480 0.000000 0.000000 
#    y 0.000000 1.745130 0.000000 
#    z 0.000000 0.000000 1.825960 
# 
# From -- ./inp_files/46427.got.cif
#   From: 2010.05.17/outbox.cif.g08.bks.cpg/sg69_24_cif.got.tgz:46427.got - 2010.06.03 19:29:58.
