data_PCOD9513077
_publ_section_title
;
Structure prediction by ZEFSAII (Michael W. Deem and Ramdas Pophale) SiO2 
 PCOD9513077
Probable space group: F M M M
;
_chemical_formula_sum "Si O2"
_cell_formula_units_Z 96
_cell_length_a 11.239648
_cell_length_b 27.511964
_cell_length_c 14.799339
_cell_angle_alpha 90.000000
_cell_angle_beta 90.000000
_cell_angle_gamma 90.000000
_cell_volume 4576.322511
_symmetry_space_group_name_H-M "F M M M"
_symmetry_group_IT_number 69
_symmetry_cell_setting 'orthorhombic'
loop_
_space_group_symop_operation_xyz
x,y,z
-x,-y,z
x,-y,-z
-x,y,-z
-x,-y,-z
x,y,-z
-x,y,z
x,-y,z
x,1/2+y,1/2+z
-x,1/2-y,1/2+z
x,1/2-y,1/2-z
-x,1/2+y,1/2-z
-x,1/2-y,1/2-z
x,1/2+y,1/2-z
-x,1/2+y,1/2+z
x,1/2-y,1/2+z
1/2+x,y,1/2+z
1/2-x,-y,1/2+z
1/2+x,-y,1/2-z
1/2-x,y,1/2-z
1/2-x,-y,1/2-z
1/2+x,y,1/2-z
1/2-x,y,1/2+z
1/2+x,-y,1/2+z
1/2+x,1/2+y,z
1/2-x,1/2-y,z
1/2+x,1/2-y,-z
1/2-x,1/2+y,-z
1/2-x,1/2-y,-z
1/2+x,1/2+y,-z
1/2-x,1/2+y,z
1/2+x,1/2-y,z
loop_
_atom_site_type_symbol
_atom_site_label
_atom_site_fract_x
_atom_site_fract_y
_atom_site_fract_z
Si Si1 0.870994 0.657526 0.188589
Si Si2 0.860442 0.401941 0.500000
Si Si3 0.702748 0.552728 0.649374
Si Si4 0.794676 0.304581 0.000000
O O1 0.750000 0.663802 0.250000
O O2 0.873905 0.601464 0.154919
O O3 0.000000 0.668018 0.233784
O O4 0.860402 0.687441 0.095639
O O5 0.810719 0.431848 0.415089
O O6 0.803569 0.348026 0.500000
O O7 0.000000 0.398742 0.500000
O O8 0.652560 0.500000 0.621422
O O9 0.750000 0.547747 0.750000
O O10 0.750000 0.250000 0.000000
#
# Coordination Sequence:
#
# PCOD9513077 Si02
#       4
#    32  16  32  16
#     4  10  22  41  63  90 125 161 202 252 304 360
#     4  10  21  37  59  87 118 154 202 257 306 359
#     4   9  19  34  54  84 121 159 196 238 293 354
#     4  10  23  42  62  86 117 159 205 254 312 373
#
# _framework density 20.977542
#
# number of rings (size 3 to 8) (size 9 to 14) (size 15 to 20)
#    0.000    2.333    0.000    1.000    0.000   16.000 
#    0.000    8.333    0.000    6.000    0.000    0.000 
#    0.000    0.000    0.000    0.000    0.000    0.000 
#
# Total GULP energy -133613.166925 kJ/mol
# GULP energy per Si atom -5567.215289 kJ/mol
# Density = 2.092980 g / cm^3
# Si number density = 20.977542 Si / 1000 Ang^3
#
#
#
# Elastic Constant Matrix: (Units=GPa)
#
#
# Indices 1 2 3 4 5 6 
#
# 1 168.9414 14.9602 62.9297 0.0000 0.0000 0.0000
# 2 14.9602 137.0419 38.5541 0.0000 0.0000 0.0000
# 3 62.9297 38.5541 99.0062 0.0000 0.0000 0.0000
# 4 0.0000 0.0000 0.0000 26.5195 0.0000 0.0000
# 5 0.0000 0.0000 0.0000 0.0000 11.3539 0.0000
# 6 0.0000 0.0000 0.0000 0.0000 0.0000 -25.1751
#
#
#
# Elastic Compliance Matrix: (Units=1/GPa)
#
#
# Indices 1 2 3 4 5 6 
#
# 1 0.007801 0.000610 -0.005196 0.000000 0.000000 0.000000
# 2 0.000610 0.008243 -0.003598 0.000000 0.000000 0.000000
# 3 -0.005196 -0.003598 0.014804 0.000000 0.000000 0.000000
# 4 0.000000 0.000000 0.000000 0.037708 0.000000 0.000000
# 5 0.000000 0.000000 0.000000 0.000000 0.088076 0.000000
# 6 0.000000 0.000000 0.000000 0.000000 0.000000 -0.039722
#
#
# Mechanical properties :
#
#
# Convention : Reuss Voigt Hill
#
# Bulk Modulus (GPa) = 69.05789 70.87529 69.96659
# Shear Modulus (GPa) = 36.20508 21.77602 28.99055
#
# Velocity S-wave (km/s) = 4.15890 3.22539 3.72153
# Velocity P-wave (km/s) = 7.48688 6.90873 7.20360
#
# Compressibility (1/GPa) = 0.01448060
#
# Stress axis : x y z
#
# Youngs Moduli (GPa) = 128.19573 121.32192 67.55017
#
# Poissons Ratio (x) = -0.07403 0.35097
# Poissons Ratio (y) = -0.07822 0.24302
# Poissons Ratio (z) = 0.66607 0.43646
#
# Static dielectric constant tensor:
#      x y z
#    x 1.754160 0.000000 0.000000 
#    y 0.000000 1.790940 0.000000 
#    z 0.000000 0.000000 1.751800 
# 
# From -- ./inp_files/13295.got.cif
#   From: 2010.05.17/outbox.cif.g08.bks.cpg/sg69_7_cif.got.tgz:13295.got - 2010.06.03 19:29:58.
