data_PCOD9513814
_publ_section_title
;
Structure prediction by ZEFSAII (Michael W. Deem and Ramdas Pophale) SiO2 
 PCOD9513814
Probable space group: F M M M
;
_chemical_formula_sum "Si O2"
_cell_formula_units_Z 128
_cell_length_a 8.453853
_cell_length_b 27.293543
_cell_length_c 26.826421
_cell_angle_alpha 90.000000
_cell_angle_beta 90.000000
_cell_angle_gamma 90.000000
_cell_volume 6189.810355
_symmetry_space_group_name_H-M "F M M M"
_symmetry_group_IT_number 69
_symmetry_cell_setting 'orthorhombic'
loop_
_space_group_symop_operation_xyz
x,y,z
-x,-y,z
x,-y,-z
-x,y,-z
-x,-y,-z
x,y,-z
-x,y,z
x,-y,z
x,1/2+y,1/2+z
-x,1/2-y,1/2+z
x,1/2-y,1/2-z
-x,1/2+y,1/2-z
-x,1/2-y,1/2-z
x,1/2+y,1/2-z
-x,1/2+y,1/2+z
x,1/2-y,1/2+z
1/2+x,y,1/2+z
1/2-x,-y,1/2+z
1/2+x,-y,1/2-z
1/2-x,y,1/2-z
1/2-x,-y,1/2-z
1/2+x,y,1/2-z
1/2-x,y,1/2+z
1/2+x,-y,1/2+z
1/2+x,1/2+y,z
1/2-x,1/2-y,z
1/2+x,1/2-y,-z
1/2-x,1/2+y,-z
1/2-x,1/2-y,-z
1/2+x,1/2+y,-z
1/2-x,1/2+y,z
1/2+x,1/2-y,z
loop_
_atom_site_type_symbol
_atom_site_label
_atom_site_fract_x
_atom_site_fract_y
_atom_site_fract_z
Si Si1 0.181162 0.845012 0.805078
Si Si2 0.000000 0.650427 0.444421
Si Si3 0.250000 0.750000 0.367316
Si Si4 0.313545 0.395064 0.603974
Si Si5 0.500000 0.268793 0.556914
Si Si6 0.189051 0.500000 0.056940
O O1 0.250000 0.839848 0.750000
O O2 0.179384 0.791608 0.831872
O O3 0.290020 0.880842 0.838241
O O4 0.000000 0.862709 0.804276
O O5 0.835843 0.633379 0.420330
O O6 0.000000 0.630752 0.500000
O O7 0.000000 0.709505 0.446100
O O8 0.356800 0.720229 0.406530
O O9 0.500000 0.385485 0.589403
O O10 0.276743 0.450861 0.587797
O O11 0.500000 0.287571 0.500000
O O12 0.000000 0.500000 0.051352
O O13 0.255454 0.500000 0.000000
#
# Coordination Sequence:
#
# PCOD9513814 Si02
#       6
#    32  16  16  32  16  16
#     4  12  26  44  67  96 128 169 226 282 334 392
#     4  11  22  41  63  94 136 173 219 272 321 391
#     4  12  22  42  64  90 130 170 214 274 316 382
#     4  11  22  42  66  97 136 173 216 272 330 388
#     4  11  24  40  59  92 136 173 214 263 320 393
#     4   9  20  39  66 101 135 173 220 263 317 395
#
# _framework density 20.679148000000001
#
# number of rings (size 3 to 8) (size 9 to 14) (size 15 to 20)
#    0.000    0.875    5.000    2.250    3.500    3.000 
#    0.000    1.875    0.000    0.000    0.000    0.000 
#    0.000    0.000    0.000    0.000    0.000    0.000 
#
# Total GULP energy -178416.851857 kJ/mol
# GULP energy per Si atom -5575.526621 kJ/mol
# Density = 2.063208 g / cm^3
# Si number density = 20.679148 Si / 1000 Ang^3
#
#
#
# Elastic Constant Matrix: (Units=GPa)
#
#
# Indices 1 2 3 4 5 6 
#
# 1 138.9007 35.0471 53.2770 0.0000 0.0000 0.0000
# 2 35.0471 108.3591 44.2808 0.0000 0.0000 0.0000
# 3 53.2770 44.2808 178.4532 0.0000 0.0000 0.0000
# 4 0.0000 0.0000 0.0000 20.6405 0.0000 0.0000
# 5 0.0000 0.0000 0.0000 0.0000 28.0036 0.0000
# 6 0.0000 0.0000 0.0000 0.0000 0.0000 18.7893
#
#
#
# Elastic Compliance Matrix: (Units=1/GPa)
#
#
# Indices 1 2 3 4 5 6 
#
# 1 0.008467 -0.001898 -0.002057 0.000000 0.000000 0.000000
# 2 -0.001898 0.010695 -0.002087 0.000000 0.000000 0.000000
# 3 -0.002057 -0.002087 0.006736 0.000000 0.000000 0.000000
# 4 0.000000 0.000000 0.000000 0.048448 0.000000 0.000000
# 5 0.000000 0.000000 0.000000 0.000000 0.035710 0.000000
# 6 0.000000 0.000000 0.000000 0.000000 0.000000 0.053222
#
#
# Mechanical properties :
#
#
# Convention : Reuss Voigt Hill
#
# Bulk Modulus (GPa) = 72.39063 76.76921 74.57992
# Shear Modulus (GPa) = 27.78278 33.02720 30.40499
#
# Velocity S-wave (km/s) = 3.66938 4.00074 3.83864
# Velocity P-wave (km/s) = 7.28251 7.65152 7.46930
#
# Compressibility (1/GPa) = 0.01381394
#
# Stress axis : x y z
#
# Youngs Moduli (GPa) = 118.10209 93.49792 148.46204
#
# Poissons Ratio (x) = 0.17746 0.30537
# Poissons Ratio (y) = 0.22416 0.30988
# Poissons Ratio (z) = 0.24293 0.19516
#
# Static dielectric constant tensor:
#      x y z
#    x 1.833700 0.000000 0.000000 
#    y 0.000000 1.748420 0.000000 
#    z 0.000000 0.000000 1.758340 
# 
# From -- ./inp_files/39707.got.cif
#   From: 2010.05.17/outbox.cif.g08.bks.cpg/sg69_20_cif.got.tgz:39707.got - 2010.06.03 19:29:58.
