data_PCOD9513777
_publ_section_title
;
Structure prediction by ZEFSAII (Michael W. Deem and Ramdas Pophale) SiO2 
 PCOD9513777
Probable space group: F M M M
;
_chemical_formula_sum "Si O2"
_cell_formula_units_Z 168
_cell_length_a 14.481662
_cell_length_b 19.272169
_cell_length_c 31.525881
_cell_angle_alpha 90.000000
_cell_angle_beta 90.000000
_cell_angle_gamma 90.000000
_cell_volume 8798.653887
_symmetry_space_group_name_H-M "F M M M"
_symmetry_group_IT_number 69
_symmetry_cell_setting 'orthorhombic'
loop_
_space_group_symop_operation_xyz
x,y,z
-x,-y,z
x,-y,-z
-x,y,-z
-x,-y,-z
x,y,-z
-x,y,z
x,-y,z
x,1/2+y,1/2+z
-x,1/2-y,1/2+z
x,1/2-y,1/2-z
-x,1/2+y,1/2-z
-x,1/2-y,1/2-z
x,1/2+y,1/2-z
-x,1/2+y,1/2+z
x,1/2-y,1/2+z
1/2+x,y,1/2+z
1/2-x,-y,1/2+z
1/2+x,-y,1/2-z
1/2-x,y,1/2-z
1/2-x,-y,1/2-z
1/2+x,y,1/2-z
1/2-x,y,1/2+z
1/2+x,-y,1/2+z
1/2+x,1/2+y,z
1/2-x,1/2-y,z
1/2+x,1/2-y,-z
1/2-x,1/2+y,-z
1/2-x,1/2-y,-z
1/2+x,1/2+y,-z
1/2-x,1/2+y,z
1/2+x,1/2-y,z
loop_
_atom_site_type_symbol
_atom_site_label
_atom_site_fract_x
_atom_site_fract_y
_atom_site_fract_z
Si Si1 0.612036 0.421490 0.363554
Si Si2 0.654684 0.781537 0.820647
Si Si3 0.612562 0.138545 0.953386
Si Si4 0.110973 0.219173 0.912481
Si Si5 0.500000 0.750000 0.750000
Si Si6 0.887711 0.423819 0.449934
O O1 0.500000 0.412598 0.360590
O O2 0.634726 0.500000 0.351433
O O3 0.656681 0.362085 0.334750
O O4 0.637244 0.407595 0.412778
O O5 0.750000 0.750000 0.805382
O O6 0.632397 0.740858 0.864582
O O7 0.579002 0.769258 0.785438
O O8 0.500000 0.138099 0.954557
O O9 0.641650 0.217419 0.942495
O O10 0.645248 0.116692 0.000000
O O11 0.147624 0.143862 0.925582
O O12 0.000000 0.216686 0.916649
O O13 0.869121 0.416441 0.500000
O O14 0.854755 0.500000 0.435645
O O15 0.000000 0.424513 0.445819
#
# Coordination Sequence:
#
# PCOD9513777 Si02
#       6
#    32  32  32  32   8  32
#     4   9  17  33  57  83 119 162 194 233 289 339
#     4  11  22  38  63  91 113 146 186 233 289 349
#     4   8  13  21  40  75 110 145 195 241 276 320
#     4   9  15  28  47  71 108 148 187 235 284 333
#     4  12  22  44  66  90 114 132 182 238 284 354
#     4   8  13  21  39  70 106 150 199 236 270 315
#
# _framework density 19.093830000000001
#
# number of rings (size 3 to 8) (size 9 to 14) (size 15 to 20)
#    0.000    2.857    1.905    2.571    0.000    2.667 
#    0.000    2.857    0.000   20.000    0.000    0.000 
#    0.000    0.000    0.000    0.000    0.000    0.000 
#
# Total GULP energy -233818.365901 kJ/mol
# GULP energy per Si atom -5567.103950 kJ/mol
# Density = 1.905037 g / cm^3
# Si number density = 19.093830 Si / 1000 Ang^3
#
#
#
# Elastic Constant Matrix: (Units=GPa)
#
#
# Indices 1 2 3 4 5 6 
#
# 1 77.8630 41.2925 23.3012 0.0000 0.0000 0.0000
# 2 41.2925 151.9998 48.6246 0.0000 0.0000 0.0000
# 3 23.3012 48.6246 97.0855 0.0000 0.0000 0.0000
# 4 0.0000 0.0000 0.0000 1.5863 0.0000 0.0000
# 5 0.0000 0.0000 0.0000 0.0000 -168.6564 0.0000
# 6 0.0000 0.0000 0.0000 0.0000 0.0000 10.9705
#
#
#
# Elastic Compliance Matrix: (Units=1/GPa)
#
#
# Indices 1 2 3 4 5 6 
#
# 1 0.015291 -0.003549 -0.001893 0.000000 0.000000 0.000000
# 2 -0.003549 0.008658 -0.003484 0.000000 0.000000 0.000000
# 3 -0.001893 -0.003484 0.012500 0.000000 0.000000 0.000000
# 4 0.000000 0.000000 0.000000 0.630410 0.000000 0.000000
# 5 0.000000 0.000000 0.000000 0.000000 -0.005929 0.000000
# 6 0.000000 0.000000 0.000000 0.000000 0.000000 0.091154
#
#
# Mechanical properties :
#
#
# Convention : Reuss Voigt Hill
#
# Bulk Modulus (GPa) = 53.77183 61.48722 57.62952
# Shear Modulus (GPa) = 6.44219 -16.97127 -5.26454
#
# Velocity S-wave (km/s) = 1.83883 -2.98457 -1.66228
# Velocity P-wave (km/s) = 5.72114 4.51616 5.15398
#
# Compressibility (1/GPa) = 0.01859710
#
# Stress axis : x y z
#
# Youngs Moduli (GPa) = 65.39630 115.50487 80.00241
#
# Poissons Ratio (x) = 0.40988 0.15142
# Poissons Ratio (y) = 0.23207 0.27876
# Poissons Ratio (z) = 0.12378 0.40247
#
# Static dielectric constant tensor:
#      x y z
#    x 1.719530 0.000000 0.000000 
#    y 0.000000 1.677530 0.000000 
#    z 0.000000 0.000000 1.620300 
# 
# From -- ./inp_files/45753.got.cif
#   From: 2010.05.17/outbox.cif.g08.bks.cpg/sg69_23_cif.got.tgz:45753.got - 2010.06.03 19:29:58.
