data_PCOD9513225
_publ_section_title
;
Structure prediction by ZEFSAII (Michael W. Deem and Ramdas Pophale) SiO2 
 PCOD9513225
Probable space group: F M M M
;
_chemical_formula_sum "Si O2"
_cell_formula_units_Z 184
_cell_length_a 25.820222
_cell_length_b 19.189979
_cell_length_c 18.353999
_cell_angle_alpha 90.000000
_cell_angle_beta 90.000000
_cell_angle_gamma 90.000000
_cell_volume 9094.214117
_symmetry_space_group_name_H-M "F M M M"
_symmetry_group_IT_number 69
_symmetry_cell_setting 'orthorhombic'
loop_
_space_group_symop_operation_xyz
x,y,z
-x,-y,z
x,-y,-z
-x,y,-z
-x,-y,-z
x,y,-z
-x,y,z
x,-y,z
x,1/2+y,1/2+z
-x,1/2-y,1/2+z
x,1/2-y,1/2-z
-x,1/2+y,1/2-z
-x,1/2-y,1/2-z
x,1/2+y,1/2-z
-x,1/2+y,1/2+z
x,1/2-y,1/2+z
1/2+x,y,1/2+z
1/2-x,-y,1/2+z
1/2+x,-y,1/2-z
1/2-x,y,1/2-z
1/2-x,-y,1/2-z
1/2+x,y,1/2-z
1/2-x,y,1/2+z
1/2+x,-y,1/2+z
1/2+x,1/2+y,z
1/2-x,1/2-y,z
1/2+x,1/2-y,-z
1/2-x,1/2+y,-z
1/2-x,1/2-y,-z
1/2+x,1/2+y,-z
1/2-x,1/2+y,z
1/2+x,1/2-y,z
loop_
_atom_site_type_symbol
_atom_site_label
_atom_site_fract_x
_atom_site_fract_y
_atom_site_fract_z
Si Si1 0.701166 0.866282 0.419222
Si Si2 0.176736 0.000000 0.500000
Si Si3 0.938201 0.000000 0.080001
Si Si4 0.888325 0.249731 0.917799
Si Si5 0.657570 0.580477 0.230177
Si Si6 0.685549 0.626345 0.383665
Si Si7 0.440268 0.638974 0.174186
O O1 0.698741 0.900946 0.500000
O O2 0.659596 0.804656 0.419202
O O3 0.686144 0.910580 0.347635
O O4 0.759780 0.840913 0.408175
O O5 0.177521 0.060776 0.436171
O O6 0.928082 0.072724 0.120708
O O7 0.000000 0.000000 0.072905
O O8 0.913949 0.000000 0.000000
O O9 0.862325 0.321139 0.892776
O O10 0.929998 0.211549 0.866807
O O11 0.908627 0.256593 0.000000
O O12 0.643056 0.500000 0.238948
O O13 0.690303 0.603752 0.299660
O O14 0.605430 0.627417 0.231552
O O15 0.500000 0.633253 0.197720
#
# Coordination Sequence:
#
# PCOD9513225 Si02
#       7
#    32   8  16  32  32  32  32
#     4  10  22  38  61  90 129 168 206 251 317 379
#     4  12  24  38  66  92 115 168 223 262 318 362
#     4   9  16  29  55  88 119 150 183 225 284 367
#     4  10  21  39  62  92 126 167 206 256 310 379
#     4  11  24  38  59  95 128 165 210 260 308 374
#     4  12  23  41  62  89 123 167 221 266 312 361
#     4  10  21  39  62  90 125 161 197 245 318 383
#
# _framework density 20.232645000000002
#
# number of rings (size 3 to 8) (size 9 to 14) (size 15 to 20)
#    0.000    1.478    3.478    1.565    1.217    6.957 
#    0.000    5.217    0.000    0.000    0.000    2.435 
#    0.000    0.000    0.000    0.000    0.000    0.000 
#
# Total GULP energy -256087.349095 kJ/mol
# GULP energy per Si atom -5567.116285 kJ/mol
# Density = 2.018659 g / cm^3
# Si number density = 20.232645 Si / 1000 Ang^3
#
#
#
# Elastic Constant Matrix: (Units=GPa)
#
#
# Indices 1 2 3 4 5 6 
#
# 1 74.3726 4.6756 21.3616 0.0000 0.0000 0.0000
# 2 4.6756 55.4815 11.0893 0.0000 0.0000 0.0000
# 3 21.3616 11.0893 124.1313 0.0000 0.0000 0.0000
# 4 0.0000 0.0000 0.0000 20.9573 0.0000 0.0000
# 5 0.0000 0.0000 0.0000 0.0000 15.6959 0.0000
# 6 0.0000 0.0000 0.0000 0.0000 0.0000 8.8484
#
#
#
# Elastic Compliance Matrix: (Units=1/GPa)
#
#
# Indices 1 2 3 4 5 6 
#
# 1 0.014173 -0.000720 -0.002375 0.000000 0.000000 0.000000
# 2 -0.000720 0.018388 -0.001519 0.000000 0.000000 0.000000
# 3 -0.002375 -0.001519 0.008600 0.000000 0.000000 0.000000
# 4 0.000000 0.000000 0.000000 0.047716 0.000000 0.000000
# 5 0.000000 0.000000 0.000000 0.000000 0.063711 0.000000
# 6 0.000000 0.000000 0.000000 0.000000 0.000000 0.113015
#
#
# Mechanical properties :
#
#
# Convention : Reuss Voigt Hill
#
# Bulk Modulus (GPa) = 31.31360 36.47094 33.89227
# Shear Modulus (GPa) = 17.51466 23.55758 20.53612
#
# Velocity S-wave (km/s) = 2.94541 3.41594 3.18936
# Velocity P-wave (km/s) = 5.20361 5.79854 5.50912
#
# Compressibility (1/GPa) = 0.03193500
#
# Stress axis : x y z
#
# Youngs Moduli (GPa) = 70.55595 54.38255 116.27448
#
# Poissons Ratio (x) = 0.03914 0.27612
# Poissons Ratio (y) = 0.05078 0.17660
# Poissons Ratio (z) = 0.16755 0.08260
#
# Static dielectric constant tensor:
#      x y z
#    x 1.712080 0.000000 0.000000 
#    y 0.000000 1.705740 0.000000 
#    z 0.000000 0.000000 1.756280 
# 
# From -- ./inp_files/26912.got.cif
#   From: 2010.05.17/outbox.cif.g08.bks.cpg/sg69_14_cif.got.tgz:26912.got - 2010.06.03 19:29:58.
