data_PCOD9513015
_publ_section_title
;
Structure prediction by ZEFSAII (Michael W. Deem and Ramdas Pophale) SiO2 
 PCOD9513015
Probable space group: F M M M
;
_chemical_formula_sum "Si O2"
_cell_formula_units_Z 208
_cell_length_a 23.884530
_cell_length_b 25.194098
_cell_length_c 16.745075
_cell_angle_alpha 90.000000
_cell_angle_beta 90.000000
_cell_angle_gamma 90.000000
_cell_volume 10076.335309
_symmetry_space_group_name_H-M "F M M M"
_symmetry_group_IT_number 69
_symmetry_cell_setting 'orthorhombic'
loop_
_space_group_symop_operation_xyz
x,y,z
-x,-y,z
x,-y,-z
-x,y,-z
-x,-y,-z
x,y,-z
-x,y,z
x,-y,z
x,1/2+y,1/2+z
-x,1/2-y,1/2+z
x,1/2-y,1/2-z
-x,1/2+y,1/2-z
-x,1/2-y,1/2-z
x,1/2+y,1/2-z
-x,1/2+y,1/2+z
x,1/2-y,1/2+z
1/2+x,y,1/2+z
1/2-x,-y,1/2+z
1/2+x,-y,1/2-z
1/2-x,y,1/2-z
1/2-x,-y,1/2-z
1/2+x,y,1/2-z
1/2-x,y,1/2+z
1/2+x,-y,1/2+z
1/2+x,1/2+y,z
1/2-x,1/2-y,z
1/2+x,1/2-y,-z
1/2-x,1/2+y,-z
1/2-x,1/2-y,-z
1/2+x,1/2+y,-z
1/2-x,1/2+y,z
1/2+x,1/2-y,z
loop_
_atom_site_type_symbol
_atom_site_label
_atom_site_fract_x
_atom_site_fract_y
_atom_site_fract_z
Si Si1 0.067713 0.439361 0.000000
Si Si2 0.934589 0.103378 0.672191
Si Si3 0.061977 0.681682 0.405183
Si Si4 0.386394 0.281930 0.668560
Si Si5 0.775148 0.836981 0.667277
Si Si6 0.169182 0.441193 0.753711
Si Si7 0.828965 0.885861 0.093093
O O1 0.083568 0.409830 0.081055
O O2 0.088540 0.500000 0.000000
O O3 0.000000 0.441353 0.000000
O O4 0.921285 0.165003 0.686671
O O5 0.896223 0.067223 0.727730
O O6 0.000000 0.092360 0.680640
O O7 0.058467 0.675247 0.500000
O O8 0.079375 0.741927 0.386496
O O9 0.114182 0.644797 0.381216
O O10 0.000000 0.669797 0.370888
O O11 0.376825 0.250000 0.750000
O O12 0.326181 0.301364 0.636924
O O13 0.750000 0.814393 0.750000
O O14 0.801341 0.893746 0.696593
O O15 0.724379 0.847528 0.607423
O O16 0.186864 0.500000 0.777657
O O17 0.178754 0.431084 0.659769
O O18 0.832276 0.901256 0.000000
#
# Coordination Sequence:
#
# PCOD9513015 Si02
#       7
#    16  32  32  32  32  32  32
#     4   9  18  34  56  82 116 157 202 252 302 355
#     4  10  21  36  58  87 123 164 204 245 297 361
#     4  10  22  38  56  79 113 153 189 230 285 340
#     4  11  22  35  56  87 118 153 198 241 287 349
#     4   9  20  38  58  82 113 151 190 240 293 348
#     4  10  21  38  60  87 118 152 194 245 302 359
#     4  10  22  40  61  86 116 153 198 247 295 352
#
# _framework density 20.642424999999999
#
# number of rings (size 3 to 8) (size 9 to 14) (size 15 to 20)
#    0.000    2.077    0.000    3.692    1.077    9.846 
#    4.154    1.538    0.000    0.000    0.000    3.231 
#    0.000    0.000    0.000    0.000    0.000    0.000 
#
# Total GULP energy -290292.304342 kJ/mol
# GULP energy per Si atom -5582.544314 kJ/mol
# Density = 2.059544 g / cm^3
# Si number density = 20.642425 Si / 1000 Ang^3
#
#
#
# Elastic Constant Matrix: (Units=GPa)
#
#
# Indices 1 2 3 4 5 6 
#
# 1 130.6945 16.3826 18.9788 0.0000 0.0000 0.0000
# 2 16.3826 84.1901 13.3176 0.0000 0.0000 0.0000
# 3 18.9788 13.3176 68.3616 0.0000 0.0000 0.0000
# 4 0.0000 0.0000 0.0000 20.4307 0.0000 0.0000
# 5 0.0000 0.0000 0.0000 0.0000 31.0342 0.0000
# 6 0.0000 0.0000 0.0000 0.0000 0.0000 -5.4674
#
#
#
# Elastic Compliance Matrix: (Units=1/GPa)
#
#
# Indices 1 2 3 4 5 6 
#
# 1 0.008100 -0.001259 -0.002003 0.000000 0.000000 0.000000
# 2 -0.001259 0.012451 -0.002076 0.000000 0.000000 0.000000
# 3 -0.002003 -0.002076 0.015589 0.000000 0.000000 0.000000
# 4 0.000000 0.000000 0.000000 0.048946 0.000000 0.000000
# 5 0.000000 0.000000 0.000000 0.000000 0.032223 0.000000
# 6 0.000000 0.000000 0.000000 0.000000 0.000000 -0.182902
#
#
# Mechanical properties :
#
#
# Convention : Reuss Voigt Hill
#
# Bulk Modulus (GPa) = 39.27322 42.28933 40.78127
# Shear Modulus (GPa) = -107.69285 24.83732 -41.42776
#
# Velocity S-wave (km/s) = -7.23076 3.47251 -4.48473
# Velocity P-wave (km/s) = 7.11654 6.05052 2.64918
#
# Compressibility (1/GPa) = 0.02546264
#
# Stress axis : x y z
#
# Youngs Moduli (GPa) = 123.45344 80.31271 64.14884
#
# Poissons Ratio (x) = 0.10114 0.12852
# Poissons Ratio (y) = 0.15547 0.13318
# Poissons Ratio (z) = 0.24734 0.16673
#
# Static dielectric constant tensor:
#      x y z
#    x 1.784360 0.000000 0.000000 
#    y 0.000000 1.738030 0.000000 
#    z 0.000000 0.000000 1.745770 
# 
# From -- ./inp_files/26109.got.cif
#   From: 2010.05.17/outbox.cif.g08.bks.cpg/sg69_14_cif.got.tgz:26109.got - 2010.06.03 19:29:58.
