data_PCOD9513676
_publ_section_title
;
Structure prediction by ZEFSAII (Michael W. Deem and Ramdas Pophale) SiO2 
 PCOD9513676
Probable space group: F M M M
;
_chemical_formula_sum "Si O2"
_cell_formula_units_Z 152
_cell_length_a 14.128257
_cell_length_b 28.402150
_cell_length_c 26.105143
_cell_angle_alpha 90.000000
_cell_angle_beta 90.000000
_cell_angle_gamma 90.000000
_cell_volume 10475.285772
_symmetry_space_group_name_H-M "F M M M"
_symmetry_group_IT_number 69
_symmetry_cell_setting 'orthorhombic'
loop_
_space_group_symop_operation_xyz
x,y,z
-x,-y,z
x,-y,-z
-x,y,-z
-x,-y,-z
x,y,-z
-x,y,z
x,-y,z
x,1/2+y,1/2+z
-x,1/2-y,1/2+z
x,1/2-y,1/2-z
-x,1/2+y,1/2-z
-x,1/2-y,1/2-z
x,1/2+y,1/2-z
-x,1/2+y,1/2+z
x,1/2-y,1/2+z
1/2+x,y,1/2+z
1/2-x,-y,1/2+z
1/2+x,-y,1/2-z
1/2-x,y,1/2-z
1/2-x,-y,1/2-z
1/2+x,y,1/2-z
1/2-x,y,1/2+z
1/2+x,-y,1/2+z
1/2+x,1/2+y,z
1/2-x,1/2-y,z
1/2+x,1/2-y,-z
1/2-x,1/2+y,-z
1/2-x,1/2-y,-z
1/2+x,1/2+y,-z
1/2-x,1/2+y,z
1/2+x,1/2-y,z
loop_
_atom_site_type_symbol
_atom_site_label
_atom_site_fract_x
_atom_site_fract_y
_atom_site_fract_z
Si Si1 0.210000 0.696317 0.500000
Si Si2 0.305246 0.851939 0.097872
Si Si3 0.500000 0.205273 0.099149
Si Si4 0.388248 0.445709 0.561433
Si Si5 0.500000 0.271995 0.000000
Si Si6 0.712623 0.803387 0.692883
Si Si7 0.500000 0.775261 0.304942
O O1 0.250000 0.750000 0.500000
O O2 0.247744 0.669945 0.449709
O O3 0.096773 0.698967 0.500000
O O4 0.406934 0.826414 0.097528
O O5 0.325324 0.906921 0.089329
O O6 0.254246 0.837874 0.150364
O O7 0.500000 0.236725 0.150083
O O8 0.500000 0.239167 0.050073
O O9 0.378504 0.439126 0.500000
O O10 0.500000 0.438795 0.573126
O O11 0.364612 0.500000 0.573211
O O12 0.750000 0.813978 0.750000
O O13 0.750000 0.750000 0.681161
O O14 0.598818 0.802886 0.691327
O O15 0.500000 0.750000 0.250000
#
# Coordination Sequence:
#
# PCOD9513676 Si02
#       7
#    16  32  16  32   8  32  16
#     4  12  22  32  45  69 101 137 167 199 244 303
#     4  12  20  32  50  74 101 135 167 203 254 307
#     4  12  20  28  49  69 100 136 166 201 245 292
#     4   9  18  32  52  78 105 130 164 213 264 310
#     4  12  24  32  40  66 108 136 168 196 240 298
#     4  11  21  34  49  72 101 138 177 204 243 292
#     4  12  20  34  50  67 100 141 178 214 232 278
#
# _framework density 14.510344
#
# number of rings (size 3 to 8) (size 9 to 14) (size 15 to 20)
#    0.000    0.842    8.421    2.526    0.000    0.000 
#    0.000    0.000    0.000    0.632    0.000    3.684 
#    0.000    0.000    0.000    0.000    0.000    0.000 
#
# Total GULP energy -212176.654230 kJ/mol
# GULP energy per Si atom -5583.596164 kJ/mol
# Density = 1.447732 g / cm^3
# Si number density = 14.510344 Si / 1000 Ang^3
#
#
#
# Elastic Constant Matrix: (Units=GPa)
#
#
# Indices 1 2 3 4 5 6 
#
# 1 140.2000 52.3759 42.3570 0.0000 0.0000 0.0000
# 2 52.3759 105.9454 66.3660 0.0000 0.0000 0.0000
# 3 42.3570 66.3660 101.1844 0.0000 0.0000 0.0000
# 4 0.0000 0.0000 0.0000 20.2154 0.0000 0.0000
# 5 0.0000 0.0000 0.0000 0.0000 22.3843 0.0000
# 6 0.0000 0.0000 0.0000 0.0000 0.0000 222.1630
#
#
#
# Elastic Compliance Matrix: (Units=1/GPa)
#
#
# Indices 1 2 3 4 5 6 
#
# 1 0.008867 -0.003494 -0.001420 0.000000 0.000000 0.000000
# 2 -0.003494 0.017398 -0.009949 0.000000 0.000000 0.000000
# 3 -0.001420 -0.009949 0.017003 0.000000 0.000000 0.000000
# 4 0.000000 0.000000 0.000000 0.049467 0.000000 0.000000
# 5 0.000000 0.000000 0.000000 0.000000 0.044674 0.000000
# 6 0.000000 0.000000 0.000000 0.000000 0.000000 0.004501
#
#
# Mechanical properties :
#
#
# Convention : Reuss Voigt Hill
#
# Bulk Modulus (GPa) = 73.84306 74.39196 74.11751
# Shear Modulus (GPa) = 28.38489 65.36793 46.87641
#
# Velocity S-wave (km/s) = 4.42767 6.71915 5.68996
# Velocity P-wave (km/s) = 8.78291 10.56293 9.71378
#
# Compressibility (1/GPa) = 0.01354223
#
# Stress axis : x y z
#
# Youngs Moduli (GPa) = 112.77778 57.47743 58.81410
#
# Poissons Ratio (x) = 0.20082 0.08353
# Poissons Ratio (y) = 0.39404 0.58512
# Poissons Ratio (z) = 0.16017 0.57183
#
# Static dielectric constant tensor:
#      x y z
#    x 1.490760 0.000000 0.000000 
#    y 0.000000 1.459840 0.000000 
#    z 0.000000 0.000000 1.470720 
# 
# From -- ./inp_files/10615.got.cif
#   From: 2010.05.17/outbox.cif.g08.bks.cpg/sg69_6_cif.got.tgz:10615.got - 2010.06.03 19:29:58.
