data_PCOD9513368
_publ_section_title
;
Structure prediction by ZEFSAII (Michael W. Deem and Ramdas Pophale) SiO2 
 PCOD9513368
Probable space group: F M M M
;
_chemical_formula_sum "Si O2"
_cell_formula_units_Z 176
_cell_length_a 15.783632
_cell_length_b 20.324168
_cell_length_c 25.702144
_cell_angle_alpha 90.000000
_cell_angle_beta 90.000000
_cell_angle_gamma 90.000000
_cell_volume 8244.969914
_symmetry_space_group_name_H-M "F M M M"
_symmetry_group_IT_number 69
_symmetry_cell_setting 'orthorhombic'
loop_
_space_group_symop_operation_xyz
x,y,z
-x,-y,z
x,-y,-z
-x,y,-z
-x,-y,-z
x,y,-z
-x,y,z
x,-y,z
x,1/2+y,1/2+z
-x,1/2-y,1/2+z
x,1/2-y,1/2-z
-x,1/2+y,1/2-z
-x,1/2-y,1/2-z
x,1/2+y,1/2-z
-x,1/2+y,1/2+z
x,1/2-y,1/2+z
1/2+x,y,1/2+z
1/2-x,-y,1/2+z
1/2+x,-y,1/2-z
1/2-x,y,1/2-z
1/2-x,-y,1/2-z
1/2+x,y,1/2-z
1/2-x,y,1/2+z
1/2+x,-y,1/2+z
1/2+x,1/2+y,z
1/2-x,1/2-y,z
1/2+x,1/2-y,-z
1/2-x,1/2+y,-z
1/2-x,1/2-y,-z
1/2+x,1/2+y,-z
1/2-x,1/2+y,z
1/2+x,1/2-y,z
loop_
_atom_site_type_symbol
_atom_site_label
_atom_site_fract_x
_atom_site_fract_y
_atom_site_fract_z
Si Si1 0.902928 0.606314 0.303644
Si Si2 0.149780 0.751591 0.836587
Si Si3 0.755060 0.429519 0.616870
Si Si4 0.095745 0.604527 0.816587
Si Si5 0.000000 0.574676 0.562057
Si Si6 0.654535 0.325666 0.060585
O O1 0.891473 0.685286 0.308996
O O2 0.828884 0.577558 0.339588
O O3 0.890642 0.586821 0.243807
O O4 0.000000 0.589446 0.318777
O O5 0.250000 0.750000 0.823429
O O6 0.107902 0.683344 0.821589
O O7 0.143325 0.767139 0.898426
O O8 0.765850 0.500000 0.590019
O O9 0.666912 0.425647 0.646893
O O10 0.764065 0.367790 0.578356
O O11 0.000000 0.586644 0.830805
O O12 0.919398 0.620940 0.572031
O O13 0.000000 0.500000 0.583391
O O14 0.000000 0.566832 0.500000
O O15 0.654377 0.307826 0.000000
#
# Coordination Sequence:
#
# PCOD9513368 Si02
#       6
#    32  32  32  32  16  32
#     4  10  22  38  61  90 121 157 195 243 304 365
#     4  11  21  37  60  89 120 157 198 247 293 355
#     4  11  24  40  61  90 120 158 205 251 295 355
#     4  11  23  40  60  86 121 163 203 244 297 349
#     4   9  18  34  58  88 119 152 187 231 296 369
#     4  10  22  39  60  89 122 157 194 243 305 363
#
# _framework density 21.346349
#
# number of rings (size 3 to 8) (size 9 to 14) (size 15 to 20)
#    0.000    1.545    3.636    2.182    6.364    5.818 
#    0.000    1.818    0.000    1.636    0.000    1.273 
#    0.000    0.000    0.000    0.000    0.000    0.000 
#
# Total GULP energy -245986.493995 kJ/mol
# GULP energy per Si atom -5590.602136 kJ/mol
# Density = 2.129776 g / cm^3
# Si number density = 21.346349 Si / 1000 Ang^3
#
#
#
# Elastic Constant Matrix: (Units=GPa)
#
#
# Indices 1 2 3 4 5 6 
#
# 1 115.5100 -6.4701 24.3680 0.0000 0.0000 0.0000
# 2 -6.4701 69.5696 -6.0920 0.0000 0.0000 0.0000
# 3 24.3680 -6.0920 84.0722 0.0000 0.0000 0.0000
# 4 0.0000 0.0000 0.0000 3.0693 0.0000 0.0000
# 5 0.0000 0.0000 0.0000 0.0000 24.0038 0.0000
# 6 0.0000 0.0000 0.0000 0.0000 0.0000 -9.1057
#
#
#
# Elastic Compliance Matrix: (Units=1/GPa)
#
#
# Indices 1 2 3 4 5 6 
#
# 1 0.009248 0.000629 -0.002635 0.000000 0.000000 0.000000
# 2 0.000629 0.014509 0.000869 0.000000 0.000000 0.000000
# 3 -0.002635 0.000869 0.012721 0.000000 0.000000 0.000000
# 4 0.000000 0.000000 0.000000 0.325811 0.000000 0.000000
# 5 0.000000 0.000000 0.000000 0.000000 0.041660 0.000000
# 6 0.000000 0.000000 0.000000 0.000000 0.000000 -0.109822
#
#
# Mechanical properties :
#
#
# Convention : Reuss Voigt Hill
#
# Bulk Modulus (GPa) = 29.23558 32.52929 30.88243
# Shear Modulus (GPa) = 16.24417 20.74988 18.49702
#
# Velocity S-wave (km/s) = 2.76158 3.12117 2.94686
# Velocity P-wave (km/s) = 4.88815 5.31609 5.10660
#
# Compressibility (1/GPa) = 0.03420490
#
# Stress axis : x y z
#
# Youngs Moduli (GPa) = 108.12695 68.92409 78.60863
#
# Poissons Ratio (x) = -0.04338 0.20713
# Poissons Ratio (y) = -0.06805 -0.06830
# Poissons Ratio (z) = 0.28491 -0.05989
#
# Static dielectric constant tensor:
#      x y z
#    x 1.797050 0.000000 0.000000 
#    y 0.000000 1.779170 0.000000 
#    z 0.000000 0.000000 1.774750 
# 
# From -- ./inp_files/17902.got.cif
#   From: 2010.05.17/outbox.cif.g08.bks.cpg/sg69_9_cif.got.tgz:17902.got - 2010.06.03 19:29:58.
