data_PCOD9513461
_publ_section_title
;
Structure prediction by ZEFSAII (Michael W. Deem and Ramdas Pophale) SiO2 
 PCOD9513461
Probable space group: F M M M
;
_chemical_formula_sum "Si O2"
_cell_formula_units_Z 128
_cell_length_a 31.451953
_cell_length_b 28.441015
_cell_length_c 7.479039
_cell_angle_alpha 90.000000
_cell_angle_beta 90.000000
_cell_angle_gamma 90.000000
_cell_volume 6690.190855
_symmetry_space_group_name_H-M "F M M M"
_symmetry_group_IT_number 69
_symmetry_cell_setting 'orthorhombic'
loop_
_space_group_symop_operation_xyz
x,y,z
-x,-y,z
x,-y,-z
-x,y,-z
-x,-y,-z
x,y,-z
-x,y,z
x,-y,z
x,1/2+y,1/2+z
-x,1/2-y,1/2+z
x,1/2-y,1/2-z
-x,1/2+y,1/2-z
-x,1/2-y,1/2-z
x,1/2+y,1/2-z
-x,1/2+y,1/2+z
x,1/2-y,1/2+z
1/2+x,y,1/2+z
1/2-x,-y,1/2+z
1/2+x,-y,1/2-z
1/2-x,y,1/2-z
1/2-x,-y,1/2-z
1/2+x,y,1/2-z
1/2-x,y,1/2+z
1/2+x,-y,1/2+z
1/2+x,1/2+y,z
1/2-x,1/2-y,z
1/2+x,1/2-y,-z
1/2-x,1/2+y,-z
1/2-x,1/2-y,-z
1/2+x,1/2+y,-z
1/2-x,1/2+y,z
1/2+x,1/2-y,z
loop_
_atom_site_type_symbol
_atom_site_label
_atom_site_fract_x
_atom_site_fract_y
_atom_site_fract_z
Si Si1 0.177422 0.945534 0.000000
Si Si2 0.048602 0.628895 0.213555
Si Si3 0.425138 0.945553 0.500000
Si Si4 0.297803 0.129266 0.212382
Si Si5 0.625087 0.194930 0.212727
O O1 0.126150 0.943046 0.000000
O O2 0.194338 0.917578 0.827312
O O3 0.190098 0.000000 0.000000
O O4 0.057972 0.582299 0.327143
O O5 0.082755 0.667874 0.274696
O O6 0.000000 0.643938 0.244785
O O7 0.053621 0.620771 0.000000
O O8 0.437821 0.000000 0.500000
O O9 0.250000 0.146099 0.250000
O O10 0.333009 0.167076 0.274493
O O11 0.302524 0.120906 0.000000
O O12 0.625469 0.250000 0.250000
O O13 0.625092 0.190273 0.000000
#
# Coordination Sequence:
#
# PCOD9513461 Si02
#       5
#    16  32  16  32  32
#     4  11  24  41  66  93 125 166 203 254 311 362
#     4  10  22  41  62  89 129 165 203 257 308 362
#     4  11  23  40  67  95 122 165 211 248 306 371
#     4  11  23  42  64  91 127 162 204 256 306 367
#     4  10  23  39  62  90 121 163 208 254 309 366
#
# _framework density 19.132489
#
# number of rings (size 3 to 8) (size 9 to 14) (size 15 to 20)
#    0.000    1.500    3.750    0.375    3.500    3.500 
#    0.000    6.250    0.000    0.000    0.000    0.000 
#    0.000    0.000    0.000    0.000    0.000    0.000 
#
# Total GULP energy -178706.004296 kJ/mol
# GULP energy per Si atom -5584.562634 kJ/mol
# Density = 1.908894 g / cm^3
# Si number density = 19.132489 Si / 1000 Ang^3
#
#
#
# Elastic Constant Matrix: (Units=GPa)
#
#
# Indices 1 2 3 4 5 6 
#
# 1 170.4575 95.2909 41.5366 -0.0014 0.0122 0.0082
# 2 95.2909 176.0236 48.4855 -0.0091 0.0096 -0.0021
# 3 41.5366 48.4855 94.4928 -0.0050 -0.0259 -0.0137
# 4 -0.0014 -0.0091 -0.0050 21.3928 0.0014 -0.0090
# 5 0.0122 0.0096 -0.0259 0.0014 15.4183 -0.0106
# 6 0.0082 -0.0021 -0.0137 -0.0090 -0.0106 4.1876
#
#
#
# Elastic Compliance Matrix: (Units=1/GPa)
#
#
# Indices 1 2 3 4 5 6 
#
# 1 0.008621 -0.004220 -0.001625 -0.000002 -0.000007 -0.000024
# 2 -0.004220 0.008682 -0.002600 0.000003 -0.000006 0.000004
# 3 -0.001625 -0.002600 0.012631 0.000002 0.000024 0.000043
# 4 -0.000002 0.000003 0.000002 0.046745 -0.000004 0.000100
# 5 -0.000007 -0.000006 0.000024 -0.000004 0.064858 0.000164
# 6 -0.000024 0.000004 0.000043 0.000100 0.000164 0.238802
#
#
# Mechanical properties :
#
#
# Convention : Reuss Voigt Hill
#
# Bulk Modulus (GPa) = 76.65299 90.17774 83.41536
# Shear Modulus (GPa) = 12.45096 25.24381 18.84739
#
# Velocity S-wave (km/s) = 2.55380 3.63632 3.14203
# Velocity P-wave (km/s) = 6.98907 8.05395 7.54033
#
# Compressibility (1/GPa) = 0.01304581
#
# Stress axis : x y z
#
# Youngs Moduli (GPa) = 115.99058 115.18731 79.17102
#
# Poissons Ratio (x) = 0.48606 0.12862
# Poissons Ratio (y) = 0.48945 0.20582
# Poissons Ratio (z) = 0.18843 0.29945
#
# Static dielectric constant tensor:
#      x y z
#    x 1.691810 0.000000 -0.000040 
#    y 0.000000 1.633430 0.000100 
#    z -0.000040 0.000100 1.606000 
# 
# From -- ./inp_files/5354.got.cif
#   From: 2010.05.17/outbox.cif.g08.bks.cpg/sg69_3_cif.got.tgz:5354.got - 2010.06.03 19:29:58.
