data_PCOD9513340
_publ_section_title
;
Structure prediction by ZEFSAII (Michael W. Deem and Ramdas Pophale) SiO2 
 PCOD9513340
Probable space group: F M M M
;
_chemical_formula_sum "Si O2"
_cell_formula_units_Z 160
_cell_length_a 22.545264
_cell_length_b 21.887150
_cell_length_c 16.688502
_cell_angle_alpha 90.000000
_cell_angle_beta 90.000000
_cell_angle_gamma 90.000000
_cell_volume 8234.967596
_symmetry_space_group_name_H-M "F M M M"
_symmetry_group_IT_number 69
_symmetry_cell_setting 'orthorhombic'
loop_
_space_group_symop_operation_xyz
x,y,z
-x,-y,z
x,-y,-z
-x,y,-z
-x,-y,-z
x,y,-z
-x,y,z
x,-y,z
x,1/2+y,1/2+z
-x,1/2-y,1/2+z
x,1/2-y,1/2-z
-x,1/2+y,1/2-z
-x,1/2-y,1/2-z
x,1/2+y,1/2-z
-x,1/2+y,1/2+z
x,1/2-y,1/2+z
1/2+x,y,1/2+z
1/2-x,-y,1/2+z
1/2+x,-y,1/2-z
1/2-x,y,1/2-z
1/2-x,-y,1/2-z
1/2+x,y,1/2-z
1/2-x,y,1/2+z
1/2+x,-y,1/2+z
1/2+x,1/2+y,z
1/2-x,1/2-y,z
1/2+x,1/2-y,-z
1/2-x,1/2+y,-z
1/2-x,1/2-y,-z
1/2+x,1/2+y,-z
1/2-x,1/2+y,z
1/2+x,1/2-y,z
loop_
_atom_site_type_symbol
_atom_site_label
_atom_site_fract_x
_atom_site_fract_y
_atom_site_fract_z
Si Si1 0.774525 0.431893 0.905149
Si Si2 0.000000 0.672504 0.593202
Si Si3 0.701218 0.328673 0.181994
Si Si4 0.114854 0.759138 0.594582
Si Si5 0.500000 0.930798 0.270740
Si Si6 0.115498 0.883575 0.689700
O O1 0.751163 0.500000 0.886002
O O2 0.731402 0.378094 0.876103
O O3 0.836562 0.422200 0.859808
O O4 0.783207 0.427596 0.000000
O O5 0.941565 0.714407 0.604775
O O6 0.000000 0.617766 0.656586
O O7 0.000000 0.651847 0.500000
O O8 0.750000 0.314494 0.250000
O O9 0.672441 0.272194 0.134960
O O10 0.648084 0.360786 0.229964
O O11 0.124771 0.768152 0.500000
O O12 0.102164 0.822905 0.638104
O O13 0.557255 0.918708 0.215866
O O14 0.500000 0.000000 0.301046
#
# Coordination Sequence:
#
# PCOD9513340 Si02
#       6
#    32  16  32  32  16  32
#     4  10  22  41  61  85 123 169 213 255 301 356
#     4  10  23  42  65  94 125 159 198 249 309 369
#     4  10  22  37  60  92 123 161 206 254 304 361
#     4  11  22  40  64  93 127 160 201 253 311 368
#     4  12  25  42  66  93 123 161 203 249 303 366
#     4  11  23  39  63  91 124 161 204 252 306 362
#
# _framework density 19.429341000000001
#
# number of rings (size 3 to 8) (size 9 to 14) (size 15 to 20)
#    0.000    1.400    2.000    3.000    0.000   11.000 
#    0.000    6.500    0.000    3.600    0.000    0.000 
#    0.000    0.000    0.000    0.000    0.000    0.000 
#
# Total GULP energy -223659.075292 kJ/mol
# GULP energy per Si atom -5591.476882 kJ/mol
# Density = 1.938512 g / cm^3
# Si number density = 19.429341 Si / 1000 Ang^3
#
#
#
# Elastic Constant Matrix: (Units=GPa)
#
#
# Indices 1 2 3 4 5 6 
#
# 1 71.8131 4.6188 19.7360 0.0000 0.0000 0.0000
# 2 4.6188 90.8404 28.5658 0.0000 0.0000 0.0000
# 3 19.7360 28.5658 81.4582 0.0000 0.0000 0.0000
# 4 0.0000 0.0000 0.0000 30.3584 0.0000 0.0000
# 5 0.0000 0.0000 0.0000 0.0000 25.1106 0.0000
# 6 0.0000 0.0000 0.0000 0.0000 0.0000 6.6112
#
#
#
# Elastic Compliance Matrix: (Units=1/GPa)
#
#
# Indices 1 2 3 4 5 6 
#
# 1 0.014933 0.000425 -0.003767 0.000000 0.000000 0.000000
# 2 0.000425 0.012385 -0.004446 0.000000 0.000000 0.000000
# 3 -0.003767 -0.004446 0.014748 0.000000 0.000000 0.000000
# 4 0.000000 0.000000 0.000000 0.032940 0.000000 0.000000
# 5 0.000000 0.000000 0.000000 0.000000 0.039824 0.000000
# 6 0.000000 0.000000 0.000000 0.000000 0.000000 0.151259
#
#
# Mechanical properties :
#
#
# Convention : Reuss Voigt Hill
#
# Bulk Modulus (GPa) = 37.75012 38.88365 38.31689
# Shear Modulus (GPa) = 17.21201 25.16212 21.18706
#
# Velocity S-wave (km/s) = 2.97960 3.60260 3.30581
# Velocity P-wave (km/s) = 5.59544 6.11238 5.85961
#
# Compressibility (1/GPa) = 0.02648998
#
# Stress axis : x y z
#
# Youngs Moduli (GPa) = 66.96581 80.74389 67.80512
#
# Poissons Ratio (x) = -0.03435 0.25543
# Poissons Ratio (y) = -0.02848 0.30147
# Poissons Ratio (z) = 0.25227 0.35900
#
# Static dielectric constant tensor:
#      x y z
#    x 1.679770 0.000000 0.000000 
#    y 0.000000 1.678940 0.000000 
#    z 0.000000 0.000000 1.650200 
# 
# From -- ./inp_files/24620.got.cif
#   From: 2010.05.17/outbox.cif.g08.bks.cpg/sg69_13_cif.got.tgz:24620.got - 2010.06.03 19:29:58.
