data_PCOD9513385
_publ_section_title
;
Structure prediction by ZEFSAII (Michael W. Deem and Ramdas Pophale) SiO2 
 PCOD9513385
Probable space group: F M M M
;
_chemical_formula_sum "Si O2"
_cell_formula_units_Z 104
_cell_length_a 10.171117
_cell_length_b 13.938119
_cell_length_c 35.782869
_cell_angle_alpha 90.000000
_cell_angle_beta 90.000000
_cell_angle_gamma 90.000000
_cell_volume 5072.802763
_symmetry_space_group_name_H-M "F M M M"
_symmetry_group_IT_number 69
_symmetry_cell_setting 'orthorhombic'
loop_
_space_group_symop_operation_xyz
x,y,z
-x,-y,z
x,-y,-z
-x,y,-z
-x,-y,-z
x,y,-z
-x,y,z
x,-y,z
x,1/2+y,1/2+z
-x,1/2-y,1/2+z
x,1/2-y,1/2-z
-x,1/2+y,1/2-z
-x,1/2-y,1/2-z
x,1/2+y,1/2-z
-x,1/2+y,1/2+z
x,1/2-y,1/2+z
1/2+x,y,1/2+z
1/2-x,-y,1/2+z
1/2+x,-y,1/2-z
1/2-x,y,1/2-z
1/2-x,-y,1/2-z
1/2+x,y,1/2-z
1/2-x,y,1/2+z
1/2+x,-y,1/2+z
1/2+x,1/2+y,z
1/2-x,1/2-y,z
1/2+x,1/2-y,-z
1/2-x,1/2+y,-z
1/2-x,1/2-y,-z
1/2+x,1/2+y,-z
1/2-x,1/2+y,z
1/2+x,1/2-y,z
loop_
_atom_site_type_symbol
_atom_site_label
_atom_site_fract_x
_atom_site_fract_y
_atom_site_fract_z
Si Si1 0.848988 0.116692 0.621976
Si Si2 0.351230 0.112809 0.687488
Si Si3 0.842771 0.615039 0.959811
Si Si4 0.250000 0.750000 0.250000
O O1 0.753331 0.140776 0.655797
O O2 0.796937 0.147460 0.581052
O O3 0.000000 0.149635 0.627476
O O4 0.854007 0.000000 0.621086
O O5 0.500000 0.121199 0.673121
O O6 0.332688 0.180312 0.723160
O O7 0.329719 0.000000 0.697123
O O8 0.825603 0.500000 0.960135
O O9 0.000000 0.632512 0.959737
O O10 0.789399 0.649190 0.000000
#
# Coordination Sequence:
#
# PCOD9513385 Si02
#       4
#    32  32  32   8
#     4   8  14  26  46  72 103 140 177 212 255 308
#     4  10  22  39  58  81 109 139 173 219 272 321
#     4   7   9  15  32  62  98 133 171 212 247 286
#     4  12  24  40  60  80 100 136 182 222 262 326
#
# _framework density 20.501487000000001
#
# number of rings (size 3 to 8) (size 9 to 14) (size 15 to 20)
#    0.000    3.385    0.000    3.692    0.000    2.462 
#    0.000    3.077    0.000    0.923    0.000    7.538 
#    0.000    0.000    0.000    0.000    0.000    0.308 
#
# Total GULP energy -144822.153485 kJ/mol
# GULP energy per Si atom -5570.082826 kJ/mol
# Density = 2.045482 g / cm^3
# Si number density = 20.501487 Si / 1000 Ang^3
#
#
#
# Elastic Constant Matrix: (Units=GPa)
#
#
# Indices 1 2 3 4 5 6 
#
# 1 66.0244 19.3626 68.0411 0.0000 0.0000 0.0000
# 2 19.3626 84.1432 43.0635 0.0000 0.0000 0.0000
# 3 68.0411 43.0635 189.3977 0.0000 0.0000 0.0000
# 4 0.0000 0.0000 0.0000 -51.5211 0.0000 0.0000
# 5 0.0000 0.0000 0.0000 0.0000 -97.4881 0.0000
# 6 0.0000 0.0000 0.0000 0.0000 0.0000 -13.9792
#
#
#
# Elastic Compliance Matrix: (Units=1/GPa)
#
#
# Indices 1 2 3 4 5 6 
#
# 1 0.024168 -0.001265 -0.008395 0.000000 0.000000 0.000000
# 2 -0.001265 0.013516 -0.002619 0.000000 0.000000 0.000000
# 3 -0.008395 -0.002619 0.008891 0.000000 0.000000 0.000000
# 4 0.000000 0.000000 0.000000 -0.019410 0.000000 0.000000
# 5 0.000000 0.000000 0.000000 0.000000 -0.010258 0.000000
# 6 0.000000 0.000000 0.000000 0.000000 0.000000 -0.071535
#
#
# Mechanical properties :
#
#
# Convention : Reuss Voigt Hill
#
# Bulk Modulus (GPa) = 45.41723 66.72218 56.06970
# Shear Modulus (GPa) = -219.96462 -18.65781 -119.31122
#
# Velocity S-wave (km/s) = -10.36942 -3.02001 -7.63693
# Velocity P-wave (km/s) = 11.00751 4.52273 7.09614
#
# Compressibility (1/GPa) = 0.02201808
#
# Stress axis : x y z
#
# Youngs Moduli (GPa) = 41.37693 73.98755 112.47213
#
# Poissons Ratio (x) = 0.09360 0.94417
# Poissons Ratio (y) = 0.05235 0.29452
# Poissons Ratio (z) = 0.34735 0.19374
#
# Static dielectric constant tensor:
#      x y z
#    x 1.690840 0.000000 0.000000 
#    y 0.000000 1.772050 0.000000 
#    z 0.000000 0.000000 1.762300 
# 
# From -- ./inp_files/11930.got.cif
#   From: 2010.05.17/outbox.cif.g08.bks.cpg/sg69_6_cif.got.tgz:11930.got - 2010.06.03 19:29:58.
