data_PCOD9513630
_publ_section_title
;
Structure prediction by ZEFSAII (Michael W. Deem and Ramdas Pophale) SiO2 
 PCOD9513630
Probable space group: F M M M
;
_chemical_formula_sum "Si O2"
_cell_formula_units_Z 128
_cell_length_a 14.369467
_cell_length_b 19.676552
_cell_length_c 26.846027
_cell_angle_alpha 90.000000
_cell_angle_beta 90.000000
_cell_angle_gamma 90.000000
_cell_volume 7590.487678
_symmetry_space_group_name_H-M "F M M M"
_symmetry_group_IT_number 69
_symmetry_cell_setting 'orthorhombic'
loop_
_space_group_symop_operation_xyz
x,y,z
-x,-y,z
x,-y,-z
-x,y,-z
-x,-y,-z
x,y,-z
-x,y,z
x,-y,z
x,1/2+y,1/2+z
-x,1/2-y,1/2+z
x,1/2-y,1/2-z
-x,1/2+y,1/2-z
-x,1/2-y,1/2-z
x,1/2+y,1/2-z
-x,1/2+y,1/2+z
x,1/2-y,1/2+z
1/2+x,y,1/2+z
1/2-x,-y,1/2+z
1/2+x,-y,1/2-z
1/2-x,y,1/2-z
1/2-x,-y,1/2-z
1/2+x,y,1/2-z
1/2-x,y,1/2+z
1/2+x,-y,1/2+z
1/2+x,1/2+y,z
1/2-x,1/2-y,z
1/2+x,1/2-y,-z
1/2-x,1/2+y,-z
1/2-x,1/2-y,-z
1/2+x,1/2+y,-z
1/2-x,1/2+y,z
1/2+x,1/2-y,z
loop_
_atom_site_type_symbol
_atom_site_label
_atom_site_fract_x
_atom_site_fract_y
_atom_site_fract_z
Si Si1 0.112582 0.500000 0.556766
Si Si2 0.602062 0.801389 0.204665
Si Si3 0.750000 0.750000 0.129450
Si Si4 0.644335 0.577849 0.770067
Si Si5 0.888528 0.365933 0.618587
O O1 0.146697 0.500000 0.500000
O O2 0.138493 0.568038 0.586364
O O3 0.000000 0.500000 0.555505
O O4 0.500000 0.781833 0.184909
O O5 0.624035 0.750000 0.250000
O O6 0.681833 0.794366 0.164337
O O7 0.597312 0.875233 0.228825
O O8 0.822064 0.802659 0.104231
O O9 0.612068 0.500000 0.774128
O O10 0.750000 0.576708 0.750000
O O11 0.629934 0.614181 0.823444
O O12 0.000000 0.353516 0.612651
#
# Coordination Sequence:
#
# PCOD9513630 Si02
#       5
#    16  32  16  32  32
#     4   9  20  40  63  84 101 123 168 229 286 328
#     4  11  20  30  45  64 101 148 180 206 242 289
#     4  12  21  34  45  76 108 146 179 210 241 314
#     4  11  20  31  47  71 104 143 180 217 256 300
#     4  11  21  34  56  79 105 143 177 218 271 311
#
# _framework density 16.863211
#
# number of rings (size 3 to 8) (size 9 to 14) (size 15 to 20)
#    0.000    1.125    6.250    1.875    0.000    1.500 
#    0.000    0.625    0.000    0.000    0.000    0.000 
#    0.000    4.000    0.000    0.000    0.000    0.000 
#
# Total GULP energy -178411.499224 kJ/mol
# GULP energy per Si atom -5575.359351 kJ/mol
# Density = 1.682483 g / cm^3
# Si number density = 16.863211 Si / 1000 Ang^3
#
#
#
# Elastic Constant Matrix: (Units=GPa)
#
#
# Indices 1 2 3 4 5 6 
#
# 1 98.1105 36.5696 19.1870 0.0000 0.0000 0.0000
# 2 36.5696 118.0319 22.9950 0.0000 0.0000 0.0000
# 3 19.1870 22.9950 52.2447 0.0000 0.0000 0.0000
# 4 0.0000 0.0000 0.0000 9.0596 0.0000 0.0000
# 5 0.0000 0.0000 0.0000 0.0000 24.7701 0.0000
# 6 0.0000 0.0000 0.0000 0.0000 0.0000 97.1883
#
#
#
# Elastic Compliance Matrix: (Units=1/GPa)
#
#
# Indices 1 2 3 4 5 6 
#
# 1 0.011943 -0.003113 -0.003016 0.000000 0.000000 0.000000
# 2 -0.003113 0.010078 -0.003293 0.000000 0.000000 0.000000
# 3 -0.003016 -0.003293 0.021698 0.000000 0.000000 0.000000
# 4 0.000000 0.000000 0.000000 0.110381 0.000000 0.000000
# 5 0.000000 0.000000 0.000000 0.000000 0.040371 0.000000
# 6 0.000000 0.000000 0.000000 0.000000 0.000000 0.010289
#
#
# Mechanical properties :
#
#
# Convention : Reuss Voigt Hill
#
# Bulk Modulus (GPa) = 40.19968 47.32113 43.76041
# Shear Modulus (GPa) = 21.56158 38.84595 30.20377
#
# Velocity S-wave (km/s) = 3.57965 4.80478 4.23674
# Velocity P-wave (km/s) = 6.40122 7.67489 7.06681
#
# Compressibility (1/GPa) = 0.02487582
#
# Stress axis : x y z
#
# Youngs Moduli (GPa) = 83.73398 99.22471 46.08809
#
# Poissons Ratio (x) = 0.30884 0.13900
# Poissons Ratio (y) = 0.26063 0.15175
# Poissons Ratio (z) = 0.25254 0.32672
#
# Static dielectric constant tensor:
#      x y z
#    x 1.631140 0.000000 0.000000 
#    y 0.000000 1.611210 0.000000 
#    z 0.000000 0.000000 1.535200 
# 
# From -- ./inp_files/19404.got.cif
#   From: 2010.05.17/outbox.cif.g08.bks.cpg/sg69_10_cif.got.tgz:19404.got - 2010.06.03 19:29:58.
