data_PCOD9513379
_publ_section_title
;
Structure prediction by ZEFSAII (Michael W. Deem and Ramdas Pophale) SiO2 
 PCOD9513379
Probable space group: F M M M
;
_chemical_formula_sum "Si O2"
_cell_formula_units_Z 208
_cell_length_a 31.044350
_cell_length_b 18.478134
_cell_length_c 20.064477
_cell_angle_alpha 90.000000
_cell_angle_beta 90.000000
_cell_angle_gamma 90.000000
_cell_volume 11509.819878
_symmetry_space_group_name_H-M "F M M M"
_symmetry_group_IT_number 69
_symmetry_cell_setting 'orthorhombic'
loop_
_space_group_symop_operation_xyz
x,y,z
-x,-y,z
x,-y,-z
-x,y,-z
-x,-y,-z
x,y,-z
-x,y,z
x,-y,z
x,1/2+y,1/2+z
-x,1/2-y,1/2+z
x,1/2-y,1/2-z
-x,1/2+y,1/2-z
-x,1/2-y,1/2-z
x,1/2+y,1/2-z
-x,1/2+y,1/2+z
x,1/2-y,1/2+z
1/2+x,y,1/2+z
1/2-x,-y,1/2+z
1/2+x,-y,1/2-z
1/2-x,y,1/2-z
1/2-x,-y,1/2-z
1/2+x,y,1/2-z
1/2-x,y,1/2+z
1/2+x,-y,1/2+z
1/2+x,1/2+y,z
1/2-x,1/2-y,z
1/2+x,1/2-y,-z
1/2-x,1/2+y,-z
1/2-x,1/2-y,-z
1/2+x,1/2+y,-z
1/2-x,1/2+y,z
1/2+x,1/2-y,z
loop_
_atom_site_type_symbol
_atom_site_label
_atom_site_fract_x
_atom_site_fract_y
_atom_site_fract_z
Si Si1 0.138566 0.691599 0.193434
Si Si2 0.139730 0.805670 0.919953
Si Si3 0.216954 0.913989 0.308933
Si Si4 0.045875 0.799047 0.920259
Si Si5 0.950757 0.646646 0.847174
Si Si6 0.283515 0.084549 0.421168
Si Si7 0.448089 0.500000 0.424952
O O1 0.147910 0.750000 0.250000
O O2 0.144855 0.732919 0.122874
O O3 0.172414 0.627375 0.197585
O O4 0.088977 0.665773 0.200660
O O5 0.091576 0.833302 0.900897
O O6 0.176650 0.863442 0.903966
O O7 0.140738 0.792766 0.000000
O O8 0.250000 0.893916 0.250000
O O9 0.241976 0.896745 0.377409
O O10 0.209971 0.000000 0.305780
O O11 0.047547 0.715450 0.896976
O O12 0.000000 0.829157 0.894726
O O13 0.044613 0.801438 0.000000
O O14 0.937935 0.573465 0.885745
O O15 0.000000 0.638891 0.820418
O O16 0.275143 0.091615 0.500000
O O17 0.294085 0.000000 0.407555
O O18 0.500000 0.500000 0.430117
O O19 0.430201 0.500000 0.500000
#
# Coordination Sequence:
#
# PCOD9513379 Si02
#       7
#    32  32  32  32  32  32  16
#     4  11  23  36  54  79 109 140 182 223 267 319
#     4   9  18  32  52  78 105 135 176 221 268 321
#     4  10  22  39  57  75 101 137 176 217 267 325
#     4   8  13  24  43  68 101 137 171 209 253 305
#     4   9  18  31  49  74 107 143 177 214 258 312
#     4   9  18  34  55  77 103 135 172 218 276 335
#     4   9  16  28  50  80 111 146 185 219 260 317
#
# _framework density 18.071525000000001
#
# number of rings (size 3 to 8) (size 9 to 14) (size 15 to 20)
#    0.000    2.692    0.000    1.385    1.077    5.538 
#    0.000    1.538    0.000    0.462    0.000    3.231 
#    0.000    0.000    0.000    0.000    0.000    0.000 
#
# Total GULP energy -289575.842962 kJ/mol
# GULP energy per Si atom -5568.766211 kJ/mol
# Density = 1.803039 g / cm^3
# Si number density = 18.071525 Si / 1000 Ang^3
#
#
#
# Elastic Constant Matrix: (Units=GPa)
#
#
# Indices 1 2 3 4 5 6 
#
# 1 125.9862 48.8995 32.0887 0.0000 0.0000 0.0000
# 2 48.8995 37.7529 18.0304 0.0000 0.0000 0.0000
# 3 32.0887 18.0304 28.0556 0.0000 0.0000 0.0000
# 4 0.0000 0.0000 0.0000 13.7983 0.0000 0.0000
# 5 0.0000 0.0000 0.0000 0.0000 21.9461 0.0000
# 6 0.0000 0.0000 0.0000 0.0000 0.0000 16.3260
#
#
#
# Elastic Compliance Matrix: (Units=1/GPa)
#
#
# Indices 1 2 3 4 5 6 
#
# 1 0.017028 -0.018403 -0.007650 0.000000 0.000000 0.000000
# 2 -0.018403 0.058107 -0.016295 0.000000 0.000000 0.000000
# 3 -0.007650 -0.016295 0.054865 0.000000 0.000000 0.000000
# 4 0.000000 0.000000 0.000000 0.072472 0.000000 0.000000
# 5 0.000000 0.000000 0.000000 0.000000 0.045566 0.000000
# 6 0.000000 0.000000 0.000000 0.000000 0.000000 0.061252
#
#
# Mechanical properties :
#
#
# Convention : Reuss Voigt Hill
#
# Bulk Modulus (GPa) = 22.07236 43.31467 32.69351
# Shear Modulus (GPa) = 12.22233 16.59914 14.41074
#
# Velocity S-wave (km/s) = 2.60346 3.03400 2.82694
# Velocity P-wave (km/s) = 4.61278 6.02446 5.36525
#
# Compressibility (1/GPa) = 0.04530554
#
# Stress axis : x y z
#
# Youngs Moduli (GPa) = 58.72511 17.20976 18.22656
#
# Poissons Ratio (x) = 0.31671 0.13942
# Poissons Ratio (y) = 1.08071 0.29700
# Poissons Ratio (z) = 0.44922 0.28043
#
# Static dielectric constant tensor:
#      x y z
#    x 1.652320 0.000000 0.000000 
#    y 0.000000 1.602200 0.000000 
#    z 0.000000 0.000000 1.637280 
# 
# From -- ./inp_files/27899.got.cif
#   From: 2010.05.17/outbox.cif.g08.bks.cpg/sg69_14_cif.got.tgz:27899.got - 2010.06.03 19:29:58.
