data_PCOD9513039
_publ_section_title
;
Structure prediction by ZEFSAII (Michael W. Deem and Ramdas Pophale) SiO2 
 PCOD9513039
Probable space group: F M M M
;
_chemical_formula_sum "Si O2"
_cell_formula_units_Z 192
_cell_length_a 14.939192
_cell_length_b 33.960318
_cell_length_c 18.789653
_cell_angle_alpha 90.000000
_cell_angle_beta 90.000000
_cell_angle_gamma 90.000000
_cell_volume 9532.737122
_symmetry_space_group_name_H-M "F M M M"
_symmetry_group_IT_number 69
_symmetry_cell_setting 'orthorhombic'
loop_
_space_group_symop_operation_xyz
x,y,z
-x,-y,z
x,-y,-z
-x,y,-z
-x,-y,-z
x,y,-z
-x,y,z
x,-y,z
x,1/2+y,1/2+z
-x,1/2-y,1/2+z
x,1/2-y,1/2-z
-x,1/2+y,1/2-z
-x,1/2-y,1/2-z
x,1/2+y,1/2-z
-x,1/2+y,1/2+z
x,1/2-y,1/2+z
1/2+x,y,1/2+z
1/2-x,-y,1/2+z
1/2+x,-y,1/2-z
1/2-x,y,1/2-z
1/2-x,-y,1/2-z
1/2+x,y,1/2-z
1/2-x,y,1/2+z
1/2+x,-y,1/2+z
1/2+x,1/2+y,z
1/2-x,1/2-y,z
1/2+x,1/2-y,-z
1/2-x,1/2+y,-z
1/2-x,1/2-y,-z
1/2+x,1/2+y,-z
1/2-x,1/2+y,z
1/2+x,1/2-y,z
loop_
_atom_site_type_symbol
_atom_site_label
_atom_site_fract_x
_atom_site_fract_y
_atom_site_fract_z
Si Si1 0.608932 0.391828 0.000000
Si Si2 0.395690 0.545201 0.369442
Si Si3 0.892480 0.128242 0.697894
Si Si4 0.870495 0.222855 0.918499
Si Si5 0.166628 0.690790 0.081440
Si Si6 0.599241 0.146332 0.351648
Si Si7 0.738677 0.954555 0.000000
O O1 0.635221 0.369282 0.927147
O O2 0.500000 0.396565 0.000000
O O3 0.670917 0.429876 0.000000
O O4 0.500000 0.547428 0.394036
O O5 0.383243 0.500000 0.342756
O O6 0.382009 0.581759 0.316819
O O7 0.325491 0.552153 0.432475
O O8 0.849421 0.156218 0.637576
O O9 0.855961 0.137274 0.776813
O O10 0.000000 0.136712 0.695429
O O11 0.886348 0.268636 0.902556
O O12 0.766830 0.208636 0.917926
O O13 0.909336 0.192846 0.862170
O O14 0.901093 0.216056 0.000000
O O15 0.146881 0.678011 0.000000
O O16 0.500000 0.128173 0.346512
O O17 0.764008 0.000000 0.000000
#
# Coordination Sequence:
#
# PCOD9513039 Si02
#       7
#    16  32  32  32  32  32  16
#     4  10  22  40  61  82 110 150 198 251 295 335
#     4   9  19  37  60  88 123 157 186 226 289 359
#     4  10  22  36  53  84 118 148 189 238 291 349
#     4   9  18  35  56  78 108 149 194 237 283 341
#     4   9  20  35  53  81 114 148 186 232 292 349
#     4  10  21  37  56  79 106 148 200 240 286 342
#     4  10  21  37  62  92 116 148 195 237 284 352
#
# _framework density 20.141120000000001
#
# number of rings (size 3 to 8) (size 9 to 14) (size 15 to 20)
#    0.000    2.500    0.833    1.250    3.500    3.500 
#    0.000    5.833    0.000    5.000    0.000    0.000 
#    0.000    0.000    0.000    0.000    0.000    0.000 
#
# Total GULP energy -267388.514876 kJ/mol
# GULP energy per Si atom -5570.594060 kJ/mol
# Density = 2.009528 g / cm^3
# Si number density = 20.141120 Si / 1000 Ang^3
#
#
#
# Elastic Constant Matrix: (Units=GPa)
#
#
# Indices 1 2 3 4 5 6 
#
# 1 57.3208 39.2682 30.5606 0.0000 0.0000 0.0000
# 2 39.2682 125.3813 88.6037 0.0000 0.0000 0.0000
# 3 30.5606 88.6037 147.6377 0.0000 0.0000 0.0000
# 4 0.0000 0.0000 0.0000 23.3014 0.0000 0.0000
# 5 0.0000 0.0000 0.0000 0.0000 4.4688 0.0000
# 6 0.0000 0.0000 0.0000 0.0000 0.0000 22.5057
#
#
#
# Elastic Compliance Matrix: (Units=1/GPa)
#
#
# Indices 1 2 3 4 5 6 
#
# 1 0.022257 -0.006451 -0.000736 0.000000 0.000000 0.000000
# 2 -0.006451 0.015719 -0.008098 0.000000 0.000000 0.000000
# 3 -0.000736 -0.008098 0.011786 0.000000 0.000000 0.000000
# 4 0.000000 0.000000 0.000000 0.042916 0.000000 0.000000
# 5 0.000000 0.000000 0.000000 0.000000 0.223775 0.000000
# 6 0.000000 0.000000 0.000000 0.000000 0.000000 0.044433
#
#
# Mechanical properties :
#
#
# Convention : Reuss Voigt Hill
#
# Bulk Modulus (GPa) = 52.10479 71.91166 62.00822
# Shear Modulus (GPa) = 12.56746 21.51566 17.04156
#
# Velocity S-wave (km/s) = 2.50065 3.27195 2.91195
# Velocity P-wave (km/s) = 5.85352 7.07500 6.49305
#
# Compressibility (1/GPa) = 0.01919209
#
# Stress axis : x y z
#
# Youngs Moduli (GPa) = 44.92952 63.61814 84.84824
#
# Poissons Ratio (x) = 0.41038 0.06243
# Poissons Ratio (y) = 0.28983 0.68712
# Poissons Ratio (z) = 0.03306 0.51519
#
# Static dielectric constant tensor:
#      x y z
#    x 1.903980 0.000000 0.000000 
#    y 0.000000 1.712530 0.000000 
#    z 0.000000 0.000000 1.707200 
# 
# From -- ./inp_files/23699.got.cif
#   From: 2010.05.17/outbox.cif.g08.bks.cpg/sg69_12_cif.got.tgz:23699.got - 2010.06.03 19:29:58.
