data_PCOD9513828
_publ_section_title
;
Structure prediction by ZEFSAII (Michael W. Deem and Ramdas Pophale) SiO2 
 PCOD9513828
Probable space group: F M M M
;
_chemical_formula_sum "Si O2"
_cell_formula_units_Z 96
_cell_length_a 22.368272
_cell_length_b 22.550611
_cell_length_c 10.079784
_cell_angle_alpha 90.000000
_cell_angle_beta 90.000000
_cell_angle_gamma 90.000000
_cell_volume 5084.426508
_symmetry_space_group_name_H-M "F M M M"
_symmetry_group_IT_number 69
_symmetry_cell_setting 'orthorhombic'
loop_
_space_group_symop_operation_xyz
x,y,z
-x,-y,z
x,-y,-z
-x,y,-z
-x,-y,-z
x,y,-z
-x,y,z
x,-y,z
x,1/2+y,1/2+z
-x,1/2-y,1/2+z
x,1/2-y,1/2-z
-x,1/2+y,1/2-z
-x,1/2-y,1/2-z
x,1/2+y,1/2-z
-x,1/2+y,1/2+z
x,1/2-y,1/2+z
1/2+x,y,1/2+z
1/2-x,-y,1/2+z
1/2+x,-y,1/2-z
1/2-x,y,1/2-z
1/2-x,-y,1/2-z
1/2+x,y,1/2-z
1/2-x,y,1/2+z
1/2+x,-y,1/2+z
1/2+x,1/2+y,z
1/2-x,1/2-y,z
1/2+x,1/2-y,-z
1/2-x,1/2+y,-z
1/2-x,1/2-y,-z
1/2+x,1/2+y,-z
1/2-x,1/2+y,z
1/2+x,1/2-y,z
loop_
_atom_site_type_symbol
_atom_site_label
_atom_site_fract_x
_atom_site_fract_y
_atom_site_fract_z
Si Si1 0.572190 0.000000 0.161094
Si Si2 0.617458 0.627060 0.267795
Si Si3 0.835770 0.187527 0.000000
Si Si4 0.693002 0.674902 0.500000
Si Si5 0.500000 0.803122 0.851229
O O1 0.601551 0.057814 0.227648
O O2 0.500000 0.000000 0.179288
O O3 0.582381 0.000000 0.000000
O O4 0.670333 0.641440 0.369899
O O5 0.558379 0.657948 0.326354
O O6 0.634375 0.657481 0.128634
O O7 0.764367 0.177516 0.000000
O O8 0.837726 0.259462 0.000000
O O9 0.500000 0.750000 0.750000
O O10 0.500000 0.779810 0.000000
#
# Coordination Sequence:
#
# PCOD9513828 Si02
#       5
#    16  32  16  16  16
#     4  11  22  45  68  90 129 182 225 268 328 405
#     4  12  24  42  68  98 129 175 225 267 328 399
#     4  11  26  42  67 100 140 168 214 279 340 385
#     4  11  22  46  69  96 132 182 216 263 332 405
#     4  12  24  39  65  98 132 167 217 280 339 399
#
# _framework density 18.881184000000001
#
# number of rings (size 3 to 8) (size 9 to 14) (size 15 to 20)
#    0.000    0.500    5.000    4.000    2.333    3.333 
#    0.000    5.833    0.000    0.000    0.000    0.000 
#    0.000    0.000    0.000    0.000    0.000    0.000 
#
# Total GULP energy -134192.042561 kJ/mol
# GULP energy per Si atom -5591.335107 kJ/mol
# Density = 1.883821 g / cm^3
# Si number density = 18.881184 Si / 1000 Ang^3
#
#
#
# Elastic Constant Matrix: (Units=GPa)
#
#
# Indices 1 2 3 4 5 6 
#
# 1 76.8529 25.6513 23.5781 0.0000 0.0000 0.0000
# 2 25.6513 143.5674 35.7690 0.0000 0.0000 0.0000
# 3 23.5781 35.7690 135.5706 0.0000 0.0000 0.0000
# 4 0.0000 0.0000 0.0000 16.2817 0.0000 0.0000
# 5 0.0000 0.0000 0.0000 0.0000 24.7953 0.0000
# 6 0.0000 0.0000 0.0000 0.0000 0.0000 20.2499
#
#
#
# Elastic Compliance Matrix: (Units=1/GPa)
#
#
# Indices 1 2 3 4 5 6 
#
# 1 0.014298 -0.002071 -0.001940 0.000000 0.000000 0.000000
# 2 -0.002071 0.007756 -0.001686 0.000000 0.000000 0.000000
# 3 -0.001940 -0.001686 0.008159 0.000000 0.000000 0.000000
# 4 0.000000 0.000000 0.000000 0.061419 0.000000 0.000000
# 5 0.000000 0.000000 0.000000 0.000000 0.040330 0.000000
# 6 0.000000 0.000000 0.000000 0.000000 0.000000 0.049383
#
#
# Mechanical properties :
#
#
# Convention : Reuss Voigt Hill
#
# Bulk Modulus (GPa) = 53.14234 58.44307 55.79270
# Shear Modulus (GPa) = 25.12416 30.33156 27.72786
#
# Velocity S-wave (km/s) = 3.65176 4.01239 3.83632
# Velocity P-wave (km/s) = 6.78139 7.24472 7.01688
#
# Compressibility (1/GPa) = 0.01881739
#
# Stress axis : x y z
#
# Youngs Moduli (GPa) = 69.93750 128.94061 122.57143
#
# Poissons Ratio (x) = 0.26708 0.23782
# Poissons Ratio (y) = 0.14486 0.20665
# Poissons Ratio (z) = 0.13570 0.21739
#
# Static dielectric constant tensor:
#      x y z
#    x 1.648230 0.000000 0.000000 
#    y 0.000000 1.660940 0.000000 
#    z 0.000000 0.000000 1.634800 
# 
# From -- ./inp_files/3499.got.cif
#   From: 2010.05.17/outbox.cif.g08.bks.cpg/sg69_2_cif.got.tgz:3499.got - 2010.06.03 19:29:58.
