data_PCOD9513801
_publ_section_title
;
Structure prediction by ZEFSAII (Michael W. Deem and Ramdas Pophale) SiO2 
 PCOD9513801
Probable space group: F M M M
;
_chemical_formula_sum "Si O2"
_cell_formula_units_Z 136
_cell_length_a 23.574343
_cell_length_b 17.585328
_cell_length_c 16.140776
_cell_angle_alpha 90.000000
_cell_angle_beta 90.000000
_cell_angle_gamma 90.000000
_cell_volume 6691.361323
_symmetry_space_group_name_H-M "F M M M"
_symmetry_group_IT_number 69
_symmetry_cell_setting 'orthorhombic'
loop_
_space_group_symop_operation_xyz
x,y,z
-x,-y,z
x,-y,-z
-x,y,-z
-x,-y,-z
x,y,-z
-x,y,z
x,-y,z
x,1/2+y,1/2+z
-x,1/2-y,1/2+z
x,1/2-y,1/2-z
-x,1/2+y,1/2-z
-x,1/2-y,1/2-z
x,1/2+y,1/2-z
-x,1/2+y,1/2+z
x,1/2-y,1/2+z
1/2+x,y,1/2+z
1/2-x,-y,1/2+z
1/2+x,-y,1/2-z
1/2-x,y,1/2-z
1/2-x,-y,1/2-z
1/2+x,y,1/2-z
1/2-x,y,1/2+z
1/2+x,-y,1/2+z
1/2+x,1/2+y,z
1/2-x,1/2-y,z
1/2+x,1/2-y,-z
1/2-x,1/2+y,-z
1/2-x,1/2-y,-z
1/2+x,1/2+y,-z
1/2-x,1/2+y,z
1/2+x,1/2-y,z
loop_
_atom_site_type_symbol
_atom_site_label
_atom_site_fract_x
_atom_site_fract_y
_atom_site_fract_z
Si Si1 0.758543 0.837222 0.096270
Si Si2 0.408251 0.000000 0.000000
Si Si3 0.131786 0.377325 0.872913
Si Si4 0.563998 0.268994 0.151138
Si Si5 0.866593 0.411806 0.678130
O O1 0.750000 0.750000 0.125611
O O2 0.697681 0.877874 0.101623
O O3 0.805468 0.880824 0.148983
O O4 0.776486 0.834619 0.000000
O O5 0.403876 0.934190 0.071741
O O6 0.107296 0.292668 0.884730
O O7 0.128919 0.401121 0.777041
O O8 0.500000 0.259976 0.120147
O O9 0.563186 0.250000 0.250000
O O10 0.587577 0.353735 0.140140
O O11 0.873735 0.500000 0.656311
#
# Coordination Sequence:
#
# PCOD9513801 Si02
#       5
#    32   8  32  32  32
#     4  11  23  38  61  90 128 168 212 263 320 383
#     4  12  24  40  65  96 136 166 209 276 326 382
#     4  11  22  40  62  91 130 172 211 262 325 384
#     4   9  20  41  65  87 120 168 218 264 316 382
#     4  11  23  37  64 100 126 167 217 260 318 388
#
# _framework density 20.324712000000002
#
# number of rings (size 3 to 8) (size 9 to 14) (size 15 to 20)
#    0.000    1.412    4.706    0.706    1.647    2.824 
#    0.000    1.765    0.000    0.000    0.000    1.647 
#    0.000    0.000    0.000    0.000    0.000    0.000 
#
# Total GULP energy -189472.628712 kJ/mol
# GULP energy per Si atom -5572.724374 kJ/mol
# Density = 2.027845 g / cm^3
# Si number density = 20.324712 Si / 1000 Ang^3
#
#
#
# Elastic Constant Matrix: (Units=GPa)
#
#
# Indices 1 2 3 4 5 6 
#
# 1 87.5642 29.1181 11.3535 0.0000 0.0000 0.0000
# 2 29.1181 164.1437 25.1419 0.0000 0.0000 0.0000
# 3 11.3535 25.1419 60.4620 0.0000 0.0000 0.0000
# 4 0.0000 0.0000 0.0000 31.4894 0.0000 0.0000
# 5 0.0000 0.0000 0.0000 0.0000 -12.8173 0.0000
# 6 0.0000 0.0000 0.0000 0.0000 0.0000 0.7251
#
#
#
# Elastic Compliance Matrix: (Units=1/GPa)
#
#
# Indices 1 2 3 4 5 6 
#
# 1 0.012261 -0.001946 -0.001493 0.000000 0.000000 0.000000
# 2 -0.001946 0.006816 -0.002469 0.000000 0.000000 0.000000
# 3 -0.001493 -0.002469 0.017846 0.000000 0.000000 0.000000
# 4 0.000000 0.000000 0.000000 0.031757 0.000000 0.000000
# 5 0.000000 0.000000 0.000000 0.000000 -0.078019 0.000000
# 6 0.000000 0.000000 0.000000 0.000000 0.000000 1.379077
#
#
# Mechanical properties :
#
#
# Convention : Reuss Voigt Hill
#
# Bulk Modulus (GPa) = 39.82982 49.26632 44.54807
# Shear Modulus (GPa) = 3.59732 20.31654 11.95693
#
# Velocity S-wave (km/s) = 1.33183 3.16507 2.42811
# Velocity P-wave (km/s) = 4.69088 6.13589 5.46139
#
# Compressibility (1/GPa) = 0.02510682
#
# Stress axis : x y z
#
# Youngs Moduli (GPa) = 81.55941 146.72184 56.03426
#
# Poissons Ratio (x) = 0.28557 0.08366
# Poissons Ratio (y) = 0.15874 0.13833
# Poissons Ratio (z) = 0.12177 0.36221
#
# Static dielectric constant tensor:
#      x y z
#    x 1.710590 0.000000 0.000000 
#    y 0.000000 1.708470 0.000000 
#    z 0.000000 0.000000 1.716190 
# 
# From -- ./inp_files/22875.got.cif
#   From: 2010.05.17/outbox.cif.g08.bks.cpg/sg69_12_cif.got.tgz:22875.got - 2010.06.03 19:29:58.
