data_PCOD9513562
_publ_section_title
;
Structure prediction by ZEFSAII (Michael W. Deem and Ramdas Pophale) SiO2 
 PCOD9513562
Probable space group: F M M M
;
_chemical_formula_sum "Si O2"
_cell_formula_units_Z 160
_cell_length_a 25.979364
_cell_length_b 18.632306
_cell_length_c 16.855580
_cell_angle_alpha 90.000000
_cell_angle_beta 90.000000
_cell_angle_gamma 90.000000
_cell_volume 8159.035526
_symmetry_space_group_name_H-M "F M M M"
_symmetry_group_IT_number 69
_symmetry_cell_setting 'orthorhombic'
loop_
_space_group_symop_operation_xyz
x,y,z
-x,-y,z
x,-y,-z
-x,y,-z
-x,-y,-z
x,y,-z
-x,y,z
x,-y,z
x,1/2+y,1/2+z
-x,1/2-y,1/2+z
x,1/2-y,1/2-z
-x,1/2+y,1/2-z
-x,1/2-y,1/2-z
x,1/2+y,1/2-z
-x,1/2+y,1/2+z
x,1/2-y,1/2+z
1/2+x,y,1/2+z
1/2-x,-y,1/2+z
1/2+x,-y,1/2-z
1/2-x,y,1/2-z
1/2-x,-y,1/2-z
1/2+x,y,1/2-z
1/2-x,y,1/2+z
1/2+x,-y,1/2+z
1/2+x,1/2+y,z
1/2-x,1/2-y,z
1/2+x,1/2-y,-z
1/2-x,1/2+y,-z
1/2-x,1/2-y,-z
1/2+x,1/2+y,-z
1/2-x,1/2+y,z
1/2+x,1/2-y,z
loop_
_atom_site_type_symbol
_atom_site_label
_atom_site_fract_x
_atom_site_fract_y
_atom_site_fract_z
Si Si1 0.207404 0.312268 0.337375
Si Si2 0.438638 0.418615 0.171311
Si Si3 0.127267 0.150172 0.303523
Si Si4 0.713490 0.585255 0.409189
Si Si5 0.394578 0.221104 0.411153
O O1 0.250000 0.250000 0.331824
O O2 0.170735 0.325577 0.261166
O O3 0.239396 0.382456 0.359261
O O4 0.166781 0.291895 0.405148
O O5 0.500000 0.415991 0.178710
O O6 0.424157 0.500000 0.146142
O O7 0.411102 0.399883 0.254492
O O8 0.420671 0.354093 0.113718
O O9 0.160162 0.111587 0.371232
O O10 0.097927 0.216930 0.344862
O O11 0.717556 0.610562 0.500000
O O12 0.715415 0.500000 0.407507
O O13 0.409672 0.242096 0.500000
#
# Coordination Sequence:
#
# PCOD9513562 Si02
#       5
#    32  32  32  32  32
#     4  11  22  36  58  86 119 161 206 244 290 348
#     4  10  23  44  67  90 119 157 203 257 314 370
#     4  11  23  38  63  90 118 158 203 256 298 360
#     4  11  24  37  54  85 124 164 203 249 306 363
#     4  11  24  38  61  94 124 160 202 251 308 367
#
# _framework density 19.610161000000002
#
# number of rings (size 3 to 8) (size 9 to 14) (size 15 to 20)
#    0.000    1.200    2.000    4.800    2.800    8.000 
#    0.000    1.000    0.000    1.800    0.000    7.000 
#    0.000    0.000    0.000    0.000    0.000    0.000 
#
# Total GULP energy -223317.230085 kJ/mol
# GULP energy per Si atom -5582.930752 kJ/mol
# Density = 1.956553 g / cm^3
# Si number density = 19.610161 Si / 1000 Ang^3
#
#
#
# Elastic Constant Matrix: (Units=GPa)
#
#
# Indices 1 2 3 4 5 6 
#
# 1 68.1899 31.2317 17.4201 0.0000 0.0000 0.0000
# 2 31.2317 98.2702 39.9788 0.0000 0.0000 0.0000
# 3 17.4201 39.9788 112.5185 0.0000 0.0000 0.0000
# 4 0.0000 0.0000 0.0000 28.5348 0.0000 0.0000
# 5 0.0000 0.0000 0.0000 0.0000 8.5220 0.0000
# 6 0.0000 0.0000 0.0000 0.0000 0.0000 33.2536
#
#
#
# Elastic Compliance Matrix: (Units=1/GPa)
#
#
# Indices 1 2 3 4 5 6 
#
# 1 0.017232 -0.005133 -0.000844 0.000000 0.000000 0.000000
# 2 -0.005133 0.013425 -0.003975 0.000000 0.000000 0.000000
# 3 -0.000844 -0.003975 0.010430 0.000000 0.000000 0.000000
# 4 0.000000 0.000000 0.000000 0.035045 0.000000 0.000000
# 5 0.000000 0.000000 0.000000 0.000000 0.117343 0.000000
# 6 0.000000 0.000000 0.000000 0.000000 0.000000 0.030072
#
#
# Mechanical properties :
#
#
# Convention : Reuss Voigt Hill
#
# Bulk Modulus (GPa) = 47.20944 50.69331 48.95138
# Shear Modulus (GPa) = 19.95915 26.75194 23.35555
#
# Velocity S-wave (km/s) = 3.19375 3.69750 3.45482
# Velocity P-wave (km/s) = 6.14217 6.64344 6.39772
#
# Compressibility (1/GPa) = 0.02118220
#
# Stress axis : x y z
#
# Youngs Moduli (GPa) = 58.03310 74.49011 95.87269
#
# Poissons Ratio (x) = 0.38237 0.08091
# Poissons Ratio (y) = 0.29789 0.38111
# Poissons Ratio (z) = 0.04898 0.29611
#
# Static dielectric constant tensor:
#      x y z
#    x 1.663960 0.000000 0.000000 
#    y 0.000000 1.720770 0.000000 
#    z 0.000000 0.000000 1.738040 
# 
# From -- ./inp_files/26654.got.cif
#   From: 2010.05.17/outbox.cif.g08.bks.cpg/sg69_14_cif.got.tgz:26654.got - 2010.06.03 19:29:58.
