data_PCOD9513106
_publ_section_title
;
Structure prediction by ZEFSAII (Michael W. Deem and Ramdas Pophale) SiO2 
 PCOD9513106
Probable space group: F M M M
;
_chemical_formula_sum "Si O2"
_cell_formula_units_Z 144
_cell_length_a 28.966046
_cell_length_b 27.174988
_cell_length_c 10.205946
_cell_angle_alpha 90.000000
_cell_angle_beta 90.000000
_cell_angle_gamma 90.000000
_cell_volume 8033.630321
_symmetry_space_group_name_H-M "F M M M"
_symmetry_group_IT_number 69
_symmetry_cell_setting 'orthorhombic'
loop_
_space_group_symop_operation_xyz
x,y,z
-x,-y,z
x,-y,-z
-x,y,-z
-x,-y,-z
x,y,-z
-x,y,z
x,-y,z
x,1/2+y,1/2+z
-x,1/2-y,1/2+z
x,1/2-y,1/2-z
-x,1/2+y,1/2-z
-x,1/2-y,1/2-z
x,1/2+y,1/2-z
-x,1/2+y,1/2+z
x,1/2-y,1/2+z
1/2+x,y,1/2+z
1/2-x,-y,1/2+z
1/2+x,-y,1/2-z
1/2-x,y,1/2-z
1/2-x,-y,1/2-z
1/2+x,y,1/2-z
1/2-x,y,1/2+z
1/2+x,-y,1/2+z
1/2+x,1/2+y,z
1/2-x,1/2-y,z
1/2+x,1/2-y,-z
1/2-x,1/2+y,-z
1/2-x,1/2-y,-z
1/2+x,1/2+y,-z
1/2-x,1/2+y,z
1/2+x,1/2-y,z
loop_
_atom_site_type_symbol
_atom_site_label
_atom_site_fract_x
_atom_site_fract_y
_atom_site_fract_z
Si Si1 0.500000 0.705437 0.350705
Si Si2 0.800699 0.557737 0.000000
Si Si3 0.809806 0.058898 0.000000
Si Si4 0.396896 0.798118 0.843296
Si Si5 0.051774 0.559371 0.847156
Si Si6 0.854765 0.103292 0.257475
O O1 0.500000 0.724560 0.500000
O O2 0.500000 0.750000 0.250000
O O3 0.550142 0.681029 0.334460
O O4 0.823926 0.581686 0.125977
O O5 0.811909 0.500000 0.000000
O O6 0.745637 0.563127 0.000000
O O7 0.830787 0.086275 0.125102
O O8 0.820640 0.000000 0.000000
O O9 0.394626 0.750000 0.750000
O O10 0.362795 0.839172 0.786259
O O11 0.388717 0.788860 0.000000
O O12 0.053164 0.500000 0.844262
O O13 0.094316 0.579545 0.765951
O O14 0.000000 0.574308 0.806242
O O15 0.058019 0.574174 0.000000
#
# Coordination Sequence:
#
# PCOD9513106 Si02
#       6
#    16  16  16  32  32  32
#     4   8  16  32  54  84 117 152 200 250 293 342
#     4  11  22  42  68  92 117 152 204 260 307 369
#     4  11  26  42  62  92 125 158 196 256 321 363
#     4  10  21  37  61  89 121 160 204 253 299 351
#     4   9  17  30  53  85 119 155 196 239 288 357
#     4  12  22  38  63  92 120 160 204 247 304 371
#
# _framework density 17.924648000000001
#
# number of rings (size 3 to 8) (size 9 to 14) (size 15 to 20)
#    0.000    1.778    2.222    3.333    3.111    1.778 
#    0.000    0.556    0.000    6.000    0.000    0.000 
#    0.000    0.000    0.000    0.000    0.000    0.000 
#
# Total GULP energy -200838.414609 kJ/mol
# GULP energy per Si atom -5578.844850 kJ/mol
# Density = 1.788385 g / cm^3
# Si number density = 17.924648 Si / 1000 Ang^3
#
#
#
# Elastic Constant Matrix: (Units=GPa)
#
#
# Indices 1 2 3 4 5 6 
#
# 1 92.5353 62.9210 62.7806 -0.0003 -0.0001 0.0002
# 2 62.9210 118.1943 69.8557 -0.0008 0.0005 0.0004
# 3 62.7806 69.8557 144.7524 -0.0028 0.0027 0.0013
# 4 -0.0003 -0.0008 -0.0028 28.0134 0.0013 0.0006
# 5 -0.0001 0.0005 0.0027 0.0013 97.3394 0.0000
# 6 0.0002 0.0004 0.0013 0.0006 0.0000 28.1247
#
#
#
# Elastic Compliance Matrix: (Units=1/GPa)
#
#
# Indices 1 2 3 4 5 6 
#
# 1 0.018972 -0.007326 -0.004693 0.000000 0.000000 0.000000
# 2 -0.007326 0.014666 -0.003900 0.000000 0.000000 0.000000
# 3 -0.004693 -0.003900 0.010826 0.000001 0.000000 0.000000
# 4 0.000000 0.000000 0.000001 0.035697 0.000000 -0.000001
# 5 0.000000 0.000000 0.000000 0.000000 0.010273 0.000000
# 6 0.000000 0.000000 0.000000 -0.000001 0.000000 0.035556
#
#
# Mechanical properties :
#
#
# Convention : Reuss Voigt Hill
#
# Bulk Modulus (GPa) = 79.20528 82.95517 81.08023
# Shear Modulus (GPa) = 30.85709 41.35713 36.10711
#
# Velocity S-wave (km/s) = 4.15358 4.80862 4.49306
# Velocity P-wave (km/s) = 8.20286 8.78697 8.49993
#
# Compressibility (1/GPa) = 0.01262542
#
# Stress axis : x y z
#
# Youngs Moduli (GPa) = 52.70866 68.18564 92.37175
#
# Poissons Ratio (x) = 0.49955 0.43349
# Poissons Ratio (y) = 0.38616 0.36026
# Poissons Ratio (z) = 0.24736 0.26593
#
# Static dielectric constant tensor:
#      x y z
#    x 1.616040 0.000000 0.000000 
#    y 0.000000 1.632640 0.000000 
#    z 0.000000 0.000000 1.608890 
# 
# From -- ./inp_files/5638.got.cif
#   From: 2010.05.17/outbox.cif.g08.bks.cpg/sg69_3_cif.got.tgz:5638.got - 2010.06.03 19:29:58.
