data_PCOD9513428
_publ_section_title
;
Structure prediction by ZEFSAII (Michael W. Deem and Ramdas Pophale) SiO2 
 PCOD9513428
Probable space group: F M M M
;
_chemical_formula_sum "Si O2"
_cell_formula_units_Z 120
_cell_length_a 21.810080
_cell_length_b 19.661049
_cell_length_c 15.775724
_cell_angle_alpha 90.000000
_cell_angle_beta 90.000000
_cell_angle_gamma 90.000000
_cell_volume 6764.773246
_symmetry_space_group_name_H-M "F M M M"
_symmetry_group_IT_number 69
_symmetry_cell_setting 'orthorhombic'
loop_
_space_group_symop_operation_xyz
x,y,z
-x,-y,z
x,-y,-z
-x,y,-z
-x,-y,-z
x,y,-z
-x,y,z
x,-y,z
x,1/2+y,1/2+z
-x,1/2-y,1/2+z
x,1/2-y,1/2-z
-x,1/2+y,1/2-z
-x,1/2-y,1/2-z
x,1/2+y,1/2-z
-x,1/2+y,1/2+z
x,1/2-y,1/2+z
1/2+x,y,1/2+z
1/2-x,-y,1/2+z
1/2+x,-y,1/2-z
1/2-x,y,1/2-z
1/2-x,-y,1/2-z
1/2+x,y,1/2-z
1/2-x,y,1/2+z
1/2+x,-y,1/2+z
1/2+x,1/2+y,z
1/2-x,1/2-y,z
1/2+x,1/2-y,-z
1/2-x,1/2+y,-z
1/2-x,1/2-y,-z
1/2+x,1/2+y,-z
1/2-x,1/2+y,z
1/2+x,1/2-y,z
loop_
_atom_site_type_symbol
_atom_site_label
_atom_site_fract_x
_atom_site_fract_y
_atom_site_fract_z
Si Si1 0.213856 0.000000 0.662658
Si Si2 0.500000 0.418326 0.327293
Si Si3 0.628914 0.885957 0.903828
Si Si4 0.500000 0.081378 0.374255
Si Si5 0.801920 0.500000 0.500000
Si Si6 0.895892 0.624263 0.500000
Si Si7 0.822360 0.235713 0.500000
O O1 0.250000 0.000000 0.750000
O O2 0.170847 0.934079 0.653064
O O3 0.259971 0.000000 0.583296
O O4 0.500000 0.500000 0.344079
O O5 0.560796 0.386246 0.367487
O O6 0.500000 0.408951 0.226144
O O7 0.627149 0.915534 0.000000
O O8 0.658208 0.811951 0.920321
O O9 0.440470 0.113057 0.419478
O O10 0.500000 0.000000 0.391570
O O11 0.844865 0.565861 0.500000
O O12 0.861891 0.696091 0.500000
O O13 0.750000 0.250000 0.500000
#
# Coordination Sequence:
#
# PCOD9513428 Si02
#       7
#    16  16  32  16   8  16  16
#     4  12  24  37  64  98 126 167 226 266 310 383
#     4  11  22  36  65  96 132 152 202 277 323 376
#     4  10  22  41  63  90 126 167 214 257 326 383
#     4  10  22  40  61 101 123 153 215 276 323 371
#     4  12  22  39  66  89 124 162 216 270 320 360
#     4  11  21  40  68  84 121 172 205 262 320 386
#     4  10  23  43  64  85 127 173 215 253 321 399
#
# _framework density 17.738954
#
# number of rings (size 3 to 8) (size 9 to 14) (size 15 to 20)
#    0.800    0.533    4.000    2.400    3.733    2.667 
#    0.000    2.667    0.000    0.000    0.000    0.000 
#    0.000    0.000    0.000    0.000    0.000    0.000 
#
# Total GULP energy -167414.112804 kJ/mol
# GULP energy per Si atom -5580.470427 kJ/mol
# Density = 1.769858 g / cm^3
# Si number density = 17.738954 Si / 1000 Ang^3
#
#
#
# Elastic Constant Matrix: (Units=GPa)
#
#
# Indices 1 2 3 4 5 6 
#
# 1 190.5756 90.5637 68.0903 0.0000 0.0000 0.0000
# 2 90.5637 150.4759 36.6805 0.0000 0.0000 0.0000
# 3 68.0903 36.6805 100.7104 0.0000 0.0000 0.0000
# 4 0.0000 0.0000 0.0000 4.7649 0.0000 0.0000
# 5 0.0000 0.0000 0.0000 0.0000 22.8674 0.0000
# 6 0.0000 0.0000 0.0000 0.0000 0.0000 50.8034
#
#
#
# Elastic Compliance Matrix: (Units=1/GPa)
#
#
# Indices 1 2 3 4 5 6 
#
# 1 0.008850 -0.004245 -0.004437 0.000000 0.000000 0.000000
# 2 -0.004245 0.009329 -0.000528 0.000000 0.000000 0.000000
# 3 -0.004437 -0.000528 0.013122 0.000000 0.000000 0.000000
# 4 0.000000 0.000000 0.000000 0.209868 0.000000 0.000000
# 5 0.000000 0.000000 0.000000 0.000000 0.043730 0.000000
# 6 0.000000 0.000000 0.000000 0.000000 0.000000 0.019684
#
#
# Mechanical properties :
#
#
# Convention : Reuss Voigt Hill
#
# Bulk Modulus (GPa) = 77.63585 92.49231 85.06408
# Shear Modulus (GPa) = 15.27670 32.11565 23.69618
#
# Velocity S-wave (km/s) = 2.93780 4.25957 3.65886
# Velocity P-wave (km/s) = 7.44099 8.74333 8.11832
#
# Compressibility (1/GPa) = 0.01288065
#
# Stress axis : x y z
#
# Youngs Moduli (GPa) = 112.99793 107.19434 76.20867
#
# Poissons Ratio (x) = 0.45499 0.33817
# Poissons Ratio (y) = 0.47962 0.04024
# Poissons Ratio (z) = 0.50141 0.05660
#
# Static dielectric constant tensor:
#      x y z
#    x 1.590170 0.000000 0.000000 
#    y 0.000000 1.599020 0.000000 
#    z 0.000000 0.000000 1.596150 
# 
# From -- ./inp_files/16303.got.cif
#   From: 2010.05.17/outbox.cif.g08.bks.cpg/sg69_9_cif.got.tgz:16303.got - 2010.06.03 19:29:58.
