data_PCOD9513219
_publ_section_title
;
Structure prediction by ZEFSAII (Michael W. Deem and Ramdas Pophale) SiO2 
 PCOD9513219
Probable space group: F M M M
;
_chemical_formula_sum "Si O2"
_cell_formula_units_Z 100
_cell_length_a 26.763841
_cell_length_b 23.365441
_cell_length_c 8.605054
_cell_angle_alpha 90.000000
_cell_angle_beta 90.000000
_cell_angle_gamma 90.000000
_cell_volume 5381.161465
_symmetry_space_group_name_H-M "F M M M"
_symmetry_group_IT_number 69
_symmetry_cell_setting 'orthorhombic'
loop_
_space_group_symop_operation_xyz
x,y,z
-x,-y,z
x,-y,-z
-x,y,-z
-x,-y,-z
x,y,-z
-x,y,z
x,-y,z
x,1/2+y,1/2+z
-x,1/2-y,1/2+z
x,1/2-y,1/2-z
-x,1/2+y,1/2-z
-x,1/2-y,1/2-z
x,1/2+y,1/2-z
-x,1/2+y,1/2+z
x,1/2-y,1/2+z
1/2+x,y,1/2+z
1/2-x,-y,1/2+z
1/2+x,-y,1/2-z
1/2-x,y,1/2-z
1/2-x,-y,1/2-z
1/2+x,y,1/2-z
1/2-x,y,1/2+z
1/2+x,-y,1/2+z
1/2+x,1/2+y,z
1/2-x,1/2-y,z
1/2+x,1/2-y,-z
1/2-x,1/2+y,-z
1/2-x,1/2-y,-z
1/2+x,1/2+y,-z
1/2-x,1/2+y,z
1/2+x,1/2-y,z
loop_
_atom_site_type_symbol
_atom_site_label
_atom_site_fract_x
_atom_site_fract_y
_atom_site_fract_z
Si Si1 0.601717 0.000000 0.827257
Si Si2 0.000000 0.684374 0.186992
Si Si3 0.000000 0.500000 0.000000
Si Si4 0.698279 0.185563 0.814116
Si Si5 0.899430 0.376299 0.685054
O O1 0.609817 0.941785 0.734976
O O2 0.627137 0.000000 0.000000
O O3 0.543450 0.000000 0.868634
O O4 0.000000 0.750000 0.250000
O O5 0.049580 0.650490 0.243443
O O6 0.000000 0.685415 0.000000
O O7 0.697212 0.250000 0.750000
O O8 0.750000 0.158992 0.750000
O O9 0.648310 0.156790 0.751490
O O10 0.699126 0.185559 0.000000
O O11 0.902468 0.370729 0.500000
#
# Coordination Sequence:
#
# PCOD9513219 Si02
#       5
#    16  16   4  32  32
#     4  10  21  39  62  88 117 162 202 250 299 360
#     4  12  25  41  60  88 123 160 201 253 311 369
#     4   8  20  36  62  80 120 148 206 240 292 352
#     4  11  22  40  64  92 124 164 208 258 310 368
#     4  12  24  40  62  91 125 162 206 253 309 371
#
# _framework density 18.583349999999999
#
# number of rings (size 3 to 8) (size 9 to 14) (size 15 to 20)
#    0.480    0.320    0.000   10.560    2.240    0.000 
#    0.000    3.200    0.000    0.000    0.000    0.000 
#    0.000    0.000    0.000    0.000    0.000    0.000 
#
# Total GULP energy -139350.724518 kJ/mol
# GULP energy per Si atom -5574.028981 kJ/mol
# Density = 1.854105 g / cm^3
# Si number density = 18.583350 Si / 1000 Ang^3
#
#
#
# Elastic Constant Matrix: (Units=GPa)
#
#
# Indices 1 2 3 4 5 6 
#
# 1 170.0492 71.0971 78.2314 0.0022 0.0000 0.0002
# 2 71.0971 124.7236 62.9786 0.0015 -0.0002 0.0000
# 3 78.2314 62.9786 225.8560 0.0062 -0.0006 0.0004
# 4 0.0022 0.0015 0.0062 1243.6211 -0.0016 -0.0197
# 5 0.0000 -0.0002 -0.0006 -0.0016 34.4390 -0.0002
# 6 0.0002 0.0000 0.0004 -0.0197 -0.0002 -46.3178
#
#
#
# Elastic Compliance Matrix: (Units=1/GPa)
#
#
# Indices 1 2 3 4 5 6 
#
# 1 0.008313 -0.003823 -0.001813 0.000000 0.000000 0.000000
# 2 -0.003823 0.011090 -0.001768 0.000000 0.000000 0.000000
# 3 -0.001813 -0.001768 0.005549 0.000000 0.000000 0.000000
# 4 0.000000 0.000000 0.000000 0.000804 0.000000 0.000000
# 5 0.000000 0.000000 0.000000 0.000000 0.029037 0.000000
# 6 0.000000 0.000000 0.000000 0.000000 0.000000 -0.021590
#
#
# Mechanical properties :
#
#
# Convention : Reuss Voigt Hill
#
# Bulk Modulus (GPa) = 98.59519 105.02700 101.81110
# Shear Modulus (GPa) = 97.28843 266.90323 182.09583
#
# Velocity S-wave (km/s) = 7.24335 11.99736 9.90966
# Velocity P-wave (km/s) = 11.09620 15.76563 13.63233
#
# Compressibility (1/GPa) = 0.01014248
#
# Stress axis : x y z
#
# Youngs Moduli (GPa) = 120.28706 90.17209 180.22021
#
# Poissons Ratio (x) = 0.34475 0.32683
# Poissons Ratio (y) = 0.45989 0.31864
# Poissons Ratio (z) = 0.21814 0.15943
#
# Static dielectric constant tensor:
#      x y z
#    x 1.630240 0.000000 0.000000 
#    y 0.000000 1.460890 0.000000 
#    z 0.000000 0.000000 1.640980 
# 
# From -- ./inp_files/4353.got.cif
#   From: 2010.05.17/outbox.cif.g08.bks.cpg/sg69_3_cif.got.tgz:4353.got - 2010.06.03 19:29:58.
