data_PCOD9513381
_publ_section_title
;
Structure prediction by ZEFSAII (Michael W. Deem and Ramdas Pophale) SiO2 
 PCOD9513381
Probable space group: F M M M
;
_chemical_formula_sum "Si O2"
_cell_formula_units_Z 192
_cell_length_a 27.886224
_cell_length_b 20.147633
_cell_length_c 19.118804
_cell_angle_alpha 90.000000
_cell_angle_beta 90.000000
_cell_angle_gamma 90.000000
_cell_volume 10741.735738
_symmetry_space_group_name_H-M "F M M M"
_symmetry_group_IT_number 69
_symmetry_cell_setting 'orthorhombic'
loop_
_space_group_symop_operation_xyz
x,y,z
-x,-y,z
x,-y,-z
-x,y,-z
-x,-y,-z
x,y,-z
-x,y,z
x,-y,z
x,1/2+y,1/2+z
-x,1/2-y,1/2+z
x,1/2-y,1/2-z
-x,1/2+y,1/2-z
-x,1/2-y,1/2-z
x,1/2+y,1/2-z
-x,1/2+y,1/2+z
x,1/2-y,1/2+z
1/2+x,y,1/2+z
1/2-x,-y,1/2+z
1/2+x,-y,1/2-z
1/2-x,y,1/2-z
1/2-x,-y,1/2-z
1/2+x,y,1/2-z
1/2-x,y,1/2+z
1/2+x,-y,1/2+z
1/2+x,1/2+y,z
1/2-x,1/2-y,z
1/2+x,1/2-y,-z
1/2-x,1/2+y,-z
1/2-x,1/2-y,-z
1/2+x,1/2+y,-z
1/2-x,1/2+y,z
1/2+x,1/2-y,z
loop_
_atom_site_type_symbol
_atom_site_label
_atom_site_fract_x
_atom_site_fract_y
_atom_site_fract_z
Si Si1 0.367415 0.316629 0.703987
Si Si2 0.196132 0.573381 0.721534
Si Si3 0.052642 0.922609 0.877983
Si Si4 0.194811 0.240446 0.579516
Si Si5 0.658046 0.389987 0.076776
Si Si6 0.444604 0.075712 0.208690
O O1 0.377930 0.250000 0.750000
O O2 0.335403 0.366564 0.750073
O O3 0.336298 0.298506 0.636024
O O4 0.412995 0.362150 0.684212
O O5 0.179245 0.500000 0.744853
O O6 0.250000 0.581127 0.750000
O O7 0.188347 0.576152 0.638284
O O8 0.101218 0.892740 0.907777
O O9 0.056193 0.920581 0.793634
O O10 0.000000 0.894883 0.897922
O O11 0.052977 0.000000 0.898342
O O12 0.194840 0.212407 0.500000
O O13 0.250000 0.250000 0.602170
O O14 0.173036 0.313650 0.576419
O O15 0.667201 0.418470 0.000000
O O16 0.500000 0.082413 0.187068
O O17 0.429046 0.000000 0.189886
#
# Coordination Sequence:
#
# PCOD9513381 Si02
#       6
#    32  32  32  32  32  32
#     4  12  21  33  60  86 109 148 193 243 281 346
#     4  11  23  37  54  82 115 147 191 246 291 341
#     4   9  17  31  51  78 113 150 186 223 270 338
#     4  10  22  39  57  80 113 151 192 239 292 346
#     4  11  21  36  56  81 115 154 189 232 292 353
#     4   9  18  34  56  82 115 151 190 240 295 342
#
# _framework density 17.874206000000001
#
# number of rings (size 3 to 8) (size 9 to 14) (size 15 to 20)
#    0.000    1.667    3.333    3.000    0.000    2.000 
#    0.000    1.667    0.000    4.500    0.000    1.167 
#    0.000    0.000    0.000    0.000    0.000    0.000 
#
# Total GULP energy -267609.103975 kJ/mol
# GULP energy per Si atom -5575.189666 kJ/mol
# Density = 1.783352 g / cm^3
# Si number density = 17.874206 Si / 1000 Ang^3
#
#
#
# Elastic Constant Matrix: (Units=GPa)
#
#
# Indices 1 2 3 4 5 6 
#
# 1 142.2538 57.2986 49.5812 0.0000 0.0000 0.0000
# 2 57.2986 109.5955 28.8801 0.0000 0.0000 0.0000
# 3 49.5812 28.8801 75.7971 0.0000 0.0000 0.0000
# 4 0.0000 0.0000 0.0000 12.9986 0.0000 0.0000
# 5 0.0000 0.0000 0.0000 0.0000 28.1765 0.0000
# 6 0.0000 0.0000 0.0000 0.0000 0.0000 32.0920
#
#
#
# Elastic Compliance Matrix: (Units=1/GPa)
#
#
# Indices 1 2 3 4 5 6 
#
# 1 0.010542 -0.004107 -0.005331 0.000000 0.000000 0.000000
# 2 -0.004107 0.011743 -0.001788 0.000000 0.000000 0.000000
# 3 -0.005331 -0.001788 0.017362 0.000000 0.000000 0.000000
# 4 0.000000 0.000000 0.000000 0.076931 0.000000 0.000000
# 5 0.000000 0.000000 0.000000 0.000000 0.035491 0.000000
# 6 0.000000 0.000000 0.000000 0.000000 0.000000 0.031160
#
#
# Mechanical properties :
#
#
# Convention : Reuss Voigt Hill
#
# Bulk Modulus (GPa) = 58.15686 66.57402 62.36544
# Shear Modulus (GPa) = 23.65060 27.44586 25.54823
#
# Velocity S-wave (km/s) = 3.64149 3.92280 3.78476
# Velocity P-wave (km/s) = 7.09140 7.60556 7.35297
#
# Compressibility (1/GPa) = 0.01719488
#
# Stress axis : x y z
#
# Youngs Moduli (GPa) = 94.85939 85.15972 57.59862
#
# Poissons Ratio (x) = 0.34973 0.30706
# Poissons Ratio (y) = 0.38956 0.10298
# Poissons Ratio (z) = 0.50570 0.15225
#
# Static dielectric constant tensor:
#      x y z
#    x 1.646750 0.000000 0.000000 
#    y 0.000000 1.916650 0.000000 
#    z 0.000000 0.000000 1.636400 
# 
# From -- ./inp_files/33552.got.cif
#   From: 2010.05.17/outbox.cif.g08.bks.cpg/sg69_17_cif.got.tgz:33552.got - 2010.06.03 19:29:58.
