data_PCOD9513209
_publ_section_title
;
Structure prediction by ZEFSAII (Michael W. Deem and Ramdas Pophale) SiO2 
 PCOD9513209
Probable space group: F M M M
;
_chemical_formula_sum "Si O2"
_cell_formula_units_Z 144
_cell_length_a 8.867392
_cell_length_b 32.440908
_cell_length_c 27.431694
_cell_angle_alpha 90.000000
_cell_angle_beta 90.000000
_cell_angle_gamma 90.000000
_cell_volume 7891.172491
_symmetry_space_group_name_H-M "F M M M"
_symmetry_group_IT_number 69
_symmetry_cell_setting 'orthorhombic'
loop_
_space_group_symop_operation_xyz
x,y,z
-x,-y,z
x,-y,-z
-x,y,-z
-x,-y,-z
x,y,-z
-x,y,z
x,-y,z
x,1/2+y,1/2+z
-x,1/2-y,1/2+z
x,1/2-y,1/2-z
-x,1/2+y,1/2-z
-x,1/2-y,1/2-z
x,1/2+y,1/2-z
-x,1/2+y,1/2+z
x,1/2-y,1/2+z
1/2+x,y,1/2+z
1/2-x,-y,1/2+z
1/2+x,-y,1/2-z
1/2-x,y,1/2-z
1/2-x,-y,1/2-z
1/2+x,y,1/2-z
1/2-x,y,1/2+z
1/2+x,-y,1/2+z
1/2+x,1/2+y,z
1/2-x,1/2-y,z
1/2+x,1/2-y,-z
1/2-x,1/2+y,-z
1/2-x,1/2-y,-z
1/2+x,1/2+y,-z
1/2-x,1/2+y,z
1/2+x,1/2-y,z
loop_
_atom_site_type_symbol
_atom_site_label
_atom_site_fract_x
_atom_site_fract_y
_atom_site_fract_z
Si Si1 0.820121 0.293543 0.651988
Si Si2 0.319504 0.874382 0.800963
Si Si3 0.179948 0.500000 0.444024
Si Si4 0.181046 0.329236 0.944145
Si Si5 0.820586 0.082004 0.598712
O O1 0.750000 0.250000 0.666862
O O2 0.752238 0.330601 0.683989
O O3 0.767948 0.303241 0.596472
O O4 0.000000 0.292912 0.655294
O O5 0.500000 0.870110 0.797692
O O6 0.250000 0.888158 0.750000
O O7 0.285751 0.905029 0.845762
O O8 0.234272 0.500000 0.500000
O O9 0.237953 0.458724 0.418364
O O10 0.000000 0.500000 0.443940
O O11 0.215754 0.377424 0.933475
O O12 0.000000 0.324243 0.936559
O O13 0.216550 0.318798 0.000000
O O14 0.000000 0.075421 0.594757
#
# Coordination Sequence:
#
# PCOD9513209 Si02
#       5
#    32  32  16  32  32
#     4  11  22  36  54  78 109 143 181 226 272 320
#     4  10  21  39  61  84 108 138 178 222 272 326
#     4  11  23  35  52  83 118 147 180 223 264 307
#     4   9  18  34  55  78 106 142 183 226 273 326
#     4   9  19  36  57  80 108 142 180 220 264 320
#
# _framework density 18.248238000000001
#
# number of rings (size 3 to 8) (size 9 to 14) (size 15 to 20)
#    0.000    2.111    0.000    5.000    0.000    7.556 
#    0.000    2.778    0.000    0.000    0.000    0.000 
#    0.000    0.000    0.000    0.000    0.000    0.000 
#
# Total GULP energy -201088.056509 kJ/mol
# GULP energy per Si atom -5585.779347 kJ/mol
# Density = 1.820670 g / cm^3
# Si number density = 18.248238 Si / 1000 Ang^3
#
#
#
# Elastic Constant Matrix: (Units=GPa)
#
#
# Indices 1 2 3 4 5 6 
#
# 1 71.3380 43.0100 40.1000 0.0000 0.0000 0.0000
# 2 43.0100 92.6345 19.6306 0.0000 0.0000 0.0000
# 3 40.1000 19.6306 85.8271 0.0000 0.0000 0.0000
# 4 0.0000 0.0000 0.0000 3.7055 0.0000 0.0000
# 5 0.0000 0.0000 0.0000 0.0000 30.0594 0.0000
# 6 0.0000 0.0000 0.0000 0.0000 0.0000 27.9618
#
#
#
# Elastic Compliance Matrix: (Units=1/GPa)
#
#
# Indices 1 2 3 4 5 6 
#
# 1 0.025245 -0.009691 -0.009578 0.000000 0.000000 0.000000
# 2 -0.009691 0.015065 0.001082 0.000000 0.000000 0.000000
# 3 -0.009578 0.001082 0.015879 0.000000 0.000000 0.000000
# 4 0.000000 0.000000 0.000000 0.269867 0.000000 0.000000
# 5 0.000000 0.000000 0.000000 0.000000 0.033267 0.000000
# 6 0.000000 0.000000 0.000000 0.000000 0.000000 0.035763
#
#
# Mechanical properties :
#
#
# Convention : Reuss Voigt Hill
#
# Bulk Modulus (GPa) = 50.46833 50.58677 50.52755
# Shear Modulus (GPa) = 11.41381 22.14928 16.78154
#
# Velocity S-wave (km/s) = 2.50366 3.48771 3.03582
# Velocity P-wave (km/s) = 6.00619 6.63328 6.32751
#
# Compressibility (1/GPa) = 0.01981440
#
# Stress axis : x y z
#
# Youngs Moduli (GPa) = 39.61218 66.37702 62.97651
#
# Poissons Ratio (x) = 0.64328 0.60320
# Poissons Ratio (y) = 0.38389 -0.06815
# Poissons Ratio (z) = 0.37941 -0.07183
#
# Static dielectric constant tensor:
#      x y z
#    x 1.606070 0.000000 0.000000 
#    y 0.000000 1.600140 0.000000 
#    z 0.000000 0.000000 1.629270 
# 
# From -- ./inp_files/44523.got.cif
#   From: 2010.05.17/outbox.cif.g08.bks.cpg/sg69_23_cif.got.tgz:44523.got - 2010.06.03 19:29:58.
