data_PCOD9513458
_publ_section_title
;
Structure prediction by ZEFSAII (Michael W. Deem and Ramdas Pophale) SiO2 
 PCOD9513458
Probable space group: F M M M
;
_chemical_formula_sum "Si O2"
_cell_formula_units_Z 160
_cell_length_a 25.876915
_cell_length_b 18.926842
_cell_length_c 16.365602
_cell_angle_alpha 90.000000
_cell_angle_beta 90.000000
_cell_angle_gamma 90.000000
_cell_volume 8015.352770
_symmetry_space_group_name_H-M "F M M M"
_symmetry_group_IT_number 69
_symmetry_cell_setting 'orthorhombic'
loop_
_space_group_symop_operation_xyz
x,y,z
-x,-y,z
x,-y,-z
-x,y,-z
-x,-y,-z
x,y,-z
-x,y,z
x,-y,z
x,1/2+y,1/2+z
-x,1/2-y,1/2+z
x,1/2-y,1/2-z
-x,1/2+y,1/2-z
-x,1/2-y,1/2-z
x,1/2+y,1/2-z
-x,1/2+y,1/2+z
x,1/2-y,1/2+z
1/2+x,y,1/2+z
1/2-x,-y,1/2+z
1/2+x,-y,1/2-z
1/2-x,y,1/2-z
1/2-x,-y,1/2-z
1/2+x,y,1/2-z
1/2-x,y,1/2+z
1/2+x,-y,1/2+z
1/2+x,1/2+y,z
1/2-x,1/2-y,z
1/2+x,1/2-y,-z
1/2-x,1/2+y,-z
1/2-x,1/2-y,-z
1/2+x,1/2+y,-z
1/2-x,1/2+y,z
1/2+x,1/2-y,z
loop_
_atom_site_type_symbol
_atom_site_label
_atom_site_fract_x
_atom_site_fract_y
_atom_site_fract_z
Si Si1 0.791510 0.086241 0.500000
Si Si2 0.587391 0.584316 0.500000
Si Si3 0.232247 0.415195 0.338067
Si Si4 0.389633 0.917568 0.327468
Si Si5 0.938028 0.286330 0.591094
Si Si6 0.059764 0.852692 0.672250
O O1 0.851901 0.104494 0.500000
O O2 0.762926 0.111490 0.582506
O O3 0.788588 0.000000 0.500000
O O4 0.583913 0.500000 0.500000
O O5 0.561977 0.612978 0.417456
O O6 0.241881 0.500000 0.336294
O O7 0.250000 0.386573 0.250000
O O8 0.170885 0.406032 0.344166
O O9 0.420772 0.863949 0.384131
O O10 0.405270 0.895501 0.235412
O O11 0.401503 0.000000 0.340250
O O12 0.919141 0.268783 0.500000
O O13 0.921418 0.227307 0.656293
O O14 0.000000 0.282375 0.590091
O O15 0.000000 0.852251 0.701654
#
# Coordination Sequence:
#
# PCOD9513458 Si02
#       6
#    16  16  32  32  32  32
#     4   9  18  33  55  81 116 158 195 241 302 358
#     4  11  21  34  60  92 118 150 196 253 305 348
#     4   9  18  34  55  83 119 155 195 243 300 367
#     4  11  23  36  60  92 119 151 200 254 297 338
#     4  10  22  41  61  82 116 164 204 234 288 365
#     4  11  22  39  59  85 122 161 198 237 299 374
#
# _framework density 19.961691999999999
#
# number of rings (size 3 to 8) (size 9 to 14) (size 15 to 20)
#    0.000    1.800    1.000    3.300    1.400    8.400 
#    0.000    1.000    0.000    9.600    0.000    0.000 
#    0.000    0.000    0.000    0.000    0.000    0.000 
#
# Total GULP energy -223377.422219 kJ/mol
# GULP energy per Si atom -5584.435555 kJ/mol
# Density = 1.991626 g / cm^3
# Si number density = 19.961692 Si / 1000 Ang^3
#
#
#
# Elastic Constant Matrix: (Units=GPa)
#
#
# Indices 1 2 3 4 5 6 
#
# 1 42.1627 24.5320 24.6421 0.0000 0.0000 0.0000
# 2 24.5320 80.7241 1.8465 0.0000 0.0000 0.0000
# 3 24.6421 1.8465 84.5584 0.0000 0.0000 0.0000
# 4 0.0000 0.0000 0.0000 22.0566 0.0000 0.0000
# 5 0.0000 0.0000 0.0000 0.0000 57.4799 0.0000
# 6 0.0000 0.0000 0.0000 0.0000 0.0000 -48.3947
#
#
#
# Elastic Compliance Matrix: (Units=1/GPa)
#
#
# Indices 1 2 3 4 5 6 
#
# 1 0.035912 -0.010679 -0.010232 0.000000 0.000000 0.000000
# 2 -0.010679 0.015570 0.002772 0.000000 0.000000 0.000000
# 3 -0.010232 0.002772 0.014747 0.000000 0.000000 0.000000
# 4 0.000000 0.000000 0.000000 0.045338 0.000000 0.000000
# 5 0.000000 0.000000 0.000000 0.000000 0.017397 0.000000
# 6 0.000000 0.000000 0.000000 0.000000 0.000000 -0.020663
#
#
# Mechanical properties :
#
#
# Convention : Reuss Voigt Hill
#
# Bulk Modulus (GPa) = 33.38878 34.38738 33.88808
# Shear Modulus (GPa) = 32.34921 16.65666 24.50293
#
# Velocity S-wave (km/s) = 4.02999 2.89179 3.50737
# Velocity P-wave (km/s) = 6.19816 5.33048 5.78062
#
# Compressibility (1/GPa) = 0.02995018
#
# Stress axis : x y z
#
# Youngs Moduli (GPa) = 27.84610 64.22631 67.80814
#
# Poissons Ratio (x) = 0.68590 0.69383
# Poissons Ratio (y) = 0.29738 -0.18798
# Poissons Ratio (z) = 0.28493 -0.17805
#
# Static dielectric constant tensor:
#      x y z
#    x 1.673930 0.000000 0.000000 
#    y 0.000000 1.696420 0.000000 
#    z 0.000000 0.000000 1.728920 
# 
# From -- ./inp_files/19620.got.cif
#   From: 2010.05.17/outbox.cif.g08.bks.cpg/sg69_10_cif.got.tgz:19620.got - 2010.06.03 19:29:58.
