data_PCOD9513576
_publ_section_title
;
Structure prediction by ZEFSAII (Michael W. Deem and Ramdas Pophale) SiO2 
 PCOD9513576
Probable space group: F M M M
;
_chemical_formula_sum "Si O2"
_cell_formula_units_Z 160
_cell_length_a 10.164443
_cell_length_b 27.032800
_cell_length_c 26.036551
_cell_angle_alpha 90.000000
_cell_angle_beta 90.000000
_cell_angle_gamma 90.000000
_cell_volume 7154.150464
_symmetry_space_group_name_H-M "F M M M"
_symmetry_group_IT_number 69
_symmetry_cell_setting 'orthorhombic'
loop_
_space_group_symop_operation_xyz
x,y,z
-x,-y,z
x,-y,-z
-x,y,-z
-x,-y,-z
x,y,-z
-x,y,z
x,-y,z
x,1/2+y,1/2+z
-x,1/2-y,1/2+z
x,1/2-y,1/2-z
-x,1/2+y,1/2-z
-x,1/2-y,1/2-z
x,1/2+y,1/2-z
-x,1/2+y,1/2+z
x,1/2-y,1/2+z
1/2+x,y,1/2+z
1/2-x,-y,1/2+z
1/2+x,-y,1/2-z
1/2-x,y,1/2-z
1/2-x,-y,1/2-z
1/2+x,y,1/2-z
1/2-x,y,1/2+z
1/2+x,-y,1/2+z
1/2+x,1/2+y,z
1/2-x,1/2-y,z
1/2+x,1/2-y,-z
1/2-x,1/2+y,-z
1/2-x,1/2-y,-z
1/2+x,1/2+y,-z
1/2-x,1/2+y,z
1/2+x,1/2-y,z
loop_
_atom_site_type_symbol
_atom_site_label
_atom_site_fract_x
_atom_site_fract_y
_atom_site_fract_z
Si Si1 0.000000 0.554130 0.129178
Si Si2 0.273819 0.552110 0.810212
Si Si3 0.840126 0.610562 0.440579
Si Si4 0.000000 0.265041 0.309991
Si Si5 0.210961 0.155491 0.161503
Si Si6 0.654088 0.000000 0.562069
Si Si7 0.500000 0.160406 0.846230
O O1 0.129747 0.552112 0.164075
O O2 0.000000 0.500000 0.099537
O O3 0.000000 0.613397 0.113372
O O4 0.338699 0.500000 0.825518
O O5 0.250000 0.551841 0.750000
O O6 0.347558 0.602391 0.823281
O O7 0.803311 0.618722 0.500000
O O8 0.786768 0.650678 0.400528
O O9 0.792848 0.554830 0.424579
O O10 0.000000 0.610761 0.438362
O O11 0.000000 0.250000 0.250000
O O12 0.873345 0.299068 0.320200
O O13 0.000000 0.220122 0.351593
O O14 0.359922 0.155444 0.182288
O O15 0.500000 0.000000 0.574436
O O16 0.661663 0.000000 0.500000
#
# Coordination Sequence:
#
# PCOD9513576 Si02
#       7
#    16  32  32  16  32  16  16
#     4   8  16  34  56  77 109 162 200 236 305 375
#     4   9  19  33  54  84 124 163 205 255 309 377
#     4   9  17  34  60  92 132 172 213 264 323 387
#     4  12  28  44  66  90 122 163 216 276 323 376
#     4  11  23  40  64  95 123 170 217 265 321 388
#     4   7  12  24  50  87 128 169 205 252 318 377
#     4  10  24  42  63  85 129 162 211 261 316 387
#
# _framework density 22.364640999999999
#
# number of rings (size 3 to 8) (size 9 to 14) (size 15 to 20)
#    0.000    2.500    1.000    1.800    7.000    0.800 
#    0.000    1.000    0.000    3.600    0.000    2.100 
#    0.000    0.000    0.000    0.000    0.000    0.000 
#
# Total GULP energy -222734.770216 kJ/mol
# GULP energy per Si atom -5568.369255 kJ/mol
# Density = 2.231374 g / cm^3
# Si number density = 22.364641 Si / 1000 Ang^3
#
#
#
# Elastic Constant Matrix: (Units=GPa)
#
#
# Indices 1 2 3 4 5 6 
#
# 1 98.5807 32.6408 25.4065 0.0000 0.0000 0.0000
# 2 32.6408 176.6138 30.8110 0.0000 0.0000 0.0000
# 3 25.4065 30.8110 97.7186 0.0000 0.0000 0.0000
# 4 0.0000 0.0000 0.0000 35.5794 0.0000 0.0000
# 5 0.0000 0.0000 0.0000 0.0000 3.7415 0.0000
# 6 0.0000 0.0000 0.0000 0.0000 0.0000 22.0333
#
#
#
# Elastic Compliance Matrix: (Units=1/GPa)
#
#
# Indices 1 2 3 4 5 6 
#
# 1 0.011320 -0.001671 -0.002416 0.000000 0.000000 0.000000
# 2 -0.001671 0.006238 -0.001533 0.000000 0.000000 0.000000
# 3 -0.002416 -0.001533 0.011345 0.000000 0.000000 0.000000
# 4 0.000000 0.000000 0.000000 0.028106 0.000000 0.000000
# 5 0.000000 0.000000 0.000000 0.000000 0.267271 0.000000
# 6 0.000000 0.000000 0.000000 0.000000 0.000000 0.045386
#
#
# Mechanical properties :
#
#
# Convention : Reuss Voigt Hill
#
# Bulk Modulus (GPa) = 56.61247 61.18110 58.89679
# Shear Modulus (GPa) = 12.92680 31.20783 22.06732
#
# Velocity S-wave (km/s) = 2.40678 3.73957 3.14459
# Velocity P-wave (km/s) = 5.75254 6.78686 6.29099
#
# Compressibility (1/GPa) = 0.01766395
#
# Stress axis : x y z
#
# Youngs Moduli (GPa) = 88.34035 160.30328 88.14492
#
# Poissons Ratio (x) = 0.26779 0.21299
# Poissons Ratio (y) = 0.14757 0.13509
# Poissons Ratio (z) = 0.21347 0.24568
#
# Static dielectric constant tensor:
#      x y z
#    x 1.839620 0.000000 0.000000 
#    y 0.000000 1.940650 0.000000 
#    z 0.000000 0.000000 1.895700 
# 
# From -- ./inp_files/40313.got.cif
#   From: 2010.05.17/outbox.cif.g08.bks.cpg/sg69_21_cif.got.tgz:40313.got - 2010.06.03 19:29:58.
