data_PCOD9513019
_publ_section_title
;
Structure prediction by ZEFSAII (Michael W. Deem and Ramdas Pophale) SiO2 
 PCOD9513019
Probable space group: F M M M
;
_chemical_formula_sum "Si O2"
_cell_formula_units_Z 144
_cell_length_a 18.333458
_cell_length_b 18.529373
_cell_length_c 21.473558
_cell_angle_alpha 90.000000
_cell_angle_beta 90.000000
_cell_angle_gamma 90.000000
_cell_volume 7294.728310
_symmetry_space_group_name_H-M "F M M M"
_symmetry_group_IT_number 69
_symmetry_cell_setting 'orthorhombic'
loop_
_space_group_symop_operation_xyz
x,y,z
-x,-y,z
x,-y,-z
-x,y,-z
-x,-y,-z
x,y,-z
-x,y,z
x,-y,z
x,1/2+y,1/2+z
-x,1/2-y,1/2+z
x,1/2-y,1/2-z
-x,1/2+y,1/2-z
-x,1/2-y,1/2-z
x,1/2+y,1/2-z
-x,1/2+y,1/2+z
x,1/2-y,1/2+z
1/2+x,y,1/2+z
1/2-x,-y,1/2+z
1/2+x,-y,1/2-z
1/2-x,y,1/2-z
1/2-x,-y,1/2-z
1/2+x,y,1/2-z
1/2-x,y,1/2+z
1/2+x,-y,1/2+z
1/2+x,1/2+y,z
1/2-x,1/2-y,z
1/2+x,1/2-y,-z
1/2-x,1/2+y,-z
1/2-x,1/2-y,-z
1/2+x,1/2+y,-z
1/2-x,1/2+y,z
1/2+x,1/2-y,z
loop_
_atom_site_type_symbol
_atom_site_label
_atom_site_fract_x
_atom_site_fract_y
_atom_site_fract_z
Si Si1 0.085512 0.086347 0.000000
Si Si2 0.167838 0.783090 0.431767
Si Si3 0.420594 0.586045 0.745320
Si Si4 0.862587 0.352485 0.367616
Si Si5 0.701943 0.086385 0.143813
O O1 0.120977 0.114740 0.935986
O O2 0.000000 0.106031 0.000000
O O3 0.091597 0.000000 0.000000
O O4 0.134434 0.773071 0.500000
O O5 0.250000 0.750000 0.434755
O O6 0.133015 0.733156 0.378935
O O7 0.172037 0.866495 0.413707
O O8 0.500000 0.603140 0.716875
O O9 0.417613 0.500000 0.755493
O O10 0.414059 0.622497 0.812411
O O11 0.352481 0.602755 0.700846
O O12 0.782882 0.381701 0.347115
O O13 0.704880 0.000000 0.134642
#
# Coordination Sequence:
#
# PCOD9513019 Si02
#       5
#    16  32  32  32  32
#     4  11  22  34  53  88 126 154 183 224 283 351
#     4   9  19  36  55  83 119 150 186 240 291 331
#     4  10  21  38  58  83 119 155 189 240 295 339
#     4  11  20  36  59  86 119 154 190 233 286 350
#     4  10  21  36  60  87 112 149 203 244 278 340
#
# _framework density 19.740283000000002
#
# number of rings (size 3 to 8) (size 9 to 14) (size 15 to 20)
#    0.000    1.889    1.111    3.333    1.556    4.889 
#    0.000    6.667    0.000    0.000    0.000    3.111 
#    0.000    0.000    0.000    0.000    0.000    0.000 
#
# Total GULP energy -200741.911982 kJ/mol
# GULP energy per Si atom -5576.164222 kJ/mol
# Density = 1.969535 g / cm^3
# Si number density = 19.740283 Si / 1000 Ang^3
#
#
#
# Elastic Constant Matrix: (Units=GPa)
#
#
# Indices 1 2 3 4 5 6 
#
# 1 87.8547 20.8807 30.7217 0.0000 0.0000 0.0000
# 2 20.8807 81.2657 31.6124 0.0000 0.0000 0.0000
# 3 30.7217 31.6124 76.1713 0.0000 0.0000 0.0000
# 4 0.0000 0.0000 0.0000 29.6388 0.0000 0.0000
# 5 0.0000 0.0000 0.0000 0.0000 18.0269 0.0000
# 6 0.0000 0.0000 0.0000 0.0000 0.0000 3.8870
#
#
#
# Elastic Compliance Matrix: (Units=1/GPa)
#
#
# Indices 1 2 3 4 5 6 
#
# 1 0.013424 -0.001602 -0.004749 0.000000 0.000000 0.000000
# 2 -0.001602 0.014865 -0.005523 0.000000 0.000000 0.000000
# 3 -0.004749 -0.005523 0.017336 0.000000 0.000000 0.000000
# 4 0.000000 0.000000 0.000000 0.033740 0.000000 0.000000
# 5 0.000000 0.000000 0.000000 0.000000 0.055473 0.000000
# 6 0.000000 0.000000 0.000000 0.000000 0.000000 0.257266
#
#
# Mechanical properties :
#
#
# Convention : Reuss Voigt Hill
#
# Bulk Modulus (GPa) = 45.71120 45.74680 45.72900
# Shear Modulus (GPa) = 11.81629 21.11568 16.46598
#
# Velocity S-wave (km/s) = 2.44926 3.27414 2.89127
# Velocity P-wave (km/s) = 5.58615 6.12519 5.86187
#
# Compressibility (1/GPa) = 0.02187648
#
# Stress axis : x y z
#
# Youngs Moduli (GPa) = 74.49388 67.26996 57.68274
#
# Poissons Ratio (x) = 0.10774 0.27396
# Poissons Ratio (y) = 0.11931 0.31861
# Poissons Ratio (z) = 0.35381 0.37156
#
# Static dielectric constant tensor:
#      x y z
#    x 1.727240 0.000000 0.000000 
#    y 0.000000 1.708220 0.000000 
#    z 0.000000 0.000000 1.681390 
# 
# From -- ./inp_files/30724.got.cif
#   From: 2010.05.17/outbox.cif.g08.bks.cpg/sg69_16_cif.got.tgz:30724.got - 2010.06.03 19:29:58.
