data_PCOD9513793
_publ_section_title
;
Structure prediction by ZEFSAII (Michael W. Deem and Ramdas Pophale) SiO2 
 PCOD9513793
Probable space group: F M M M
;
_chemical_formula_sum "Si O2"
_cell_formula_units_Z 116
_cell_length_a 25.288155
_cell_length_b 7.879878
_cell_length_c 29.330848
_cell_angle_alpha 90.000000
_cell_angle_beta 90.000000
_cell_angle_gamma 90.000000
_cell_volume 5844.686990
_symmetry_space_group_name_H-M "F M M M"
_symmetry_group_IT_number 69
_symmetry_cell_setting 'orthorhombic'
loop_
_space_group_symop_operation_xyz
x,y,z
-x,-y,z
x,-y,-z
-x,y,-z
-x,-y,-z
x,y,-z
-x,y,z
x,-y,z
x,1/2+y,1/2+z
-x,1/2-y,1/2+z
x,1/2-y,1/2-z
-x,1/2+y,1/2-z
-x,1/2-y,1/2-z
x,1/2+y,1/2-z
-x,1/2+y,1/2+z
x,1/2-y,1/2+z
1/2+x,y,1/2+z
1/2-x,-y,1/2+z
1/2+x,-y,1/2-z
1/2-x,y,1/2-z
1/2-x,-y,1/2-z
1/2+x,y,1/2-z
1/2-x,y,1/2+z
1/2+x,-y,1/2+z
1/2+x,1/2+y,z
1/2-x,1/2-y,z
1/2+x,1/2-y,-z
1/2-x,1/2+y,-z
1/2-x,1/2-y,-z
1/2+x,1/2+y,-z
1/2-x,1/2+y,z
1/2+x,1/2-y,z
loop_
_atom_site_type_symbol
_atom_site_label
_atom_site_fract_x
_atom_site_fract_y
_atom_site_fract_z
Si Si1 0.607135 0.298985 0.377684
Si Si2 0.000000 0.305893 0.420440
Si Si3 0.000000 0.000000 0.500000
Si Si4 0.807531 0.795974 0.551550
Si Si5 0.190240 0.200208 0.196982
O O1 0.599443 0.500000 0.383655
O O2 0.551042 0.216040 0.387703
O O3 0.646064 0.231565 0.417153
O O4 0.641840 0.274892 0.332139
O O5 0.000000 0.500000 0.439146
O O6 0.000000 0.154660 0.459233
O O7 0.811386 0.730472 0.500000
O O8 0.750000 0.750000 0.569759
O O9 0.811167 0.000000 0.550124
O O10 0.185946 0.250000 0.250000
O O11 0.250000 0.250000 0.181866
O O12 0.186691 0.000000 0.192786
#
# Coordination Sequence:
#
# PCOD9513793 Si02
#       5
#    32  16   4  32  32
#     4  11  22  40  64  89 128 169 212 275 328 385
#     4  12  27  45  70  99 128 178 230 272 335 394
#     4  12  26  52  68  94 136 172 226 292 324 376
#     4   9  19  33  53  80 116 157 199 247 311 377
#     4  11  22  39  64  97 130 170 218 270 334 403
#
# _framework density 19.847086000000001
#
# number of rings (size 3 to 8) (size 9 to 14) (size 15 to 20)
#    0.000    1.379    1.379    5.172    1.931    4.414 
#    0.000    0.690    0.000    0.000    0.000    0.000 
#    0.000    0.000    0.000    0.000    0.000    0.000 
#
# Total GULP energy -161574.915928 kJ/mol
# GULP energy per Si atom -5571.548825 kJ/mol
# Density = 1.980191 g / cm^3
# Si number density = 19.847086 Si / 1000 Ang^3
#
#
#
# Elastic Constant Matrix: (Units=GPa)
#
#
# Indices 1 2 3 4 5 6 
#
# 1 185.9144 23.7880 73.6154 0.0000 0.0000 -0.0002
# 2 23.7880 99.2092 11.4542 0.0000 0.0002 -0.0001
# 3 73.6154 11.4542 98.6008 0.0000 0.0000 0.0000
# 4 0.0000 0.0000 0.0000 25.3109 0.0000 0.0000
# 5 0.0000 0.0002 0.0000 0.0000 16.6457 0.0000
# 6 -0.0002 -0.0001 0.0000 0.0000 0.0000 28.6000
#
#
#
# Elastic Compliance Matrix: (Units=1/GPa)
#
#
# Indices 1 2 3 4 5 6 
#
# 1 0.007777 -0.001211 -0.005666 0.000000 0.000000 0.000000
# 2 -0.001211 0.010405 -0.000305 0.000000 0.000000 0.000000
# 3 -0.005666 -0.000305 0.014407 0.000000 0.000000 0.000000
# 4 0.000000 0.000000 0.000000 0.039509 0.000000 0.000000
# 5 0.000000 0.000000 0.000000 0.000000 0.060075 0.000000
# 6 0.000000 0.000000 0.000000 0.000000 0.000000 0.034965
#
#
# Mechanical properties :
#
#
# Convention : Reuss Voigt Hill
#
# Bulk Modulus (GPa) = 54.86328 66.82663 60.84496
# Shear Modulus (GPa) = 26.65568 32.43579 29.54574
#
# Velocity S-wave (km/s) = 3.66874 4.04701 3.86251
# Velocity P-wave (km/s) = 6.75642 7.45531 7.11445
#
# Compressibility (1/GPa) = 0.01822713
#
# Stress axis : x y z
#
# Youngs Moduli (GPa) = 128.58143 96.10590 69.40876
#
# Poissons Ratio (x) = 0.11635 0.39326
# Poissons Ratio (y) = 0.15566 0.02116
# Poissons Ratio (z) = 0.72852 0.02930
#
# Static dielectric constant tensor:
#      x y z
#    x 1.795430 0.000000 0.000000 
#    y 0.000000 1.722730 0.000000 
#    z 0.000000 0.000000 1.684140 
# 
# From -- ./inp_files/38088.got.cif
#   From: 2010.05.17/outbox.cif.g08.bks.cpg/sg69_20_cif.got.tgz:38088.got - 2010.06.03 19:29:58.
