data_PCOD9513052
_publ_section_title
;
Structure prediction by ZEFSAII (Michael W. Deem and Ramdas Pophale) SiO2 
 PCOD9513052
Probable space group: F M M M
;
_chemical_formula_sum "Si O2"
_cell_formula_units_Z 144
_cell_length_a 17.179685
_cell_length_b 13.771701
_cell_length_c 30.055957
_cell_angle_alpha 90.000000
_cell_angle_beta 90.000000
_cell_angle_gamma 90.000000
_cell_volume 7111.043614
_symmetry_space_group_name_H-M "F M M M"
_symmetry_group_IT_number 69
_symmetry_cell_setting 'orthorhombic'
loop_
_space_group_symop_operation_xyz
x,y,z
-x,-y,z
x,-y,-z
-x,y,-z
-x,-y,-z
x,y,-z
-x,y,z
x,-y,z
x,1/2+y,1/2+z
-x,1/2-y,1/2+z
x,1/2-y,1/2-z
-x,1/2+y,1/2-z
-x,1/2-y,1/2-z
x,1/2+y,1/2-z
-x,1/2+y,1/2+z
x,1/2-y,1/2+z
1/2+x,y,1/2+z
1/2-x,-y,1/2+z
1/2+x,-y,1/2-z
1/2-x,y,1/2-z
1/2-x,-y,1/2-z
1/2+x,y,1/2-z
1/2-x,y,1/2+z
1/2+x,-y,1/2+z
1/2+x,1/2+y,z
1/2-x,1/2-y,z
1/2+x,1/2-y,-z
1/2-x,1/2+y,-z
1/2-x,1/2-y,-z
1/2+x,1/2+y,-z
1/2-x,1/2+y,z
1/2+x,1/2-y,z
loop_
_atom_site_type_symbol
_atom_site_label
_atom_site_fract_x
_atom_site_fract_y
_atom_site_fract_z
Si Si1 0.500000 0.107644 0.630518
Si Si2 0.500000 0.166550 0.872803
Si Si3 0.662862 0.610066 0.407349
Si Si4 0.750000 0.750000 0.837921
Si Si5 0.135498 0.396718 0.296257
Si Si6 0.500000 0.143161 0.231986
Si Si7 0.406460 0.618519 0.500000
O O1 0.500000 0.218776 0.611857
O O2 0.574845 0.105683 0.662629
O O3 0.500000 0.000000 0.606644
O O4 0.575549 0.112518 0.889328
O O5 0.500000 0.154152 0.820106
O O6 0.693761 0.500000 0.409670
O O7 0.710817 0.673736 0.372165
O O8 0.644847 0.648860 0.457128
O O9 0.809482 0.806489 0.805827
O O10 0.178912 0.500000 0.297199
O O11 0.079761 0.396985 0.253104
O O12 0.500000 0.250000 0.250000
O O13 0.408957 0.500000 0.500000
O O14 0.500000 0.648135 0.500000
#
# Coordination Sequence:
#
# PCOD9513052 Si02
#       7
#    16  16  32  16  32  16  16
#     4   9  17  35  60  84 108 148 200 239 284 339
#     4  12  20  38  65  92 108 147 207 258 281 328
#     4  11  23  38  61  91 119 148 191 244 295 347
#     4  12  22  39  59  84 122 158 198 233 279 354
#     4  10  21  37  57  81 115 158 195 237 293 341
#     4  11  19  37  60  83 109 149 200 247 283 326
#     4   9  18  37  62  88 118 146 180 240 304 348
#
# _framework density 20.250191000000001
#
# number of rings (size 3 to 8) (size 9 to 14) (size 15 to 20)
#    0.000    1.444    5.556    2.000    0.000    2.222 
#    0.000    5.000    0.000    8.000    0.000    3.111 
#    0.000    0.000    0.000    0.000    0.000    0.000 
#
# Total GULP energy -200540.057667 kJ/mol
# GULP energy per Si atom -5570.557157 kJ/mol
# Density = 2.020410 g / cm^3
# Si number density = 20.250191 Si / 1000 Ang^3
#
#
#
# Elastic Constant Matrix: (Units=GPa)
#
#
# Indices 1 2 3 4 5 6 
#
# 1 70.1612 30.9724 19.6319 0.0000 0.0000 0.0000
# 2 30.9724 116.9864 17.4248 0.0000 0.0000 0.0000
# 3 19.6319 17.4248 105.8082 0.0000 0.0000 0.0000
# 4 0.0000 0.0000 0.0000 13.0579 0.0000 0.0000
# 5 0.0000 0.0000 0.0000 0.0000 17.6260 0.0000
# 6 0.0000 0.0000 0.0000 0.0000 0.0000 256.7930
#
#
#
# Elastic Compliance Matrix: (Units=1/GPa)
#
#
# Indices 1 2 3 4 5 6 
#
# 1 0.016729 -0.004067 -0.002434 0.000000 0.000000 0.000000
# 2 -0.004067 0.009751 -0.000851 0.000000 0.000000 0.000000
# 3 -0.002434 -0.000851 0.010043 0.000000 0.000000 0.000000
# 4 0.000000 0.000000 0.000000 0.076582 0.000000 0.000000
# 5 0.000000 0.000000 0.000000 0.000000 0.056734 0.000000
# 6 0.000000 0.000000 0.000000 0.000000 0.000000 0.003894
#
#
# Mechanical properties :
#
#
# Convention : Reuss Voigt Hill
#
# Bulk Modulus (GPa) = 45.83123 47.66823 46.74973
# Shear Modulus (GPa) = 25.54776 72.49048 49.01912
#
# Velocity S-wave (km/s) = 3.55576 5.98959 4.92537
# Velocity P-wave (km/s) = 6.28805 8.45129 7.44862
#
# Compressibility (1/GPa) = 0.02181918
#
# Stress axis : x y z
#
# Youngs Moduli (GPa) = 59.77578 102.54906 99.57247
#
# Poissons Ratio (x) = 0.41702 0.24239
# Poissons Ratio (y) = 0.24308 0.08477
# Poissons Ratio (z) = 0.14551 0.08731
#
# Static dielectric constant tensor:
#      x y z
#    x 1.659410 0.000000 0.000000 
#    y 0.000000 1.811290 0.000000 
#    z 0.000000 0.000000 1.669550 
# 
# From -- ./inp_files/46220.got.cif
#   From: 2010.05.17/outbox.cif.g08.bks.cpg/sg69_24_cif.got.tgz:46220.got - 2010.06.03 19:29:58.
