data_PCOD9513506
_publ_section_title
;
Structure prediction by ZEFSAII (Michael W. Deem and Ramdas Pophale) SiO2 
 PCOD9513506
Probable space group: F M M M
;
_chemical_formula_sum "Si O2"
_cell_formula_units_Z 144
_cell_length_a 29.667614
_cell_length_b 22.962421
_cell_length_c 10.984474
_cell_angle_alpha 90.000000
_cell_angle_beta 90.000000
_cell_angle_gamma 90.000000
_cell_volume 7483.065734
_symmetry_space_group_name_H-M "F M M M"
_symmetry_group_IT_number 69
_symmetry_cell_setting 'orthorhombic'
loop_
_space_group_symop_operation_xyz
x,y,z
-x,-y,z
x,-y,-z
-x,y,-z
-x,-y,-z
x,y,-z
-x,y,z
x,-y,z
x,1/2+y,1/2+z
-x,1/2-y,1/2+z
x,1/2-y,1/2-z
-x,1/2+y,1/2-z
-x,1/2-y,1/2-z
x,1/2+y,1/2-z
-x,1/2+y,1/2+z
x,1/2-y,1/2+z
1/2+x,y,1/2+z
1/2-x,-y,1/2+z
1/2+x,-y,1/2-z
1/2-x,y,1/2-z
1/2-x,-y,1/2-z
1/2+x,y,1/2-z
1/2-x,y,1/2+z
1/2+x,-y,1/2+z
1/2+x,1/2+y,z
1/2-x,1/2-y,z
1/2+x,1/2-y,-z
1/2-x,1/2+y,-z
1/2-x,1/2-y,-z
1/2+x,1/2+y,-z
1/2-x,1/2+y,z
1/2+x,1/2-y,z
loop_
_atom_site_type_symbol
_atom_site_label
_atom_site_fract_x
_atom_site_fract_y
_atom_site_fract_z
Si Si1 0.282671 0.570237 0.860482
Si Si2 0.949727 0.115641 0.000000
Si Si3 0.450866 0.066916 0.855273
Si Si4 0.120874 0.621281 0.291850
Si Si5 0.601502 0.750000 0.750000
Si Si6 0.950326 0.755915 0.500000
O O1 0.282055 0.500000 0.860816
O O2 0.250000 0.589779 0.750000
O O3 0.332710 0.591702 0.827744
O O4 0.271039 0.588986 0.000000
O O5 0.918446 0.102482 0.114316
O O6 0.953963 0.185746 0.000000
O O7 0.000000 0.090540 0.000000
O O8 0.500000 0.090990 0.809910
O O9 0.404402 0.099942 0.828329
O O10 0.447405 0.000000 0.811220
O O11 0.454338 0.065226 0.000000
O O12 0.126962 0.691139 0.289158
O O13 0.573220 0.731654 0.629462
O O14 0.000000 0.782689 0.500000
#
# Coordination Sequence:
#
# PCOD9513506 Si02
#       6
#    32  16  32  32  16  16
#     4  10  22  42  68  93 116 147 193 250 309 366
#     4   9  18  32  53  81 117 156 195 235 282 338
#     4   9  19  34  51  77 115 156 198 243 290 344
#     4  11  20  37  58  84 118 156 193 241 296 352
#     4  10  23  34  55  84 120 158 202 244 292 354
#     4   9  18  34  50  76 115 162 208 248 280 325
#
# _framework density 19.243448999999998
#
# number of rings (size 3 to 8) (size 9 to 14) (size 15 to 20)
#    0.000    2.222    1.111    2.333    1.556    3.556 
#    0.000    2.778    0.000    4.000    0.000    0.000 
#    0.000    0.000    0.000    0.000    0.000    0.000 
#
# Total GULP energy -200423.791364 kJ/mol
# GULP energy per Si atom -5567.327538 kJ/mol
# Density = 1.919965 g / cm^3
# Si number density = 19.243449 Si / 1000 Ang^3
#
#
#
# Elastic Constant Matrix: (Units=GPa)
#
#
# Indices 1 2 3 4 5 6 
#
# 1 117.6444 18.2753 55.7003 0.0000 0.0000 0.0000
# 2 18.2753 30.3513 12.5946 0.0000 -0.0001 0.0000
# 3 55.7003 12.5946 112.3620 -0.0001 -0.0002 0.0000
# 4 0.0000 0.0000 -0.0001 16.8670 -0.0001 0.0000
# 5 0.0000 -0.0001 -0.0002 -0.0001 -135.2857 0.0001
# 6 0.0000 0.0000 0.0000 0.0000 0.0001 17.4358
#
#
#
# Elastic Compliance Matrix: (Units=1/GPa)
#
#
# Indices 1 2 3 4 5 6 
#
# 1 0.011761 -0.004890 -0.005282 0.000000 0.000000 0.000000
# 2 -0.004890 0.036588 -0.001677 0.000000 0.000000 0.000000
# 3 -0.005282 -0.001677 0.011706 0.000000 0.000000 0.000000
# 4 0.000000 0.000000 0.000000 0.059288 0.000000 0.000000
# 5 0.000000 0.000000 0.000000 0.000000 -0.007392 0.000000
# 6 0.000000 0.000000 0.000000 0.000000 0.000000 0.057353
#
#
# Mechanical properties :
#
#
# Convention : Reuss Voigt Hill
#
# Bulk Modulus (GPa) = 27.50507 48.16647 37.83577
# Shear Modulus (GPa) = 24.37602 -8.61076 7.88263
#
# Velocity S-wave (km/s) = 3.56296 -2.11763 2.02612
# Velocity P-wave (km/s) = 5.59021 4.37096 5.01775
#
# Compressibility (1/GPa) = 0.03635694
#
# Stress axis : x y z
#
# Youngs Moduli (GPa) = 85.03017 27.33169 85.42520
#
# Poissons Ratio (x) = 0.13364 0.45121
# Poissons Ratio (y) = 0.41576 0.14328
# Poissons Ratio (z) = 0.44912 0.04584
#
# Static dielectric constant tensor:
#      x y z
#    x 1.638710 0.000000 0.000000 
#    y 0.000000 1.695700 0.000000 
#    z 0.000000 0.000000 2.032940 
# 
# From -- ./inp_files/10410.got.cif
#   From: 2010.05.17/outbox.cif.g08.bks.cpg/sg69_6_cif.got.tgz:10410.got - 2010.06.03 19:29:58.
