data_PCOD9513816
_publ_section_title
;
Structure prediction by ZEFSAII (Michael W. Deem and Ramdas Pophale) SiO2 
 PCOD9513816
Probable space group: F M M M
;
_chemical_formula_sum "Si O2"
_cell_formula_units_Z 192
_cell_length_a 26.450077
_cell_length_b 14.846819
_cell_length_c 25.582386
_cell_angle_alpha 90.000000
_cell_angle_beta 90.000000
_cell_angle_gamma 90.000000
_cell_volume 10046.190338
_symmetry_space_group_name_H-M "F M M M"
_symmetry_group_IT_number 69
_symmetry_cell_setting 'orthorhombic'
loop_
_space_group_symop_operation_xyz
x,y,z
-x,-y,z
x,-y,-z
-x,y,-z
-x,-y,-z
x,y,-z
-x,y,z
x,-y,z
x,1/2+y,1/2+z
-x,1/2-y,1/2+z
x,1/2-y,1/2-z
-x,1/2+y,1/2-z
-x,1/2-y,1/2-z
x,1/2+y,1/2-z
-x,1/2+y,1/2+z
x,1/2-y,1/2+z
1/2+x,y,1/2+z
1/2-x,-y,1/2+z
1/2+x,-y,1/2-z
1/2-x,y,1/2-z
1/2-x,-y,1/2-z
1/2+x,y,1/2-z
1/2-x,y,1/2+z
1/2+x,-y,1/2+z
1/2+x,1/2+y,z
1/2-x,1/2-y,z
1/2+x,1/2-y,-z
1/2-x,1/2+y,-z
1/2-x,1/2-y,-z
1/2+x,1/2+y,-z
1/2-x,1/2+y,z
1/2+x,1/2-y,z
loop_
_atom_site_type_symbol
_atom_site_label
_atom_site_fract_x
_atom_site_fract_y
_atom_site_fract_z
Si Si1 0.214183 0.000000 0.057154
Si Si2 0.848201 0.350068 0.732682
Si Si3 0.199222 0.816912 0.122804
Si Si4 0.814252 0.500000 0.097865
Si Si5 0.613624 0.170326 0.895604
Si Si6 0.793478 0.000000 0.708786
Si Si7 0.058917 0.392072 0.209072
Si Si8 0.939483 0.892787 0.500000
O O1 0.203569 0.903822 0.085287
O O2 0.274879 0.000000 0.052384
O O3 0.189839 0.000000 0.000000
O O4 0.838676 0.250000 0.750000
O O5 0.817573 0.358634 0.679037
O O6 0.826103 0.413699 0.777347
O O7 0.907986 0.368867 0.739228
O O8 0.250000 0.750000 0.124739
O O9 0.150882 0.755806 0.106768
O O10 0.848847 0.585971 0.101105
O O11 0.779053 0.500000 0.149403
O O12 0.581559 0.158893 0.841927
O O13 0.580248 0.157512 0.947834
O O14 0.750000 0.000000 0.750000
O O15 0.063172 0.500000 0.199405
O O16 0.000000 0.370569 0.215630
O O17 0.000000 0.893245 0.500000
O O18 0.923347 0.000000 0.500000
#
# Coordination Sequence:
#
# PCOD9513816 Si02
#       8
#    16  32  32  16  32  16  32  16
#     4  12  30  48  66  91 129 180 226 279 330 386
#     4  12  23  40  62  96 133 177 214 257 319 393
#     4  12  27  44  66  99 134 174 226 267 328 400
#     4  12  20  40  61  99 133 168 212 263 320 395
#     4  12  22  41  64  97 134 171 211 270 331 397
#     4  12  24  36  62  90 134 174 210 256 308 374
#     4  11  22  41  66  95 136 176 218 270 333 393
#     4  11  24  40  67 101 129 165 213 272 337 393
#
# _framework density 19.111723000000001
#
# number of rings (size 3 to 8) (size 9 to 14) (size 15 to 20)
#    0.000    0.250    7.500    2.000    4.667    2.000 
#    0.000    0.000    0.000    0.000    0.000    0.583 
#    0.000    0.000    0.000    0.000    0.000    0.000 
#
# Total GULP energy -267748.866365 kJ/mol
# GULP energy per Si atom -5578.101383 kJ/mol
# Density = 1.906822 g / cm^3
# Si number density = 19.111723 Si / 1000 Ang^3
#
#
#
# Elastic Constant Matrix: (Units=GPa)
#
#
# Indices 1 2 3 4 5 6 
#
# 1 105.0418 35.3501 51.6628 0.0000 0.0000 0.0000
# 2 35.3501 111.7249 39.3807 0.0000 0.0000 0.0000
# 3 51.6628 39.3807 130.3094 0.0000 0.0000 0.0000
# 4 0.0000 0.0000 0.0000 0.6407 0.0000 0.0000
# 5 0.0000 0.0000 0.0000 0.0000 21.3845 0.0000
# 6 0.0000 0.0000 0.0000 0.0000 0.0000 26.9799
#
#
#
# Elastic Compliance Matrix: (Units=1/GPa)
#
#
# Indices 1 2 3 4 5 6 
#
# 1 0.012398 -0.002451 -0.004175 0.000000 0.000000 0.000000
# 2 -0.002451 0.010502 -0.002202 0.000000 0.000000 0.000000
# 3 -0.004175 -0.002202 0.009995 0.000000 0.000000 0.000000
# 4 0.000000 0.000000 0.000000 1.560884 0.000000 0.000000
# 5 0.000000 0.000000 0.000000 0.000000 0.046763 0.000000
# 6 0.000000 0.000000 0.000000 0.000000 0.000000 0.037065
#
#
# Mechanical properties :
#
#
# Convention : Reuss Voigt Hill
#
# Bulk Modulus (GPa) = 65.62050 66.65147 66.13598
# Shear Modulus (GPa) = 2.94058 24.51318 13.72688
#
# Velocity S-wave (km/s) = 1.24176 3.58526 2.68292
# Velocity P-wave (km/s) = 6.03868 7.21728 6.65413
#
# Compressibility (1/GPa) = 0.01523914
#
# Stress axis : x y z
#
# Youngs Moduli (GPa) = 80.65705 95.21678 100.05419
#
# Poissons Ratio (x) = 0.23341 0.41768
# Poissons Ratio (y) = 0.19772 0.22032
# Poissons Ratio (z) = 0.33671 0.20967
#
# Static dielectric constant tensor:
#      x y z
#    x 1.724390 0.000000 0.000000 
#    y 0.000000 1.660980 0.000000 
#    z 0.000000 0.000000 1.688290 
# 
# From -- ./inp_files/38439.got.cif
#   From: 2010.05.17/outbox.cif.g08.bks.cpg/sg69_20_cif.got.tgz:38439.got - 2010.06.03 19:29:58.
