data_PCOD9513210
_publ_section_title
;
Structure prediction by ZEFSAII (Michael W. Deem and Ramdas Pophale) SiO2 
 PCOD9513210
Probable space group: F M M M
;
_chemical_formula_sum "Si O2"
_cell_formula_units_Z 96
_cell_length_a 13.911057
_cell_length_b 16.807626
_cell_length_c 17.686669
_cell_angle_alpha 90.000000
_cell_angle_beta 90.000000
_cell_angle_gamma 90.000000
_cell_volume 4135.352681
_symmetry_space_group_name_H-M "F M M M"
_symmetry_group_IT_number 69
_symmetry_cell_setting 'orthorhombic'
loop_
_space_group_symop_operation_xyz
x,y,z
-x,-y,z
x,-y,-z
-x,y,-z
-x,-y,-z
x,y,-z
-x,y,z
x,-y,z
x,1/2+y,1/2+z
-x,1/2-y,1/2+z
x,1/2-y,1/2-z
-x,1/2+y,1/2-z
-x,1/2-y,1/2-z
x,1/2+y,1/2-z
-x,1/2+y,1/2+z
x,1/2-y,1/2+z
1/2+x,y,1/2+z
1/2-x,-y,1/2+z
1/2+x,-y,1/2-z
1/2-x,y,1/2-z
1/2-x,-y,1/2-z
1/2+x,y,1/2-z
1/2-x,y,1/2+z
1/2+x,-y,1/2+z
1/2+x,1/2+y,z
1/2-x,1/2-y,z
1/2+x,1/2-y,-z
1/2-x,1/2+y,-z
1/2-x,1/2-y,-z
1/2+x,1/2+y,-z
1/2-x,1/2+y,z
1/2+x,1/2-y,z
loop_
_atom_site_type_symbol
_atom_site_label
_atom_site_fract_x
_atom_site_fract_y
_atom_site_fract_z
Si Si1 0.387599 0.086045 0.761683
Si Si2 0.887357 0.690560 0.379458
Si Si3 0.688090 0.632974 0.417375
O O1 0.500000 0.089996 0.780113
O O2 0.370032 0.160869 0.706936
O O3 0.333906 0.086895 0.840898
O O4 0.370238 0.000000 0.723157
O O5 0.802941 0.643511 0.421185
O O6 0.862026 0.781550 0.399033
O O7 0.000000 0.674963 0.396225
O O8 0.653924 0.605002 0.500000
#
# Coordination Sequence:
#
# PCOD9513210 Si02
#       3
#    32  32  32
#     4  10  22  40  62  87 115 152 197 241 286 339
#     4  10  21  39  61  84 114 154 200 242 279 333
#     4  11  23  37  59  91 121 151 188 236 296 351
#
# _framework density 23.214465000000001
#
# number of rings (size 3 to 8) (size 9 to 14) (size 15 to 20)
#    0.000    1.667    0.000    5.000    0.000   13.333 
#    0.000    1.667    0.000    3.000    0.000   21.000 
#    0.000    0.000    0.000    0.000    0.000    0.000 
#
# Total GULP energy -133844.864227 kJ/mol
# GULP energy per Si atom -5576.869343 kJ/mol
# Density = 2.316163 g / cm^3
# Si number density = 23.214465 Si / 1000 Ang^3
#
#
#
# Elastic Constant Matrix: (Units=GPa)
#
#
# Indices 1 2 3 4 5 6 
#
# 1 124.2370 24.7274 64.5060 0.0000 0.0000 0.0000
# 2 24.7274 44.1940 24.5216 0.0000 0.0000 0.0000
# 3 64.5060 24.5216 125.0662 0.0000 0.0000 0.0000
# 4 0.0000 0.0000 0.0000 -48.6331 0.0000 0.0000
# 5 0.0000 0.0000 0.0000 0.0000 -1.2687 0.0000
# 6 0.0000 0.0000 0.0000 0.0000 0.0000 17.2067
#
#
#
# Elastic Compliance Matrix: (Units=1/GPa)
#
#
# Indices 1 2 3 4 5 6 
#
# 1 0.011460 -0.003515 -0.005222 0.000000 0.000000 0.000000
# 2 -0.003515 0.026468 -0.003377 0.000000 0.000000 0.000000
# 3 -0.005222 -0.003377 0.011351 0.000000 0.000000 0.000000
# 4 0.000000 0.000000 0.000000 -0.020562 0.000000 0.000000
# 5 0.000000 0.000000 0.000000 0.000000 -0.788194 0.000000
# 6 0.000000 0.000000 0.000000 0.000000 0.000000 0.058117
#
#
# Mechanical properties :
#
#
# Convention : Reuss Voigt Hill
#
# Bulk Modulus (GPa) = 39.91614 57.88968 48.90291
# Shear Modulus (GPa) = -7.47626 5.44379 -1.01623
#
# Velocity S-wave (km/s) = -1.79653 1.53300 -0.66235
# Velocity P-wave (km/s) = 3.59562 5.30325 4.53062
#
# Compressibility (1/GPa) = 0.02505252
#
# Stress axis : x y z
#
# Youngs Moduli (GPa) = 87.26156 37.78194 88.09820
#
# Poissons Ratio (x) = 0.13279 0.46001
# Poissons Ratio (y) = 0.30670 0.29748
# Poissons Ratio (z) = 0.45564 0.12758
#
# Static dielectric constant tensor:
#      x y z
#    x 1.871450 0.000000 0.000000 
#    y 0.000000 1.898550 0.000000 
#    z 0.000000 0.000000 1.873480 
# 
# From -- ./inp_files/13833.got.cif
#   From: 2010.05.17/outbox.cif.g08.bks.cpg/sg69_7_cif.got.tgz:13833.got - 2010.06.03 19:29:58.
