data_PCOD9513677
_publ_section_title
;
Structure prediction by ZEFSAII (Michael W. Deem and Ramdas Pophale) SiO2 
 PCOD9513677
Probable space group: F M M M
;
_chemical_formula_sum "Si O2"
_cell_formula_units_Z 176
_cell_length_a 28.250079
_cell_length_b 18.547335
_cell_length_c 19.722760
_cell_angle_alpha 90.000000
_cell_angle_beta 90.000000
_cell_angle_gamma 90.000000
_cell_volume 10334.009889
_symmetry_space_group_name_H-M "F M M M"
_symmetry_group_IT_number 69
_symmetry_cell_setting 'orthorhombic'
loop_
_space_group_symop_operation_xyz
x,y,z
-x,-y,z
x,-y,-z
-x,y,-z
-x,-y,-z
x,y,-z
-x,y,z
x,-y,z
x,1/2+y,1/2+z
-x,1/2-y,1/2+z
x,1/2-y,1/2-z
-x,1/2+y,1/2-z
-x,1/2-y,1/2-z
x,1/2+y,1/2-z
-x,1/2+y,1/2+z
x,1/2-y,1/2+z
1/2+x,y,1/2+z
1/2-x,-y,1/2+z
1/2+x,-y,1/2-z
1/2-x,y,1/2-z
1/2-x,-y,1/2-z
1/2+x,y,1/2-z
1/2-x,y,1/2+z
1/2+x,-y,1/2+z
1/2+x,1/2+y,z
1/2-x,1/2-y,z
1/2+x,1/2-y,-z
1/2-x,1/2+y,-z
1/2-x,1/2-y,-z
1/2+x,1/2+y,-z
1/2-x,1/2+y,z
1/2+x,1/2-y,z
loop_
_atom_site_type_symbol
_atom_site_label
_atom_site_fract_x
_atom_site_fract_y
_atom_site_fract_z
Si Si1 0.332788 0.415605 0.129828
Si Si2 0.000000 0.081451 0.917672
Si Si3 0.867047 0.084138 0.712621
Si Si4 0.913551 0.682547 0.579054
Si Si5 0.055020 0.700162 0.183173
Si Si6 0.233090 0.587503 0.823966
O O1 0.338872 0.500000 0.109229
O O2 0.350294 0.411261 0.208531
O O3 0.364631 0.359608 0.089449
O O4 0.277009 0.396141 0.127262
O O5 0.953935 0.125908 0.897183
O O6 0.000000 0.000000 0.891557
O O7 0.000000 0.077924 0.000000
O O8 0.912882 0.131212 0.698684
O O9 0.821322 0.110146 0.668658
O O10 0.875644 0.000000 0.698493
O O11 0.921255 0.698000 0.500000
O O12 0.921020 0.753209 0.623639
O O13 0.055742 0.750000 0.250000
O O14 0.000000 0.684189 0.167297
O O15 0.231627 0.500000 0.820708
O O16 0.250000 0.613576 0.750000
#
# Coordination Sequence:
#
# PCOD9513677 Si02
#       6
#    32  16  32  32  32  32
#     4   9  16  29  51  80 109 136 169 211 258 315
#     4   9  18  32  49  72 103 141 183 210 239 311
#     4   9  17  32  55  79 103 134 175 221 263 304
#     4  11  21  34  51  74 107 147 177 209 263 321
#     4  11  22  36  52  74 106 142 177 221 270 316
#     4   7  12  25  48  75 102 132 167 209 255 302
#
# _framework density 17.031141999999999
#
# number of rings (size 3 to 8) (size 9 to 14) (size 15 to 20)
#    0.000    2.636    2.727    2.727    0.000    1.455 
#    0.000    0.909    0.000    2.727    0.000    3.818 
#    0.000    0.000    0.000    0.000    0.000    0.000 
#
# Total GULP energy -245015.549462 kJ/mol
# GULP energy per Si atom -5568.535215 kJ/mol
# Density = 1.699238 g / cm^3
# Si number density = 17.031142 Si / 1000 Ang^3
#
#
#
# Elastic Constant Matrix: (Units=GPa)
#
#
# Indices 1 2 3 4 5 6 
#
# 1 107.9969 43.3293 13.3250 0.0000 0.0000 0.0000
# 2 43.3293 61.7942 18.2412 0.0000 0.0000 0.0000
# 3 13.3250 18.2412 37.0591 0.0000 0.0000 0.0000
# 4 0.0000 0.0000 0.0000 13.0497 0.0000 0.0000
# 5 0.0000 0.0000 0.0000 0.0000 5.3388 0.0000
# 6 0.0000 0.0000 0.0000 0.0000 0.0000 4.7704
#
#
#
# Elastic Compliance Matrix: (Units=1/GPa)
#
#
# Indices 1 2 3 4 5 6 
#
# 1 0.012886 -0.008971 -0.000217 0.000000 0.000000 0.000000
# 2 -0.008971 0.025180 -0.009168 0.000000 0.000000 0.000000
# 3 -0.000217 -0.009168 0.031575 0.000000 0.000000 0.000000
# 4 0.000000 0.000000 0.000000 0.076630 0.000000 0.000000
# 5 0.000000 0.000000 0.000000 0.000000 0.187306 0.000000
# 6 0.000000 0.000000 0.000000 0.000000 0.000000 0.209627
#
#
# Mechanical properties :
#
#
# Convention : Reuss Voigt Hill
#
# Bulk Modulus (GPa) = 30.37058 39.62683 34.99871
# Shear Modulus (GPa) = 8.46178 13.42876 10.94527
#
# Velocity S-wave (km/s) = 2.23141 2.81104 2.53783
# Velocity P-wave (km/s) = 4.95076 5.81839 5.40202
#
# Compressibility (1/GPa) = 0.03292660
#
# Stress axis : x y z
#
# Youngs Moduli (GPa) = 77.60590 39.71478 31.67075
#
# Poissons Ratio (x) = 0.35628 0.00689
# Poissons Ratio (y) = 0.69621 0.29036
# Poissons Ratio (z) = 0.01687 0.36411
#
# Static dielectric constant tensor:
#      x y z
#    x 1.626880 0.000000 0.000000 
#    y 0.000000 1.561900 0.000000 
#    z 0.000000 0.000000 1.572440 
# 
# From -- ./inp_files/27670.got.cif
#   From: 2010.05.17/outbox.cif.g08.bks.cpg/sg69_14_cif.got.tgz:27670.got - 2010.06.03 19:29:58.
