data_PCOD9513710
_publ_section_title
;
Structure prediction by ZEFSAII (Michael W. Deem and Ramdas Pophale) SiO2 
 PCOD9513710
Probable space group: F M M M
;
_chemical_formula_sum "Si O2"
_cell_formula_units_Z 128
_cell_length_a 24.171814
_cell_length_b 17.798841
_cell_length_c 14.238844
_cell_angle_alpha 90.000000
_cell_angle_beta 90.000000
_cell_angle_gamma 90.000000
_cell_volume 6125.981757
_symmetry_space_group_name_H-M "F M M M"
_symmetry_group_IT_number 69
_symmetry_cell_setting 'orthorhombic'
loop_
_space_group_symop_operation_xyz
x,y,z
-x,-y,z
x,-y,-z
-x,y,-z
-x,-y,-z
x,y,-z
-x,y,z
x,-y,z
x,1/2+y,1/2+z
-x,1/2-y,1/2+z
x,1/2-y,1/2-z
-x,1/2+y,1/2-z
-x,1/2-y,1/2-z
x,1/2+y,1/2-z
-x,1/2+y,1/2+z
x,1/2-y,1/2+z
1/2+x,y,1/2+z
1/2-x,-y,1/2+z
1/2+x,-y,1/2-z
1/2-x,y,1/2-z
1/2-x,-y,1/2-z
1/2+x,y,1/2-z
1/2-x,y,1/2+z
1/2+x,-y,1/2+z
1/2+x,1/2+y,z
1/2-x,1/2-y,z
1/2+x,1/2-y,-z
1/2-x,1/2+y,-z
1/2-x,1/2-y,-z
1/2+x,1/2+y,-z
1/2-x,1/2+y,z
1/2+x,1/2-y,z
loop_
_atom_site_type_symbol
_atom_site_label
_atom_site_fract_x
_atom_site_fract_y
_atom_site_fract_z
Si Si1 0.500000 0.716267 0.355110
Si Si2 0.811848 0.731387 0.639722
Si Si3 0.000000 0.884638 0.104704
Si Si4 0.612074 0.631464 0.603082
Si Si5 0.122427 0.083997 0.185008
O O1 0.500000 0.750000 0.250000
O O2 0.500000 0.795080 0.406865
O O3 0.448313 0.664754 0.377879
O O4 0.811346 0.750000 0.750000
O O5 0.750000 0.750000 0.605943
O O6 0.851138 0.793912 0.597661
O O7 0.839875 0.648709 0.636145
O O8 0.057452 0.904879 0.157572
O O9 0.000000 0.917596 0.000000
O O10 0.614724 0.593397 0.500000
O O11 0.627846 0.590649 0.701007
O O12 0.138916 0.000000 0.156262
#
# Coordination Sequence:
#
# PCOD9513710 Si02
#       5
#    16  32  16  32  32
#     4  12  18  35  60  88 121 156 208 255 289 351
#     4   9  19  38  59  84 115 154 207 257 296 346
#     4  12  23  38  61  92 126 159 198 247 306 365
#     4  11  21  36  60  87 119 160 206 249 293 354
#     4  11  23  39  60  91 129 162 195 245 310 371
#
# _framework density 20.89461
#
# number of rings (size 3 to 8) (size 9 to 14) (size 15 to 20)
#    0.000    1.250    5.000    2.250    0.000    2.000 
#    0.000   10.000    0.000    3.000    0.000    0.000 
#    0.000    0.000    0.000    0.000    0.000    0.000 
#
# Total GULP energy -178356.517271 kJ/mol
# GULP energy per Si atom -5573.641165 kJ/mol
# Density = 2.084705 g / cm^3
# Si number density = 20.894610 Si / 1000 Ang^3
#
#
#
# Elastic Constant Matrix: (Units=GPa)
#
#
# Indices 1 2 3 4 5 6 
#
# 1 147.0098 47.3687 10.1722 0.0000 0.0000 0.0000
# 2 47.3687 132.1908 2.5509 0.0000 0.0000 0.0000
# 3 10.1722 2.5509 137.4041 0.0000 0.0000 0.0000
# 4 0.0000 0.0000 0.0000 -3.6563 0.0000 0.0000
# 5 0.0000 0.0000 0.0000 0.0000 -34.1189 0.0000
# 6 0.0000 0.0000 0.0000 0.0000 0.0000 3.3985
#
#
#
# Elastic Compliance Matrix: (Units=1/GPa)
#
#
# Indices 1 2 3 4 5 6 
#
# 1 0.007727 -0.002759 -0.000521 0.000000 0.000000 0.000000
# 2 -0.002759 0.008553 0.000045 0.000000 0.000000 0.000000
# 3 -0.000521 0.000045 0.007316 0.000000 0.000000 0.000000
# 4 0.000000 0.000000 0.000000 -0.273501 0.000000 0.000000
# 5 0.000000 0.000000 0.000000 0.000000 -0.029309 0.000000
# 6 0.000000 0.000000 0.000000 0.000000 0.000000 0.294251
#
#
# Mechanical properties :
#
#
# Convention : Reuss Voigt Hill
#
# Bulk Modulus (GPa) = 58.38806 59.64314 59.01560
# Shear Modulus (GPa) = 183.73304 16.89218 100.31261
#
# Velocity S-wave (km/s) = 9.38744 2.84640 6.93636
# Velocity P-wave (km/s) = 12.06249 6.27769 9.61543
#
# Compressibility (1/GPa) = 0.01712679
#
# Stress axis : x y z
#
# Youngs Moduli (GPa) = 129.41183 116.92400 136.69570
#
# Poissons Ratio (x) = 0.32258 0.07120
# Poissons Ratio (y) = 0.35704 -0.00622
# Poissons Ratio (z) = 0.06740 -0.00532
#
# Static dielectric constant tensor:
#      x y z
#    x 1.457120 0.000000 0.000000 
#    y 0.000000 1.719920 0.000000 
#    z 0.000000 0.000000 1.890380 
# 
# From -- ./inp_files/18647.got.cif
#   From: 2010.05.17/outbox.cif.g08.bks.cpg/sg69_10_cif.got.tgz:18647.got - 2010.06.03 19:29:58.
