data_PCOD9513920
_publ_section_title
;
Structure prediction by ZEFSAII (Michael W. Deem and Ramdas Pophale) SiO2 
 PCOD9513920
Probable space group: F M M M
;
_chemical_formula_sum "Si O2"
_cell_formula_units_Z 144
_cell_length_a 29.264351
_cell_length_b 18.320385
_cell_length_c 14.990977
_cell_angle_alpha 90.000000
_cell_angle_beta 90.000000
_cell_angle_gamma 90.000000
_cell_volume 8037.175118
_symmetry_space_group_name_H-M "F M M M"
_symmetry_group_IT_number 69
_symmetry_cell_setting 'orthorhombic'
loop_
_space_group_symop_operation_xyz
x,y,z
-x,-y,z
x,-y,-z
-x,y,-z
-x,-y,-z
x,y,-z
-x,y,z
x,-y,z
x,1/2+y,1/2+z
-x,1/2-y,1/2+z
x,1/2-y,1/2-z
-x,1/2+y,1/2-z
-x,1/2-y,1/2-z
x,1/2+y,1/2-z
-x,1/2+y,1/2+z
x,1/2-y,1/2+z
1/2+x,y,1/2+z
1/2-x,-y,1/2+z
1/2+x,-y,1/2-z
1/2-x,y,1/2-z
1/2-x,-y,1/2-z
1/2+x,y,1/2-z
1/2-x,y,1/2+z
1/2+x,-y,1/2+z
1/2+x,1/2+y,z
1/2-x,1/2-y,z
1/2+x,1/2-y,-z
1/2-x,1/2+y,-z
1/2-x,1/2-y,-z
1/2+x,1/2+y,-z
1/2-x,1/2+y,z
1/2+x,1/2-y,z
loop_
_atom_site_type_symbol
_atom_site_label
_atom_site_fract_x
_atom_site_fract_y
_atom_site_fract_z
Si Si1 0.819056 0.086985 0.101332
Si Si2 0.051295 0.413530 0.768351
Si Si3 0.500000 0.588150 0.900522
Si Si4 0.211204 0.084613 0.606175
Si Si5 0.359196 0.164813 0.770138
O O1 0.765065 0.099098 0.119839
O O2 0.848037 0.124655 0.177239
O O3 0.826373 0.000000 0.104235
O O4 0.828743 0.111665 0.000000
O O5 0.061754 0.500000 0.775125
O O6 0.042803 0.394150 0.663392
O O7 0.092013 0.365001 0.804079
O O8 0.000000 0.402584 0.807313
O O9 0.500000 0.500000 0.906000
O O10 0.500000 0.618048 0.000000
O O11 0.202858 0.089591 0.500000
O O12 0.179722 0.138995 0.661220
O O13 0.202304 0.000000 0.633624
O O14 0.359510 0.250000 0.750000
#
# Coordination Sequence:
#
# PCOD9513920 Si02
#       5
#    32  32  16  32  32
#     4   9  19  36  57  80 104 135 181 232 271 306
#     4   8  17  33  52  73  97 131 176 220 259 302
#     4   7  12  26  49  74  95 119 159 211 262 303
#     4   9  19  37  58  76 100 140 189 232 260 295
#     4  12  23  32  50  81 114 148 171 207 267 334
#
# _framework density 17.916744000000001
#
# number of rings (size 3 to 8) (size 9 to 14) (size 15 to 20)
#    0.667    2.111    0.000    4.000    0.000    5.778 
#    0.000    4.444    0.000    0.667    0.000    3.111 
#    0.000    0.000    0.000    0.000    0.000    0.000 
#
# Total GULP energy -200504.083738 kJ/mol
# GULP energy per Si atom -5569.557882 kJ/mol
# Density = 1.787596 g / cm^3
# Si number density = 17.916744 Si / 1000 Ang^3
#
#
#
# Elastic Constant Matrix: (Units=GPa)
#
#
# Indices 1 2 3 4 5 6 
#
# 1 63.0813 48.3362 22.7068 0.0000 0.0000 0.0000
# 2 48.3362 59.1017 9.7711 0.0000 0.0000 0.0000
# 3 22.7068 9.7711 19.5831 0.0000 0.0000 0.0000
# 4 0.0000 0.0000 0.0000 -4.0877 0.0000 0.0000
# 5 0.0000 0.0000 0.0000 0.0000 -0.2631 0.0000
# 6 0.0000 0.0000 0.0000 0.0000 0.0000 -26.6679
#
#
#
# Elastic Compliance Matrix: (Units=1/GPa)
#
#
# Indices 1 2 3 4 5 6 
#
# 1 0.086974 -0.059355 -0.071232 0.000000 0.000000 0.000000
# 2 -0.059355 0.058948 0.039410 0.000000 0.000000 0.000000
# 3 -0.071232 0.039410 0.113994 0.000000 0.000000 0.000000
# 4 0.000000 0.000000 0.000000 -0.244634 0.000000 0.000000
# 5 0.000000 0.000000 0.000000 0.000000 -3.801515 0.000000
# 6 0.000000 0.000000 0.000000 0.000000 0.000000 -0.037498
#
#
# Mechanical properties :
#
#
# Convention : Reuss Voigt Hill
#
# Bulk Modulus (GPa) = 12.89268 33.71048 23.30158
# Shear Modulus (GPa) = -1.38293 -2.14027 -1.76160
#
# Velocity S-wave (km/s) = -0.87951 -1.09415 -0.99265
# Velocity P-wave (km/s) = 2.48598 4.15448 3.42344
#
# Compressibility (1/GPa) = 0.07756340
#
# Stress axis : x y z
#
# Youngs Moduli (GPa) = 11.49771 16.96421 8.77236
#
# Poissons Ratio (x) = 1.00691 0.62487
# Poissons Ratio (y) = 0.68244 -0.34572
# Poissons Ratio (z) = 0.81900 -0.66856
#
# Static dielectric constant tensor:
#      x y z
#    x 1.647140 0.000000 0.000000 
#    y 0.000000 1.593450 0.000000 
#    z 0.000000 0.000000 1.623120 
# 
# From -- ./inp_files/19457.got.cif
#   From: 2010.05.17/outbox.cif.g08.bks.cpg/sg69_10_cif.got.tgz:19457.got - 2010.06.03 19:29:58.
