data_PCOD9513581
_publ_section_title
;
Structure prediction by ZEFSAII (Michael W. Deem and Ramdas Pophale) SiO2 
 PCOD9513581
Probable space group: F M M M
;
_chemical_formula_sum "Si O2"
_cell_formula_units_Z 96
_cell_length_a 35.650832
_cell_length_b 8.811417
_cell_length_c 15.735852
_cell_angle_alpha 90.000000
_cell_angle_beta 90.000000
_cell_angle_gamma 90.000000
_cell_volume 4943.171595
_symmetry_space_group_name_H-M "F M M M"
_symmetry_group_IT_number 69
_symmetry_cell_setting 'orthorhombic'
loop_
_space_group_symop_operation_xyz
x,y,z
-x,-y,z
x,-y,-z
-x,y,-z
-x,-y,-z
x,y,-z
-x,y,z
x,-y,z
x,1/2+y,1/2+z
-x,1/2-y,1/2+z
x,1/2-y,1/2-z
-x,1/2+y,1/2-z
-x,1/2-y,1/2-z
x,1/2+y,1/2-z
-x,1/2+y,1/2+z
x,1/2-y,1/2+z
1/2+x,y,1/2+z
1/2-x,-y,1/2+z
1/2+x,-y,1/2-z
1/2-x,y,1/2-z
1/2-x,-y,1/2-z
1/2+x,y,1/2-z
1/2-x,y,1/2+z
1/2+x,-y,1/2+z
1/2+x,1/2+y,z
1/2-x,1/2-y,z
1/2+x,1/2-y,-z
1/2-x,1/2+y,-z
1/2-x,1/2-y,-z
1/2+x,1/2+y,-z
1/2-x,1/2+y,z
1/2+x,1/2-y,z
loop_
_atom_site_type_symbol
_atom_site_label
_atom_site_fract_x
_atom_site_fract_y
_atom_site_fract_z
Si Si1 0.418331 0.180732 0.602692
Si Si2 0.500000 0.183643 0.600952
Si Si3 0.840967 0.181119 0.338722
Si Si4 0.708567 0.316627 0.500000
O O1 0.416896 0.200336 0.500000
O O2 0.459463 0.235966 0.633657
O O3 0.383283 0.264395 0.643183
O O4 0.415343 0.000000 0.618971
O O5 0.500000 0.217076 0.500000
O O6 0.500000 0.000000 0.607869
O O7 0.827910 0.250000 0.250000
O O8 0.814827 0.230924 0.416891
O O9 0.840383 0.000000 0.334451
O O10 0.710502 0.500000 0.500000
O O11 0.750000 0.250000 0.500000
#
# Coordination Sequence:
#
# PCOD9513581 Si02
#       4
#    32  16  32  16
#     4   9  16  30  55  84 115 155 197 240 289 341
#     4   7  12  24  46  79 114 148 194 242 284 333
#     4  11  23  40  60  88 121 154 193 239 287 342
#     4  10  24  44  66  89 118 149 185 234 289 348
#
# _framework density 19.420729000000001
#
# number of rings (size 3 to 8) (size 9 to 14) (size 15 to 20)
#    0.000    2.500    1.667    3.000    0.000    3.333 
#    0.000    5.000    0.000    3.000    0.000    0.000 
#    0.000    0.000    0.000    0.000    0.000    0.000 
#
# Total GULP energy -133915.248160 kJ/mol
# GULP energy per Si atom -5579.802007 kJ/mol
# Density = 1.937653 g / cm^3
# Si number density = 19.420729 Si / 1000 Ang^3
#
#
#
# Elastic Constant Matrix: (Units=GPa)
#
#
# Indices 1 2 3 4 5 6 
#
# 1 166.4346 28.4947 81.9807 0.0000 0.0000 0.0000
# 2 28.4947 19.1392 42.2733 0.0000 0.0000 0.0000
# 3 81.9807 42.2733 124.7430 0.0000 0.0000 0.0000
# 4 0.0000 0.0000 0.0000 22.9729 0.0000 0.0000
# 5 0.0000 0.0000 0.0000 0.0000 -8.2804 0.0000
# 6 0.0000 0.0000 0.0000 0.0000 0.0000 32.2902
#
#
#
# Elastic Compliance Matrix: (Units=1/GPa)
#
#
# Indices 1 2 3 4 5 6 
#
# 1 0.008893 -0.001317 -0.005398 0.000000 0.000000 0.000000
# 2 -0.001317 0.207943 -0.069603 0.000000 0.000000 0.000000
# 3 -0.005398 -0.069603 0.035151 0.000000 0.000000 0.000000
# 4 0.000000 0.000000 0.000000 0.043530 0.000000 0.000000
# 5 0.000000 0.000000 0.000000 0.000000 -0.120767 0.000000
# 6 0.000000 0.000000 0.000000 0.000000 0.000000 0.030969
#
#
# Mechanical properties :
#
#
# Convention : Reuss Voigt Hill
#
# Bulk Modulus (GPa) = 10.06530 68.42378 39.24454
# Shear Modulus (GPa) = 12.77236 19.90109 16.33673
#
# Velocity S-wave (km/s) = 2.56728 3.20462 2.90349
# Velocity P-wave (km/s) = 3.73924 7.00012 5.61175
#
# Compressibility (1/GPa) = 0.09935121
#
# Stress axis : x y z
#
# Youngs Moduli (GPa) = 112.45163 4.80902 28.44853
#
# Poissons Ratio (x) = 0.00633 0.15356
# Poissons Ratio (y) = 0.14809 1.98010
# Poissons Ratio (z) = 0.60701 0.33472
#
# Static dielectric constant tensor:
#      x y z
#    x 1.680890 0.000000 0.000000 
#    y 0.000000 1.649100 0.000000 
#    z 0.000000 0.000000 1.697310 
# 
# From -- ./inp_files/19162.got.cif
#   From: 2010.05.17/outbox.cif.g08.bks.cpg/sg69_10_cif.got.tgz:19162.got - 2010.06.03 19:29:58.
