data_PCOD9513137
_publ_section_title
;
Structure prediction by ZEFSAII (Michael W. Deem and Ramdas Pophale) SiO2 
 PCOD9513137
Probable space group: F M M M
;
_chemical_formula_sum "Si O2"
_cell_formula_units_Z 136
_cell_length_a 18.984667
_cell_length_b 16.176820
_cell_length_c 24.114717
_cell_angle_alpha 90.000000
_cell_angle_beta 90.000000
_cell_angle_gamma 90.000000
_cell_volume 7405.907894
_symmetry_space_group_name_H-M "F M M M"
_symmetry_group_IT_number 69
_symmetry_cell_setting 'orthorhombic'
loop_
_space_group_symop_operation_xyz
x,y,z
-x,-y,z
x,-y,-z
-x,y,-z
-x,-y,-z
x,y,-z
-x,y,z
x,-y,z
x,1/2+y,1/2+z
-x,1/2-y,1/2+z
x,1/2-y,1/2-z
-x,1/2+y,1/2-z
-x,1/2-y,1/2-z
x,1/2+y,1/2-z
-x,1/2+y,1/2+z
x,1/2-y,1/2+z
1/2+x,y,1/2+z
1/2-x,-y,1/2+z
1/2+x,-y,1/2-z
1/2-x,y,1/2-z
1/2-x,-y,1/2-z
1/2+x,y,1/2-z
1/2-x,y,1/2+z
1/2+x,-y,1/2+z
1/2+x,1/2+y,z
1/2-x,1/2-y,z
1/2+x,1/2-y,-z
1/2-x,1/2+y,-z
1/2-x,1/2-y,-z
1/2+x,1/2+y,-z
1/2-x,1/2+y,z
1/2+x,1/2-y,z
loop_
_atom_site_type_symbol
_atom_site_label
_atom_site_fract_x
_atom_site_fract_y
_atom_site_fract_z
Si Si1 0.170668 0.594457 0.727137
Si Si2 0.324335 0.800004 0.380336
Si Si3 0.310352 0.000000 0.000000
Si Si4 0.209902 0.338448 0.500000
Si Si5 0.418021 0.164515 0.824559
Si Si6 0.918987 0.500000 0.898268
O O1 0.145015 0.500000 0.729357
O O2 0.250000 0.596912 0.750000
O O3 0.174185 0.628234 0.665108
O O4 0.123417 0.650775 0.767228
O O5 0.250000 0.750000 0.376782
O O6 0.331794 0.835614 0.442150
O O7 0.383734 0.735837 0.361559
O O8 0.361238 0.000000 0.946496
O O9 0.262444 0.917071 0.000000
O O10 0.250000 0.250000 0.500000
O O11 0.500000 0.179652 0.814097
O O12 0.410291 0.080151 0.859738
O O13 0.000000 0.500000 0.919779
#
# Coordination Sequence:
#
# PCOD9513137 Si02
#       6
#    32  32   8  16  32  16
#     4  11  23  36  61  91 126 164 207 256 316 383
#     4  11  22  40  60  89 125 168 210 260 312 369
#     4  12  23  36  66  92 129 174 210 266 312 374
#     4  10  24  39  60  91 129 162 217 263 300 371
#     4  11  23  40  63  91 126 163 208 263 321 379
#     4  10  21  38  58  89 129 166 204 256 316 377
#
# _framework density 18.363719
#
# number of rings (size 3 to 8) (size 9 to 14) (size 15 to 20)
#    0.000    1.176    3.529    3.706    1.647    1.882 
#    0.000    1.765    0.000    0.000    0.000    0.824 
#    0.000    0.000    0.000    0.000    0.000    0.000 
#
# Total GULP energy -189964.056807 kJ/mol
# GULP energy per Si atom -5587.178141 kJ/mol
# Density = 1.832192 g / cm^3
# Si number density = 18.363719 Si / 1000 Ang^3
#
#
#
# Elastic Constant Matrix: (Units=GPa)
#
#
# Indices 1 2 3 4 5 6 
#
# 1 74.4866 31.3516 54.1562 0.0000 0.0000 0.0000
# 2 31.3516 95.0122 50.7800 0.0000 0.0000 0.0000
# 3 54.1562 50.7800 179.7113 0.0000 0.0000 0.0000
# 4 0.0000 0.0000 0.0000 47.9399 0.0000 0.0000
# 5 0.0000 0.0000 0.0000 0.0000 21.3240 0.0000
# 6 0.0000 0.0000 0.0000 0.0000 0.0000 25.3957
#
#
#
# Elastic Compliance Matrix: (Units=1/GPa)
#
#
# Indices 1 2 3 4 5 6 
#
# 1 0.018191 -0.003619 -0.004459 0.000000 0.000000 0.000000
# 2 -0.003619 0.013117 -0.002616 0.000000 0.000000 0.000000
# 3 -0.004459 -0.002616 0.007647 0.000000 0.000000 0.000000
# 4 0.000000 0.000000 0.000000 0.020859 0.000000 0.000000
# 5 0.000000 0.000000 0.000000 0.000000 0.046896 0.000000
# 6 0.000000 0.000000 0.000000 0.000000 0.000000 0.039377
#
#
# Mechanical properties :
#
#
# Convention : Reuss Voigt Hill
#
# Bulk Modulus (GPa) = 56.92505 69.08731 63.00618
# Shear Modulus (GPa) = 28.84655 33.12673 30.98664
#
# Velocity S-wave (km/s) = 3.96769 4.25187 4.11223
# Velocity P-wave (km/s) = 7.21499 7.86180 7.54532
#
# Compressibility (1/GPa) = 0.01756696
#
# Stress axis : x y z
#
# Youngs Moduli (GPa) = 54.97336 76.23541 130.76387
#
# Poissons Ratio (x) = 0.27591 0.58309
# Poissons Ratio (y) = 0.19896 0.34205
# Poissons Ratio (z) = 0.24513 0.19942
#
# Static dielectric constant tensor:
#      x y z
#    x 1.616120 0.000000 0.000000 
#    y 0.000000 1.680080 0.000000 
#    z 0.000000 0.000000 1.629180 
# 
# From -- ./inp_files/16617.got.cif
#   From: 2010.05.17/outbox.cif.g08.bks.cpg/sg69_9_cif.got.tgz:16617.got - 2010.06.03 19:29:58.
