data_PCOD9513026
_publ_section_title
;
Structure prediction by ZEFSAII (Michael W. Deem and Ramdas Pophale) SiO2 
 PCOD9513026
Probable space group: F M M M
;
_chemical_formula_sum "Si O2"
_cell_formula_units_Z 168
_cell_length_a 19.583158
_cell_length_b 24.695831
_cell_length_c 16.023780
_cell_angle_alpha 90.000000
_cell_angle_beta 90.000000
_cell_angle_gamma 90.000000
_cell_volume 7749.458306
_symmetry_space_group_name_H-M "F M M M"
_symmetry_group_IT_number 69
_symmetry_cell_setting 'orthorhombic'
loop_
_space_group_symop_operation_xyz
x,y,z
-x,-y,z
x,-y,-z
-x,y,-z
-x,-y,-z
x,y,-z
-x,y,z
x,-y,z
x,1/2+y,1/2+z
-x,1/2-y,1/2+z
x,1/2-y,1/2-z
-x,1/2+y,1/2-z
-x,1/2-y,1/2-z
x,1/2+y,1/2-z
-x,1/2+y,1/2+z
x,1/2-y,1/2+z
1/2+x,y,1/2+z
1/2-x,-y,1/2+z
1/2+x,-y,1/2-z
1/2-x,y,1/2-z
1/2-x,-y,1/2-z
1/2+x,y,1/2-z
1/2-x,y,1/2+z
1/2+x,-y,1/2+z
1/2+x,1/2+y,z
1/2-x,1/2-y,z
1/2+x,1/2-y,-z
1/2-x,1/2+y,-z
1/2-x,1/2-y,-z
1/2+x,1/2+y,-z
1/2-x,1/2+y,z
1/2+x,1/2-y,z
loop_
_atom_site_type_symbol
_atom_site_label
_atom_site_fract_x
_atom_site_fract_y
_atom_site_fract_z
Si Si1 0.100121 0.060278 0.098008
Si Si2 0.000000 0.827706 0.500000
Si Si3 0.242261 0.558346 0.850144
Si Si4 0.254721 0.670221 0.404470
Si Si5 0.604286 0.288752 0.366168
Si Si6 0.391464 0.827439 0.322612
O O1 0.182174 0.057895 0.109819
O O2 0.080225 0.114528 0.147823
O O3 0.076019 0.000000 0.124638
O O4 0.084387 0.066804 0.000000
O O5 0.940463 0.822965 0.571728
O O6 0.209418 0.500000 0.867891
O O7 0.250000 0.562780 0.750000
O O8 0.209437 0.611966 0.886790
O O9 0.230513 0.672646 0.500000
O O10 0.315380 0.711812 0.389167
O O11 0.189977 0.671741 0.343272
O O12 0.581063 0.225933 0.369231
O O13 0.598389 0.313447 0.273839
#
# Coordination Sequence:
#
# PCOD9513026 Si02
#       6
#    32   8  32  32  32  32
#     4   9  17  30  52  88 129 158 183 231 311 393
#     4  12  28  46  62  80 120 170 224 254 288 346
#     4   9  16  26  43  73 119 164 195 230 290 372
#     4  11  20  32  57  92 125 157 191 249 319 369
#     4  11  24  41  59  86 121 165 213 255 299 353
#     4  10  21  36  63  92 124 155 198 251 313 375
#
# _framework density 21.678934999999999
#
# number of rings (size 3 to 8) (size 9 to 14) (size 15 to 20)
#    0.000    1.905    0.952    5.714    2.667    4.952 
#    0.000    0.000    0.000    0.000    0.000    8.000 
#    0.000    0.000    0.000    0.000    0.000    0.000 
#
# Total GULP energy -233944.158689 kJ/mol
# GULP energy per Si atom -5570.099016 kJ/mol
# Density = 2.162959 g / cm^3
# Si number density = 21.678935 Si / 1000 Ang^3
#
#
#
# Elastic Constant Matrix: (Units=GPa)
#
#
# Indices 1 2 3 4 5 6 
#
# 1 85.3653 6.0917 13.0033 0.0000 0.0000 0.0000
# 2 6.0917 171.2158 41.3120 0.0000 0.0000 0.0000
# 3 13.0033 41.3120 93.9351 0.0000 0.0000 0.0000
# 4 0.0000 0.0000 0.0000 65.8308 0.0000 0.0000
# 5 0.0000 0.0000 0.0000 0.0000 -1.5771 0.0000
# 6 0.0000 0.0000 0.0000 0.0000 0.0000 -32.0554
#
#
#
# Elastic Compliance Matrix: (Units=1/GPa)
#
#
# Indices 1 2 3 4 5 6 
#
# 1 0.011967 -0.000029 -0.001644 0.000000 0.000000 0.000000
# 2 -0.000029 0.006534 -0.002870 0.000000 0.000000 0.000000
# 3 -0.001644 -0.002870 0.012135 0.000000 0.000000 0.000000
# 4 0.000000 0.000000 0.000000 0.015190 0.000000 0.000000
# 5 0.000000 0.000000 0.000000 0.000000 -0.634060 0.000000
# 6 0.000000 0.000000 0.000000 0.000000 0.000000 -0.031196
#
#
# Mechanical properties :
#
#
# Convention : Reuss Voigt Hill
#
# Bulk Modulus (GPa) = 46.40131 52.37003 49.38567
# Shear Modulus (GPa) = -8.28967 25.78026 8.74530
#
# Velocity S-wave (km/s) = -1.95758 3.45220 2.01066
# Velocity P-wave (km/s) = 4.04238 6.33244 5.31228
#
# Compressibility (1/GPa) = 0.02155111
#
# Stress axis : x y z
#
# Youngs Moduli (GPa) = 83.56436 153.04539 82.40487
#
# Poissons Ratio (x) = 0.00446 0.13545
# Poissons Ratio (y) = 0.00244 0.23647
# Poissons Ratio (z) = 0.13736 0.43918
#
# Static dielectric constant tensor:
#      x y z
#    x 1.775790 0.000000 0.000000 
#    y 0.000000 1.894430 0.000000 
#    z 0.000000 0.000000 1.750860 
# 
# From -- ./inp_files/16850.got.cif
#   From: 2010.05.17/outbox.cif.g08.bks.cpg/sg69_9_cif.got.tgz:16850.got - 2010.06.03 19:29:58.
