data_PCOD9513403
_publ_section_title
;
Structure prediction by ZEFSAII (Michael W. Deem and Ramdas Pophale) SiO2 
 PCOD9513403
Probable space group: F M M M
;
_chemical_formula_sum "Si O2"
_cell_formula_units_Z 160
_cell_length_a 14.464307
_cell_length_b 19.201088
_cell_length_c 23.138108
_cell_angle_alpha 90.000000
_cell_angle_beta 90.000000
_cell_angle_gamma 90.000000
_cell_volume 6426.156720
_symmetry_space_group_name_H-M "F M M M"
_symmetry_group_IT_number 69
_symmetry_cell_setting 'orthorhombic'
loop_
_space_group_symop_operation_xyz
x,y,z
-x,-y,z
x,-y,-z
-x,y,-z
-x,-y,-z
x,y,-z
-x,y,z
x,-y,z
x,1/2+y,1/2+z
-x,1/2-y,1/2+z
x,1/2-y,1/2-z
-x,1/2+y,1/2-z
-x,1/2-y,1/2-z
x,1/2+y,1/2-z
-x,1/2+y,1/2+z
x,1/2-y,1/2+z
1/2+x,y,1/2+z
1/2-x,-y,1/2+z
1/2+x,-y,1/2-z
1/2-x,y,1/2-z
1/2-x,-y,1/2-z
1/2+x,y,1/2-z
1/2-x,y,1/2+z
1/2+x,-y,1/2+z
1/2+x,1/2+y,z
1/2-x,1/2-y,z
1/2+x,1/2-y,-z
1/2-x,1/2+y,-z
1/2-x,1/2-y,-z
1/2+x,1/2+y,-z
1/2-x,1/2+y,z
1/2+x,1/2-y,z
loop_
_atom_site_type_symbol
_atom_site_label
_atom_site_fract_x
_atom_site_fract_y
_atom_site_fract_z
Si Si1 0.109644 0.216577 0.190503
Si Si2 0.785968 0.579147 0.432656
Si Si3 0.355662 0.726702 0.063297
Si Si4 0.109874 0.576552 0.271107
Si Si5 0.602680 0.415732 0.636417
O O1 0.145154 0.250000 0.250000
O O2 0.117872 0.251765 0.127857
O O3 0.150481 0.138197 0.190816
O O4 0.000000 0.209686 0.199038
O O5 0.760253 0.574318 0.500000
O O6 0.814814 0.500000 0.414551
O O7 0.859529 0.642174 0.431467
O O8 0.692572 0.601969 0.400141
O O9 0.250000 0.750000 0.058897
O O10 0.396819 0.746136 0.000000
O O11 0.151320 0.500000 0.278851
O O12 0.115827 0.599411 0.204280
O O13 0.000000 0.570317 0.282966
O O14 0.500000 0.390577 0.618186
O O15 0.598430 0.500000 0.633527
#
# Coordination Sequence:
#
# PCOD9513403 Si02
#       5
#    32  32  32  32  32
#     4  10  22  39  61  88 113 142 188 240 283 332
#     4   9  18  33  53  78 110 149 193 238 280 330
#     4  10  23  42  59  79 114 155 188 226 284 344
#     4   8  15  30  52  79 112 143 171 219 285 335
#     4   8  14  26  47  76 111 149 185 226 277 330
#
# _framework density 24.898240999999999
#
# number of rings (size 3 to 8) (size 9 to 14) (size 15 to 20)
#    0.000    3.000    0.000    1.200    2.800    2.000 
#    0.000    2.000    0.000    7.200    0.000    5.600 
#    0.000    0.000    0.000    0.000    0.000    0.000 
#
# Total GULP energy -223075.858563 kJ/mol
# GULP energy per Si atom -5576.896464 kJ/mol
# Density = 2.484157 g / cm^3
# Si number density = 24.898241 Si / 1000 Ang^3
#
#
#
# Elastic Constant Matrix: (Units=GPa)
#
#
# Indices 1 2 3 4 5 6 
#
# 1 52.1920 -3.3944 8.1390 0.0000 0.0000 0.0000
# 2 -3.3944 84.1761 26.6222 0.0000 0.0000 0.0000
# 3 8.1390 26.6222 169.8923 0.0000 0.0000 0.0000
# 4 0.0000 0.0000 0.0000 25.4288 0.0000 0.0000
# 5 0.0000 0.0000 0.0000 0.0000 39.6747 0.0000
# 6 0.0000 0.0000 0.0000 0.0000 0.0000 4.9989
#
#
#
# Elastic Compliance Matrix: (Units=1/GPa)
#
#
# Indices 1 2 3 4 5 6 
#
# 1 0.019406 0.001133 -0.001107 0.000000 0.000000 0.000000
# 2 0.001133 0.012565 -0.002023 0.000000 0.000000 0.000000
# 3 -0.001107 -0.002023 0.006256 0.000000 0.000000 0.000000
# 4 0.000000 0.000000 0.000000 0.039325 0.000000 0.000000
# 5 0.000000 0.000000 0.000000 0.000000 0.025205 0.000000
# 6 0.000000 0.000000 0.000000 0.000000 0.000000 0.200045
#
#
# Mechanical properties :
#
#
# Convention : Reuss Voigt Hill
#
# Bulk Modulus (GPa) = 29.21203 40.99934 35.10569
# Shear Modulus (GPa) = 15.71290 32.34671 24.02980
#
# Velocity S-wave (km/s) = 2.51487 3.60829 3.11001
# Velocity P-wave (km/s) = 4.49341 5.81912 5.19870
#
# Compressibility (1/GPa) = 0.03423247
#
# Stress axis : x y z
#
# Youngs Moduli (GPa) = 51.52950 79.58348 159.84214
#
# Poissons Ratio (x) = -0.09015 0.17698
# Poissons Ratio (y) = -0.05837 0.32340
# Poissons Ratio (z) = 0.05705 0.16102
#
# Static dielectric constant tensor:
#      x y z
#    x 1.923240 0.000000 0.000000 
#    y 0.000000 2.115610 0.000000 
#    z 0.000000 0.000000 2.003290 
# 
# From -- ./inp_files/24570.got.cif
#   From: 2010.05.17/outbox.cif.g08.bks.cpg/sg69_13_cif.got.tgz:24570.got - 2010.06.03 19:29:58.
