data_PCOD9513313
_publ_section_title
;
Structure prediction by ZEFSAII (Michael W. Deem and Ramdas Pophale) SiO2 
 PCOD9513313
Probable space group: F M M M
;
_chemical_formula_sum "Si O2"
_cell_formula_units_Z 136
_cell_length_a 20.237006
_cell_length_b 29.437322
_cell_length_c 11.050449
_cell_angle_alpha 90.000000
_cell_angle_beta 90.000000
_cell_angle_gamma 90.000000
_cell_volume 6583.009524
_symmetry_space_group_name_H-M "F M M M"
_symmetry_group_IT_number 69
_symmetry_cell_setting 'orthorhombic'
loop_
_space_group_symop_operation_xyz
x,y,z
-x,-y,z
x,-y,-z
-x,y,-z
-x,-y,-z
x,y,-z
-x,y,z
x,-y,z
x,1/2+y,1/2+z
-x,1/2-y,1/2+z
x,1/2-y,1/2-z
-x,1/2+y,1/2-z
-x,1/2-y,1/2-z
x,1/2+y,1/2-z
-x,1/2+y,1/2+z
x,1/2-y,1/2+z
1/2+x,y,1/2+z
1/2-x,-y,1/2+z
1/2+x,-y,1/2-z
1/2-x,y,1/2-z
1/2-x,-y,1/2-z
1/2+x,y,1/2-z
1/2-x,y,1/2+z
1/2+x,-y,1/2+z
1/2+x,1/2+y,z
1/2-x,1/2-y,z
1/2+x,1/2-y,-z
1/2-x,1/2+y,-z
1/2-x,1/2-y,-z
1/2+x,1/2+y,-z
1/2-x,1/2+y,z
1/2+x,1/2-y,z
loop_
_atom_site_type_symbol
_atom_site_label
_atom_site_fract_x
_atom_site_fract_y
_atom_site_fract_z
Si Si1 0.205246 0.000000 0.865590
Si Si2 0.850306 0.822844 0.859936
Si Si3 0.079203 0.445488 0.000000
Si Si4 0.000000 0.052700 0.857270
Si Si5 0.750000 0.750000 0.250000
Si Si6 0.500000 0.214804 0.639800
Si Si7 0.867797 0.915627 0.242571
O O1 0.250000 0.000000 0.750000
O O2 0.165549 0.045932 0.840807
O O3 0.233792 0.000000 0.000000
O O4 0.800265 0.782278 0.825335
O O5 0.836838 0.866548 0.776180
O O6 0.928484 0.810053 0.847846
O O7 0.839823 0.835437 0.000000
O O8 0.119407 0.429424 0.118514
O O9 0.078252 0.500000 0.000000
O O10 0.000000 0.431386 0.000000
O O11 0.939797 0.082208 0.813532
O O12 0.000000 0.000000 0.807178
O O13 0.000000 0.048212 0.000000
O O14 0.500000 0.232926 0.500000
O O15 0.500000 0.250000 0.750000
#
# Coordination Sequence:
#
# PCOD9513313 Si02
#       7
#    16  32  16  16   8  16  32
#     4  12  28  45  66  97 139 190 240 290 345 416
#     4  11  25  47  74 104 138 182 237 298 366 435
#     4  11  22  42  68 107 152 190 228 285 356 417
#     4  11  19  34  66 104 138 176 220 283 351 420
#     4  12  26  50  76 104 140 180 232 308 382 448
#     4  10  21  45  73 103 139 175 228 298 364 431
#     4  12  24  44  69 100 142 183 236 284 346 427
#
# _framework density 20.659243
#
# number of rings (size 3 to 8) (size 9 to 14) (size 15 to 20)
#    0.000    0.706    4.706    3.176    3.294    0.941 
#    6.353    0.000    0.000    0.000    0.000    0.000 
#    0.000    0.000    0.000    0.000    0.000    0.000 
#
# Total GULP energy -189632.437837 kJ/mol
# GULP energy per Si atom -5577.424642 kJ/mol
# Density = 2.061222 g / cm^3
# Si number density = 20.659243 Si / 1000 Ang^3
#
#
#
# Elastic Constant Matrix: (Units=GPa)
#
#
# Indices 1 2 3 4 5 6 
#
# 1 84.4500 29.2385 20.6369 0.0000 0.0000 0.0000
# 2 29.2385 119.6242 51.4408 0.0000 0.0000 0.0000
# 3 20.6369 51.4408 155.2731 0.0000 0.0000 0.0000
# 4 0.0000 0.0000 0.0000 33.4726 0.0000 0.0000
# 5 0.0000 0.0000 0.0000 0.0000 27.9453 0.0000
# 6 0.0000 0.0000 0.0000 0.0000 0.0000 141.8019
#
#
#
# Elastic Compliance Matrix: (Units=1/GPa)
#
#
# Indices 1 2 3 4 5 6 
#
# 1 0.013018 -0.002843 -0.000788 0.000000 0.000000 0.000000
# 2 -0.002843 0.010369 -0.003057 0.000000 0.000000 0.000000
# 3 -0.000788 -0.003057 0.007558 0.000000 0.000000 0.000000
# 4 0.000000 0.000000 0.000000 0.029875 0.000000 0.000000
# 5 0.000000 0.000000 0.000000 0.000000 0.035784 0.000000
# 6 0.000000 0.000000 0.000000 0.000000 0.000000 0.007052
#
#
# Mechanical properties :
#
#
# Convention : Reuss Voigt Hill
#
# Bulk Modulus (GPa) = 56.92168 62.44218 59.68193
# Shear Modulus (GPa) = 40.68679 57.84604 49.26642
#
# Velocity S-wave (km/s) = 4.44263 5.29725 4.88865
# Velocity P-wave (km/s) = 7.34360 8.22830 7.79850
#
# Compressibility (1/GPa) = 0.01756800
#
# Stress axis : x y z
#
# Youngs Moduli (GPa) = 76.81520 96.44040 132.31137
#
# Poissons Ratio (x) = 0.27417 0.10431
# Poissons Ratio (y) = 0.21838 0.40452
# Poissons Ratio (z) = 0.06056 0.29485
#
# Static dielectric constant tensor:
#      x y z
#    x 1.755730 0.000000 0.000000 
#    y 0.000000 1.623440 0.000000 
#    z 0.000000 0.000000 1.784640 
# 
# From -- ./inp_files/9521.got.cif
#   From: 2010.05.17/outbox.cif.g08.bks.cpg/sg69_5_cif.got.tgz:9521.got - 2010.06.03 19:29:58.
