data_PCOD9513090
_publ_section_title
;
Structure prediction by ZEFSAII (Michael W. Deem and Ramdas Pophale) SiO2 
 PCOD9513090
Probable space group: F M M M
;
_chemical_formula_sum "Si O2"
_cell_formula_units_Z 200
_cell_length_a 20.074406
_cell_length_b 29.062061
_cell_length_c 20.205358
_cell_angle_alpha 90.000000
_cell_angle_beta 90.000000
_cell_angle_gamma 90.000000
_cell_volume 11787.878833
_symmetry_space_group_name_H-M "F M M M"
_symmetry_group_IT_number 69
_symmetry_cell_setting 'orthorhombic'
loop_
_space_group_symop_operation_xyz
x,y,z
-x,-y,z
x,-y,-z
-x,y,-z
-x,-y,-z
x,y,-z
-x,y,z
x,-y,z
x,1/2+y,1/2+z
-x,1/2-y,1/2+z
x,1/2-y,1/2-z
-x,1/2+y,1/2-z
-x,1/2-y,1/2-z
x,1/2+y,1/2-z
-x,1/2+y,1/2+z
x,1/2-y,1/2+z
1/2+x,y,1/2+z
1/2-x,-y,1/2+z
1/2+x,-y,1/2-z
1/2-x,y,1/2-z
1/2-x,-y,1/2-z
1/2+x,y,1/2-z
1/2-x,y,1/2+z
1/2+x,-y,1/2+z
1/2+x,1/2+y,z
1/2-x,1/2-y,z
1/2+x,1/2-y,-z
1/2-x,1/2+y,-z
1/2-x,1/2-y,-z
1/2+x,1/2+y,-z
1/2-x,1/2+y,z
1/2+x,1/2-y,z
loop_
_atom_site_type_symbol
_atom_site_label
_atom_site_fract_x
_atom_site_fract_y
_atom_site_fract_z
Si Si1 0.422178 0.446429 0.284561
Si Si2 0.737769 0.123164 0.423713
Si Si3 0.390087 0.135160 0.882360
Si Si4 0.197790 0.054250 0.190856
Si Si5 0.078941 0.769075 0.323134
Si Si6 0.681108 0.223896 0.422723
Si Si7 0.000000 0.141988 0.500000
O O1 0.500000 0.440818 0.268961
O O2 0.410617 0.500000 0.303389
O O3 0.403563 0.412333 0.343822
O O4 0.374639 0.436818 0.222353
O O5 0.732395 0.108050 0.500000
O O6 0.814674 0.135225 0.408443
O O7 0.713899 0.085138 0.371957
O O8 0.695474 0.169862 0.415611
O O9 0.401655 0.177558 0.832241
O O10 0.441802 0.141119 0.941962
O O11 0.250000 0.064450 0.250000
O O12 0.203693 0.000000 0.175406
O O13 0.093174 0.750000 0.250000
O O14 0.122279 0.741608 0.376652
O O15 0.000000 0.764213 0.335540
O O16 0.666741 0.234164 0.500000
O O17 0.750000 0.250000 0.405725
#
# Coordination Sequence:
#
# PCOD9513090 Si02
#       7
#    32  32  32  32  32  32   8
#     4  10  21  39  61  87 121 158 197 242 294 350
#     4  11  23  38  59  87 120 155 198 249 297 348
#     4  12  22  38  61  88 121 157 197 238 295 368
#     4  10  21  37  60  88 117 158 203 240 293 356
#     4  11  25  40  58  87 119 153 198 246 295 346
#     4  10  22  39  59  82 113 154 199 240 290 353
#     4  12  24  36  63  94 120 164 196 224 303 390
#
# _framework density 16.966581000000001
#
# number of rings (size 3 to 8) (size 9 to 14) (size 15 to 20)
#    0.000    1.280    5.600    0.000    3.360    0.960 
#    0.000    0.800    0.000    1.440    0.000    2.240 
#    0.000    0.000    0.000    0.000    0.000    0.000 
#
# Total GULP energy -278697.226534 kJ/mol
# GULP energy per Si atom -5573.944531 kJ/mol
# Density = 1.692796 g / cm^3
# Si number density = 16.966581 Si / 1000 Ang^3
#
#
#
# Elastic Constant Matrix: (Units=GPa)
#
#
# Indices 1 2 3 4 5 6 
#
# 1 65.0567 30.3327 37.0154 0.0000 0.0000 0.0000
# 2 30.3327 77.3650 67.7011 0.0000 0.0000 0.0000
# 3 37.0154 67.7011 107.4019 0.0000 0.0000 0.0000
# 4 0.0000 0.0000 0.0000 24.8695 0.0000 0.0000
# 5 0.0000 0.0000 0.0000 0.0000 33.9924 0.0000
# 6 0.0000 0.0000 0.0000 0.0000 0.0000 21.9952
#
#
#
# Elastic Compliance Matrix: (Units=1/GPa)
#
#
# Indices 1 2 3 4 5 6 
#
# 1 0.019651 -0.003965 -0.004273 0.000000 0.000000 0.000000
# 2 -0.003965 0.029627 -0.017309 0.000000 0.000000 0.000000
# 3 -0.004273 -0.017309 0.021694 0.000000 0.000000 0.000000
# 4 0.000000 0.000000 0.000000 0.040210 0.000000 0.000000
# 5 0.000000 0.000000 0.000000 0.000000 0.029418 0.000000
# 6 0.000000 0.000000 0.000000 0.000000 0.000000 0.045465
#
#
# Mechanical properties :
#
#
# Convention : Reuss Voigt Hill
#
# Bulk Modulus (GPa) = 50.30704 57.76910 54.03807
# Shear Modulus (GPa) = 20.50970 23.82304 22.16637
#
# Velocity S-wave (km/s) = 3.48059 3.75122 3.61844
# Velocity P-wave (km/s) = 6.77257 7.27220 7.02683
#
# Compressibility (1/GPa) = 0.01987793
#
# Stress axis : x y z
#
# Youngs Moduli (GPa) = 50.88710 33.75251 46.09497
#
# Poissons Ratio (x) = 0.13384 0.19697
# Poissons Ratio (y) = 0.20179 0.79786
# Poissons Ratio (z) = 0.21745 0.58422
#
# Static dielectric constant tensor:
#      x y z
#    x 1.569820 0.000000 0.000000 
#    y 0.000000 1.576680 0.000000 
#    z 0.000000 0.000000 1.539720 
# 
# From -- ./inp_files/25157.got.cif
#   From: 2010.05.17/outbox.cif.g08.bks.cpg/sg69_13_cif.got.tgz:25157.got - 2010.06.03 19:29:58.
