data_PCOD9513475
_publ_section_title
;
Structure prediction by ZEFSAII (Michael W. Deem and Ramdas Pophale) SiO2 
 PCOD9513475
Probable space group: F M M M
;
_chemical_formula_sum "Si O2"
_cell_formula_units_Z 224
_cell_length_a 18.795005
_cell_length_b 30.384567
_cell_length_c 20.453008
_cell_angle_alpha 90.000000
_cell_angle_beta 90.000000
_cell_angle_gamma 90.000000
_cell_volume 11680.264717
_symmetry_space_group_name_H-M "F M M M"
_symmetry_group_IT_number 69
_symmetry_cell_setting 'orthorhombic'
loop_
_space_group_symop_operation_xyz
x,y,z
-x,-y,z
x,-y,-z
-x,y,-z
-x,-y,-z
x,y,-z
-x,y,z
x,-y,z
x,1/2+y,1/2+z
-x,1/2-y,1/2+z
x,1/2-y,1/2-z
-x,1/2+y,1/2-z
-x,1/2-y,1/2-z
x,1/2+y,1/2-z
-x,1/2+y,1/2+z
x,1/2-y,1/2+z
1/2+x,y,1/2+z
1/2-x,-y,1/2+z
1/2+x,-y,1/2-z
1/2-x,y,1/2-z
1/2-x,-y,1/2-z
1/2+x,y,1/2-z
1/2-x,y,1/2+z
1/2+x,-y,1/2+z
1/2+x,1/2+y,z
1/2-x,1/2-y,z
1/2+x,1/2-y,-z
1/2-x,1/2+y,-z
1/2-x,1/2-y,-z
1/2+x,1/2+y,-z
1/2-x,1/2+y,z
1/2+x,1/2-y,z
loop_
_atom_site_type_symbol
_atom_site_label
_atom_site_fract_x
_atom_site_fract_y
_atom_site_fract_z
Si Si1 0.416836 0.857301 0.368017
Si Si2 0.168543 0.624796 0.234862
Si Si3 0.674504 0.724619 0.313291
Si Si4 0.835713 0.946860 0.632121
Si Si5 0.920243 0.946926 0.500000
Si Si6 0.816363 0.075856 0.075906
Si Si7 0.418655 0.740781 0.923921
Si Si8 0.420667 0.500000 0.079716
O O1 0.500000 0.872513 0.373658
O O2 0.382413 0.867263 0.297244
O O3 0.358675 0.878990 0.416202
O O4 0.417519 0.806370 0.387884
O O5 0.250000 0.611371 0.250000
O O6 0.178459 0.672968 0.202186
O O7 0.139159 0.585395 0.189783
O O8 0.641125 0.750000 0.250000
O O9 0.750000 0.750000 0.321101
O O10 0.631544 0.729683 0.379800
O O11 0.879237 0.935931 0.566330
O O12 0.754758 0.932695 0.615806
O O13 0.839332 0.000000 0.644344
O O14 0.000000 0.928930 0.500000
O O15 0.923957 0.000000 0.500000
O O16 0.875732 0.041765 0.099913
O O17 0.799785 0.067020 0.000000
O O18 0.500000 0.756879 0.922317
O O19 0.397756 0.736759 0.000000
O O20 0.500000 0.500000 0.105035
O O21 0.423826 0.500000 0.000000
#
# Coordination Sequence:
#
# PCOD9513475 Si02
#       8
#    32  32  32  32  16  32  32  16
#     4  11  23  39  60  88 124 167 209 252 313 380
#     4  12  23  41  63  90 123 165 216 257 313 379
#     4  11  21  40  66  91 124 168 211 262 308 376
#     4  11  23  40  66  94 123 162 210 263 319 377
#     4   9  20  42  70  94 121 162 212 268 329 384
#     4  11  20  34  59  88 121 158 206 256 304 376
#     4  10  22  41  65  94 127 164 207 259 316 377
#     4   9  18  30  48  77 116 158 196 248 307 355
#
# _framework density 19.177647
#
# number of rings (size 3 to 8) (size 9 to 14) (size 15 to 20)
#    0.000    1.286    5.714    0.857    0.000    3.429 
#    2.571    0.000    0.000    0.000    0.000    0.000 
#    0.000    0.000    0.000    0.000    0.000    0.000 
#
# Total GULP energy -312199.689469 kJ/mol
# GULP energy per Si atom -5574.994455 kJ/mol
# Density = 1.913400 g / cm^3
# Si number density = 19.177647 Si / 1000 Ang^3
#
#
#
# Elastic Constant Matrix: (Units=GPa)
#
#
# Indices 1 2 3 4 5 6 
#
# 1 80.3319 8.5681 40.2861 0.0000 0.0000 0.0000
# 2 8.5681 56.7565 29.7389 0.0000 0.0000 0.0000
# 3 40.2861 29.7389 126.3986 0.0000 0.0000 0.0000
# 4 0.0000 0.0000 0.0000 32.3620 0.0000 0.0000
# 5 0.0000 0.0000 0.0000 0.0000 26.5704 0.0000
# 6 0.0000 0.0000 0.0000 0.0000 0.0000 14.6511
#
#
#
# Elastic Compliance Matrix: (Units=1/GPa)
#
#
# Indices 1 2 3 4 5 6 
#
# 1 0.014820 0.000271 -0.004787 0.000000 0.000000 0.000000
# 2 0.000271 0.020102 -0.004816 0.000000 0.000000 0.000000
# 3 -0.004787 -0.004816 0.010570 0.000000 0.000000 0.000000
# 4 0.000000 0.000000 0.000000 0.030900 0.000000 0.000000
# 5 0.000000 0.000000 0.000000 0.000000 0.037636 0.000000
# 6 0.000000 0.000000 0.000000 0.000000 0.000000 0.068254
#
#
# Mechanical properties :
#
#
# Convention : Reuss Voigt Hill
#
# Bulk Modulus (GPa) = 37.27442 46.74147 42.00795
# Shear Modulus (GPa) = 23.82203 27.04295 25.43249
#
# Velocity S-wave (km/s) = 3.52828 3.75924 3.64559
# Velocity P-wave (km/s) = 6.00640 6.57787 6.29862
#
# Compressibility (1/GPa) = 0.02682805
#
# Stress axis : x y z
#
# Youngs Moduli (GPa) = 67.47518 49.74725 94.60387
#
# Poissons Ratio (x) = -0.01349 0.45290
# Poissons Ratio (y) = -0.01829 0.45560
# Poissons Ratio (z) = 0.32303 0.23958
#
# Static dielectric constant tensor:
#      x y z
#    x 1.671280 0.000000 0.000000 
#    y 0.000000 1.778000 0.000000 
#    z 0.000000 0.000000 1.689020 
# 
# From -- ./inp_files/31207.got.cif
#   From: 2010.05.17/outbox.cif.g08.bks.cpg/sg69_16_cif.got.tgz:31207.got - 2010.06.03 19:29:58.
