data_PCOD9513792
_publ_section_title
;
Structure prediction by ZEFSAII (Michael W. Deem and Ramdas Pophale) SiO2 
 PCOD9513792
Probable space group: F M M M
;
_chemical_formula_sum "Si O2"
_cell_formula_units_Z 160
_cell_length_a 29.742495
_cell_length_b 32.739107
_cell_length_c 8.747691
_cell_angle_alpha 90.000000
_cell_angle_beta 90.000000
_cell_angle_gamma 90.000000
_cell_volume 8518.000483
_symmetry_space_group_name_H-M "F M M M"
_symmetry_group_IT_number 69
_symmetry_cell_setting 'orthorhombic'
loop_
_space_group_symop_operation_xyz
x,y,z
-x,-y,z
x,-y,-z
-x,y,-z
-x,-y,-z
x,y,-z
-x,y,z
x,-y,z
x,1/2+y,1/2+z
-x,1/2-y,1/2+z
x,1/2-y,1/2-z
-x,1/2+y,1/2-z
-x,1/2-y,1/2-z
x,1/2+y,1/2-z
-x,1/2+y,1/2+z
x,1/2-y,1/2+z
1/2+x,y,1/2+z
1/2-x,-y,1/2+z
1/2+x,-y,1/2-z
1/2-x,y,1/2-z
1/2-x,-y,1/2-z
1/2+x,y,1/2-z
1/2-x,y,1/2+z
1/2+x,-y,1/2+z
1/2+x,1/2+y,z
1/2-x,1/2-y,z
1/2+x,1/2-y,-z
1/2-x,1/2+y,-z
1/2-x,1/2-y,-z
1/2+x,1/2+y,-z
1/2-x,1/2+y,z
1/2+x,1/2-y,z
loop_
_atom_site_type_symbol
_atom_site_label
_atom_site_fract_x
_atom_site_fract_y
_atom_site_fract_z
Si Si1 0.924383 0.500000 0.179442
Si Si2 0.171271 0.000000 0.824563
Si Si3 0.369954 0.358035 0.324887
Si Si4 0.291348 0.422857 0.673641
Si Si5 0.551994 0.411498 0.181026
Si Si6 0.799329 0.204626 0.816358
O O1 0.871229 0.500000 0.212414
O O2 0.941384 0.457247 0.250760
O O3 0.934161 0.500000 0.000000
O O4 0.199824 0.039408 0.784141
O O5 0.156237 0.000000 0.000000
O O6 0.378473 0.344847 0.500000
O O7 0.335603 0.395961 0.328905
O O8 0.414625 0.377643 0.251469
O O9 0.340975 0.323750 0.236785
O O10 0.281670 0.435411 0.500000
O O11 0.250000 0.399387 0.750000
O O12 0.500000 0.400050 0.205321
O O13 0.560998 0.414236 0.000000
O O14 0.807176 0.250000 0.750000
O O15 0.750000 0.192442 0.750000
O O16 0.796532 0.205062 0.000000
#
# Coordination Sequence:
#
# PCOD9513792 Si02
#       6
#    16  16  32  32  32  32
#     4  12  23  38  59  84 114 153 202 254 306 358
#     4  12  23  36  55  75 107 150 195 244 292 346
#     4  11  23  39  61  88 120 155 196 244 297 354
#     4  11  23  37  54  78 111 151 195 239 287 347
#     4  11  24  41  62  88 118 155 201 252 305 359
#     4  11  22  39  64  94 129 163 201 242 289 350
#
# _framework density 18.783750000000001
#
# number of rings (size 3 to 8) (size 9 to 14) (size 15 to 20)
#    0.000    0.800    2.000    7.200    0.000    6.800 
#    0.000    0.000    0.000    0.600    0.000    0.000 
#    0.000    0.000    0.000    0.000    0.000    0.000 
#
# Total GULP energy -223438.788300 kJ/mol
# GULP energy per Si atom -5585.969708 kJ/mol
# Density = 1.874100 g / cm^3
# Si number density = 18.783750 Si / 1000 Ang^3
#
#
#
# Elastic Constant Matrix: (Units=GPa)
#
#
# Indices 1 2 3 4 5 6 
#
# 1 121.4480 48.8898 71.8666 0.0084 -0.0074 0.1145
# 2 48.8898 113.4451 59.7504 0.0236 -0.0160 -0.0925
# 3 71.8666 59.7504 160.1593 0.0292 -0.0325 0.0658
# 4 0.0084 0.0236 0.0292 24.3674 -0.0152 -0.0467
# 5 -0.0074 -0.0160 -0.0325 -0.0152 27.8091 -0.0339
# 6 0.1145 -0.0925 0.0658 -0.0467 -0.0339 -227.2986
#
#
#
# Elastic Compliance Matrix: (Units=1/GPa)
#
#
# Indices 1 2 3 4 5 6 
#
# 1 0.011926 -0.002889 -0.004274 0.000004 -0.000003 0.000006
# 2 -0.002889 0.011670 -0.003058 -0.000007 0.000002 -0.000007
# 3 -0.004274 -0.003058 0.009302 -0.000007 0.000008 0.000002
# 4 0.000004 -0.000007 -0.000007 0.041039 0.000022 -0.000008
# 5 -0.000003 0.000002 0.000008 0.000022 0.035959 -0.000005
# 6 0.000006 -0.000007 0.000002 -0.000008 -0.000005 -0.004399
#
#
# Mechanical properties :
#
#
# Convention : Reuss Voigt Hill
#
# Bulk Modulus (GPa) = 80.26764 84.00734 82.13749
# Shear Modulus (GPa) = 38.43528 -20.72138 8.85695
#
# Velocity S-wave (km/s) = 4.52840 -3.32498 2.17381
# Velocity P-wave (km/s) = 8.37658 5.48451 7.07979
#
# Compressibility (1/GPa) = 0.01245832
#
# Stress axis : x y z
#
# Youngs Moduli (GPa) = 83.85243 85.68929 107.50197
#
# Poissons Ratio (x) = 0.24752 0.45943
# Poissons Ratio (y) = 0.24221 0.32870
# Poissons Ratio (z) = 0.35836 0.26200
#
# Static dielectric constant tensor:
#      x y z
#    x 1.652730 0.000000 0.000010 
#    y 0.000000 1.659900 -0.000010 
#    z 0.000010 -0.000010 1.660220 
# 
# From -- ./inp_files/5758.got.cif
#   From: 2010.05.17/outbox.cif.g08.bks.cpg/sg69_3_cif.got.tgz:5758.got - 2010.06.03 19:29:58.
