data_PCOD9513963
_publ_section_title
;
Structure prediction by ZEFSAII (Michael W. Deem and Ramdas Pophale) SiO2 
 PCOD9513963
Probable space group: F M M M
;
_chemical_formula_sum "Si O2"
_cell_formula_units_Z 128
_cell_length_a 27.095499
_cell_length_b 16.996123
_cell_length_c 14.508642
_cell_angle_alpha 90.000000
_cell_angle_beta 90.000000
_cell_angle_gamma 90.000000
_cell_volume 6681.497090
_symmetry_space_group_name_H-M "F M M M"
_symmetry_group_IT_number 69
_symmetry_cell_setting 'orthorhombic'
loop_
_space_group_symop_operation_xyz
x,y,z
-x,-y,z
x,-y,-z
-x,y,-z
-x,-y,-z
x,y,-z
-x,y,z
x,-y,z
x,1/2+y,1/2+z
-x,1/2-y,1/2+z
x,1/2-y,1/2-z
-x,1/2+y,1/2-z
-x,1/2-y,1/2-z
x,1/2+y,1/2-z
-x,1/2+y,1/2+z
x,1/2-y,1/2+z
1/2+x,y,1/2+z
1/2-x,-y,1/2+z
1/2+x,-y,1/2-z
1/2-x,y,1/2-z
1/2-x,-y,1/2-z
1/2+x,y,1/2-z
1/2-x,y,1/2+z
1/2+x,-y,1/2+z
1/2+x,1/2+y,z
1/2-x,1/2-y,z
1/2+x,1/2-y,-z
1/2-x,1/2+y,-z
1/2-x,1/2-y,-z
1/2+x,1/2+y,-z
1/2-x,1/2+y,z
1/2+x,1/2-y,z
loop_
_atom_site_type_symbol
_atom_site_label
_atom_site_fract_x
_atom_site_fract_y
_atom_site_fract_z
Si Si1 0.944944 0.500000 0.612515
Si Si2 0.395090 0.168194 0.888792
Si Si3 0.000000 0.408299 0.888133
Si Si4 0.694214 0.345027 0.747230
Si Si5 0.617186 0.148457 0.609135
O O1 0.945076 0.500000 0.500000
O O2 0.919312 0.419513 0.641307
O O3 0.000000 0.500000 0.646091
O O4 0.447549 0.130356 0.860098
O O5 0.346345 0.137905 0.833519
O O6 0.398464 0.262097 0.869466
O O7 0.388717 0.157720 0.000000
O O8 0.000000 0.500000 0.864304
O O9 0.000000 0.401696 0.000000
O O10 0.697789 0.250000 0.750000
O O11 0.750000 0.376365 0.750000
O O12 0.668310 0.368731 0.841659
O O13 0.621727 0.143680 0.500000
#
# Coordination Sequence:
#
# PCOD9513963 Si02
#       5
#    16  32  16  32  32
#     4   9  18  32  51  74 105 139 172 212 254 304
#     4   9  18  33  55  80 105 138 174 211 261 313
#     4   9  18  34  55  77 108 140 171 215 259 308
#     4   9  18  34  53  77 106 134 175 221 257 305
#     4   9  18  33  52  76 105 137 173 211 257 307
#
# _framework density 19.157382999999999
#
# number of rings (size 3 to 8) (size 9 to 14) (size 15 to 20)
#    0.000    3.000    0.000    0.000    1.750    1.000 
#    4.500    7.500    0.000    0.000    0.000    0.000 
#    0.000    0.000    0.000    0.000    0.000    0.000 
#
# Total GULP energy -178178.793048 kJ/mol
# GULP energy per Si atom -5568.087283 kJ/mol
# Density = 1.911378 g / cm^3
# Si number density = 19.157383 Si / 1000 Ang^3
#
#
#
# Elastic Constant Matrix: (Units=GPa)
#
#
# Indices 1 2 3 4 5 6 
#
# 1 219.9748 81.7560 51.4267 0.0000 0.0000 0.0000
# 2 81.7560 68.4448 33.7061 0.0000 0.0000 0.0000
# 3 51.4267 33.7061 56.2656 0.0000 0.0000 0.0000
# 4 0.0000 0.0000 0.0000 7.6034 0.0000 0.0000
# 5 0.0000 0.0000 0.0000 0.0000 28.0573 0.0000
# 6 0.0000 0.0000 0.0000 0.0000 0.0000 -65.5598
#
#
#
# Elastic Compliance Matrix: (Units=1/GPa)
#
#
# Indices 1 2 3 4 5 6 
#
# 1 0.008391 -0.008860 -0.002362 0.000000 0.000000 0.000000
# 2 -0.008860 0.030079 -0.009921 0.000000 0.000000 0.000000
# 3 -0.002362 -0.009921 0.025875 0.000000 0.000000 0.000000
# 4 0.000000 0.000000 0.000000 0.131520 0.000000 0.000000
# 5 0.000000 0.000000 0.000000 0.000000 0.035641 0.000000
# 6 0.000000 0.000000 0.000000 0.000000 0.000000 -0.015253
#
#
# Mechanical properties :
#
#
# Convention : Reuss Voigt Hill
#
# Bulk Modulus (GPa) = 45.33230 75.38475 60.35852
# Shear Modulus (GPa) = 18.80474 5.87328 12.33901
#
# Velocity S-wave (km/s) = 3.13644 1.75284 2.54064
# Velocity P-wave (km/s) = 6.06884 6.59790 6.33889
#
# Compressibility (1/GPa) = 0.02205932
#
# Stress axis : x y z
#
# Youngs Moduli (GPa) = 119.17591 33.24607 38.64769
#
# Poissons Ratio (x) = 0.29455 0.09128
# Poissons Ratio (y) = 1.05587 0.38342
# Poissons Ratio (z) = 0.28148 0.32983
#
# Static dielectric constant tensor:
#      x y z
#    x 1.662650 0.000000 0.000000 
#    y 0.000000 1.811590 0.000000 
#    z 0.000000 0.000000 1.694780 
# 
# From -- ./inp_files/18638.got.cif
#   From: 2010.05.17/outbox.cif.g08.bks.cpg/sg69_10_cif.got.tgz:18638.got - 2010.06.03 19:29:58.
