data_PCOD9513081
_publ_section_title
;
Structure prediction by ZEFSAII (Michael W. Deem and Ramdas Pophale) SiO2 
 PCOD9513081
Probable space group: F M M M
;
_chemical_formula_sum "Si O2"
_cell_formula_units_Z 128
_cell_length_a 24.616328
_cell_length_b 22.727162
_cell_length_c 11.250320
_cell_angle_alpha 90.000000
_cell_angle_beta 90.000000
_cell_angle_gamma 90.000000
_cell_volume 6294.095863
_symmetry_space_group_name_H-M "F M M M"
_symmetry_group_IT_number 69
_symmetry_cell_setting 'orthorhombic'
loop_
_space_group_symop_operation_xyz
x,y,z
-x,-y,z
x,-y,-z
-x,y,-z
-x,-y,-z
x,y,-z
-x,y,z
x,-y,z
x,1/2+y,1/2+z
-x,1/2-y,1/2+z
x,1/2-y,1/2-z
-x,1/2+y,1/2-z
-x,1/2-y,1/2-z
x,1/2+y,1/2-z
-x,1/2+y,1/2+z
x,1/2-y,1/2+z
1/2+x,y,1/2+z
1/2-x,-y,1/2+z
1/2+x,-y,1/2-z
1/2-x,y,1/2-z
1/2-x,-y,1/2-z
1/2+x,y,1/2-z
1/2-x,y,1/2+z
1/2+x,-y,1/2+z
1/2+x,1/2+y,z
1/2-x,1/2-y,z
1/2+x,1/2-y,-z
1/2-x,1/2+y,-z
1/2-x,1/2-y,-z
1/2+x,1/2+y,-z
1/2-x,1/2+y,z
1/2+x,1/2-y,z
loop_
_atom_site_type_symbol
_atom_site_label
_atom_site_fract_x
_atom_site_fract_y
_atom_site_fract_z
Si Si1 0.559146 0.429227 0.500000
Si Si2 0.061549 0.362641 0.359710
Si Si3 0.881795 0.250000 0.750000
Si Si4 0.789812 0.175110 0.361436
Si Si5 0.360384 0.069284 0.210930
O O1 0.554459 0.500000 0.500000
O O2 0.500000 0.402033 0.500000
O O3 0.593600 0.414818 0.614489
O O4 0.059405 0.355552 0.500000
O O5 0.081460 0.301479 0.303321
O O6 0.109156 0.409256 0.329076
O O7 0.000000 0.379238 0.319459
O O8 0.841300 0.218634 0.655511
O O9 0.770483 0.178467 0.500000
O O10 0.750000 0.188257 0.250000
O O11 0.810467 0.109309 0.329938
O O12 0.348968 0.000000 0.209772
#
# Coordination Sequence:
#
# PCOD9513081 Si02
#       5
#    16  32  16  32  32
#     4   9  16  30  56  84 111 146 190 236 283 342
#     4  10  21  37  59  90 126 161 198 245 304 370
#     4  10  22  40  64  86 118 156 208 256 310 370
#     4  11  24  41  63  89 118 158 209 265 318 369
#     4  10  21  38  59  86 122 159 199 245 297 360
#
# _framework density 20.336518000000002
#
# number of rings (size 3 to 8) (size 9 to 14) (size 15 to 20)
#    0.000    1.875    1.250    2.250    0.000    8.500 
#    0.000    1.250    0.000    0.000    0.000    0.000 
#    0.000    0.000    0.000    0.000    0.000    0.000 
#
# Total GULP energy -178390.794622 kJ/mol
# GULP energy per Si atom -5574.712332 kJ/mol
# Density = 2.029023 g / cm^3
# Si number density = 20.336518 Si / 1000 Ang^3
#
#
#
# Elastic Constant Matrix: (Units=GPa)
#
#
# Indices 1 2 3 4 5 6 
#
# 1 53.5581 17.3389 37.5517 0.0000 0.0000 0.0000
# 2 17.3389 109.0306 13.8880 0.0000 0.0000 0.0000
# 3 37.5517 13.8880 115.5866 0.0000 0.0001 0.0000
# 4 0.0000 0.0000 0.0000 5.6212 0.0000 0.0000
# 5 0.0000 0.0000 0.0001 0.0000 33.7593 0.0000
# 6 0.0000 0.0000 0.0000 0.0000 0.0000 31.4813
#
#
#
# Elastic Compliance Matrix: (Units=1/GPa)
#
#
# Indices 1 2 3 4 5 6 
#
# 1 0.025109 -0.003000 -0.007797 0.000000 0.000000 0.000000
# 2 -0.003000 0.009673 -0.000188 0.000000 0.000000 0.000000
# 3 -0.007797 -0.000188 0.011207 0.000000 0.000000 0.000000
# 4 0.000000 0.000000 0.000000 0.177897 0.000000 0.000000
# 5 0.000000 0.000000 0.000000 0.000000 0.029622 0.000000
# 6 0.000000 0.000000 0.000000 0.000000 0.000000 0.031765
#
#
# Mechanical properties :
#
#
# Convention : Reuss Voigt Hill
#
# Bulk Modulus (GPa) = 41.63184 46.19250 43.91217
# Shear Modulus (GPa) = 15.86050 28.13213 21.99632
#
# Velocity S-wave (km/s) = 2.79570 3.72335 3.29236
# Velocity P-wave (km/s) = 5.56212 6.42245 6.00770
#
# Compressibility (1/GPa) = 0.02402008
#
# Stress axis : x y z
#
# Youngs Moduli (GPa) = 39.82583 103.38369 89.22867
#
# Poissons Ratio (x) = 0.31014 0.69572
# Poissons Ratio (y) = 0.11947 0.01674
# Poissons Ratio (z) = 0.31052 0.01939
#
# Static dielectric constant tensor:
#      x y z
#    x 1.794930 0.000000 0.000000 
#    y 0.000000 1.706570 0.000000 
#    z 0.000000 0.000000 1.795300 
# 
# From -- ./inp_files/10133.got.cif
#   From: 2010.05.17/outbox.cif.g08.bks.cpg/sg69_6_cif.got.tgz:10133.got - 2010.06.03 19:29:58.
