data_PCOD9513484
_publ_section_title
;
Structure prediction by ZEFSAII (Michael W. Deem and Ramdas Pophale) SiO2 
 PCOD9513484
Probable space group: F M M M
;
_chemical_formula_sum "Si O2"
_cell_formula_units_Z 184
_cell_length_a 20.576653
_cell_length_b 17.991092
_cell_length_c 26.468662
_cell_angle_alpha 90.000000
_cell_angle_beta 90.000000
_cell_angle_gamma 90.000000
_cell_volume 9798.604899
_symmetry_space_group_name_H-M "F M M M"
_symmetry_group_IT_number 69
_symmetry_cell_setting 'orthorhombic'
loop_
_space_group_symop_operation_xyz
x,y,z
-x,-y,z
x,-y,-z
-x,y,-z
-x,-y,-z
x,y,-z
-x,y,z
x,-y,z
x,1/2+y,1/2+z
-x,1/2-y,1/2+z
x,1/2-y,1/2-z
-x,1/2+y,1/2-z
-x,1/2-y,1/2-z
x,1/2+y,1/2-z
-x,1/2+y,1/2+z
x,1/2-y,1/2+z
1/2+x,y,1/2+z
1/2-x,-y,1/2+z
1/2+x,-y,1/2-z
1/2-x,y,1/2-z
1/2-x,-y,1/2-z
1/2+x,y,1/2-z
1/2-x,y,1/2+z
1/2+x,-y,1/2+z
1/2+x,1/2+y,z
1/2-x,1/2-y,z
1/2+x,1/2-y,-z
1/2-x,1/2+y,-z
1/2-x,1/2-y,-z
1/2+x,1/2+y,-z
1/2-x,1/2+y,z
1/2+x,1/2-y,z
loop_
_atom_site_type_symbol
_atom_site_label
_atom_site_fract_x
_atom_site_fract_y
_atom_site_fract_z
Si Si1 0.879079 0.844616 0.363796
Si Si2 0.000000 0.500000 0.237071
Si Si3 0.071743 0.000000 0.366490
Si Si4 0.753216 0.160119 0.807236
Si Si5 0.325860 0.273173 0.059042
Si Si6 0.000000 0.894866 0.834235
Si Si7 0.142660 0.414350 0.378379
Si Si8 0.000000 0.773475 0.691747
O O1 0.812206 0.860275 0.335416
O O2 0.867308 0.781349 0.405304
O O3 0.936121 0.817991 0.325882
O O4 0.897108 0.924565 0.384695
O O5 0.059625 0.500000 0.195831
O O6 0.000000 0.431118 0.277222
O O7 0.000000 0.000000 0.387290
O O8 0.750000 0.134807 0.750000
O O9 0.750000 0.250000 0.808091
O O10 0.815736 0.124864 0.833766
O O11 0.250000 0.250000 0.067696
O O12 0.341809 0.357570 0.075921
O O13 0.339377 0.263038 0.000000
O O14 0.066993 0.916332 0.862066
O O15 0.000000 0.806164 0.834691
O O16 0.163321 0.500000 0.386624
O O17 0.000000 0.750000 0.750000
#
# Coordination Sequence:
#
# PCOD9513484 Si02
#       8
#    32   8  16  32  32  16  32  16
#     4  12  22  43  63  95 127 171 219 266 322 387
#     4  10  22  42  52  98 138 192 198 260 310 384
#     4  10  24  38  61  93 138 167 211 257 316 381
#     4  11  24  38  59  91 134 171 215 264 316 380
#     4  11  24  47  72  95 126 166 217 281 341 388
#     4  12  22  38  63  88 136 169 222 251 309 383
#     4  12  24  42  64  96 129 172 213 270 321 388
#     4  12  24  35  67  94 127 181 220 246 313 395
#
# _framework density 18.778184
#
# number of rings (size 3 to 8) (size 9 to 14) (size 15 to 20)
#    0.261    0.348    6.957    1.043    8.522    0.696 
#    0.000    2.174    0.000    1.565    0.000    0.000 
#    0.000    0.000    0.000    0.000    0.000    0.000 
#
# Total GULP energy -256606.476928 kJ/mol
# GULP energy per Si atom -5578.401672 kJ/mol
# Density = 1.873544 g / cm^3
# Si number density = 18.778184 Si / 1000 Ang^3
#
#
#
# Elastic Constant Matrix: (Units=GPa)
#
#
# Indices 1 2 3 4 5 6 
#
# 1 114.9981 32.4907 38.6633 0.0000 0.0000 0.0000
# 2 32.4907 139.5380 22.0713 0.0000 0.0000 0.0000
# 3 38.6633 22.0713 98.7745 0.0000 0.0000 0.0000
# 4 0.0000 0.0000 0.0000 14.0213 0.0000 0.0000
# 5 0.0000 0.0000 0.0000 0.0000 44.6619 0.0000
# 6 0.0000 0.0000 0.0000 0.0000 0.0000 78.0653
#
#
#
# Elastic Compliance Matrix: (Units=1/GPa)
#
#
# Indices 1 2 3 4 5 6 
#
# 1 0.010456 -0.001853 -0.003679 0.000000 0.000000 0.000000
# 2 -0.001853 0.007757 -0.001008 0.000000 0.000000 0.000000
# 3 -0.003679 -0.001008 0.011789 0.000000 0.000000 0.000000
# 4 0.000000 0.000000 0.000000 0.071320 0.000000 0.000000
# 5 0.000000 0.000000 0.000000 0.000000 0.022390 0.000000
# 6 0.000000 0.000000 0.000000 0.000000 0.000000 0.012810
#
#
# Mechanical properties :
#
#
# Convention : Reuss Voigt Hill
#
# Bulk Modulus (GPa) = 59.09007 59.97347 59.53177
# Shear Modulus (GPa) = 32.20745 44.68874 38.44810
#
# Velocity S-wave (km/s) = 4.14593 4.88363 4.52983
# Velocity P-wave (km/s) = 7.37930 7.98793 7.68964
#
# Compressibility (1/GPa) = 0.01692332
#
# Stress axis : x y z
#
# Youngs Moduli (GPa) = 95.63784 128.90955 84.82230
#
# Poissons Ratio (x) = 0.23884 0.31205
# Poissons Ratio (y) = 0.17719 0.08552
# Poissons Ratio (z) = 0.35184 0.12996
#
# Static dielectric constant tensor:
#      x y z
#    x 1.644980 0.000000 0.000000 
#    y 0.000000 1.678280 0.000000 
#    z 0.000000 0.000000 1.640500 
# 
# From -- ./inp_files/42696.got.cif
#   From: 2010.05.17/outbox.cif.g08.bks.cpg/sg69_22_cif.got.tgz:42696.got - 2010.06.03 19:29:58.
