data_PCOD9513237
_publ_section_title
;
Structure prediction by ZEFSAII (Michael W. Deem and Ramdas Pophale) SiO2 
 PCOD9513237
Probable space group: F M M M
;
_chemical_formula_sum "Si O2"
_cell_formula_units_Z 104
_cell_length_a 21.176122
_cell_length_b 13.276783
_cell_length_c 19.024574
_cell_angle_alpha 90.000000
_cell_angle_beta 90.000000
_cell_angle_gamma 90.000000
_cell_volume 5348.773754
_symmetry_space_group_name_H-M "F M M M"
_symmetry_group_IT_number 69
_symmetry_cell_setting 'orthorhombic'
loop_
_space_group_symop_operation_xyz
x,y,z
-x,-y,z
x,-y,-z
-x,y,-z
-x,-y,-z
x,y,-z
-x,y,z
x,-y,z
x,1/2+y,1/2+z
-x,1/2-y,1/2+z
x,1/2-y,1/2-z
-x,1/2+y,1/2-z
-x,1/2-y,1/2-z
x,1/2+y,1/2-z
-x,1/2+y,1/2+z
x,1/2-y,1/2+z
1/2+x,y,1/2+z
1/2-x,-y,1/2+z
1/2+x,-y,1/2-z
1/2-x,y,1/2-z
1/2-x,-y,1/2-z
1/2+x,y,1/2-z
1/2-x,y,1/2+z
1/2+x,-y,1/2+z
1/2+x,1/2+y,z
1/2-x,1/2-y,z
1/2+x,1/2-y,-z
1/2-x,1/2+y,-z
1/2-x,1/2-y,-z
1/2+x,1/2+y,-z
1/2-x,1/2+y,z
1/2+x,1/2-y,z
loop_
_atom_site_type_symbol
_atom_site_label
_atom_site_fract_x
_atom_site_fract_y
_atom_site_fract_z
Si Si1 0.500000 0.000000 0.733282
Si Si2 0.107719 0.837959 0.804999
Si Si3 0.336185 0.000000 0.915619
Si Si4 0.429194 0.179299 0.083991
Si Si5 0.786299 0.000000 0.176402
O O1 0.555417 0.088073 0.727514
O O2 0.123396 0.750000 0.750000
O O3 0.080560 0.781492 0.873538
O O4 0.168436 0.903140 0.825875
O O5 0.377043 0.902414 0.894432
O O6 0.267483 0.000000 0.882389
O O7 0.332663 0.000000 0.000000
O O8 0.500000 0.139130 0.098436
O O9 0.424413 0.194676 0.000000
O O10 0.750000 0.000000 0.250000
#
# Coordination Sequence:
#
# PCOD9513237 Si02
#       5
#     8  32  16  32  16
#     4  10  22  40  59  92 121 148 202 252 304 364
#     4  11  23  41  64  89 123 160 202 251 308 363
#     4  10  22  40  62  91 126 164 205 248 295 359
#     4  10  21  39  63  93 123 158 203 254 306 354
#     4  11  25  42  59  89 126 164 204 249 299 360
#
# _framework density 19.443708999999998
#
# number of rings (size 3 to 8) (size 9 to 14) (size 15 to 20)
#    0.000    1.538    1.538    2.769    0.000    8.615 
#    0.000    6.154    0.000    0.000    0.000    0.000 
#    0.000    0.000    0.000    0.000    0.000    0.000 
#
# Total GULP energy -144853.392845 kJ/mol
# GULP energy per Si atom -5571.284340 kJ/mol
# Density = 1.939945 g / cm^3
# Si number density = 19.443709 Si / 1000 Ang^3
#
#
#
# Elastic Constant Matrix: (Units=GPa)
#
#
# Indices 1 2 3 4 5 6 
#
# 1 163.6763 68.2478 37.5445 0.0000 0.0000 0.0000
# 2 68.2478 135.0806 33.5734 0.0000 0.0000 0.0000
# 3 37.5445 33.5734 47.3790 0.0000 0.0000 0.0000
# 4 0.0000 0.0000 0.0000 16.0520 0.0000 0.0000
# 5 0.0000 0.0000 0.0000 0.0000 31.4833 0.0000
# 6 0.0000 0.0000 0.0000 0.0000 0.0000 27.4533
#
#
#
# Elastic Compliance Matrix: (Units=1/GPa)
#
#
# Indices 1 2 3 4 5 6 
#
# 1 0.008450 -0.003162 -0.004456 0.000000 0.000000 0.000000
# 2 -0.003162 0.010169 -0.004700 0.000000 0.000000 0.000000
# 3 -0.004456 -0.004700 0.027968 0.000000 0.000000 0.000000
# 4 0.000000 0.000000 0.000000 0.062297 0.000000 0.000000
# 5 0.000000 0.000000 0.000000 0.000000 0.031763 0.000000
# 6 0.000000 0.000000 0.000000 0.000000 0.000000 0.036425
#
#
# Mechanical properties :
#
#
# Convention : Reuss Voigt Hill
#
# Bulk Modulus (GPa) = 45.55523 69.42971 57.49247
# Shear Modulus (GPa) = 23.92068 28.78241 26.35154
#
# Velocity S-wave (km/s) = 3.51130 3.85163 3.68540
# Velocity P-wave (km/s) = 6.31816 7.45424 6.90959
#
# Compressibility (1/GPa) = 0.02195138
#
# Stress axis : x y z
#
# Youngs Moduli (GPa) = 118.34255 98.34134 35.75566
#
# Poissons Ratio (x) = 0.31095 0.15931
# Poissons Ratio (y) = 0.37419 0.16805
# Poissons Ratio (z) = 0.52728 0.46221
#
# Static dielectric constant tensor:
#      x y z
#    x 1.669670 0.000000 0.000000 
#    y 0.000000 1.658480 0.000000 
#    z 0.000000 0.000000 1.716620 
# 
# From -- ./inp_files/24023.got.cif
#   From: 2010.05.17/outbox.cif.g08.bks.cpg/sg69_13_cif.got.tgz:24023.got - 2010.06.03 19:29:58.
