data_PCOD9513897
_publ_section_title
;
Structure prediction by ZEFSAII (Michael W. Deem and Ramdas Pophale) SiO2 
 PCOD9513897
Probable space group: F M M M
;
_chemical_formula_sum "Si O2"
_cell_formula_units_Z 160
_cell_length_a 17.247160
_cell_length_b 16.117582
_cell_length_c 29.140903
_cell_angle_alpha 90.000000
_cell_angle_beta 90.000000
_cell_angle_gamma 90.000000
_cell_volume 8100.661522
_symmetry_space_group_name_H-M "F M M M"
_symmetry_group_IT_number 69
_symmetry_cell_setting 'orthorhombic'
loop_
_space_group_symop_operation_xyz
x,y,z
-x,-y,z
x,-y,-z
-x,y,-z
-x,-y,-z
x,y,-z
-x,y,z
x,-y,z
x,1/2+y,1/2+z
-x,1/2-y,1/2+z
x,1/2-y,1/2-z
-x,1/2+y,1/2-z
-x,1/2-y,1/2-z
x,1/2+y,1/2-z
-x,1/2+y,1/2+z
x,1/2-y,1/2+z
1/2+x,y,1/2+z
1/2-x,-y,1/2+z
1/2+x,-y,1/2-z
1/2-x,y,1/2-z
1/2-x,-y,1/2-z
1/2+x,y,1/2-z
1/2-x,y,1/2+z
1/2+x,-y,1/2+z
1/2+x,1/2+y,z
1/2-x,1/2-y,z
1/2+x,1/2-y,-z
1/2-x,1/2+y,-z
1/2-x,1/2-y,-z
1/2+x,1/2+y,-z
1/2-x,1/2+y,z
1/2+x,1/2-y,z
loop_
_atom_site_type_symbol
_atom_site_label
_atom_site_fract_x
_atom_site_fract_y
_atom_site_fract_z
Si Si1 0.167489 0.641726 0.552336
Si Si2 0.089493 0.402177 0.146346
Si Si3 0.161047 0.661198 0.233602
Si Si4 0.907884 0.000000 0.781798
Si Si5 0.906790 0.500000 0.387323
Si Si6 0.148267 0.162491 0.552302
O O1 0.148217 0.617070 0.500000
O O2 0.126697 0.580664 0.587379
O O3 0.143770 0.737830 0.557886
O O4 0.260805 0.638891 0.556733
O O5 0.103545 0.500000 0.153183
O O6 0.146590 0.350799 0.179390
O O7 0.102739 0.380325 0.093280
O O8 0.000000 0.384661 0.159063
O O9 0.129165 0.750000 0.250000
O O10 0.250000 0.658513 0.250000
O O11 0.120754 0.582622 0.256899
O O12 0.881302 0.000000 0.834477
O O13 0.000000 0.000000 0.781092
O O14 0.000000 0.500000 0.389496
O O15 0.123991 0.142037 0.500000
#
# Coordination Sequence:
#
# PCOD9513897 Si02
#       6
#    32  32  32  16  16  32
#     4   9  20  39  61  88 125 163 208 260 310 372
#     4  11  25  42  63  93 128 166 207 258 319 376
#     4  11  26  44  69  98 124 166 214 264 316 374
#     4  11  25  44  63  93 133 165 206 264 320 380
#     4  11  25  37  58  94 127 165 206 253 318 380
#     4   9  21  40  64  92 122 164 214 262 310 367
#
# _framework density 19.751474000000002
#
# number of rings (size 3 to 8) (size 9 to 14) (size 15 to 20)
#    0.000    1.800    1.000    2.400    7.000    5.600 
#    0.000    3.000    0.000    0.000    0.000    0.000 
#    0.000    0.000    0.000    0.000    0.000    0.000 
#
# Total GULP energy -223521.414292 kJ/mol
# GULP energy per Si atom -5588.035357 kJ/mol
# Density = 1.970652 g / cm^3
# Si number density = 19.751474 Si / 1000 Ang^3
#
#
#
# Elastic Constant Matrix: (Units=GPa)
#
#
# Indices 1 2 3 4 5 6 
#
# 1 30.7137 28.2046 32.6207 0.0000 0.0000 0.0000
# 2 28.2046 93.6846 54.3311 0.0000 0.0000 0.0000
# 3 32.6207 54.3311 130.0154 0.0000 0.0000 0.0000
# 4 0.0000 0.0000 0.0000 34.8079 0.0000 0.0000
# 5 0.0000 0.0000 0.0000 0.0000 24.2707 0.0000
# 6 0.0000 0.0000 0.0000 0.0000 0.0000 67.4315
#
#
#
# Elastic Compliance Matrix: (Units=1/GPa)
#
#
# Indices 1 2 3 4 5 6 
#
# 1 0.051184 -0.010509 -0.008451 0.000000 0.000000 0.000000
# 2 -0.010509 0.016246 -0.004152 0.000000 0.000000 0.000000
# 3 -0.008451 -0.004152 0.011547 0.000000 0.000000 0.000000
# 4 0.000000 0.000000 0.000000 0.028729 0.000000 0.000000
# 5 0.000000 0.000000 0.000000 0.000000 0.041202 0.000000
# 6 0.000000 0.000000 0.000000 0.000000 0.000000 0.014830
#
#
# Mechanical properties :
#
#
# Convention : Reuss Voigt Hill
#
# Bulk Modulus (GPa) = 30.53077 53.85850 42.19464
# Shear Modulus (GPa) = 22.63682 34.58584 28.61133
#
# Velocity S-wave (km/s) = 3.38906 4.18910 3.81013
# Velocity P-wave (km/s) = 5.55025 7.12217 6.38477
#
# Compressibility (1/GPa) = 0.03275384
#
# Stress axis : x y z
#
# Youngs Moduli (GPa) = 19.53723 61.55418 86.60387
#
# Poissons Ratio (x) = 0.64685 0.73187
# Poissons Ratio (y) = 0.20531 0.35960
# Poissons Ratio (z) = 0.16510 0.25559
#
# Static dielectric constant tensor:
#      x y z
#    x 1.689330 0.000000 0.000000 
#    y 0.000000 1.670860 0.000000 
#    z 0.000000 0.000000 1.695020 
# 
# From -- ./inp_files/41769.got.cif
#   From: 2010.05.17/outbox.cif.g08.bks.cpg/sg69_21_cif.got.tgz:41769.got - 2010.06.03 19:29:58.
