data_PCOD9513619
_publ_section_title
;
Structure prediction by ZEFSAII (Michael W. Deem and Ramdas Pophale) SiO2 
 PCOD9513619
Probable space group: F M M M
;
_chemical_formula_sum "Si O2"
_cell_formula_units_Z 144
_cell_length_a 20.399367
_cell_length_b 16.914325
_cell_length_c 24.048602
_cell_angle_alpha 90.000000
_cell_angle_beta 90.000000
_cell_angle_gamma 90.000000
_cell_volume 8297.766266
_symmetry_space_group_name_H-M "F M M M"
_symmetry_group_IT_number 69
_symmetry_cell_setting 'orthorhombic'
loop_
_space_group_symop_operation_xyz
x,y,z
-x,-y,z
x,-y,-z
-x,y,-z
-x,-y,-z
x,y,-z
-x,y,z
x,-y,z
x,1/2+y,1/2+z
-x,1/2-y,1/2+z
x,1/2-y,1/2-z
-x,1/2+y,1/2-z
-x,1/2-y,1/2-z
x,1/2+y,1/2-z
-x,1/2+y,1/2+z
x,1/2-y,1/2+z
1/2+x,y,1/2+z
1/2-x,-y,1/2+z
1/2+x,-y,1/2-z
1/2-x,y,1/2-z
1/2-x,-y,1/2-z
1/2+x,y,1/2-z
1/2-x,y,1/2+z
1/2+x,-y,1/2+z
1/2+x,1/2+y,z
1/2-x,1/2-y,z
1/2+x,1/2-y,-z
1/2-x,1/2+y,-z
1/2-x,1/2-y,-z
1/2+x,1/2+y,-z
1/2-x,1/2+y,z
1/2+x,1/2-y,z
loop_
_atom_site_type_symbol
_atom_site_label
_atom_site_fract_x
_atom_site_fract_y
_atom_site_fract_z
Si Si1 0.759289 0.411945 0.683245
Si Si2 0.579031 0.904263 0.000000
Si Si3 0.372478 0.360866 0.619260
Si Si4 0.622854 0.794350 0.688614
Si Si5 0.500000 0.096870 0.299042
Si Si6 0.000000 0.913929 0.678560
O O1 0.783013 0.500000 0.666862
O O2 0.750000 0.415001 0.750000
O O3 0.693197 0.393884 0.648557
O O4 0.810247 0.341275 0.677521
O O5 0.617616 0.871968 0.053865
O O6 0.500000 0.883661 0.000000
O O7 0.581668 0.000000 0.000000
O O8 0.382344 0.272857 0.642232
O O9 0.435396 0.405303 0.643755
O O10 0.623629 0.750000 0.750000
O O11 0.565934 0.859840 0.680826
O O12 0.500000 0.132946 0.235216
O O13 0.500000 0.000000 0.309369
O O14 0.000000 0.000000 0.703409
#
# Coordination Sequence:
#
# PCOD9513619 Si02
#       6
#    32  16  32  32  16  16
#     4  11  22  37  58  87 125 170 209 251 315 381
#     4  11  24  42  63  92 128 167 212 261 315 369
#     4  12  23  37  62  89 124 162 208 256 312 369
#     4  12  22  37  58  89 125 162 205 262 315 376
#     4  11  22  36  56  89 130 162 199 254 322 387
#     4  11  19  32  54  86 119 157 198 243 307 378
#
# _framework density 17.354068999999999
#
# number of rings (size 3 to 8) (size 9 to 14) (size 15 to 20)
#    0.000    0.556    5.556    4.333    0.000    3.556 
#    0.000    2.222    0.000    0.000    0.000    3.111 
#    0.000    0.000    0.000    0.000    0.000    0.000 
#
# Total GULP energy -200433.513805 kJ/mol
# GULP energy per Si atom -5567.597606 kJ/mol
# Density = 1.731457 g / cm^3
# Si number density = 17.354069 Si / 1000 Ang^3
#
#
#
# Elastic Constant Matrix: (Units=GPa)
#
#
# Indices 1 2 3 4 5 6 
#
# 1 118.8875 44.2448 46.3787 0.0000 0.0000 0.0000
# 2 44.2448 103.8592 45.8346 0.0000 0.0000 0.0000
# 3 46.3787 45.8346 121.3319 0.0000 0.0000 0.0000
# 4 0.0000 0.0000 0.0000 20.7373 0.0000 0.0000
# 5 0.0000 0.0000 0.0000 0.0000 37.7871 0.0000
# 6 0.0000 0.0000 0.0000 0.0000 0.0000 65.9731
#
#
#
# Elastic Compliance Matrix: (Units=1/GPa)
#
#
# Indices 1 2 3 4 5 6 
#
# 1 0.010763 -0.003324 -0.002859 0.000000 0.000000 0.000000
# 2 -0.003324 0.012581 -0.003482 0.000000 0.000000 0.000000
# 3 -0.002859 -0.003482 0.010650 0.000000 0.000000 0.000000
# 4 0.000000 0.000000 0.000000 0.048222 0.000000 0.000000
# 5 0.000000 0.000000 0.000000 0.000000 0.026464 0.000000
# 6 0.000000 0.000000 0.000000 0.000000 0.000000 0.015158
#
#
# Mechanical properties :
#
#
# Convention : Reuss Voigt Hill
#
# Bulk Modulus (GPa) = 68.18800 68.55499 68.37150
# Shear Modulus (GPa) = 33.77094 38.74086 36.25590
#
# Velocity S-wave (km/s) = 4.41613 4.72993 4.57572
# Velocity P-wave (km/s) = 8.08582 8.33181 8.20974
#
# Compressibility (1/GPa) = 0.01466534
#
# Stress axis : x y z
#
# Youngs Moduli (GPa) = 92.90695 79.48440 93.89641
#
# Poissons Ratio (x) = 0.26418 0.26842
# Poissons Ratio (y) = 0.30880 0.32696
# Poissons Ratio (z) = 0.26560 0.27678
#
# Static dielectric constant tensor:
#      x y z
#    x 1.658350 0.000000 0.000000 
#    y 0.000000 1.737020 0.000000 
#    z 0.000000 0.000000 1.628780 
# 
# From -- ./inp_files/25635.got.cif
#   From: 2010.05.17/outbox.cif.g08.bks.cpg/sg69_13_cif.got.tgz:25635.got - 2010.06.03 19:29:58.
