data_PCOD9513831
_publ_section_title
;
Structure prediction by ZEFSAII (Michael W. Deem and Ramdas Pophale) SiO2 
 PCOD9513831
Probable space group: F M M M
;
_chemical_formula_sum "Si O2"
_cell_formula_units_Z 168
_cell_length_a 33.115170
_cell_length_b 14.756305
_cell_length_c 19.096453
_cell_angle_alpha 90.000000
_cell_angle_beta 90.000000
_cell_angle_gamma 90.000000
_cell_volume 9331.625911
_symmetry_space_group_name_H-M "F M M M"
_symmetry_group_IT_number 69
_symmetry_cell_setting 'orthorhombic'
loop_
_space_group_symop_operation_xyz
x,y,z
-x,-y,z
x,-y,-z
-x,y,-z
-x,-y,-z
x,y,-z
-x,y,z
x,-y,z
x,1/2+y,1/2+z
-x,1/2-y,1/2+z
x,1/2-y,1/2-z
-x,1/2+y,1/2-z
-x,1/2-y,1/2-z
x,1/2+y,1/2-z
-x,1/2+y,1/2+z
x,1/2-y,1/2+z
1/2+x,y,1/2+z
1/2-x,-y,1/2+z
1/2+x,-y,1/2-z
1/2-x,y,1/2-z
1/2-x,-y,1/2-z
1/2+x,y,1/2-z
1/2-x,y,1/2+z
1/2+x,-y,1/2+z
1/2+x,1/2+y,z
1/2-x,1/2-y,z
1/2+x,1/2-y,-z
1/2-x,1/2+y,-z
1/2-x,1/2-y,-z
1/2+x,1/2+y,-z
1/2-x,1/2+y,z
1/2+x,1/2-y,z
loop_
_atom_site_type_symbol
_atom_site_label
_atom_site_fract_x
_atom_site_fract_y
_atom_site_fract_z
Si Si1 0.653741 0.106272 0.664486
Si Si2 0.760651 0.000000 0.500000
Si Si3 0.673068 0.893545 0.179150
Si Si4 0.880230 0.270633 0.084182
Si Si5 0.753831 0.145321 0.122324
Si Si6 0.953808 0.897614 0.584970
O O1 0.652084 0.128407 0.747041
O O2 0.626215 0.172822 0.618875
O O3 0.700291 0.123021 0.642643
O O4 0.644640 0.000000 0.654409
O O5 0.758798 0.078582 0.439299
O O6 0.654328 0.834419 0.117115
O O7 0.720579 0.872016 0.182523
O O8 0.667540 0.000000 0.165649
O O9 0.921882 0.321005 0.104688
O O10 0.877323 0.265997 0.000000
O O11 0.750000 0.250000 0.101978
O O12 0.953983 0.899243 0.500000
O O13 0.000000 0.881027 0.607562
O O14 0.941905 0.000000 0.607620
#
# Coordination Sequence:
#
# PCOD9513831 Si02
#       6
#    32   8  32  32  32  32
#     4  11  24  41  57  76 112 162 202 231 279 344
#     4  12  26  40  54  82 120 140 194 270 302 334
#     4  11  23  39  58  80 111 150 196 242 285 337
#     4  11  23  34  58  90 116 143 184 238 291 337
#     4  12  24  37  59  80 107 154 197 243 297 336
#     4   8  15  32  57  87 121 150 177 221 288 355
#
# _framework density 18.003291999999998
#
# number of rings (size 3 to 8) (size 9 to 14) (size 15 to 20)
#    0.000    1.333    3.810    2.571    2.667    3.810 
#    0.000    0.000    0.000    2.857    0.000    5.333 
#    0.000    0.000    0.000    0.000    0.000    0.000 
#
# Total GULP energy -233963.117872 kJ/mol
# GULP energy per Si atom -5570.550426 kJ/mol
# Density = 1.796232 g / cm^3
# Si number density = 18.003292 Si / 1000 Ang^3
#
#
#
# Elastic Constant Matrix: (Units=GPa)
#
#
# Indices 1 2 3 4 5 6 
#
# 1 81.4491 45.4692 21.5073 0.0000 0.0000 0.0000
# 2 45.4692 162.0439 59.1083 0.0000 0.0000 0.0000
# 3 21.5073 59.1083 80.5397 0.0000 0.0000 0.0000
# 4 0.0000 0.0000 0.0000 22.2131 0.0000 0.0000
# 5 0.0000 0.0000 0.0000 0.0000 13.4289 0.0000
# 6 0.0000 0.0000 0.0000 0.0000 0.0000 27.0885
#
#
#
# Elastic Compliance Matrix: (Units=1/GPa)
#
#
# Indices 1 2 3 4 5 6 
#
# 1 0.014646 -0.003664 -0.001222 0.000000 0.000000 0.000000
# 2 -0.003664 0.009344 -0.005879 0.000000 0.000000 0.000000
# 3 -0.001222 -0.005879 0.017057 0.000000 0.000000 0.000000
# 4 0.000000 0.000000 0.000000 0.045018 0.000000 0.000000
# 5 0.000000 0.000000 0.000000 0.000000 0.074466 0.000000
# 6 0.000000 0.000000 0.000000 0.000000 0.000000 0.036916
#
#
# Mechanical properties :
#
#
# Convention : Reuss Voigt Hill
#
# Bulk Modulus (GPa) = 51.23796 64.02246 57.63021
# Shear Modulus (GPa) = 22.17467 25.74264 23.95865
#
# Velocity S-wave (km/s) = 3.51337 3.78548 3.65196
# Velocity P-wave (km/s) = 6.70675 7.39900 7.06136
#
# Compressibility (1/GPa) = 0.01951678
#
# Stress axis : x y z
#
# Youngs Moduli (GPa) = 68.27988 107.02439 58.62626
#
# Poissons Ratio (x) = 0.39211 0.07165
# Poissons Ratio (y) = 0.25016 0.34466
# Poissons Ratio (z) = 0.08345 0.62919
#
# Static dielectric constant tensor:
#      x y z
#    x 1.627120 0.000000 0.000000 
#    y 0.000000 1.622420 0.000000 
#    z 0.000000 0.000000 1.622240 
# 
# From -- ./inp_files/33884.got.cif
#   From: 2010.05.17/outbox.cif.g08.bks.cpg/sg69_17_cif.got.tgz:33884.got - 2010.06.03 19:29:58.
