data_PCOD9513932
_publ_section_title
;
Structure prediction by ZEFSAII (Michael W. Deem and Ramdas Pophale) SiO2 
 PCOD9513932
Probable space group: F M M M
;
_chemical_formula_sum "Si O2"
_cell_formula_units_Z 72
_cell_length_a 8.149680
_cell_length_b 24.890970
_cell_length_c 15.278994
_cell_angle_alpha 90.000000
_cell_angle_beta 90.000000
_cell_angle_gamma 90.000000
_cell_volume 3099.396499
_symmetry_space_group_name_H-M "F M M M"
_symmetry_group_IT_number 69
_symmetry_cell_setting 'orthorhombic'
loop_
_space_group_symop_operation_xyz
x,y,z
-x,-y,z
x,-y,-z
-x,y,-z
-x,-y,-z
x,y,-z
-x,y,z
x,-y,z
x,1/2+y,1/2+z
-x,1/2-y,1/2+z
x,1/2-y,1/2-z
-x,1/2+y,1/2-z
-x,1/2-y,1/2-z
x,1/2+y,1/2-z
-x,1/2+y,1/2+z
x,1/2-y,1/2+z
1/2+x,y,1/2+z
1/2-x,-y,1/2+z
1/2+x,-y,1/2-z
1/2-x,y,1/2-z
1/2-x,-y,1/2-z
1/2+x,y,1/2-z
1/2-x,y,1/2+z
1/2+x,-y,1/2+z
1/2+x,1/2+y,z
1/2-x,1/2-y,z
1/2+x,1/2-y,-z
1/2-x,1/2+y,-z
1/2-x,1/2-y,-z
1/2+x,1/2+y,-z
1/2-x,1/2+y,z
1/2+x,1/2-y,z
loop_
_atom_site_type_symbol
_atom_site_label
_atom_site_fract_x
_atom_site_fract_y
_atom_site_fract_z
Si Si1 0.694449 0.559388 0.605376
Si Si2 0.190511 0.674012 0.345926
Si Si3 0.250000 0.750000 0.000000
O O1 0.712624 0.561330 0.500000
O O2 0.500000 0.564311 0.624533
O O3 0.750127 0.500000 0.634367
O O4 0.786098 0.610153 0.644442
O O5 0.250000 0.689341 0.250000
O O6 0.282845 0.704830 0.422979
O O7 0.000000 0.687631 0.359696
#
# Coordination Sequence:
#
# PCOD9513932 Si02
#       3
#    32  32   8
#     4   9  19  39  69 103 139 180 223 274 339 405
#     4  12  27  46  71 104 137 179 229 281 342 406
#     4  12  28  48  70  96 130 178 230 286 342 400
#
# _framework density 23.230328
#
# number of rings (size 3 to 8) (size 9 to 14) (size 15 to 20)
#    0.000    1.333    2.222    4.000    0.000   10.667 
#    0.000    2.222    0.000    0.000    0.000    0.000 
#    0.000    0.000    0.000    0.000    0.000    0.000 
#
# Total GULP energy -100233.712048 kJ/mol
# GULP energy per Si atom -5568.539558 kJ/mol
# Density = 2.317746 g / cm^3
# Si number density = 23.230328 Si / 1000 Ang^3
#
#
#
# Elastic Constant Matrix: (Units=GPa)
#
#
# Indices 1 2 3 4 5 6 
#
# 1 40.9029 15.4601 16.0940 0.0000 0.0000 0.0000
# 2 15.4601 165.6858 51.8529 0.0000 0.0000 0.0000
# 3 16.0940 51.8529 168.1675 0.0000 0.0000 0.0000
# 4 0.0000 0.0000 0.0000 -950.1364 0.0000 0.0000
# 5 0.0000 0.0000 0.0000 0.0000 -2.6636 0.0000
# 6 0.0000 0.0000 0.0000 0.0000 0.0000 -3.4153
#
#
#
# Elastic Compliance Matrix: (Units=1/GPa)
#
#
# Indices 1 2 3 4 5 6 
#
# 1 0.025889 -0.001815 -0.001918 0.000000 0.000000 0.000000
# 2 -0.001815 0.006807 -0.001925 0.000000 0.000000 0.000000
# 3 -0.001918 -0.001925 0.006724 0.000000 0.000000 0.000000
# 4 0.000000 0.000000 0.000000 -0.001052 0.000000 0.000000
# 5 0.000000 0.000000 0.000000 0.000000 -0.375429 0.000000
# 6 0.000000 0.000000 0.000000 0.000000 0.000000 -0.292798
#
#
# Mechanical properties :
#
#
# Convention : Reuss Voigt Hill
#
# Bulk Modulus (GPa) = 35.58360 60.17448 47.87904
# Shear Modulus (GPa) = -8.20783 -171.81978 -90.01381
#
# Velocity S-wave (km/s) = -1.88173 -8.60954 -6.23157
# Velocity P-wave (km/s) = 3.26033 8.53654 5.57865
#
# Compressibility (1/GPa) = 0.02810283
#
# Stress axis : x y z
#
# Youngs Moduli (GPa) = 38.62654 146.89783 148.72915
#
# Poissons Ratio (x) = 0.26669 0.28524
# Poissons Ratio (y) = 0.07013 0.28634
# Poissons Ratio (z) = 0.07408 0.28282
#
# Static dielectric constant tensor:
#      x y z
#    x 1.898910 0.000000 0.000000 
#    y 0.000000 1.878700 0.000000 
#    z 0.000000 0.000000 1.820760 
# 
# From -- ./inp_files/1672.got.cif
#   From: 2010.05.17/outbox.cif.g08.bks.cpg/sg69_1_cif.got.tgz:1672.got - 2010.06.03 19:29:58.
