data_PCOD9513415
_publ_section_title
;
Structure prediction by ZEFSAII (Michael W. Deem and Ramdas Pophale) SiO2 
 PCOD9513415
Probable space group: F M M M
;
_chemical_formula_sum "Si O2"
_cell_formula_units_Z 136
_cell_length_a 22.533694
_cell_length_b 18.867014
_cell_length_c 14.849720
_cell_angle_alpha 90.000000
_cell_angle_beta 90.000000
_cell_angle_gamma 90.000000
_cell_volume 6313.262234
_symmetry_space_group_name_H-M "F M M M"
_symmetry_group_IT_number 69
_symmetry_cell_setting 'orthorhombic'
loop_
_space_group_symop_operation_xyz
x,y,z
-x,-y,z
x,-y,-z
-x,y,-z
-x,-y,-z
x,y,-z
-x,y,z
x,-y,z
x,1/2+y,1/2+z
-x,1/2-y,1/2+z
x,1/2-y,1/2-z
-x,1/2+y,1/2-z
-x,1/2-y,1/2-z
x,1/2+y,1/2-z
-x,1/2+y,1/2+z
x,1/2-y,1/2+z
1/2+x,y,1/2+z
1/2-x,-y,1/2+z
1/2+x,-y,1/2-z
1/2-x,y,1/2-z
1/2-x,-y,1/2-z
1/2+x,y,1/2-z
1/2-x,y,1/2+z
1/2+x,-y,1/2+z
1/2+x,1/2+y,z
1/2-x,1/2-y,z
1/2+x,1/2-y,-z
1/2-x,1/2+y,-z
1/2-x,1/2-y,-z
1/2+x,1/2+y,-z
1/2-x,1/2+y,z
1/2+x,1/2-y,z
loop_
_atom_site_type_symbol
_atom_site_label
_atom_site_fract_x
_atom_site_fract_y
_atom_site_fract_z
Si Si1 0.251249 0.377612 0.358723
Si Si2 0.112469 0.139918 0.902529
Si Si3 0.859292 0.286386 0.152058
Si Si4 0.218871 0.000000 0.500000
Si Si5 0.430303 0.919347 0.784072
O O1 0.250000 0.390598 0.250000
O O2 0.183022 0.369493 0.387596
O O3 0.293888 0.310411 0.376235
O O4 0.277267 0.439064 0.420482
O O5 0.106050 0.225159 0.900193
O O6 0.080182 0.101792 0.820254
O O7 0.095263 0.111509 0.000000
O O8 0.852923 0.250000 0.250000
O O9 0.895618 0.359191 0.161322
O O10 0.500000 0.916229 0.804071
O O11 0.409355 0.000000 0.799809
#
# Coordination Sequence:
#
# PCOD9513415 Si02
#       5
#    32  32  32   8  32
#     4  12  23  41  64  95 137 172 211 257 324 381
#     4  11  24  39  64  96 134 166 210 266 326 385
#     4  10  22  39  65  93 120 173 213 265 315 384
#     4  12  30  36  58 106 134 180 206 266 312 396
#     4  10  23  42  65  92 122 167 221 269 321 384
#
# _framework density 21.541952999999999
#
# number of rings (size 3 to 8) (size 9 to 14) (size 15 to 20)
#    0.000    1.176    5.882    1.059    4.941    6.118 
#    0.000    1.176    0.000    0.000    0.000    2.471 
#    0.000    0.000    0.000    0.000    0.000    0.000 
#
# Total GULP energy -189361.321412 kJ/mol
# GULP energy per Si atom -5569.450630 kJ/mol
# Density = 2.149292 g / cm^3
# Si number density = 21.541953 Si / 1000 Ang^3
#
#
#
# Elastic Constant Matrix: (Units=GPa)
#
#
# Indices 1 2 3 4 5 6 
#
# 1 54.3602 37.3024 -8.2148 0.0000 0.0000 0.0000
# 2 37.3024 138.0122 -2.0533 0.0000 0.0000 0.0000
# 3 -8.2148 -2.0533 49.5812 0.0000 0.0000 0.0000
# 4 0.0000 0.0000 0.0000 -13.8369 0.0000 0.0000
# 5 0.0000 0.0000 0.0000 0.0000 -0.3934 0.0000
# 6 0.0000 0.0000 0.0000 0.0000 0.0000 43.3620
#
#
#
# Elastic Compliance Matrix: (Units=1/GPa)
#
#
# Indices 1 2 3 4 5 6 
#
# 1 0.023205 -0.006219 0.003587 0.000000 0.000000 0.000000
# 2 -0.006219 0.008917 -0.000661 0.000000 0.000000 0.000000
# 3 0.003587 -0.000661 0.020736 0.000000 0.000000 0.000000
# 4 0.000000 0.000000 0.000000 -0.072271 0.000000 0.000000
# 5 0.000000 0.000000 0.000000 0.000000 -2.541936 0.000000
# 6 0.000000 0.000000 0.000000 0.000000 0.000000 0.023062
#
#
# Mechanical properties :
#
#
# Convention : Reuss Voigt Hill
#
# Bulk Modulus (GPa) = 21.61096 32.89135 27.25115
# Shear Modulus (GPa) = -1.98706 20.15429 9.08361
#
# Velocity S-wave (km/s) = -0.96147 3.06205 2.05569
# Velocity P-wave (km/s) = 2.97006 5.27287 4.27928
#
# Compressibility (1/GPa) = 0.04627282
#
# Stress axis : x y z
#
# Youngs Moduli (GPa) = 43.09382 112.14922 48.22554
#
# Poissons Ratio (x) = 0.69741 -0.17299
# Poissons Ratio (y) = 0.26798 0.03188
# Poissons Ratio (z) = -0.15459 0.07414
#
# Static dielectric constant tensor:
#      x y z
#    x 1.769430 0.000000 0.000000 
#    y 0.000000 1.801730 0.000000 
#    z 0.000000 0.000000 1.828390 
# 
# From -- ./inp_files/16551.got.cif
#   From: 2010.05.17/outbox.cif.g08.bks.cpg/sg69_9_cif.got.tgz:16551.got - 2010.06.03 19:29:58.
