data_PCOD9513589
_publ_section_title
;
Structure prediction by ZEFSAII (Michael W. Deem and Ramdas Pophale) SiO2 
 PCOD9513589
Probable space group: F M M M
;
_chemical_formula_sum "Si O2"
_cell_formula_units_Z 68
_cell_length_a 14.827389
_cell_length_b 24.353700
_cell_length_c 9.148951
_cell_angle_alpha 90.000000
_cell_angle_beta 90.000000
_cell_angle_gamma 90.000000
_cell_volume 3303.702523
_symmetry_space_group_name_H-M "F M M M"
_symmetry_group_IT_number 69
_symmetry_cell_setting 'orthorhombic'
loop_
_space_group_symop_operation_xyz
x,y,z
-x,-y,z
x,-y,-z
-x,y,-z
-x,-y,-z
x,y,-z
-x,y,z
x,-y,z
x,1/2+y,1/2+z
-x,1/2-y,1/2+z
x,1/2-y,1/2-z
-x,1/2+y,1/2-z
-x,1/2-y,1/2-z
x,1/2+y,1/2-z
-x,1/2+y,1/2+z
x,1/2-y,1/2+z
1/2+x,y,1/2+z
1/2-x,-y,1/2+z
1/2+x,-y,1/2-z
1/2-x,y,1/2-z
1/2-x,-y,1/2-z
1/2+x,y,1/2-z
1/2-x,y,1/2+z
1/2+x,-y,1/2+z
1/2+x,1/2+y,z
1/2-x,1/2-y,z
1/2+x,1/2-y,-z
1/2-x,1/2+y,-z
1/2-x,1/2-y,-z
1/2+x,1/2+y,-z
1/2-x,1/2+y,z
1/2+x,1/2-y,z
loop_
_atom_site_type_symbol
_atom_site_label
_atom_site_fract_x
_atom_site_fract_y
_atom_site_fract_z
Si Si1 0.345309 0.877633 0.833367
Si Si2 0.500000 0.000000 0.500000
Si Si3 0.500000 0.309613 0.823902
Si Si4 0.358974 0.000000 0.768649
O O1 0.250000 0.876070 0.750000
O O2 0.414425 0.842811 0.737244
O O3 0.377005 0.941042 0.840210
O O4 0.338647 0.856838 0.000000
O O5 0.579773 0.000000 0.625325
O O6 0.500000 0.250000 0.750000
O O7 0.500000 0.307113 0.000000
O O8 0.250000 0.000000 0.750000
#
# Coordination Sequence:
#
# PCOD9513589 Si02
#       4
#    32   4  16  16
#     4  11  24  43  70 103 142 182 230 287 355 422
#     4  12  24  40  66  98 144 204 238 284 372 416
#     4  12  27  47  70  96 134 179 238 296 351 421
#     4  10  25  38  71 103 151 183 243 283 361 430
#
# _framework density 20.582968000000001
#
# number of rings (size 3 to 8) (size 9 to 14) (size 15 to 20)
#    0.000    0.941    0.000    5.647   19.765    0.941 
#    0.000    8.235    0.000    0.000    0.000    0.000 
#    0.000    0.000    0.000    0.000    0.000    0.000 
#
# Total GULP energy -94699.987324 kJ/mol
# GULP energy per Si atom -5570.587490 kJ/mol
# Density = 2.053612 g / cm^3
# Si number density = 20.582968 Si / 1000 Ang^3
#
#
#
# Elastic Constant Matrix: (Units=GPa)
#
#
# Indices 1 2 3 4 5 6 
#
# 1 153.5670 65.4998 95.7922 0.0000 0.0000 0.0000
# 2 65.4998 155.8931 63.0285 0.0000 0.0000 0.0000
# 3 95.7922 63.0285 251.0349 0.0000 0.0000 0.0000
# 4 0.0000 0.0000 0.0000 218.9328 0.0000 0.0000
# 5 0.0000 0.0000 0.0000 0.0000 31.7079 0.0000
# 6 0.0000 0.0000 0.0000 0.0000 0.0000 21.9754
#
#
#
# Elastic Compliance Matrix: (Units=1/GPa)
#
#
# Indices 1 2 3 4 5 6 
#
# 1 0.009547 -0.002825 -0.002934 0.000000 0.000000 0.000000
# 2 -0.002825 0.007975 -0.000924 0.000000 0.000000 0.000000
# 3 -0.002934 -0.000924 0.005335 0.000000 0.000000 0.000000
# 4 0.000000 0.000000 0.000000 0.004568 0.000000 0.000000
# 5 0.000000 0.000000 0.000000 0.000000 0.031538 0.000000
# 6 0.000000 0.000000 0.000000 0.000000 0.000000 0.045506
#
#
# Mechanical properties :
#
#
# Convention : Reuss Voigt Hill
#
# Bulk Modulus (GPa) = 105.36337 112.12620 108.74479
# Shear Modulus (GPa) = 41.32302 76.93484 59.12893
#
# Velocity S-wave (km/s) = 4.48552 6.12038 5.36558
# Velocity P-wave (km/s) = 8.83896 10.22443 9.55683
#
# Compressibility (1/GPa) = 0.00949096
#
# Stress axis : x y z
#
# Youngs Moduli (GPa) = 104.74827 125.38618 187.43998
#
# Poissons Ratio (x) = 0.35422 0.54988
# Poissons Ratio (y) = 0.29592 0.17327
# Poissons Ratio (z) = 0.30729 0.11591
#
# Static dielectric constant tensor:
#      x y z
#    x 1.733280 0.000000 0.000000 
#    y 0.000000 1.747500 0.000000 
#    z 0.000000 0.000000 1.796470 
# 
# From -- ./inp_files/1564.got.cif
#   From: 2010.05.17/outbox.cif.g08.bks.cpg/sg69_1_cif.got.tgz:1564.got - 2010.06.03 19:29:58.
