data_PCOD9513262
_publ_section_title
;
Structure prediction by ZEFSAII (Michael W. Deem and Ramdas Pophale) SiO2 
 PCOD9513262
Probable space group: F M M M
;
_chemical_formula_sum "Si O2"
_cell_formula_units_Z 160
_cell_length_a 20.734610
_cell_length_b 15.237047
_cell_length_c 22.637531
_cell_angle_alpha 90.000000
_cell_angle_beta 90.000000
_cell_angle_gamma 90.000000
_cell_volume 7151.970860
_symmetry_space_group_name_H-M "F M M M"
_symmetry_group_IT_number 69
_symmetry_cell_setting 'orthorhombic'
loop_
_space_group_symop_operation_xyz
x,y,z
-x,-y,z
x,-y,-z
-x,y,-z
-x,-y,-z
x,y,-z
-x,y,z
x,-y,z
x,1/2+y,1/2+z
-x,1/2-y,1/2+z
x,1/2-y,1/2-z
-x,1/2+y,1/2-z
-x,1/2-y,1/2-z
x,1/2+y,1/2-z
-x,1/2+y,1/2+z
x,1/2-y,1/2+z
1/2+x,y,1/2+z
1/2-x,-y,1/2+z
1/2+x,-y,1/2-z
1/2-x,y,1/2-z
1/2-x,-y,1/2-z
1/2+x,y,1/2-z
1/2-x,y,1/2+z
1/2+x,-y,1/2+z
1/2+x,1/2+y,z
1/2-x,1/2-y,z
1/2+x,1/2-y,-z
1/2-x,1/2+y,-z
1/2-x,1/2-y,-z
1/2+x,1/2+y,-z
1/2-x,1/2+y,z
1/2+x,1/2-y,z
loop_
_atom_site_type_symbol
_atom_site_label
_atom_site_fract_x
_atom_site_fract_y
_atom_site_fract_z
Si Si1 0.133012 0.331943 0.635318
Si Si2 0.076011 0.500000 0.429394
Si Si3 0.728172 0.399228 0.340428
Si Si4 0.877764 0.352026 0.069997
Si Si5 0.000000 0.609388 0.858369
Si Si6 0.110529 0.103822 0.257275
O O1 0.109376 0.414690 0.597725
O O2 0.208587 0.342099 0.649819
O O3 0.118545 0.245496 0.598495
O O4 0.098999 0.338708 0.699182
O O5 0.081730 0.500000 0.500000
O O6 0.000000 0.500000 0.414054
O O7 0.748291 0.500000 0.329774
O O8 0.684186 0.394960 0.398931
O O9 0.679128 0.373601 0.287858
O O10 0.943026 0.396580 0.091736
O O11 0.871689 0.349044 0.000000
O O12 0.056098 0.612425 0.806506
O O13 0.112602 0.000000 0.240433
#
# Coordination Sequence:
#
# PCOD9513262 Si02
#       6
#    32  16  32  32  16  32
#     4  12  23  41  70  96 133 176 220 277 338 394
#     4  11  26  42  59  94 132 177 226 267 321 401
#     4  10  22  43  65 100 134 173 222 277 337 396
#     4  11  26  44  65  95 135 179 227 277 327 395
#     4  10  24  43  64  92 129 170 214 267 332 387
#     4  10  21  39  69 100 134 165 213 273 334 403
#
# _framework density 22.371455999999998
#
# number of rings (size 3 to 8) (size 9 to 14) (size 15 to 20)
#    0.000    1.300    2.000    2.400    2.800    9.200 
#    0.000    4.000    0.000    6.000    0.000    0.000 
#    0.000    0.000    0.000    0.000    0.000    0.000 
#
# Total GULP energy -222945.545300 kJ/mol
# GULP energy per Si atom -5573.638632 kJ/mol
# Density = 2.232054 g / cm^3
# Si number density = 22.371456 Si / 1000 Ang^3
#
#
#
# Elastic Constant Matrix: (Units=GPa)
#
#
# Indices 1 2 3 4 5 6 
#
# 1 91.5914 14.6750 16.7690 0.0000 0.0000 0.0000
# 2 14.6750 80.1076 16.9575 0.0000 0.0000 0.0000
# 3 16.7690 16.9575 151.2479 0.0000 0.0000 0.0000
# 4 0.0000 0.0000 0.0000 7.5879 0.0000 0.0000
# 5 0.0000 0.0000 0.0000 0.0000 21.5195 0.0000
# 6 0.0000 0.0000 0.0000 0.0000 0.0000 1067.7239
#
#
#
# Elastic Compliance Matrix: (Units=1/GPa)
#
#
# Indices 1 2 3 4 5 6 
#
# 1 0.011410 -0.001867 -0.001056 0.000000 0.000000 0.000000
# 2 -0.001867 0.013092 -0.001261 0.000000 0.000000 0.000000
# 3 -0.001056 -0.001261 0.006870 0.000000 0.000000 0.000000
# 4 0.000000 0.000000 0.000000 0.131788 0.000000 0.000000
# 5 0.000000 0.000000 0.000000 0.000000 0.046470 0.000000
# 6 0.000000 0.000000 0.000000 0.000000 0.000000 0.000937
#
#
# Mechanical properties :
#
#
# Convention : Reuss Voigt Hill
#
# Bulk Modulus (GPa) = 43.46747 46.63889 45.05318
# Shear Modulus (GPa) = 22.06506 237.66930 129.86718
#
# Velocity S-wave (km/s) = 3.14396 10.31835 7.62735
# Velocity P-wave (km/s) = 5.71413 12.76129 9.88691
#
# Compressibility (1/GPa) = 0.02300571
#
# Stress axis : x y z
#
# Youngs Moduli (GPa) = 87.63891 76.38200 145.55866
#
# Poissons Ratio (x) = 0.14259 0.15368
# Poissons Ratio (y) = 0.16360 0.18353
# Poissons Ratio (z) = 0.09253 0.09631
#
# Static dielectric constant tensor:
#      x y z
#    x 1.790390 0.000000 0.000000 
#    y 0.000000 1.887890 0.000000 
#    z 0.000000 0.000000 1.781270 
# 
# From -- ./inp_files/30834.got.cif
#   From: 2010.05.17/outbox.cif.g08.bks.cpg/sg69_16_cif.got.tgz:30834.got - 2010.06.03 19:29:58.
