data_PCOD9513129
_publ_section_title
;
Structure prediction by ZEFSAII (Michael W. Deem and Ramdas Pophale) SiO2 
 PCOD9513129
Probable space group: F M M M
;
_chemical_formula_sum "Si O2"
_cell_formula_units_Z 144
_cell_length_a 18.056027
_cell_length_b 15.658788
_cell_length_c 28.657756
_cell_angle_alpha 90.000000
_cell_angle_beta 90.000000
_cell_angle_gamma 90.000000
_cell_volume 8102.564940
_symmetry_space_group_name_H-M "F M M M"
_symmetry_group_IT_number 69
_symmetry_cell_setting 'orthorhombic'
loop_
_space_group_symop_operation_xyz
x,y,z
-x,-y,z
x,-y,-z
-x,y,-z
-x,-y,-z
x,y,-z
-x,y,z
x,-y,z
x,1/2+y,1/2+z
-x,1/2-y,1/2+z
x,1/2-y,1/2-z
-x,1/2+y,1/2-z
-x,1/2-y,1/2-z
x,1/2+y,1/2-z
-x,1/2+y,1/2+z
x,1/2-y,1/2+z
1/2+x,y,1/2+z
1/2-x,-y,1/2+z
1/2+x,-y,1/2-z
1/2-x,y,1/2-z
1/2-x,-y,1/2-z
1/2+x,y,1/2-z
1/2-x,y,1/2+z
1/2+x,-y,1/2+z
1/2+x,1/2+y,z
1/2-x,1/2-y,z
1/2+x,1/2-y,-z
1/2-x,1/2+y,-z
1/2-x,1/2-y,-z
1/2+x,1/2+y,-z
1/2-x,1/2+y,z
1/2+x,1/2-y,z
loop_
_atom_site_type_symbol
_atom_site_label
_atom_site_fract_x
_atom_site_fract_y
_atom_site_fract_z
Si Si1 0.410531 0.185147 0.053125
Si Si2 0.334910 0.251658 0.641363
Si Si3 0.586771 0.902061 0.307114
Si Si4 0.822506 0.901461 0.282777
Si Si5 0.416624 0.000000 0.056313
O O1 0.500000 0.180450 0.052198
O O2 0.384229 0.242571 0.095142
O O3 0.381061 0.090423 0.066786
O O4 0.387283 0.206362 0.000000
O O5 0.250000 0.250000 0.626253
O O6 0.362009 0.167174 0.667917
O O7 0.336859 0.332118 0.677165
O O8 0.500000 0.883491 0.314057
O O9 0.608604 0.898675 0.252722
O O10 0.601488 0.000000 0.322474
O O11 0.750000 0.882289 0.250000
O O12 0.813500 0.000000 0.299552
O O13 0.500000 0.000000 0.076576
O O14 0.423827 0.000000 0.000000
#
# Coordination Sequence:
#
# PCOD9513129 Si02
#       5
#    32  32  32  32  16
#     4   9  19  36  56  80 113 148 183 232 288 339
#     4  12  23  33  58  88 112 151 193 235 285 344
#     4  10  22  40  59  80 112 155 199 242 285 332
#     4  10  21  38  57  81 118 154 185 227 287 350
#     4   7  12  28  52  74 101 136 167 209 280 343
#
# _framework density 17.77215
#
# number of rings (size 3 to 8) (size 9 to 14) (size 15 to 20)
#    0.000    2.111    2.222    2.667    1.556    3.111 
#    0.000    0.000    0.000    0.667    0.000    3.111 
#    0.000    0.000    0.000    0.000    0.000    0.000 
#
# Total GULP energy -200491.954466 kJ/mol
# GULP energy per Si atom -5569.220957 kJ/mol
# Density = 1.773170 g / cm^3
# Si number density = 17.772150 Si / 1000 Ang^3
#
#
#
# Elastic Constant Matrix: (Units=GPa)
#
#
# Indices 1 2 3 4 5 6 
#
# 1 54.7394 22.6306 17.2949 0.0000 0.0000 0.0000
# 2 22.6306 68.0380 41.6803 0.0000 0.0000 0.0000
# 3 17.2949 41.6803 79.7915 0.0000 0.0000 0.0000
# 4 0.0000 0.0000 0.0000 14.1878 0.0000 0.0000
# 5 0.0000 0.0000 0.0000 0.0000 24.9411 0.0000
# 6 0.0000 0.0000 0.0000 0.0000 0.0000 21.6745
#
#
#
# Elastic Compliance Matrix: (Units=1/GPa)
#
#
# Indices 1 2 3 4 5 6 
#
# 1 0.021279 -0.006253 -0.001346 0.000000 0.000000 0.000000
# 2 -0.006253 0.023452 -0.010895 0.000000 0.000000 0.000000
# 3 -0.001346 -0.010895 0.018516 0.000000 0.000000 0.000000
# 4 0.000000 0.000000 0.000000 0.070483 0.000000 0.000000
# 5 0.000000 0.000000 0.000000 0.000000 0.040094 0.000000
# 6 0.000000 0.000000 0.000000 0.000000 0.000000 0.046137
#
#
# Mechanical properties :
#
#
# Convention : Reuss Voigt Hill
#
# Bulk Modulus (GPa) = 38.08338 40.64228 39.36283
# Shear Modulus (GPa) = 18.81807 20.22489 19.52148
#
# Velocity S-wave (km/s) = 3.25753 3.37710 3.31785
# Velocity P-wave (km/s) = 5.96857 6.17451 6.07242
#
# Compressibility (1/GPa) = 0.02625817
#
# Stress axis : x y z
#
# Youngs Moduli (GPa) = 46.99506 42.64029 54.00868
#
# Poissons Ratio (x) = 0.26664 0.07268
# Poissons Ratio (y) = 0.29388 0.58843
# Poissons Ratio (z) = 0.06324 0.46457
#
# Static dielectric constant tensor:
#      x y z
#    x 1.625680 0.000000 0.000000 
#    y 0.000000 1.661770 0.000000 
#    z 0.000000 0.000000 1.575160 
# 
# From -- ./inp_files/15549.got.cif
#   From: 2010.05.17/outbox.cif.g08.bks.cpg/sg69_8_cif.got.tgz:15549.got - 2010.06.03 19:29:58.
