data_PCOD9513822
_publ_section_title
;
Structure prediction by ZEFSAII (Michael W. Deem and Ramdas Pophale) SiO2 
 PCOD9513822
Probable space group: F M M M
;
_chemical_formula_sum "Si O2"
_cell_formula_units_Z 168
_cell_length_a 19.355823
_cell_length_b 15.546255
_cell_length_c 25.864110
_cell_angle_alpha 90.000000
_cell_angle_beta 90.000000
_cell_angle_gamma 90.000000
_cell_volume 7782.783826
_symmetry_space_group_name_H-M "F M M M"
_symmetry_group_IT_number 69
_symmetry_cell_setting 'orthorhombic'
loop_
_space_group_symop_operation_xyz
x,y,z
-x,-y,z
x,-y,-z
-x,y,-z
-x,-y,-z
x,y,-z
-x,y,z
x,-y,z
x,1/2+y,1/2+z
-x,1/2-y,1/2+z
x,1/2-y,1/2-z
-x,1/2+y,1/2-z
-x,1/2-y,1/2-z
x,1/2+y,1/2-z
-x,1/2+y,1/2+z
x,1/2-y,1/2+z
1/2+x,y,1/2+z
1/2-x,-y,1/2+z
1/2+x,-y,1/2-z
1/2-x,y,1/2-z
1/2-x,-y,1/2-z
1/2+x,y,1/2-z
1/2-x,y,1/2+z
1/2+x,-y,1/2+z
1/2+x,1/2+y,z
1/2-x,1/2-y,z
1/2+x,1/2-y,-z
1/2-x,1/2+y,-z
1/2-x,1/2-y,-z
1/2+x,1/2+y,-z
1/2-x,1/2+y,z
1/2+x,1/2-y,z
loop_
_atom_site_type_symbol
_atom_site_label
_atom_site_fract_x
_atom_site_fract_y
_atom_site_fract_z
Si Si1 0.081261 0.700265 0.939671
Si Si2 0.245908 0.146080 0.188804
Si Si3 0.106966 0.905645 0.349308
Si Si4 0.000000 0.590377 0.369362
Si Si5 0.000000 0.231143 0.309281
Si Si6 0.352180 0.373465 0.906840
Si Si7 0.688752 0.500000 0.000000
O O1 0.095111 0.612504 0.909586
O O2 0.134065 0.772898 0.919459
O O3 0.000000 0.724026 0.930324
O O4 0.090193 0.691574 0.000000
O O5 0.250000 0.122449 0.250000
O O6 0.250000 0.250000 0.186891
O O7 0.313759 0.105336 0.164119
O O8 0.183838 0.119255 0.149774
O O9 0.065342 0.827521 0.323526
O O10 0.082597 0.000000 0.333903
O O11 0.069414 0.592210 0.402856
O O12 0.000000 0.500000 0.338959
O O13 0.000000 0.676068 0.335679
O O14 0.000000 0.250000 0.250000
O O15 0.315595 0.424632 0.953367
#
# Coordination Sequence:
#
# PCOD9513822 Si02
#       7
#    32  32  32  16  16  32   8
#     4  11  22  42  72 103 145 192 238 301 380 444
#     4  11  26  48  77 102 148 202 248 303 380 448
#     4  12  26  47  73 106 145 197 253 307 367 451
#     4  12  24  41  76 108 148 184 244 307 374 462
#     4  12  27  47  73 104 149 188 245 318 378 440
#     4  12  23  45  68 112 150 191 242 304 382 449
#     4  12  28  41  76 108 158 191 252 316 380 453
#
# _framework density 21.586106000000001
#
# number of rings (size 3 to 8) (size 9 to 14) (size 15 to 20)
#    0.000    0.381    7.619    0.286    6.667    2.286 
#    1.714    2.381    0.000    0.000    0.000    0.000 
#    0.000    0.000    0.000    0.000    0.000    0.000 
#
# Total GULP energy -234003.644982 kJ/mol
# GULP energy per Si atom -5571.515357 kJ/mol
# Density = 2.153697 g / cm^3
# Si number density = 21.586106 Si / 1000 Ang^3
#
#
#
# Elastic Constant Matrix: (Units=GPa)
#
#
# Indices 1 2 3 4 5 6 
#
# 1 76.9265 -1.4129 31.3311 0.0000 0.0000 0.0000
# 2 -1.4129 124.1301 22.9347 0.0000 0.0000 0.0000
# 3 31.3311 22.9347 154.4013 0.0000 0.0000 0.0000
# 4 0.0000 0.0000 0.0000 4.4791 0.0000 0.0000
# 5 0.0000 0.0000 0.0000 0.0000 -18.4617 0.0000
# 6 0.0000 0.0000 0.0000 0.0000 0.0000 -10.9627
#
#
#
# Elastic Compliance Matrix: (Units=1/GPa)
#
#
# Indices 1 2 3 4 5 6 
#
# 1 0.014232 0.000715 -0.002994 0.000000 0.000000 0.000000
# 2 0.000715 0.008319 -0.001381 0.000000 0.000000 0.000000
# 3 -0.002994 -0.001381 0.007289 0.000000 0.000000 0.000000
# 4 0.000000 0.000000 0.000000 0.223257 0.000000 0.000000
# 5 0.000000 0.000000 0.000000 0.000000 -0.054166 0.000000
# 6 0.000000 0.000000 0.000000 0.000000 0.000000 -0.091219
#
#
# Mechanical properties :
#
#
# Convention : Reuss Voigt Hill
#
# Bulk Modulus (GPa) = 44.40305 51.24041 47.82173
# Shear Modulus (GPa) = 40.80295 15.18463 27.99379
#
# Velocity S-wave (km/s) = 4.35241 2.65513 3.60508
# Velocity P-wave (km/s) = 6.77295 5.76098 6.28735
#
# Compressibility (1/GPa) = 0.02252098
#
# Stress axis : x y z
#
# Youngs Moduli (GPa) = 70.26396 120.20188 137.18691
#
# Poissons Ratio (x) = -0.08597 0.41077
# Poissons Ratio (y) = -0.05025 0.18944
# Poissons Ratio (z) = 0.21038 0.16598
#
# Static dielectric constant tensor:
#      x y z
#    x 1.795020 0.000000 0.000000 
#    y 0.000000 1.811200 0.000000 
#    z 0.000000 0.000000 1.785100 
# 
# From -- ./inp_files/42633.got.cif
#   From: 2010.05.17/outbox.cif.g08.bks.cpg/sg69_22_cif.got.tgz:42633.got - 2010.06.03 19:29:58.
