data_PCOD9513286
_publ_section_title
;
Structure prediction by ZEFSAII (Michael W. Deem and Ramdas Pophale) SiO2 
 PCOD9513286
Probable space group: F M M M
;
_chemical_formula_sum "Si O2"
_cell_formula_units_Z 112
_cell_length_a 14.884654
_cell_length_b 14.807377
_cell_length_c 23.754336
_cell_angle_alpha 90.000000
_cell_angle_beta 90.000000
_cell_angle_gamma 90.000000
_cell_volume 5235.519394
_symmetry_space_group_name_H-M "F M M M"
_symmetry_group_IT_number 69
_symmetry_cell_setting 'orthorhombic'
loop_
_space_group_symop_operation_xyz
x,y,z
-x,-y,z
x,-y,-z
-x,y,-z
-x,-y,-z
x,y,-z
-x,y,z
x,-y,z
x,1/2+y,1/2+z
-x,1/2-y,1/2+z
x,1/2-y,1/2-z
-x,1/2+y,1/2-z
-x,1/2-y,1/2-z
x,1/2+y,1/2-z
-x,1/2+y,1/2+z
x,1/2-y,1/2+z
1/2+x,y,1/2+z
1/2-x,-y,1/2+z
1/2+x,-y,1/2-z
1/2-x,y,1/2-z
1/2-x,-y,1/2-z
1/2+x,y,1/2-z
1/2-x,y,1/2+z
1/2+x,-y,1/2+z
1/2+x,1/2+y,z
1/2-x,1/2-y,z
1/2+x,1/2-y,-z
1/2-x,1/2+y,-z
1/2-x,1/2-y,-z
1/2+x,1/2+y,-z
1/2-x,1/2+y,z
1/2+x,1/2-y,z
loop_
_atom_site_type_symbol
_atom_site_label
_atom_site_fract_x
_atom_site_fract_y
_atom_site_fract_z
Si Si1 0.500000 0.607697 0.067177
Si Si2 0.393583 0.146540 0.731317
Si Si3 0.797602 0.500000 0.936689
Si Si4 0.687429 0.161329 0.612551
Si Si5 0.106528 0.500000 0.179595
O O1 0.500000 0.500000 0.086713
O O2 0.586991 0.663353 0.087486
O O3 0.500000 0.603268 0.000000
O O4 0.500000 0.127616 0.718538
O O5 0.387169 0.250000 0.750000
O O6 0.333307 0.130549 0.676557
O O7 0.364868 0.086108 0.783962
O O8 0.736747 0.412869 0.925184
O O9 0.865014 0.500000 0.884568
O O10 0.833709 0.500000 0.000000
O O11 0.750000 0.250000 0.612790
O O12 0.000000 0.500000 0.180249
#
# Coordination Sequence:
#
# PCOD9513286 Si02
#       5
#    16  32  16  32  16
#     4  11  24  46  73  99 141 199 246 296 348 405
#     4  10  21  40  67 100 137 174 223 285 357 431
#     4  12  27  45  65  97 142 188 244 297 346 425
#     4  12  25  43  74 107 142 183 239 299 359 425
#     4  10  23  42  68  98 135 185 235 287 354 423
#
# _framework density 21.392339
#
# number of rings (size 3 to 8) (size 9 to 14) (size 15 to 20)
#    0.000    1.000    2.857    3.429    0.000    7.714 
#    2.571    0.000    0.000    0.000    0.000    0.000 
#    0.000    0.000    0.000    0.000    0.000    0.000 
#
# Total GULP energy -156522.583956 kJ/mol
# GULP energy per Si atom -5590.092284 kJ/mol
# Density = 2.134365 g / cm^3
# Si number density = 21.392339 Si / 1000 Ang^3
#
#
#
# Elastic Constant Matrix: (Units=GPa)
#
#
# Indices 1 2 3 4 5 6 
#
# 1 113.9112 54.7657 56.4665 0.0000 0.0000 0.0000
# 2 54.7657 100.1715 63.0162 0.0000 0.0000 0.0000
# 3 56.4665 63.0162 182.2159 0.0000 0.0000 0.0000
# 4 0.0000 0.0000 0.0000 27.4789 0.0000 0.0000
# 5 0.0000 0.0000 0.0000 0.0000 26.8885 0.0000
# 6 0.0000 0.0000 0.0000 0.0000 0.0000 52.9907
#
#
#
# Elastic Compliance Matrix: (Units=1/GPa)
#
#
# Indices 1 2 3 4 5 6 
#
# 1 0.012411 -0.005580 -0.001916 0.000000 0.000000 0.000000
# 2 -0.005580 0.015267 -0.003551 0.000000 0.000000 0.000000
# 3 -0.001916 -0.003551 0.007310 0.000000 0.000000 0.000000
# 4 0.000000 0.000000 0.000000 0.036392 0.000000 0.000000
# 5 0.000000 0.000000 0.000000 0.000000 0.037191 0.000000
# 6 0.000000 0.000000 0.000000 0.000000 0.000000 0.018871
#
#
# Mechanical properties :
#
#
# Convention : Reuss Voigt Hill
#
# Bulk Modulus (GPa) = 77.55394 82.75505 80.15449
# Shear Modulus (GPa) = 32.50248 36.27497 34.38872
#
# Velocity S-wave (km/s) = 3.90211 4.12235 4.01374
# Velocity P-wave (km/s) = 7.52555 7.83753 7.68312
#
# Compressibility (1/GPa) = 0.01289425
#
# Stress axis : x y z
#
# Youngs Moduli (GPa) = 80.57054 65.49950 136.80192
#
# Poissons Ratio (x) = 0.36549 0.26217
# Poissons Ratio (y) = 0.44958 0.48575
# Poissons Ratio (z) = 0.15441 0.23257
#
# Static dielectric constant tensor:
#      x y z
#    x 1.829870 0.000000 0.000000 
#    y 0.000000 1.689680 0.000000 
#    z 0.000000 0.000000 1.762250 
# 
# From -- ./inp_files/14122.got.cif
#   From: 2010.05.17/outbox.cif.g08.bks.cpg/sg69_8_cif.got.tgz:14122.got - 2010.06.03 19:29:58.
