data_PCOD9513578
_publ_section_title
;
Structure prediction by ZEFSAII (Michael W. Deem and Ramdas Pophale) SiO2 
 PCOD9513578
Probable space group: F M M M
;
_chemical_formula_sum "Si O2"
_cell_formula_units_Z 36
_cell_length_a 18.824810
_cell_length_b 13.369305
_cell_length_c 5.287096
_cell_angle_alpha 90.000000
_cell_angle_beta 90.000000
_cell_angle_gamma 90.000000
_cell_volume 1330.627911
_symmetry_space_group_name_H-M "F M M M"
_symmetry_group_IT_number 69
_symmetry_cell_setting 'orthorhombic'
loop_
_space_group_symop_operation_xyz
x,y,z
-x,-y,z
x,-y,-z
-x,y,-z
-x,-y,-z
x,y,-z
-x,y,z
x,-y,z
x,1/2+y,1/2+z
-x,1/2-y,1/2+z
x,1/2-y,1/2-z
-x,1/2+y,1/2-z
-x,1/2-y,1/2-z
x,1/2+y,1/2-z
-x,1/2+y,1/2+z
x,1/2-y,1/2+z
1/2+x,y,1/2+z
1/2-x,-y,1/2+z
1/2+x,-y,1/2-z
1/2-x,y,1/2-z
1/2-x,-y,1/2-z
1/2+x,y,1/2-z
1/2-x,y,1/2+z
1/2+x,-y,1/2+z
1/2+x,1/2+y,z
1/2-x,1/2-y,z
1/2+x,1/2-y,-z
1/2-x,1/2+y,-z
1/2-x,1/2-y,-z
1/2+x,1/2+y,-z
1/2-x,1/2+y,z
1/2+x,1/2-y,z
loop_
_atom_site_type_symbol
_atom_site_label
_atom_site_fract_x
_atom_site_fract_y
_atom_site_fract_z
Si Si1 0.500000 0.851032 0.000000
Si Si2 0.700125 0.500000 0.000000
Si Si3 0.000000 0.000000 0.000000
Si Si4 0.859232 0.786783 0.000000
O O1 0.430654 0.780943 0.000000
O O2 0.500000 0.914194 0.736908
O O3 0.750000 0.500000 0.750000
O O4 0.646550 0.406086 0.000000
O O5 0.822212 0.750000 0.250000
#
# Coordination Sequence:
#
# PCOD9513578 Si02
#       4
#     8   8   4  16
#     4  11  24  48  78 123 166 202 246 310 398 478
#     4  12  30  54  78 113 156 206 270 329 374 436
#     4  10  24  42  76 118 172 204 240 314 384 482
#     4  12  27  48  81 117 153 204 257 318 389 462
#
# _framework density 27.054894999999998
#
# number of rings (size 3 to 8) (size 9 to 14) (size 15 to 20)
#    0.000    0.444    0.000    6.667    0.000   16.889 
#    0.000    0.000    0.000    5.333    0.000    0.000 
#    0.000    0.000    0.000    0.000    0.000    0.000 
#
# Total GULP energy -50145.177456 kJ/mol
# GULP energy per Si atom -5571.686384 kJ/mol
# Density = 2.699332 g / cm^3
# Si number density = 27.054895 Si / 1000 Ang^3
#
#
#
# Elastic Constant Matrix: (Units=GPa)
#
#
# Indices 1 2 3 4 5 6 
#
# 1 243.0232 100.0804 79.6299 0.0000 -0.0002 0.0000
# 2 100.0804 345.5777 128.2619 0.0005 -0.0041 -0.0001
# 3 79.6299 128.2619 374.0821 0.0025 -0.0226 -0.0002
# 4 0.0000 0.0005 0.0025 70.1744 -0.0119 -0.0001
# 5 -0.0002 -0.0041 -0.0226 -0.0119 1123.5874 0.0009
# 6 0.0000 -0.0001 -0.0002 -0.0001 0.0009 45.3362
#
#
#
# Elastic Compliance Matrix: (Units=1/GPa)
#
#
# Indices 1 2 3 4 5 6 
#
# 1 0.004796 -0.001157 -0.000624 0.000000 0.000000 0.000000
# 2 -0.001157 0.003595 -0.000986 0.000000 0.000000 0.000000
# 3 -0.000624 -0.000986 0.003144 0.000000 0.000000 0.000000
# 4 0.000000 0.000000 0.000000 0.014250 0.000000 0.000000
# 5 0.000000 0.000000 0.000000 0.000000 0.000890 0.000000
# 6 0.000000 0.000000 0.000000 0.000000 0.000000 0.022057
#
#
# Mechanical properties :
#
#
# Convention : Reuss Voigt Hill
#
# Bulk Modulus (GPa) = 166.67230 175.40305 171.03767
# Shear Modulus (GPa) = 88.86075 291.46699 190.16387
#
# Velocity S-wave (km/s) = 5.73724 10.39065 8.39290
# Velocity P-wave (km/s) = 10.27749 14.45431 12.54101
#
# Compressibility (1/GPa) = 0.00599980
#
# Stress axis : x y z
#
# Youngs Moduli (GPa) = 208.51097 278.17181 318.04455
#
# Poissons Ratio (x) = 0.32192 0.19849
# Poissons Ratio (y) = 0.24130 0.31367
# Poissons Ratio (z) = 0.13013 0.27434
#
# Static dielectric constant tensor:
#      x y z
#    x 2.268410 0.000000 0.000000 
#    y 0.000000 2.394000 0.000000 
#    z 0.000000 0.000000 2.105550 
# 
# From -- ./inp_files/518.got.cif
#   From: 2010.05.17/outbox.cif.g08.bks.cpg/sg69_1_cif.got.tgz:518.got - 2010.06.03 19:29:58.
