data_PCOD9513674
_publ_section_title
;
Structure prediction by ZEFSAII (Michael W. Deem and Ramdas Pophale) SiO2 
 PCOD9513674
Probable space group: F M M M
;
_chemical_formula_sum "Si O2"
_cell_formula_units_Z 240
_cell_length_a 29.205570
_cell_length_b 18.858693
_cell_length_c 23.283145
_cell_angle_alpha 90.000000
_cell_angle_beta 90.000000
_cell_angle_gamma 90.000000
_cell_volume 12823.864492
_symmetry_space_group_name_H-M "F M M M"
_symmetry_group_IT_number 69
_symmetry_cell_setting 'orthorhombic'
loop_
_space_group_symop_operation_xyz
x,y,z
-x,-y,z
x,-y,-z
-x,y,-z
-x,-y,-z
x,y,-z
-x,y,z
x,-y,z
x,1/2+y,1/2+z
-x,1/2-y,1/2+z
x,1/2-y,1/2-z
-x,1/2+y,1/2-z
-x,1/2-y,1/2-z
x,1/2+y,1/2-z
-x,1/2+y,1/2+z
x,1/2-y,1/2+z
1/2+x,y,1/2+z
1/2-x,-y,1/2+z
1/2+x,-y,1/2-z
1/2-x,y,1/2-z
1/2-x,-y,1/2-z
1/2+x,y,1/2-z
1/2-x,y,1/2+z
1/2+x,-y,1/2+z
1/2+x,1/2+y,z
1/2-x,1/2-y,z
1/2+x,1/2-y,-z
1/2-x,1/2+y,-z
1/2-x,1/2-y,-z
1/2+x,1/2+y,-z
1/2-x,1/2+y,z
1/2+x,1/2-y,z
loop_
_atom_site_type_symbol
_atom_site_label
_atom_site_fract_x
_atom_site_fract_y
_atom_site_fract_z
Si Si1 0.052963 0.298099 0.162961
Si Si2 0.358833 0.917005 0.336167
Si Si3 0.195536 0.168732 0.740883
Si Si4 0.198087 0.086087 0.377748
Si Si5 0.795674 0.414210 0.435166
Si Si6 0.949064 0.500000 0.930635
Si Si7 0.608563 0.361342 0.566976
Si Si8 0.552228 0.359627 0.784171
O O1 0.088917 0.304055 0.111369
O O2 0.064479 0.349871 0.216672
O O3 0.053270 0.219354 0.189169
O O4 0.000000 0.312738 0.144859
O O5 0.329298 0.876619 0.288992
O O6 0.339769 0.892281 0.397962
O O7 0.411254 0.903771 0.319904
O O8 0.348822 0.000000 0.332066
O O9 0.179581 0.250000 0.750000
O O10 0.250000 0.168196 0.750000
O O11 0.187987 0.130246 0.680035
O O12 0.248999 0.102693 0.400937
O O13 0.160438 0.114119 0.422578
O O14 0.194498 0.000000 0.370026
O O15 0.795126 0.385884 0.500000
O O16 0.796288 0.500000 0.439145
O O17 0.921599 0.429919 0.915814
O O18 0.000000 0.500000 0.906439
O O19 0.951844 0.500000 0.000000
O O20 0.601225 0.344143 0.500000
O O21 0.500000 0.385788 0.787393
#
# Coordination Sequence:
#
# PCOD9513674 Si02
#       8
#    32  32  32  32  32  16  32  32
#     4   9  19  37  59  81 110 156 199 233 287 353
#     4  11  22  37  62  90 115 148 192 241 295 349
#     4  11  24  39  59  87 122 157 191 237 294 347
#     4  11  21  36  59  86 119 156 202 244 283 344
#     4   9  19  36  58  82 113 153 191 233 286 350
#     4   9  18  32  48  72 113 158 196 236 277 326
#     4  11  21  33  53  84 119 158 200 241 285 343
#     4   9  20  39  61  84 112 146 191 246 299 348
#
# _framework density 18.715107
#
# number of rings (size 3 to 8) (size 9 to 14) (size 15 to 20)
#    0.000    1.933    2.000    2.800    3.733    2.133 
#    1.200    0.667    0.000    2.000    0.000    1.867 
#    0.000    0.000    0.000    0.000    0.000    0.000 
#
# Total GULP energy -334702.591190 kJ/mol
# GULP energy per Si atom -5578.376520 kJ/mol
# Density = 1.867251 g / cm^3
# Si number density = 18.715107 Si / 1000 Ang^3
#
#
#
# Elastic Constant Matrix: (Units=GPa)
#
#
# Indices 1 2 3 4 5 6 
#
# 1 80.9958 19.2299 42.2795 0.0000 0.0000 0.0000
# 2 19.2299 46.0271 35.0096 0.0000 0.0000 0.0000
# 3 42.2795 35.0096 127.9901 0.0000 0.0000 0.0000
# 4 0.0000 0.0000 0.0000 15.3987 0.0000 0.0000
# 5 0.0000 0.0000 0.0000 0.0000 29.2070 0.0000
# 6 0.0000 0.0000 0.0000 0.0000 0.0000 22.5555
#
#
#
# Elastic Compliance Matrix: (Units=1/GPa)
#
#
# Indices 1 2 3 4 5 6 
#
# 1 0.015286 -0.003214 -0.004170 0.000000 0.000000 0.000000
# 2 -0.003214 0.028110 -0.006627 0.000000 0.000000 0.000000
# 3 -0.004170 -0.006627 0.011003 0.000000 0.000000 0.000000
# 4 0.000000 0.000000 0.000000 0.064940 0.000000 0.000000
# 5 0.000000 0.000000 0.000000 0.000000 0.034238 0.000000
# 6 0.000000 0.000000 0.000000 0.000000 0.000000 0.044335
#
#
# Mechanical properties :
#
#
# Convention : Reuss Voigt Hill
#
# Bulk Modulus (GPa) = 37.91335 49.78345 43.84840
# Shear Modulus (GPa) = 21.30107 23.99852 22.64980
#
# Velocity S-wave (km/s) = 3.37735 3.58482 3.48263
# Velocity P-wave (km/s) = 5.95909 6.61763 6.29697
#
# Compressibility (1/GPa) = 0.02637594
#
# Stress axis : x y z
#
# Youngs Moduli (GPa) = 65.41758 35.57431 90.88032
#
# Poissons Ratio (x) = 0.11435 0.37900
# Poissons Ratio (y) = 0.21028 0.60228
# Poissons Ratio (z) = 0.27281 0.23576
#
# Static dielectric constant tensor:
#      x y z
#    x 1.671230 0.000000 0.000000 
#    y 0.000000 1.657490 0.000000 
#    z 0.000000 0.000000 1.467830 
# 
# From -- ./inp_files/33561.got.cif
#   From: 2010.05.17/outbox.cif.g08.bks.cpg/sg69_17_cif.got.tgz:33561.got - 2010.06.03 19:29:58.
