data_PCOD9513807
_publ_section_title
;
Structure prediction by ZEFSAII (Michael W. Deem and Ramdas Pophale) SiO2 
 PCOD9513807
Probable space group: F M M M
;
_chemical_formula_sum "Si O2"
_cell_formula_units_Z 128
_cell_length_a 18.314758
_cell_length_b 17.051535
_cell_length_c 18.616519
_cell_angle_alpha 90.000000
_cell_angle_beta 90.000000
_cell_angle_gamma 90.000000
_cell_volume 5813.840906
_symmetry_space_group_name_H-M "F M M M"
_symmetry_group_IT_number 69
_symmetry_cell_setting 'orthorhombic'
loop_
_space_group_symop_operation_xyz
x,y,z
-x,-y,z
x,-y,-z
-x,y,-z
-x,-y,-z
x,y,-z
-x,y,z
x,-y,z
x,1/2+y,1/2+z
-x,1/2-y,1/2+z
x,1/2-y,1/2-z
-x,1/2+y,1/2-z
-x,1/2-y,1/2-z
x,1/2+y,1/2-z
-x,1/2+y,1/2+z
x,1/2-y,1/2+z
1/2+x,y,1/2+z
1/2-x,-y,1/2+z
1/2+x,-y,1/2-z
1/2-x,y,1/2-z
1/2-x,-y,1/2-z
1/2+x,y,1/2-z
1/2-x,y,1/2+z
1/2+x,-y,1/2+z
1/2+x,1/2+y,z
1/2-x,1/2-y,z
1/2+x,1/2-y,-z
1/2-x,1/2+y,-z
1/2-x,1/2-y,-z
1/2+x,1/2+y,-z
1/2-x,1/2+y,z
1/2+x,1/2-y,z
loop_
_atom_site_type_symbol
_atom_site_label
_atom_site_fract_x
_atom_site_fract_y
_atom_site_fract_z
Si Si1 0.581730 0.500000 0.913310
Si Si2 0.825760 0.153591 0.913141
Si Si3 0.586487 0.586440 0.500000
Si Si4 0.801390 0.590892 0.818965
Si Si5 0.413247 0.804804 0.138282
O O1 0.500000 0.500000 0.883527
O O2 0.626911 0.423232 0.895051
O O3 0.576340 0.500000 0.000000
O O4 0.746963 0.135778 0.879204
O O5 0.869292 0.226080 0.879105
O O6 0.821043 0.163026 0.000000
O O7 0.621803 0.500000 0.500000
O O8 0.500000 0.575222 0.500000
O O9 0.599267 0.638115 0.569898
O O10 0.818261 0.500000 0.838121
O O11 0.750000 0.588925 0.750000
O O12 0.872471 0.643491 0.801830
O O13 0.500000 0.792322 0.148446
#
# Coordination Sequence:
#
# PCOD9513807 Si02
#       5
#    16  32  16  32  32
#     4   9  18  34  59  90 129 171 213 270 328 390
#     4  11  22  40  66 100 135 173 223 277 341 409
#     4   9  18  34  57  93 133 167 206 262 328 386
#     4  11  26  47  68  92 135 183 232 282 336 404
#     4  11  23  40  68 101 134 173 220 280 339 399
#
# _framework density 22.016427
#
# number of rings (size 3 to 8) (size 9 to 14) (size 15 to 20)
#    0.000    1.500    2.500    2.250    1.750    5.500 
#    0.000    3.750    0.000    0.000    0.000    0.000 
#    0.000    0.000    0.000    0.000    0.000    0.000 
#
# Total GULP energy -178788.303585 kJ/mol
# GULP energy per Si atom -5587.134487 kJ/mol
# Density = 2.196632 g / cm^3
# Si number density = 22.016427 Si / 1000 Ang^3
#
#
#
# Elastic Constant Matrix: (Units=GPa)
#
#
# Indices 1 2 3 4 5 6 
#
# 1 156.6429 76.9995 18.0224 0.0000 0.0000 0.0000
# 2 76.9995 193.6067 19.4248 0.0000 0.0000 0.0000
# 3 18.0224 19.4248 38.9637 0.0000 0.0000 0.0000
# 4 0.0000 0.0000 0.0000 21.9805 0.0000 0.0000
# 5 0.0000 0.0000 0.0000 0.0000 25.7580 0.0000
# 6 0.0000 0.0000 0.0000 0.0000 0.0000 20.8929
#
#
#
# Elastic Compliance Matrix: (Units=1/GPa)
#
#
# Indices 1 2 3 4 5 6 
#
# 1 0.008120 -0.003003 -0.002259 0.000000 0.000000 0.000000
# 2 -0.003003 0.006547 -0.001875 0.000000 0.000000 0.000000
# 3 -0.002259 -0.001875 0.027645 0.000000 0.000000 0.000000
# 4 0.000000 0.000000 0.000000 0.045495 0.000000 0.000000
# 5 0.000000 0.000000 0.000000 0.000000 0.038823 0.000000
# 6 0.000000 0.000000 0.000000 0.000000 0.000000 0.047863
#
#
# Mechanical properties :
#
#
# Convention : Reuss Voigt Hill
#
# Bulk Modulus (GPa) = 35.66546 68.67854 52.17200
# Shear Modulus (GPa) = 25.23818 32.04405 28.64112
#
# Velocity S-wave (km/s) = 3.38943 3.81919 3.61071
# Velocity P-wave (km/s) = 5.61714 7.12111 6.41337
#
# Compressibility (1/GPa) = 0.02803833
#
# Stress axis : x y z
#
# Youngs Moduli (GPa) = 123.15489 152.73059 36.17339
#
# Poissons Ratio (x) = 0.45861 0.08171
# Poissons Ratio (y) = 0.36980 0.06783
# Poissons Ratio (z) = 0.27818 0.28641
#
# Static dielectric constant tensor:
#      x y z
#    x 1.837570 0.000000 0.000000 
#    y 0.000000 1.782690 0.000000 
#    z 0.000000 0.000000 2.057690 
# 
# From -- ./inp_files/31516.got.cif
#   From: 2010.05.17/outbox.cif.g08.bks.cpg/sg69_16_cif.got.tgz:31516.got - 2010.06.03 19:29:58.
