data_PCOD9513572
_publ_section_title
;
Structure prediction by ZEFSAII (Michael W. Deem and Ramdas Pophale) SiO2 
 PCOD9513572
Probable space group: F M M M
;
_chemical_formula_sum "Si O2"
_cell_formula_units_Z 112
_cell_length_a 15.312818
_cell_length_b 35.992268
_cell_length_c 10.167526
_cell_angle_alpha 90.000000
_cell_angle_beta 90.000000
_cell_angle_gamma 90.000000
_cell_volume 5603.761283
_symmetry_space_group_name_H-M "F M M M"
_symmetry_group_IT_number 69
_symmetry_cell_setting 'orthorhombic'
loop_
_space_group_symop_operation_xyz
x,y,z
-x,-y,z
x,-y,-z
-x,y,-z
-x,-y,-z
x,y,-z
-x,y,z
x,-y,z
x,1/2+y,1/2+z
-x,1/2-y,1/2+z
x,1/2-y,1/2-z
-x,1/2+y,1/2-z
-x,1/2-y,1/2-z
x,1/2+y,1/2-z
-x,1/2+y,1/2+z
x,1/2-y,1/2+z
1/2+x,y,1/2+z
1/2-x,-y,1/2+z
1/2+x,-y,1/2-z
1/2-x,y,1/2-z
1/2-x,-y,1/2-z
1/2+x,y,1/2-z
1/2-x,y,1/2+z
1/2+x,-y,1/2+z
1/2+x,1/2+y,z
1/2-x,1/2-y,z
1/2+x,1/2-y,-z
1/2-x,1/2+y,-z
1/2-x,1/2-y,-z
1/2+x,1/2+y,-z
1/2-x,1/2+y,z
1/2+x,1/2-y,z
loop_
_atom_site_type_symbol
_atom_site_label
_atom_site_fract_x
_atom_site_fract_y
_atom_site_fract_z
Si Si1 0.155270 0.768409 0.000000
Si Si2 0.393908 0.828579 0.712702
Si Si3 0.401619 0.312302 0.500000
Si Si4 0.500000 0.457522 0.840485
Si Si5 0.669478 0.589533 0.152163
O O1 0.250000 0.750000 0.000000
O O2 0.138993 0.794381 0.125524
O O3 0.094732 0.732229 0.000000
O O4 0.500000 0.827342 0.710646
O O5 0.360671 0.824856 0.862842
O O6 0.361844 0.867714 0.657836
O O7 0.500000 0.327643 0.500000
O O8 0.500000 0.500000 0.794151
O O9 0.587275 0.435413 0.803125
O O10 0.500000 0.457841 0.000000
O O11 0.750000 0.584388 0.250000
O O12 0.691199 0.580526 0.000000
#
# Coordination Sequence:
#
# PCOD9513572 Si02
#       5
#    16  32  16  16  32
#     4  12  26  38  58  88 122 167 224 286 338 378
#     4  11  23  42  66  88 127 178 226 276 332 405
#     4  10  24  40  56  86 118 163 219 275 332 379
#     4   9  20  44  75 105 136 176 225 266 323 411
#     4  11  24  41  68 104 136 178 223 273 337 399
#
# _framework density 19.986577
#
# number of rings (size 3 to 8) (size 9 to 14) (size 15 to 20)
#    0.000    1.286    2.857    2.143    6.000    4.000 
#    0.000    0.714    0.000    0.857    0.000    0.000 
#    0.000    0.000    0.000    0.000    0.000    0.000 
#
# Total GULP energy -156547.363345 kJ/mol
# GULP energy per Si atom -5590.977262 kJ/mol
# Density = 1.994109 g / cm^3
# Si number density = 19.986577 Si / 1000 Ang^3
#
#
#
# Elastic Constant Matrix: (Units=GPa)
#
#
# Indices 1 2 3 4 5 6 
#
# 1 143.5503 48.6248 51.5650 0.0000 0.0000 0.0000
# 2 48.6248 105.0973 25.8387 0.0000 0.0000 0.0000
# 3 51.5650 25.8387 129.2239 0.0000 0.0000 0.0000
# 4 0.0000 0.0000 0.0000 6.9450 0.0000 0.0000
# 5 0.0000 0.0000 0.0000 0.0000 16.4885 0.0000
# 6 0.0000 0.0000 0.0000 0.0000 0.0000 15.7326
#
#
#
# Elastic Compliance Matrix: (Units=1/GPa)
#
#
# Indices 1 2 3 4 5 6 
#
# 1 0.009235 -0.003541 -0.002977 0.000000 0.000000 0.000000
# 2 -0.003541 0.011364 -0.000859 0.000000 0.000000 0.000000
# 3 -0.002977 -0.000859 0.009098 0.000000 0.000000 0.000000
# 4 0.000000 0.000000 0.000000 0.143988 0.000000 0.000000
# 5 0.000000 0.000000 0.000000 0.000000 0.060648 0.000000
# 6 0.000000 0.000000 0.000000 0.000000 0.000000 0.063562
#
#
# Mechanical properties :
#
#
# Convention : Reuss Voigt Hill
#
# Bulk Modulus (GPa) = 66.92042 69.99206 68.45624
# Shear Modulus (GPa) = 15.74148 24.62275 20.18212
#
# Velocity S-wave (km/s) = 2.80947 3.51374 3.18116
# Velocity P-wave (km/s) = 6.63924 7.18035 6.91509
#
# Compressibility (1/GPa) = 0.01494312
#
# Stress axis : x y z
#
# Youngs Moduli (GPa) = 108.28403 87.99343 109.91027
#
# Poissons Ratio (x) = 0.31156 0.32721
# Poissons Ratio (y) = 0.38341 0.09446
# Poissons Ratio (z) = 0.32237 0.07563
#
# Static dielectric constant tensor:
#      x y z
#    x 1.761330 0.000000 0.000000 
#    y 0.000000 1.659380 0.000000 
#    z 0.000000 0.000000 1.723980 
# 
# From -- ./inp_files/7430.got.cif
#   From: 2010.05.17/outbox.cif.g08.bks.cpg/sg69_4_cif.got.tgz:7430.got - 2010.06.03 19:29:58.
