data_PCOD9513758
_publ_section_title
;
Structure prediction by ZEFSAII (Michael W. Deem and Ramdas Pophale) SiO2 
 PCOD9513758
Probable space group: F M M M
;
_chemical_formula_sum "Si O2"
_cell_formula_units_Z 144
_cell_length_a 15.918719
_cell_length_b 29.856823
_cell_length_c 14.044913
_cell_angle_alpha 90.000000
_cell_angle_beta 90.000000
_cell_angle_gamma 90.000000
_cell_volume 6675.299615
_symmetry_space_group_name_H-M "F M M M"
_symmetry_group_IT_number 69
_symmetry_cell_setting 'orthorhombic'
loop_
_space_group_symop_operation_xyz
x,y,z
-x,-y,z
x,-y,-z
-x,y,-z
-x,-y,-z
x,y,-z
-x,y,z
x,-y,z
x,1/2+y,1/2+z
-x,1/2-y,1/2+z
x,1/2-y,1/2-z
-x,1/2+y,1/2-z
-x,1/2-y,1/2-z
x,1/2+y,1/2-z
-x,1/2+y,1/2+z
x,1/2-y,1/2+z
1/2+x,y,1/2+z
1/2-x,-y,1/2+z
1/2+x,-y,1/2-z
1/2-x,y,1/2-z
1/2-x,-y,1/2-z
1/2+x,y,1/2-z
1/2-x,y,1/2+z
1/2+x,-y,1/2+z
1/2+x,1/2+y,z
1/2-x,1/2-y,z
1/2+x,1/2-y,-z
1/2-x,1/2+y,-z
1/2-x,1/2-y,-z
1/2+x,1/2+y,-z
1/2-x,1/2+y,z
1/2+x,1/2-y,z
loop_
_atom_site_type_symbol
_atom_site_label
_atom_site_fract_x
_atom_site_fract_y
_atom_site_fract_z
Si Si1 0.623960 0.665228 0.388914
Si Si2 0.406220 0.582987 0.739229
Si Si3 0.602477 0.000000 0.889662
Si Si4 0.153706 0.738784 0.384487
Si Si5 0.677339 0.141907 0.389259
O O1 0.601137 0.661798 0.500000
O O2 0.585908 0.626251 0.327616
O O3 0.605786 0.716122 0.356345
O O4 0.724409 0.654845 0.383074
O O5 0.500000 0.570430 0.773880
O O6 0.372719 0.543399 0.671821
O O7 0.348126 0.600199 0.824849
O O8 0.500000 0.000000 0.893945
O O9 0.631684 0.000000 0.000000
O O10 0.152044 0.737964 0.500000
O O11 0.250000 0.750000 0.357603
O O12 0.131974 0.688226 0.355984
O O13 0.657614 0.133845 0.500000
#
# Coordination Sequence:
#
# PCOD9513758 Si02
#       5
#    32  32  16  32  32
#     4   9  17  32  55  80 105 137 179 221 255 293
#     4  11  22  35  54  78 102 132 173 219 268 319
#     4   9  20  40  60  75  97 133 175 218 268 326
#     4   7  12  26  49  74 102 141 181 207 236 292
#     4   9  18  34  54  77 109 145 176 207 247 303
#
# _framework density 21.572066
#
# number of rings (size 3 to 8) (size 9 to 14) (size 15 to 20)
#    0.000    3.000    0.000    4.000    0.000    2.667 
#    0.000    8.333    0.000    8.667    0.000    0.000 
#    0.000    0.000    0.000    0.000    0.000    0.000 
#
# Total GULP energy -200768.095234 kJ/mol
# GULP energy per Si atom -5576.891534 kJ/mol
# Density = 2.152297 g / cm^3
# Si number density = 21.572066 Si / 1000 Ang^3
#
#
#
# Elastic Constant Matrix: (Units=GPa)
#
#
# Indices 1 2 3 4 5 6 
#
# 1 34.9396 23.5965 29.8107 0.0000 0.0000 0.0000
# 2 23.5965 147.6522 70.3278 0.0000 0.0000 0.0000
# 3 29.8107 70.3278 123.4393 0.0000 0.0000 0.0000
# 4 0.0000 0.0000 0.0000 35.7259 0.0000 0.0000
# 5 0.0000 0.0000 0.0000 0.0000 19.3509 0.0000
# 6 0.0000 0.0000 0.0000 0.0000 0.0000 22.8695
#
#
#
# Elastic Compliance Matrix: (Units=1/GPa)
#
#
# Indices 1 2 3 4 5 6 
#
# 1 0.036585 -0.002249 -0.007554 0.000000 0.000000 0.000000
# 2 -0.002249 0.009433 -0.004831 0.000000 0.000000 0.000000
# 3 -0.007554 -0.004831 0.012678 0.000000 0.000000 0.000000
# 4 0.000000 0.000000 0.000000 0.027991 0.000000 0.000000
# 5 0.000000 0.000000 0.000000 0.000000 0.051677 0.000000
# 6 0.000000 0.000000 0.000000 0.000000 0.000000 0.043726
#
#
# Mechanical properties :
#
#
# Convention : Reuss Voigt Hill
#
# Bulk Modulus (GPa) = 33.98153 61.50012 47.74082
# Shear Modulus (GPa) = 22.60725 27.74234 25.17480
#
# Velocity S-wave (km/s) = 3.24078 3.59002 3.41986
# Velocity P-wave (km/s) = 5.45805 6.76427 6.14596
#
# Compressibility (1/GPa) = 0.02942775
#
# Stress axis : x y z
#
# Youngs Moduli (GPa) = 27.33389 106.00780 78.87590
#
# Poissons Ratio (x) = 0.23836 0.59584
# Poissons Ratio (y) = 0.06146 0.38109
# Poissons Ratio (z) = 0.20648 0.51217
#
# Static dielectric constant tensor:
#      x y z
#    x 1.911080 0.000000 0.000000 
#    y 0.000000 1.785640 0.000000 
#    z 0.000000 0.000000 1.795150 
# 
# From -- ./inp_files/15573.got.cif
#   From: 2010.05.17/outbox.cif.g08.bks.cpg/sg69_8_cif.got.tgz:15573.got - 2010.06.03 19:29:58.
