data_PCOD9513809
_publ_section_title
;
Structure prediction by ZEFSAII (Michael W. Deem and Ramdas Pophale) SiO2 
 PCOD9513809
Probable space group: F M M M
;
_chemical_formula_sum "Si O2"
_cell_formula_units_Z 152
_cell_length_a 14.826509
_cell_length_b 23.971695
_cell_length_c 21.290989
_cell_angle_alpha 90.000000
_cell_angle_beta 90.000000
_cell_angle_gamma 90.000000
_cell_volume 7567.169892
_symmetry_space_group_name_H-M "F M M M"
_symmetry_group_IT_number 69
_symmetry_cell_setting 'orthorhombic'
loop_
_space_group_symop_operation_xyz
x,y,z
-x,-y,z
x,-y,-z
-x,y,-z
-x,-y,-z
x,y,-z
-x,y,z
x,-y,z
x,1/2+y,1/2+z
-x,1/2-y,1/2+z
x,1/2-y,1/2-z
-x,1/2+y,1/2-z
-x,1/2-y,1/2-z
x,1/2+y,1/2-z
-x,1/2+y,1/2+z
x,1/2-y,1/2+z
1/2+x,y,1/2+z
1/2-x,-y,1/2+z
1/2+x,-y,1/2-z
1/2-x,y,1/2-z
1/2-x,-y,1/2-z
1/2+x,y,1/2-z
1/2-x,y,1/2+z
1/2+x,-y,1/2+z
1/2+x,1/2+y,z
1/2-x,1/2-y,z
1/2+x,1/2-y,-z
1/2-x,1/2+y,-z
1/2-x,1/2-y,-z
1/2+x,1/2+y,-z
1/2-x,1/2+y,z
1/2+x,1/2-y,z
loop_
_atom_site_type_symbol
_atom_site_label
_atom_site_fract_x
_atom_site_fract_y
_atom_site_fract_z
Si Si1 0.106229 0.434926 0.756224
Si Si2 0.500000 0.062601 0.574552
Si Si3 0.859570 0.750582 0.321967
Si Si4 0.343136 0.369438 0.136952
Si Si5 0.000000 0.116759 0.500000
Si Si6 0.864570 0.131726 0.616915
O O1 0.132014 0.500000 0.752674
O O2 0.159871 0.397038 0.706486
O O3 0.116814 0.411117 0.826212
O O4 0.000000 0.430232 0.739526
O O5 0.500000 0.060716 0.500000
O O6 0.588649 0.093693 0.597733
O O7 0.500000 0.000000 0.600517
O O8 0.891440 0.750000 0.250000
O O9 0.750000 0.750000 0.319809
O O10 0.882305 0.692768 0.355465
O O11 0.888653 0.806317 0.357448
O O12 0.243522 0.368125 0.107973
O O13 0.078463 0.117946 0.444339
#
# Coordination Sequence:
#
# PCOD9513809 Si02
#       6
#    32  16  32  32   8  32
#     4  11  22  40  67 102 135 165 221 292 341 390
#     4  11  26  46  64  95 135 170 225 288 335 403
#     4   9  18  37  66 102 133 164 216 281 340 396
#     4  11  22  41  72  99 131 172 221 283 348 398
#     4  12  28  48  63  92 140 186 227 264 310 418
#     4  11  24  44  67  96 139 186 223 271 333 406
#
# _framework density 20.086770000000001
#
# number of rings (size 3 to 8) (size 9 to 14) (size 15 to 20)
#    0.000    1.368    4.211    1.263    1.474    3.368 
#    3.789    4.737    0.000    0.000    0.000    0.000 
#    0.000    0.000    0.000    0.000    0.000    0.000 
#
# Total GULP energy -211957.539993 kJ/mol
# GULP energy per Si atom -5577.830000 kJ/mol
# Density = 2.004105 g / cm^3
# Si number density = 20.086770 Si / 1000 Ang^3
#
#
#
# Elastic Constant Matrix: (Units=GPa)
#
#
# Indices 1 2 3 4 5 6 
#
# 1 127.5156 30.4732 47.3148 0.0000 0.0000 0.0000
# 2 30.4732 113.6300 17.5330 0.0000 0.0000 0.0000
# 3 47.3148 17.5330 119.8543 0.0000 0.0000 0.0000
# 4 0.0000 0.0000 0.0000 -13.9126 0.0000 0.0000
# 5 0.0000 0.0000 0.0000 0.0000 26.5632 0.0000
# 6 0.0000 0.0000 0.0000 0.0000 0.0000 8.6883
#
#
#
# Elastic Compliance Matrix: (Units=1/GPa)
#
#
# Indices 1 2 3 4 5 6 
#
# 1 0.009630 -0.002042 -0.003503 0.000000 0.000000 0.000000
# 2 -0.002042 0.009437 -0.000574 0.000000 0.000000 0.000000
# 3 -0.003503 -0.000574 0.009810 0.000000 0.000000 0.000000
# 4 0.000000 0.000000 0.000000 -0.071877 0.000000 0.000000
# 5 0.000000 0.000000 0.000000 0.000000 0.037646 0.000000
# 6 0.000000 0.000000 0.000000 0.000000 0.000000 0.115097
#
#
# Mechanical properties :
#
#
# Convention : Reuss Voigt Hill
#
# Bulk Modulus (GPa) = 60.10166 61.29354 60.69760
# Shear Modulus (GPa) = 39.20714 21.97971 30.59342
#
# Velocity S-wave (km/s) = 4.42281 3.31152 3.90688
# Velocity P-wave (km/s) = 7.48783 6.72325 7.11582
#
# Compressibility (1/GPa) = 0.01663848
#
# Stress axis : x y z
#
# Youngs Moduli (GPa) = 103.84299 105.96874 101.93362
#
# Poissons Ratio (x) = 0.21639 0.35706
# Poissons Ratio (y) = 0.21205 0.05854
# Poissons Ratio (z) = 0.36375 0.06086
#
# Static dielectric constant tensor:
#      x y z
#    x 1.743260 0.000000 0.000000 
#    y 0.000000 1.703110 0.000000 
#    z 0.000000 0.000000 1.671080 
# 
# From -- ./inp_files/29932.got.cif
#   From: 2010.05.17/outbox.cif.g08.bks.cpg/sg69_15_cif.got.tgz:29932.got - 2010.06.03 19:29:58.
