data_PCOD9513574
_publ_section_title
;
Structure prediction by ZEFSAII (Michael W. Deem and Ramdas Pophale) SiO2 
 PCOD9513574
Probable space group: F M M M
;
_chemical_formula_sum "Si O2"
_cell_formula_units_Z 160
_cell_length_a 19.923644
_cell_length_b 13.927760
_cell_length_c 27.112513
_cell_angle_alpha 90.000000
_cell_angle_beta 90.000000
_cell_angle_gamma 90.000000
_cell_volume 7523.498190
_symmetry_space_group_name_H-M "F M M M"
_symmetry_group_IT_number 69
_symmetry_cell_setting 'orthorhombic'
loop_
_space_group_symop_operation_xyz
x,y,z
-x,-y,z
x,-y,-z
-x,y,-z
-x,-y,-z
x,y,-z
-x,y,z
x,-y,z
x,1/2+y,1/2+z
-x,1/2-y,1/2+z
x,1/2-y,1/2-z
-x,1/2+y,1/2-z
-x,1/2-y,1/2-z
x,1/2+y,1/2-z
-x,1/2+y,1/2+z
x,1/2-y,1/2+z
1/2+x,y,1/2+z
1/2-x,-y,1/2+z
1/2+x,-y,1/2-z
1/2-x,y,1/2-z
1/2-x,-y,1/2-z
1/2+x,y,1/2-z
1/2-x,y,1/2+z
1/2+x,-y,1/2+z
1/2+x,1/2+y,z
1/2-x,1/2-y,z
1/2+x,1/2-y,-z
1/2-x,1/2+y,-z
1/2-x,1/2-y,-z
1/2+x,1/2+y,-z
1/2-x,1/2+y,z
1/2+x,1/2-y,z
loop_
_atom_site_type_symbol
_atom_site_label
_atom_site_fract_x
_atom_site_fract_y
_atom_site_fract_z
Si Si1 0.777378 0.610894 0.556066
Si Si2 0.691972 0.611711 0.289813
Si Si3 0.422617 0.888112 0.711616
Si Si4 0.856200 0.746427 0.369233
Si Si5 0.885588 0.390268 0.943696
O O1 0.796879 0.637921 0.500000
O O2 0.796595 0.500000 0.564828
O O3 0.812979 0.679950 0.594442
O O4 0.696299 0.613521 0.557318
O O5 0.700289 0.500000 0.304959
O O6 0.750000 0.633098 0.250000
O O7 0.622916 0.623770 0.259962
O O8 0.688294 0.681194 0.336053
O O9 0.500000 0.868516 0.722225
O O10 0.395084 0.821143 0.668674
O O11 0.415456 0.000000 0.696844
O O12 0.904466 0.812678 0.402929
O O13 0.905225 0.500000 0.931979
O O14 0.906519 0.369600 0.000000
#
# Coordination Sequence:
#
# PCOD9513574 Si02
#       5
#    32  32  32  32  32
#     4   9  19  34  52  82 123 160 194 241 302 364
#     4  10  24  41  57  86 127 161 195 249 310 358
#     4  10  24  45  63  82 117 162 205 250 302 363
#     4  12  21  32  60  88 113 149 205 248 297 358
#     4   9  19  34  52  82 123 158 191 240 305 368
#
# _framework density 21.266703
#
# number of rings (size 3 to 8) (size 9 to 14) (size 15 to 20)
#    0.000    2.000    0.000    4.200    5.600    4.000 
#    0.000    0.000    0.000    4.800    0.000    8.400 
#    0.000    0.000    0.000    0.000    0.000    0.000 
#
# Total GULP energy -223854.577369 kJ/mol
# GULP energy per Si atom -5596.364434 kJ/mol
# Density = 2.121830 g / cm^3
# Si number density = 21.266703 Si / 1000 Ang^3
#
#
#
# Elastic Constant Matrix: (Units=GPa)
#
#
# Indices 1 2 3 4 5 6 
#
# 1 54.2271 31.7879 31.9063 0.0000 0.0000 0.0000
# 2 31.7879 131.1179 87.5156 0.0000 0.0000 0.0000
# 3 31.9063 87.5156 125.2094 0.0000 0.0000 0.0000
# 4 0.0000 0.0000 0.0000 44.9973 0.0000 0.0000
# 5 0.0000 0.0000 0.0000 0.0000 11.0110 0.0000
# 6 0.0000 0.0000 0.0000 0.0000 0.0000 14.7046
#
#
#
# Elastic Compliance Matrix: (Units=1/GPa)
#
#
# Indices 1 2 3 4 5 6 
#
# 1 0.022316 -0.003027 -0.003571 0.000000 0.000000 0.000000
# 2 -0.003027 0.014707 -0.009508 0.000000 0.000000 0.000000
# 3 -0.003571 -0.009508 0.015542 0.000000 0.000000 0.000000
# 4 0.000000 0.000000 0.000000 0.022224 0.000000 0.000000
# 5 0.000000 0.000000 0.000000 0.000000 0.090819 0.000000
# 6 0.000000 0.000000 0.000000 0.000000 0.000000 0.068006
#
#
# Mechanical properties :
#
#
# Convention : Reuss Voigt Hill
#
# Bulk Modulus (GPa) = 49.13144 68.10823 58.61984
# Shear Modulus (GPa) = 18.34119 24.76553 21.55336
#
# Velocity S-wave (km/s) = 2.93991 3.41621 3.18697
# Velocity P-wave (km/s) = 5.88870 6.90333 6.41610
#
# Compressibility (1/GPa) = 0.02035356
#
# Stress axis : x y z
#
# Youngs Moduli (GPa) = 44.80992 67.99603 64.34029
#
# Poissons Ratio (x) = 0.20580 0.22978
# Poissons Ratio (y) = 0.13563 0.61175
# Poissons Ratio (z) = 0.16003 0.64651
#
# Static dielectric constant tensor:
#      x y z
#    x 1.757810 0.000000 0.000000 
#    y 0.000000 1.809170 0.000000 
#    z 0.000000 0.000000 1.763280 
# 
# From -- ./inp_files/43101.got.cif
#   From: 2010.05.17/outbox.cif.g08.bks.cpg/sg69_22_cif.got.tgz:43101.got - 2010.06.03 19:29:58.
