data_PCOD9513782
_publ_section_title
;
Structure prediction by ZEFSAII (Michael W. Deem and Ramdas Pophale) SiO2 
 PCOD9513782
Probable space group: F M M M
;
_chemical_formula_sum "Si O2"
_cell_formula_units_Z 160
_cell_length_a 14.705790
_cell_length_b 19.162163
_cell_length_c 28.347383
_cell_angle_alpha 90.000000
_cell_angle_beta 90.000000
_cell_angle_gamma 90.000000
_cell_volume 7988.143565
_symmetry_space_group_name_H-M "F M M M"
_symmetry_group_IT_number 69
_symmetry_cell_setting 'orthorhombic'
loop_
_space_group_symop_operation_xyz
x,y,z
-x,-y,z
x,-y,-z
-x,y,-z
-x,-y,-z
x,y,-z
-x,y,z
x,-y,z
x,1/2+y,1/2+z
-x,1/2-y,1/2+z
x,1/2-y,1/2-z
-x,1/2+y,1/2-z
-x,1/2-y,1/2-z
x,1/2+y,1/2-z
-x,1/2+y,1/2+z
x,1/2-y,1/2+z
1/2+x,y,1/2+z
1/2-x,-y,1/2+z
1/2+x,-y,1/2-z
1/2-x,y,1/2-z
1/2-x,-y,1/2-z
1/2+x,y,1/2-z
1/2-x,y,1/2+z
1/2+x,-y,1/2+z
1/2+x,1/2+y,z
1/2-x,1/2-y,z
1/2+x,1/2-y,-z
1/2-x,1/2+y,-z
1/2-x,1/2-y,-z
1/2+x,1/2+y,-z
1/2-x,1/2+y,z
1/2+x,1/2-y,z
loop_
_atom_site_type_symbol
_atom_site_label
_atom_site_fract_x
_atom_site_fract_y
_atom_site_fract_z
Si Si1 0.813140 0.578452 0.395382
Si Si2 0.500000 0.230987 0.054718
Si Si3 0.610166 0.418089 0.691720
Si Si4 0.103645 0.915536 0.797742
Si Si5 0.000000 0.397994 0.446408
Si Si6 0.319146 0.186058 0.110938
O O1 0.777062 0.500000 0.394807
O O2 0.834875 0.603899 0.341914
O O3 0.743787 0.632160 0.418280
O O4 0.909871 0.577882 0.420348
O O5 0.500000 0.314504 0.054382
O O6 0.408499 0.208677 0.082296
O O7 0.500000 0.206695 0.000000
O O8 0.500000 0.418110 0.690188
O O9 0.637917 0.500000 0.684266
O O10 0.635893 0.397522 0.745334
O O11 0.646229 0.361735 0.654638
O O12 0.000000 0.889620 0.804557
O O13 0.099543 0.000000 0.798743
O O14 0.000000 0.421521 0.500000
O O15 0.250000 0.250000 0.122415
#
# Coordination Sequence:
#
# PCOD9513782 Si02
#       6
#    32  16  32  32  16  32
#     4  11  22  38  64  98 133 164 204 259 314 371
#     4  11  26  49  70  87 118 166 213 257 314 387
#     4   9  18  36  64  93 126 169 214 252 295 359
#     4   8  15  31  58  91 128 173 210 242 297 367
#     4  11  23  42  68  93 123 161 202 265 332 376
#     4  12  24  41  66  94 125 161 211 255 310 376
#
# _framework density 20.029685000000001
#
# number of rings (size 3 to 8) (size 9 to 14) (size 15 to 20)
#    0.000    1.800    4.000    2.100    0.000    2.800 
#    0.000    5.000    0.000    7.800    0.000    0.000 
#    0.000    0.000    0.000    0.000    0.000    0.000 
#
# Total GULP energy -223202.795786 kJ/mol
# GULP energy per Si atom -5580.069895 kJ/mol
# Density = 1.998410 g / cm^3
# Si number density = 20.029685 Si / 1000 Ang^3
#
#
#
# Elastic Constant Matrix: (Units=GPa)
#
#
# Indices 1 2 3 4 5 6 
#
# 1 119.0159 53.2103 44.5596 0.0000 0.0000 0.0000
# 2 53.2103 109.5035 44.8590 0.0000 0.0000 0.0000
# 3 44.5596 44.8590 106.0449 0.0000 0.0000 0.0000
# 4 0.0000 0.0000 0.0000 21.5631 0.0000 0.0000
# 5 0.0000 0.0000 0.0000 0.0000 -13.9725 0.0000
# 6 0.0000 0.0000 0.0000 0.0000 0.0000 36.7823
#
#
#
# Elastic Compliance Matrix: (Units=1/GPa)
#
#
# Indices 1 2 3 4 5 6 
#
# 1 0.011461 -0.004350 -0.002976 0.000000 0.000000 0.000000
# 2 -0.004350 0.012698 -0.003543 0.000000 0.000000 0.000000
# 3 -0.002976 -0.003543 0.012179 0.000000 0.000000 0.000000
# 4 0.000000 0.000000 0.000000 0.046375 0.000000 0.000000
# 5 0.000000 0.000000 0.000000 0.000000 -0.071569 0.000000
# 6 0.000000 0.000000 0.000000 0.000000 0.000000 0.027187
#
#
# Mechanical properties :
#
#
# Convention : Reuss Voigt Hill
#
# Bulk Modulus (GPa) = 68.49587 68.86912 68.68250
# Shear Modulus (GPa) = 76.99793 21.67026 49.33410
#
# Velocity S-wave (km/s) = 6.20688 3.29280 4.96830
# Velocity P-wave (km/s) = 9.25411 6.99392 8.20224
#
# Compressibility (1/GPa) = 0.01459942
#
# Stress axis : x y z
#
# Youngs Moduli (GPa) = 87.25002 78.75507 82.10675
#
# Poissons Ratio (x) = 0.34261 0.24433
# Poissons Ratio (y) = 0.37956 0.29093
# Poissons Ratio (z) = 0.25963 0.27906
#
# Static dielectric constant tensor:
#      x y z
#    x 1.787390 0.000000 0.000000 
#    y 0.000000 1.695670 0.000000 
#    z 0.000000 0.000000 1.717850 
# 
# From -- ./inp_files/45677.got.cif
#   From: 2010.05.17/outbox.cif.g08.bks.cpg/sg69_23_cif.got.tgz:45677.got - 2010.06.03 19:29:58.
