data_PCOD9513153
_publ_section_title
;
Structure prediction by ZEFSAII (Michael W. Deem and Ramdas Pophale) SiO2 
 PCOD9513153
Probable space group: F M M M
;
_chemical_formula_sum "Si O2"
_cell_formula_units_Z 176
_cell_length_a 28.570886
_cell_length_b 14.619106
_cell_length_c 18.061905
_cell_angle_alpha 90.000000
_cell_angle_beta 90.000000
_cell_angle_gamma 90.000000
_cell_volume 7544.111128
_symmetry_space_group_name_H-M "F M M M"
_symmetry_group_IT_number 69
_symmetry_cell_setting 'orthorhombic'
loop_
_space_group_symop_operation_xyz
x,y,z
-x,-y,z
x,-y,-z
-x,y,-z
-x,-y,-z
x,y,-z
-x,y,z
x,-y,z
x,1/2+y,1/2+z
-x,1/2-y,1/2+z
x,1/2-y,1/2-z
-x,1/2+y,1/2-z
-x,1/2-y,1/2-z
x,1/2+y,1/2-z
-x,1/2+y,1/2+z
x,1/2-y,1/2+z
1/2+x,y,1/2+z
1/2-x,-y,1/2+z
1/2+x,-y,1/2-z
1/2-x,y,1/2-z
1/2-x,-y,1/2-z
1/2+x,y,1/2-z
1/2-x,y,1/2+z
1/2+x,-y,1/2+z
1/2+x,1/2+y,z
1/2-x,1/2-y,z
1/2+x,1/2-y,-z
1/2-x,1/2+y,-z
1/2-x,1/2-y,-z
1/2+x,1/2+y,-z
1/2-x,1/2+y,z
1/2+x,1/2-y,z
loop_
_atom_site_type_symbol
_atom_site_label
_atom_site_fract_x
_atom_site_fract_y
_atom_site_fract_z
Si Si1 0.551920 0.611227 0.140985
Si Si2 0.500000 0.612036 0.416990
Si Si3 0.419216 0.110469 0.190905
Si Si4 0.154735 0.895951 0.119612
Si Si5 0.819152 0.154602 0.282422
Si Si6 0.254011 0.609825 0.420026
O O1 0.500000 0.643192 0.116435
O O2 0.551661 0.500000 0.132838
O O3 0.558159 0.629053 0.228940
O O4 0.602319 0.642661 0.108722
O O5 0.500000 0.500000 0.416941
O O6 0.500000 0.644747 0.500000
O O7 0.545296 0.640049 0.371774
O O8 0.370171 0.160232 0.181242
O O9 0.411717 0.000000 0.186436
O O10 0.168103 0.901090 0.207564
O O11 0.201232 0.850646 0.086353
O O12 0.152055 0.000000 0.091759
O O13 0.803471 0.250000 0.250000
O O14 0.783178 0.125949 0.345362
O O15 0.274420 0.638138 0.500000
O O16 0.249634 0.500000 0.422112
#
# Coordination Sequence:
#
# PCOD9513153 Si02
#       6
#    32  16  32  32  32  32
#     4   8  12  22  45  73 100 133 176 227 278 328
#     4   9  16  26  47  80 114 150 193 241 290 342
#     4   9  16  29  49  75 109 145 186 235 284 336
#     4   9  18  33  55  80 108 146 193 245 292 340
#     4  11  22  35  53  81 115 154 197 242 289 349
#     4  10  21  38  60  85 114 150 192 241 301 361
#
# _framework density 23.329454999999999
#
# number of rings (size 3 to 8) (size 9 to 14) (size 15 to 20)
#    0.000    2.636    0.909    3.273    0.000    3.636 
#    0.000    4.091    0.000    0.545    0.000    3.818 
#    0.000    0.000    0.000    0.000    0.000    0.727 
#
# Total GULP energy -245458.843017 kJ/mol
# GULP energy per Si atom -5578.610069 kJ/mol
# Density = 2.327636 g / cm^3
# Si number density = 23.329455 Si / 1000 Ang^3
#
#
#
# Elastic Constant Matrix: (Units=GPa)
#
#
# Indices 1 2 3 4 5 6 
#
# 1 180.7216 9.3996 46.0395 0.0000 0.0000 0.0000
# 2 9.3996 44.4593 4.5227 0.0000 0.0000 0.0000
# 3 46.0395 4.5227 81.8959 0.0000 0.0000 0.0000
# 4 0.0000 0.0000 0.0000 9.1906 0.0000 0.0000
# 5 0.0000 0.0000 0.0000 0.0000 3.6539 0.0000
# 6 0.0000 0.0000 0.0000 0.0000 0.0000 2.0066
#
#
#
# Elastic Compliance Matrix: (Units=1/GPa)
#
#
# Indices 1 2 3 4 5 6 
#
# 1 0.006503 -0.001009 -0.003600 0.000000 0.000000 0.000000
# 2 -0.001009 0.022776 -0.000691 0.000000 0.000000 0.000000
# 3 -0.003600 -0.000691 0.014273 0.000000 0.000000 0.000000
# 4 0.000000 0.000000 0.000000 0.108807 0.000000 0.000000
# 5 0.000000 0.000000 0.000000 0.000000 0.273681 0.000000
# 6 0.000000 0.000000 0.000000 0.000000 0.000000 0.498361
#
#
# Mechanical properties :
#
#
# Convention : Reuss Voigt Hill
#
# Bulk Modulus (GPa) = 30.34661 47.44449 38.89555
# Shear Modulus (GPa) = 5.28550 19.44454 12.36502
#
# Velocity S-wave (km/s) = 1.50682 2.89013 2.30471
# Velocity P-wave (km/s) = 4.00792 5.61409 4.87757
#
# Compressibility (1/GPa) = 0.03295261
#
# Stress axis : x y z
#
# Youngs Moduli (GPa) = 153.77597 43.90587 70.06416
#
# Poissons Ratio (x) = 0.04428 0.25224
# Poissons Ratio (y) = 0.15510 0.04840
# Poissons Ratio (z) = 0.55361 0.03033
#
# Static dielectric constant tensor:
#      x y z
#    x 1.891170 0.000000 0.000000 
#    y 0.000000 1.916980 0.000000 
#    z 0.000000 0.000000 1.870800 
# 
# From -- ./inp_files/26783.got.cif
#   From: 2010.05.17/outbox.cif.g08.bks.cpg/sg69_14_cif.got.tgz:26783.got - 2010.06.03 19:29:58.
