data_PCOD9513977
_publ_section_title
;
Structure prediction by ZEFSAII (Michael W. Deem and Ramdas Pophale) SiO2 
 PCOD9513977
Probable space group: F M M M
;
_chemical_formula_sum "Si O2"
_cell_formula_units_Z 36
_cell_length_a 9.000000
_cell_length_b 30.000000
_cell_length_c 30.000000
_cell_angle_alpha 90.000000
_cell_angle_beta 90.000000
_cell_angle_gamma 90.000000
_cell_volume 8100.000000
_symmetry_space_group_name_H-M "F M M M"
_symmetry_group_IT_number 69
_symmetry_cell_setting 'orthorhombic'
loop_
_space_group_symop_operation_xyz
x,y,z
-x,-y,z
x,-y,-z
-x,y,-z
-x,-y,-z
x,y,-z
-x,y,z
x,-y,z
x,1/2+y,1/2+z
-x,1/2-y,1/2+z
x,1/2-y,1/2-z
-x,1/2+y,1/2-z
-x,1/2-y,1/2-z
x,1/2+y,1/2-z
-x,1/2+y,1/2+z
x,1/2-y,1/2+z
1/2+x,y,1/2+z
1/2-x,-y,1/2+z
1/2+x,-y,1/2-z
1/2-x,y,1/2-z
1/2-x,-y,1/2-z
1/2+x,y,1/2-z
1/2-x,y,1/2+z
1/2+x,-y,1/2+z
1/2+x,1/2+y,z
1/2-x,1/2-y,z
1/2+x,1/2-y,-z
1/2-x,1/2+y,-z
1/2-x,1/2-y,-z
1/2+x,1/2+y,-z
1/2-x,1/2+y,z
1/2+x,1/2-y,z
loop_
_atom_site_type_symbol
_atom_site_label
_atom_site_fract_x
_atom_site_fract_y
_atom_site_fract_z
Si Si1 0.175885 0.206424 0.202220
Si Si2 0.822679 0.640696 0.374790
Si Si3 0.167147 0.945956 0.000000
Si Si4 0.677045 0.798243 0.948642
Si Si5 0.318482 0.450513 0.096378
O O1 0.250000 0.200930 0.250000
O O2 0.250000 0.250000 0.180879
O O3 0.206975 0.165283 0.170936
O O4 0.000000 0.213019 0.206612
O O5 0.741587 0.666250 0.414418
O O6 0.779002 0.589246 0.371559
O O7 0.000000 0.643193 0.383547
O O8 0.237645 0.935930 0.047300
O O9 0.000000 0.926755 0.000000
O O10 0.154265 0.000000 0.000000
O O11 0.500000 0.794529 0.943910
O O12 0.750000 0.750000 0.940351
O O13 0.711137 0.810715 0.000000
O O14 0.500000 0.452719 0.093174
O O15 0.266530 0.500000 0.107190
#
# Coordination Sequence:
#
# PCOD9513977 Si02
#       5
#    32  32  16  32  32
#     4  10  20  34  52  75  99 124 158 199 250 303
#     4  10  20  31  50  78 101 127 165 207 250 296
#     4   7  10  18  34  58  88 121 156 193 234 271
#     4  10  21  35  49  68  98 135 170 201 239 292
#     4   8  14  25  42  68 100 130 163 205 245 281
#
# _framework density 4.4444439999999998
#
# number of rings (size 3 to 8) (size 9 to 14) (size 15 to 20)
#    0.000    2.778    0.000    4.000    1.556    4.889 
#    0.000    0.000    0.000    1.333    0.000    1.556 
#    0.000    0.000    0.000    0.000    0.000    0.889 
#
# Total GULP energy -200451.734358 kJ/mol
# GULP energy per Si atom -5568.103732 kJ/mol
# Density = 0.443433 g / cm^3
# Si number density = 4.444444 Si / 1000 Ang^3
#
#
#
# Elastic Constant Matrix: (Units=GPa)
#
#
# Indices 1 2 3 4 5 6 
#
# 1 14.6303 31.5782 33.4456 0.0000 0.0000 0.0000
# 2 31.5782 129.6137 70.3683 0.0000 0.0000 0.0000
# 3 33.4456 70.3683 56.8623 0.0000 0.0000 0.0000
# 4 0.0000 0.0000 0.0000 108.6867 0.0000 0.0000
# 5 0.0000 0.0000 0.0000 0.0000 9.9841 0.0000
# 6 0.0000 0.0000 0.0000 0.0000 0.0000 2.4536
#
#
#
# Elastic Compliance Matrix: (Units=1/GPa)
#
#
# Indices 1 2 3 4 5 6 
#
# 1 -0.136886 -0.031578 0.119593 0.000000 0.000000 0.000000
# 2 -0.031578 0.016227 -0.001508 0.000000 0.000000 0.000000
# 3 0.119593 -0.001508 -0.050890 0.000000 0.000000 0.000000
# 4 0.000000 0.000000 0.000000 0.009201 0.000000 0.000000
# 5 0.000000 0.000000 0.000000 0.000000 0.100159 0.000000
# 6 0.000000 0.000000 0.000000 0.000000 0.000000 0.407569
#
#
# Mechanical properties :
#
#
# Convention : Reuss Voigt Hill
#
# Bulk Modulus (GPa) = 682.74522 52.43228 367.58875
# Shear Modulus (GPa) = 28.92594 28.60583 28.76588
#
# Velocity S-wave (km/s) = 4.03809 4.01568 4.02690
# Velocity P-wave (km/s) = 20.16481 7.14550 15.12742
#
# Compressibility (1/GPa) = 0.00146468
#
# Stress axis : x y z
#
# Youngs Moduli (GPa) = -7.30534 61.62390 -19.65032
#
# Poissons Ratio (x) = 1.94593 2.35003
# Poissons Ratio (y) = -0.23068 -0.02964
# Poissons Ratio (z) = 0.87366 0.09295
#
# Static dielectric constant tensor:
#      x y z
#    x 1.611140 0.000000 0.000000 
#    y 0.000000 1.447390 0.000000 
#    z 0.000000 0.000000 1.617850 
# 
# From -- ./inp_files/44511.got.cif
#   From: 2010.05.17/outbox.ucp.g08.bks.cvg/sg69_23_cif.got.tgz:44511.got - 2010.06.11 16:51:34.
