data_PCOD9513423
_publ_section_title
;
Structure prediction by ZEFSAII (Michael W. Deem and Ramdas Pophale) SiO2 
 PCOD9513423
Probable space group: F M M M
;
_chemical_formula_sum "Si O2"
_cell_formula_units_Z 160
_cell_length_a 23.124380
_cell_length_b 18.845687
_cell_length_c 17.182291
_cell_angle_alpha 90.000000
_cell_angle_beta 90.000000
_cell_angle_gamma 90.000000
_cell_volume 7487.953543
_symmetry_space_group_name_H-M "F M M M"
_symmetry_group_IT_number 69
_symmetry_cell_setting 'orthorhombic'
loop_
_space_group_symop_operation_xyz
x,y,z
-x,-y,z
x,-y,-z
-x,y,-z
-x,-y,-z
x,y,-z
-x,y,z
x,-y,z
x,1/2+y,1/2+z
-x,1/2-y,1/2+z
x,1/2-y,1/2-z
-x,1/2+y,1/2-z
-x,1/2-y,1/2-z
x,1/2+y,1/2-z
-x,1/2+y,1/2+z
x,1/2-y,1/2+z
1/2+x,y,1/2+z
1/2-x,-y,1/2+z
1/2+x,-y,1/2-z
1/2-x,y,1/2-z
1/2-x,-y,1/2-z
1/2+x,y,1/2-z
1/2-x,y,1/2+z
1/2+x,-y,1/2+z
1/2+x,1/2+y,z
1/2-x,1/2-y,z
1/2+x,1/2-y,-z
1/2-x,1/2+y,-z
1/2-x,1/2-y,-z
1/2+x,1/2+y,-z
1/2-x,1/2+y,z
1/2+x,1/2-y,z
loop_
_atom_site_type_symbol
_atom_site_label
_atom_site_fract_x
_atom_site_fract_y
_atom_site_fract_z
Si Si1 0.127872 0.085291 0.170754
Si Si2 0.627703 0.579286 0.592332
Si Si3 0.746102 0.586155 0.089582
Si Si4 0.069273 0.203107 0.086115
Si Si5 0.433580 0.671016 0.693872
O O1 0.193958 0.102534 0.147474
O O2 0.090336 0.123694 0.103752
O O3 0.105404 0.124867 0.247816
O O4 0.121036 0.000000 0.174219
O O5 0.631510 0.574631 0.500000
O O6 0.622836 0.500000 0.624941
O O7 0.690362 0.611270 0.615539
O O8 0.573012 0.624580 0.616076
O O9 0.750159 0.500000 0.087109
O O10 0.734182 0.609218 0.000000
O O11 0.086232 0.252626 0.160267
O O12 0.000000 0.206308 0.085049
O O13 0.090466 0.225796 0.000000
O O14 0.500000 0.673714 0.720923
#
# Coordination Sequence:
#
# PCOD9513423 Si02
#       5
#    32  32  32  32  32
#     4  11  22  36  59  89 119 150 187 237 295 350
#     4   9  18  34  57  83 112 152 201 245 284 334
#     4   8  16  33  56  83 115 149 188 238 294 345
#     4  10  22  40  60  81 111 156 203 243 286 338
#     4  11  23  38  55  81 120 158 191 232 288 350
#
# _framework density 21.367653000000001
#
# number of rings (size 3 to 8) (size 9 to 14) (size 15 to 20)
#    0.000    2.200    0.000    4.200    0.000    7.600 
#    0.000    6.000    0.000    6.000    0.000    0.000 
#    0.000    0.000    0.000    0.000    0.000    0.000 
#
# Total GULP energy -222876.911522 kJ/mol
# GULP energy per Si atom -5571.922788 kJ/mol
# Density = 2.131902 g / cm^3
# Si number density = 21.367653 Si / 1000 Ang^3
#
#
#
# Elastic Constant Matrix: (Units=GPa)
#
#
# Indices 1 2 3 4 5 6 
#
# 1 65.8359 34.4785 33.0354 0.0000 0.0000 0.0000
# 2 34.4785 92.9503 32.1002 0.0000 0.0000 0.0000
# 3 33.0354 32.1002 84.0416 0.0000 0.0000 0.0000
# 4 0.0000 0.0000 0.0000 30.0318 0.0000 0.0000
# 5 0.0000 0.0000 0.0000 0.0000 40.4976 0.0000
# 6 0.0000 0.0000 0.0000 0.0000 0.0000 -95.5873
#
#
#
# Elastic Compliance Matrix: (Units=1/GPa)
#
#
# Indices 1 2 3 4 5 6 
#
# 1 0.021309 -0.005773 -0.006171 0.000000 0.000000 0.000000
# 2 -0.005773 0.013957 -0.003062 0.000000 0.000000 0.000000
# 3 -0.006171 -0.003062 0.015494 0.000000 0.000000 0.000000
# 4 0.000000 0.000000 0.000000 0.033298 0.000000 0.000000
# 5 0.000000 0.000000 0.000000 0.000000 0.024693 0.000000
# 6 0.000000 0.000000 0.000000 0.000000 0.000000 -0.010462
#
#
# Mechanical properties :
#
#
# Convention : Reuss Voigt Hill
#
# Bulk Modulus (GPa) = 48.19634 49.11732 48.65683
# Shear Modulus (GPa) = 36.97722 4.53601 20.75661
#
# Velocity S-wave (km/s) = 4.16447 1.45858 3.12012
# Velocity P-wave (km/s) = 6.76228 5.08658 5.98338
#
# Compressibility (1/GPa) = 0.02074846
#
# Stress axis : x y z
#
# Youngs Moduli (GPa) = 46.92774 71.64732 64.54050
#
# Poissons Ratio (x) = 0.41363 0.39830
# Poissons Ratio (y) = 0.27092 0.19761
# Poissons Ratio (z) = 0.28960 0.21936
#
# Static dielectric constant tensor:
#      x y z
#    x 1.760400 0.000000 0.000000 
#    y 0.000000 1.800880 0.000000 
#    z 0.000000 0.000000 1.898750 
# 
# From -- ./inp_files/24574.got.cif
#   From: 2010.05.17/outbox.cif.g08.bks.cpg/sg69_13_cif.got.tgz:24574.got - 2010.06.03 19:29:58.
