data_PCOD9513931
_publ_section_title
;
Structure prediction by ZEFSAII (Michael W. Deem and Ramdas Pophale) SiO2 
 PCOD9513931
Probable space group: F M M M
;
_chemical_formula_sum "Si O2"
_cell_formula_units_Z 80
_cell_length_a 18.768247
_cell_length_b 13.724800
_cell_length_c 12.693870
_cell_angle_alpha 90.000000
_cell_angle_beta 90.000000
_cell_angle_gamma 90.000000
_cell_volume 3269.819513
_symmetry_space_group_name_H-M "F M M M"
_symmetry_group_IT_number 69
_symmetry_cell_setting 'orthorhombic'
loop_
_space_group_symop_operation_xyz
x,y,z
-x,-y,z
x,-y,-z
-x,y,-z
-x,-y,-z
x,y,-z
-x,y,z
x,-y,z
x,1/2+y,1/2+z
-x,1/2-y,1/2+z
x,1/2-y,1/2-z
-x,1/2+y,1/2-z
-x,1/2-y,1/2-z
x,1/2+y,1/2-z
-x,1/2+y,1/2+z
x,1/2-y,1/2+z
1/2+x,y,1/2+z
1/2-x,-y,1/2+z
1/2+x,-y,1/2-z
1/2-x,y,1/2-z
1/2-x,-y,1/2-z
1/2+x,y,1/2-z
1/2-x,y,1/2+z
1/2+x,-y,1/2+z
1/2+x,1/2+y,z
1/2-x,1/2-y,z
1/2+x,1/2-y,-z
1/2-x,1/2+y,-z
1/2-x,1/2-y,-z
1/2+x,1/2+y,-z
1/2-x,1/2+y,z
1/2+x,1/2-y,z
loop_
_atom_site_type_symbol
_atom_site_label
_atom_site_fract_x
_atom_site_fract_y
_atom_site_fract_z
Si Si1 0.641560 0.382664 0.832146
Si Si2 0.197972 0.881745 0.388040
Si Si3 0.000000 0.776558 0.880547
O O1 0.637882 0.500000 0.840351
O O2 0.719432 0.352763 0.875169
O O3 0.648688 0.354695 0.708867
O O4 0.572685 0.338102 0.883255
O O5 0.170152 0.848989 0.500000
O O6 0.199847 0.000000 0.386063
O O7 0.000000 0.750000 0.750000
O O8 0.000000 0.723117 0.000000
#
# Coordination Sequence:
#
# PCOD9513931 Si02
#       3
#    32  32  16
#     4   9  18  34  60  90 113 141 188 240 286 335
#     4   8  14  28  54  88 119 142 174 230 293 344
#     4  12  27  43  57  79 117 160 196 234 282 336
#
# _framework density 24.466182
#
# number of rings (size 3 to 8) (size 9 to 14) (size 15 to 20)
#    0.000    2.800    0.000    4.200    0.000    4.800 
#    0.000    4.000    0.000   18.000    0.000    0.000 
#    0.000    0.000    0.000    0.000    0.000    0.000 
#
# Total GULP energy -111597.737193 kJ/mol
# GULP energy per Si atom -5579.886860 kJ/mol
# Density = 2.441050 g / cm^3
# Si number density = 24.466182 Si / 1000 Ang^3
#
#
#
# Elastic Constant Matrix: (Units=GPa)
#
#
# Indices 1 2 3 4 5 6 
#
# 1 140.0652 40.8556 39.9103 0.0000 0.0000 0.0000
# 2 40.8556 82.5994 26.5595 0.0000 0.0000 0.0000
# 3 39.9103 26.5595 208.5929 0.0000 0.0000 0.0000
# 4 0.0000 0.0000 0.0000 22.8255 0.0000 0.0000
# 5 0.0000 0.0000 0.0000 0.0000 -4.4113 0.0000
# 6 0.0000 0.0000 0.0000 0.0000 0.0000 34.4426
#
#
#
# Elastic Compliance Matrix: (Units=1/GPa)
#
#
# Indices 1 2 3 4 5 6 
#
# 1 0.008600 -0.003884 -0.001151 0.000000 0.000000 0.000000
# 2 -0.003884 0.014377 -0.001088 0.000000 0.000000 0.000000
# 3 -0.001151 -0.001088 0.005153 0.000000 0.000000 0.000000
# 4 0.000000 0.000000 0.000000 0.043811 0.000000 0.000000
# 5 0.000000 0.000000 0.000000 0.000000 -0.226692 0.000000
# 6 0.000000 0.000000 0.000000 0.000000 0.000000 0.029034
#
#
# Mechanical properties :
#
#
# Convention : Reuss Voigt Hill
#
# Bulk Modulus (GPa) = 62.94969 71.76760 67.35864
# Shear Modulus (GPa) = -46.22072 32.16684 -7.02694
#
# Velocity S-wave (km/s) = -4.35117 3.62988 -1.69657
# Velocity P-wave (km/s) = 0.73589 6.85311 4.87374
#
# Compressibility (1/GPa) = 0.01588570
#
# Stress axis : x y z
#
# Youngs Moduli (GPa) = 116.27394 69.55382 194.07229
#
# Poissons Ratio (x) = 0.27014 0.22338
# Poissons Ratio (y) = 0.45159 0.21106
# Poissons Ratio (z) = 0.13383 0.07564
#
# Static dielectric constant tensor:
#      x y z
#    x 1.814030 0.000000 0.000000 
#    y 0.000000 1.984230 0.000000 
#    z 0.000000 0.000000 2.066600 
# 
# From -- ./inp_files/14724.got.cif
#   From: 2010.05.17/outbox.cif.g08.bks.cpg/sg69_8_cif.got.tgz:14724.got - 2010.06.03 19:29:58.
