data_PCOD9513382
_publ_section_title
;
Structure prediction by ZEFSAII (Michael W. Deem and Ramdas Pophale) SiO2 
 PCOD9513382
Probable space group: F M M M
;
_chemical_formula_sum "Si O2"
_cell_formula_units_Z 112
_cell_length_a 14.732268
_cell_length_b 26.211375
_cell_length_c 13.830714
_cell_angle_alpha 90.000000
_cell_angle_beta 90.000000
_cell_angle_gamma 90.000000
_cell_volume 5340.771719
_symmetry_space_group_name_H-M "F M M M"
_symmetry_group_IT_number 69
_symmetry_cell_setting 'orthorhombic'
loop_
_space_group_symop_operation_xyz
x,y,z
-x,-y,z
x,-y,-z
-x,y,-z
-x,-y,-z
x,y,-z
-x,y,z
x,-y,z
x,1/2+y,1/2+z
-x,1/2-y,1/2+z
x,1/2-y,1/2-z
-x,1/2+y,1/2-z
-x,1/2-y,1/2-z
x,1/2+y,1/2-z
-x,1/2+y,1/2+z
x,1/2-y,1/2+z
1/2+x,y,1/2+z
1/2-x,-y,1/2+z
1/2+x,-y,1/2-z
1/2-x,y,1/2-z
1/2-x,-y,1/2-z
1/2+x,y,1/2-z
1/2-x,y,1/2+z
1/2+x,-y,1/2+z
1/2+x,1/2+y,z
1/2-x,1/2-y,z
1/2+x,1/2-y,-z
1/2-x,1/2+y,-z
1/2-x,1/2-y,-z
1/2+x,1/2+y,-z
1/2-x,1/2+y,z
1/2+x,1/2-y,z
loop_
_atom_site_type_symbol
_atom_site_label
_atom_site_fract_x
_atom_site_fract_y
_atom_site_fract_z
Si Si1 0.500000 0.309164 0.226020
Si Si2 0.153220 0.133531 0.115628
Si Si3 0.500000 0.396661 0.385415
Si Si4 0.694112 0.442192 0.616026
Si Si5 0.500000 0.054120 0.615910
O O1 0.500000 0.250000 0.250000
O O2 0.406586 0.322768 0.167393
O O3 0.500000 0.346361 0.319168
O O4 0.249579 0.108936 0.144873
O O5 0.088859 0.085346 0.137044
O O6 0.154604 0.144301 0.000000
O O7 0.500000 0.383735 0.500000
O O8 0.410594 0.429784 0.365337
O O9 0.708037 0.444068 0.500000
O O10 0.718045 0.500000 0.649641
O O11 0.500000 0.049485 0.500000
O O12 0.500000 0.000000 0.663624
#
# Coordination Sequence:
#
# PCOD9513382 Si02
#       5
#    16  32  16  32  16
#     4  11  24  41  59  79 109 152 198 251 305 344
#     4   9  18  34  58  87 114 141 184 240 294 347
#     4  10  22  39  57  82 118 159 201 235 276 349
#     4   9  17  34  61  89 121 158 188 226 286 354
#     4   8  12  21  42  75 112 139 158 198 269 342
#
# _framework density 20.970752000000001
#
# number of rings (size 3 to 8) (size 9 to 14) (size 15 to 20)
#    0.000    2.714    0.000    2.571    0.000    7.429 
#    0.000   12.857    0.000    5.143    0.000    0.000 
#    0.000    0.000    0.000    0.000    0.000    0.000 
#
# Total GULP energy -155977.699571 kJ/mol
# GULP energy per Si atom -5570.632128 kJ/mol
# Density = 2.092302 g / cm^3
# Si number density = 20.970752 Si / 1000 Ang^3
#
#
#
# Elastic Constant Matrix: (Units=GPa)
#
#
# Indices 1 2 3 4 5 6 
#
# 1 122.0624 36.3473 20.1538 0.0000 0.0000 0.0000
# 2 36.3473 146.2003 44.5405 0.0000 0.0000 0.0000
# 3 20.1538 44.5405 133.4952 0.0000 0.0000 0.0000
# 4 0.0000 0.0000 0.0000 41.7502 0.0000 0.0000
# 5 0.0000 0.0000 0.0000 0.0000 25.2694 0.0000
# 6 0.0000 0.0000 0.0000 0.0000 0.0000 14.6365
#
#
#
# Elastic Compliance Matrix: (Units=1/GPa)
#
#
# Indices 1 2 3 4 5 6 
#
# 1 0.008902 -0.002008 -0.000674 0.000000 0.000000 0.000000
# 2 -0.002008 0.008067 -0.002388 0.000000 0.000000 0.000000
# 3 -0.000674 -0.002388 0.008390 0.000000 0.000000 0.000000
# 4 0.000000 0.000000 0.000000 0.023952 0.000000 0.000000
# 5 0.000000 0.000000 0.000000 0.000000 0.039574 0.000000
# 6 0.000000 0.000000 0.000000 0.000000 0.000000 0.068322
#
#
# Mechanical properties :
#
#
# Convention : Reuss Voigt Hill
#
# Bulk Modulus (GPa) = 65.71277 67.09344 66.40311
# Shear Modulus (GPa) = 28.99920 36.37896 32.68908
#
# Velocity S-wave (km/s) = 3.72269 4.16955 3.95244
# Velocity P-wave (km/s) = 7.06267 7.43259 7.24999
#
# Compressibility (1/GPa) = 0.01521774
#
# Stress axis : x y z
#
# Youngs Moduli (GPa) = 112.33847 123.96651 119.19626
#
# Poissons Ratio (x) = 0.24889 0.08034
# Poissons Ratio (y) = 0.22555 0.28468
# Poissons Ratio (z) = 0.07572 0.29607
#
# Static dielectric constant tensor:
#      x y z
#    x 1.655740 0.000000 0.000000 
#    y 0.000000 1.723100 0.000000 
#    z 0.000000 0.000000 1.844430 
# 
# From -- ./inp_files/14320.got.cif
#   From: 2010.05.17/outbox.cif.g08.bks.cpg/sg69_8_cif.got.tgz:14320.got - 2010.06.03 19:29:58.
