data_PCOD9513444
_publ_section_title
;
Structure prediction by ZEFSAII (Michael W. Deem and Ramdas Pophale) SiO2 
 PCOD9513444
Probable space group: F M M M
;
_chemical_formula_sum "Si O2"
_cell_formula_units_Z 152
_cell_length_a 22.779577
_cell_length_b 24.237082
_cell_length_c 14.965004
_cell_angle_alpha 90.000000
_cell_angle_beta 90.000000
_cell_angle_gamma 90.000000
_cell_volume 8262.335477
_symmetry_space_group_name_H-M "F M M M"
_symmetry_group_IT_number 69
_symmetry_cell_setting 'orthorhombic'
loop_
_space_group_symop_operation_xyz
x,y,z
-x,-y,z
x,-y,-z
-x,y,-z
-x,-y,-z
x,y,-z
-x,y,z
x,-y,z
x,1/2+y,1/2+z
-x,1/2-y,1/2+z
x,1/2-y,1/2-z
-x,1/2+y,1/2-z
-x,1/2-y,1/2-z
x,1/2+y,1/2-z
-x,1/2+y,1/2+z
x,1/2-y,1/2+z
1/2+x,y,1/2+z
1/2-x,-y,1/2+z
1/2+x,-y,1/2-z
1/2-x,y,1/2-z
1/2-x,-y,1/2-z
1/2+x,y,1/2-z
1/2-x,y,1/2+z
1/2+x,-y,1/2+z
1/2+x,1/2+y,z
1/2-x,1/2-y,z
1/2+x,1/2-y,-z
1/2-x,1/2+y,-z
1/2-x,1/2-y,-z
1/2+x,1/2+y,-z
1/2-x,1/2+y,z
1/2+x,1/2-y,z
loop_
_atom_site_type_symbol
_atom_site_label
_atom_site_fract_x
_atom_site_fract_y
_atom_site_fract_z
Si Si1 0.708108 0.937182 0.500000
Si Si2 0.500000 0.791280 0.500000
Si Si3 0.791328 0.935041 0.328667
Si Si4 0.888331 0.143572 0.603246
Si Si5 0.629341 0.832499 0.500000
Si Si6 0.680064 0.749382 0.854888
Si Si7 0.500000 0.707881 0.666871
O O1 0.750922 0.929904 0.415853
O O2 0.656425 0.893111 0.500000
O O3 0.685880 0.000000 0.500000
O O4 0.559266 0.826736 0.500000
O O5 0.500000 0.749666 0.583363
O O6 0.750000 0.911688 0.250000
O O7 0.852282 0.904208 0.346824
O O8 0.802054 0.000000 0.310844
O O9 0.903411 0.128860 0.500000
O O10 0.844027 0.195026 0.601710
O O11 0.943971 0.167879 0.656216
O O12 0.653446 0.800478 0.587723
O O13 0.663256 0.750000 0.750000
O O14 0.750000 0.750000 0.860546
O O15 0.500000 0.750000 0.750000
#
# Coordination Sequence:
#
# PCOD9513444 Si02
#       7
#    16   8  32  32  16  32  16
#     4  10  22  40  63  91 122 164 210 265 330 379
#     4  12  24  40  55  86 121 168 224 246 312 378
#     4  10  23  41  64  93 126 165 211 266 330 389
#     4  12  22  39  62  88 127 167 214 264 317 385
#     4  12  23  40  59  82 123 166 203 260 313 375
#     4  11  23  34  55  89 120 151 197 252 318 386
#     4  12  24  42  61  89 130 176 211 262 321 389
#
# _framework density 18.396735
#
# number of rings (size 3 to 8) (size 9 to 14) (size 15 to 20)
#    0.000    0.842    5.263    2.211    5.895    0.000 
#    0.000    0.789    0.000    1.263    0.000    5.895 
#    0.000    0.000    0.000    0.000    0.000    0.000 
#
# Total GULP energy -212293.397192 kJ/mol
# GULP energy per Si atom -5586.668347 kJ/mol
# Density = 1.835486 g / cm^3
# Si number density = 18.396735 Si / 1000 Ang^3
#
#
#
# Elastic Constant Matrix: (Units=GPa)
#
#
# Indices 1 2 3 4 5 6 
#
# 1 142.9348 70.5793 46.7313 0.0000 0.0000 0.0000
# 2 70.5793 99.4950 30.4966 0.0000 0.0000 0.0000
# 3 46.7313 30.4966 136.6061 0.0000 0.0000 0.0000
# 4 0.0000 0.0000 0.0000 95.5487 0.0000 0.0000
# 5 0.0000 0.0000 0.0000 0.0000 31.6892 0.0000
# 6 0.0000 0.0000 0.0000 0.0000 0.0000 -26.5415
#
#
#
# Elastic Compliance Matrix: (Units=1/GPa)
#
#
# Indices 1 2 3 4 5 6 
#
# 1 0.011374 -0.007381 -0.002243 0.000000 0.000000 0.000000
# 2 -0.007381 0.015579 -0.000953 0.000000 0.000000 0.000000
# 3 -0.002243 -0.000953 0.008300 0.000000 0.000000 0.000000
# 4 0.000000 0.000000 0.000000 0.010466 0.000000 0.000000
# 5 0.000000 0.000000 0.000000 0.000000 0.031556 0.000000
# 6 0.000000 0.000000 0.000000 0.000000 0.000000 -0.037677
#
#
# Mechanical properties :
#
#
# Convention : Reuss Voigt Hill
#
# Bulk Modulus (GPa) = 70.92649 74.96115 72.94382
# Shear Modulus (GPa) = 76.39073 35.55454 55.97263
#
# Velocity S-wave (km/s) = 6.45091 4.40097 5.52190
# Velocity P-wave (km/s) = 9.70171 8.16456 8.96614
#
# Compressibility (1/GPa) = 0.01409911
#
# Stress axis : x y z
#
# Youngs Moduli (GPa) = 87.91782 64.18992 120.47571
#
# Poissons Ratio (x) = 0.47379 0.27025
# Poissons Ratio (y) = 0.64893 0.11480
# Poissons Ratio (z) = 0.19722 0.06117
#
# Static dielectric constant tensor:
#      x y z
#    x 1.625670 0.000000 0.000000 
#    y 0.000000 1.627670 0.000000 
#    z 0.000000 0.000000 2.826360 
# 
# From -- ./inp_files/17831.got.cif
#   From: 2010.05.17/outbox.cif.g08.bks.cpg/sg69_9_cif.got.tgz:17831.got - 2010.06.03 19:29:58.
