data_PCOD9513315
_publ_section_title
;
Structure prediction by ZEFSAII (Michael W. Deem and Ramdas Pophale) SiO2 
 PCOD9513315
Probable space group: F M M M
;
_chemical_formula_sum "Si O2"
_cell_formula_units_Z 176
_cell_length_a 18.373498
_cell_length_b 32.771703
_cell_length_c 16.566450
_cell_angle_alpha 90.000000
_cell_angle_beta 90.000000
_cell_angle_gamma 90.000000
_cell_volume 9975.170115
_symmetry_space_group_name_H-M "F M M M"
_symmetry_group_IT_number 69
_symmetry_cell_setting 'orthorhombic'
loop_
_space_group_symop_operation_xyz
x,y,z
-x,-y,z
x,-y,-z
-x,y,-z
-x,-y,-z
x,y,-z
-x,y,z
x,-y,z
x,1/2+y,1/2+z
-x,1/2-y,1/2+z
x,1/2-y,1/2-z
-x,1/2+y,1/2-z
-x,1/2-y,1/2-z
x,1/2+y,1/2-z
-x,1/2+y,1/2+z
x,1/2-y,1/2+z
1/2+x,y,1/2+z
1/2-x,-y,1/2+z
1/2+x,-y,1/2-z
1/2-x,y,1/2-z
1/2-x,-y,1/2-z
1/2+x,y,1/2-z
1/2-x,y,1/2+z
1/2+x,-y,1/2+z
1/2+x,1/2+y,z
1/2-x,1/2-y,z
1/2+x,1/2-y,-z
1/2-x,1/2+y,-z
1/2-x,1/2-y,-z
1/2+x,1/2+y,-z
1/2-x,1/2+y,z
1/2+x,1/2-y,z
loop_
_atom_site_type_symbol
_atom_site_label
_atom_site_fract_x
_atom_site_fract_y
_atom_site_fract_z
Si Si1 0.780685 0.375511 0.000000
Si Si2 0.082784 0.279894 0.368264
Si Si3 0.416316 0.046383 0.822141
Si Si4 0.582428 0.312580 0.685687
Si Si5 0.802766 0.116495 0.675878
Si Si6 0.296913 0.208780 0.500000
Si Si7 0.578853 0.075518 0.000000
O O1 0.760736 0.391838 0.909370
O O2 0.757247 0.329055 0.000000
O O3 0.864580 0.388151 0.000000
O O4 0.088616 0.300601 0.280347
O O5 0.089450 0.230881 0.358767
O O6 0.148392 0.293661 0.424307
O O7 0.000000 0.288184 0.397766
O O8 0.500000 0.056997 0.798695
O O9 0.355354 0.079003 0.798619
O O10 0.413973 0.048985 0.919748
O O11 0.401784 0.000000 0.796102
O O12 0.500000 0.328311 0.671673
O O13 0.643636 0.344942 0.663023
O O14 0.750000 0.125325 0.750000
O O15 0.250000 0.250000 0.500000
O O16 0.500000 0.094635 0.000000
#
# Coordination Sequence:
#
# PCOD9513315 Si02
#       7
#    16  32  32  32  32  16  16
#     4  10  22  34  46  73 102 130 168 202 237 292
#     4   9  19  34  51  68  90 124 169 212 249 294
#     4   9  17  30  50  76 102 129 163 202 246 299
#     4   9  18  34  52  70  92 124 165 207 251 298
#     4  11  21  34  51  73 104 136 164 200 249 299
#     4  12  21  31  45  67  97 127 162 206 253 293
#     4   8  15  30  51  73 101 133 161 197 247 300
#
# _framework density 17.643809999999998
#
# number of rings (size 3 to 8) (size 9 to 14) (size 15 to 20)
#    0.000    2.364    0.000    4.364    0.000    2.182 
#    0.000    3.636    0.000    0.000    0.000    0.000 
#    0.000    1.455    0.000    0.000    0.000    0.000 
#
# Total GULP energy -245073.859689 kJ/mol
# GULP energy per Si atom -5569.860447 kJ/mol
# Density = 1.760365 g / cm^3
# Si number density = 17.643810 Si / 1000 Ang^3
#
#
#
# Elastic Constant Matrix: (Units=GPa)
#
#
# Indices 1 2 3 4 5 6 
#
# 1 51.8597 35.1197 20.3063 0.0000 0.0000 0.0000
# 2 35.1197 68.9702 3.3844 0.0000 0.0000 0.0000
# 3 20.3063 3.3844 56.6104 0.0000 0.0000 0.0000
# 4 0.0000 0.0000 0.0000 12.3027 0.0000 0.0000
# 5 0.0000 0.0000 0.0000 0.0000 13.0418 0.0000
# 6 0.0000 0.0000 0.0000 0.0000 0.0000 28.0228
#
#
#
# Elastic Compliance Matrix: (Units=1/GPa)
#
#
# Indices 1 2 3 4 5 6 
#
# 1 0.035895 -0.017698 -0.011818 0.000000 0.000000 0.000000
# 2 -0.017698 0.023268 0.004957 0.000000 0.000000 0.000000
# 3 -0.011818 0.004957 0.021607 0.000000 0.000000 0.000000
# 4 0.000000 0.000000 0.000000 0.081283 0.000000 0.000000
# 5 0.000000 0.000000 0.000000 0.000000 0.076676 0.000000
# 6 0.000000 0.000000 0.000000 0.000000 0.000000 0.035685
#
#
# Mechanical properties :
#
#
# Convention : Reuss Voigt Hill
#
# Bulk Modulus (GPa) = 31.59221 32.78456 32.18838
# Shear Modulus (GPa) = 14.96634 18.58212 16.77423
#
# Velocity S-wave (km/s) = 2.91563 3.24880 3.08671
# Velocity P-wave (km/s) = 5.41100 5.71792 5.56658
#
# Compressibility (1/GPa) = 0.03165337
#
# Stress axis : x y z
#
# Youngs Moduli (GPa) = 27.85877 42.97822 46.28071
#
# Poissons Ratio (x) = 0.76063 0.54693
# Poissons Ratio (y) = 0.49305 -0.22943
# Poissons Ratio (z) = 0.32923 -0.21306
#
# Static dielectric constant tensor:
#      x y z
#    x 1.604210 0.000000 0.000000 
#    y 0.000000 1.591480 0.000000 
#    z 0.000000 0.000000 1.648130 
# 
# From -- ./inp_files/23633.got.cif
#   From: 2010.05.17/outbox.cif.g08.bks.cpg/sg69_12_cif.got.tgz:23633.got - 2010.06.03 19:29:58.
