data_PCOD9513438
_publ_section_title
;
Structure prediction by ZEFSAII (Michael W. Deem and Ramdas Pophale) SiO2 
 PCOD9513438
Probable space group: F M M M
;
_chemical_formula_sum "Si O2"
_cell_formula_units_Z 168
_cell_length_a 20.475202
_cell_length_b 24.532714
_cell_length_c 15.892091
_cell_angle_alpha 90.000000
_cell_angle_beta 90.000000
_cell_angle_gamma 90.000000
_cell_volume 7982.792381
_symmetry_space_group_name_H-M "F M M M"
_symmetry_group_IT_number 69
_symmetry_cell_setting 'orthorhombic'
loop_
_space_group_symop_operation_xyz
x,y,z
-x,-y,z
x,-y,-z
-x,y,-z
-x,-y,-z
x,y,-z
-x,y,z
x,-y,z
x,1/2+y,1/2+z
-x,1/2-y,1/2+z
x,1/2-y,1/2-z
-x,1/2+y,1/2-z
-x,1/2-y,1/2-z
x,1/2+y,1/2-z
-x,1/2+y,1/2+z
x,1/2-y,1/2+z
1/2+x,y,1/2+z
1/2-x,-y,1/2+z
1/2+x,-y,1/2-z
1/2-x,y,1/2-z
1/2-x,-y,1/2-z
1/2+x,y,1/2-z
1/2-x,y,1/2+z
1/2+x,-y,1/2+z
1/2+x,1/2+y,z
1/2-x,1/2-y,z
1/2+x,1/2-y,-z
1/2-x,1/2+y,-z
1/2-x,1/2-y,-z
1/2+x,1/2+y,-z
1/2-x,1/2+y,z
1/2+x,1/2-y,z
loop_
_atom_site_type_symbol
_atom_site_label
_atom_site_fract_x
_atom_site_fract_y
_atom_site_fract_z
Si Si1 0.577588 0.438442 0.236912
Si Si2 0.121273 0.673717 0.682522
Si Si3 0.392694 0.214240 0.127952
Si Si4 0.661322 0.561978 0.595015
Si Si5 0.500000 0.823583 0.000000
Si Si6 0.746378 0.332406 0.594427
O O1 0.500000 0.435536 0.246667
O O2 0.594636 0.500000 0.207691
O O3 0.599718 0.388895 0.177256
O O4 0.611013 0.431303 0.328519
O O5 0.090492 0.721421 0.625453
O O6 0.105427 0.692587 0.776936
O O7 0.198219 0.676928 0.662904
O O8 0.442623 0.181080 0.072250
O O9 0.317564 0.205301 0.100869
O O10 0.632992 0.568569 0.500000
O O11 0.686378 0.500000 0.600072
O O12 0.717090 0.606879 0.604546
O O13 0.774134 0.327283 0.500000
#
# Coordination Sequence:
#
# PCOD9513438 Si02
#       6
#    32  32  32  32   8  32
#     4  10  22  40  62  92 129 172 224 275 333 403
#     4  11  25  41  66  94 136 179 219 279 334 395
#     4  11  25  43  66  99 135 173 221 274 337 402
#     4   9  19  36  59  91 130 174 221 274 333 395
#     4  12  28  46  70 100 132 180 222 274 334 400
#     4  11  22  41  65  99 135 175 225 278 334 398
#
# _framework density 21.045266999999999
#
# number of rings (size 3 to 8) (size 9 to 14) (size 15 to 20)
#    0.000    1.524    2.857    1.143    4.000    4.190 
#    0.000    3.810    0.000    0.000    0.000    2.000 
#    0.000    0.000    0.000    0.000    0.000    0.000 
#
# Total GULP energy -234051.642896 kJ/mol
# GULP energy per Si atom -5572.658164 kJ/mol
# Density = 2.099737 g / cm^3
# Si number density = 21.045267 Si / 1000 Ang^3
#
#
#
# Elastic Constant Matrix: (Units=GPa)
#
#
# Indices 1 2 3 4 5 6 
#
# 1 62.7686 8.5210 15.9622 0.0000 0.0000 0.0000
# 2 8.5210 156.3736 12.6509 0.0000 0.0000 0.0000
# 3 15.9622 12.6509 40.3178 0.0000 0.0000 0.0000
# 4 0.0000 0.0000 0.0000 11.3358 0.0000 0.0000
# 5 0.0000 0.0000 0.0000 0.0000 -18.8983 0.0000
# 6 0.0000 0.0000 0.0000 0.0000 0.0000 8.4815
#
#
#
# Elastic Compliance Matrix: (Units=1/GPa)
#
#
# Indices 1 2 3 4 5 6 
#
# 1 0.017741 -0.000409 -0.006895 0.000000 0.000000 0.000000
# 2 -0.000409 0.006571 -0.001900 0.000000 0.000000 0.000000
# 3 -0.006895 -0.001900 0.028129 0.000000 0.000000 0.000000
# 4 0.000000 0.000000 0.000000 0.088216 0.000000 0.000000
# 5 0.000000 0.000000 0.000000 0.000000 -0.052915 0.000000
# 6 0.000000 0.000000 0.000000 0.000000 0.000000 0.117904
#
#
# Mechanical properties :
#
#
# Convention : Reuss Voigt Hill
#
# Bulk Modulus (GPa) = 29.38392 37.08088 33.23240
# Shear Modulus (GPa) = 21.24063 15.00554 18.12309
#
# Velocity S-wave (km/s) = 3.18037 2.67313 2.93772
# Velocity P-wave (km/s) = 5.24203 5.21395 5.22801
#
# Compressibility (1/GPa) = 0.03403222
#
# Stress axis : x y z
#
# Youngs Moduli (GPa) = 56.36807 152.18547 35.55043
#
# Poissons Ratio (x) = 0.06222 0.24513
# Poissons Ratio (y) = 0.02305 0.06754
# Poissons Ratio (z) = 0.38868 0.28914
#
# Static dielectric constant tensor:
#      x y z
#    x 1.713920 0.000000 0.000000 
#    y 0.000000 1.849250 0.000000 
#    z 0.000000 0.000000 1.755100 
# 
# From -- ./inp_files/16912.got.cif
#   From: 2010.05.17/outbox.cif.g08.bks.cpg/sg69_9_cif.got.tgz:16912.got - 2010.06.03 19:29:58.
