data_PCOD9513105
_publ_section_title
;
Structure prediction by ZEFSAII (Michael W. Deem and Ramdas Pophale) SiO2 
 PCOD9513105
Probable space group: F M M M
;
_chemical_formula_sum "Si O2"
_cell_formula_units_Z 128
_cell_length_a 14.338269
_cell_length_b 23.060743
_cell_length_c 17.267712
_cell_angle_alpha 90.000000
_cell_angle_beta 90.000000
_cell_angle_gamma 90.000000
_cell_volume 5709.588597
_symmetry_space_group_name_H-M "F M M M"
_symmetry_group_IT_number 69
_symmetry_cell_setting 'orthorhombic'
loop_
_space_group_symop_operation_xyz
x,y,z
-x,-y,z
x,-y,-z
-x,y,-z
-x,-y,-z
x,y,-z
-x,y,z
x,-y,z
x,1/2+y,1/2+z
-x,1/2-y,1/2+z
x,1/2-y,1/2-z
-x,1/2+y,1/2-z
-x,1/2-y,1/2-z
x,1/2+y,1/2-z
-x,1/2+y,1/2+z
x,1/2-y,1/2+z
1/2+x,y,1/2+z
1/2-x,-y,1/2+z
1/2+x,-y,1/2-z
1/2-x,y,1/2-z
1/2-x,-y,1/2-z
1/2+x,y,1/2-z
1/2-x,y,1/2+z
1/2+x,-y,1/2+z
1/2+x,1/2+y,z
1/2-x,1/2-y,z
1/2+x,1/2-y,-z
1/2-x,1/2+y,-z
1/2-x,1/2-y,-z
1/2+x,1/2+y,-z
1/2-x,1/2+y,z
1/2+x,1/2-y,z
loop_
_atom_site_type_symbol
_atom_site_label
_atom_site_fract_x
_atom_site_fract_y
_atom_site_fract_z
Si Si1 0.608483 0.063331 0.732175
Si Si2 0.603787 0.138300 0.117752
Si Si3 0.815778 0.618119 0.413539
Si Si4 0.139582 0.238994 0.162122
O O1 0.500000 0.064221 0.710573
O O2 0.620077 0.114322 0.794634
O O3 0.634842 0.176517 0.621453
O O4 0.629094 0.000000 0.767469
O O5 0.500000 0.115642 0.094381
O O6 0.834817 0.072471 0.154131
O O7 0.599316 0.207706 0.114175
O O8 0.851201 0.605927 0.500000
O O9 0.750000 0.750000 0.334086
O O10 0.703353 0.623725 0.419317
O O11 0.104851 0.250000 0.250000
#
# Coordination Sequence:
#
# PCOD9513105 Si02
#       4
#    32  32  32  32
#     4  10  22  41  65  90 115 153 207 256 296 349
#     4  10  21  37  61  88 118 159 206 248 289 347
#     4  11  23  38  59  91 128 160 193 243 307 366
#     4   9  17  33  57  84 113 154 196 240 291 344
#
# _framework density 22.418427999999999
#
# number of rings (size 3 to 8) (size 9 to 14) (size 15 to 20)
#    0.000    2.000    2.500    0.750    0.000    9.500 
#    0.000    1.250    0.000    0.000    0.000    5.250 
#    0.000    0.000    0.000    0.000    0.000    0.000 
#
# Total GULP energy -178278.764047 kJ/mol
# GULP energy per Si atom -5571.211376 kJ/mol
# Density = 2.236740 g / cm^3
# Si number density = 22.418428 Si / 1000 Ang^3
#
#
#
# Elastic Constant Matrix: (Units=GPa)
#
#
# Indices 1 2 3 4 5 6 
#
# 1 92.6794 13.9378 31.5322 0.0000 0.0000 0.0000
# 2 13.9378 75.6085 9.5099 0.0000 0.0000 0.0000
# 3 31.5322 9.5099 96.2779 0.0000 0.0000 0.0000
# 4 0.0000 0.0000 0.0000 3.8992 0.0000 0.0000
# 5 0.0000 0.0000 0.0000 0.0000 7.7210 0.0000
# 6 0.0000 0.0000 0.0000 0.0000 0.0000 -21.7161
#
#
#
# Elastic Compliance Matrix: (Units=1/GPa)
#
#
# Indices 1 2 3 4 5 6 
#
# 1 0.012379 -0.001794 -0.003877 0.000000 0.000000 0.000000
# 2 -0.001794 0.013652 -0.000761 0.000000 0.000000 0.000000
# 3 -0.003877 -0.000761 0.011732 0.000000 0.000000 0.000000
# 4 0.000000 0.000000 0.000000 0.256463 0.000000 0.000000
# 5 0.000000 0.000000 0.000000 0.000000 0.129517 0.000000
# 6 0.000000 0.000000 0.000000 0.000000 0.000000 -0.046049
#
#
# Mechanical properties :
#
#
# Convention : Reuss Voigt Hill
#
# Bulk Modulus (GPa) = 40.16307 41.61398 40.88853
# Shear Modulus (GPa) = 12.53580 11.95321 12.24451
#
# Velocity S-wave (km/s) = 2.36725 2.31159 2.33959
# Velocity P-wave (km/s) = 5.04241 5.07221 5.05733
#
# Compressibility (1/GPa) = 0.02489849
#
# Stress axis : x y z
#
# Youngs Moduli (GPa) = 80.78342 73.24670 85.24053
#
# Poissons Ratio (x) = 0.13143 0.33047
# Poissons Ratio (y) = 0.14495 0.06486
# Poissons Ratio (z) = 0.31319 0.05573
#
# Static dielectric constant tensor:
#      x y z
#    x 1.932600 0.000000 0.000000 
#    y 0.000000 1.822110 0.000000 
#    z 0.000000 0.000000 1.816410 
# 
# From -- ./inp_files/22763.got.cif
#   From: 2010.05.17/outbox.cif.g08.bks.cpg/sg69_12_cif.got.tgz:22763.got - 2010.06.03 19:29:58.
