data_PCOD9513194
_publ_section_title
;
Structure prediction by ZEFSAII (Michael W. Deem and Ramdas Pophale) SiO2 
 PCOD9513194
Probable space group: F M M M
;
_chemical_formula_sum "Si O2"
_cell_formula_units_Z 160
_cell_length_a 14.697307
_cell_length_b 18.422852
_cell_length_c 33.174687
_cell_angle_alpha 90.000000
_cell_angle_beta 90.000000
_cell_angle_gamma 90.000000
_cell_volume 8982.587639
_symmetry_space_group_name_H-M "F M M M"
_symmetry_group_IT_number 69
_symmetry_cell_setting 'orthorhombic'
loop_
_space_group_symop_operation_xyz
x,y,z
-x,-y,z
x,-y,-z
-x,y,-z
-x,-y,-z
x,y,-z
-x,y,z
x,-y,z
x,1/2+y,1/2+z
-x,1/2-y,1/2+z
x,1/2-y,1/2-z
-x,1/2+y,1/2-z
-x,1/2-y,1/2-z
x,1/2+y,1/2-z
-x,1/2+y,1/2+z
x,1/2-y,1/2+z
1/2+x,y,1/2+z
1/2-x,-y,1/2+z
1/2+x,-y,1/2-z
1/2-x,y,1/2-z
1/2-x,-y,1/2-z
1/2+x,y,1/2-z
1/2-x,y,1/2+z
1/2+x,-y,1/2+z
1/2+x,1/2+y,z
1/2-x,1/2-y,z
1/2+x,1/2-y,-z
1/2-x,1/2+y,-z
1/2-x,1/2-y,-z
1/2+x,1/2+y,-z
1/2-x,1/2+y,z
1/2+x,1/2-y,z
loop_
_atom_site_type_symbol
_atom_site_label
_atom_site_fract_x
_atom_site_fract_y
_atom_site_fract_z
Si Si1 0.607326 0.321741 0.276095
Si Si2 0.392698 0.083817 0.300021
Si Si3 0.247208 0.587445 0.065908
Si Si4 0.605031 0.088415 0.500000
Si Si5 0.897666 0.411769 0.000000
Si Si6 0.744431 0.833509 0.150130
O O1 0.500000 0.313177 0.285298
O O2 0.634777 0.250000 0.250000
O O3 0.619535 0.389016 0.245723
O O4 0.665465 0.334862 0.315991
O O5 0.500000 0.090068 0.309195
O O6 0.334238 0.136662 0.327706
O O7 0.365225 0.000000 0.305068
O O8 0.250163 0.500000 0.068394
O O9 0.160814 0.609204 0.038824
O O10 0.235629 0.619526 0.110008
O O11 0.336568 0.609797 0.039749
O O12 0.500000 0.112846 0.500000
O O13 0.604203 0.000000 0.500000
O O14 0.900365 0.500000 0.000000
O O15 0.000000 0.384218 0.000000
O O16 0.750000 0.750000 0.137843
#
# Coordination Sequence:
#
# PCOD9513194 Si02
#       6
#    32  32  32  16  16  32
#     4  10  21  39  58  77 110 155 199 238 287 353
#     4  10  22  39  59  83 111 148 197 249 294 341
#     4   9  19  34  53  83 113 138 184 239 281 342
#     4   8  15  33  60  82 108 152 192 229 288 349
#     4   8  15  33  58  76 100 140 176 216 280 346
#     4  12  23  34  56  84 116 154 190 235 295 348
#
# _framework density 17.812239999999999
#
# number of rings (size 3 to 8) (size 9 to 14) (size 15 to 20)
#    0.000    2.200    2.000    2.400    0.000    4.000 
#    0.000    4.000    0.000    1.200    0.000    0.000 
#    0.000    0.000    0.000    0.000    0.000    0.000 
#
# Total GULP energy -223058.189022 kJ/mol
# GULP energy per Si atom -5576.454726 kJ/mol
# Density = 1.777170 g / cm^3
# Si number density = 17.812240 Si / 1000 Ang^3
#
#
#
# Elastic Constant Matrix: (Units=GPa)
#
#
# Indices 1 2 3 4 5 6 
#
# 1 114.8303 30.5853 72.8356 0.0000 0.0000 0.0000
# 2 30.5853 62.6875 29.3207 0.0000 0.0000 0.0000
# 3 72.8356 29.3207 143.5484 0.0000 0.0000 0.0000
# 4 0.0000 0.0000 0.0000 -30.4848 0.0000 0.0000
# 5 0.0000 0.0000 0.0000 0.0000 -3.5773 0.0000
# 6 0.0000 0.0000 0.0000 0.0000 0.0000 18.6227
#
#
#
# Elastic Compliance Matrix: (Units=1/GPa)
#
#
# Indices 1 2 3 4 5 6 
#
# 1 0.013601 -0.003768 -0.006132 0.000000 0.000000 0.000000
# 2 -0.003768 0.018681 -0.001904 0.000000 0.000000 0.000000
# 3 -0.006132 -0.001904 0.010466 0.000000 0.000000 0.000000
# 4 0.000000 0.000000 0.000000 -0.032803 0.000000 0.000000
# 5 0.000000 0.000000 0.000000 0.000000 -0.279540 0.000000
# 6 0.000000 0.000000 0.000000 0.000000 0.000000 0.053698
#
#
# Mechanical properties :
#
#
# Convention : Reuss Voigt Hill
#
# Bulk Modulus (GPa) = 52.24213 65.17214 58.70714
# Shear Modulus (GPa) = -26.89488 9.46710 -8.71389
#
# Velocity S-wave (km/s) = -3.88997 2.30792 -2.21420
# Velocity P-wave (km/s) = 3.03598 6.61588 5.14718
#
# Compressibility (1/GPa) = 0.01914164
#
# Stress axis : x y z
#
# Youngs Moduli (GPa) = 73.52209 53.53007 95.54500
#
# Poissons Ratio (x) = 0.20171 0.58584
# Poissons Ratio (y) = 0.27705 0.18190
# Poissons Ratio (z) = 0.45081 0.10191
#
# Static dielectric constant tensor:
#      x y z
#    x 1.622620 0.000000 0.000000 
#    y 0.000000 1.612080 0.000000 
#    z 0.000000 0.000000 1.606050 
# 
# From -- ./inp_files/45699.got.cif
#   From: 2010.05.17/outbox.cif.g08.bks.cpg/sg69_23_cif.got.tgz:45699.got - 2010.06.03 19:29:58.
