data_PCOD9513766
_publ_section_title
;
Structure prediction by ZEFSAII (Michael W. Deem and Ramdas Pophale) SiO2 
 PCOD9513766
Probable space group: F M M M
;
_chemical_formula_sum "Si O2"
_cell_formula_units_Z 160
_cell_length_a 21.186756
_cell_length_b 21.849371
_cell_length_c 17.863322
_cell_angle_alpha 90.000000
_cell_angle_beta 90.000000
_cell_angle_gamma 90.000000
_cell_volume 8269.240649
_symmetry_space_group_name_H-M "F M M M"
_symmetry_group_IT_number 69
_symmetry_cell_setting 'orthorhombic'
loop_
_space_group_symop_operation_xyz
x,y,z
-x,-y,z
x,-y,-z
-x,y,-z
-x,-y,-z
x,y,-z
-x,y,z
x,-y,z
x,1/2+y,1/2+z
-x,1/2-y,1/2+z
x,1/2-y,1/2-z
-x,1/2+y,1/2-z
-x,1/2-y,1/2-z
x,1/2+y,1/2-z
-x,1/2+y,1/2+z
x,1/2-y,1/2+z
1/2+x,y,1/2+z
1/2-x,-y,1/2+z
1/2+x,-y,1/2-z
1/2-x,y,1/2-z
1/2-x,-y,1/2-z
1/2+x,y,1/2-z
1/2-x,y,1/2+z
1/2+x,-y,1/2+z
1/2+x,1/2+y,z
1/2-x,1/2-y,z
1/2+x,1/2-y,-z
1/2-x,1/2+y,-z
1/2-x,1/2-y,-z
1/2+x,1/2+y,-z
1/2-x,1/2+y,z
1/2+x,1/2-y,z
loop_
_atom_site_type_symbol
_atom_site_label
_atom_site_fract_x
_atom_site_fract_y
_atom_site_fract_z
Si Si1 0.500000 0.073945 0.089133
Si Si2 0.617567 0.882490 0.188443
Si Si3 0.763382 0.617420 0.083514
Si Si4 0.854134 0.750000 0.750000
Si Si5 0.630682 0.071197 0.352806
Si Si6 0.000000 0.929402 0.911283
Si Si7 0.750000 0.750000 0.372402
O O1 0.439739 0.099916 0.134168
O O2 0.500000 0.000000 0.094106
O O3 0.500000 0.089836 0.000000
O O4 0.681241 0.896362 0.141992
O O5 0.612969 0.811515 0.218101
O O6 0.623193 0.921352 0.264115
O O7 0.695214 0.598763 0.115427
O O8 0.766172 0.690865 0.080976
O O9 0.772850 0.591879 0.000000
O O10 0.807538 0.731474 0.682316
O O11 0.565871 0.099430 0.385473
O O12 0.632438 0.000000 0.374456
O O13 0.000000 0.000000 0.881757
O O14 0.000000 0.931765 0.000000
#
# Coordination Sequence:
#
# PCOD9513766 Si02
#       7
#    16  32  32  16  32  16  16
#     4  11  25  44  64  88 124 168 210 254 310 370
#     4  11  22  40  63  89 119 160 210 253 307 364
#     4  11  22  36  59  89 122 159 201 254 303 355
#     4   9  18  35  64  90 116 151 199 252 304 350
#     4  11  22  37  60  91 123 160 204 249 302 370
#     4   9  19  37  58  81 118 159 191 235 300 364
#     4   9  17  36  58  88 120 154 194 242 298 364
#
# _framework density 19.348814000000001
#
# number of rings (size 3 to 8) (size 9 to 14) (size 15 to 20)
#    0.000    1.600    2.000    3.300    0.000    4.800 
#    0.000    0.000    0.000    1.200    0.000    0.000 
#    0.000    0.000    0.000    0.000    0.000    0.000 
#
# Total GULP energy -222995.864066 kJ/mol
# GULP energy per Si atom -5574.896602 kJ/mol
# Density = 1.930478 g / cm^3
# Si number density = 19.348814 Si / 1000 Ang^3
#
#
#
# Elastic Constant Matrix: (Units=GPa)
#
#
# Indices 1 2 3 4 5 6 
#
# 1 165.1415 28.6864 68.7403 0.0000 0.0000 0.0000
# 2 28.6864 50.1336 13.7570 0.0000 0.0000 0.0000
# 3 68.7403 13.7570 127.6290 0.0000 0.0000 0.0000
# 4 0.0000 0.0000 0.0000 17.9246 0.0000 0.0000
# 5 0.0000 0.0000 0.0000 0.0000 68.3780 0.0000
# 6 0.0000 0.0000 0.0000 0.0000 0.0000 15.3117
#
#
#
# Elastic Compliance Matrix: (Units=1/GPa)
#
#
# Indices 1 2 3 4 5 6 
#
# 1 0.008417 -0.003681 -0.004136 0.000000 0.000000 0.000000
# 2 -0.003681 0.022165 -0.000407 0.000000 0.000000 0.000000
# 3 -0.004136 -0.000407 0.010107 0.000000 0.000000 0.000000
# 4 0.000000 0.000000 0.000000 0.055789 0.000000 0.000000
# 5 0.000000 0.000000 0.000000 0.000000 0.014625 0.000000
# 6 0.000000 0.000000 0.000000 0.000000 0.000000 0.065310
#
#
# Mechanical properties :
#
#
# Convention : Reuss Voigt Hill
#
# Bulk Modulus (GPa) = 41.25371 62.80794 52.03083
# Shear Modulus (GPa) = 24.88314 35.77087 30.32700
#
# Velocity S-wave (km/s) = 3.59002 4.30436 3.96331
# Velocity P-wave (km/s) = 6.20899 7.56536 6.92049
#
# Compressibility (1/GPa) = 0.02424025
#
# Stress axis : x y z
#
# Youngs Moduli (GPa) = 118.81306 45.11718 98.94278
#
# Poissons Ratio (x) = 0.16607 0.40926
# Poissons Ratio (y) = 0.43734 0.04023
# Poissons Ratio (z) = 0.49145 0.01834
#
# Static dielectric constant tensor:
#      x y z
#    x 1.688390 0.000000 0.000000 
#    y 0.000000 1.708060 0.000000 
#    z 0.000000 0.000000 1.687280 
# 
# From -- ./inp_files/24679.got.cif
#   From: 2010.05.17/outbox.cif.g08.bks.cpg/sg69_13_cif.got.tgz:24679.got - 2010.06.03 19:29:58.
