data_PCOD9513228
_publ_section_title
;
Structure prediction by ZEFSAII (Michael W. Deem and Ramdas Pophale) SiO2 
 PCOD9513228
Probable space group: F M M M
;
_chemical_formula_sum "Si O2"
_cell_formula_units_Z 176
_cell_length_a 26.468089
_cell_length_b 23.380701
_cell_length_c 14.642029
_cell_angle_alpha 90.000000
_cell_angle_beta 90.000000
_cell_angle_gamma 90.000000
_cell_volume 9061.109465
_symmetry_space_group_name_H-M "F M M M"
_symmetry_group_IT_number 69
_symmetry_cell_setting 'orthorhombic'
loop_
_space_group_symop_operation_xyz
x,y,z
-x,-y,z
x,-y,-z
-x,y,-z
-x,-y,-z
x,y,-z
-x,y,z
x,-y,z
x,1/2+y,1/2+z
-x,1/2-y,1/2+z
x,1/2-y,1/2-z
-x,1/2+y,1/2-z
-x,1/2-y,1/2-z
x,1/2+y,1/2-z
-x,1/2+y,1/2+z
x,1/2-y,1/2+z
1/2+x,y,1/2+z
1/2-x,-y,1/2+z
1/2+x,-y,1/2-z
1/2-x,y,1/2-z
1/2-x,-y,1/2-z
1/2+x,y,1/2-z
1/2-x,y,1/2+z
1/2+x,-y,1/2+z
1/2+x,1/2+y,z
1/2-x,1/2-y,z
1/2+x,1/2-y,-z
1/2-x,1/2+y,-z
1/2-x,1/2-y,-z
1/2+x,1/2+y,-z
1/2-x,1/2+y,z
1/2+x,1/2-y,z
loop_
_atom_site_type_symbol
_atom_site_label
_atom_site_fract_x
_atom_site_fract_y
_atom_site_fract_z
Si Si1 0.059877 0.740272 0.104695
Si Si2 0.181711 0.931939 0.608574
Si Si3 0.703432 0.935946 0.609568
Si Si4 0.089050 0.872344 0.300406
Si Si5 0.500000 0.062710 0.892392
Si Si6 0.603856 0.865995 0.603265
O O1 0.081097 0.694228 0.175573
O O2 0.092230 0.798446 0.104861
O O3 0.000000 0.751876 0.122517
O O4 0.062676 0.717327 0.000000
O O5 0.176701 0.918295 0.500000
O O6 0.239623 0.922491 0.639460
O O7 0.143409 0.895080 0.668110
O O8 0.171333 0.000000 0.617680
O O9 0.707900 0.941414 0.500000
O O10 0.660993 0.887766 0.621380
O O11 0.688727 0.000000 0.644357
O O12 0.076640 0.886716 0.195146
O O13 0.049013 0.904167 0.362243
O O14 0.500000 0.000000 0.850664
O O15 0.500000 0.058503 0.000000
O O16 0.589929 0.885890 0.500000
#
# Coordination Sequence:
#
# PCOD9513228 Si02
#       6
#    32  32  32  32  16  32
#     4  10  21  39  63  85 110 147 193 243 295 344
#     4   9  18  34  59  90 119 148 189 240 293 349
#     4   8  16  35  60  83 114 155 192 233 287 341
#     4  12  22  35  60  87 116 152 191 235 286 344
#     4  11  24  40  58  85 121 151 181 233 296 347
#     4  10  23  39  57  83 115 153 196 238 279 334
#
# _framework density 19.423670999999999
#
# number of rings (size 3 to 8) (size 9 to 14) (size 15 to 20)
#    0.000    2.091    0.909    3.818    1.273    4.364 
#    0.000    2.727    0.000    7.091    0.000    0.000 
#    0.000    0.000    0.000    0.000    0.000    0.000 
#
# Total GULP energy -245265.531823 kJ/mol
# GULP energy per Si atom -5574.216632 kJ/mol
# Density = 1.937946 g / cm^3
# Si number density = 19.423671 Si / 1000 Ang^3
#
#
#
# Elastic Constant Matrix: (Units=GPa)
#
#
# Indices 1 2 3 4 5 6 
#
# 1 93.2918 60.4829 27.6239 0.0000 0.0000 0.0000
# 2 60.4829 80.5163 22.5999 0.0000 0.0000 0.0000
# 3 27.6239 22.5999 121.3193 0.0000 0.0000 0.0000
# 4 0.0000 0.0000 0.0000 -6.2038 0.0000 0.0000
# 5 0.0000 0.0000 0.0000 0.0000 -14.3216 0.0000
# 6 0.0000 0.0000 0.0000 0.0000 0.0000 35.3398
#
#
#
# Elastic Compliance Matrix: (Units=1/GPa)
#
#
# Indices 1 2 3 4 5 6 
#
# 1 0.021335 -0.015472 -0.001976 0.000000 0.000000 0.000000
# 2 -0.015472 0.024325 -0.001009 0.000000 0.000000 0.000000
# 3 -0.001976 -0.001009 0.008880 0.000000 0.000000 0.000000
# 4 0.000000 0.000000 0.000000 -0.161193 0.000000 0.000000
# 5 0.000000 0.000000 0.000000 0.000000 -0.069825 0.000000
# 6 0.000000 0.000000 0.000000 0.000000 0.000000 0.028297
#
#
# Mechanical properties :
#
#
# Convention : Reuss Voigt Hill
#
# Bulk Modulus (GPa) = 56.72704 57.39342 57.06023
# Shear Modulus (GPa) = -47.44194 15.25762 -16.09216
#
# Velocity S-wave (km/s) = -4.94751 2.80575 -2.88146
# Velocity P-wave (km/s) = 1.83537 6.33314 4.28603
#
# Compressibility (1/GPa) = 0.01762828
#
# Stress axis : x y z
#
# Youngs Moduli (GPa) = 46.87184 41.10959 112.60712
#
# Poissons Ratio (x) = 0.63604 0.22248
# Poissons Ratio (y) = 0.72520 0.11357
# Poissons Ratio (z) = 0.09260 0.04146
#
# Static dielectric constant tensor:
#      x y z
#    x 1.702960 0.000000 0.000000 
#    y 0.000000 1.677060 0.000000 
#    z 0.000000 0.000000 1.744460 
# 
# From -- ./inp_files/17908.got.cif
#   From: 2010.05.17/outbox.cif.g08.bks.cpg/sg69_9_cif.got.tgz:17908.got - 2010.06.03 19:29:58.
