data_PCOD9513975
_publ_section_title
;
Structure prediction by ZEFSAII (Michael W. Deem and Ramdas Pophale) SiO2 
 PCOD9513975
Probable space group: F M M M
;
_chemical_formula_sum "Si O2"
_cell_formula_units_Z 56
_cell_length_a 18.000000
_cell_length_b 30.000000
_cell_length_c 21.000000
_cell_angle_alpha 90.000000
_cell_angle_beta 90.000000
_cell_angle_gamma 90.000000
_cell_volume 11340.000000
_symmetry_space_group_name_H-M "F M M M"
_symmetry_group_IT_number 69
_symmetry_cell_setting 'orthorhombic'
loop_
_space_group_symop_operation_xyz
x,y,z
-x,-y,z
x,-y,-z
-x,y,-z
-x,-y,-z
x,y,-z
-x,y,z
x,-y,z
x,1/2+y,1/2+z
-x,1/2-y,1/2+z
x,1/2-y,1/2-z
-x,1/2+y,1/2-z
-x,1/2-y,1/2-z
x,1/2+y,1/2-z
-x,1/2+y,1/2+z
x,1/2-y,1/2+z
1/2+x,y,1/2+z
1/2-x,-y,1/2+z
1/2+x,-y,1/2-z
1/2-x,y,1/2-z
1/2-x,-y,1/2-z
1/2+x,y,1/2-z
1/2-x,y,1/2+z
1/2+x,-y,1/2+z
1/2+x,1/2+y,z
1/2-x,1/2-y,z
1/2+x,1/2-y,-z
1/2-x,1/2+y,-z
1/2-x,1/2-y,-z
1/2+x,1/2+y,-z
1/2-x,1/2+y,z
1/2+x,1/2-y,z
loop_
_atom_site_type_symbol
_atom_site_label
_atom_site_fract_x
_atom_site_fract_y
_atom_site_fract_z
Si Si1 0.759735 0.699439 0.825149
Si Si2 0.204963 0.549608 0.162561
Si Si3 0.588634 0.251436 0.500000
Si Si4 0.913509 0.180516 0.614202
Si Si5 0.408930 0.647433 0.000000
Si Si6 0.085393 0.052894 0.226249
Si Si7 0.080356 0.577274 0.925607
Si Si8 0.338369 0.116957 0.631484
O O1 0.750000 0.700782 0.750000
O O2 0.750000 0.750000 0.850430
O O3 0.844227 0.683508 0.838202
O O4 0.697411 0.664947 0.850208
O O5 0.235652 0.500000 0.171783
O O6 0.152143 0.560635 0.222952
O O7 0.146068 0.551117 0.106168
O O8 0.268469 0.583923 0.143042
O O9 0.500000 0.247305 0.500000
O O10 0.605228 0.282170 0.561105
O O11 0.614939 0.200212 0.500000
O O12 0.911819 0.130428 0.586355
O O13 0.000000 0.187827 0.635856
O O14 0.373608 0.624071 0.937978
O O15 0.500000 0.645007 0.000000
O O16 0.100098 0.091447 0.174236
O O17 0.000000 0.058148 0.249729
O O18 0.090880 0.000000 0.206623
O O19 0.000000 0.563514 0.899621
O O20 0.080855 0.569881 0.000000
#
# Coordination Sequence:
#
# PCOD9513975 Si02
#       8
#    32  32  16  32  16  32  32  32
#     4  11  24  41  59  91 130 165 210 265 320 384
#     4  11  23  39  63  94 128 163 208 262 318 381
#     4   9  18  37  67  95 116 152 211 266 307 369
#     4  10  19  37  63  89 121 163 209 255 314 382
#     4  11  26  45  64  92 127 165 216 272 318 368
#     4  10  22  43  70  97 125 164 215 268 325 391
#     4  10  20  35  57  89 125 163 203 251 310 381
#     4  12  24  42  65  92 126 169 213 266 322 382
#
# _framework density 4.9382720000000004
#
# number of rings (size 3 to 8) (size 9 to 14) (size 15 to 20)
#    0.000    1.429    2.143    3.429    1.000    2.857 
#    0.000    6.071    0.000    2.571    0.000    0.000 
#    0.000    0.000    0.000    0.000    0.000    0.000 
#
# Total GULP energy -312267.803749 kJ/mol
# GULP energy per Si atom -5576.210781 kJ/mol
# Density = 0.492703 g / cm^3
# Si number density = 4.938272 Si / 1000 Ang^3
#
#
#
# Elastic Constant Matrix: (Units=GPa)
#
#
# Indices 1 2 3 4 5 6 
#
# 1 105.0030 31.1050 51.6788 0.0000 0.0000 0.0000
# 2 31.1050 105.1839 45.7967 0.0000 0.0000 0.0000
# 3 51.6788 45.7967 101.0873 0.0000 0.0000 0.0000
# 4 0.0000 0.0000 0.0000 22.4413 0.0000 0.0000
# 5 0.0000 0.0000 0.0000 0.0000 38.1542 0.0000
# 6 0.0000 0.0000 0.0000 0.0000 0.0000 71.2651
#
#
#
# Elastic Compliance Matrix: (Units=1/GPa)
#
#
# Indices 1 2 3 4 5 6 
#
# 1 0.012840 -0.001170 -0.006034 0.000000 0.000000 0.000000
# 2 -0.001170 0.011950 -0.004816 0.000000 0.000000 0.000000
# 3 -0.006034 -0.004816 0.015159 0.000000 0.000000 0.000000
# 4 0.000000 0.000000 0.000000 0.044561 0.000000 0.000000
# 5 0.000000 0.000000 0.000000 0.000000 0.026209 0.000000
# 6 0.000000 0.000000 0.000000 0.000000 0.000000 0.014032
#
#
# Mechanical properties :
#
#
# Convention : Reuss Voigt Hill
#
# Bulk Modulus (GPa) = 62.85607 63.15949 63.00778
# Shear Modulus (GPa) = 32.44786 38.55171 35.49978
#
# Velocity S-wave (km/s) = 4.05739 4.42258 4.24391
# Velocity P-wave (km/s) = 7.33756 7.62383 7.48207
#
# Compressibility (1/GPa) = 0.01590936
#
# Stress axis : x y z
#
# Youngs Moduli (GPa) = 77.88247 83.68305 65.96727
#
# Poissons Ratio (x) = 0.09789 0.39806
# Poissons Ratio (y) = 0.09110 0.31768
# Poissons Ratio (z) = 0.46996 0.40300
#
# Static dielectric constant tensor:
#      x y z
#    x 1.714120 0.000000 0.000000 
#    y 0.000000 1.706050 0.000000 
#    z 0.000000 0.000000 1.726890 
# 
# From -- ./inp_files/31215.got.cif
#   From: 2010.05.17/outbox.ucp.g08.bks.cvg/sg69_16_cif.got.tgz:31215.got - 2010.06.11 16:51:34.
