data_PCOD9513726
_publ_section_title
;
Structure prediction by ZEFSAII (Michael W. Deem and Ramdas Pophale) SiO2 
 PCOD9513726
Probable space group: F M M M
;
_chemical_formula_sum "Si O2"
_cell_formula_units_Z 160
_cell_length_a 17.611678
_cell_length_b 20.866498
_cell_length_c 23.111601
_cell_angle_alpha 90.000000
_cell_angle_beta 90.000000
_cell_angle_gamma 90.000000
_cell_volume 8493.375709
_symmetry_space_group_name_H-M "F M M M"
_symmetry_group_IT_number 69
_symmetry_cell_setting 'orthorhombic'
loop_
_space_group_symop_operation_xyz
x,y,z
-x,-y,z
x,-y,-z
-x,y,-z
-x,-y,-z
x,y,-z
-x,y,z
x,-y,z
x,1/2+y,1/2+z
-x,1/2-y,1/2+z
x,1/2-y,1/2-z
-x,1/2+y,1/2-z
-x,1/2-y,1/2-z
x,1/2+y,1/2-z
-x,1/2+y,1/2+z
x,1/2-y,1/2+z
1/2+x,y,1/2+z
1/2-x,-y,1/2+z
1/2+x,-y,1/2-z
1/2-x,y,1/2-z
1/2-x,-y,1/2-z
1/2+x,y,1/2-z
1/2-x,y,1/2+z
1/2+x,-y,1/2+z
1/2+x,1/2+y,z
1/2-x,1/2-y,z
1/2+x,1/2-y,-z
1/2-x,1/2+y,-z
1/2-x,1/2-y,-z
1/2+x,1/2+y,-z
1/2-x,1/2+y,z
1/2+x,1/2-y,z
loop_
_atom_site_type_symbol
_atom_site_label
_atom_site_fract_x
_atom_site_fract_y
_atom_site_fract_z
Si Si1 0.589821 0.076781 0.500000
Si Si2 0.157284 0.247686 0.816707
Si Si3 0.847959 0.624711 0.882794
Si Si4 0.825556 0.000000 0.792176
Si Si5 0.831139 0.618669 0.619337
Si Si6 0.410338 0.926788 0.000000
Si Si7 0.588957 0.000000 0.180632
O O1 0.500000 0.090624 0.500000
O O2 0.627147 0.102742 0.440702
O O3 0.600270 0.000000 0.500000
O O4 0.132197 0.250000 0.750000
O O5 0.250000 0.250000 0.815736
O O6 0.129214 0.310301 0.850513
O O7 0.137128 0.182394 0.849757
O O8 0.757994 0.628474 0.893071
O O9 0.885973 0.611555 0.943793
O O10 0.870595 0.563021 0.844736
O O11 0.750000 0.000000 0.750000
O O12 0.830696 0.938693 0.833842
O O13 0.896184 0.000000 0.748670
O O14 0.500000 0.933161 0.000000
O O15 0.377777 0.000000 0.000000
O O16 0.500000 0.000000 0.165143
#
# Coordination Sequence:
#
# PCOD9513726 Si02
#       7
#    16  32  32  16  32  16  16
#     4  11  25  44  63  90 127 167 217 275 327 372
#     4   9  20  37  62  94 130 165 207 267 323 380
#     4  11  21  38  63  92 126 163 211 259 315 391
#     4  12  22  37  64  98 124 163 223 274 313 380
#     4  11  22  40  68  94 125 168 222 270 319 375
#     4  11  23  38  59  88 128 168 206 260 332 389
#     4  12  24  37  60  94 133 165 202 263 330 384
#
# _framework density 18.83821
#
# number of rings (size 3 to 8) (size 9 to 14) (size 15 to 20)
#    0.000    1.200    4.000    2.400    2.800    2.400 
#    0.000    6.000    0.000    4.200    0.000    0.000 
#    0.000    0.000    0.000    0.000    0.000    0.000 
#
# Total GULP energy -223391.434453 kJ/mol
# GULP energy per Si atom -5584.785861 kJ/mol
# Density = 1.879533 g / cm^3
# Si number density = 18.838210 Si / 1000 Ang^3
#
#
#
# Elastic Constant Matrix: (Units=GPa)
#
#
# Indices 1 2 3 4 5 6 
#
# 1 62.3683 40.2073 49.7259 0.0000 0.0000 0.0000
# 2 40.2073 186.3087 109.8885 0.0000 0.0000 0.0000
# 3 49.7259 109.8885 202.6775 0.0000 0.0000 0.0000
# 4 0.0000 0.0000 0.0000 36.0034 0.0000 0.0000
# 5 0.0000 0.0000 0.0000 0.0000 151.8523 0.0000
# 6 0.0000 0.0000 0.0000 0.0000 0.0000 10.0367
#
#
#
# Elastic Compliance Matrix: (Units=1/GPa)
#
#
# Indices 1 2 3 4 5 6 
#
# 1 0.020499 -0.002143 -0.003868 0.000000 0.000000 0.000000
# 2 -0.002143 0.008115 -0.003874 0.000000 0.000000 0.000000
# 3 -0.003868 -0.003874 0.007983 0.000000 0.000000 0.000000
# 4 0.000000 0.000000 0.000000 0.027775 0.000000 0.000000
# 5 0.000000 0.000000 0.000000 0.000000 0.006585 0.000000
# 6 0.000000 0.000000 0.000000 0.000000 0.000000 0.099635
#
#
# Mechanical properties :
#
#
# Convention : Reuss Voigt Hill
#
# Bulk Modulus (GPa) = 59.42371 94.55533 76.98952
# Shear Modulus (GPa) = 25.51411 56.34734 40.93072
#
# Velocity S-wave (km/s) = 3.68418 5.47505 4.66633
# Velocity P-wave (km/s) = 7.05056 9.50108 8.36603
#
# Compressibility (1/GPa) = 0.01682830
#
# Stress axis : x y z
#
# Youngs Moduli (GPa) = 48.78359 123.23123 125.26210
#
# Poissons Ratio (x) = 0.26405 0.48445
# Poissons Ratio (y) = 0.10453 0.48527
# Poissons Ratio (z) = 0.18867 0.47740
#
# Static dielectric constant tensor:
#      x y z
#    x 1.655560 0.000000 0.000000 
#    y 0.000000 1.652610 0.000000 
#    z 0.000000 0.000000 1.666380 
# 
# From -- ./inp_files/24687.got.cif
#   From: 2010.05.17/outbox.cif.g08.bks.cpg/sg69_13_cif.got.tgz:24687.got - 2010.06.03 19:29:58.
