data_PCOD9513878
_publ_section_title
;
Structure prediction by ZEFSAII (Michael W. Deem and Ramdas Pophale) SiO2 
 PCOD9513878
Probable space group: F M M M
;
_chemical_formula_sum "Si O2"
_cell_formula_units_Z 168
_cell_length_a 15.632180
_cell_length_b 20.718142
_cell_length_c 25.340171
_cell_angle_alpha 90.000000
_cell_angle_beta 90.000000
_cell_angle_gamma 90.000000
_cell_volume 8206.914213
_symmetry_space_group_name_H-M "F M M M"
_symmetry_group_IT_number 69
_symmetry_cell_setting 'orthorhombic'
loop_
_space_group_symop_operation_xyz
x,y,z
-x,-y,z
x,-y,-z
-x,y,-z
-x,-y,-z
x,y,-z
-x,y,z
x,-y,z
x,1/2+y,1/2+z
-x,1/2-y,1/2+z
x,1/2-y,1/2-z
-x,1/2+y,1/2-z
-x,1/2-y,1/2-z
x,1/2+y,1/2-z
-x,1/2+y,1/2+z
x,1/2-y,1/2+z
1/2+x,y,1/2+z
1/2-x,-y,1/2+z
1/2+x,-y,1/2-z
1/2-x,y,1/2-z
1/2-x,-y,1/2-z
1/2+x,y,1/2-z
1/2-x,y,1/2+z
1/2+x,-y,1/2+z
1/2+x,1/2+y,z
1/2-x,1/2-y,z
1/2+x,1/2-y,-z
1/2-x,1/2+y,-z
1/2-x,1/2-y,-z
1/2+x,1/2+y,-z
1/2-x,1/2+y,z
1/2+x,1/2-y,z
loop_
_atom_site_type_symbol
_atom_site_label
_atom_site_fract_x
_atom_site_fract_y
_atom_site_fract_z
Si Si1 0.344754 0.605011 0.748739
Si Si2 0.638050 0.427753 0.561062
Si Si3 0.900445 0.177904 0.647289
Si Si4 0.844788 0.427563 0.439025
Si Si5 0.000000 0.000000 0.747580
Si Si6 0.601833 0.176038 0.646784
O O1 0.250000 0.574922 0.750000
O O2 0.350515 0.648070 0.696226
O O3 0.423766 0.555717 0.747747
O O4 0.355706 0.649463 0.800225
O O5 0.611841 0.419675 0.500000
O O6 0.610707 0.500000 0.578715
O O7 0.606800 0.371193 0.598516
O O8 0.741444 0.427003 0.562238
O O9 0.871585 0.250519 0.634514
O O10 0.000000 0.181234 0.662890
O O11 0.870923 0.417948 0.500000
O O12 0.872630 0.500000 0.422528
O O13 0.877667 0.372794 0.400534
O O14 0.500000 0.175431 0.654917
#
# Coordination Sequence:
#
# PCOD9513878 Si02
#       6
#    32  32  32  32   8  32
#     4  12  26  44  70  99 132 175 217 266 327 387
#     4   9  20  39  62  90 124 164 216 276 333 391
#     4  11  24  42  63  91 132 174 217 272 328 390
#     4   9  20  39  62  90 124 164 216 276 333 391
#     4  12  26  48  66 102 138 168 216 272 324 384
#     4  11  24  42  63  91 132 174 217 272 328 390
#
# _framework density 20.470545000000001
#
# number of rings (size 3 to 8) (size 9 to 14) (size 15 to 20)
#    0.000    1.524    1.905    3.143    2.667    7.619 
#    0.000    5.714    0.000    0.000    0.000    0.000 
#    0.000    0.000    0.000    0.000    0.000    0.000 
#
# Total GULP energy -234219.700648 kJ/mol
# GULP energy per Si atom -5576.659539 kJ/mol
# Density = 2.042395 g / cm^3
# Si number density = 20.470545 Si / 1000 Ang^3
#
#
#
# Elastic Constant Matrix: (Units=GPa)
#
#
# Indices 1 2 3 4 5 6 
#
# 1 117.0825 52.0279 26.5847 0.0000 0.0000 0.0000
# 2 52.0279 194.7269 86.1764 0.0000 0.0000 0.0000
# 3 26.5847 86.1764 89.7934 0.0000 0.0000 0.0000
# 4 0.0000 0.0000 0.0000 -32.0202 0.0000 0.0000
# 5 0.0000 0.0000 0.0000 0.0000 28.9902 0.0000
# 6 0.0000 0.0000 0.0000 0.0000 0.0000 5.0758
#
#
#
# Elastic Compliance Matrix: (Units=1/GPa)
#
#
# Indices 1 2 3 4 5 6 
#
# 1 0.009715 -0.002299 -0.000669 0.000000 0.000000 0.000000
# 2 -0.002299 0.009471 -0.008409 0.000000 0.000000 0.000000
# 3 -0.000669 -0.008409 0.019405 0.000000 0.000000 0.000000
# 4 0.000000 0.000000 0.000000 -0.031230 0.000000 0.000000
# 5 0.000000 0.000000 0.000000 0.000000 0.034494 0.000000
# 6 0.000000 0.000000 0.000000 0.000000 0.000000 0.197012
#
#
# Mechanical properties :
#
#
# Convention : Reuss Voigt Hill
#
# Bulk Modulus (GPa) = 63.14907 81.24231 72.19569
# Shear Modulus (GPa) = 18.73357 16.19675 17.46516
#
# Velocity S-wave (km/s) = 3.02842 2.81592 2.92410
# Velocity P-wave (km/s) = 6.56842 7.09550 6.83704
#
# Compressibility (1/GPa) = 0.01583555
#
# Stress axis : x y z
#
# Youngs Moduli (GPa) = 102.93619 105.58475 51.53319
#
# Poissons Ratio (x) = 0.24278 0.03450
# Poissons Ratio (y) = 0.23669 0.43333
# Poissons Ratio (z) = 0.06891 0.88784
#
# Static dielectric constant tensor:
#      x y z
#    x 1.749340 0.000000 0.000000 
#    y 0.000000 1.709230 0.000000 
#    z 0.000000 0.000000 1.695810 
# 
# From -- ./inp_files/40988.got.cif
#   From: 2010.05.17/outbox.cif.g08.bks.cpg/sg69_21_cif.got.tgz:40988.got - 2010.06.03 19:29:58.
