data_PCOD9513757
_publ_section_title
;
Structure prediction by ZEFSAII (Michael W. Deem and Ramdas Pophale) SiO2 
 PCOD9513757
Probable space group: F M M M
;
_chemical_formula_sum "Si O2"
_cell_formula_units_Z 160
_cell_length_a 29.673235
_cell_length_b 33.602721
_cell_length_c 8.566139
_cell_angle_alpha 90.000000
_cell_angle_beta 90.000000
_cell_angle_gamma 90.000000
_cell_volume 8541.309505
_symmetry_space_group_name_H-M "F M M M"
_symmetry_group_IT_number 69
_symmetry_cell_setting 'orthorhombic'
loop_
_space_group_symop_operation_xyz
x,y,z
-x,-y,z
x,-y,-z
-x,y,-z
-x,-y,-z
x,y,-z
-x,y,z
x,-y,z
x,1/2+y,1/2+z
-x,1/2-y,1/2+z
x,1/2-y,1/2-z
-x,1/2+y,1/2-z
-x,1/2-y,1/2-z
x,1/2+y,1/2-z
-x,1/2+y,1/2+z
x,1/2-y,1/2+z
1/2+x,y,1/2+z
1/2-x,-y,1/2+z
1/2+x,-y,1/2-z
1/2-x,y,1/2-z
1/2-x,-y,1/2-z
1/2+x,y,1/2-z
1/2-x,y,1/2+z
1/2+x,-y,1/2+z
1/2+x,1/2+y,z
1/2-x,1/2-y,z
1/2+x,1/2-y,-z
1/2-x,1/2+y,-z
1/2-x,1/2-y,-z
1/2+x,1/2+y,-z
1/2-x,1/2+y,z
1/2+x,1/2-y,z
loop_
_atom_site_type_symbol
_atom_site_label
_atom_site_fract_x
_atom_site_fract_y
_atom_site_fract_z
Si Si1 0.379246 0.860984 0.319501
Si Si2 0.566818 0.000000 0.318521
Si Si3 0.448561 0.294747 0.189163
Si Si4 0.700993 0.086724 0.814823
Si Si5 0.324891 0.500000 0.820771
Si Si6 0.949200 0.915957 0.678350
O O1 0.368037 0.853791 0.500000
O O2 0.407225 0.822785 0.255937
O O3 0.335899 0.880638 0.238719
O O4 0.417210 0.894717 0.300785
O O5 0.550830 0.961675 0.225683
O O6 0.552427 0.000000 0.500000
O O7 0.621027 0.000000 0.318261
O O8 0.500000 0.307095 0.235828
O O9 0.442502 0.250000 0.250000
O O10 0.447681 0.295435 0.000000
O O11 0.750000 0.097578 0.750000
O O12 0.690048 0.041783 0.755216
O O13 0.701580 0.085434 0.000000
O O14 0.308772 0.500000 0.000000
O O15 0.932480 0.910760 0.500000
O O16 0.000000 0.900584 0.686296
#
# Coordination Sequence:
#
# PCOD9513757 Si02
#       6
#    32  16  32  32  16  32
#     4  11  22  38  59  85 116 150 190 236 286 341
#     4  11  22  35  54  75 105 148 191 235 284 339
#     4   9  19  36  60  90 123 157 191 229 275 333
#     4  12  25  41  62  86 114 150 192 243 296 347
#     4  11  22  39  60  84 112 148 194 245 296 346
#     4  11  23  36  52  77 110 149 192 236 282 335
#
# _framework density 18.732491
#
# number of rings (size 3 to 8) (size 9 to 14) (size 15 to 20)
#    0.000    1.200    2.000    4.800    0.000    6.000 
#    0.000    2.000    0.000    0.600    0.000    4.200 
#    0.000    0.000    0.000    0.000    0.000    0.000 
#
# Total GULP energy -223298.016579 kJ/mol
# GULP energy per Si atom -5582.450414 kJ/mol
# Density = 1.868985 g / cm^3
# Si number density = 18.732491 Si / 1000 Ang^3
#
#
#
# Elastic Constant Matrix: (Units=GPa)
#
#
# Indices 1 2 3 4 5 6 
#
# 1 135.9490 60.9300 44.7117 -0.0068 0.0153 0.0484
# 2 60.9300 120.4672 25.4572 0.0018 0.0027 0.0178
# 3 44.7117 25.4572 84.5753 -0.0084 0.0176 0.0334
# 4 -0.0068 0.0018 -0.0084 26.2353 0.0083 0.0157
# 5 0.0153 0.0027 0.0176 0.0083 20.4894 -0.0271
# 6 0.0484 0.0178 0.0334 0.0157 -0.0271 11.8400
#
#
#
# Elastic Compliance Matrix: (Units=1/GPa)
#
#
# Indices 1 2 3 4 5 6 
#
# 1 0.010830 -0.004558 -0.004354 0.000002 -0.000004 -0.000025
# 2 -0.004558 0.010783 -0.000836 -0.000002 0.000003 0.000005
# 3 -0.004354 -0.000836 0.014377 0.000004 -0.000009 -0.000022
# 4 0.000002 -0.000002 0.000004 0.038117 -0.000015 -0.000050
# 5 -0.000004 0.000003 -0.000009 -0.000015 0.048806 0.000112
# 6 -0.000025 0.000005 -0.000022 -0.000050 0.000112 0.084460
#
#
# Mechanical properties :
#
#
# Convention : Reuss Voigt Hill
#
# Bulk Modulus (GPa) = 60.62376 67.02101 63.82238
# Shear Modulus (GPa) = 21.51777 25.70578 23.61178
#
# Velocity S-wave (km/s) = 3.39291 3.70842 3.55416
# Velocity P-wave (km/s) = 6.91247 7.36153 7.14053
#
# Compressibility (1/GPa) = 0.01649518
#
# Stress axis : x y z
#
# Youngs Moduli (GPa) = 92.33392 92.73928 69.55504
#
# Poissons Ratio (x) = 0.42268 0.30282
# Poissons Ratio (y) = 0.42083 0.05816
# Poissons Ratio (z) = 0.40199 0.07755
#
# Static dielectric constant tensor:
#      x y z
#    x 1.659790 0.000000 0.000010 
#    y 0.000000 1.666410 -0.000010 
#    z 0.000010 -0.000010 1.653600 
# 
# From -- ./inp_files/5739.got.cif
#   From: 2010.05.17/outbox.cif.g08.bks.cpg/sg69_3_cif.got.tgz:5739.got - 2010.06.03 19:29:58.
