data_PCOD9513740
_publ_section_title
;
Structure prediction by ZEFSAII (Michael W. Deem and Ramdas Pophale) SiO2 
 PCOD9513740
Probable space group: F M M M
;
_chemical_formula_sum "Si O2"
_cell_formula_units_Z 176
_cell_length_a 24.163310
_cell_length_b 23.325485
_cell_length_c 15.052483
_cell_angle_alpha 90.000000
_cell_angle_beta 90.000000
_cell_angle_gamma 90.000000
_cell_volume 8483.894391
_symmetry_space_group_name_H-M "F M M M"
_symmetry_group_IT_number 69
_symmetry_cell_setting 'orthorhombic'
loop_
_space_group_symop_operation_xyz
x,y,z
-x,-y,z
x,-y,-z
-x,y,-z
-x,-y,-z
x,y,-z
-x,y,z
x,-y,z
x,1/2+y,1/2+z
-x,1/2-y,1/2+z
x,1/2-y,1/2-z
-x,1/2+y,1/2-z
-x,1/2-y,1/2-z
x,1/2+y,1/2-z
-x,1/2+y,1/2+z
x,1/2-y,1/2+z
1/2+x,y,1/2+z
1/2-x,-y,1/2+z
1/2+x,-y,1/2-z
1/2-x,y,1/2-z
1/2-x,-y,1/2-z
1/2+x,y,1/2-z
1/2-x,y,1/2+z
1/2+x,-y,1/2+z
1/2+x,1/2+y,z
1/2-x,1/2-y,z
1/2+x,1/2-y,-z
1/2-x,1/2+y,-z
1/2-x,1/2-y,-z
1/2+x,1/2+y,-z
1/2-x,1/2+y,z
1/2+x,1/2-y,z
loop_
_atom_site_type_symbol
_atom_site_label
_atom_site_fract_x
_atom_site_fract_y
_atom_site_fract_z
Si Si1 0.260868 0.315988 0.355446
Si Si2 0.500000 0.069002 0.399603
Si Si3 0.564218 0.232541 0.353777
Si Si4 0.386221 0.351291 0.401597
Si Si5 0.403394 0.932906 0.261828
Si Si6 0.850010 0.870209 0.097978
O O1 0.250000 0.321573 0.250000
O O2 0.250000 0.250000 0.378447
O O3 0.322753 0.334743 0.379188
O O4 0.212893 0.349945 0.404187
O O5 0.500000 0.092625 0.500000
O O6 0.550956 0.082915 0.336027
O O7 0.500000 0.000000 0.408263
O O8 0.500000 0.215350 0.371149
O O9 0.569206 0.250000 0.250000
O O10 0.579487 0.292194 0.400528
O O11 0.609768 0.184313 0.378748
O O12 0.389256 0.376944 0.500000
O O13 0.407198 0.393979 0.324985
O O14 0.351101 0.915230 0.321012
O O15 0.406691 0.000000 0.241283
O O16 0.866310 0.892571 0.000000
#
# Coordination Sequence:
#
# PCOD9513740 Si02
#       6
#    32  16  32  32  32  32
#     4  11  21  40  66  94 131 169 216 269 328 400
#     4   9  20  42  71  96 123 169 225 277 324 373
#     4  11  23  41  64  96 136 171 209 263 333 403
#     4  12  25  42  67  98 133 177 221 267 328 400
#     4  11  25  45  65  93 133 175 223 274 322 381
#     4  12  24  39  66  99 128 166 214 270 336 394
#
# _framework density 20.745190999999998
#
# number of rings (size 3 to 8) (size 9 to 14) (size 15 to 20)
#    0.000    0.818    5.455    1.636    2.545    3.636 
#    0.000    1.818    0.000    3.818    0.000    0.000 
#    0.000    0.000    0.000    0.000    0.000    0.000 
#
# Total GULP energy -245779.279021 kJ/mol
# GULP energy per Si atom -5585.892705 kJ/mol
# Density = 2.069797 g / cm^3
# Si number density = 20.745191 Si / 1000 Ang^3
#
#
#
# Elastic Constant Matrix: (Units=GPa)
#
#
# Indices 1 2 3 4 5 6 
#
# 1 79.3688 9.5194 12.3353 0.0000 0.0000 0.0000
# 2 9.5194 88.2225 36.1774 0.0000 0.0000 0.0000
# 3 12.3353 36.1774 160.2742 0.0000 0.0000 0.0000
# 4 0.0000 0.0000 0.0000 13.6298 0.0000 0.0000
# 5 0.0000 0.0000 0.0000 0.0000 110.1567 0.0000
# 6 0.0000 0.0000 0.0000 0.0000 0.0000 25.0476
#
#
#
# Elastic Compliance Matrix: (Units=1/GPa)
#
#
# Indices 1 2 3 4 5 6 
#
# 1 0.012845 -0.001081 -0.000745 0.000000 0.000000 0.000000
# 2 -0.001081 0.012582 -0.002757 0.000000 0.000000 0.000000
# 3 -0.000745 -0.002757 0.006919 0.000000 0.000000 0.000000
# 4 0.000000 0.000000 0.000000 0.073369 0.000000 0.000000
# 5 0.000000 0.000000 0.000000 0.000000 0.009078 0.000000
# 6 0.000000 0.000000 0.000000 0.000000 0.000000 0.039924
#
#
# Mechanical properties :
#
#
# Convention : Reuss Voigt Hill
#
# Bulk Modulus (GPa) = 43.13795 49.32550 46.23172
# Shear Modulus (GPa) = 29.13619 47.75571 38.44595
#
# Velocity S-wave (km/s) = 3.75170 4.80314 4.30961
# Velocity P-wave (km/s) = 6.29336 7.38841 6.86276
#
# Compressibility (1/GPa) = 0.02318145
#
# Stress axis : x y z
#
# Youngs Moduli (GPa) = 77.85278 79.47801 144.53144
#
# Poissons Ratio (x) = 0.08588 0.10763
# Poissons Ratio (y) = 0.08413 0.39846
# Poissons Ratio (z) = 0.05797 0.21911
#
# Static dielectric constant tensor:
#      x y z
#    x 1.965840 0.000000 0.000000 
#    y 0.000000 1.737750 0.000000 
#    z 0.000000 0.000000 1.779180 
# 
# From -- ./inp_files/17875.got.cif
#   From: 2010.05.17/outbox.cif.g08.bks.cpg/sg69_9_cif.got.tgz:17875.got - 2010.06.03 19:29:58.
