data_PCOD9513927
_publ_section_title
;
Structure prediction by ZEFSAII (Michael W. Deem and Ramdas Pophale) SiO2 
 PCOD9513927
Probable space group: F M M M
;
_chemical_formula_sum "Si O2"
_cell_formula_units_Z 144
_cell_length_a 25.544306
_cell_length_b 20.053866
_cell_length_c 14.190031
_cell_angle_alpha 90.000000
_cell_angle_beta 90.000000
_cell_angle_gamma 90.000000
_cell_volume 7269.014931
_symmetry_space_group_name_H-M "F M M M"
_symmetry_group_IT_number 69
_symmetry_cell_setting 'orthorhombic'
loop_
_space_group_symop_operation_xyz
x,y,z
-x,-y,z
x,-y,-z
-x,y,-z
-x,-y,-z
x,y,-z
-x,y,z
x,-y,z
x,1/2+y,1/2+z
-x,1/2-y,1/2+z
x,1/2-y,1/2-z
-x,1/2+y,1/2-z
-x,1/2-y,1/2-z
x,1/2+y,1/2-z
-x,1/2+y,1/2+z
x,1/2-y,1/2+z
1/2+x,y,1/2+z
1/2-x,-y,1/2+z
1/2+x,-y,1/2-z
1/2-x,y,1/2-z
1/2-x,-y,1/2-z
1/2+x,y,1/2-z
1/2-x,y,1/2+z
1/2+x,-y,1/2+z
1/2+x,1/2+y,z
1/2-x,1/2-y,z
1/2+x,1/2-y,-z
1/2-x,1/2+y,-z
1/2-x,1/2-y,-z
1/2+x,1/2+y,-z
1/2-x,1/2+y,z
1/2+x,1/2-y,z
loop_
_atom_site_type_symbol
_atom_site_label
_atom_site_fract_x
_atom_site_fract_y
_atom_site_fract_z
Si Si1 0.063534 0.500000 0.607342
Si Si2 0.938879 0.647605 0.386388
Si Si3 0.847083 0.178483 0.768990
Si Si4 0.656398 0.924262 0.110101
Si Si5 0.282769 0.574556 0.110000
O O1 0.083308 0.500000 0.500000
O O2 0.076888 0.572218 0.646528
O O3 0.000000 0.500000 0.602704
O O4 0.933471 0.650354 0.500000
O O5 0.898348 0.693115 0.332209
O O6 0.000000 0.658786 0.365292
O O7 0.821936 0.250000 0.750000
O O8 0.861892 0.135438 0.676813
O O9 0.808939 0.131126 0.828668
O O10 0.719908 0.923165 0.116117
O O11 0.639811 0.000000 0.137215
O O12 0.642650 0.914697 0.000000
O O13 0.299488 0.500000 0.140516
O O14 0.296904 0.582409 0.000000
#
# Coordination Sequence:
#
# PCOD9513927 Si02
#       5
#    16  32  32  32  32
#     4   7  12  26  50  78 100 119 155 213 274 316
#     4   9  19  36  56  80 110 140 175 225 282 330
#     4  12  24  33  51  84 116 145 180 219 272 334
#     4   9  20  39  58  76 106 150 192 225 260 313
#     4   9  19  37  60  83 106 138 184 234 279 319
#
# _framework density 19.810112
#
# number of rings (size 3 to 8) (size 9 to 14) (size 15 to 20)
#    0.000    2.556    0.000    4.667    3.111    5.778 
#    0.000    2.222    0.000    0.667    0.000    1.556 
#    0.000    0.000    0.000    0.000    0.000    0.000 
#
# Total GULP energy -200897.617743 kJ/mol
# GULP energy per Si atom -5580.489382 kJ/mol
# Density = 1.976502 g / cm^3
# Si number density = 19.810112 Si / 1000 Ang^3
#
#
#
# Elastic Constant Matrix: (Units=GPa)
#
#
# Indices 1 2 3 4 5 6 
#
# 1 35.5668 13.3022 16.0526 0.0000 0.0000 0.0000
# 2 13.3022 112.8864 48.4273 0.0000 0.0000 0.0000
# 3 16.0526 48.4273 74.7989 0.0000 0.0000 0.0000
# 4 0.0000 0.0000 0.0000 13.0008 0.0000 0.0000
# 5 0.0000 0.0000 0.0000 0.0000 14.0378 0.0000
# 6 0.0000 0.0000 0.0000 0.0000 0.0000 5.3097
#
#
#
# Elastic Compliance Matrix: (Units=1/GPa)
#
#
# Indices 1 2 3 4 5 6 
#
# 1 0.031232 -0.001114 -0.005981 0.000000 0.000000 0.000000
# 2 -0.001114 0.012305 -0.007727 0.000000 0.000000 0.000000
# 3 -0.005981 -0.007727 0.019656 0.000000 0.000000 0.000000
# 4 0.000000 0.000000 0.000000 0.076918 0.000000 0.000000
# 5 0.000000 0.000000 0.000000 0.000000 0.071236 0.000000
# 6 0.000000 0.000000 0.000000 0.000000 0.000000 0.188336
#
#
# Mechanical properties :
#
#
# Convention : Reuss Voigt Hill
#
# Bulk Modulus (GPa) = 29.80903 42.09070 35.94987
# Shear Modulus (GPa) = 11.35044 16.16767 13.75906
#
# Velocity S-wave (km/s) = 2.39626 2.85990 2.63829
# Velocity P-wave (km/s) = 4.76824 5.67438 5.24093
#
# Compressibility (1/GPa) = 0.03354688
#
# Stress axis : x y z
#
# Youngs Moduli (GPa) = 32.01798 81.26943 50.87563
#
# Poissons Ratio (x) = 0.09057 0.30430
# Poissons Ratio (y) = 0.03568 0.39313
# Poissons Ratio (z) = 0.19151 0.62800
#
# Static dielectric constant tensor:
#      x y z
#    x 1.698140 0.000000 0.000000 
#    y 0.000000 1.732560 0.000000 
#    z 0.000000 0.000000 1.713410 
# 
# From -- ./inp_files/19437.got.cif
#   From: 2010.05.17/outbox.cif.g08.bks.cpg/sg69_10_cif.got.tgz:19437.got - 2010.06.03 19:29:58.
