data_PCOD9513906
_publ_section_title
;
Structure prediction by ZEFSAII (Michael W. Deem and Ramdas Pophale) SiO2 
 PCOD9513906
Probable space group: F M M M
;
_chemical_formula_sum "Si O2"
_cell_formula_units_Z 168
_cell_length_a 16.366656
_cell_length_b 20.115635
_cell_length_c 24.858663
_cell_angle_alpha 90.000000
_cell_angle_beta 90.000000
_cell_angle_gamma 90.000000
_cell_volume 8184.110187
_symmetry_space_group_name_H-M "F M M M"
_symmetry_group_IT_number 69
_symmetry_cell_setting 'orthorhombic'
loop_
_space_group_symop_operation_xyz
x,y,z
-x,-y,z
x,-y,-z
-x,y,-z
-x,-y,-z
x,y,-z
-x,y,z
x,-y,z
x,1/2+y,1/2+z
-x,1/2-y,1/2+z
x,1/2-y,1/2-z
-x,1/2+y,1/2-z
-x,1/2-y,1/2-z
x,1/2+y,1/2-z
-x,1/2+y,1/2+z
x,1/2-y,1/2+z
1/2+x,y,1/2+z
1/2-x,-y,1/2+z
1/2+x,-y,1/2-z
1/2-x,y,1/2-z
1/2-x,-y,1/2-z
1/2+x,y,1/2-z
1/2-x,y,1/2+z
1/2+x,-y,1/2+z
1/2+x,1/2+y,z
1/2-x,1/2-y,z
1/2+x,1/2-y,-z
1/2-x,1/2+y,-z
1/2-x,1/2-y,-z
1/2+x,1/2+y,-z
1/2-x,1/2+y,z
1/2+x,1/2-y,z
loop_
_atom_site_type_symbol
_atom_site_label
_atom_site_fract_x
_atom_site_fract_y
_atom_site_fract_z
Si Si1 0.901919 0.879495 0.938564
Si Si2 0.500000 0.000000 0.116386
Si Si3 0.184339 0.926937 0.834549
Si Si4 0.593679 0.825773 0.742521
Si Si5 0.098313 0.723576 0.061972
Si Si6 0.368190 0.887711 0.143817
O O1 0.857826 0.920406 0.892653
O O2 0.882547 0.801244 0.929716
O O3 0.000000 0.886703 0.934292
O O4 0.879000 0.896644 0.000000
O O5 0.571317 0.058157 0.119036
O O6 0.148268 0.869208 0.797161
O O7 0.280334 0.917580 0.842340
O O8 0.166473 0.000000 0.811128
O O9 0.500000 0.823563 0.721855
O O10 0.622263 0.750000 0.750000
O O11 0.595133 0.860296 0.800522
O O12 0.140397 0.674061 0.103107
O O13 0.000000 0.716772 0.068692
O O14 0.117923 0.707064 0.000000
#
# Coordination Sequence:
#
# PCOD9513906 Si02
#       6
#    32   8  32  32  32  32
#     4   9  20  41  66  92 128 166 205 257 322 379
#     4  12  24  44  65  88 122 182 207 246 330 392
#     4  12  27  40  61  97 130 164 214 265 312 374
#     4  11  25  44  68  94 126 166 210 260 317 382
#     4   9  18  37  66  94 119 161 214 261 307 374
#     4  12  24  42  65  88 128 167 213 259 322 376
#
# _framework density 20.527581999999999
#
# number of rings (size 3 to 8) (size 9 to 14) (size 15 to 20)
#    0.000    1.333    2.857    3.429    1.333   10.286 
#    0.000    3.810    0.000    0.000    0.000    0.000 
#    0.000    0.000    0.000    0.000    0.000    0.000 
#
# Total GULP energy -234380.486842 kJ/mol
# GULP energy per Si atom -5580.487782 kJ/mol
# Density = 2.048086 g / cm^3
# Si number density = 20.527582 Si / 1000 Ang^3
#
#
#
# Elastic Constant Matrix: (Units=GPa)
#
#
# Indices 1 2 3 4 5 6 
#
# 1 73.4271 51.2933 23.2566 0.0000 0.0000 0.0000
# 2 51.2933 94.1565 31.6415 0.0000 0.0000 0.0000
# 3 23.2566 31.6415 55.1172 0.0000 0.0000 0.0000
# 4 0.0000 0.0000 0.0000 -63.0919 0.0000 0.0000
# 5 0.0000 0.0000 0.0000 0.0000 68.2115 0.0000
# 6 0.0000 0.0000 0.0000 0.0000 0.0000 43.4802
#
#
#
# Elastic Compliance Matrix: (Units=1/GPa)
#
#
# Indices 1 2 3 4 5 6 
#
# 1 0.022387 -0.011177 -0.003029 0.000000 0.000000 0.000000
# 2 -0.011177 0.018740 -0.006042 0.000000 0.000000 0.000000
# 3 -0.003029 -0.006042 0.022890 0.000000 0.000000 0.000000
# 4 0.000000 0.000000 0.000000 -0.015850 0.000000 0.000000
# 5 0.000000 0.000000 0.000000 0.000000 0.014660 0.000000
# 6 0.000000 0.000000 0.000000 0.000000 0.000000 0.022999
#
#
# Mechanical properties :
#
#
# Convention : Reuss Voigt Hill
#
# Bulk Modulus (GPa) = 42.51840 48.34263 45.43051
# Shear Modulus (GPa) = 37.26813 17.48727 27.37770
#
# Velocity S-wave (km/s) = 4.26551 2.92188 3.65595
# Velocity P-wave (km/s) = 6.70949 5.91476 6.32462
#
# Compressibility (1/GPa) = 0.02351923
#
# Stress axis : x y z
#
# Youngs Moduli (GPa) = 44.66973 53.36150 43.68743
#
# Poissons Ratio (x) = 0.59644 0.13234
# Poissons Ratio (y) = 0.49929 0.26396
# Poissons Ratio (z) = 0.13532 0.32241
#
# Static dielectric constant tensor:
#      x y z
#    x 1.719240 0.000000 0.000000 
#    y 0.000000 1.723980 0.000000 
#    z 0.000000 0.000000 1.724120 
# 
# From -- ./inp_files/40990.got.cif
#   From: 2010.05.17/outbox.cif.g08.bks.cpg/sg69_21_cif.got.tgz:40990.got - 2010.06.03 19:29:58.
