data_PCOD9513227
_publ_section_title
;
Structure prediction by ZEFSAII (Michael W. Deem and Ramdas Pophale) SiO2 
 PCOD9513227
Probable space group: F M M M
;
_chemical_formula_sum "Si O2"
_cell_formula_units_Z 224
_cell_length_a 18.688771
_cell_length_b 28.184583
_cell_length_c 20.668131
_cell_angle_alpha 90.000000
_cell_angle_beta 90.000000
_cell_angle_gamma 90.000000
_cell_volume 10886.632476
_symmetry_space_group_name_H-M "F M M M"
_symmetry_group_IT_number 69
_symmetry_cell_setting 'orthorhombic'
loop_
_space_group_symop_operation_xyz
x,y,z
-x,-y,z
x,-y,-z
-x,y,-z
-x,-y,-z
x,y,-z
-x,y,z
x,-y,z
x,1/2+y,1/2+z
-x,1/2-y,1/2+z
x,1/2-y,1/2-z
-x,1/2+y,1/2-z
-x,1/2-y,1/2-z
x,1/2+y,1/2-z
-x,1/2+y,1/2+z
x,1/2-y,1/2+z
1/2+x,y,1/2+z
1/2-x,-y,1/2+z
1/2+x,-y,1/2-z
1/2-x,y,1/2-z
1/2-x,-y,1/2-z
1/2+x,y,1/2-z
1/2-x,y,1/2+z
1/2+x,-y,1/2+z
1/2+x,1/2+y,z
1/2-x,1/2-y,z
1/2+x,1/2-y,-z
1/2-x,1/2+y,-z
1/2-x,1/2-y,-z
1/2+x,1/2+y,-z
1/2-x,1/2+y,z
1/2+x,1/2-y,z
loop_
_atom_site_type_symbol
_atom_site_label
_atom_site_fract_x
_atom_site_fract_y
_atom_site_fract_z
Si Si1 0.822233 0.606908 0.074691
Si Si2 0.678611 0.830162 0.427233
Si Si3 0.280763 0.500000 0.422223
Si Si4 0.665595 0.555718 0.763629
Si Si5 0.921334 0.902316 0.875598
Si Si6 0.380994 0.000000 0.425373
Si Si7 0.584497 0.869276 0.810222
Si Si8 0.175428 0.697370 0.721066
O O1 0.745471 0.633293 0.075620
O O2 0.812936 0.551417 0.095398
O O3 0.874329 0.636015 0.121730
O O4 0.846893 0.606864 0.000000
O O5 0.681856 0.807464 0.500000
O O6 0.606449 0.861262 0.421837
O O7 0.678426 0.802565 0.357677
O O8 0.282175 0.500000 0.500000
O O9 0.199498 0.500000 0.396436
O O10 0.649027 0.500000 0.769255
O O11 0.750000 0.560775 0.750000
O O12 0.642065 0.587039 0.824981
O O13 0.612519 0.579173 0.712018
O O14 0.923094 0.952920 0.909570
O O15 0.000000 0.892096 0.847669
O O16 0.366049 0.000000 0.500000
O O17 0.500000 0.866662 0.816962
O O18 0.613099 0.832794 0.755630
O O19 0.169707 0.750000 0.750000
O O20 0.250000 0.677013 0.750000
#
# Coordination Sequence:
#
# PCOD9513227 Si02
#       8
#    32  32  16  32  32  16  32  32
#     4  10  21  39  62  92 128 173 230 279 322 384
#     4  11  22  40  68  97 130 172 218 265 321 393
#     4   9  18  33  56  85 123 174 229 275 322 377
#     4  11  24  39  60  88 124 176 229 278 325 385
#     4  12  23  35  54  85 129 171 210 265 328 385
#     4  11  21  32  49  78 120 170 218 257 306 378
#     4  12  25  41  65  94 129 174 218 272 340 401
#     4  11  24  46  73 101 133 166 213 275 333 398
#
# _framework density 20.575693000000001
#
# number of rings (size 3 to 8) (size 9 to 14) (size 15 to 20)
#    0.000    1.000    5.000    2.357    1.000    2.857 
#    0.000    2.143    0.000    1.286    0.000    0.000 
#    0.000    0.000    0.000    0.000    0.000    0.000 
#
# Total GULP energy -312207.435006 kJ/mol
# GULP energy per Si atom -5575.132768 kJ/mol
# Density = 2.052886 g / cm^3
# Si number density = 20.575693 Si / 1000 Ang^3
#
#
#
# Elastic Constant Matrix: (Units=GPa)
#
#
# Indices 1 2 3 4 5 6 
#
# 1 118.6076 12.7181 39.4169 0.0000 0.0000 0.0000
# 2 12.7181 68.3549 37.7910 0.0000 0.0000 0.0000
# 3 39.4169 37.7910 150.1081 0.0000 0.0000 0.0000
# 4 0.0000 0.0000 0.0000 15.1961 0.0000 0.0000
# 5 0.0000 0.0000 0.0000 0.0000 15.6779 0.0000
# 6 0.0000 0.0000 0.0000 0.0000 0.0000 15.0408
#
#
#
# Elastic Compliance Matrix: (Units=1/GPa)
#
#
# Indices 1 2 3 4 5 6 
#
# 1 0.009249 -0.000439 -0.002318 0.000000 0.000000 0.000000
# 2 -0.000439 0.017016 -0.004169 0.000000 0.000000 0.000000
# 3 -0.002318 -0.004169 0.008320 0.000000 0.000000 0.000000
# 4 0.000000 0.000000 0.000000 0.065807 0.000000 0.000000
# 5 0.000000 0.000000 0.000000 0.000000 0.063784 0.000000
# 6 0.000000 0.000000 0.000000 0.000000 0.000000 0.066486
#
#
# Mechanical properties :
#
#
# Convention : Reuss Voigt Hill
#
# Bulk Modulus (GPa) = 48.23249 57.43582 52.83416
# Shear Modulus (GPa) = 19.88674 25.65925 22.77300
#
# Velocity S-wave (km/s) = 3.11226 3.53521 3.33046
# Velocity P-wave (km/s) = 6.03384 6.68122 6.36576
#
# Compressibility (1/GPa) = 0.02073291
#
# Stress axis : x y z
#
# Youngs Moduli (GPa) = 108.12439 58.76855 120.19198
#
# Poissons Ratio (x) = 0.02581 0.27861
# Poissons Ratio (y) = 0.04749 0.50103
# Poissons Ratio (z) = 0.25063 0.24498
#
# Static dielectric constant tensor:
#      x y z
#    x 1.741870 0.000000 0.000000 
#    y 0.000000 1.753220 0.000000 
#    z 0.000000 0.000000 1.888230 
# 
# From -- ./inp_files/31243.got.cif
#   From: 2010.05.17/outbox.cif.g08.bks.cpg/sg69_16_cif.got.tgz:31243.got - 2010.06.03 19:29:58.
