data_PCOD9514089
_publ_section_title
;
Structure prediction by ZEFSAII (Michael W. Deem and Ramdas Pophale) SiO2 
 PCOD9514089
Probable space group: F D D D
;
_chemical_formula_sum "Si O2"
_cell_formula_units_Z 240
_cell_length_a 24.832866
_cell_length_b 20.765771
_cell_length_c 23.107485
_cell_angle_alpha 90.000000
_cell_angle_beta 90.000000
_cell_angle_gamma 90.000000
_cell_volume 11915.920176
_symmetry_space_group_name_H-M "F D D D"
_symmetry_group_IT_number 70
_space_group.IT_coordinate_system_code '2'
_symmetry_cell_setting 'orthorhombic'
loop_
_space_group_symop_operation_xyz
x,y,z
1/4-x,1/4-y,z
x,1/4-y,1/4-z
1/4-x,y,1/4-z
-x,-y,-z
3/4+x,3/4+y,-z
-x,3/4+y,3/4+z
3/4+x,-y,3/4+z
x,1/2+y,1/2+z
1/4-x,3/4-y,1/2+z
x,3/4-y,3/4-z
1/4-x,1/2+y,3/4-z
-x,1/2-y,1/2-z
3/4+x,1/4+y,1/2-z
-x,1/4+y,1/4+z
3/4+x,1/2-y,1/4+z
1/2+x,y,1/2+z
3/4-x,1/4-y,1/2+z
1/2+x,1/4-y,3/4-z
3/4-x,y,3/4-z
1/2-x,-y,1/2-z
1/4+x,3/4+y,1/2-z
1/2-x,3/4+y,1/4+z
1/4+x,-y,1/4+z
1/2+x,1/2+y,z
3/4-x,3/4-y,z
1/2+x,3/4-y,1/4-z
3/4-x,1/2+y,1/4-z
1/2-x,1/2-y,-z
1/4+x,1/4+y,-z
1/2-x,1/4+y,3/4+z
1/4+x,1/2-y,3/4+z
loop_
_atom_site_type_symbol
_atom_site_label
_atom_site_fract_x
_atom_site_fract_y
_atom_site_fract_z
Si Si1 0.417582 0.135055 0.328651
Si Si2 0.875000 0.375000 0.707787
Si Si3 0.618896 0.767784 0.757004
Si Si4 0.219368 0.090282 0.881280
Si Si5 0.549009 0.945138 0.883637
Si Si6 0.574494 0.661724 0.005670
Si Si7 0.040731 0.887512 0.806742
Si Si8 0.629369 0.949547 0.475491
O O1 0.375000 0.110710 0.375000
O O2 0.399367 0.205226 0.305067
O O3 0.474511 0.132507 0.359471
O O4 0.412228 0.094002 0.270525
O O5 0.869666 0.308199 0.742305
O O6 0.824531 0.389643 0.666155
O O7 0.571677 0.788006 0.802703
O O8 0.670910 0.805776 0.781705
O O9 0.195839 0.113168 0.942587
O O10 0.228240 0.012445 0.885120
O O11 0.521098 0.875000 0.875000
O O12 0.599045 0.938752 0.839364
O O13 0.625000 0.625000 0.032122
O O14 0.602242 0.729905 0.992439
O O15 0.520357 0.656445 0.042461
O O16 0.044789 0.875000 0.875000
O O17 0.067512 0.824471 0.775431
#
# Coordination Sequence:
#
# PCOD9514089 Si02
#       8
#    32  16  32  32  32  32  32  32
#     4  11  23  42  60  90 133 169 214 269 330 394
#     4  10  22  36  65  96 123 170 216 272 314 390
#     4  10  20  39  65  96 127 164 223 261 323 394
#     4  10  22  38  62  92 125 168 211 264 332 382
#     4  10  16  36  64  90 118 162 215 264 301 389
#     4  11  25  43  63  96 132 166 221 279 323 394
#     4  11  21  40  71  92 127 178 215 265 333 394
#     4  10  21  42  65  93 125 168 223 262 323 401
#
# _framework density 20.141121999999999
#
# number of rings (size 3 to 8) (size 9 to 14) (size 15 to 20)
#    0.000    1.600    4.667    1.600    1.867    2.933 
#    2.400    0.333    0.000    0.000    0.000    0.000 
#    0.000    0.000    0.000    0.000    0.000    0.000 
#
# Total GULP energy -334225.447500 kJ/mol
# GULP energy per Si atom -5570.424125 kJ/mol
# Density = 2.009528 g / cm^3
# Si number density = 20.141122 Si / 1000 Ang^3
#
#
#
# Elastic Constant Matrix: (Units=GPa)
#
#
# Indices 1 2 3 4 5 6 
#
# 1 107.3128 15.8567 -0.5456 0.0000 0.0000 0.0000
# 2 15.8567 61.4430 6.8960 0.0000 0.0000 0.0000
# 3 -0.5456 6.8960 23.1940 0.0000 0.0000 0.0000
# 4 0.0000 0.0000 0.0000 13.8573 0.0000 0.0000
# 5 0.0000 0.0000 0.0000 0.0000 13.1951 0.0000
# 6 0.0000 0.0000 0.0000 0.0000 0.0000 20.8699
#
#
#
# Elastic Compliance Matrix: (Units=1/GPa)
#
#
# Indices 1 2 3 4 5 6 
#
# 1 0.009711 -0.002619 0.001007 0.000000 0.000000 0.000000
# 2 -0.002619 0.017543 -0.005278 0.000000 0.000000 0.000000
# 3 0.001007 -0.005278 0.044707 0.000000 0.000000 0.000000
# 4 0.000000 0.000000 0.000000 0.072164 0.000000 0.000000
# 5 0.000000 0.000000 0.000000 0.000000 0.075786 0.000000
# 6 0.000000 0.000000 0.000000 0.000000 0.000000 0.047916
#
#
# Mechanical properties :
#
#
# Convention : Reuss Voigt Hill
#
# Bulk Modulus (GPa) = 17.18731 26.26265 21.72498
# Shear Modulus (GPa) = 16.61127 20.90064 18.75595
#
# Velocity S-wave (km/s) = 2.87495 3.22485 3.05491
# Velocity P-wave (km/s) = 4.42407 5.18978 4.82215
#
# Compressibility (1/GPa) = 0.05818247
#
# Stress axis : x y z
#
# Youngs Moduli (GPa) = 102.97943 57.00123 22.36766
#
# Poissons Ratio (x) = 0.14929 -0.02253
# Poissons Ratio (y) = 0.26971 0.11805
# Poissons Ratio (z) = -0.10372 0.30083
#
# Static dielectric constant tensor:
#      x y z
#    x 1.649010 0.000000 0.000000 
#    y 0.000000 1.830580 0.000000 
#    z 0.000000 0.000000 1.695760 
# 
# From -- ./inp_files/54486.got.cif
#   From: 2010.05.17/outbox.cif.g08.bks.cpg/sg70_28_cif.got.tgz:54486.got - 2010.06.03 15:57:51.
