data_PCOD9514967
_publ_section_title
;
Structure prediction by ZEFSAII (Michael W. Deem and Ramdas Pophale) SiO2 
 PCOD9514967
Probable space group: F D D D
;
_chemical_formula_sum "Si O2"
_cell_formula_units_Z 192
_cell_length_a 28.138920
_cell_length_b 15.820635
_cell_length_c 22.599889
_cell_angle_alpha 90.000000
_cell_angle_beta 90.000000
_cell_angle_gamma 90.000000
_cell_volume 10060.918753
_symmetry_space_group_name_H-M "F D D D"
_symmetry_group_IT_number 70
_space_group.IT_coordinate_system_code '2'
_symmetry_cell_setting 'orthorhombic'
loop_
_space_group_symop_operation_xyz
x,y,z
1/4-x,1/4-y,z
x,1/4-y,1/4-z
1/4-x,y,1/4-z
-x,-y,-z
3/4+x,3/4+y,-z
-x,3/4+y,3/4+z
3/4+x,-y,3/4+z
x,1/2+y,1/2+z
1/4-x,3/4-y,1/2+z
x,3/4-y,3/4-z
1/4-x,1/2+y,3/4-z
-x,1/2-y,1/2-z
3/4+x,1/4+y,1/2-z
-x,1/4+y,1/4+z
3/4+x,1/2-y,1/4+z
1/2+x,y,1/2+z
3/4-x,1/4-y,1/2+z
1/2+x,1/4-y,3/4-z
3/4-x,y,3/4-z
1/2-x,-y,1/2-z
1/4+x,3/4+y,1/2-z
1/2-x,3/4+y,1/4+z
1/4+x,-y,1/4+z
1/2+x,1/2+y,z
3/4-x,3/4-y,z
1/2+x,3/4-y,1/4-z
3/4-x,1/2+y,1/4-z
1/2-x,1/2-y,-z
1/4+x,1/4+y,-z
1/2-x,1/4+y,3/4+z
1/4+x,1/2-y,3/4+z
loop_
_atom_site_type_symbol
_atom_site_label
_atom_site_fract_x
_atom_site_fract_y
_atom_site_fract_z
Si Si1 0.620065 0.375000 0.875000
Si Si2 0.679953 0.635708 0.254968
Si Si3 0.820636 0.397929 0.034185
Si Si4 0.792037 0.030625 0.175725
Si Si5 0.492766 0.709474 0.547400
Si Si6 0.285910 0.875000 0.375000
Si Si7 0.546573 0.001952 0.403553
O O1 0.655349 0.444171 0.847563
O O2 0.584600 0.322647 0.833064
O O3 0.625000 0.625000 0.273466
O O4 0.705578 0.722965 0.272202
O O5 0.684378 0.628634 0.184768
O O6 0.707923 0.562812 0.290536
O O7 0.875000 0.375000 0.019679
O O8 0.795296 0.306912 0.041014
O O9 0.815695 0.443511 0.097917
O O10 0.792966 0.455859 0.986412
O O11 0.757894 0.024194 0.118091
O O12 0.777545 0.114942 0.209814
O O13 0.251218 0.794179 0.382642
#
# Coordination Sequence:
#
# PCOD9514967 Si02
#       7
#    16  32  32  32  32  16  32
#     4   9  18  34  57  94 112 148 213 254 288 359
#     4  12  22  40  62  89 122 163 201 249 312 372
#     4  12  21  37  62  92 117 154 209 255 303 363
#     4  10  20  38  60  84 120 159 196 250 308 364
#     4  10  22  37  59  89 119 155 202 249 305 364
#     4  11  25  40  57  88 126 158 201 250 307 367
#     4  11  21  37  61  86 122 157 204 254 301 359
#
# _framework density 19.083745
#
# number of rings (size 3 to 8) (size 9 to 14) (size 15 to 20)
#    0.000    1.333    5.000    3.750    0.000    0.000 
#    0.000    1.667    0.000    0.000    0.000    0.000 
#    0.000    0.000    0.000    0.000    0.000    0.000 
#
# Total GULP energy -267661.472309 kJ/mol
# GULP energy per Si atom -5576.280673 kJ/mol
# Density = 1.904031 g / cm^3
# Si number density = 19.083745 Si / 1000 Ang^3
#
#
#
# Elastic Constant Matrix: (Units=GPa)
#
#
# Indices 1 2 3 4 5 6 
#
# 1 80.7313 33.7017 34.1744 0.0000 0.0000 0.0000
# 2 33.7017 90.0555 54.3519 0.0000 0.0000 0.0000
# 3 34.1744 54.3519 70.4310 0.0000 0.0000 0.0000
# 4 0.0000 0.0000 0.0000 20.3084 0.0000 0.0000
# 5 0.0000 0.0000 0.0000 0.0000 -6.8161 0.0000
# 6 0.0000 0.0000 0.0000 0.0000 0.0000 19.1158
#
#
#
# Elastic Compliance Matrix: (Units=1/GPa)
#
#
# Indices 1 2 3 4 5 6 
#
# 1 0.015865 -0.002417 -0.005833 0.000000 0.000000 0.000000
# 2 -0.002417 0.021153 -0.015151 0.000000 0.000000 0.000000
# 3 -0.005833 -0.015151 0.028721 0.000000 0.000000 0.000000
# 4 0.000000 0.000000 0.000000 0.049241 0.000000 0.000000
# 5 0.000000 0.000000 0.000000 0.000000 -0.146711 0.000000
# 6 0.000000 0.000000 0.000000 0.000000 0.000000 0.052313
#
#
# Mechanical properties :
#
#
# Convention : Reuss Voigt Hill
#
# Bulk Modulus (GPa) = 52.80700 53.96376 53.38538
# Shear Modulus (GPa) = 67.84714 14.45426 41.15070
#
# Velocity S-wave (km/s) = 5.96905 2.75510 4.64866
# Velocity P-wave (km/s) = 8.67394 6.20157 7.53979
#
# Compressibility (1/GPa) = 0.01893688
#
# Stress axis : x y z
#
# Youngs Moduli (GPa) = 63.03269 47.27456 34.81803
#
# Poissons Ratio (x) = 0.11425 0.20309
# Poissons Ratio (y) = 0.15234 0.52754
# Poissons Ratio (z) = 0.36766 0.71627
#
# Static dielectric constant tensor:
#      x y z
#    x 1.689060 0.000000 0.000000 
#    y 0.000000 1.678730 0.000000 
#    z 0.000000 0.000000 1.675460 
# 
# From -- ./inp_files/55115.got.cif
#   From: 2010.05.17/outbox.cif.g08.bks.cpg/sg70_28_cif.got.tgz:55115.got - 2010.06.03 15:57:51.
