data_PCOD9514312
_publ_section_title
;
Structure prediction by ZEFSAII (Michael W. Deem and Ramdas Pophale) SiO2 
 PCOD9514312
Probable space group: F D D D
;
_chemical_formula_sum "Si O2"
_cell_formula_units_Z 176
_cell_length_a 13.417264
_cell_length_b 24.866629
_cell_length_c 20.159755
_cell_angle_alpha 90.000000
_cell_angle_beta 90.000000
_cell_angle_gamma 90.000000
_cell_volume 6726.143520
_symmetry_space_group_name_H-M "F D D D"
_symmetry_group_IT_number 70
_space_group.IT_coordinate_system_code '2'
_symmetry_cell_setting 'orthorhombic'
loop_
_space_group_symop_operation_xyz
x,y,z
1/4-x,1/4-y,z
x,1/4-y,1/4-z
1/4-x,y,1/4-z
-x,-y,-z
3/4+x,3/4+y,-z
-x,3/4+y,3/4+z
3/4+x,-y,3/4+z
x,1/2+y,1/2+z
1/4-x,3/4-y,1/2+z
x,3/4-y,3/4-z
1/4-x,1/2+y,3/4-z
-x,1/2-y,1/2-z
3/4+x,1/4+y,1/2-z
-x,1/4+y,1/4+z
3/4+x,1/2-y,1/4+z
1/2+x,y,1/2+z
3/4-x,1/4-y,1/2+z
1/2+x,1/4-y,3/4-z
3/4-x,y,3/4-z
1/2-x,-y,1/2-z
1/4+x,3/4+y,1/2-z
1/2-x,3/4+y,1/4+z
1/4+x,-y,1/4+z
1/2+x,1/2+y,z
3/4-x,3/4-y,z
1/2+x,3/4-y,1/4-z
3/4-x,1/2+y,1/4-z
1/2-x,1/2-y,-z
1/4+x,1/4+y,-z
1/2-x,1/4+y,3/4+z
1/4+x,1/2-y,3/4+z
loop_
_atom_site_type_symbol
_atom_site_label
_atom_site_fract_x
_atom_site_fract_y
_atom_site_fract_z
Si Si1 0.125000 0.125000 0.345139
Si Si2 0.228937 0.539787 0.599563
Si Si3 0.724901 0.367473 0.039209
Si Si4 0.788349 0.690213 0.949134
Si Si5 0.298152 0.681181 0.095395
Si Si6 0.286311 0.227933 0.723458
O O1 0.208658 0.145220 0.397228
O O2 0.179631 0.083657 0.297306
O O3 0.125000 0.565023 0.625000
O O4 0.222206 0.481379 0.637268
O O5 0.333102 0.568723 0.609823
O O6 0.237737 0.526217 0.521641
O O7 0.613838 0.389001 0.056369
O O8 0.722862 0.321994 0.982506
O O9 0.763873 0.423601 0.004641
O O10 0.654989 0.780687 0.990748
O O11 0.259090 0.625000 0.125000
O O12 0.262705 0.727643 0.145863
#
# Coordination Sequence:
#
# PCOD9514312 Si02
#       6
#    16  32  32  32  32  32
#     4  12  16  34  67  85 112 160 212 234 300 358
#     4  10  18  36  59  81 114 163 199 232 302 372
#     4   9  19  37  57  89 116 152 198 252 288 350
#     4   9  19  35  59  86 114 156 205 242 282 372
#     4  10  21  38  55  84 127 149 189 265 291 339
#     4   8  17  39  54  75 120 154 192 231 297 365
#
# _framework density 26.166554999999999
#
# number of rings (size 3 to 8) (size 9 to 14) (size 15 to 20)
#    1.091    1.455    1.818    1.636    0.000    3.273 
#    6.545    5.000    0.000    0.000    0.000    0.000 
#    0.000    0.000    0.000    0.000    0.000    0.000 
#
# Total GULP energy -245013.636388 kJ/mol
# GULP energy per Si atom -5568.491736 kJ/mol
# Density = 2.610700 g / cm^3
# Si number density = 26.166555 Si / 1000 Ang^3
#
#
#
# Elastic Constant Matrix: (Units=GPa)
#
#
# Indices 1 2 3 4 5 6 
#
# 1 54.2753 17.5067 0.3483 0.0000 0.0000 0.0000
# 2 17.5067 63.6297 31.0368 0.0000 0.0000 0.0000
# 3 0.3483 31.0368 122.7769 0.0000 0.0000 0.0000
# 4 0.0000 0.0000 0.0000 10.5566 0.0000 0.0000
# 5 0.0000 0.0000 0.0000 0.0000 31.2550 0.0000
# 6 0.0000 0.0000 0.0000 0.0000 0.0000 21.8528
#
#
#
# Elastic Compliance Matrix: (Units=1/GPa)
#
#
# Indices 1 2 3 4 5 6 
#
# 1 0.020477 -0.006394 0.001558 0.000000 0.000000 0.000000
# 2 -0.006394 0.019923 -0.005018 0.000000 0.000000 0.000000
# 3 0.001558 -0.005018 0.009409 0.000000 0.000000 0.000000
# 4 0.000000 0.000000 0.000000 0.094727 0.000000 0.000000
# 5 0.000000 0.000000 0.000000 0.000000 0.031995 0.000000
# 6 0.000000 0.000000 0.000000 0.000000 0.000000 0.045761
#
#
# Mechanical properties :
#
#
# Convention : Reuss Voigt Hill
#
# Bulk Modulus (GPa) = 33.22148 37.60728 35.41438
# Shear Modulus (GPa) = 19.83864 25.51888 22.67876
#
# Velocity S-wave (km/s) = 2.75647 3.12628 2.94718
# Velocity P-wave (km/s) = 4.78065 5.23784 5.01446
#
# Compressibility (1/GPa) = 0.03010101
#
# Stress axis : x y z
#
# Youngs Moduli (GPa) = 48.83531 50.19355 106.28140
#
# Poissons Ratio (x) = 0.32094 -0.16561
# Poissons Ratio (y) = 0.31225 0.53334
# Poissons Ratio (z) = -0.07610 0.25188
#
# Static dielectric constant tensor:
#      x y z
#    x 2.107210 0.000000 0.000000 
#    y 0.000000 2.096530 0.000000 
#    z 0.000000 0.000000 2.141880 
# 
# From -- ./inp_files/50417.got.cif
#   From: 2010.05.17/outbox.cif.g08.bks.cpg/sg70_26_cif.got.tgz:50417.got - 2010.06.03 15:57:51.
