data_PCOD9514010
_publ_section_title
;
Structure prediction by ZEFSAII (Michael W. Deem and Ramdas Pophale) SiO2 
 PCOD9514010
Probable space group: F M M M
;
_chemical_formula_sum "Si O2"
_cell_formula_units_Z 48
_cell_length_a 30.000000
_cell_length_b 27.000000
_cell_length_c 12.000000
_cell_angle_alpha 90.000000
_cell_angle_beta 90.000000
_cell_angle_gamma 90.000000
_cell_volume 9720.000000
_symmetry_space_group_name_H-M "F M M M"
_symmetry_group_IT_number 69
_symmetry_cell_setting 'orthorhombic'
loop_
_space_group_symop_operation_xyz
x,y,z
-x,-y,z
x,-y,-z
-x,y,-z
-x,-y,-z
x,y,-z
-x,y,z
x,-y,z
x,1/2+y,1/2+z
-x,1/2-y,1/2+z
x,1/2-y,1/2-z
-x,1/2+y,1/2-z
-x,1/2-y,1/2-z
x,1/2+y,1/2-z
-x,1/2+y,1/2+z
x,1/2-y,1/2+z
1/2+x,y,1/2+z
1/2-x,-y,1/2+z
1/2+x,-y,1/2-z
1/2-x,y,1/2-z
1/2-x,-y,1/2-z
1/2+x,y,1/2-z
1/2-x,y,1/2+z
1/2+x,-y,1/2+z
1/2+x,1/2+y,z
1/2-x,1/2-y,z
1/2+x,1/2-y,-z
1/2-x,1/2+y,-z
1/2-x,1/2-y,-z
1/2+x,1/2+y,-z
1/2-x,1/2+y,z
1/2+x,1/2-y,z
loop_
_atom_site_type_symbol
_atom_site_label
_atom_site_fract_x
_atom_site_fract_y
_atom_site_fract_z
Si Si1 0.926146 0.558610 0.000000
Si Si2 0.174620 0.776680 0.367477
Si Si3 0.930191 0.278045 0.865844
Si Si4 0.050321 0.611189 0.221329
Si Si5 0.372339 0.559906 0.134551
Si Si6 0.800263 0.114376 0.712846
Si Si7 0.675972 0.441614 0.500000
O O1 0.948557 0.576903 0.887706
O O2 0.874980 0.577946 0.000000
O O3 0.924910 0.500000 0.000000
O O4 0.190900 0.768103 0.500000
O O5 0.191749 0.750000 0.250000
O O6 0.122085 0.764630 0.372312
O O7 0.180310 0.834465 0.336767
O O8 0.947147 0.250000 0.750000
O O9 0.936146 0.335156 0.828598
O O10 0.945970 0.271881 0.000000
O O11 0.084870 0.587061 0.309084
O O12 0.000000 0.614257 0.266724
O O13 0.371798 0.500000 0.159720
O O14 0.330759 0.588871 0.191764
O O15 0.372200 0.565065 0.000000
O O16 0.750000 0.123914 0.750000
O O17 0.800245 0.076804 0.610113
O O18 0.673596 0.500000 0.500000
#
# Coordination Sequence:
#
# PCOD9514010 Si02
#       7
#    16  32  32  32  32  32  16
#     4  11  21  38  67 100 131 166 215 278 335 388
#     4  10  21  42  69  98 133 175 223 278 339 404
#     4  10  21  40  66  96 132 174 221 277 339 404
#     4  12  24  41  67  98 132 172 221 275 334 400
#     4  11  26  46  66  94 136 181 225 276 333 400
#     4  12  25  43  68 100 134 176 223 277 334 402
#     4  11  22  41  70  96 131 176 220 274 337 392
#
# _framework density 4.9382720000000004
#
# number of rings (size 3 to 8) (size 9 to 14) (size 15 to 20)
#    0.000    1.000    5.000    1.250    1.167    5.333 
#    0.000    1.667    0.000    0.000    0.000    0.000 
#    0.000    0.000    0.000    0.000    0.000    0.000 
#
# Total GULP energy -267486.081703 kJ/mol
# GULP energy per Si atom -5572.626702 kJ/mol
# Density = 0.492703 g / cm^3
# Si number density = 4.938272 Si / 1000 Ang^3
#
#
#
# Elastic Constant Matrix: (Units=GPa)
#
#
# Indices 1 2 3 4 5 6 
#
# 1 67.0895 -3.0351 26.6272 -0.0004 0.0004 -0.0001
# 2 -3.0351 94.9609 54.2690 -0.0006 0.0003 -0.0001
# 3 26.6272 54.2690 181.6482 -0.0024 0.0010 -0.0002
# 4 -0.0004 -0.0006 -0.0024 19.2161 0.0017 -0.0004
# 5 0.0004 0.0003 0.0010 0.0017 -14.2098 0.0000
# 6 -0.0001 -0.0001 -0.0002 -0.0004 0.0000 -4.4503
#
#
#
# Elastic Compliance Matrix: (Units=1/GPa)
#
#
# Indices 1 2 3 4 5 6 
#
# 1 0.016220 0.002264 -0.003054 0.000000 0.000000 0.000000
# 2 0.002264 0.013015 -0.004220 0.000000 0.000000 0.000000
# 3 -0.003054 -0.004220 0.007214 0.000001 0.000000 0.000000
# 4 0.000000 0.000000 0.000001 0.052040 0.000006 -0.000005
# 5 0.000000 0.000000 0.000000 0.000006 -0.070374 0.000000
# 6 0.000000 0.000000 0.000000 -0.000005 0.000000 -0.224705
#
#
# Mechanical properties :
#
#
# Convention : Reuss Voigt Hill
#
# Bulk Modulus (GPa) = 37.83919 55.49121 46.66520
# Shear Modulus (GPa) = -26.62965 17.83369 -4.39798
#
# Velocity S-wave (km/s) = -3.67567 3.00797 -1.49376
# Velocity P-wave (km/s) = 1.08795 6.34171 4.54978
#
# Compressibility (1/GPa) = 0.02642763
#
# Stress axis : x y z
#
# Youngs Moduli (GPa) = 61.65251 76.83603 138.62698
#
# Poissons Ratio (x) = -0.17393 0.42336
# Poissons Ratio (y) = -0.13956 0.58502
# Poissons Ratio (z) = 0.18828 0.32426
#
# Static dielectric constant tensor:
#      x y z
#    x 1.758280 0.000000 0.000000 
#    y 0.000000 1.692590 0.000000 
#    z 0.000000 0.000000 1.710620 
# 
# From -- ./inp_files/12426.got.cif
#   From: 2010.05.17/outbox.ucp.g08.bks.cvg/sg69_7_cif.got.tgz:12426.got - 2010.06.11 16:51:34.
