data_PCOD9514688
_publ_section_title
;
Structure prediction by ZEFSAII (Michael W. Deem and Ramdas Pophale) SiO2 
 PCOD9514688
Probable space group: F D D D
;
_chemical_formula_sum "Si O2"
_cell_formula_units_Z 112
_cell_length_a 12.325667
_cell_length_b 32.873312
_cell_length_c 11.001431
_cell_angle_alpha 90.000000
_cell_angle_beta 90.000000
_cell_angle_gamma 90.000000
_cell_volume 4457.620286
_symmetry_space_group_name_H-M "F D D D"
_symmetry_group_IT_number 70
_space_group.IT_coordinate_system_code '2'
_symmetry_cell_setting 'orthorhombic'
loop_
_space_group_symop_operation_xyz
x,y,z
1/4-x,1/4-y,z
x,1/4-y,1/4-z
1/4-x,y,1/4-z
-x,-y,-z
3/4+x,3/4+y,-z
-x,3/4+y,3/4+z
3/4+x,-y,3/4+z
x,1/2+y,1/2+z
1/4-x,3/4-y,1/2+z
x,3/4-y,3/4-z
1/4-x,1/2+y,3/4-z
-x,1/2-y,1/2-z
3/4+x,1/4+y,1/2-z
-x,1/4+y,1/4+z
3/4+x,1/2-y,1/4+z
1/2+x,y,1/2+z
3/4-x,1/4-y,1/2+z
1/2+x,1/4-y,3/4-z
3/4-x,y,3/4-z
1/2-x,-y,1/2-z
1/4+x,3/4+y,1/2-z
1/2-x,3/4+y,1/4+z
1/4+x,-y,1/4+z
1/2+x,1/2+y,z
3/4-x,3/4-y,z
1/2+x,3/4-y,1/4-z
3/4-x,1/2+y,1/4-z
1/2-x,1/2-y,-z
1/4+x,1/4+y,-z
1/2-x,1/4+y,3/4+z
1/4+x,1/2-y,3/4+z
loop_
_atom_site_type_symbol
_atom_site_label
_atom_site_fract_x
_atom_site_fract_y
_atom_site_fract_z
Si Si1 0.811306 0.789201 0.556507
Si Si2 0.508954 0.735251 0.072628
Si Si3 0.375000 0.875000 0.675087
Si Si4 0.742188 0.660294 0.052132
O O1 0.750000 0.750000 0.500000
O O2 0.934224 0.773598 0.553994
O O3 0.769390 0.788651 0.695273
O O4 0.816289 0.836126 0.512112
O O5 0.375000 0.496461 0.875000
O O6 0.457023 0.703810 0.170075
O O7 0.287697 0.854244 0.581906
O O8 0.802904 0.625000 0.125000
O O9 0.625000 0.664268 0.125000
#
# Coordination Sequence:
#
# PCOD9514688 Si02
#       4
#    32  32  16  32
#     4  12  25  42  66 102 145 185 223 297 384 431
#     4  11  21  41  70  99 129 178 242 297 344 425
#     4  10  19  40  67  94 136 188 229 292 353 424
#     4   8  13  31  64  93 112 154 232 296 320 370
#
# _framework density 25.125515
#
# number of rings (size 3 to 8) (size 9 to 14) (size 15 to 20)
#    0.000    2.000    8.571    1.714    0.000    0.000 
#    0.000    8.571    0.000    0.000    0.000    0.000 
#    0.000    0.000    0.000    0.000    0.000    0.000 
#
# Total GULP energy -156112.758373 kJ/mol
# GULP energy per Si atom -5575.455656 kJ/mol
# Density = 2.506833 g / cm^3
# Si number density = 25.125515 Si / 1000 Ang^3
#
#
#
# Elastic Constant Matrix: (Units=GPa)
#
#
# Indices 1 2 3 4 5 6 
#
# 1 40.4161 53.4626 2.7595 0.0000 0.0000 0.0000
# 2 53.4626 209.6090 44.9325 0.0000 0.0000 0.0000
# 3 2.7595 44.9325 66.3438 0.0000 0.0000 0.0000
# 4 0.0000 0.0000 0.0000 43.9776 0.0000 0.0000
# 5 0.0000 0.0000 0.0000 0.0000 22.6517 0.0000
# 6 0.0000 0.0000 0.0000 0.0000 0.0000 30.3044
#
#
#
# Elastic Compliance Matrix: (Units=1/GPa)
#
#
# Indices 1 2 3 4 5 6 
#
# 1 0.039300 -0.011316 0.006030 0.000000 0.000000 0.000000
# 2 -0.011316 0.008840 -0.005516 0.000000 0.000000 0.000000
# 3 0.006030 -0.005516 0.018558 0.000000 0.000000 0.000000
# 4 0.000000 0.000000 0.000000 0.022739 0.000000 0.000000
# 5 0.000000 0.000000 0.000000 0.000000 0.044147 0.000000
# 6 0.000000 0.000000 0.000000 0.000000 0.000000 0.032998
#
#
# Mechanical properties :
#
#
# Convention : Reuss Voigt Hill
#
# Bulk Modulus (GPa) = 22.17686 57.63089 39.90387
# Shear Modulus (GPa) = 24.60409 33.73438 29.16923
#
# Velocity S-wave (km/s) = 3.13269 3.66817 3.41095
# Velocity P-wave (km/s) = 4.68301 6.39747 5.60617
#
# Compressibility (1/GPa) = 0.04509204
#
# Stress axis : x y z
#
# Youngs Moduli (GPa) = 25.44516 113.12781 53.88499
#
# Poissons Ratio (x) = 1.28019 -0.32490
# Poissons Ratio (y) = 0.28795 0.29723
# Poissons Ratio (z) = -0.15342 0.62402
#
# Static dielectric constant tensor:
#      x y z
#    x 2.037280 0.000000 0.000000 
#    y 0.000000 2.193040 0.000000 
#    z 0.000000 0.000000 2.099000 
# 
# From -- ./inp_files/15038.got.cif
#   From: 2010.05.17/outbox.cif.g08.bks.cpg/sg70_8_cif.got.tgz:15038.got - 2010.06.03 15:57:51.
