data_PCOD9514888
_publ_section_title
;
Structure prediction by ZEFSAII (Michael W. Deem and Ramdas Pophale) SiO2 
 PCOD9514888
Probable space group: F D D D
;
_chemical_formula_sum "Si O2"
_cell_formula_units_Z 152
_cell_length_a 27.660873
_cell_length_b 22.012487
_cell_length_c 13.230460
_cell_angle_alpha 90.000000
_cell_angle_beta 90.000000
_cell_angle_gamma 90.000000
_cell_volume 8055.823442
_symmetry_space_group_name_H-M "F D D D"
_symmetry_group_IT_number 70
_space_group.IT_coordinate_system_code '2'
_symmetry_cell_setting 'orthorhombic'
loop_
_space_group_symop_operation_xyz
x,y,z
1/4-x,1/4-y,z
x,1/4-y,1/4-z
1/4-x,y,1/4-z
-x,-y,-z
3/4+x,3/4+y,-z
-x,3/4+y,3/4+z
3/4+x,-y,3/4+z
x,1/2+y,1/2+z
1/4-x,3/4-y,1/2+z
x,3/4-y,3/4-z
1/4-x,1/2+y,3/4-z
-x,1/2-y,1/2-z
3/4+x,1/4+y,1/2-z
-x,1/4+y,1/4+z
3/4+x,1/2-y,1/4+z
1/2+x,y,1/2+z
3/4-x,1/4-y,1/2+z
1/2+x,1/4-y,3/4-z
3/4-x,y,3/4-z
1/2-x,-y,1/2-z
1/4+x,3/4+y,1/2-z
1/2-x,3/4+y,1/4+z
1/4+x,-y,1/4+z
1/2+x,1/2+y,z
3/4-x,3/4-y,z
1/2+x,3/4-y,1/4-z
3/4-x,1/2+y,1/4-z
1/2-x,1/2-y,-z
1/4+x,1/4+y,-z
1/2-x,1/4+y,3/4+z
1/4+x,1/2-y,3/4+z
loop_
_atom_site_type_symbol
_atom_site_label
_atom_site_fract_x
_atom_site_fract_y
_atom_site_fract_z
Si Si1 0.289001 0.125000 0.625000
Si Si2 0.375000 0.875000 0.875000
Si Si3 0.420160 0.999102 0.180847
Si Si4 0.705429 0.157386 0.974277
Si Si5 0.278501 0.447375 0.876835
Si Si6 0.559582 0.718743 0.353342
O O1 0.319161 0.179763 0.672856
O O2 0.253891 0.151352 0.538491
O O3 0.339081 0.912600 0.803122
O O4 0.454200 0.962508 0.103145
O O5 0.433254 0.971141 0.290171
O O6 0.365567 0.986386 0.146450
O O7 0.697593 0.094946 0.911434
O O8 0.272733 0.375000 0.875000
O O9 0.295962 0.463192 0.764439
O O10 0.227897 0.481984 0.897811
#
# Coordination Sequence:
#
# PCOD9514888 Si02
#       6
#    16   8  32  32  32  32
#     4  11  26  41  60  90 134 162 207 266 319 374
#     4  10  20  36  64  94 112 160 220 264 292 374
#     4  12  23  42  66  94 123 172 212 262 321 382
#     4  11  21  41  65  90 123 166 216 260 311 382
#     4  11  24  41  66  95 130 163 210 265 325 378
#     4  11  23  41  66  96 125 164 212 264 316 389
#
# _framework density 18.868338000000001
#
# number of rings (size 3 to 8) (size 9 to 14) (size 15 to 20)
#    0.000    0.842    6.316    1.263    1.474    0.842 
#    0.000    0.000    4.632    0.000    0.000    0.000 
#    0.000    0.000    0.000    0.000    0.000    0.000 
#
# Total GULP energy -212268.823259 kJ/mol
# GULP energy per Si atom -5586.021665 kJ/mol
# Density = 1.882539 g / cm^3
# Si number density = 18.868338 Si / 1000 Ang^3
#
#
#
# Elastic Constant Matrix: (Units=GPa)
#
#
# Indices 1 2 3 4 5 6 
#
# 1 65.1204 23.9582 -0.7258 0.0000 0.0000 0.0000
# 2 23.9582 110.4090 2.9917 0.0000 0.0000 0.0000
# 3 -0.7258 2.9917 62.6804 0.0000 0.0000 0.0000
# 4 0.0000 0.0000 0.0000 18.2321 0.0000 0.0000
# 5 0.0000 0.0000 0.0000 0.0000 20.7355 0.0000
# 6 0.0000 0.0000 0.0000 0.0000 0.0000 3.9967
#
#
#
# Elastic Compliance Matrix: (Units=1/GPa)
#
#
# Indices 1 2 3 4 5 6 
#
# 1 0.016697 -0.003633 0.000367 0.000000 0.000000 0.000000
# 2 -0.003633 0.009859 -0.000513 0.000000 0.000000 0.000000
# 3 0.000367 -0.000513 0.015983 0.000000 0.000000 0.000000
# 4 0.000000 0.000000 0.000000 0.054848 0.000000 0.000000
# 5 0.000000 0.000000 0.000000 0.000000 0.048227 0.000000
# 6 0.000000 0.000000 0.000000 0.000000 0.000000 0.250205
#
#
# Mechanical properties :
#
#
# Convention : Reuss Voigt Hill
#
# Bulk Modulus (GPa) = 28.58690 32.29533 30.44112
# Shear Modulus (GPa) = 12.04712 22.72525 17.38618
#
# Velocity S-wave (km/s) = 2.52956 3.47423 3.03883
# Velocity P-wave (km/s) = 4.86983 5.76602 5.33677
#
# Compressibility (1/GPa) = 0.03498106
#
# Stress axis : x y z
#
# Youngs Moduli (GPa) = 59.89143 101.42525 62.56778
#
# Poissons Ratio (x) = 0.36848 -0.02295
# Poissons Ratio (y) = 0.21759 0.03208
# Poissons Ratio (z) = -0.02196 0.05200
#
# Static dielectric constant tensor:
#      x y z
#    x 1.646250 0.000000 0.000000 
#    y 0.000000 1.638040 0.000000 
#    z 0.000000 0.000000 1.652350 
# 
# From -- ./inp_files/27600.got.cif
#   From: 2010.05.17/outbox.cif.g08.bks.cpg/sg70_14_cif.got.tgz:27600.got - 2010.06.03 15:57:51.
