data_PCOD9514259
_publ_section_title
;
Structure prediction by ZEFSAII (Michael W. Deem and Ramdas Pophale) SiO2 
 PCOD9514259
Probable space group: F D D D
;
_chemical_formula_sum "Si O2"
_cell_formula_units_Z 192
_cell_length_a 26.309868
_cell_length_b 18.452983
_cell_length_c 16.941489
_cell_angle_alpha 90.000000
_cell_angle_beta 90.000000
_cell_angle_gamma 90.000000
_cell_volume 8225.017468
_symmetry_space_group_name_H-M "F D D D"
_symmetry_group_IT_number 70
_space_group.IT_coordinate_system_code '2'
_symmetry_cell_setting 'orthorhombic'
loop_
_space_group_symop_operation_xyz
x,y,z
1/4-x,1/4-y,z
x,1/4-y,1/4-z
1/4-x,y,1/4-z
-x,-y,-z
3/4+x,3/4+y,-z
-x,3/4+y,3/4+z
3/4+x,-y,3/4+z
x,1/2+y,1/2+z
1/4-x,3/4-y,1/2+z
x,3/4-y,3/4-z
1/4-x,1/2+y,3/4-z
-x,1/2-y,1/2-z
3/4+x,1/4+y,1/2-z
-x,1/4+y,1/4+z
3/4+x,1/2-y,1/4+z
1/2+x,y,1/2+z
3/4-x,1/4-y,1/2+z
1/2+x,1/4-y,3/4-z
3/4-x,y,3/4-z
1/2-x,-y,1/2-z
1/4+x,3/4+y,1/2-z
1/2-x,3/4+y,1/4+z
1/4+x,-y,1/4+z
1/2+x,1/2+y,z
3/4-x,3/4-y,z
1/2+x,3/4-y,1/4-z
3/4-x,1/2+y,1/4-z
1/2-x,1/2-y,-z
1/4+x,1/4+y,-z
1/2-x,1/4+y,3/4+z
1/4+x,1/2-y,3/4+z
loop_
_atom_site_type_symbol
_atom_site_label
_atom_site_fract_x
_atom_site_fract_y
_atom_site_fract_z
Si Si1 0.943179 0.918561 0.658693
Si Si2 0.085921 0.020401 0.967025
Si Si3 0.675548 0.882744 0.225385
Si Si4 0.375000 0.010854 0.375000
Si Si5 0.547400 0.248798 0.104659
Si Si6 0.206284 0.122590 0.738559
Si Si7 0.857187 0.625000 0.125000
O O1 0.949985 0.835499 0.687046
O O2 0.893153 0.953041 0.695788
O O3 0.933480 0.912558 0.565754
O O4 0.993636 0.966122 0.669936
O O5 0.078984 0.943362 0.919633
O O6 0.085411 0.024267 0.063251
O O7 0.653984 0.810887 0.186918
O O8 0.733736 0.868412 0.246700
O O9 0.643387 0.903133 0.303258
O O10 0.674830 0.939635 0.153792
O O11 0.543751 0.186236 0.169934
O O12 0.568086 0.200426 0.032651
#
# Coordination Sequence:
#
# PCOD9514259 Si02
#       7
#    32  32  32  16  32  32  16
#     4  10  20  34  55  80 104 138 181 221 262 316
#     4  10  21  36  56  79 107 141 182 222 263 316
#     4  10  19  33  55  79 107 141 181 219 261 320
#     4  10  22  37  54  77 104 146 186 220 264 313
#     4  10  19  34  55  82 112 139 173 223 273 321
#     4  10  19  33  56  82 109 141 175 216 274 328
#     4  10  18  34  58  80 106 145 182 215 262 320
#
# _framework density 23.343416000000001
#
# number of rings (size 3 to 8) (size 9 to 14) (size 15 to 20)
#    0.000    2.000    0.000    7.000    0.000    4.000 
#    0.000    3.333    0.000    7.000    0.000    0.000 
#    0.000    0.000    0.000    0.000    0.000    0.000 
#
# Total GULP energy -267702.086808 kJ/mol
# GULP energy per Si atom -5577.126808 kJ/mol
# Density = 2.329028 g / cm^3
# Si number density = 23.343416 Si / 1000 Ang^3
#
#
#
# Elastic Constant Matrix: (Units=GPa)
#
#
# Indices 1 2 3 4 5 6 
#
# 1 18.6808 13.9012 9.9930 0.0000 0.0000 0.0000
# 2 13.9012 124.3190 27.3608 0.0000 0.0000 0.0000
# 3 9.9930 27.3608 75.0160 0.0000 0.0000 0.0000
# 4 0.0000 0.0000 0.0000 44.0456 0.0000 0.0000
# 5 0.0000 0.0000 0.0000 0.0000 -5.5851 0.0000
# 6 0.0000 0.0000 0.0000 0.0000 0.0000 19.1664
#
#
#
# Elastic Compliance Matrix: (Units=1/GPa)
#
#
# Indices 1 2 3 4 5 6 
#
# 1 0.060866 -0.005460 -0.006117 0.000000 0.000000 0.000000
# 2 -0.005460 0.009236 -0.002641 0.000000 0.000000 0.000000
# 3 -0.006117 -0.002641 0.015109 0.000000 0.000000 0.000000
# 4 0.000000 0.000000 0.000000 0.022704 0.000000 0.000000
# 5 0.000000 0.000000 0.000000 0.000000 -0.179046 0.000000
# 6 0.000000 0.000000 0.000000 0.000000 0.000000 0.052175
#
#
# Mechanical properties :
#
#
# Convention : Reuss Voigt Hill
#
# Bulk Modulus (GPa) = 17.61349 35.61399 26.61374
# Shear Modulus (GPa) = 176.04124 22.64275 99.34199
#
# Velocity S-wave (km/s) = 8.69352 3.11784 6.53063
# Velocity P-wave (km/s) = 10.40825 5.31515 8.26385
#
# Compressibility (1/GPa) = 0.05677466
#
# Stress axis : x y z
#
# Youngs Moduli (GPa) = 16.42960 108.27643 66.18722
#
# Poissons Ratio (x) = 0.59116 0.40485
# Poissons Ratio (y) = 0.08970 0.17482
# Poissons Ratio (z) = 0.10050 0.28598
#
# Static dielectric constant tensor:
#      x y z
#    x 1.891330 0.000000 0.000000 
#    y 0.000000 1.817580 0.000000 
#    z 0.000000 0.000000 1.835370 
# 
# From -- ./inp_files/39772.got.cif
#   From: 2010.05.17/outbox.cif.g08.bks.cpg/sg70_20_cif.got.tgz:39772.got - 2010.06.03 15:57:51.
