data_PCOD9514209
_publ_section_title
;
Structure prediction by ZEFSAII (Michael W. Deem and Ramdas Pophale) SiO2 
 PCOD9514209
Probable space group: F D D D
;
_chemical_formula_sum "Si O2"
_cell_formula_units_Z 112
_cell_length_a 32.320732
_cell_length_b 13.083559
_cell_length_c 11.348084
_cell_angle_alpha 90.000000
_cell_angle_beta 90.000000
_cell_angle_gamma 90.000000
_cell_volume 4798.766597
_symmetry_space_group_name_H-M "F D D D"
_symmetry_group_IT_number 70
_space_group.IT_coordinate_system_code '2'
_symmetry_cell_setting 'orthorhombic'
loop_
_space_group_symop_operation_xyz
x,y,z
1/4-x,1/4-y,z
x,1/4-y,1/4-z
1/4-x,y,1/4-z
-x,-y,-z
3/4+x,3/4+y,-z
-x,3/4+y,3/4+z
3/4+x,-y,3/4+z
x,1/2+y,1/2+z
1/4-x,3/4-y,1/2+z
x,3/4-y,3/4-z
1/4-x,1/2+y,3/4-z
-x,1/2-y,1/2-z
3/4+x,1/4+y,1/2-z
-x,1/4+y,1/4+z
3/4+x,1/2-y,1/4+z
1/2+x,y,1/2+z
3/4-x,1/4-y,1/2+z
1/2+x,1/4-y,3/4-z
3/4-x,y,3/4-z
1/2-x,-y,1/2-z
1/4+x,3/4+y,1/2-z
1/2-x,3/4+y,1/4+z
1/4+x,-y,1/4+z
1/2+x,1/2+y,z
3/4-x,3/4-y,z
1/2+x,3/4-y,1/4-z
3/4-x,1/2+y,1/4-z
1/2-x,1/2-y,-z
1/4+x,1/4+y,-z
1/2-x,1/4+y,3/4+z
1/4+x,1/2-y,3/4+z
loop_
_atom_site_type_symbol
_atom_site_label
_atom_site_fract_x
_atom_site_fract_y
_atom_site_fract_z
Si Si1 0.543066 0.909513 0.125805
Si Si2 0.323644 0.125000 0.625000
Si Si3 0.278488 0.002229 0.102343
Si Si4 0.356238 0.734771 0.493613
O O1 0.531413 0.002836 0.210062
O O2 0.509593 0.818309 0.137232
O O3 0.584400 0.867072 0.189989
O O4 0.549857 0.921617 0.986922
O O5 0.354613 0.039931 0.573698
O O6 0.272027 0.125000 0.125000
O O7 0.319564 0.969959 0.175241
O O8 0.375000 0.780648 0.375000
#
# Coordination Sequence:
#
# PCOD9514209 Si02
#       4
#    32  16  32  32
#     4  10  20  31  55  81 111 143 185 235 283 333
#     4  10  18  32  52  82 106 143 197 226 266 340
#     4  10  18  33  53  81 110 141 181 235 285 330
#     4   9  16  29  51  78  99 134 187 234 261 323
#
# _framework density 23.339328999999999
#
# number of rings (size 3 to 8) (size 9 to 14) (size 15 to 20)
#    0.000    2.286    4.286    3.429    0.000    1.143 
#    0.000    0.000    0.000   40.286    0.000    0.000 
#    0.000    0.000    0.000    0.000    0.000    0.000 
#
# Total GULP energy -156011.201316 kJ/mol
# GULP energy per Si atom -5571.828618 kJ/mol
# Density = 2.328621 g / cm^3
# Si number density = 23.339329 Si / 1000 Ang^3
#
#
#
# Elastic Constant Matrix: (Units=GPa)
#
#
# Indices 1 2 3 4 5 6 
#
# 1 96.2361 30.9576 75.0123 0.0000 0.0000 0.0000
# 2 30.9576 35.1736 28.7419 0.0000 0.0000 0.0000
# 3 75.0123 28.7419 230.2159 0.0000 0.0000 0.0000
# 4 0.0000 0.0000 0.0000 -18.4632 0.0000 0.0000
# 5 0.0000 0.0000 0.0000 0.0000 60.8522 0.0000
# 6 0.0000 0.0000 0.0000 0.0000 0.0000 91.7365
#
#
#
# Elastic Compliance Matrix: (Units=1/GPa)
#
#
# Indices 1 2 3 4 5 6 
#
# 1 0.017534 -0.011986 -0.004217 0.000000 0.000000 0.000000
# 2 -0.011986 0.039855 -0.001070 0.000000 0.000000 0.000000
# 3 -0.004217 -0.001070 0.005851 0.000000 0.000000 0.000000
# 4 0.000000 0.000000 0.000000 -0.054162 0.000000 0.000000
# 5 0.000000 0.000000 0.000000 0.000000 0.016433 0.000000
# 6 0.000000 0.000000 0.000000 0.000000 0.000000 0.010901
#
#
# Mechanical properties :
#
#
# Convention : Reuss Voigt Hill
#
# Bulk Modulus (GPa) = 34.85154 70.11658 52.48406
# Shear Modulus (GPa) = 62.09445 41.95269 52.02357
#
# Velocity S-wave (km/s) = 5.16361 4.24431 4.72636
# Velocity P-wave (km/s) = 7.10742 7.35706 7.23331
#
# Compressibility (1/GPa) = 0.02869314
#
# Stress axis : x y z
#
# Youngs Moduli (GPa) = 57.03335 25.09119 170.90337
#
# Poissons Ratio (x) = 0.30075 0.72063
# Poissons Ratio (y) = 0.68363 0.18289
# Poissons Ratio (z) = 0.24049 0.02685
#
# Static dielectric constant tensor:
#      x y z
#    x 1.905030 0.000000 0.000000 
#    y 0.000000 1.892910 0.000000 
#    z 0.000000 0.000000 2.032830 
# 
# From -- ./inp_files/17548.got.cif
#   From: 2010.05.17/outbox.cif.g08.bks.cpg/sg70_9_cif.got.tgz:17548.got - 2010.06.03 15:57:51.
