data_PCOD9514088
_publ_section_title
;
Structure prediction by ZEFSAII (Michael W. Deem and Ramdas Pophale) SiO2 
 PCOD9514088
Probable space group: F D D D
;
_chemical_formula_sum "Si O2"
_cell_formula_units_Z 176
_cell_length_a 17.532189
_cell_length_b 20.503334
_cell_length_c 24.957935
_cell_angle_alpha 90.000000
_cell_angle_beta 90.000000
_cell_angle_gamma 90.000000
_cell_volume 8971.587135
_symmetry_space_group_name_H-M "F D D D"
_symmetry_group_IT_number 70
_space_group.IT_coordinate_system_code '2'
_symmetry_cell_setting 'orthorhombic'
loop_
_space_group_symop_operation_xyz
x,y,z
1/4-x,1/4-y,z
x,1/4-y,1/4-z
1/4-x,y,1/4-z
-x,-y,-z
3/4+x,3/4+y,-z
-x,3/4+y,3/4+z
3/4+x,-y,3/4+z
x,1/2+y,1/2+z
1/4-x,3/4-y,1/2+z
x,3/4-y,3/4-z
1/4-x,1/2+y,3/4-z
-x,1/2-y,1/2-z
3/4+x,1/4+y,1/2-z
-x,1/4+y,1/4+z
3/4+x,1/2-y,1/4+z
1/2+x,y,1/2+z
3/4-x,1/4-y,1/2+z
1/2+x,1/4-y,3/4-z
3/4-x,y,3/4-z
1/2-x,-y,1/2-z
1/4+x,3/4+y,1/2-z
1/2-x,3/4+y,1/4+z
1/4+x,-y,1/4+z
1/2+x,1/2+y,z
3/4-x,3/4-y,z
1/2+x,3/4-y,1/4-z
3/4-x,1/2+y,1/4-z
1/2-x,1/2-y,-z
1/4+x,1/4+y,-z
1/2-x,1/4+y,3/4+z
1/4+x,1/2-y,3/4+z
loop_
_atom_site_type_symbol
_atom_site_label
_atom_site_fract_x
_atom_site_fract_y
_atom_site_fract_z
Si Si1 0.515636 0.683054 0.357388
Si Si2 0.710815 0.098070 0.293773
Si Si3 0.875000 0.875000 0.021408
Si Si4 0.655827 0.476404 0.856096
Si Si5 0.572127 0.395133 0.293944
Si Si6 0.666742 0.993123 0.722741
O O1 0.500212 0.641374 0.409970
O O2 0.553273 0.635656 0.311888
O O3 0.583675 0.733828 0.371167
O O4 0.442586 0.720805 0.335681
O O5 0.625000 0.125000 0.288823
O O6 0.753732 0.111600 0.238573
O O7 0.703341 0.025868 0.318750
O O8 0.876528 0.810685 0.984583
O O9 0.698634 0.444459 0.907312
O O10 0.631807 0.414491 0.820522
O O11 0.621574 0.436578 0.252791
O O12 0.750000 0.000000 0.750000
#
# Coordination Sequence:
#
# PCOD9514088 Si02
#       6
#    32  32  16  32  32  32
#     4  10  18  39  64  82 127 169 201 240 320 378
#     4  10  21  41  62  84 123 167 207 253 316 369
#     4  10  16  36  62  85 128 165 190 248 308 366
#     4  10  20  39  60  91 116 166 205 256 313 374
#     4  11  21  37  66  89 123 158 211 260 308 367
#     4  10  20  36  62  94 121 159 208 244 310 385
#
# _framework density 19.617488000000002
#
# number of rings (size 3 to 8) (size 9 to 14) (size 15 to 20)
#    0.000    1.818    6.364    0.545    0.000    0.727 
#   19.636    1.818    8.000    0.000    0.000    0.000 
#    0.000    0.000    0.000    0.000    0.000    0.000 
#
# Total GULP energy -245201.262984 kJ/mol
# GULP energy per Si atom -5572.755977 kJ/mol
# Density = 1.957284 g / cm^3
# Si number density = 19.617488 Si / 1000 Ang^3
#
#
#
# Elastic Constant Matrix: (Units=GPa)
#
#
# Indices 1 2 3 4 5 6 
#
# 1 48.1891 43.2744 38.7315 0.0000 0.0000 0.0000
# 2 43.2744 150.0370 68.2756 0.0000 0.0000 0.0000
# 3 38.7315 68.2756 61.6724 0.0000 0.0000 0.0000
# 4 0.0000 0.0000 0.0000 19.9561 0.0000 0.0000
# 5 0.0000 0.0000 0.0000 0.0000 18.5665 0.0000
# 6 0.0000 0.0000 0.0000 0.0000 0.0000 7.9388
#
#
#
# Elastic Compliance Matrix: (Units=1/GPa)
#
#
# Indices 1 2 3 4 5 6 
#
# 1 0.041906 -0.000223 -0.026071 0.000000 0.000000 0.000000
# 2 -0.000223 0.013433 -0.014731 0.000000 0.000000 0.000000
# 3 -0.026071 -0.014731 0.048896 0.000000 0.000000 0.000000
# 4 0.000000 0.000000 0.000000 0.050110 0.000000 0.000000
# 5 0.000000 0.000000 0.000000 0.000000 0.053860 0.000000
# 6 0.000000 0.000000 0.000000 0.000000 0.000000 0.125964
#
#
# Mechanical properties :
#
#
# Convention : Reuss Voigt Hill
#
# Bulk Modulus (GPa) = 45.07557 62.27350 53.67454
# Shear Modulus (GPa) = 11.80319 16.60009 14.20164
#
# Velocity S-wave (km/s) = 2.45555 2.91209 2.69351
# Velocity P-wave (km/s) = 5.57376 6.56657 6.09042
#
# Compressibility (1/GPa) = 0.02218497
#
# Stress axis : x y z
#
# Youngs Moduli (GPa) = 23.86288 74.44469 20.45153
#
# Poissons Ratio (x) = 0.01660 0.53319
# Poissons Ratio (y) = 0.00532 0.30127
# Poissons Ratio (z) = 0.62213 1.09665
#
# Static dielectric constant tensor:
#      x y z
#    x 1.663850 0.000000 0.000000 
#    y 0.000000 1.711190 0.000000 
#    z 0.000000 0.000000 1.756230 
# 
# From -- ./inp_files/59456.got.cif
#   From: 2010.05.17/outbox.cif.g08.bks.cpg/sg70_30_cif.got.tgz:59456.got - 2010.06.03 15:57:51.
