data_PCOD9514807
_publ_section_title
;
Structure prediction by ZEFSAII (Michael W. Deem and Ramdas Pophale) SiO2 
 PCOD9514807
Probable space group: F D D D
;
_chemical_formula_sum "Si O2"
_cell_formula_units_Z 160
_cell_length_a 16.173118
_cell_length_b 19.736024
_cell_length_c 22.800953
_cell_angle_alpha 90.000000
_cell_angle_beta 90.000000
_cell_angle_gamma 90.000000
_cell_volume 7277.905617
_symmetry_space_group_name_H-M "F D D D"
_symmetry_group_IT_number 70
_space_group.IT_coordinate_system_code '2'
_symmetry_cell_setting 'orthorhombic'
loop_
_space_group_symop_operation_xyz
x,y,z
1/4-x,1/4-y,z
x,1/4-y,1/4-z
1/4-x,y,1/4-z
-x,-y,-z
3/4+x,3/4+y,-z
-x,3/4+y,3/4+z
3/4+x,-y,3/4+z
x,1/2+y,1/2+z
1/4-x,3/4-y,1/2+z
x,3/4-y,3/4-z
1/4-x,1/2+y,3/4-z
-x,1/2-y,1/2-z
3/4+x,1/4+y,1/2-z
-x,1/4+y,1/4+z
3/4+x,1/2-y,1/4+z
1/2+x,y,1/2+z
3/4-x,1/4-y,1/2+z
1/2+x,1/4-y,3/4-z
3/4-x,y,3/4-z
1/2-x,-y,1/2-z
1/4+x,3/4+y,1/2-z
1/2-x,3/4+y,1/4+z
1/4+x,-y,1/4+z
1/2+x,1/2+y,z
3/4-x,3/4-y,z
1/2+x,3/4-y,1/4-z
3/4-x,1/2+y,1/4-z
1/2-x,1/2-y,-z
1/4+x,1/4+y,-z
1/2-x,1/4+y,3/4+z
1/4+x,1/2-y,3/4+z
loop_
_atom_site_type_symbol
_atom_site_label
_atom_site_fract_x
_atom_site_fract_y
_atom_site_fract_z
Si Si1 0.625000 0.625000 0.814719
Si Si2 0.599067 0.766233 0.429306
Si Si3 0.375000 0.986383 0.875000
Si Si4 0.005714 0.625000 0.625000
Si Si5 0.256472 0.897195 0.791830
Si Si6 0.125000 0.625000 0.514670
Si Si7 0.764741 0.759737 0.706696
O O1 0.616278 0.556076 0.848857
O O2 0.702478 0.610583 0.771718
O O3 0.551888 0.811425 0.383968
O O4 0.679233 0.803361 0.453812
O O5 0.538872 0.755757 0.483976
O O6 0.446751 0.029789 0.842987
O O7 0.327351 0.936364 0.829530
O O8 0.195758 0.639507 0.564111
O O9 0.223941 0.821204 0.809226
O O10 0.162549 0.562519 0.475644
#
# Coordination Sequence:
#
# PCOD9514807 Si02
#       7
#    16  32  16  16  32  16  32
#     4  10  20  35  57  94 129 161 204 278 332 386
#     4  10  21  36  64  91 123 171 215 267 331 387
#     4  12  21  36  64 100 128 166 219 266 341 416
#     4   9  20  38  68  91 120 184 232 257 324 400
#     4  11  20  35  63  92 126 166 206 266 332 404
#     4   9  20  44  65  90 131 175 230 276 312 382
#     4  10  21  38  64  92 125 170 217 271 327 388
#
# _framework density 21.984345999999999
#
# number of rings (size 3 to 8) (size 9 to 14) (size 15 to 20)
#    0.000    1.800    4.000    1.800    2.800    0.000 
#    0.000    5.000    4.400    0.000    0.000    0.000 
#    0.000    0.000    0.000    0.000    0.000    0.000 
#
# Total GULP energy -222864.571607 kJ/mol
# GULP energy per Si atom -5571.614290 kJ/mol
# Density = 2.193431 g / cm^3
# Si number density = 21.984346 Si / 1000 Ang^3
#
#
#
# Elastic Constant Matrix: (Units=GPa)
#
#
# Indices 1 2 3 4 5 6 
#
# 1 112.0006 88.7574 36.5605 0.0000 0.0000 0.0000
# 2 88.7574 183.0344 47.8491 0.0000 0.0000 0.0000
# 3 36.5605 47.8491 97.9267 0.0000 0.0000 0.0000
# 4 0.0000 0.0000 0.0000 -43.2690 0.0000 0.0000
# 5 0.0000 0.0000 0.0000 0.0000 24.0270 0.0000
# 6 0.0000 0.0000 0.0000 0.0000 0.0000 48.3837
#
#
#
# Elastic Compliance Matrix: (Units=1/GPa)
#
#
# Indices 1 2 3 4 5 6 
#
# 1 0.014954 -0.006640 -0.002338 0.000000 0.000000 0.000000
# 2 -0.006640 0.009212 -0.002022 0.000000 0.000000 0.000000
# 3 -0.002338 -0.002022 0.012073 0.000000 0.000000 0.000000
# 4 0.000000 0.000000 0.000000 -0.023111 0.000000 0.000000
# 5 0.000000 0.000000 0.000000 0.000000 0.041620 0.000000
# 6 0.000000 0.000000 0.000000 0.000000 0.000000 0.020668
#
#
# Mechanical properties :
#
#
# Convention : Reuss Voigt Hill
#
# Bulk Modulus (GPa) = 70.23789 82.14397 76.19093
# Shear Modulus (GPa) = 48.94135 20.48133 34.71134
#
# Velocity S-wave (km/s) = 4.72337 3.05558 3.97786
# Velocity P-wave (km/s) = 7.85910 7.06361 7.47195
#
# Compressibility (1/GPa) = 0.01423733
#
# Stress axis : x y z
#
# Youngs Moduli (GPa) = 66.87144 108.55323 82.83064
#
# Poissons Ratio (x) = 0.72082 0.19370
# Poissons Ratio (y) = 0.44404 0.16749
# Poissons Ratio (z) = 0.15638 0.21951
#
# Static dielectric constant tensor:
#      x y z
#    x 1.851030 0.000000 0.000000 
#    y 0.000000 1.843620 0.000000 
#    z 0.000000 0.000000 1.854820 
# 
# From -- ./inp_files/38506.got.cif
#   From: 2010.05.17/outbox.cif.g08.bks.cpg/sg70_20_cif.got.tgz:38506.got - 2010.06.03 15:57:51.
