data_PCOD9514592
_publ_section_title
;
Structure prediction by ZEFSAII (Michael W. Deem and Ramdas Pophale) SiO2 
 PCOD9514592
Probable space group: F D D D
;
_chemical_formula_sum "Si O2"
_cell_formula_units_Z 112
_cell_length_a 11.809171
_cell_length_b 25.506899
_cell_length_c 14.929621
_cell_angle_alpha 90.000000
_cell_angle_beta 90.000000
_cell_angle_gamma 90.000000
_cell_volume 4497.030746
_symmetry_space_group_name_H-M "F D D D"
_symmetry_group_IT_number 70
_space_group.IT_coordinate_system_code '2'
_symmetry_cell_setting 'orthorhombic'
loop_
_space_group_symop_operation_xyz
x,y,z
1/4-x,1/4-y,z
x,1/4-y,1/4-z
1/4-x,y,1/4-z
-x,-y,-z
3/4+x,3/4+y,-z
-x,3/4+y,3/4+z
3/4+x,-y,3/4+z
x,1/2+y,1/2+z
1/4-x,3/4-y,1/2+z
x,3/4-y,3/4-z
1/4-x,1/2+y,3/4-z
-x,1/2-y,1/2-z
3/4+x,1/4+y,1/2-z
-x,1/4+y,1/4+z
3/4+x,1/2-y,1/4+z
1/2+x,y,1/2+z
3/4-x,1/4-y,1/2+z
1/2+x,1/4-y,3/4-z
3/4-x,y,3/4-z
1/2-x,-y,1/2-z
1/4+x,3/4+y,1/2-z
1/2-x,3/4+y,1/4+z
1/4+x,-y,1/4+z
1/2+x,1/2+y,z
3/4-x,3/4-y,z
1/2+x,3/4-y,1/4-z
3/4-x,1/2+y,1/4-z
1/2-x,1/2-y,-z
1/4+x,1/4+y,-z
1/2-x,1/4+y,3/4+z
1/4+x,1/2-y,3/4+z
loop_
_atom_site_type_symbol
_atom_site_label
_atom_site_fract_x
_atom_site_fract_y
_atom_site_fract_z
Si Si1 0.625000 0.496651 0.125000
Si Si2 0.051964 0.440741 0.991868
Si Si3 0.545468 0.669712 0.917889
Si Si4 0.109652 0.965143 0.932955
O O1 0.729862 0.534564 0.150342
O O2 0.615734 0.459154 0.212198
O O3 0.179632 0.433212 0.030053
O O4 0.982658 0.407564 0.063958
O O5 0.063190 0.432942 0.885609
O O6 0.000000 0.500000 0.000000
O O7 0.625000 0.625000 0.956932
O O8 0.612378 0.723763 0.918270
#
# Coordination Sequence:
#
# PCOD9514592 Si02
#       4
#    16  32  32  32
#     4  10  20  32  63  92 124 174 242 288 328 420
#     4   9  19  37  64  95 130 181 233 279 346 443
#     4  10  20  36  63 100 135 175 228 305 369 408
#     4  10  19  37  60  95 130 176 237 288 346 433
#
# _framework density 24.905322999999999
#
# number of rings (size 3 to 8) (size 9 to 14) (size 15 to 20)
#    0.000    2.286    2.857    0.000    0.000    2.286 
#    0.000    0.714    0.000    6.857    0.000    0.000 
#    0.000    0.000    0.000    0.000    0.000    0.000 
#
# Total GULP energy -156154.911841 kJ/mol
# GULP energy per Si atom -5576.961137 kJ/mol
# Density = 2.484864 g / cm^3
# Si number density = 24.905323 Si / 1000 Ang^3
#
#
#
# Elastic Constant Matrix: (Units=GPa)
#
#
# Indices 1 2 3 4 5 6 
#
# 1 106.8903 49.6902 44.6156 0.0000 0.0000 0.0000
# 2 49.6902 101.4223 9.7779 0.0000 0.0000 0.0000
# 3 44.6156 9.7779 255.0346 0.0000 0.0000 0.0000
# 4 0.0000 0.0000 0.0000 0.3041 0.0000 0.0000
# 5 0.0000 0.0000 0.0000 0.0000 28.5285 0.0000
# 6 0.0000 0.0000 0.0000 0.0000 0.0000 37.1672
#
#
#
# Elastic Compliance Matrix: (Units=1/GPa)
#
#
# Indices 1 2 3 4 5 6 
#
# 1 0.013106 -0.006223 -0.002054 0.000000 0.000000 0.000000
# 2 -0.006223 0.012851 0.000596 0.000000 0.000000 0.000000
# 3 -0.002054 0.000596 0.004258 0.000000 0.000000 0.000000
# 4 0.000000 0.000000 0.000000 3.288060 0.000000 0.000000
# 5 0.000000 0.000000 0.000000 0.000000 0.035053 0.000000
# 6 0.000000 0.000000 0.000000 0.000000 0.000000 0.026905
#
#
# Mechanical properties :
#
#
# Convention : Reuss Voigt Hill
#
# Bulk Modulus (GPa) = 67.33027 74.61272 70.97150
# Shear Modulus (GPa) = 1.47035 37.15087 19.31061
#
# Velocity S-wave (km/s) = 0.76919 3.86642 2.78755
# Velocity P-wave (km/s) = 5.28035 7.06795 6.23851
#
# Compressibility (1/GPa) = 0.01485216
#
# Stress axis : x y z
#
# Youngs Moduli (GPa) = 76.30351 77.81451 234.87781
#
# Poissons Ratio (x) = 0.48423 0.48246
# Poissons Ratio (y) = 0.47482 -0.13997
# Poissons Ratio (z) = 0.15673 -0.04637
#
# Static dielectric constant tensor:
#      x y z
#    x 2.032650 0.000000 0.000000 
#    y 0.000000 1.922260 0.000000 
#    z 0.000000 0.000000 2.082960 
# 
# From -- ./inp_files/33058.got.cif
#   From: 2010.05.17/outbox.cif.g08.bks.cpg/sg70_17_cif.got.tgz:33058.got - 2010.06.03 15:57:51.
