data_PCOD9514002
_publ_section_title
;
Structure prediction by ZEFSAII (Michael W. Deem and Ramdas Pophale) SiO2 
 PCOD9514002
Probable space group: F M M M
;
_chemical_formula_sum "Si O2"
_cell_formula_units_Z 48
_cell_length_a 21.000000
_cell_length_b 27.000000
_cell_length_c 21.000000
_cell_angle_alpha 90.000000
_cell_angle_beta 90.000000
_cell_angle_gamma 90.000000
_cell_volume 11907.000000
_symmetry_space_group_name_H-M "F M M M"
_symmetry_group_IT_number 69
_symmetry_cell_setting 'orthorhombic'
loop_
_space_group_symop_operation_xyz
x,y,z
-x,-y,z
x,-y,-z
-x,y,-z
-x,-y,-z
x,y,-z
-x,y,z
x,-y,z
x,1/2+y,1/2+z
-x,1/2-y,1/2+z
x,1/2-y,1/2-z
-x,1/2+y,1/2-z
-x,1/2-y,1/2-z
x,1/2+y,1/2-z
-x,1/2+y,1/2+z
x,1/2-y,1/2+z
1/2+x,y,1/2+z
1/2-x,-y,1/2+z
1/2+x,-y,1/2-z
1/2-x,y,1/2-z
1/2-x,-y,1/2-z
1/2+x,y,1/2-z
1/2-x,y,1/2+z
1/2+x,-y,1/2+z
1/2+x,1/2+y,z
1/2-x,1/2-y,z
1/2+x,1/2-y,-z
1/2-x,1/2+y,-z
1/2-x,1/2-y,-z
1/2+x,1/2+y,-z
1/2-x,1/2+y,z
1/2+x,1/2-y,z
loop_
_atom_site_type_symbol
_atom_site_label
_atom_site_fract_x
_atom_site_fract_y
_atom_site_fract_z
Si Si1 0.427192 0.595128 0.735718
Si Si2 0.073196 0.441241 0.619541
Si Si3 0.856384 0.693069 0.755522
Si Si4 0.707389 0.558645 0.309906
Si Si5 0.291162 0.597995 0.926383
Si Si6 0.753245 0.306881 0.642536
O O1 0.500000 0.587580 0.711857
O O2 0.422833 0.568444 0.804491
O O3 0.412116 0.653151 0.746488
O O4 0.365706 0.577169 0.695229
O O5 0.080100 0.500000 0.607120
O O6 0.134275 0.413649 0.589060
O O7 0.000000 0.426968 0.600146
O O8 0.877880 0.750000 0.750000
O O9 0.808056 0.686865 0.696201
O O10 0.812832 0.684616 0.818727
O O11 0.704305 0.500000 0.302921
O O12 0.750000 0.578440 0.250000
O O13 0.746419 0.570679 0.374139
O O14 0.271502 0.654811 0.912153
O O15 0.279169 0.584806 0.000000
O O16 0.750000 0.250000 0.621321
#
# Coordination Sequence:
#
# PCOD9514002 Si02
#       6
#    32  32  32  32  32  32
#     4  11  20  32  55  84 111 139 176 223 272 324
#     4  10  21  36  53  78 114 151 182 216 266 329
#     4   9  16  30  55  81 106 138 175 220 270 318
#     4  11  21  36  57  77 106 146 183 223 264 310
#     4  12  23  35  56  84 111 143 183 226 270 319
#     4   9  17  32  54  79 108 139 174 219 270 320
#
# _framework density 4.0312419999999998
#
# number of rings (size 3 to 8) (size 9 to 14) (size 15 to 20)
#    0.000    1.667    5.000    2.000    0.000    3.333 
#    0.000    0.833    0.000    0.500    0.000    1.167 
#    0.000    0.000    0.000    0.000    0.000    0.000 
#
# Total GULP energy -267503.809674 kJ/mol
# GULP energy per Si atom -5572.996035 kJ/mol
# Density = 0.402207 g / cm^3
# Si number density = 4.031242 Si / 1000 Ang^3
#
#
#
# Elastic Constant Matrix: (Units=GPa)
#
#
# Indices 1 2 3 4 5 6 
#
# 1 127.5462 38.4322 39.6761 0.0000 0.0000 0.0000
# 2 38.4322 84.6243 16.3992 0.0000 0.0000 0.0000
# 3 39.6761 16.3992 72.1310 0.0000 0.0000 0.0000
# 4 0.0000 0.0000 0.0000 8.1624 0.0000 0.0000
# 5 0.0000 0.0000 0.0000 0.0000 17.0723 0.0000
# 6 0.0000 0.0000 0.0000 0.0000 0.0000 26.6979
#
#
#
# Elastic Compliance Matrix: (Units=1/GPa)
#
#
# Indices 1 2 3 4 5 6 
#
# 1 0.010523 -0.003826 -0.004918 0.000000 0.000000 0.000000
# 2 -0.003826 0.013753 -0.001022 0.000000 0.000000 0.000000
# 3 -0.004918 -0.001022 0.016802 0.000000 0.000000 0.000000
# 4 0.000000 0.000000 0.000000 0.122513 0.000000 0.000000
# 5 0.000000 0.000000 0.000000 0.000000 0.058574 0.000000
# 6 0.000000 0.000000 0.000000 0.000000 0.000000 0.037456
#
#
# Mechanical properties :
#
#
# Convention : Reuss Voigt Hill
#
# Bulk Modulus (GPa) = 46.41673 52.59075 49.50374
# Shear Modulus (GPa) = 17.46206 23.03946 20.25076
#
# Velocity S-wave (km/s) = 3.29435 3.78406 3.54766
# Velocity P-wave (km/s) = 6.58167 7.19565 6.89550
#
# Compressibility (1/GPa) = 0.02154396
#
# Stress axis : x y z
#
# Youngs Moduli (GPa) = 95.02873 72.71362 59.51848
#
# Poissons Ratio (x) = 0.27820 0.29274
# Poissons Ratio (y) = 0.36357 0.06084
# Poissons Ratio (z) = 0.46740 0.07433
#
# Static dielectric constant tensor:
#      x y z
#    x 1.533340 0.000000 0.000000 
#    y 0.000000 1.598650 0.000000 
#    z 0.000000 0.000000 1.528060 
# 
# From -- ./inp_files/32165.got.cif
#   From: 2010.05.17/outbox.ucp.g08.bks.cvg/sg69_17_cif.got.tgz:32165.got - 2010.06.11 16:51:34.
