data_PCOD9514705
_publ_section_title
;
Structure prediction by ZEFSAII (Michael W. Deem and Ramdas Pophale) SiO2 
 PCOD9514705
Probable space group: F D D D
;
_chemical_formula_sum "Si O2"
_cell_formula_units_Z 240
_cell_length_a 22.671780
_cell_length_b 27.411727
_cell_length_c 19.488517
_cell_angle_alpha 90.000000
_cell_angle_beta 90.000000
_cell_angle_gamma 90.000000
_cell_volume 12111.580187
_symmetry_space_group_name_H-M "F D D D"
_symmetry_group_IT_number 70
_space_group.IT_coordinate_system_code '2'
_symmetry_cell_setting 'orthorhombic'
loop_
_space_group_symop_operation_xyz
x,y,z
1/4-x,1/4-y,z
x,1/4-y,1/4-z
1/4-x,y,1/4-z
-x,-y,-z
3/4+x,3/4+y,-z
-x,3/4+y,3/4+z
3/4+x,-y,3/4+z
x,1/2+y,1/2+z
1/4-x,3/4-y,1/2+z
x,3/4-y,3/4-z
1/4-x,1/2+y,3/4-z
-x,1/2-y,1/2-z
3/4+x,1/4+y,1/2-z
-x,1/4+y,1/4+z
3/4+x,1/2-y,1/4+z
1/2+x,y,1/2+z
3/4-x,1/4-y,1/2+z
1/2+x,1/4-y,3/4-z
3/4-x,y,3/4-z
1/2-x,-y,1/2-z
1/4+x,3/4+y,1/2-z
1/2-x,3/4+y,1/4+z
1/4+x,-y,1/4+z
1/2+x,1/2+y,z
3/4-x,3/4-y,z
1/2+x,3/4-y,1/4-z
3/4-x,1/2+y,1/4-z
1/2-x,1/2-y,-z
1/4+x,1/4+y,-z
1/2-x,1/4+y,3/4+z
1/4+x,1/2-y,3/4+z
loop_
_atom_site_type_symbol
_atom_site_label
_atom_site_fract_x
_atom_site_fract_y
_atom_site_fract_z
Si Si1 0.738347 0.559276 0.378265
Si Si2 0.456414 0.332588 0.428225
Si Si3 0.280535 0.900446 0.710784
Si Si4 0.344714 0.588241 0.799450
Si Si5 0.693758 0.776879 0.262174
Si Si6 0.154156 0.316189 0.494143
Si Si7 0.625000 0.251708 0.125000
Si Si8 0.356573 0.769489 0.113099
O O1 0.740944 0.616881 0.398662
O O2 0.781259 0.563486 0.312948
O O3 0.767439 0.527660 0.441661
O O4 0.671860 0.540099 0.371101
O O5 0.448423 0.375000 0.375000
O O6 0.435595 0.358487 0.497177
O O7 0.522936 0.316945 0.441758
O O8 0.423553 0.284178 0.406479
O O9 0.223114 0.917382 0.754009
O O10 0.320292 0.944656 0.687001
O O11 0.375000 0.595409 0.875000
O O12 0.381742 0.547346 0.760763
O O13 0.359377 0.638341 0.757899
O O14 0.680802 0.734086 0.315952
O O15 0.148794 0.283677 0.562916
O O16 0.140319 0.282070 0.428485
#
# Coordination Sequence:
#
# PCOD9514705 Si02
#       8
#    32  32  32  32  32  32  16  32
#     4  10  22  41  61  85 118 165 201 251 317 376
#     4  11  21  35  52  79 121 163 193 233 293 354
#     4  11  21  39  55  81 124 166 196 234 303 367
#     4  10  19  41  65  79 109 165 205 245 310 374
#     4  10  22  39  60  83 116 155 206 256 304 363
#     4  12  20  37  60  87 116 164 206 246 290 368
#     4  12  23  32  56  90 118 158 210 240 285 356
#     4  12  25  35  59  96 126 151 207 268 306 358
#
# _framework density 19.815746000000001
#
# number of rings (size 3 to 8) (size 9 to 14) (size 15 to 20)
#    0.000    1.067    4.667    5.000    0.000    3.733 
#    0.000    0.000    0.000    0.000    0.000    0.000 
#    0.000    7.467    0.000    0.000    0.000    0.000 
#
# Total GULP energy -334318.691963 kJ/mol
# GULP energy per Si atom -5571.978199 kJ/mol
# Density = 1.977064 g / cm^3
# Si number density = 19.815746 Si / 1000 Ang^3
#
#
#
# Elastic Constant Matrix: (Units=GPa)
#
#
# Indices 1 2 3 4 5 6 
#
# 1 118.1980 27.9966 16.0850 0.0000 0.0000 0.0000
# 2 27.9966 34.5842 6.8003 0.0000 0.0000 0.0000
# 3 16.0850 6.8003 34.1261 0.0000 0.0000 0.0000
# 4 0.0000 0.0000 0.0000 23.0345 0.0000 0.0000
# 5 0.0000 0.0000 0.0000 0.0000 -71.1453 0.0000
# 6 0.0000 0.0000 0.0000 0.0000 0.0000 40.7599
#
#
#
# Elastic Compliance Matrix: (Units=1/GPa)
#
#
# Indices 1 2 3 4 5 6 
#
# 1 0.010855 -0.008099 -0.003503 0.000000 0.000000 0.000000
# 2 -0.008099 0.036136 -0.003384 0.000000 0.000000 0.000000
# 3 -0.003503 -0.003384 0.031628 0.000000 0.000000 0.000000
# 4 0.000000 0.000000 0.000000 0.043413 0.000000 0.000000
# 5 0.000000 0.000000 0.000000 0.000000 -0.014056 0.000000
# 6 0.000000 0.000000 0.000000 0.000000 0.000000 0.024534
#
#
# Mechanical properties :
#
#
# Convention : Reuss Voigt Hill
#
# Bulk Modulus (GPa) = 20.55507 32.07467 26.31487
# Shear Modulus (GPa) = 27.98014 7.59825 17.78919
#
# Velocity S-wave (km/s) = 3.76176 1.96030 2.99947
# Velocity P-wave (km/s) = 5.40956 4.62010 5.03034
#
# Compressibility (1/GPa) = 0.04864980
#
# Stress axis : x y z
#
# Youngs Moduli (GPa) = 92.12034 27.67291 31.61729
#
# Poissons Ratio (x) = 0.22412 0.11075
# Poissons Ratio (y) = 0.74607 0.10698
# Poissons Ratio (z) = 0.32267 0.09363
#
# Static dielectric constant tensor:
#      x y z
#    x 1.816520 0.000000 0.000000 
#    y 0.000000 1.733340 0.000000 
#    z 0.000000 0.000000 1.847460 
# 
# From -- ./inp_files/45205.got.cif
#   From: 2010.05.17/outbox.cif.g08.bks.cpg/sg70_23_cif.got.tgz:45205.got - 2010.06.03 15:57:51.
