data_PCOD9514574
_publ_section_title
;
Structure prediction by ZEFSAII (Michael W. Deem and Ramdas Pophale) SiO2 
 PCOD9514574
Probable space group: F D D D
;
_chemical_formula_sum "Si O2"
_cell_formula_units_Z 144
_cell_length_a 26.768227
_cell_length_b 20.999528
_cell_length_c 12.641553
_cell_angle_alpha 90.000000
_cell_angle_beta 90.000000
_cell_angle_gamma 90.000000
_cell_volume 7106.071446
_symmetry_space_group_name_H-M "F D D D"
_symmetry_group_IT_number 70
_space_group.IT_coordinate_system_code '2'
_symmetry_cell_setting 'orthorhombic'
loop_
_space_group_symop_operation_xyz
x,y,z
1/4-x,1/4-y,z
x,1/4-y,1/4-z
1/4-x,y,1/4-z
-x,-y,-z
3/4+x,3/4+y,-z
-x,3/4+y,3/4+z
3/4+x,-y,3/4+z
x,1/2+y,1/2+z
1/4-x,3/4-y,1/2+z
x,3/4-y,3/4-z
1/4-x,1/2+y,3/4-z
-x,1/2-y,1/2-z
3/4+x,1/4+y,1/2-z
-x,1/4+y,1/4+z
3/4+x,1/2-y,1/4+z
1/2+x,y,1/2+z
3/4-x,1/4-y,1/2+z
1/2+x,1/4-y,3/4-z
3/4-x,y,3/4-z
1/2-x,-y,1/2-z
1/4+x,3/4+y,1/2-z
1/2-x,3/4+y,1/4+z
1/4+x,-y,1/4+z
1/2+x,1/2+y,z
3/4-x,3/4-y,z
1/2+x,3/4-y,1/4-z
3/4-x,1/2+y,1/4-z
1/2-x,1/2-y,-z
1/4+x,1/4+y,-z
1/2-x,1/4+y,3/4+z
1/4+x,1/2-y,3/4+z
loop_
_atom_site_type_symbol
_atom_site_label
_atom_site_fract_x
_atom_site_fract_y
_atom_site_fract_z
Si Si1 0.913519 0.428979 0.121647
Si Si2 0.842433 0.734226 0.273661
Si Si3 0.350236 0.125000 0.125000
Si Si4 0.163622 0.463977 0.531388
Si Si5 0.012251 0.594039 0.236385
O O1 0.875000 0.375000 0.158830
O O2 0.929233 0.472400 0.219031
O O3 0.882339 0.474735 0.043681
O O4 0.956187 0.394512 0.054284
O O5 0.875000 0.712509 0.375000
O O6 0.823532 0.675153 0.202978
O O7 0.798054 0.784393 0.294077
O O8 0.384060 0.081903 0.201153
O O9 0.125000 0.477310 0.625000
O O10 0.215311 0.428543 0.555489
O O11 0.995826 0.625000 0.125000
#
# Coordination Sequence:
#
# PCOD9514574 Si02
#       5
#    32  32  16  32  32
#     4   9  21  39  63  97 131 168 217 267 337 403
#     4  10  19  36  64  95 132 167 206 281 340 390
#     4  10  22  38  56  90 132 172 214 260 338 400
#     4  11  24  41  60  91 137 178 216 271 330 404
#     4  11  21  39  70 104 128 162 228 288 338 390
#
# _framework density 20.264361000000001
#
# number of rings (size 3 to 8) (size 9 to 14) (size 15 to 20)
#    0.000    1.778    3.333    0.667    0.000    4.889 
#    0.000   12.222    0.000    0.000    0.000    0.000 
#    0.000    0.000    0.000    0.000    0.000    0.000 
#
# Total GULP energy -200885.000106 kJ/mol
# GULP energy per Si atom -5580.138892 kJ/mol
# Density = 2.021824 g / cm^3
# Si number density = 20.264361 Si / 1000 Ang^3
#
#
#
# Elastic Constant Matrix: (Units=GPa)
#
#
# Indices 1 2 3 4 5 6 
#
# 1 74.0388 14.7267 28.8043 0.0000 0.0000 0.0000
# 2 14.7267 98.9674 40.3080 0.0000 0.0000 0.0000
# 3 28.8043 40.3080 65.8750 0.0000 0.0000 0.0000
# 4 0.0000 0.0000 0.0000 32.5775 0.0000 0.0000
# 5 0.0000 0.0000 0.0000 0.0000 16.9420 0.0000
# 6 0.0000 0.0000 0.0000 0.0000 0.0000 -6.0963
#
#
#
# Elastic Compliance Matrix: (Units=1/GPa)
#
#
# Indices 1 2 3 4 5 6 
#
# 1 0.016305 0.000636 -0.007519 0.000000 0.000000 0.000000
# 2 0.000636 0.013483 -0.008528 0.000000 0.000000 0.000000
# 3 -0.007519 -0.008528 0.023686 0.000000 0.000000 0.000000
# 4 0.000000 0.000000 0.000000 0.030696 0.000000 0.000000
# 5 0.000000 0.000000 0.000000 0.000000 0.059025 0.000000
# 6 0.000000 0.000000 0.000000 0.000000 0.000000 -0.164033
#
#
# Mechanical properties :
#
#
# Convention : Reuss Voigt Hill
#
# Bulk Modulus (GPa) = 44.14517 45.17324 44.65920
# Shear Modulus (GPa) = 285.14939 19.02078 152.08509
#
# Velocity S-wave (km/s) = 11.87519 3.06703 8.67257
# Velocity P-wave (km/s) = 14.48651 5.90615 11.06213
#
# Compressibility (1/GPa) = 0.02265254
#
# Stress axis : x y z
#
# Youngs Moduli (GPa) = 61.33091 74.16682 42.21878
#
# Poissons Ratio (x) = -0.04717 0.31743
# Poissons Ratio (y) = -0.03901 0.36005
# Poissons Ratio (z) = 0.46112 0.63251
#
# Static dielectric constant tensor:
#      x y z
#    x 1.693670 0.000000 0.000000 
#    y 0.000000 1.753870 0.000000 
#    z 0.000000 0.000000 1.717230 
# 
# From -- ./inp_files/20633.got.cif
#   From: 2010.05.17/outbox.cif.g08.bks.cpg/sg70_11_cif.got.tgz:20633.got - 2010.06.03 15:57:51.
