data_PCOD9514760
_publ_section_title
;
Structure prediction by ZEFSAII (Michael W. Deem and Ramdas Pophale) SiO2 
 PCOD9514760
Probable space group: F D D D
;
_chemical_formula_sum "Si O2"
_cell_formula_units_Z 192
_cell_length_a 23.655526
_cell_length_b 17.165245
_cell_length_c 23.655546
_cell_angle_alpha 90.000000
_cell_angle_beta 90.000000
_cell_angle_gamma 90.000000
_cell_volume 9605.403040
_symmetry_space_group_name_H-M "F D D D"
_symmetry_group_IT_number 70
_space_group.IT_coordinate_system_code '2'
_symmetry_cell_setting 'orthorhombic'
loop_
_space_group_symop_operation_xyz
x,y,z
1/4-x,1/4-y,z
x,1/4-y,1/4-z
1/4-x,y,1/4-z
-x,-y,-z
3/4+x,3/4+y,-z
-x,3/4+y,3/4+z
3/4+x,-y,3/4+z
x,1/2+y,1/2+z
1/4-x,3/4-y,1/2+z
x,3/4-y,3/4-z
1/4-x,1/2+y,3/4-z
-x,1/2-y,1/2-z
3/4+x,1/4+y,1/2-z
-x,1/4+y,1/4+z
3/4+x,1/2-y,1/4+z
1/2+x,y,1/2+z
3/4-x,1/4-y,1/2+z
1/2+x,1/4-y,3/4-z
3/4-x,y,3/4-z
1/2-x,-y,1/2-z
1/4+x,3/4+y,1/2-z
1/2-x,3/4+y,1/4+z
1/4+x,-y,1/4+z
1/2+x,1/2+y,z
3/4-x,3/4-y,z
1/2+x,3/4-y,1/4-z
3/4-x,1/2+y,1/4-z
1/2-x,1/2-y,-z
1/4+x,1/4+y,-z
1/2-x,1/4+y,3/4+z
1/4+x,1/2-y,3/4+z
loop_
_atom_site_type_symbol
_atom_site_label
_atom_site_fract_x
_atom_site_fract_y
_atom_site_fract_z
Si Si1 0.935424 0.333255 0.599970
Si Si2 0.327372 0.460739 0.922628
Si Si3 0.938385 0.690979 0.027885
Si Si4 0.991556 0.408589 0.491556
Si Si5 0.349970 0.166745 0.185424
Si Si6 0.972115 0.809021 0.561615
O O1 0.875000 0.375000 0.594600
O O2 0.934300 0.242631 0.584246
O O3 0.972635 0.371622 0.550467
O O4 0.962035 0.359168 0.658964
O O5 0.375000 0.462608 0.875000
O O6 0.304022 0.372738 0.804022
O O7 0.270498 0.508536 0.905104
O O8 0.344896 0.508536 0.979502
O O9 0.908964 0.609168 0.037965
O O10 0.000479 0.685937 0.000479
O O11 0.000000 0.500000 0.500000
O O12 0.050467 0.371622 0.472635
O O13 0.344601 0.125000 0.125000
O O14 0.334246 0.257369 0.184299
#
# Coordination Sequence:
#
# PCOD9514760 Si02
#       6
#    32  32  32  32  32  32
#     4  11  20  37  54  79 115 156 195 237 294 357
#     4   8  18  34  52  80 105 143 186 227 276 336
#     4   9  21  36  57  85 112 157 193 239 294 354
#     4  10  20  34  46  68 110 149 186 231 274 341
#     4  11  20  37  54  79 115 156 195 237 294 357
#     4   9  21  36  57  85 112 157 193 239 294 354
#
# _framework density 19.98875
#
# number of rings (size 3 to 8) (size 9 to 14) (size 15 to 20)
#    1.000    1.333    1.667    3.000    2.333    0.000 
#   12.000    1.667    0.000    4.000    0.000    0.000 
#    0.000    0.000    0.000    0.000    0.000    0.000 
#
# Total GULP energy -267646.851281 kJ/mol
# GULP energy per Si atom -5575.976068 kJ/mol
# Density = 1.994325 g / cm^3
# Si number density = 19.988750 Si / 1000 Ang^3
#
#
#
# Elastic Constant Matrix: (Units=GPa)
#
#
# Indices 1 2 3 4 5 6 
#
# 1 50.3483 30.6761 31.9968 0.0000 0.0000 0.0000
# 2 30.6761 68.3748 30.6762 0.0000 0.0000 0.0000
# 3 31.9968 30.6762 50.3484 0.0000 0.0000 0.0000
# 4 0.0000 0.0000 0.0000 17.0892 0.0000 0.0000
# 5 0.0000 0.0000 0.0000 0.0000 14.3041 0.0000
# 6 0.0000 0.0000 0.0000 0.0000 0.0000 17.0895
#
#
#
# Elastic Compliance Matrix: (Units=1/GPa)
#
#
# Indices 1 2 3 4 5 6 
#
# 1 0.036367 -0.008184 -0.018125 0.000000 0.000000 0.000000
# 2 -0.008184 0.021969 -0.008184 0.000000 0.000000 0.000000
# 3 -0.018125 -0.008184 0.036366 0.000000 0.000000 0.000000
# 4 0.000000 0.000000 0.000000 0.058516 0.000000 0.000000
# 5 0.000000 0.000000 0.000000 0.000000 0.069910 0.000000
# 6 0.000000 0.000000 0.000000 0.000000 0.000000 0.058516
#
#
# Mechanical properties :
#
#
# Convention : Reuss Voigt Hill
#
# Bulk Modulus (GPa) = 38.88656 39.52997 39.20827
# Shear Modulus (GPa) = 13.91977 14.74473 14.33225
#
# Velocity S-wave (km/s) = 2.64176 2.71892 2.68062
# Velocity P-wave (km/s) = 5.36672 5.44755 5.40728
#
# Compressibility (1/GPa) = 0.02571582
#
# Stress axis : x y z
#
# Youngs Moduli (GPa) = 27.49781 45.51918 27.49787
#
# Poissons Ratio (x) = 0.37253 0.49840
# Poissons Ratio (y) = 0.22504 0.22504
# Poissons Ratio (z) = 0.49839 0.37253
#
# Static dielectric constant tensor:
#      x y z
#    x 1.738750 0.000000 0.000000 
#    y 0.000000 1.727070 0.000000 
#    z 0.000000 0.000000 1.738740 
# 
# From -- ./inp_files/47171.got.cif
#   From: 2010.05.17/outbox.cif.g08.bks.cpg/sg70_24_cif.got.tgz:47171.got - 2010.06.03 15:57:51.
