data_PCOD9514661
_publ_section_title
;
Structure prediction by ZEFSAII (Michael W. Deem and Ramdas Pophale) SiO2 
 PCOD9514661
Probable space group: F D D D
;
_chemical_formula_sum "Si O2"
_cell_formula_units_Z 208
_cell_length_a 30.109486
_cell_length_b 19.401772
_cell_length_c 18.932370
_cell_angle_alpha 90.000000
_cell_angle_beta 90.000000
_cell_angle_gamma 90.000000
_cell_volume 11059.862349
_symmetry_space_group_name_H-M "F D D D"
_symmetry_group_IT_number 70
_space_group.IT_coordinate_system_code '2'
_symmetry_cell_setting 'orthorhombic'
loop_
_space_group_symop_operation_xyz
x,y,z
1/4-x,1/4-y,z
x,1/4-y,1/4-z
1/4-x,y,1/4-z
-x,-y,-z
3/4+x,3/4+y,-z
-x,3/4+y,3/4+z
3/4+x,-y,3/4+z
x,1/2+y,1/2+z
1/4-x,3/4-y,1/2+z
x,3/4-y,3/4-z
1/4-x,1/2+y,3/4-z
-x,1/2-y,1/2-z
3/4+x,1/4+y,1/2-z
-x,1/4+y,1/4+z
3/4+x,1/2-y,1/4+z
1/2+x,y,1/2+z
3/4-x,1/4-y,1/2+z
1/2+x,1/4-y,3/4-z
3/4-x,y,3/4-z
1/2-x,-y,1/2-z
1/4+x,3/4+y,1/2-z
1/2-x,3/4+y,1/4+z
1/4+x,-y,1/4+z
1/2+x,1/2+y,z
3/4-x,3/4-y,z
1/2+x,3/4-y,1/4-z
3/4-x,1/2+y,1/4-z
1/2-x,1/2-y,-z
1/4+x,1/4+y,-z
1/2-x,1/4+y,3/4+z
1/4+x,1/2-y,3/4+z
loop_
_atom_site_type_symbol
_atom_site_label
_atom_site_fract_x
_atom_site_fract_y
_atom_site_fract_z
Si Si1 0.874947 0.136568 0.242146
Si Si2 0.465061 0.583375 0.932237
Si Si3 0.785974 0.669298 0.446420
Si Si4 0.044941 0.669544 0.196752
Si Si5 0.875000 0.875000 0.549924
Si Si6 0.100531 0.981471 0.870424
Si Si7 0.000123 0.556538 0.585367
O O1 0.916187 0.144225 0.294657
O O2 0.829488 0.122982 0.281834
O O3 0.874875 0.202721 0.190272
O O4 0.885403 0.070710 0.192142
O O5 0.483359 0.635750 0.874520
O O6 0.466363 0.505796 0.903533
O O7 0.493943 0.576998 0.003461
O O8 0.799065 0.748619 0.432740
O O9 0.750976 0.663291 0.509922
O O10 0.045020 0.625000 0.125000
O O11 0.084189 0.645190 0.248647
O O12 0.888129 0.808590 0.596921
O O13 0.048313 0.968923 0.886740
O O14 0.013114 0.625000 0.625000
#
# Coordination Sequence:
#
# PCOD9514661 Si02
#       7
#    32  32  32  32  16  32  32
#     4  10  20  39  64  87 121 172 212 250 317 388
#     4  10  21  35  63  95 116 162 215 257 314 380
#     4  11  24  42  60  88 129 166 212 265 322 388
#     4  11  27  40  60  91 127 168 213 270 324 379
#     4  12  23  40  64  98 127 160 216 270 313 380
#     4  10  20  37  65  90 122 170 205 255 319 378
#     4  10  19  39  63  93 128 159 210 266 317 384
#
# _framework density 18.806743000000001
#
# number of rings (size 3 to 8) (size 9 to 14) (size 15 to 20)
#    0.000    1.538    4.615    1.615    4.308    2.462 
#    0.000    4.615    0.000    0.923    0.000    0.000 
#    0.000    0.000    0.000    0.000    0.000    0.000 
#
# Total GULP energy -290357.688595 kJ/mol
# GULP energy per Si atom -5583.801704 kJ/mol
# Density = 1.876394 g / cm^3
# Si number density = 18.806743 Si / 1000 Ang^3
#
#
#
# Elastic Constant Matrix: (Units=GPa)
#
#
# Indices 1 2 3 4 5 6 
#
# 1 15.4968 2.0639 -4.3267 0.0000 0.0000 0.0000
# 2 2.0639 132.2481 53.4060 0.0000 0.0000 0.0000
# 3 -4.3267 53.4060 79.9709 0.0000 0.0000 0.0000
# 4 0.0000 0.0000 0.0000 28.5487 0.0000 0.0000
# 5 0.0000 0.0000 0.0000 0.0000 -6.5280 0.0000
# 6 0.0000 0.0000 0.0000 0.0000 0.0000 26.3762
#
#
#
# Elastic Compliance Matrix: (Units=1/GPa)
#
#
# Indices 1 2 3 4 5 6 
#
# 1 0.066628 -0.003417 0.005887 0.000000 0.000000 0.000000
# 2 -0.003417 0.010529 -0.007216 0.000000 0.000000 0.000000
# 3 0.005887 -0.007216 0.017642 0.000000 0.000000 0.000000
# 4 0.000000 0.000000 0.000000 0.035028 0.000000 0.000000
# 5 0.000000 0.000000 0.000000 0.000000 -0.153186 0.000000
# 6 0.000000 0.000000 0.000000 0.000000 0.000000 0.037913
#
#
# Mechanical properties :
#
#
# Convention : Reuss Voigt Hill
#
# Bulk Modulus (GPa) = 11.72246 36.66690 24.19468
# Shear Modulus (GPa) = 95.26951 21.45091 58.36021
#
# Velocity S-wave (km/s) = 7.12510 3.38094 5.57664
# Velocity P-wave (km/s) = 8.59861 5.89745 7.37279
#
# Compressibility (1/GPa) = 0.08530631
#
# Stress axis : x y z
#
# Youngs Moduli (GPa) = 15.00865 94.97508 56.68198
#
# Poissons Ratio (x) = 0.32454 -0.33368
# Poissons Ratio (y) = 0.05129 0.40904
# Poissons Ratio (z) = -0.08835 0.68538
#
# Static dielectric constant tensor:
#      x y z
#    x 1.641500 0.000000 0.000000 
#    y 0.000000 1.661040 0.000000 
#    z 0.000000 0.000000 1.657210 
# 
# From -- ./inp_files/47717.got.cif
#   From: 2010.05.17/outbox.cif.g08.bks.cpg/sg70_24_cif.got.tgz:47717.got - 2010.06.03 15:57:51.
