data_PCOD9514457
_publ_section_title
;
Structure prediction by ZEFSAII (Michael W. Deem and Ramdas Pophale) SiO2 
 PCOD9514457
Probable space group: F D D D
;
_chemical_formula_sum "Si O2"
_cell_formula_units_Z 160
_cell_length_a 28.509524
_cell_length_b 19.409350
_cell_length_c 14.525665
_cell_angle_alpha 90.000000
_cell_angle_beta 90.000000
_cell_angle_gamma 90.000000
_cell_volume 8037.796042
_symmetry_space_group_name_H-M "F D D D"
_symmetry_group_IT_number 70
_space_group.IT_coordinate_system_code '2'
_symmetry_cell_setting 'orthorhombic'
loop_
_space_group_symop_operation_xyz
x,y,z
1/4-x,1/4-y,z
x,1/4-y,1/4-z
1/4-x,y,1/4-z
-x,-y,-z
3/4+x,3/4+y,-z
-x,3/4+y,3/4+z
3/4+x,-y,3/4+z
x,1/2+y,1/2+z
1/4-x,3/4-y,1/2+z
x,3/4-y,3/4-z
1/4-x,1/2+y,3/4-z
-x,1/2-y,1/2-z
3/4+x,1/4+y,1/2-z
-x,1/4+y,1/4+z
3/4+x,1/2-y,1/4+z
1/2+x,y,1/2+z
3/4-x,1/4-y,1/2+z
1/2+x,1/4-y,3/4-z
3/4-x,y,3/4-z
1/2-x,-y,1/2-z
1/4+x,3/4+y,1/2-z
1/2-x,3/4+y,1/4+z
1/4+x,-y,1/4+z
1/2+x,1/2+y,z
3/4-x,3/4-y,z
1/2+x,3/4-y,1/4-z
3/4-x,1/2+y,1/4-z
1/2-x,1/2-y,-z
1/4+x,1/4+y,-z
1/2-x,1/4+y,3/4+z
1/4+x,1/2-y,3/4+z
loop_
_atom_site_type_symbol
_atom_site_label
_atom_site_fract_x
_atom_site_fract_y
_atom_site_fract_z
Si Si1 0.675104 0.872730 0.673414
Si Si2 0.244602 0.736778 0.857431
Si Si3 0.790212 0.375000 0.875000
Si Si4 0.428006 0.376181 0.174577
Si Si5 0.706438 0.875000 0.875000
Si Si6 0.006003 0.485884 0.640965
O O1 0.625000 0.867812 0.625000
O O2 0.710460 0.813795 0.636360
O O3 0.675684 0.862396 0.783860
O O4 0.699853 0.945918 0.650918
O O5 0.257795 0.810037 0.899239
O O6 0.201689 0.696739 0.901974
O O7 0.235378 0.751494 0.749587
O O8 0.819810 0.359187 0.784109
O O9 0.375000 0.375000 0.141820
O O10 0.461508 0.434435 0.131190
O O11 0.739929 0.809796 0.896057
#
# Coordination Sequence:
#
# PCOD9514457 Si02
#       6
#    32  32  16  32  16  32
#     4  10  21  38  59  85 115 149 192 236 281 344
#     4   9  20  37  54  78 112 146 183 234 287 337
#     4  10  19  34  53  75 108 149 188 230 282 340
#     4  10  20  34  53  78 110 147 188 233 283 342
#     4  10  20  38  62  83 114 155 185 234 299 336
#     4   9  20  38  57  81 112 146 190 236 284 342
#
# _framework density 19.905954999999999
#
# number of rings (size 3 to 8) (size 9 to 14) (size 15 to 20)
#    0.000    2.400    0.000    1.500    0.000    6.400 
#    0.000   10.500    0.000    0.000    0.000    0.000 
#    0.000    0.000    0.000    0.000    0.000    0.000 
#
# Total GULP energy -223287.285469 kJ/mol
# GULP energy per Si atom -5582.182137 kJ/mol
# Density = 1.986065 g / cm^3
# Si number density = 19.905955 Si / 1000 Ang^3
#
#
#
# Elastic Constant Matrix: (Units=GPa)
#
#
# Indices 1 2 3 4 5 6 
#
# 1 133.7268 40.8869 36.8942 0.0000 0.0000 0.0000
# 2 40.8869 116.5179 3.2144 0.0000 0.0000 0.0000
# 3 36.8942 3.2144 53.2198 0.0000 0.0000 0.0000
# 4 0.0000 0.0000 0.0000 28.1411 0.0000 0.0000
# 5 0.0000 0.0000 0.0000 0.0000 12.2933 0.0000
# 6 0.0000 0.0000 0.0000 0.0000 0.0000 5.3033
#
#
#
# Elastic Compliance Matrix: (Units=1/GPa)
#
#
# Indices 1 2 3 4 5 6 
#
# 1 0.010493 -0.003487 -0.007064 0.000000 0.000000 0.000000
# 2 -0.003487 0.009756 0.001828 0.000000 0.000000 0.000000
# 3 -0.007064 0.001828 0.023576 0.000000 0.000000 0.000000
# 4 0.000000 0.000000 0.000000 0.035535 0.000000 0.000000
# 5 0.000000 0.000000 0.000000 0.000000 0.081345 0.000000
# 6 0.000000 0.000000 0.000000 0.000000 0.000000 0.188563
#
#
# Mechanical properties :
#
#
# Convention : Reuss Voigt Hill
#
# Bulk Modulus (GPa) = 37.90761 51.71727 44.81244
# Shear Modulus (GPa) = 13.31536 23.97879 18.64707
#
# Velocity S-wave (km/s) = 2.58914 3.47451 3.06397
# Velocity P-wave (km/s) = 5.29367 6.49103 5.92268
#
# Compressibility (1/GPa) = 0.02637993
#
# Stress axis : x y z
#
# Youngs Moduli (GPa) = 95.30250 102.50512 42.41546
#
# Poissons Ratio (x) = 0.35745 0.29960
# Poissons Ratio (y) = 0.33234 -0.07755
# Poissons Ratio (z) = 0.67317 -0.18740
#
# Static dielectric constant tensor:
#      x y z
#    x 1.655940 0.000000 0.000000 
#    y 0.000000 1.721250 0.000000 
#    z 0.000000 0.000000 1.760480 
# 
# From -- ./inp_files/30917.got.cif
#   From: 2010.05.17/outbox.cif.g08.bks.cpg/sg70_16_cif.got.tgz:30917.got - 2010.06.03 15:57:51.
