data_PCOD9514987
_publ_section_title
;
Structure prediction by ZEFSAII (Michael W. Deem and Ramdas Pophale) SiO2 
 PCOD9514987
Probable space group: F D D D
;
_chemical_formula_sum "Si O2"
_cell_formula_units_Z 176
_cell_length_a 25.054134
_cell_length_b 13.458071
_cell_length_c 26.485997
_cell_angle_alpha 90.000000
_cell_angle_beta 90.000000
_cell_angle_gamma 90.000000
_cell_volume 8930.556791
_symmetry_space_group_name_H-M "F D D D"
_symmetry_group_IT_number 70
_space_group.IT_coordinate_system_code '2'
_symmetry_cell_setting 'orthorhombic'
loop_
_space_group_symop_operation_xyz
x,y,z
1/4-x,1/4-y,z
x,1/4-y,1/4-z
1/4-x,y,1/4-z
-x,-y,-z
3/4+x,3/4+y,-z
-x,3/4+y,3/4+z
3/4+x,-y,3/4+z
x,1/2+y,1/2+z
1/4-x,3/4-y,1/2+z
x,3/4-y,3/4-z
1/4-x,1/2+y,3/4-z
-x,1/2-y,1/2-z
3/4+x,1/4+y,1/2-z
-x,1/4+y,1/4+z
3/4+x,1/2-y,1/4+z
1/2+x,y,1/2+z
3/4-x,1/4-y,1/2+z
1/2+x,1/4-y,3/4-z
3/4-x,y,3/4-z
1/2-x,-y,1/2-z
1/4+x,3/4+y,1/2-z
1/2-x,3/4+y,1/4+z
1/4+x,-y,1/4+z
1/2+x,1/2+y,z
3/4-x,3/4-y,z
1/2+x,3/4-y,1/4-z
3/4-x,1/2+y,1/4-z
1/2-x,1/2-y,-z
1/4+x,1/4+y,-z
1/2-x,1/4+y,3/4+z
1/4+x,1/2-y,3/4+z
loop_
_atom_site_type_symbol
_atom_site_label
_atom_site_fract_x
_atom_site_fract_y
_atom_site_fract_z
Si Si1 0.125000 0.125000 0.357827
Si Si2 0.566924 0.436580 0.614848
Si Si3 0.954195 0.528980 0.095113
Si Si4 0.448697 0.373246 0.015234
Si Si5 0.932517 0.185317 0.285369
Si Si6 0.427638 0.640268 0.497999
O O1 0.159765 0.196700 0.393068
O O2 0.169790 0.089823 0.316881
O O3 0.625000 0.488982 0.625000
O O4 0.512256 0.499771 0.618004
O O5 0.569807 0.351397 0.657270
O O6 0.560843 0.389124 0.559553
O O7 0.934816 0.625000 0.125000
O O8 0.954810 0.565309 0.037260
O O9 0.510728 0.397338 0.016925
O O10 0.426645 0.446477 0.971958
O O11 0.441470 0.255306 0.009490
O O12 0.886617 0.135174 0.251560
#
# Coordination Sequence:
#
# PCOD9514987 Si02
#       6
#    16  32  32  32  32  32
#     4  12  22  40  64  95 127 164 222 266 332 394
#     4  10  23  40  61  93 128 168 219 267 325 403
#     4  12  23  42  66  90 129 175 219 274 333 391
#     4  11  20  38  64  90 128 167 212 270 334 386
#     4  10  20  38  62  91 127 170 214 268 328 395
#     4  11  22  39  62  93 128 168 215 269 330 393
#
# _framework density 19.707616999999999
#
# number of rings (size 3 to 8) (size 9 to 14) (size 15 to 20)
#    0.000    1.091    5.455    0.545    0.000    2.545 
#    0.000    6.364    0.000    0.000    0.000    0.000 
#    0.000    0.000    0.000    0.000    0.000    0.000 
#
# Total GULP energy -245010.996466 kJ/mol
# GULP energy per Si atom -5568.431738 kJ/mol
# Density = 1.966276 g / cm^3
# Si number density = 19.707617 Si / 1000 Ang^3
#
#
#
# Elastic Constant Matrix: (Units=GPa)
#
#
# Indices 1 2 3 4 5 6 
#
# 1 113.3394 49.9772 4.5622 0.0000 0.0000 0.0000
# 2 49.9772 92.9438 47.1404 0.0000 0.0000 0.0000
# 3 4.5622 47.1404 96.6591 0.0000 0.0000 0.0000
# 4 0.0000 0.0000 0.0000 -12.4701 0.0000 0.0000
# 5 0.0000 0.0000 0.0000 0.0000 12.9048 0.0000
# 6 0.0000 0.0000 0.0000 0.0000 0.0000 24.6984
#
#
#
# Elastic Compliance Matrix: (Units=1/GPa)
#
#
# Indices 1 2 3 4 5 6 
#
# 1 0.012418 -0.008477 0.003548 0.000000 0.000000 0.000000
# 2 -0.008477 0.020082 -0.009394 0.000000 0.000000 0.000000
# 3 0.003548 -0.009394 0.014759 0.000000 0.000000 0.000000
# 4 0.000000 0.000000 0.000000 -0.080192 0.000000 0.000000
# 5 0.000000 0.000000 0.000000 0.000000 0.077490 0.000000
# 6 0.000000 0.000000 0.000000 0.000000 0.000000 0.040488
#
#
# Mechanical properties :
#
#
# Convention : Reuss Voigt Hill
#
# Bulk Modulus (GPa) = 53.72252 56.25577 54.98914
# Shear Modulus (GPa) = 41.70259 18.44413 30.07336
#
# Velocity S-wave (km/s) = 4.60506 3.06255 3.91061
# Velocity P-wave (km/s) = 7.45616 6.41192 6.95367
#
# Compressibility (1/GPa) = 0.01861417
#
# Stress axis : x y z
#
# Youngs Moduli (GPa) = 80.52714 49.79631 67.75307
#
# Poissons Ratio (x) = 0.42212 -0.24039
# Poissons Ratio (y) = 0.68263 0.63646
# Poissons Ratio (z) = -0.28572 0.46777
#
# Static dielectric constant tensor:
#      x y z
#    x 1.760510 0.000000 0.000000 
#    y 0.000000 1.700430 0.000000 
#    z 0.000000 0.000000 1.731760 
# 
# From -- ./inp_files/61653.got.cif
#   From: 2010.05.17/outbox.cif.g08.bks.cpg/sg70_31_cif.got.tgz:61653.got - 2010.06.03 15:57:51.
