data_PCOD9514428
_publ_section_title
;
Structure prediction by ZEFSAII (Michael W. Deem and Ramdas Pophale) SiO2 
 PCOD9514428
Probable space group: F D D D
;
_chemical_formula_sum "Si O2"
_cell_formula_units_Z 160
_cell_length_a 19.482482
_cell_length_b 25.251387
_cell_length_c 17.337491
_cell_angle_alpha 90.000000
_cell_angle_beta 90.000000
_cell_angle_gamma 90.000000
_cell_volume 8529.346745
_symmetry_space_group_name_H-M "F D D D"
_symmetry_group_IT_number 70
_space_group.IT_coordinate_system_code '2'
_symmetry_cell_setting 'orthorhombic'
loop_
_space_group_symop_operation_xyz
x,y,z
1/4-x,1/4-y,z
x,1/4-y,1/4-z
1/4-x,y,1/4-z
-x,-y,-z
3/4+x,3/4+y,-z
-x,3/4+y,3/4+z
3/4+x,-y,3/4+z
x,1/2+y,1/2+z
1/4-x,3/4-y,1/2+z
x,3/4-y,3/4-z
1/4-x,1/2+y,3/4-z
-x,1/2-y,1/2-z
3/4+x,1/4+y,1/2-z
-x,1/4+y,1/4+z
3/4+x,1/2-y,1/4+z
1/2+x,y,1/2+z
3/4-x,1/4-y,1/2+z
1/2+x,1/4-y,3/4-z
3/4-x,y,3/4-z
1/2-x,-y,1/2-z
1/4+x,3/4+y,1/2-z
1/2-x,3/4+y,1/4+z
1/4+x,-y,1/4+z
1/2+x,1/2+y,z
3/4-x,3/4-y,z
1/2+x,3/4-y,1/4-z
3/4-x,1/2+y,1/4-z
1/2-x,1/2-y,-z
1/4+x,1/4+y,-z
1/2-x,1/4+y,3/4+z
1/4+x,1/2-y,3/4+z
loop_
_atom_site_type_symbol
_atom_site_label
_atom_site_fract_x
_atom_site_fract_y
_atom_site_fract_z
Si Si1 0.567730 0.976088 0.321818
Si Si2 0.838702 0.930569 0.115978
Si Si3 0.048856 0.301431 0.260175
Si Si4 0.588759 0.518449 0.200445
Si Si5 0.443100 0.594943 0.326435
O O1 0.563141 0.940702 0.399463
O O2 0.489556 0.996415 0.314562
O O3 0.578836 0.943829 0.243587
O O4 0.622040 0.022395 0.339123
O O5 0.875000 0.875000 0.133759
O O6 0.756319 0.928181 0.126423
O O7 0.845720 0.944192 0.024702
O O8 0.119563 0.283912 0.221172
O O9 0.025242 0.353120 0.215434
O O10 0.000000 0.250000 0.250000
O O11 0.625000 0.542445 0.125000
O O12 0.375000 0.605976 0.375000
#
# Coordination Sequence:
#
# PCOD9514428 Si02
#       5
#    32  32  32  32  32
#     4  10  22  39  56  85 124 156 195 251 295 364
#     4  10  23  37  56  88 116 156 204 249 304 356
#     4  11  20  34  61  90 122 153 192 246 311 372
#     4  10  19  32  56  84 123 154 182 235 308 376
#     4  11  24  39  61  87 118 165 209 243 302 363
#
# _framework density 18.758763999999999
#
# number of rings (size 3 to 8) (size 9 to 14) (size 15 to 20)
#    0.000    1.600    2.000    3.600    2.800    1.200 
#    0.000    0.000    0.000    0.600    0.000    0.000 
#    0.000    0.000    0.000    0.000    0.000    0.000 
#
# Total GULP energy -223160.180258 kJ/mol
# GULP energy per Si atom -5579.004506 kJ/mol
# Density = 1.871607 g / cm^3
# Si number density = 18.758764 Si / 1000 Ang^3
#
#
#
# Elastic Constant Matrix: (Units=GPa)
#
#
# Indices 1 2 3 4 5 6 
#
# 1 119.4660 49.9306 42.3928 0.0000 0.0000 0.0000
# 2 49.9306 89.3740 29.8304 0.0000 0.0000 0.0000
# 3 42.3928 29.8304 62.9905 0.0000 0.0000 0.0000
# 4 0.0000 0.0000 0.0000 16.1785 0.0000 0.0000
# 5 0.0000 0.0000 0.0000 0.0000 31.9178 0.0000
# 6 0.0000 0.0000 0.0000 0.0000 0.0000 24.7668
#
#
#
# Elastic Compliance Matrix: (Units=1/GPa)
#
#
# Indices 1 2 3 4 5 6 
#
# 1 0.012644 -0.005016 -0.006134 0.000000 0.000000 0.000000
# 2 -0.005016 0.015280 -0.003860 0.000000 0.000000 0.000000
# 3 -0.006134 -0.003860 0.021831 0.000000 0.000000 0.000000
# 4 0.000000 0.000000 0.000000 0.061810 0.000000 0.000000
# 5 0.000000 0.000000 0.000000 0.000000 0.031330 0.000000
# 6 0.000000 0.000000 0.000000 0.000000 0.000000 0.040377
#
#
# Mechanical properties :
#
#
# Convention : Reuss Voigt Hill
#
# Bulk Modulus (GPa) = 50.67199 57.34867 54.01033
# Shear Modulus (GPa) = 22.74066 24.55109 23.64587
#
# Velocity S-wave (km/s) = 3.48554 3.62163 3.55424
# Velocity P-wave (km/s) = 6.57797 6.93731 6.76003
#
# Compressibility (1/GPa) = 0.01973477
#
# Stress axis : x y z
#
# Youngs Moduli (GPa) = 79.09059 65.44576 45.80578
#
# Poissons Ratio (x) = 0.32831 0.28096
# Poissons Ratio (y) = 0.39675 0.17681
# Poissons Ratio (z) = 0.48511 0.25262
#
# Static dielectric constant tensor:
#      x y z
#    x 1.692040 0.000000 0.000000 
#    y 0.000000 1.666970 0.000000 
#    z 0.000000 0.000000 1.667800 
# 
# From -- ./inp_files/35082.got.cif
#   From: 2010.05.17/outbox.cif.g08.bks.cpg/sg70_18_cif.got.tgz:35082.got - 2010.06.03 15:57:51.
