data_PCOD9514947
_publ_section_title
;
Structure prediction by ZEFSAII (Michael W. Deem and Ramdas Pophale) SiO2 
 PCOD9514947
Probable space group: F D D D
;
_chemical_formula_sum "Si O2"
_cell_formula_units_Z 136
_cell_length_a 15.195220
_cell_length_b 13.443661
_cell_length_c 27.705138
_cell_angle_alpha 90.000000
_cell_angle_beta 90.000000
_cell_angle_gamma 90.000000
_cell_volume 5659.588594
_symmetry_space_group_name_H-M "F D D D"
_symmetry_group_IT_number 70
_space_group.IT_coordinate_system_code '2'
_symmetry_cell_setting 'orthorhombic'
loop_
_space_group_symop_operation_xyz
x,y,z
1/4-x,1/4-y,z
x,1/4-y,1/4-z
1/4-x,y,1/4-z
-x,-y,-z
3/4+x,3/4+y,-z
-x,3/4+y,3/4+z
3/4+x,-y,3/4+z
x,1/2+y,1/2+z
1/4-x,3/4-y,1/2+z
x,3/4-y,3/4-z
1/4-x,1/2+y,3/4-z
-x,1/2-y,1/2-z
3/4+x,1/4+y,1/2-z
-x,1/4+y,1/4+z
3/4+x,1/2-y,1/4+z
1/2+x,y,1/2+z
3/4-x,1/4-y,1/2+z
1/2+x,1/4-y,3/4-z
3/4-x,y,3/4-z
1/2-x,-y,1/2-z
1/4+x,3/4+y,1/2-z
1/2-x,3/4+y,1/4+z
1/4+x,-y,1/4+z
1/2+x,1/2+y,z
3/4-x,3/4-y,z
1/2+x,3/4-y,1/4-z
3/4-x,1/2+y,1/4-z
1/2-x,1/2-y,-z
1/4+x,1/4+y,-z
1/2-x,1/4+y,3/4+z
1/4+x,1/2-y,3/4+z
loop_
_atom_site_type_symbol
_atom_site_label
_atom_site_fract_x
_atom_site_fract_y
_atom_site_fract_z
Si Si1 0.234301 0.965390 0.805716
Si Si2 0.425070 0.748250 0.120735
Si Si3 0.060826 0.204824 0.053434
Si Si4 0.654115 0.808404 0.968245
Si Si5 0.625000 0.125000 0.125000
O O1 0.161310 0.021890 0.839138
O O2 0.186109 0.859566 0.799124
O O3 0.317782 0.944285 0.839102
O O4 0.250000 0.000000 0.750000
O O5 0.430516 0.625000 0.125000
O O6 0.511242 0.775394 0.090817
O O7 0.427043 0.772312 0.177015
O O8 0.125000 0.125000 0.076536
O O9 0.980063 0.142939 0.028226
O O10 0.125572 0.260865 0.017771
#
# Coordination Sequence:
#
# PCOD9514947 Si02
#       5
#    32  32  32  32   8
#     4  10  21  34  58  90 116 169 216 258 324 407
#     4   8  18  37  54  81 119 154 204 255 313 393
#     4  10  20  37  63  86 117 167 209 259 329 393
#     4  10  21  39  58  91 124 159 215 273 319 392
#     4  12  20  36  68  84 130 180 214 264 352 398
#
# _framework density 24.030014999999999
#
# number of rings (size 3 to 8) (size 9 to 14) (size 15 to 20)
#    0.000    2.824    3.529    0.706    6.588    4.235 
#    0.000    2.353    0.000   11.294    0.000    0.000 
#    0.000    0.000    0.000    0.000    0.000    0.000 
#
# Total GULP energy -189483.170887 kJ/mol
# GULP energy per Si atom -5573.034438 kJ/mol
# Density = 2.397532 g / cm^3
# Si number density = 24.030015 Si / 1000 Ang^3
#
#
#
# Elastic Constant Matrix: (Units=GPa)
#
#
# Indices 1 2 3 4 5 6 
#
# 1 110.9797 17.9580 33.8799 0.0000 0.0000 0.0000
# 2 17.9580 33.4166 17.9156 0.0000 0.0000 0.0000
# 3 33.8799 17.9156 119.2435 0.0000 0.0000 0.0000
# 4 0.0000 0.0000 0.0000 10.8845 0.0000 0.0000
# 5 0.0000 0.0000 0.0000 0.0000 17.0552 0.0000
# 6 0.0000 0.0000 0.0000 0.0000 0.0000 20.6899
#
#
#
# Elastic Compliance Matrix: (Units=1/GPa)
#
#
# Indices 1 2 3 4 5 6 
#
# 1 0.010421 -0.004364 -0.002305 0.000000 0.000000 0.000000
# 2 -0.004364 0.034375 -0.003925 0.000000 0.000000 0.000000
# 3 -0.002305 -0.003925 0.009631 0.000000 0.000000 0.000000
# 4 0.000000 0.000000 0.000000 0.091874 0.000000 0.000000
# 5 0.000000 0.000000 0.000000 0.000000 0.058633 0.000000
# 6 0.000000 0.000000 0.000000 0.000000 0.000000 0.048333
#
#
# Mechanical properties :
#
#
# Convention : Reuss Voigt Hill
#
# Bulk Modulus (GPa) = 30.08576 44.79408 37.43992
# Shear Modulus (GPa) = 17.51112 22.65167 20.08140
#
# Velocity S-wave (km/s) = 2.70241 3.07358 2.89395
# Velocity P-wave (km/s) = 4.72066 5.59260 5.17503
#
# Compressibility (1/GPa) = 0.03323832
#
# Stress axis : x y z
#
# Youngs Moduli (GPa) = 95.96447 29.09118 103.83400
#
# Poissons Ratio (x) = 0.12696 0.23934
# Poissons Ratio (y) = 0.41881 0.40751
# Poissons Ratio (z) = 0.22120 0.11417
#
# Static dielectric constant tensor:
#      x y z
#    x 1.915060 0.000000 0.000000 
#    y 0.000000 1.896510 0.000000 
#    z 0.000000 0.000000 2.123080 
# 
# From -- ./inp_files/58363.got.cif
#   From: 2010.05.17/outbox.cif.g08.bks.cpg/sg70_30_cif.got.tgz:58363.got - 2010.06.03 15:57:51.
