data_PCOD9514001
_publ_section_title
;
Structure prediction by ZEFSAII (Michael W. Deem and Ramdas Pophale) SiO2 
 PCOD9514001
Probable space group: F M M M
;
_chemical_formula_sum "Si O2"
_cell_formula_units_Z 36
_cell_length_a 30.000000
_cell_length_b 30.000000
_cell_length_c 9.000000
_cell_angle_alpha 90.000000
_cell_angle_beta 90.000000
_cell_angle_gamma 90.000000
_cell_volume 8100.000000
_symmetry_space_group_name_H-M "F M M M"
_symmetry_group_IT_number 69
_symmetry_cell_setting 'orthorhombic'
loop_
_space_group_symop_operation_xyz
x,y,z
-x,-y,z
x,-y,-z
-x,y,-z
-x,-y,-z
x,y,-z
-x,y,z
x,-y,z
x,1/2+y,1/2+z
-x,1/2-y,1/2+z
x,1/2-y,1/2-z
-x,1/2+y,1/2-z
-x,1/2-y,1/2-z
x,1/2+y,1/2-z
-x,1/2+y,1/2+z
x,1/2-y,1/2+z
1/2+x,y,1/2+z
1/2-x,-y,1/2+z
1/2+x,-y,1/2-z
1/2-x,y,1/2-z
1/2-x,-y,1/2-z
1/2+x,y,1/2-z
1/2-x,y,1/2+z
1/2+x,-y,1/2+z
1/2+x,1/2+y,z
1/2-x,1/2-y,z
1/2+x,1/2-y,-z
1/2-x,1/2+y,-z
1/2-x,1/2-y,-z
1/2+x,1/2+y,-z
1/2-x,1/2+y,z
1/2+x,1/2-y,z
loop_
_atom_site_type_symbol
_atom_site_label
_atom_site_fract_x
_atom_site_fract_y
_atom_site_fract_z
Si Si1 0.446155 0.500000 0.331682
Si Si2 0.448029 0.407052 0.822526
Si Si3 0.201692 0.552424 0.677051
Si Si4 0.795551 0.202129 0.323742
Si Si5 0.136171 0.123379 0.676202
O O1 0.500000 0.500000 0.341633
O O2 0.428235 0.500000 0.500000
O O3 0.435036 0.544522 0.242720
O O4 0.500000 0.398505 0.784507
O O5 0.412396 0.374356 0.749674
O O6 0.444234 0.407481 0.000000
O O7 0.203889 0.560125 0.500000
O O8 0.191632 0.500000 0.701732
O O9 0.250000 0.561439 0.750000
O O10 0.164677 0.583676 0.750073
O O11 0.788750 0.207206 0.500000
O O12 0.804039 0.250000 0.250000
O O13 0.750000 0.184390 0.250000
O O14 0.835490 0.168024 0.298927
O O15 0.132134 0.115673 0.500000
#
# Coordination Sequence:
#
# PCOD9514001 Si02
#       5
#    16  32  32  32  32
#     4   9  17  31  51  73 100 137 180 227 275 319
#     4  10  21  36  54  77 107 144 186 232 279 326
#     4  10  21  36  53  75 107 146 185 224 267 319
#     4  10  21  37  59  86 113 142 177 221 274 329
#     4  11  23  36  55  82 110 144 184 226 275 330
#
# _framework density 4.4444439999999998
#
# number of rings (size 3 to 8) (size 9 to 14) (size 15 to 20)
#    0.000    1.889    0.000    4.333    1.556    9.333 
#    0.000    0.000    0.000    0.667    0.000    0.000 
#    0.000    0.000    0.000    0.000    0.000    0.000 
#
# Total GULP energy -201098.327037 kJ/mol
# GULP energy per Si atom -5586.064640 kJ/mol
# Density = 0.443433 g / cm^3
# Si number density = 4.444444 Si / 1000 Ang^3
#
#
#
# Elastic Constant Matrix: (Units=GPa)
#
#
# Indices 1 2 3 4 5 6 
#
# 1 128.9760 60.8644 76.6494 -0.0236 0.0086 0.0017
# 2 60.8644 57.5320 55.2088 0.0269 0.0081 0.0042
# 3 76.6494 55.2088 112.3115 -0.0166 0.0384 0.0127
# 4 -0.0236 0.0269 -0.0166 -45.9936 0.0148 0.0070
# 5 0.0086 0.0081 0.0384 0.0148 33.6060 -0.0047
# 6 0.0017 0.0042 0.0127 0.0070 -0.0047 16.6018
#
#
#
# Elastic Compliance Matrix: (Units=1/GPa)
#
#
# Indices 1 2 3 4 5 6 
#
# 1 0.016956 -0.012935 -0.005213 -0.000014 0.000005 0.000006
# 2 -0.012935 0.042770 -0.012197 0.000036 0.000007 0.000000
# 3 -0.005213 -0.012197 0.018457 -0.000011 -0.000017 -0.000010
# 4 -0.000014 0.000036 -0.000011 -0.021742 0.000010 0.000009
# 5 0.000005 0.000007 -0.000017 0.000010 0.029757 0.000008
# 6 0.000006 0.000000 -0.000010 0.000009 0.000008 0.060235
#
#
# Mechanical properties :
#
#
# Convention : Reuss Voigt Hill
#
# Bulk Modulus (GPa) = 57.16574 76.02940 66.59757
# Shear Modulus (GPa) = 23.47943 7.91598 15.69771
#
# Velocity S-wave (km/s) = 3.63811 2.11244 2.97475
# Velocity P-wave (km/s) = 7.06211 6.98636 7.02434
#
# Compressibility (1/GPa) = 0.01749299
#
# Stress axis : x y z
#
# Youngs Moduli (GPa) = 58.97714 23.38101 54.17935
#
# Poissons Ratio (x) = 0.30243 0.28246
# Poissons Ratio (y) = 0.76287 0.66080
# Poissons Ratio (z) = 0.30747 0.28517
#
# Static dielectric constant tensor:
#      x y z
#    x 1.617690 0.000000 0.000000 
#    y 0.000000 1.598330 0.000000 
#    z 0.000000 0.000000 1.593330 
# 
# From -- ./inp_files/5546.got.cif
#   From: 2010.05.17/outbox.ucp.g08.bks.cvg/sg69_3_cif.got.tgz:5546.got - 2010.06.11 16:51:34.
