data_PCOD9514564
_publ_section_title
;
Structure prediction by ZEFSAII (Michael W. Deem and Ramdas Pophale) SiO2 
 PCOD9514564
Probable space group: F D D D
;
_chemical_formula_sum "Si O2"
_cell_formula_units_Z 168
_cell_length_a 20.797754
_cell_length_b 15.297745
_cell_length_c 24.227411
_cell_angle_alpha 90.000000
_cell_angle_beta 90.000000
_cell_angle_gamma 90.000000
_cell_volume 7708.162491
_symmetry_space_group_name_H-M "F D D D"
_symmetry_group_IT_number 70
_space_group.IT_coordinate_system_code '2'
_symmetry_cell_setting 'orthorhombic'
loop_
_space_group_symop_operation_xyz
x,y,z
1/4-x,1/4-y,z
x,1/4-y,1/4-z
1/4-x,y,1/4-z
-x,-y,-z
3/4+x,3/4+y,-z
-x,3/4+y,3/4+z
3/4+x,-y,3/4+z
x,1/2+y,1/2+z
1/4-x,3/4-y,1/2+z
x,3/4-y,3/4-z
1/4-x,1/2+y,3/4-z
-x,1/2-y,1/2-z
3/4+x,1/4+y,1/2-z
-x,1/4+y,1/4+z
3/4+x,1/2-y,1/4+z
1/2+x,y,1/2+z
3/4-x,1/4-y,1/2+z
1/2+x,1/4-y,3/4-z
3/4-x,y,3/4-z
1/2-x,-y,1/2-z
1/4+x,3/4+y,1/2-z
1/2-x,3/4+y,1/4+z
1/4+x,-y,1/4+z
1/2+x,1/2+y,z
3/4-x,3/4-y,z
1/2+x,3/4-y,1/4-z
3/4-x,1/2+y,1/4-z
1/2-x,1/2-y,-z
1/4+x,1/4+y,-z
1/2-x,1/4+y,3/4+z
1/4+x,1/2-y,3/4+z
loop_
_atom_site_type_symbol
_atom_site_label
_atom_site_fract_x
_atom_site_fract_y
_atom_site_fract_z
Si Si1 0.196923 0.020887 0.446040
Si Si2 0.045867 0.025701 0.930729
Si Si3 0.875000 0.875000 0.375000
Si Si4 0.140710 0.865894 0.810938
Si Si5 0.471067 0.417188 0.467737
Si Si6 0.799377 0.373772 0.285836
O O1 0.189954 0.048914 0.382272
O O2 0.194762 0.102226 0.485975
O O3 0.142706 0.951137 0.464613
O O4 0.263216 0.965607 0.449247
O O5 0.106073 0.972411 0.957158
O O6 0.036277 0.106751 0.970967
O O7 0.987892 0.954979 0.934629
O O8 0.828840 0.821047 0.417199
O O9 0.121859 0.875000 0.875000
O O10 0.216087 0.868121 0.805930
O O11 0.500000 0.500000 0.500000
O O12 0.875000 0.375000 0.298102
#
# Coordination Sequence:
#
# PCOD9514564 Si02
#       6
#    32  32   8  32  32  32
#     4  10  22  39  62  93 124 169 222 261 334 419
#     4   9  20  37  61  93 123 163 213 262 330 424
#     4  12  28  48  68 104 132 168 248 288 330 428
#     4   9  18  40  63  82 121 162 200 262 325 387
#     4  12  25  44  66  92 130 176 218 284 341 390
#     4  10  19  36  61  94 130 163 211 276 341 401
#
# _framework density 21.795076000000002
#
# number of rings (size 3 to 8) (size 9 to 14) (size 15 to 20)
#    0.000    1.905    0.952    4.000    0.000    3.048 
#    8.571    3.810    0.000    0.000    0.000    0.000 
#    0.000    0.000    0.000    0.000    0.000    0.000 
#
# Total GULP energy -234595.245013 kJ/mol
# GULP energy per Si atom -5585.601072 kJ/mol
# Density = 2.174547 g / cm^3
# Si number density = 21.795076 Si / 1000 Ang^3
#
#
#
# Elastic Constant Matrix: (Units=GPa)
#
#
# Indices 1 2 3 4 5 6 
#
# 1 146.5370 19.4153 25.0934 0.0000 0.0000 0.0000
# 2 19.4153 77.9010 44.9131 0.0000 0.0000 0.0000
# 3 25.0934 44.9131 120.3807 0.0000 0.0000 0.0000
# 4 0.0000 0.0000 0.0000 19.8834 0.0000 0.0000
# 5 0.0000 0.0000 0.0000 0.0000 29.7564 0.0000
# 6 0.0000 0.0000 0.0000 0.0000 0.0000 16.0271
#
#
#
# Elastic Compliance Matrix: (Units=1/GPa)
#
#
# Indices 1 2 3 4 5 6 
#
# 1 0.007161 -0.001177 -0.001053 0.000000 0.000000 0.000000
# 2 -0.001177 0.016548 -0.005929 0.000000 0.000000 0.000000
# 3 -0.001053 -0.005929 0.010738 0.000000 0.000000 0.000000
# 4 0.000000 0.000000 0.000000 0.050293 0.000000 0.000000
# 5 0.000000 0.000000 0.000000 0.000000 0.033606 0.000000
# 6 0.000000 0.000000 0.000000 0.000000 0.000000 0.062394
#
#
# Mechanical properties :
#
#
# Convention : Reuss Voigt Hill
#
# Bulk Modulus (GPa) = 55.16109 58.18471 56.67290
# Shear Modulus (GPa) = 24.61812 30.15986 27.38899
#
# Velocity S-wave (km/s) = 3.36449 3.72397 3.54879
# Velocity P-wave (km/s) = 6.36058 6.72643 6.54606
#
# Compressibility (1/GPa) = 0.01812872
#
# Stress axis : x y z
#
# Youngs Moduli (GPa) = 139.65339 60.42911 93.12305
#
# Poissons Ratio (x) = 0.07114 0.09809
# Poissons Ratio (y) = 0.16442 0.55209
# Poissons Ratio (z) = 0.14711 0.35826
#
# Static dielectric constant tensor:
#      x y z
#    x 1.843490 0.000000 0.000000 
#    y 0.000000 1.814460 0.000000 
#    z 0.000000 0.000000 1.823860 
# 
# From -- ./inp_files/60299.got.cif
#   From: 2010.05.17/outbox.cif.g08.bks.cpg/sg70_31_cif.got.tgz:60299.got - 2010.06.03 15:57:51.
