data_PCOD9514142
_publ_section_title
;
Structure prediction by ZEFSAII (Michael W. Deem and Ramdas Pophale) SiO2 
 PCOD9514142
Probable space group: F D D D
;
_chemical_formula_sum "Si O2"
_cell_formula_units_Z 152
_cell_length_a 25.318408
_cell_length_b 27.920489
_cell_length_c 12.405149
_cell_angle_alpha 90.000000
_cell_angle_beta 90.000000
_cell_angle_gamma 90.000000
_cell_volume 8769.228758
_symmetry_space_group_name_H-M "F D D D"
_symmetry_group_IT_number 70
_space_group.IT_coordinate_system_code '2'
_symmetry_cell_setting 'orthorhombic'
loop_
_space_group_symop_operation_xyz
x,y,z
1/4-x,1/4-y,z
x,1/4-y,1/4-z
1/4-x,y,1/4-z
-x,-y,-z
3/4+x,3/4+y,-z
-x,3/4+y,3/4+z
3/4+x,-y,3/4+z
x,1/2+y,1/2+z
1/4-x,3/4-y,1/2+z
x,3/4-y,3/4-z
1/4-x,1/2+y,3/4-z
-x,1/2-y,1/2-z
3/4+x,1/4+y,1/2-z
-x,1/4+y,1/4+z
3/4+x,1/2-y,1/4+z
1/2+x,y,1/2+z
3/4-x,1/4-y,1/2+z
1/2+x,1/4-y,3/4-z
3/4-x,y,3/4-z
1/2-x,-y,1/2-z
1/4+x,3/4+y,1/2-z
1/2-x,3/4+y,1/4+z
1/4+x,-y,1/4+z
1/2+x,1/2+y,z
3/4-x,3/4-y,z
1/2+x,3/4-y,1/4-z
3/4-x,1/2+y,1/4-z
1/2-x,1/2-y,-z
1/4+x,1/4+y,-z
1/2-x,1/4+y,3/4+z
1/4+x,1/2-y,3/4+z
loop_
_atom_site_type_symbol
_atom_site_label
_atom_site_fract_x
_atom_site_fract_y
_atom_site_fract_z
Si Si1 0.409067 0.712014 0.560144
Si Si2 0.875000 0.138648 0.375000
Si Si3 0.748627 0.492735 0.075009
Si Si4 0.924107 0.168263 0.043890
Si Si5 0.375000 0.875000 0.375000
Si Si6 0.175652 0.709076 0.495712
O O1 0.394676 0.672783 0.469628
O O2 0.469654 0.723998 0.532230
O O3 0.383299 0.689039 0.667484
O O4 0.375487 0.760336 0.539075
O O5 0.919070 0.104958 0.322759
O O6 0.784672 0.538941 0.052522
O O7 0.785249 0.456412 0.143363
O O8 0.704431 0.509568 0.161506
O O9 0.938616 0.125000 0.125000
O O10 0.340331 0.840604 0.450738
#
# Coordination Sequence:
#
# PCOD9514142 Si02
#       6
#    32  16  32  32   8  32
#     4  10  17  35  47  67 105 131 146 198 258 283
#     4  10  17  34  50  71  94 125 164 206 233 280
#     4  10  18  31  46  67  95 132 160 182 251 304
#     4   9  21  30  50  74  95 125 166 204 235 286
#     4  12  18  28  40  72 104 122 160 208 246 288
#     4  10  20  27  44  70 100 129 149 194 250 295
#
# _framework density 17.333338000000001
#
# number of rings (size 3 to 8) (size 9 to 14) (size 15 to 20)
#    0.000    2.105    4.211    0.000    4.421    0.000 
#    0.000    1.053    0.000    0.000    0.000    0.000 
#    0.000    0.000    0.000    0.000    0.000    0.000 
#
# Total GULP energy -211655.720293 kJ/mol
# GULP energy per Si atom -5569.887376 kJ/mol
# Density = 1.729389 g / cm^3
# Si number density = 17.333338 Si / 1000 Ang^3
#
#
#
# Elastic Constant Matrix: (Units=GPa)
#
#
# Indices 1 2 3 4 5 6 
#
# 1 65.1336 27.5334 11.8984 0.0000 0.0000 0.0000
# 2 27.5334 84.1497 10.4407 0.0000 0.0000 0.0000
# 3 11.8984 10.4407 18.9282 0.0000 0.0000 0.0000
# 4 0.0000 0.0000 0.0000 14.2799 0.0000 0.0000
# 5 0.0000 0.0000 0.0000 0.0000 19.5506 0.0000
# 6 0.0000 0.0000 0.0000 0.0000 0.0000 26.3363
#
#
#
# Elastic Compliance Matrix: (Units=1/GPa)
#
#
# Indices 1 2 3 4 5 6 
#
# 1 0.019214 -0.005140 -0.009243 0.000000 0.000000 0.000000
# 2 -0.005140 0.014132 -0.004564 0.000000 0.000000 0.000000
# 3 -0.009243 -0.004564 0.061159 0.000000 0.000000 0.000000
# 4 0.000000 0.000000 0.000000 0.070028 0.000000 0.000000
# 5 0.000000 0.000000 0.000000 0.000000 0.051149 0.000000
# 6 0.000000 0.000000 0.000000 0.000000 0.000000 0.037970
#
#
# Mechanical properties :
#
#
# Convention : Reuss Voigt Hill
#
# Bulk Modulus (GPa) = 17.66442 29.77293 23.71868
# Shear Modulus (GPa) = 16.10735 19.92264 18.01500
#
# Velocity S-wave (km/s) = 3.05170 3.39393 3.22736
# Velocity P-wave (km/s) = 4.75713 5.70722 5.25370
#
# Compressibility (1/GPa) = 0.05661098
#
# Stress axis : x y z
#
# Youngs Moduli (GPa) = 52.04448 70.76327 16.35086
#
# Poissons Ratio (x) = 0.36373 0.15113
# Poissons Ratio (y) = 0.26751 0.07462
# Poissons Ratio (z) = 0.48105 0.32295
#
# Static dielectric constant tensor:
#      x y z
#    x 1.644280 0.000000 0.000000 
#    y 0.000000 1.591540 0.000000 
#    z 0.000000 0.000000 1.605720 
# 
# From -- ./inp_files/19548.got.cif
#   From: 2010.05.17/outbox.cif.g08.bks.cpg/sg70_10_cif.got.tgz:19548.got - 2010.06.03 15:57:51.
