data_PCOD9514710
_publ_section_title
;
Structure prediction by ZEFSAII (Michael W. Deem and Ramdas Pophale) SiO2 
 PCOD9514710
Probable space group: F D D D
;
_chemical_formula_sum "Si O2"
_cell_formula_units_Z 160
_cell_length_a 17.036753
_cell_length_b 20.258998
_cell_length_c 20.677603
_cell_angle_alpha 90.000000
_cell_angle_beta 90.000000
_cell_angle_gamma 90.000000
_cell_volume 7136.823911
_symmetry_space_group_name_H-M "F D D D"
_symmetry_group_IT_number 70
_space_group.IT_coordinate_system_code '2'
_symmetry_cell_setting 'orthorhombic'
loop_
_space_group_symop_operation_xyz
x,y,z
1/4-x,1/4-y,z
x,1/4-y,1/4-z
1/4-x,y,1/4-z
-x,-y,-z
3/4+x,3/4+y,-z
-x,3/4+y,3/4+z
3/4+x,-y,3/4+z
x,1/2+y,1/2+z
1/4-x,3/4-y,1/2+z
x,3/4-y,3/4-z
1/4-x,1/2+y,3/4-z
-x,1/2-y,1/2-z
3/4+x,1/4+y,1/2-z
-x,1/4+y,1/4+z
3/4+x,1/2-y,1/4+z
1/2+x,y,1/2+z
3/4-x,1/4-y,1/2+z
1/2+x,1/4-y,3/4-z
3/4-x,y,3/4-z
1/2-x,-y,1/2-z
1/4+x,3/4+y,1/2-z
1/2-x,3/4+y,1/4+z
1/4+x,-y,1/4+z
1/2+x,1/2+y,z
3/4-x,3/4-y,z
1/2+x,3/4-y,1/4-z
3/4-x,1/2+y,1/4-z
1/2-x,1/2-y,-z
1/4+x,1/4+y,-z
1/2-x,1/4+y,3/4+z
1/4+x,1/2-y,3/4+z
loop_
_atom_site_type_symbol
_atom_site_label
_atom_site_fract_x
_atom_site_fract_y
_atom_site_fract_z
Si Si1 0.206710 0.732743 0.592317
Si Si2 0.566365 0.349343 0.761186
Si Si3 0.956669 0.338603 0.073078
Si Si4 0.292205 0.698253 0.851994
Si Si5 0.265666 0.579525 0.068208
O O1 0.125000 0.715509 0.625000
O O2 0.248542 0.670211 0.560768
O O3 0.182629 0.786323 0.537285
O O4 0.268113 0.772261 0.638734
O O5 0.548854 0.411967 0.716766
O O6 0.649140 0.354787 0.796579
O O7 0.875000 0.375000 0.090042
O O8 0.020978 0.392152 0.096268
O O9 0.963531 0.327789 0.996559
O O10 0.375000 0.727476 0.875000
O O11 0.229339 0.755766 0.846048
O O12 0.233614 0.625000 0.125000
#
# Coordination Sequence:
#
# PCOD9514710 Si02
#       5
#    32  32  32  32  32
#     4  10  19  41  75 102 140 183 229 296 359 426
#     4  10  21  44  72 100 140 184 234 289 356 423
#     4  11  23  43  67  99 138 181 230 290 352 418
#     4  11  24  46  72  96 137 188 226 292 359 419
#     4  12  27  43  68 101 135 181 241 285 346 422
#
# _framework density 22.418935999999999
#
# number of rings (size 3 to 8) (size 9 to 14) (size 15 to 20)
#    0.000    1.200    4.000    2.400    2.800    4.000 
#    0.000    0.000    8.800    0.000    0.000    0.000 
#    0.000    0.000    0.000    0.000    0.000    0.000 
#
# Total GULP energy -223758.073853 kJ/mol
# GULP energy per Si atom -5593.951846 kJ/mol
# Density = 2.236791 g / cm^3
# Si number density = 22.418936 Si / 1000 Ang^3
#
#
#
# Elastic Constant Matrix: (Units=GPa)
#
#
# Indices 1 2 3 4 5 6 
#
# 1 85.6173 2.4120 20.2481 0.0000 0.0000 0.0000
# 2 2.4120 81.5637 36.1559 0.0000 0.0000 0.0000
# 3 20.2481 36.1559 118.1063 0.0000 0.0000 0.0000
# 4 0.0000 0.0000 0.0000 15.3345 0.0000 0.0000
# 5 0.0000 0.0000 0.0000 0.0000 33.5817 0.0000
# 6 0.0000 0.0000 0.0000 0.0000 0.0000 13.0021
#
#
#
# Elastic Compliance Matrix: (Units=1/GPa)
#
#
# Indices 1 2 3 4 5 6 
#
# 1 0.012204 0.000655 -0.002293 0.000000 0.000000 0.000000
# 2 0.000655 0.014221 -0.004466 0.000000 0.000000 0.000000
# 3 -0.002293 -0.004466 0.010227 0.000000 0.000000 0.000000
# 4 0.000000 0.000000 0.000000 0.065213 0.000000 0.000000
# 5 0.000000 0.000000 0.000000 0.000000 0.029778 0.000000
# 6 0.000000 0.000000 0.000000 0.000000 0.000000 0.076911
#
#
# Mechanical properties :
#
#
# Convention : Reuss Voigt Hill
#
# Bulk Modulus (GPa) = 40.90783 44.76881 42.83832
# Shear Modulus (GPa) = 21.84291 27.48175 24.66233
#
# Velocity S-wave (km/s) = 3.12477 3.50498 3.32032
# Velocity P-wave (km/s) = 5.59514 6.03261 5.81799
#
# Compressibility (1/GPa) = 0.02444520
#
# Stress axis : x y z
#
# Youngs Moduli (GPa) = 81.94255 70.32077 97.77924
#
# Poissons Ratio (x) = -0.04610 0.22419
# Poissons Ratio (y) = -0.05371 0.43665
# Poissons Ratio (z) = 0.18788 0.31403
#
# Static dielectric constant tensor:
#      x y z
#    x 1.823090 0.000000 0.000000 
#    y 0.000000 1.777320 0.000000 
#    z 0.000000 0.000000 1.836200 
# 
# From -- ./inp_files/43657.got.cif
#   From: 2010.05.17/outbox.cif.g08.bks.cpg/sg70_22_cif.got.tgz:43657.got - 2010.06.03 15:57:51.
