data_PCOD9514401
_publ_section_title
;
Structure prediction by ZEFSAII (Michael W. Deem and Ramdas Pophale) SiO2 
 PCOD9514401
Probable space group: F D D D
;
_chemical_formula_sum "Si O2"
_cell_formula_units_Z 96
_cell_length_a 8.210716
_cell_length_b 32.816263
_cell_length_c 13.321340
_cell_angle_alpha 90.000000
_cell_angle_beta 90.000000
_cell_angle_gamma 90.000000
_cell_volume 3589.368665
_symmetry_space_group_name_H-M "F D D D"
_symmetry_group_IT_number 70
_space_group.IT_coordinate_system_code '2'
_symmetry_cell_setting 'orthorhombic'
loop_
_space_group_symop_operation_xyz
x,y,z
1/4-x,1/4-y,z
x,1/4-y,1/4-z
1/4-x,y,1/4-z
-x,-y,-z
3/4+x,3/4+y,-z
-x,3/4+y,3/4+z
3/4+x,-y,3/4+z
x,1/2+y,1/2+z
1/4-x,3/4-y,1/2+z
x,3/4-y,3/4-z
1/4-x,1/2+y,3/4-z
-x,1/2-y,1/2-z
3/4+x,1/4+y,1/2-z
-x,1/4+y,1/4+z
3/4+x,1/2-y,1/4+z
1/2+x,y,1/2+z
3/4-x,1/4-y,1/2+z
1/2+x,1/4-y,3/4-z
3/4-x,y,3/4-z
1/2-x,-y,1/2-z
1/4+x,3/4+y,1/2-z
1/2-x,3/4+y,1/4+z
1/4+x,-y,1/4+z
1/2+x,1/2+y,z
3/4-x,3/4-y,z
1/2+x,3/4-y,1/4-z
3/4-x,1/2+y,1/4-z
1/2-x,1/2-y,-z
1/4+x,1/4+y,-z
1/2-x,1/4+y,3/4+z
1/4+x,1/2-y,3/4+z
loop_
_atom_site_type_symbol
_atom_site_label
_atom_site_fract_x
_atom_site_fract_y
_atom_site_fract_z
Si Si1 0.952069 0.167005 0.998102
Si Si2 0.392674 0.458987 0.493204
Si Si3 0.295731 0.570967 0.740700
O O1 0.772388 0.177972 0.960082
O O2 0.948110 0.175935 0.119146
O O3 0.958489 0.118699 0.981146
O O4 0.115958 0.193070 0.974145
O O5 0.500000 0.500000 0.500000
O O6 0.375000 0.450447 0.375000
O O7 0.205986 0.452949 0.527243
#
# Coordination Sequence:
#
# PCOD9514401 Si02
#       3
#    32  32  32
#     4   8  14  26  45  68  90 114 152 202 243 283
#     4  10  19  29  43  67  96 127 155 195 245 299
#     4   8  14  26  45  68  90 114 154 200 243 282
#
# _framework density 26.745650000000001
#
# number of rings (size 3 to 8) (size 9 to 14) (size 15 to 20)
#    0.000    3.333    0.000    3.000    0.000    5.333 
#    0.000    0.000    0.000    0.000   17.333    0.000 
#    0.000    0.000    0.000    0.000    0.000    0.000 
#
# Total GULP energy -133797.985116 kJ/mol
# GULP energy per Si atom -5574.916046 kJ/mol
# Density = 2.668478 g / cm^3
# Si number density = 26.745650 Si / 1000 Ang^3
#
#
#
# Elastic Constant Matrix: (Units=GPa)
#
#
# Indices 1 2 3 4 5 6 
#
# 1 328.9621 71.8509 67.1093 0.0000 0.0000 0.0000
# 2 71.8509 60.7758 -33.4548 0.0000 0.0000 0.0000
# 3 67.1093 -33.4548 83.5750 0.0000 0.0000 0.0000
# 4 0.0000 0.0000 0.0000 -5.2800 0.0000 0.0000
# 5 0.0000 0.0000 0.0000 0.0000 60.2239 0.0000
# 6 0.0000 0.0000 0.0000 0.0000 0.0000 41.2190
#
#
#
# Elastic Compliance Matrix: (Units=1/GPa)
#
#
# Indices 1 2 3 4 5 6 
#
# 1 0.014404 -0.030008 -0.023579 0.000000 0.000000 0.000000
# 2 -0.030008 0.083620 0.057569 0.000000 0.000000 0.000000
# 3 -0.023579 0.057569 0.053943 0.000000 0.000000 0.000000
# 4 0.000000 0.000000 0.000000 -0.189396 0.000000 0.000000
# 5 0.000000 0.000000 0.000000 0.000000 0.016605 0.000000
# 6 0.000000 0.000000 0.000000 0.000000 0.000000 0.024261
#
#
# Mechanical properties :
#
#
# Convention : Reuss Voigt Hill
#
# Bulk Modulus (GPa) = 6.25266 76.03598 41.14432
# Shear Modulus (GPa) = 102.49240 43.75309 73.12275
#
# Velocity S-wave (km/s) = 6.19712 4.04901 5.23444
# Velocity P-wave (km/s) = 7.31770 7.09579 7.20760
#
# Compressibility (1/GPa) = 0.15993205
#
# Stress axis : x y z
#
# Youngs Moduli (GPa) = 69.42360 11.95882 18.53799
#
# Poissons Ratio (x) = 0.35886 0.43710
# Poissons Ratio (y) = 2.08329 -1.06722
# Poissons Ratio (z) = 1.63692 -0.68846
#
# Static dielectric constant tensor:
#      x y z
#    x 2.285630 0.000000 0.000000 
#    y 0.000000 2.102220 0.000000 
#    z 0.000000 0.000000 2.278520 
# 
# From -- ./inp_files/9295.got.cif
#   From: 2010.05.17/outbox.cif.g08.bks.cpg/sg70_5_cif.got.tgz:9295.got - 2010.06.03 15:57:51.
