data_PCOD9514853
_publ_section_title
;
Structure prediction by ZEFSAII (Michael W. Deem and Ramdas Pophale) SiO2 
 PCOD9514853
Probable space group: F D D D
;
_chemical_formula_sum "Si O2"
_cell_formula_units_Z 192
_cell_length_a 10.782932
_cell_length_b 29.710188
_cell_length_c 25.359648
_cell_angle_alpha 90.000000
_cell_angle_beta 90.000000
_cell_angle_gamma 90.000000
_cell_volume 8124.291312
_symmetry_space_group_name_H-M "F D D D"
_symmetry_group_IT_number 70
_space_group.IT_coordinate_system_code '2'
_symmetry_cell_setting 'orthorhombic'
loop_
_space_group_symop_operation_xyz
x,y,z
1/4-x,1/4-y,z
x,1/4-y,1/4-z
1/4-x,y,1/4-z
-x,-y,-z
3/4+x,3/4+y,-z
-x,3/4+y,3/4+z
3/4+x,-y,3/4+z
x,1/2+y,1/2+z
1/4-x,3/4-y,1/2+z
x,3/4-y,3/4-z
1/4-x,1/2+y,3/4-z
-x,1/2-y,1/2-z
3/4+x,1/4+y,1/2-z
-x,1/4+y,1/4+z
3/4+x,1/2-y,1/4+z
1/2+x,y,1/2+z
3/4-x,1/4-y,1/2+z
1/2+x,1/4-y,3/4-z
3/4-x,y,3/4-z
1/2-x,-y,1/2-z
1/4+x,3/4+y,1/2-z
1/2-x,3/4+y,1/4+z
1/4+x,-y,1/4+z
1/2+x,1/2+y,z
3/4-x,3/4-y,z
1/2+x,3/4-y,1/4-z
3/4-x,1/2+y,1/4-z
1/2-x,1/2-y,-z
1/4+x,1/4+y,-z
1/2-x,1/4+y,3/4+z
1/4+x,1/2-y,3/4+z
loop_
_atom_site_type_symbol
_atom_site_label
_atom_site_fract_x
_atom_site_fract_y
_atom_site_fract_z
Si Si1 0.125000 0.420884 0.625000
Si Si2 0.125000 0.555777 0.625000
Si Si3 0.039156 0.403767 0.960204
Si Si4 0.240091 0.097022 0.822997
Si Si5 0.907234 0.183652 0.601048
Si Si6 0.866959 0.962675 0.095521
Si Si7 0.319494 0.924379 0.481883
O O1 0.149826 0.383852 0.578423
O O2 0.244481 0.452317 0.632763
O O3 0.263872 0.577044 0.631847
O O4 0.110217 0.540419 0.686142
O O5 0.049772 0.351492 0.943090
O O6 0.013000 0.427314 0.904496
O O7 0.172553 0.420918 0.979402
O O8 0.961035 0.413397 0.012352
O O9 0.125000 0.125000 0.846078
O O10 0.233694 0.054550 0.861458
O O11 0.905089 0.235083 0.585049
O O12 0.857780 0.937377 0.040233
O O13 0.375000 0.875000 0.468727
#
# Coordination Sequence:
#
# PCOD9514853 Si02
#       7
#    16  16  32  32  32  32  32
#     4  10  21  40  63  91 126 165 204 256 313 388
#     4  10  20  36  59  92 130 150 206 252 325 376
#     4  10  21  40  65  83 128 167 209 251 329 375
#     4  10  21  40  63  88 120 169 213 255 307 379
#     4  10  22  39  60  95 125 164 207 269 316 379
#     4  11  23  38  63  95 129 158 218 259 312 371
#     4  11  19  35  62  91 123 165 195 255 314 387
#
# _framework density 23.632832000000001
#
# number of rings (size 3 to 8) (size 9 to 14) (size 15 to 20)
#    0.000    1.667    1.667    4.250    0.000    1.333 
#   12.000    1.667    7.333    0.000    0.000    0.000 
#    0.000    0.000    0.000    0.000    0.000    0.000 
#
# Total GULP energy -267469.828454 kJ/mol
# GULP energy per Si atom -5572.288093 kJ/mol
# Density = 2.357904 g / cm^3
# Si number density = 23.632832 Si / 1000 Ang^3
#
#
#
# Elastic Constant Matrix: (Units=GPa)
#
#
# Indices 1 2 3 4 5 6 
#
# 1 42.3368 3.2160 11.7352 0.0000 0.0000 0.0000
# 2 3.2160 72.2823 19.8117 0.0000 0.0000 0.0000
# 3 11.7352 19.8117 163.7357 0.0000 0.0000 0.0000
# 4 0.0000 0.0000 0.0000 12.4394 0.0000 0.0000
# 5 0.0000 0.0000 0.0000 0.0000 34.5427 0.0000
# 6 0.0000 0.0000 0.0000 0.0000 0.0000 7.6267
#
#
#
# Elastic Compliance Matrix: (Units=1/GPa)
#
#
# Indices 1 2 3 4 5 6 
#
# 1 0.024126 -0.000620 -0.001654 0.000000 0.000000 0.000000
# 2 -0.000620 0.014325 -0.001689 0.000000 0.000000 0.000000
# 3 -0.001654 -0.001689 0.006430 0.000000 0.000000 0.000000
# 4 0.000000 0.000000 0.000000 0.080390 0.000000 0.000000
# 5 0.000000 0.000000 0.000000 0.000000 0.028950 0.000000
# 6 0.000000 0.000000 0.000000 0.000000 0.000000 0.131119
#
#
# Mechanical properties :
#
#
# Convention : Reuss Voigt Hill
#
# Bulk Modulus (GPa) = 27.05985 38.65341 32.85663
# Shear Modulus (GPa) = 16.36213 27.16121 21.76167
#
# Velocity S-wave (km/s) = 2.63410 3.39381 3.03780
# Velocity P-wave (km/s) = 4.55262 5.63459 5.12225
#
# Compressibility (1/GPa) = 0.03695513
#
# Stress axis : x y z
#
# Youngs Moduli (GPa) = 41.44954 69.80737 155.51357
#
# Poissons Ratio (x) = 0.04328 0.25724
# Poissons Ratio (y) = 0.02570 0.26264
# Poissons Ratio (z) = 0.06856 0.11790
#
# Static dielectric constant tensor:
#      x y z
#    x 1.981460 0.000000 0.000000 
#    y 0.000000 1.990560 0.000000 
#    z 0.000000 0.000000 1.900070 
# 
# From -- ./inp_files/57849.got.cif
#   From: 2010.05.17/outbox.cif.g08.bks.cpg/sg70_29_cif.got.tgz:57849.got - 2010.06.03 15:57:51.
