data_PCOD9514864
_publ_section_title
;
Structure prediction by ZEFSAII (Michael W. Deem and Ramdas Pophale) SiO2 
 PCOD9514864
Probable space group: F D D D
;
_chemical_formula_sum "Si O2"
_cell_formula_units_Z 144
_cell_length_a 25.600245
_cell_length_b 31.824330
_cell_length_c 8.485829
_cell_angle_alpha 90.000000
_cell_angle_beta 90.000000
_cell_angle_gamma 90.000000
_cell_volume 6913.495218
_symmetry_space_group_name_H-M "F D D D"
_symmetry_group_IT_number 70
_space_group.IT_coordinate_system_code '2'
_symmetry_cell_setting 'orthorhombic'
loop_
_space_group_symop_operation_xyz
x,y,z
1/4-x,1/4-y,z
x,1/4-y,1/4-z
1/4-x,y,1/4-z
-x,-y,-z
3/4+x,3/4+y,-z
-x,3/4+y,3/4+z
3/4+x,-y,3/4+z
x,1/2+y,1/2+z
1/4-x,3/4-y,1/2+z
x,3/4-y,3/4-z
1/4-x,1/2+y,3/4-z
-x,1/2-y,1/2-z
3/4+x,1/4+y,1/2-z
-x,1/4+y,1/4+z
3/4+x,1/2-y,1/4+z
1/2+x,y,1/2+z
3/4-x,1/4-y,1/2+z
1/2+x,1/4-y,3/4-z
3/4-x,y,3/4-z
1/2-x,-y,1/2-z
1/4+x,3/4+y,1/2-z
1/2-x,3/4+y,1/4+z
1/4+x,-y,1/4+z
1/2+x,1/2+y,z
3/4-x,3/4-y,z
1/2+x,3/4-y,1/4-z
3/4-x,1/2+y,1/4-z
1/2-x,1/2-y,-z
1/4+x,1/4+y,-z
1/2-x,1/4+y,3/4+z
1/4+x,1/2-y,3/4+z
loop_
_atom_site_type_symbol
_atom_site_label
_atom_site_fract_x
_atom_site_fract_y
_atom_site_fract_z
Si Si1 0.489915 0.577986 0.052853
Si Si2 0.104100 0.780811 0.948169
Si Si3 0.081044 0.344595 0.012171
Si Si4 0.125000 0.625000 0.625000
Si Si5 0.151401 0.565446 0.859397
Si Si6 0.875000 0.875000 0.375000
O O1 0.489543 0.625000 0.125000
O O2 0.454950 0.548002 0.165187
O O3 0.461404 0.579127 0.883818
O O4 0.548213 0.565917 0.003769
O O5 0.139463 0.807220 0.827167
O O6 0.109392 0.731919 0.906060
O O7 0.125000 0.786888 0.125000
O O8 0.125000 0.366065 0.125000
O O9 0.061691 0.375000 0.875000
O O10 0.107389 0.590632 0.758508
O O11 0.158458 0.593837 0.014919
#
# Coordination Sequence:
#
# PCOD9514864 Si02
#       6
#    32  32  32   8  32   8
#     4  11  23  40  64  96 126 163 212 265 314 383
#     4  11  22  41  63  93 133 167 206 258 321 387
#     4  10  20  36  61  91 125 164 201 253 326 381
#     4  10  24  42  72  78 124 166 212 266 320 366
#     4  11  23  44  65  92 121 170 218 264 314 377
#     4  10  24  46  64  90 128 178 216 270 320 358
#
# _framework density 20.828828999999999
#
# number of rings (size 3 to 8) (size 9 to 14) (size 15 to 20)
#    0.000    1.333    2.222    5.333    6.222    0.000 
#    0.000    1.111    0.000    0.000    0.000    0.000 
#    0.000    0.000    0.000    0.000    0.000    0.000 
#
# Total GULP energy -200507.372140 kJ/mol
# GULP energy per Si atom -5569.649226 kJ/mol
# Density = 2.078142 g / cm^3
# Si number density = 20.828829 Si / 1000 Ang^3
#
#
#
# Elastic Constant Matrix: (Units=GPa)
#
#
# Indices 1 2 3 4 5 6 
#
# 1 67.4609 11.9143 42.7502 -0.0024 -0.0055 -0.0199
# 2 11.9143 158.6684 60.4434 -0.0095 -0.0015 -0.0191
# 3 42.7502 60.4434 156.3028 -0.0053 -0.0130 -0.0385
# 4 -0.0024 -0.0095 -0.0053 34.7131 0.0009 -0.0057
# 5 -0.0055 -0.0015 -0.0130 0.0009 27.9862 0.0229
# 6 -0.0199 -0.0191 -0.0385 -0.0057 0.0229 -13.6390
#
#
#
# Elastic Compliance Matrix: (Units=1/GPa)
#
#
# Indices 1 2 3 4 5 6 
#
# 1 0.017982 0.000614 -0.005156 0.000001 0.000001 -0.000013
# 2 0.000614 0.007412 -0.003034 0.000002 -0.000001 -0.000003
# 3 -0.005156 -0.003034 0.008981 0.000000 0.000003 -0.000014
# 4 0.000001 0.000002 0.000000 0.028808 -0.000001 -0.000012
# 5 0.000001 -0.000001 0.000003 -0.000001 0.035732 0.000060
# 6 -0.000013 -0.000003 -0.000014 -0.000012 0.000060 -0.073319
#
#
# Mechanical properties :
#
#
# Convention : Reuss Voigt Hill
#
# Bulk Modulus (GPa) = 52.01981 68.07197 60.04589
# Shear Modulus (GPa) = 106.03119 27.63369 66.83244
#
# Velocity S-wave (km/s) = 7.14258 3.64635 5.67064
# Velocity P-wave (km/s) = 9.64630 7.10495 8.47147
#
# Compressibility (1/GPa) = 0.01922344
#
# Stress axis : x y z
#
# Youngs Moduli (GPa) = 55.61077 134.91224 111.34258
#
# Poissons Ratio (x) = -0.08280 0.57404
# Poissons Ratio (y) = -0.03413 0.33784
# Poissons Ratio (z) = 0.28671 0.40935
#
# Static dielectric constant tensor:
#      x y z
#    x 1.877120 0.000000 0.000010 
#    y 0.000000 1.756640 0.000000 
#    z 0.000010 0.000000 1.769550 
# 
# From -- ./inp_files/12282.got.cif
#   From: 2010.05.17/outbox.cif.g08.bks.cpg/sg70_7_cif.got.tgz:12282.got - 2010.06.03 15:57:51.
