data_PCOD9514405
_publ_section_title
;
Structure prediction by ZEFSAII (Michael W. Deem and Ramdas Pophale) SiO2 
 PCOD9514405
Probable space group: F D D D
;
_chemical_formula_sum "Si O2"
_cell_formula_units_Z 128
_cell_length_a 20.885688
_cell_length_b 16.025705
_cell_length_c 21.623275
_cell_angle_alpha 90.000000
_cell_angle_beta 90.000000
_cell_angle_gamma 90.000000
_cell_volume 7237.480417
_symmetry_space_group_name_H-M "F D D D"
_symmetry_group_IT_number 70
_space_group.IT_coordinate_system_code '2'
_symmetry_cell_setting 'orthorhombic'
loop_
_space_group_symop_operation_xyz
x,y,z
1/4-x,1/4-y,z
x,1/4-y,1/4-z
1/4-x,y,1/4-z
-x,-y,-z
3/4+x,3/4+y,-z
-x,3/4+y,3/4+z
3/4+x,-y,3/4+z
x,1/2+y,1/2+z
1/4-x,3/4-y,1/2+z
x,3/4-y,3/4-z
1/4-x,1/2+y,3/4-z
-x,1/2-y,1/2-z
3/4+x,1/4+y,1/2-z
-x,1/4+y,1/4+z
3/4+x,1/2-y,1/4+z
1/2+x,y,1/2+z
3/4-x,1/4-y,1/2+z
1/2+x,1/4-y,3/4-z
3/4-x,y,3/4-z
1/2-x,-y,1/2-z
1/4+x,3/4+y,1/2-z
1/2-x,3/4+y,1/4+z
1/4+x,-y,1/4+z
1/2+x,1/2+y,z
3/4-x,3/4-y,z
1/2+x,3/4-y,1/4-z
3/4-x,1/2+y,1/4-z
1/2-x,1/2-y,-z
1/4+x,1/4+y,-z
1/2-x,1/4+y,3/4+z
1/4+x,1/2-y,3/4+z
loop_
_atom_site_type_symbol
_atom_site_label
_atom_site_fract_x
_atom_site_fract_y
_atom_site_fract_z
Si Si1 0.422961 0.127033 0.928434
Si Si2 0.861306 0.085062 0.191427
Si Si3 0.212227 0.064038 0.681624
Si Si4 0.064826 0.168541 0.444557
O O1 0.375000 0.153532 0.875000
O O2 0.493853 0.163362 0.917007
O O3 0.430067 0.025865 0.926928
O O4 0.396947 0.143898 0.998139
O O5 0.877171 0.125000 0.125000
O O6 0.788901 0.049465 0.183493
O O7 0.911966 0.012558 0.205560
O O8 0.198474 0.125000 0.625000
O O9 0.193274 0.115088 0.742531
O O10 0.125000 0.125000 0.409790
#
# Coordination Sequence:
#
# PCOD9514405 Si02
#       4
#    32  32  32  32
#     4  11  21  33  53  84 111 140 177 222 271 322
#     4  10  20  35  52  78 110 146 178 215 267 323
#     4  10  19  29  53  87 116 136 164 210 283 339
#     4  11  18  33  51  76 115 143 171 214 262 326
#
# _framework density 17.685714000000001
#
# number of rings (size 3 to 8) (size 9 to 14) (size 15 to 20)
#    0.000    1.500    5.000    3.000    0.000    0.000 
#    0.000    1.250    0.000    0.750    0.000    0.000 
#    0.000    0.000    0.000    0.000    0.000    0.000 
#
# Total GULP energy -178417.421951 kJ/mol
# GULP energy per Si atom -5575.544436 kJ/mol
# Density = 1.764546 g / cm^3
# Si number density = 17.685714 Si / 1000 Ang^3
#
#
#
# Elastic Constant Matrix: (Units=GPa)
#
#
# Indices 1 2 3 4 5 6 
#
# 1 143.2150 31.1687 45.4789 0.0000 0.0000 0.0000
# 2 31.1687 42.5244 11.0522 0.0000 0.0000 0.0000
# 3 45.4789 11.0522 84.0194 0.0000 0.0000 0.0000
# 4 0.0000 0.0000 0.0000 15.0792 0.0000 0.0000
# 5 0.0000 0.0000 0.0000 0.0000 28.6849 0.0000
# 6 0.0000 0.0000 0.0000 0.0000 0.0000 27.3767
#
#
#
# Elastic Compliance Matrix: (Units=1/GPa)
#
#
# Indices 1 2 3 4 5 6 
#
# 1 0.009694 -0.005945 -0.004465 0.000000 0.000000 0.000000
# 2 -0.005945 0.027994 -0.000464 0.000000 0.000000 0.000000
# 3 -0.004465 -0.000464 0.014380 0.000000 0.000000 0.000000
# 4 0.000000 0.000000 0.000000 0.066317 0.000000 0.000000
# 5 0.000000 0.000000 0.000000 0.000000 0.034862 0.000000
# 6 0.000000 0.000000 0.000000 0.000000 0.000000 0.036527
#
#
# Mechanical properties :
#
#
# Convention : Reuss Voigt Hill
#
# Bulk Modulus (GPa) = 32.98284 49.46207 41.22245
# Shear Modulus (GPa) = 22.56010 26.36544 24.46277
#
# Velocity S-wave (km/s) = 3.57545 3.86525 3.72317
# Velocity P-wave (km/s) = 5.97787 6.92446 6.46851
#
# Compressibility (1/GPa) = 0.03031880
#
# Stress axis : x y z
#
# Youngs Moduli (GPa) = 103.15247 35.72185 69.54003
#
# Poissons Ratio (x) = 0.21237 0.31053
# Poissons Ratio (y) = 0.61324 0.03230
# Poissons Ratio (z) = 0.46062 0.01659
#
# Static dielectric constant tensor:
#      x y z
#    x 1.668940 0.000000 0.000000 
#    y 0.000000 1.605410 0.000000 
#    z 0.000000 0.000000 1.654830 
# 
# From -- ./inp_files/34810.got.cif
#   From: 2010.05.17/outbox.cif.g08.bks.cpg/sg70_18_cif.got.tgz:34810.got - 2010.06.03 15:57:51.
