data_PCOD9514520
_publ_section_title
;
Structure prediction by ZEFSAII (Michael W. Deem and Ramdas Pophale) SiO2 
 PCOD9514520
Probable space group: F D D D
;
_chemical_formula_sum "Si O2"
_cell_formula_units_Z 144
_cell_length_a 16.536260
_cell_length_b 25.754819
_cell_length_c 17.893670
_cell_angle_alpha 90.000000
_cell_angle_beta 90.000000
_cell_angle_gamma 90.000000
_cell_volume 7620.706186
_symmetry_space_group_name_H-M "F D D D"
_symmetry_group_IT_number 70
_space_group.IT_coordinate_system_code '2'
_symmetry_cell_setting 'orthorhombic'
loop_
_space_group_symop_operation_xyz
x,y,z
1/4-x,1/4-y,z
x,1/4-y,1/4-z
1/4-x,y,1/4-z
-x,-y,-z
3/4+x,3/4+y,-z
-x,3/4+y,3/4+z
3/4+x,-y,3/4+z
x,1/2+y,1/2+z
1/4-x,3/4-y,1/2+z
x,3/4-y,3/4-z
1/4-x,1/2+y,3/4-z
-x,1/2-y,1/2-z
3/4+x,1/4+y,1/2-z
-x,1/4+y,1/4+z
3/4+x,1/2-y,1/4+z
1/2+x,y,1/2+z
3/4-x,1/4-y,1/2+z
1/2+x,1/4-y,3/4-z
3/4-x,y,3/4-z
1/2-x,-y,1/2-z
1/4+x,3/4+y,1/2-z
1/2-x,3/4+y,1/4+z
1/4+x,-y,1/4+z
1/2+x,1/2+y,z
3/4-x,3/4-y,z
1/2+x,3/4-y,1/4-z
3/4-x,1/2+y,1/4-z
1/2-x,1/2-y,-z
1/4+x,1/4+y,-z
1/2-x,1/4+y,3/4+z
1/4+x,1/2-y,3/4+z
loop_
_atom_site_type_symbol
_atom_site_label
_atom_site_fract_x
_atom_site_fract_y
_atom_site_fract_z
Si Si1 0.216067 0.740736 0.117679
Si Si2 0.568024 0.424159 0.501704
Si Si3 0.216678 0.317736 0.849999
Si Si4 0.125000 0.750536 0.625000
Si Si5 0.335318 0.553991 0.022238
O O1 0.125000 0.720846 0.125000
O O2 0.263836 0.704851 0.058622
O O3 0.263829 0.732373 0.195194
O O4 0.205679 0.797918 0.079725
O O5 0.662201 0.431751 0.475849
O O6 0.554086 0.362574 0.493267
O O7 0.242881 0.375000 0.875000
O O8 0.294883 0.282402 0.857580
O O9 0.151110 0.303067 0.912479
O O10 0.130609 0.785289 0.551526
#
# Coordination Sequence:
#
# PCOD9514520 Si02
#       5
#    32  32  32  16  32
#     4  10  19  35  60  82 111 151 190 235 286 347
#     4   9  20  37  57  84 112 150 188 236 296 339
#     4   9  19  38  58  77 110 148 190 234 282 342
#     4  12  21  34  56  84 108 152 191 226 284 344
#     4  10  22  36  54  84 118 146 186 238 289 342
#
# _framework density 18.895885
#
# number of rings (size 3 to 8) (size 9 to 14) (size 15 to 20)
#    0.000    2.222    0.000    4.333    1.556    1.778 
#    0.000    0.000    0.000    0.000    0.000    0.000 
#    0.000    0.000    0.000    0.000    0.000    0.000 
#
# Total GULP energy -200446.454548 kJ/mol
# GULP energy per Si atom -5567.957071 kJ/mol
# Density = 1.885288 g / cm^3
# Si number density = 18.895885 Si / 1000 Ang^3
#
#
#
# Elastic Constant Matrix: (Units=GPa)
#
#
# Indices 1 2 3 4 5 6 
#
# 1 44.3040 43.0443 20.6762 0.0000 0.0000 0.0000
# 2 43.0443 72.6886 34.4568 0.0000 0.0000 0.0000
# 3 20.6762 34.4568 88.1053 0.0000 0.0000 0.0000
# 4 0.0000 0.0000 0.0000 0.9559 0.0000 0.0000
# 5 0.0000 0.0000 0.0000 0.0000 29.2413 0.0000
# 6 0.0000 0.0000 0.0000 0.0000 0.0000 25.1158
#
#
#
# Elastic Compliance Matrix: (Units=1/GPa)
#
#
# Indices 1 2 3 4 5 6 
#
# 1 0.053154 -0.031381 -0.000201 0.000000 0.000000 0.000000
# 2 -0.031381 0.035415 -0.006486 0.000000 0.000000 0.000000
# 3 -0.000201 -0.006486 0.013934 0.000000 0.000000 0.000000
# 4 0.000000 0.000000 0.000000 1.046178 0.000000 0.000000
# 5 0.000000 0.000000 0.000000 0.000000 0.034198 0.000000
# 6 0.000000 0.000000 0.000000 0.000000 0.000000 0.039816
#
#
# Mechanical properties :
#
#
# Convention : Reuss Voigt Hill
#
# Bulk Modulus (GPa) = 37.92717 44.60584 41.26650
# Shear Modulus (GPa) = 3.82374 18.19062 11.00718
#
# Velocity S-wave (km/s) = 1.42407 3.10607 2.41616
# Velocity P-wave (km/s) = 4.77694 6.04325 5.44702
#
# Compressibility (1/GPa) = 0.02636633
#
# Stress axis : x y z
#
# Youngs Moduli (GPa) = 18.81325 28.23674 71.76776
#
# Poissons Ratio (x) = 0.88610 0.01445
# Poissons Ratio (y) = 0.59038 0.46548
# Poissons Ratio (z) = 0.00379 0.18314
#
# Static dielectric constant tensor:
#      x y z
#    x 1.635590 0.000000 0.000000 
#    y 0.000000 1.675090 0.000000 
#    z 0.000000 0.000000 2.558020 
# 
# From -- ./inp_files/33922.got.cif
#   From: 2010.05.17/outbox.cif.g08.bks.cpg/sg70_17_cif.got.tgz:33922.got - 2010.06.03 15:57:51.
