data_PCOD9514224
_publ_section_title
;
Structure prediction by ZEFSAII (Michael W. Deem and Ramdas Pophale) SiO2 
 PCOD9514224
Probable space group: F D D D
;
_chemical_formula_sum "Si O2"
_cell_formula_units_Z 232
_cell_length_a 25.611379
_cell_length_b 27.819994
_cell_length_c 18.240094
_cell_angle_alpha 90.000000
_cell_angle_beta 90.000000
_cell_angle_gamma 90.000000
_cell_volume 12996.220376
_symmetry_space_group_name_H-M "F D D D"
_symmetry_group_IT_number 70
_space_group.IT_coordinate_system_code '2'
_symmetry_cell_setting 'orthorhombic'
loop_
_space_group_symop_operation_xyz
x,y,z
1/4-x,1/4-y,z
x,1/4-y,1/4-z
1/4-x,y,1/4-z
-x,-y,-z
3/4+x,3/4+y,-z
-x,3/4+y,3/4+z
3/4+x,-y,3/4+z
x,1/2+y,1/2+z
1/4-x,3/4-y,1/2+z
x,3/4-y,3/4-z
1/4-x,1/2+y,3/4-z
-x,1/2-y,1/2-z
3/4+x,1/4+y,1/2-z
-x,1/4+y,1/4+z
3/4+x,1/2-y,1/4+z
1/2+x,y,1/2+z
3/4-x,1/4-y,1/2+z
1/2+x,1/4-y,3/4-z
3/4-x,y,3/4-z
1/2-x,-y,1/2-z
1/4+x,3/4+y,1/2-z
1/2-x,3/4+y,1/4+z
1/4+x,-y,1/4+z
1/2+x,1/2+y,z
3/4-x,3/4-y,z
1/2+x,3/4-y,1/4-z
3/4-x,1/2+y,1/4-z
1/2-x,1/2-y,-z
1/4+x,1/4+y,-z
1/2-x,1/4+y,3/4+z
1/4+x,1/2-y,3/4+z
loop_
_atom_site_type_symbol
_atom_site_label
_atom_site_fract_x
_atom_site_fract_y
_atom_site_fract_z
Si Si1 0.081693 0.421362 0.339951
Si Si2 0.256131 0.141942 0.815227
Si Si3 0.719980 0.005565 0.111144
Si Si4 0.564669 0.561120 0.505976
Si Si5 0.172130 0.221181 0.791777
Si Si6 0.442613 0.171394 0.081965
Si Si7 0.625000 0.125000 0.125000
Si Si8 0.176530 0.844636 0.172958
O O1 0.051633 0.375000 0.375000
O O2 0.064267 0.476835 0.327016
O O3 0.133928 0.425678 0.388918
O O4 0.090906 0.404215 0.256573
O O5 0.229028 0.092589 0.785396
O O6 0.209647 0.180133 0.822344
O O7 0.296110 0.159959 0.752447
O O8 0.289485 0.137147 0.889032
O O9 0.703450 0.016221 0.194356
O O10 0.775242 0.031164 0.101646
O O11 0.714462 0.950542 0.090478
O O12 0.683615 0.028071 0.046449
O O13 0.611445 0.543432 0.453476
O O14 0.588700 0.595409 0.569209
O O15 0.465344 0.125000 0.125000
O O16 0.125000 0.836906 0.125000
#
# Coordination Sequence:
#
# PCOD9514224 Si02
#       8
#    32  32  32  32  32  32   8  32
#     4  10  22  39  58  72 106 146 188 232 278 329
#     4  11  22  34  54  80 115 141 184 227 272 324
#     4  10  19  30  49  75 114 153 189 206 243 318
#     4  12  18  29  51  82 121 160 182 210 256 324
#     4  10  20  34  51  80 106 141 184 226 266 318
#     4  10  18  33  51  77 104 155 191 210 251 323
#     4  12  16  28  48  80 124 164 182 196 252 320
#     4  11  23  37  49  78 111 145 184 233 270 315
#
# _framework density 17.851344000000001
#
# number of rings (size 3 to 8) (size 9 to 14) (size 15 to 20)
#    0.000    1.379    4.138    4.138    1.931    0.552 
#    0.000    0.690    0.000    0.000    0.000    0.000 
#    0.000    0.000    0.000    0.000    0.000    0.000 
#
# Total GULP energy -323173.215347 kJ/mol
# GULP energy per Si atom -5571.951989 kJ/mol
# Density = 1.781071 g / cm^3
# Si number density = 17.851344 Si / 1000 Ang^3
#
#
#
# Elastic Constant Matrix: (Units=GPa)
#
#
# Indices 1 2 3 4 5 6 
#
# 1 38.7834 14.4315 13.7628 0.0000 0.0000 0.0000
# 2 14.4315 68.5753 19.6448 0.0000 0.0000 0.0000
# 3 13.7628 19.6448 35.9912 0.0000 0.0000 0.0000
# 4 0.0000 0.0000 0.0000 26.4980 0.0000 0.0000
# 5 0.0000 0.0000 0.0000 0.0000 23.7204 0.0000
# 6 0.0000 0.0000 0.0000 0.0000 0.0000 6.3315
#
#
#
# Elastic Compliance Matrix: (Units=1/GPa)
#
#
# Indices 1 2 3 4 5 6 
#
# 1 0.030588 -0.003658 -0.009700 0.000000 0.000000 0.000000
# 2 -0.003658 0.017723 -0.008275 0.000000 0.000000 0.000000
# 3 -0.009700 -0.008275 0.036010 0.000000 0.000000 0.000000
# 4 0.000000 0.000000 0.000000 0.037739 0.000000 0.000000
# 5 0.000000 0.000000 0.000000 0.000000 0.042158 0.000000
# 6 0.000000 0.000000 0.000000 0.000000 0.000000 0.157940
#
#
# Mechanical properties :
#
#
# Convention : Reuss Voigt Hill
#
# Bulk Modulus (GPa) = 24.35742 26.55869 25.45805
# Shear Modulus (GPa) = 13.18889 17.67736 15.43313
#
# Velocity S-wave (km/s) = 2.72107 3.15024 2.94349
# Velocity P-wave (km/s) = 4.85247 5.30491 5.08373
#
# Compressibility (1/GPa) = 0.04105526
#
# Stress axis : x y z
#
# Youngs Moduli (GPa) = 32.69302 56.42437 27.76997
#
# Poissons Ratio (x) = 0.20642 0.26936
# Poissons Ratio (y) = 0.11960 0.22978
# Poissons Ratio (z) = 0.31711 0.46689
#
# Static dielectric constant tensor:
#      x y z
#    x 1.637990 0.000000 0.000000 
#    y 0.000000 1.686740 0.000000 
#    z 0.000000 0.000000 1.636280 
# 
# From -- ./inp_files/37865.got.cif
#   From: 2010.05.17/outbox.cif.g08.bks.cpg/sg70_19_cif.got.tgz:37865.got - 2010.06.03 15:57:51.
