data_PCOD9514316
_publ_section_title
;
Structure prediction by ZEFSAII (Michael W. Deem and Ramdas Pophale) SiO2 
 PCOD9514316
Probable space group: F D D D
;
_chemical_formula_sum "Si O2"
_cell_formula_units_Z 160
_cell_length_a 15.945932
_cell_length_b 15.081627
_cell_length_c 31.946855
_cell_angle_alpha 90.000000
_cell_angle_beta 90.000000
_cell_angle_gamma 90.000000
_cell_volume 7682.918282
_symmetry_space_group_name_H-M "F D D D"
_symmetry_group_IT_number 70
_space_group.IT_coordinate_system_code '2'
_symmetry_cell_setting 'orthorhombic'
loop_
_space_group_symop_operation_xyz
x,y,z
1/4-x,1/4-y,z
x,1/4-y,1/4-z
1/4-x,y,1/4-z
-x,-y,-z
3/4+x,3/4+y,-z
-x,3/4+y,3/4+z
3/4+x,-y,3/4+z
x,1/2+y,1/2+z
1/4-x,3/4-y,1/2+z
x,3/4-y,3/4-z
1/4-x,1/2+y,3/4-z
-x,1/2-y,1/2-z
3/4+x,1/4+y,1/2-z
-x,1/4+y,1/4+z
3/4+x,1/2-y,1/4+z
1/2+x,y,1/2+z
3/4-x,1/4-y,1/2+z
1/2+x,1/4-y,3/4-z
3/4-x,y,3/4-z
1/2-x,-y,1/2-z
1/4+x,3/4+y,1/2-z
1/2-x,3/4+y,1/4+z
1/4+x,-y,1/4+z
1/2+x,1/2+y,z
3/4-x,3/4-y,z
1/2+x,3/4-y,1/4-z
3/4-x,1/2+y,1/4-z
1/2-x,1/2-y,-z
1/4+x,1/4+y,-z
1/2-x,1/4+y,3/4+z
1/4+x,1/2-y,3/4+z
loop_
_atom_site_type_symbol
_atom_site_label
_atom_site_fract_x
_atom_site_fract_y
_atom_site_fract_z
Si Si1 0.282865 0.856194 0.807840
Si Si2 0.375000 0.575188 0.875000
Si Si3 0.375000 0.875000 0.586973
Si Si4 0.108409 0.963524 0.973644
Si Si5 0.515752 0.978528 0.113573
Si Si6 0.556119 0.049902 0.559501
O O1 0.375000 0.875000 0.788362
O O2 0.203546 0.818971 0.782106
O O3 0.298740 0.786524 0.846205
O O4 0.252049 0.948265 0.828429
O O5 0.322919 0.646771 0.901994
O O6 0.438286 0.512909 0.900078
O O7 0.343003 0.801320 0.554408
O O8 0.436438 0.820512 0.616714
O O9 0.032607 0.905978 0.953738
O O10 0.086397 0.989042 0.020724
O O11 0.625000 0.125000 0.565562
#
# Coordination Sequence:
#
# PCOD9514316 Si02
#       6
#    32  16  16  32  32  32
#     4  10  19  36  64  90 123 157 205 255 305 377
#     4  12  21  37  62  86 122 160 202 261 317 360
#     4  10  18  36  62  85 118 158 208 247 300 378
#     4  10  22  39  65  88 117 169 207 253 310 384
#     4  10  19  34  59  92 118 156 200 253 308 369
#     4  11  24  42  62  89 124 162 212 258 315 378
#
# _framework density 20.825420999999999
#
# number of rings (size 3 to 8) (size 9 to 14) (size 15 to 20)
#    0.000    1.600    5.000    0.900    0.000    1.600 
#    7.200    1.000    2.200    0.000    0.000    0.000 
#    0.000    0.000    0.000    0.000    0.000    0.000 
#
# Total GULP energy -222684.319636 kJ/mol
# GULP energy per Si atom -5567.107991 kJ/mol
# Density = 2.077802 g / cm^3
# Si number density = 20.825421 Si / 1000 Ang^3
#
#
#
# Elastic Constant Matrix: (Units=GPa)
#
#
# Indices 1 2 3 4 5 6 
#
# 1 113.3299 30.9600 22.3536 0.0000 0.0000 0.0000
# 2 30.9600 73.9578 8.3750 0.0000 0.0000 0.0000
# 3 22.3536 8.3750 32.0019 0.0000 0.0000 0.0000
# 4 0.0000 0.0000 0.0000 4.8411 0.0000 0.0000
# 5 0.0000 0.0000 0.0000 0.0000 26.3674 0.0000
# 6 0.0000 0.0000 0.0000 0.0000 0.0000 34.5595
#
#
#
# Elastic Compliance Matrix: (Units=1/GPa)
#
#
# Indices 1 2 3 4 5 6 
#
# 1 0.011245 -0.003934 -0.006825 0.000000 0.000000 0.000000
# 2 -0.003934 0.015311 -0.001259 0.000000 0.000000 0.000000
# 3 -0.006825 -0.001259 0.036345 0.000000 0.000000 0.000000
# 4 0.000000 0.000000 0.000000 0.206566 0.000000 0.000000
# 5 0.000000 0.000000 0.000000 0.000000 0.037926 0.000000
# 6 0.000000 0.000000 0.000000 0.000000 0.000000 0.028936
#
#
# Mechanical properties :
#
#
# Convention : Reuss Voigt Hill
#
# Bulk Modulus (GPa) = 25.73052 38.07407 31.90229
# Shear Modulus (GPa) = 13.39341 23.66035 18.52688
#
# Velocity S-wave (km/s) = 2.53875 3.37431 2.98590
# Velocity P-wave (km/s) = 4.57994 5.78822 5.21916
#
# Compressibility (1/GPa) = 0.03886435
#
# Stress axis : x y z
#
# Youngs Moduli (GPa) = 88.93015 65.31353 27.51430
#
# Poissons Ratio (x) = 0.25697 0.18778
# Poissons Ratio (y) = 0.34989 0.03463
# Poissons Ratio (z) = 0.60694 0.08221
#
# Static dielectric constant tensor:
#      x y z
#    x 1.951300 0.000000 0.000000 
#    y 0.000000 1.757910 0.000000 
#    z 0.000000 0.000000 1.729280 
# 
# From -- ./inp_files/66526.got.cif
#   From: 2010.05.17/outbox.cif.g08.bks.cpg/sg70_34_cif.got.tgz:66526.got - 2010.06.03 15:57:51.
