data_PCOD9514094
_publ_section_title
;
Structure prediction by ZEFSAII (Michael W. Deem and Ramdas Pophale) SiO2 
 PCOD9514094
Probable space group: F D D D
;
_chemical_formula_sum "Si O2"
_cell_formula_units_Z 176
_cell_length_a 11.245736
_cell_length_b 22.758930
_cell_length_c 29.310508
_cell_angle_alpha 90.000000
_cell_angle_beta 90.000000
_cell_angle_gamma 90.000000
_cell_volume 7501.758337
_symmetry_space_group_name_H-M "F D D D"
_symmetry_group_IT_number 70
_space_group.IT_coordinate_system_code '2'
_symmetry_cell_setting 'orthorhombic'
loop_
_space_group_symop_operation_xyz
x,y,z
1/4-x,1/4-y,z
x,1/4-y,1/4-z
1/4-x,y,1/4-z
-x,-y,-z
3/4+x,3/4+y,-z
-x,3/4+y,3/4+z
3/4+x,-y,3/4+z
x,1/2+y,1/2+z
1/4-x,3/4-y,1/2+z
x,3/4-y,3/4-z
1/4-x,1/2+y,3/4-z
-x,1/2-y,1/2-z
3/4+x,1/4+y,1/2-z
-x,1/4+y,1/4+z
3/4+x,1/2-y,1/4+z
1/2+x,y,1/2+z
3/4-x,1/4-y,1/2+z
1/2+x,1/4-y,3/4-z
3/4-x,y,3/4-z
1/2-x,-y,1/2-z
1/4+x,3/4+y,1/2-z
1/2-x,3/4+y,1/4+z
1/4+x,-y,1/4+z
1/2+x,1/2+y,z
3/4-x,3/4-y,z
1/2+x,3/4-y,1/4-z
3/4-x,1/2+y,1/4-z
1/2-x,1/2-y,-z
1/4+x,1/4+y,-z
1/2-x,1/4+y,3/4+z
1/4+x,1/2-y,3/4+z
loop_
_atom_site_type_symbol
_atom_site_label
_atom_site_fract_x
_atom_site_fract_y
_atom_site_fract_z
Si Si1 0.071193 0.299282 0.777229
Si Si2 0.428837 0.312234 0.794335
Si Si3 0.375000 0.375000 0.630295
Si Si4 0.483174 0.299179 0.043116
Si Si5 0.959209 0.173891 0.534690
Si Si6 0.243605 0.782922 0.681809
O O1 0.162281 0.323560 0.738615
O O2 0.006735 0.357040 0.795463
O O3 0.152216 0.266083 0.813957
O O4 0.000000 0.250000 0.750000
O O5 0.375000 0.375000 0.809497
O O6 0.379344 0.301838 0.742335
O O7 0.569361 0.318225 0.795678
O O8 0.375813 0.256494 0.821916
O O9 0.456177 0.413878 0.663114
O O10 0.288294 0.417579 0.602116
O O11 0.514720 0.232387 0.056560
O O12 0.985146 0.186092 0.481308
#
# Coordination Sequence:
#
# PCOD9514094 Si02
#       6
#    32  32  16  32  32  32
#     4  10  19  37  61  91 119 163 220 269 309 393
#     4  10  16  37  64  89 114 159 226 261 318 389
#     4  12  22  42  54  96 138 170 216 274 366 388
#     4  10  21  34  61  87 125 171 202 272 320 399
#     4  10  18  37  62  91 118 160 221 264 313 394
#     4  10  22  33  59  90 125 162 204 276 321 395
#
# _framework density 23.461165000000001
#
# number of rings (size 3 to 8) (size 9 to 14) (size 15 to 20)
#    0.000    2.182    4.545    3.273    0.000    2.182 
#    0.000   15.455    0.000    1.091    0.000   10.182 
#    0.000    0.000    0.000    0.000    0.000    0.000 
#
# Total GULP energy -245781.733241 kJ/mol
# GULP energy per Si atom -5585.948483 kJ/mol
# Density = 2.340777 g / cm^3
# Si number density = 23.461165 Si / 1000 Ang^3
#
#
#
# Elastic Constant Matrix: (Units=GPa)
#
#
# Indices 1 2 3 4 5 6 
#
# 1 58.7849 22.5897 11.7676 0.0000 0.0000 0.0000
# 2 22.5897 201.2065 49.5018 0.0000 0.0000 0.0000
# 3 11.7676 49.5018 79.6137 0.0000 0.0000 0.0000
# 4 0.0000 0.0000 0.0000 1.2231 0.0000 0.0000
# 5 0.0000 0.0000 0.0000 0.0000 -2.8638 0.0000
# 6 0.0000 0.0000 0.0000 0.0000 0.0000 39.6199
#
#
#
# Elastic Compliance Matrix: (Units=1/GPa)
#
#
# Indices 1 2 3 4 5 6 
#
# 1 0.017961 -0.001610 -0.001654 0.000000 0.000000 0.000000
# 2 -0.001610 0.006012 -0.003500 0.000000 0.000000 0.000000
# 3 -0.001654 -0.003500 0.014981 0.000000 0.000000 0.000000
# 4 0.000000 0.000000 0.000000 0.817576 0.000000 0.000000
# 5 0.000000 0.000000 0.000000 0.000000 -0.349180 0.000000
# 6 0.000000 0.000000 0.000000 0.000000 0.000000 0.025240
#
#
# Mechanical properties :
#
#
# Convention : Reuss Voigt Hill
#
# Bulk Modulus (GPa) = 39.32869 56.36927 47.84898
# Shear Modulus (GPa) = 9.01563 24.64557 16.83060
#
# Velocity S-wave (km/s) = 1.96243 3.24463 2.68130
# Velocity P-wave (km/s) = 4.68343 6.17379 5.47952
#
# Compressibility (1/GPa) = 0.02542673
#
# Stress axis : x y z
#
# Youngs Moduli (GPa) = 55.67687 166.33849 66.74941
#
# Poissons Ratio (x) = 0.26773 0.11040
# Poissons Ratio (y) = 0.08962 0.23363
# Poissons Ratio (z) = 0.09209 0.58220
#
# Static dielectric constant tensor:
#      x y z
#    x 1.978850 0.000000 0.000000 
#    y 0.000000 1.960930 0.000000 
#    z 0.000000 0.000000 1.871300 
# 
# From -- ./inp_files/64766.got.cif
#   From: 2010.05.17/outbox.cif.g08.bks.cpg/sg70_33_cif.got.tgz:64766.got - 2010.06.03 15:57:51.
