data_PCOD9514361
_publ_section_title
;
Structure prediction by ZEFSAII (Michael W. Deem and Ramdas Pophale) SiO2 
 PCOD9514361
Probable space group: F D D D
;
_chemical_formula_sum "Si O2"
_cell_formula_units_Z 160
_cell_length_a 16.441582
_cell_length_b 17.781358
_cell_length_c 24.621686
_cell_angle_alpha 90.000000
_cell_angle_beta 90.000000
_cell_angle_gamma 90.000000
_cell_volume 7198.239910
_symmetry_space_group_name_H-M "F D D D"
_symmetry_group_IT_number 70
_space_group.IT_coordinate_system_code '2'
_symmetry_cell_setting 'orthorhombic'
loop_
_space_group_symop_operation_xyz
x,y,z
1/4-x,1/4-y,z
x,1/4-y,1/4-z
1/4-x,y,1/4-z
-x,-y,-z
3/4+x,3/4+y,-z
-x,3/4+y,3/4+z
3/4+x,-y,3/4+z
x,1/2+y,1/2+z
1/4-x,3/4-y,1/2+z
x,3/4-y,3/4-z
1/4-x,1/2+y,3/4-z
-x,1/2-y,1/2-z
3/4+x,1/4+y,1/2-z
-x,1/4+y,1/4+z
3/4+x,1/2-y,1/4+z
1/2+x,y,1/2+z
3/4-x,1/4-y,1/2+z
1/2+x,1/4-y,3/4-z
3/4-x,y,3/4-z
1/2-x,-y,1/2-z
1/4+x,3/4+y,1/2-z
1/2-x,3/4+y,1/4+z
1/4+x,-y,1/4+z
1/2+x,1/2+y,z
3/4-x,3/4-y,z
1/2+x,3/4-y,1/4-z
3/4-x,1/2+y,1/4-z
1/2-x,1/2-y,-z
1/4+x,1/4+y,-z
1/2-x,1/4+y,3/4+z
1/4+x,1/2-y,3/4+z
loop_
_atom_site_type_symbol
_atom_site_label
_atom_site_fract_x
_atom_site_fract_y
_atom_site_fract_z
Si Si1 0.717172 0.875000 0.375000
Si Si2 0.327317 0.002501 0.711512
Si Si3 0.861190 0.294477 0.467525
Si Si4 0.518535 0.498544 0.709952
Si Si5 0.875000 0.375000 0.642582
Si Si6 0.255778 0.081160 0.316338
O O1 0.670854 0.822656 0.419484
O O2 0.763065 0.815040 0.334939
O O3 0.318515 0.927129 0.677307
O O4 0.250000 0.000000 0.750000
O O5 0.408119 0.994032 0.747586
O O6 0.875000 0.375000 0.439517
O O7 0.788930 0.318546 0.508845
O O8 0.827281 0.228219 0.430466
O O9 0.935359 0.262005 0.504433
O O10 0.531196 0.417906 0.680984
O O11 0.817722 0.320778 0.607985
#
# Coordination Sequence:
#
# PCOD9514361 Si02
#       6
#    16  32  32  32  16  32
#     4  12  24  47  70 102 145 200 246 310 393 436
#     4  12  28  45  68 100 142 192 251 308 371 462
#     4   9  18  35  67 106 136 179 235 299 375 456
#     4  11  22  42  67 100 141 191 249 304 377 462
#     4  12  22  46  66  99 142 187 244 302 374 448
#     4  10  18  38  68  98 138 179 231 300 377 447
#
# _framework density 22.227656
#
# number of rings (size 3 to 8) (size 9 to 14) (size 15 to 20)
#    0.000    1.200    5.000    2.400    0.000    4.800 
#    0.000    3.000    0.000    3.600    0.000    0.000 
#    0.000    0.000    0.000    0.000    0.000    0.000 
#
# Total GULP energy -223176.410442 kJ/mol
# GULP energy per Si atom -5579.410261 kJ/mol
# Density = 2.217706 g / cm^3
# Si number density = 22.227656 Si / 1000 Ang^3
#
#
#
# Elastic Constant Matrix: (Units=GPa)
#
#
# Indices 1 2 3 4 5 6 
#
# 1 63.7948 70.8995 41.7747 0.0000 0.0000 0.0000
# 2 70.8995 157.1797 70.3413 0.0000 0.0000 0.0000
# 3 41.7747 70.3413 109.2047 0.0000 0.0000 0.0000
# 4 0.0000 0.0000 0.0000 40.1060 0.0000 0.0000
# 5 0.0000 0.0000 0.0000 0.0000 112.1514 0.0000
# 6 0.0000 0.0000 0.0000 0.0000 0.0000 30.8208
#
#
#
# Elastic Compliance Matrix: (Units=1/GPa)
#
#
# Indices 1 2 3 4 5 6 
#
# 1 0.032770 -0.012886 -0.004235 0.000000 0.000000 0.000000
# 2 -0.012886 0.014006 -0.004092 0.000000 0.000000 0.000000
# 3 -0.004235 -0.004092 0.013413 0.000000 0.000000 0.000000
# 4 0.000000 0.000000 0.000000 0.024934 0.000000 0.000000
# 5 0.000000 0.000000 0.000000 0.000000 0.008917 0.000000
# 6 0.000000 0.000000 0.000000 0.000000 0.000000 0.032446
#
#
# Mechanical properties :
#
#
# Convention : Reuss Voigt Hill
#
# Bulk Modulus (GPa) = 56.30101 77.35669 66.82885
# Shear Modulus (GPa) = 28.59859 46.42656 37.51258
#
# Velocity S-wave (km/s) = 3.59084 4.57517 4.11256
# Velocity P-wave (km/s) = 6.52506 7.92383 7.25822
#
# Compressibility (1/GPa) = 0.01776167
#
# Stress axis : x y z
#
# Youngs Moduli (GPa) = 30.51564 71.39719 74.55346
#
# Poissons Ratio (x) = 0.92004 0.31576
# Poissons Ratio (y) = 0.39323 0.30509
# Poissons Ratio (z) = 0.12925 0.29217
#
# Static dielectric constant tensor:
#      x y z
#    x 1.675900 0.000000 0.000000 
#    y 0.000000 1.858340 0.000000 
#    z 0.000000 0.000000 1.622900 
# 
# From -- ./inp_files/59417.got.cif
#   From: 2010.05.17/outbox.cif.g08.bks.cpg/sg70_30_cif.got.tgz:59417.got - 2010.06.03 15:57:51.
