data_PCOD9514291
_publ_section_title
;
Structure prediction by ZEFSAII (Michael W. Deem and Ramdas Pophale) SiO2 
 PCOD9514291
Probable space group: F D D D
;
_chemical_formula_sum "Si O2"
_cell_formula_units_Z 216
_cell_length_a 32.066560
_cell_length_b 15.111641
_cell_length_c 22.921536
_cell_angle_alpha 90.000000
_cell_angle_beta 90.000000
_cell_angle_gamma 90.000000
_cell_volume 11107.279930
_symmetry_space_group_name_H-M "F D D D"
_symmetry_group_IT_number 70
_space_group.IT_coordinate_system_code '2'
_symmetry_cell_setting 'orthorhombic'
loop_
_space_group_symop_operation_xyz
x,y,z
1/4-x,1/4-y,z
x,1/4-y,1/4-z
1/4-x,y,1/4-z
-x,-y,-z
3/4+x,3/4+y,-z
-x,3/4+y,3/4+z
3/4+x,-y,3/4+z
x,1/2+y,1/2+z
1/4-x,3/4-y,1/2+z
x,3/4-y,3/4-z
1/4-x,1/2+y,3/4-z
-x,1/2-y,1/2-z
3/4+x,1/4+y,1/2-z
-x,1/4+y,1/4+z
3/4+x,1/2-y,1/4+z
1/2+x,y,1/2+z
3/4-x,1/4-y,1/2+z
1/2+x,1/4-y,3/4-z
3/4-x,y,3/4-z
1/2-x,-y,1/2-z
1/4+x,3/4+y,1/2-z
1/2-x,3/4+y,1/4+z
1/4+x,-y,1/4+z
1/2+x,1/2+y,z
3/4-x,3/4-y,z
1/2+x,3/4-y,1/4-z
3/4-x,1/2+y,1/4-z
1/2-x,1/2-y,-z
1/4+x,1/4+y,-z
1/2-x,1/4+y,3/4+z
1/4+x,1/2-y,3/4+z
loop_
_atom_site_type_symbol
_atom_site_label
_atom_site_fract_x
_atom_site_fract_y
_atom_site_fract_z
Si Si1 0.178784 0.965192 0.492407
Si Si2 0.178635 0.009853 0.858841
Si Si3 0.011750 0.105510 0.303759
Si Si4 0.732511 0.981911 0.879458
Si Si5 0.561191 0.734005 0.050353
Si Si6 0.625000 0.125000 0.979225
Si Si7 0.625000 0.125000 0.625000
Si Si8 0.649067 0.900244 0.457988
O O1 0.214720 0.924565 0.534702
O O2 0.200335 0.997356 0.432059
O O3 0.145365 0.891948 0.471810
O O4 0.151079 0.049336 0.513594
O O5 0.218947 0.048294 0.892069
O O6 0.157100 0.076244 0.814227
O O7 0.147112 0.979748 0.910969
O O8 0.180820 0.920727 0.820450
O O9 0.021556 0.207314 0.322125
O O10 0.038714 0.078733 0.247142
O O11 0.733711 0.875000 0.875000
O O12 0.776815 0.013048 0.903885
O O13 0.596433 0.683096 0.084002
O O14 0.580689 0.814681 0.016162
#
# Coordination Sequence:
#
# PCOD9514291 Si02
#       8
#    32  32  32  32  32  16   8  32
#     4  10  22  35  64  93 126 164 210 267 323 370
#     4   9  18  36  62  88 124 157 215 261 310 374
#     4  10  22  41  61  91 128 173 201 260 322 381
#     4  11  23  39  60  93 129 162 208 259 315 384
#     4  10  24  41  59  86 128 166 210 245 313 384
#     4  10  18  35  58  94 123 159 211 276 300 366
#     4  12  24  42  56  88 124 178 194 252 304 394
#     4   9  20  36  61  94 117 158 215 264 304 371
#
# _framework density 19.446705000000001
#
# number of rings (size 3 to 8) (size 9 to 14) (size 15 to 20)
#    0.000    2.074    2.222    0.000    6.222    5.926 
#    0.000    0.741   16.296    0.000    0.000    0.000 
#    0.000    0.000    0.000    0.000    0.000    0.000 
#
# Total GULP energy -300796.946788 kJ/mol
# GULP energy per Si atom -5570.313829 kJ/mol
# Density = 1.940244 g / cm^3
# Si number density = 19.446705 Si / 1000 Ang^3
#
#
#
# Elastic Constant Matrix: (Units=GPa)
#
#
# Indices 1 2 3 4 5 6 
#
# 1 93.8570 43.5036 19.7714 0.0000 0.0000 0.0000
# 2 43.5036 84.3299 24.0818 0.0000 0.0000 0.0000
# 3 19.7714 24.0818 38.2838 0.0000 0.0000 0.0000
# 4 0.0000 0.0000 0.0000 4.8329 0.0000 0.0000
# 5 0.0000 0.0000 0.0000 0.0000 15.1243 0.0000
# 6 0.0000 0.0000 0.0000 0.0000 0.0000 11.1648
#
#
#
# Elastic Compliance Matrix: (Units=1/GPa)
#
#
# Indices 1 2 3 4 5 6 
#
# 1 0.014348 -0.006443 -0.003357 0.000000 0.000000 0.000000
# 2 -0.006443 0.017348 -0.007585 0.000000 0.000000 0.000000
# 3 -0.003357 -0.007585 0.032626 0.000000 0.000000 0.000000
# 4 0.000000 0.000000 0.000000 0.206915 0.000000 0.000000
# 5 0.000000 0.000000 0.000000 0.000000 0.066119 0.000000
# 6 0.000000 0.000000 0.000000 0.000000 0.000000 0.089567
#
#
# Mechanical properties :
#
#
# Convention : Reuss Voigt Hill
#
# Bulk Modulus (GPa) = 33.83927 43.46491 38.65209
# Shear Modulus (GPa) = 10.60348 14.83202 12.71775
#
# Velocity S-wave (km/s) = 2.33761 2.76470 2.56008
# Velocity P-wave (km/s) = 4.97239 5.70883 5.35329
#
# Compressibility (1/GPa) = 0.02955146
#
# Stress axis : x y z
#
# Youngs Moduli (GPa) = 69.69540 57.64334 30.65080
#
# Poissons Ratio (x) = 0.37141 0.10290
# Poissons Ratio (y) = 0.44906 0.23249
# Poissons Ratio (z) = 0.23397 0.43722
#
# Static dielectric constant tensor:
#      x y z
#    x 1.665730 0.000000 0.000000 
#    y 0.000000 1.778430 0.000000 
#    z 0.000000 0.000000 1.678800 
# 
# From -- ./inp_files/55152.got.cif
#   From: 2010.05.17/outbox.cif.g08.bks.cpg/sg70_28_cif.got.tgz:55152.got - 2010.06.03 15:57:51.
