data_PCOD9514954
_publ_section_title
;
Structure prediction by ZEFSAII (Michael W. Deem and Ramdas Pophale) SiO2 
 PCOD9514954
Probable space group: F D D D
;
_chemical_formula_sum "Si O2"
_cell_formula_units_Z 160
_cell_length_a 19.271614
_cell_length_b 17.217372
_cell_length_c 20.361762
_cell_angle_alpha 90.000000
_cell_angle_beta 90.000000
_cell_angle_gamma 90.000000
_cell_volume 6756.165946
_symmetry_space_group_name_H-M "F D D D"
_symmetry_group_IT_number 70
_space_group.IT_coordinate_system_code '2'
_symmetry_cell_setting 'orthorhombic'
loop_
_space_group_symop_operation_xyz
x,y,z
1/4-x,1/4-y,z
x,1/4-y,1/4-z
1/4-x,y,1/4-z
-x,-y,-z
3/4+x,3/4+y,-z
-x,3/4+y,3/4+z
3/4+x,-y,3/4+z
x,1/2+y,1/2+z
1/4-x,3/4-y,1/2+z
x,3/4-y,3/4-z
1/4-x,1/2+y,3/4-z
-x,1/2-y,1/2-z
3/4+x,1/4+y,1/2-z
-x,1/4+y,1/4+z
3/4+x,1/2-y,1/4+z
1/2+x,y,1/2+z
3/4-x,1/4-y,1/2+z
1/2+x,1/4-y,3/4-z
3/4-x,y,3/4-z
1/2-x,-y,1/2-z
1/4+x,3/4+y,1/2-z
1/2-x,3/4+y,1/4+z
1/4+x,-y,1/4+z
1/2+x,1/2+y,z
3/4-x,3/4-y,z
1/2+x,3/4-y,1/4-z
3/4-x,1/2+y,1/4-z
1/2-x,1/2-y,-z
1/4+x,1/4+y,-z
1/2-x,1/4+y,3/4+z
1/4+x,1/2-y,3/4+z
loop_
_atom_site_type_symbol
_atom_site_label
_atom_site_fract_x
_atom_site_fract_y
_atom_site_fract_z
Si Si1 0.857255 0.048044 0.739758
Si Si2 0.684822 0.030205 0.381154
Si Si3 0.469296 0.792457 0.350895
Si Si4 0.476840 0.168380 0.215613
Si Si5 0.957139 0.429004 0.685268
O O1 0.788990 0.057070 0.693459
O O2 0.904230 0.126612 0.738245
O O3 0.903514 0.983238 0.702074
O O4 0.830600 0.011498 0.807307
O O5 0.724492 0.109670 0.367309
O O6 0.619285 0.041540 0.331800
O O7 0.720947 0.951535 0.357890
O O8 0.444439 0.875000 0.375000
O O9 0.491886 0.746815 0.416065
O O10 0.500000 0.250000 0.250000
O O11 0.532003 0.106346 0.243179
#
# Coordination Sequence:
#
# PCOD9514954 Si02
#       5
#    32  32  32  32  32
#     4  10  20  38  66  92 129 180 226 275 337 416
#     4   9  18  38  64  90 123 168 228 267 335 405
#     4  10  21  40  62  94 138 177 222 279 345 409
#     4  10  20  37  65  91 121 169 215 282 334 392
#     4   9  19  37  60  92 127 163 216 276 328 395
#
# _framework density 23.682071000000001
#
# number of rings (size 3 to 8) (size 9 to 14) (size 15 to 20)
#    0.000    2.400    0.000    3.000    0.000    0.800 
#   21.600    1.000    4.400    0.000    0.000    0.000 
#    0.000    0.000    0.000    0.000    0.000    0.000 
#
# Total GULP energy -223123.070095 kJ/mol
# GULP energy per Si atom -5578.076752 kJ/mol
# Density = 2.362817 g / cm^3
# Si number density = 23.682071 Si / 1000 Ang^3
#
#
#
# Elastic Constant Matrix: (Units=GPa)
#
#
# Indices 1 2 3 4 5 6 
#
# 1 77.3755 32.0083 22.8843 0.0000 0.0000 0.0000
# 2 32.0083 146.0019 16.7959 0.0000 0.0000 0.0000
# 3 22.8843 16.7959 73.9564 0.0000 0.0000 0.0000
# 4 0.0000 0.0000 0.0000 37.2565 0.0000 0.0000
# 5 0.0000 0.0000 0.0000 0.0000 34.3773 0.0000
# 6 0.0000 0.0000 0.0000 0.0000 0.0000 46.8247
#
#
#
# Elastic Compliance Matrix: (Units=1/GPa)
#
#
# Indices 1 2 3 4 5 6 
#
# 1 0.015328 -0.002890 -0.004087 0.000000 0.000000 0.000000
# 2 -0.002890 0.007578 -0.000827 0.000000 0.000000 0.000000
# 3 -0.004087 -0.000827 0.014974 0.000000 0.000000 0.000000
# 4 0.000000 0.000000 0.000000 0.026841 0.000000 0.000000
# 5 0.000000 0.000000 0.000000 0.000000 0.029089 0.000000
# 6 0.000000 0.000000 0.000000 0.000000 0.000000 0.021356
#
#
# Mechanical properties :
#
#
# Convention : Reuss Voigt Hill
#
# Bulk Modulus (GPa) = 44.89777 48.96785 46.93281
# Shear Modulus (GPa) = 36.18008 38.73474 37.45741
#
# Velocity S-wave (km/s) = 3.91287 4.04866 3.98135
# Velocity P-wave (km/s) = 6.27804 6.52515 6.40279
#
# Compressibility (1/GPa) = 0.02227282
#
# Stress axis : x y z
#
# Youngs Moduli (GPa) = 65.23883 131.96141 66.78362
#
# Poissons Ratio (x) = 0.38141 0.27292
# Poissons Ratio (y) = 0.18856 0.05521
# Poissons Ratio (z) = 0.26661 0.10908
#
# Static dielectric constant tensor:
#      x y z
#    x 1.974160 0.000000 0.000000 
#    y 0.000000 1.936390 0.000000 
#    z 0.000000 0.000000 1.915250 
# 
# From -- ./inp_files/44720.got.cif
#   From: 2010.05.17/outbox.cif.g08.bks.cpg/sg70_23_cif.got.tgz:44720.got - 2010.06.03 15:57:51.
