data_PCOD9514496
_publ_section_title
;
Structure prediction by ZEFSAII (Michael W. Deem and Ramdas Pophale) SiO2 
 PCOD9514496
Probable space group: F D D D
;
_chemical_formula_sum "Si O2"
_cell_formula_units_Z 160
_cell_length_a 17.484933
_cell_length_b 20.138709
_cell_length_c 20.856306
_cell_angle_alpha 90.000000
_cell_angle_beta 90.000000
_cell_angle_gamma 90.000000
_cell_volume 7344.005426
_symmetry_space_group_name_H-M "F D D D"
_symmetry_group_IT_number 70
_space_group.IT_coordinate_system_code '2'
_symmetry_cell_setting 'orthorhombic'
loop_
_space_group_symop_operation_xyz
x,y,z
1/4-x,1/4-y,z
x,1/4-y,1/4-z
1/4-x,y,1/4-z
-x,-y,-z
3/4+x,3/4+y,-z
-x,3/4+y,3/4+z
3/4+x,-y,3/4+z
x,1/2+y,1/2+z
1/4-x,3/4-y,1/2+z
x,3/4-y,3/4-z
1/4-x,1/2+y,3/4-z
-x,1/2-y,1/2-z
3/4+x,1/4+y,1/2-z
-x,1/4+y,1/4+z
3/4+x,1/2-y,1/4+z
1/2+x,y,1/2+z
3/4-x,1/4-y,1/2+z
1/2+x,1/4-y,3/4-z
3/4-x,y,3/4-z
1/2-x,-y,1/2-z
1/4+x,3/4+y,1/2-z
1/2-x,3/4+y,1/4+z
1/4+x,-y,1/4+z
1/2+x,1/2+y,z
3/4-x,3/4-y,z
1/2+x,3/4-y,1/4-z
3/4-x,1/2+y,1/4-z
1/2-x,1/2-y,-z
1/4+x,1/4+y,-z
1/2-x,1/4+y,3/4+z
1/4+x,1/2-y,3/4+z
loop_
_atom_site_type_symbol
_atom_site_label
_atom_site_fract_x
_atom_site_fract_y
_atom_site_fract_z
Si Si1 0.655603 0.199953 0.856074
Si Si2 0.407136 0.079554 0.561783
Si Si3 0.480756 0.383430 0.301815
Si Si4 0.573056 0.850819 0.567165
Si Si5 0.896883 0.981189 0.501119
O O1 0.625000 0.125000 0.862434
O O2 0.598391 0.249053 0.817150
O O3 0.505783 0.063076 0.836593
O O4 0.652344 0.238256 0.923469
O O5 0.431541 0.125000 0.625000
O O6 0.317378 0.095064 0.552773
O O7 0.444748 0.103389 0.494965
O O8 0.455979 0.375000 0.375000
O O9 0.427000 0.434299 0.264237
O O10 0.467934 0.312421 0.270651
O O11 0.625000 0.881956 0.625000
O O12 0.629983 0.794984 0.540096
#
# Coordination Sequence:
#
# PCOD9514496 Si02
#       5
#    32  32  32  32  32
#     4  12  26  45  69  95 134 189 237 285 346 405
#     4  11  24  43  67  99 141 182 227 285 347 410
#     4  10  19  34  62  98 138 172 206 267 353 430
#     4  12  26  40  69 108 138 178 234 281 350 424
#     4  11  20  37  64  99 138 170 208 279 353 420
#
# _framework density 21.786476
#
# number of rings (size 3 to 8) (size 9 to 14) (size 15 to 20)
#    0.000    0.800    6.000    3.600    2.800    2.400 
#    0.000    0.000    0.000    0.000    0.000    0.000 
#    0.000    0.000    0.000    0.000    0.000    0.000 
#
# Total GULP energy -223201.307868 kJ/mol
# GULP energy per Si atom -5580.032697 kJ/mol
# Density = 2.173689 g / cm^3
# Si number density = 21.786476 Si / 1000 Ang^3
#
#
#
# Elastic Constant Matrix: (Units=GPa)
#
#
# Indices 1 2 3 4 5 6 
#
# 1 58.9997 -14.1621 15.2410 0.0000 0.0000 0.0000
# 2 -14.1621 66.1271 2.6023 0.0000 0.0000 0.0000
# 3 15.2410 2.6023 109.5964 0.0000 0.0000 0.0000
# 4 0.0000 0.0000 0.0000 32.3086 0.0000 0.0000
# 5 0.0000 0.0000 0.0000 0.0000 29.9926 0.0000
# 6 0.0000 0.0000 0.0000 0.0000 0.0000 26.9750
#
#
#
# Elastic Compliance Matrix: (Units=1/GPa)
#
#
# Indices 1 2 3 4 5 6 
#
# 1 0.018626 0.004095 -0.002688 0.000000 0.000000 0.000000
# 2 0.004095 0.016037 -0.000950 0.000000 0.000000 0.000000
# 3 -0.002688 -0.000950 0.009521 0.000000 0.000000 0.000000
# 4 0.000000 0.000000 0.000000 0.030951 0.000000 0.000000
# 5 0.000000 0.000000 0.000000 0.000000 0.033342 0.000000
# 6 0.000000 0.000000 0.000000 0.000000 0.000000 0.037071
#
#
# Mechanical properties :
#
#
# Convention : Reuss Voigt Hill
#
# Bulk Modulus (GPa) = 22.17385 26.89838 24.53611
# Shear Modulus (GPa) = 31.31522 33.25803 32.28663
#
# Velocity S-wave (km/s) = 3.79538 3.91134 3.85380
# Velocity P-wave (km/s) = 5.42277 5.72462 5.57574
#
# Compressibility (1/GPa) = 0.04509817
#
# Stress axis : x y z
#
# Youngs Moduli (GPa) = 53.68722 62.35666 105.03442
#
# Poissons Ratio (x) = -0.25534 0.28228
# Poissons Ratio (y) = -0.21984 0.09981
# Poissons Ratio (z) = 0.14428 0.05925
#
# Static dielectric constant tensor:
#      x y z
#    x 1.807150 0.000000 0.000000 
#    y 0.000000 1.967200 0.000000 
#    z 0.000000 0.000000 1.704120 
# 
# From -- ./inp_files/43675.got.cif
#   From: 2010.05.17/outbox.cif.g08.bks.cpg/sg70_22_cif.got.tgz:43675.got - 2010.06.03 15:57:51.
