data_PCOD9514608
_publ_section_title
;
Structure prediction by ZEFSAII (Michael W. Deem and Ramdas Pophale) SiO2 
 PCOD9514608
Probable space group: F D D D
;
_chemical_formula_sum "Si O2"
_cell_formula_units_Z 112
_cell_length_a 35.960882
_cell_length_b 11.153002
_cell_length_c 11.749441
_cell_angle_alpha 90.000000
_cell_angle_beta 90.000000
_cell_angle_gamma 90.000000
_cell_volume 4712.369320
_symmetry_space_group_name_H-M "F D D D"
_symmetry_group_IT_number 70
_space_group.IT_coordinate_system_code '2'
_symmetry_cell_setting 'orthorhombic'
loop_
_space_group_symop_operation_xyz
x,y,z
1/4-x,1/4-y,z
x,1/4-y,1/4-z
1/4-x,y,1/4-z
-x,-y,-z
3/4+x,3/4+y,-z
-x,3/4+y,3/4+z
3/4+x,-y,3/4+z
x,1/2+y,1/2+z
1/4-x,3/4-y,1/2+z
x,3/4-y,3/4-z
1/4-x,1/2+y,3/4-z
-x,1/2-y,1/2-z
3/4+x,1/4+y,1/2-z
-x,1/4+y,1/4+z
3/4+x,1/2-y,1/4+z
1/2+x,y,1/2+z
3/4-x,1/4-y,1/2+z
1/2+x,1/4-y,3/4-z
3/4-x,y,3/4-z
1/2-x,-y,1/2-z
1/4+x,3/4+y,1/2-z
1/2-x,3/4+y,1/4+z
1/4+x,-y,1/4+z
1/2+x,1/2+y,z
3/4-x,3/4-y,z
1/2+x,3/4-y,1/4-z
3/4-x,1/2+y,1/4-z
1/2-x,1/2-y,-z
1/4+x,1/4+y,-z
1/2-x,1/4+y,3/4+z
1/4+x,1/2-y,3/4+z
loop_
_atom_site_type_symbol
_atom_site_label
_atom_site_fract_x
_atom_site_fract_y
_atom_site_fract_z
Si Si1 0.091098 0.557713 0.002086
Si Si2 0.775614 0.443090 0.076639
Si Si3 0.875000 0.658706 0.875000
Si Si4 0.545902 0.313690 0.693039
O O1 0.125000 0.625000 0.937740
O O2 0.088509 0.625000 0.125000
O O3 0.106673 0.427142 0.028388
O O4 0.050308 0.577681 0.952515
O O5 0.730945 0.438507 0.082932
O O6 0.784126 0.474728 0.207140
O O7 0.790413 0.552952 0.998287
O O8 0.911603 0.719748 0.829434
#
# Coordination Sequence:
#
# PCOD9514608 Si02
#       4
#    32  32  16  32
#     4   9  16  33  58  78 106 143 173 230 266 316
#     4  10  20  38  56  77 111 152 178 215 285 321
#     4  10  19  38  56  81 106 142 184 235 268 312
#     4  10  21  37  58  78 113 146 180 225 268 335
#
# _framework density 23.767237000000002
#
# number of rings (size 3 to 8) (size 9 to 14) (size 15 to 20)
#    0.000    2.571    5.714    0.000    0.000    1.143 
#    5.143    0.000    0.000    0.000    0.000    0.000 
#    0.000    0.000    0.000    0.000    0.000    0.000 
#
# Total GULP energy -156048.948190 kJ/mol
# GULP energy per Si atom -5573.176721 kJ/mol
# Density = 2.371314 g / cm^3
# Si number density = 23.767237 Si / 1000 Ang^3
#
#
#
# Elastic Constant Matrix: (Units=GPa)
#
#
# Indices 1 2 3 4 5 6 
#
# 1 188.3271 10.4159 45.5977 0.0000 0.0000 0.0000
# 2 10.4159 22.6359 4.6183 0.0000 0.0000 0.0000
# 3 45.5977 4.6183 29.9225 0.0000 0.0000 0.0000
# 4 0.0000 0.0000 0.0000 7.4804 0.0000 0.0000
# 5 0.0000 0.0000 0.0000 0.0000 -41.8099 0.0000
# 6 0.0000 0.0000 0.0000 0.0000 0.0000 -17.3386
#
#
#
# Elastic Compliance Matrix: (Units=1/GPa)
#
#
# Indices 1 2 3 4 5 6 
#
# 1 0.008452 -0.001302 -0.012678 0.000000 0.000000 0.000000
# 2 -0.001302 0.045815 -0.005087 0.000000 0.000000 0.000000
# 3 -0.012678 -0.005087 0.053524 0.000000 0.000000 0.000000
# 4 0.000000 0.000000 0.000000 0.133682 0.000000 0.000000
# 5 0.000000 0.000000 0.000000 0.000000 -0.023918 0.000000
# 6 0.000000 0.000000 0.000000 0.000000 0.000000 -0.057675
#
#
# Mechanical properties :
#
#
# Convention : Reuss Voigt Hill
#
# Bulk Modulus (GPa) = 14.35608 40.23879 27.29744
# Shear Modulus (GPa) = 22.60062 1.68329 12.14195
#
# Velocity S-wave (km/s) = 3.08704 0.84248 2.26269
# Velocity P-wave (km/s) = 4.33126 4.23243 4.28213
#
# Compressibility (1/GPa) = 0.06965688
#
# Stress axis : x y z
#
# Youngs Moduli (GPa) = 118.32183 21.82704 18.68311
#
# Poissons Ratio (x) = 0.02843 0.23686
# Poissons Ratio (y) = 0.15410 0.09503
# Poissons Ratio (z) = 1.50008 0.11102
#
# Static dielectric constant tensor:
#      x y z
#    x 2.148710 0.000000 0.000000 
#    y 0.000000 1.988710 0.000000 
#    z 0.000000 0.000000 1.972690 
# 
# From -- ./inp_files/21725.got.cif
#   From: 2010.05.17/outbox.cif.g08.bks.cpg/sg70_11_cif.got.tgz:21725.got - 2010.06.03 15:57:51.
