data_PCOD9514377
_publ_section_title
;
Structure prediction by ZEFSAII (Michael W. Deem and Ramdas Pophale) SiO2 
 PCOD9514377
Probable space group: F D D D
;
_chemical_formula_sum "Si O2"
_cell_formula_units_Z 152
_cell_length_a 22.248732
_cell_length_b 22.192461
_cell_length_c 14.180466
_cell_angle_alpha 90.000000
_cell_angle_beta 90.000000
_cell_angle_gamma 90.000000
_cell_volume 7001.663471
_symmetry_space_group_name_H-M "F D D D"
_symmetry_group_IT_number 70
_space_group.IT_coordinate_system_code '2'
_symmetry_cell_setting 'orthorhombic'
loop_
_space_group_symop_operation_xyz
x,y,z
1/4-x,1/4-y,z
x,1/4-y,1/4-z
1/4-x,y,1/4-z
-x,-y,-z
3/4+x,3/4+y,-z
-x,3/4+y,3/4+z
3/4+x,-y,3/4+z
x,1/2+y,1/2+z
1/4-x,3/4-y,1/2+z
x,3/4-y,3/4-z
1/4-x,1/2+y,3/4-z
-x,1/2-y,1/2-z
3/4+x,1/4+y,1/2-z
-x,1/4+y,1/4+z
3/4+x,1/2-y,1/4+z
1/2+x,y,1/2+z
3/4-x,1/4-y,1/2+z
1/2+x,1/4-y,3/4-z
3/4-x,y,3/4-z
1/2-x,-y,1/2-z
1/4+x,3/4+y,1/2-z
1/2-x,3/4+y,1/4+z
1/4+x,-y,1/4+z
1/2+x,1/2+y,z
3/4-x,3/4-y,z
1/2+x,3/4-y,1/4-z
3/4-x,1/2+y,1/4-z
1/2-x,1/2-y,-z
1/4+x,1/4+y,-z
1/2-x,1/4+y,3/4+z
1/4+x,1/2-y,3/4+z
loop_
_atom_site_type_symbol
_atom_site_label
_atom_site_fract_x
_atom_site_fract_y
_atom_site_fract_z
Si Si1 0.390848 0.975310 0.269548
Si Si2 0.466690 0.356795 0.720883
Si Si3 0.279094 0.833118 0.021727
Si Si4 0.576133 0.794496 0.850840
Si Si5 0.875000 0.375000 0.875000
Si Si6 0.935707 0.625000 0.625000
O O1 0.375000 0.992246 0.375000
O O2 0.433722 0.916315 0.264944
O O3 0.329098 0.949227 0.224815
O O4 0.420313 0.029832 0.212156
O O5 0.476485 0.372537 0.610974
O O6 0.523772 0.349731 0.789138
O O7 0.300635 0.769942 0.066222
O O8 0.219188 0.835363 0.959034
O O9 0.331386 0.841714 0.946094
O O10 0.641942 0.822762 0.833852
#
# Coordination Sequence:
#
# PCOD9514377 Si02
#       6
#    32  32  32  32   8  16
#     4  10  18  40  66  95 124 167 213 272 319 392
#     4  10  20  40  68  94 126 164 212 265 335 372
#     4  10  23  43  64  92 130 171 211 273 312 404
#     4  10  24  41  60  94 133 167 216 259 336 377
#     4  12  22  44  72  90 122 172 232 250 324 400
#     4  12  23  41  62  97 129 166 216 270 326 394
#
# _framework density 21.709126999999999
#
# number of rings (size 3 to 8) (size 9 to 14) (size 15 to 20)
#    0.000    1.684    2.105    3.789    0.000    6.737 
#    7.579    2.105    0.000    0.000    0.000    0.000 
#    0.000    0.000    0.000    0.000    0.000    0.000 
#
# Total GULP energy -211664.313562 kJ/mol
# GULP energy per Si atom -5570.113515 kJ/mol
# Density = 2.165972 g / cm^3
# Si number density = 21.709127 Si / 1000 Ang^3
#
#
#
# Elastic Constant Matrix: (Units=GPa)
#
#
# Indices 1 2 3 4 5 6 
#
# 1 139.4065 27.4406 69.8247 0.0000 0.0000 0.0000
# 2 27.4406 56.4628 41.0510 0.0000 0.0000 0.0000
# 3 69.8247 41.0510 201.8756 0.0000 0.0000 0.0000
# 4 0.0000 0.0000 0.0000 9.4125 0.0000 0.0000
# 5 0.0000 0.0000 0.0000 0.0000 47.1916 0.0000
# 6 0.0000 0.0000 0.0000 0.0000 0.0000 6.8655
#
#
#
# Elastic Compliance Matrix: (Units=1/GPa)
#
#
# Indices 1 2 3 4 5 6 
#
# 1 0.008960 -0.002466 -0.002598 0.000000 0.000000 0.000000
# 2 -0.002466 0.021462 -0.003511 0.000000 0.000000 0.000000
# 3 -0.002598 -0.003511 0.006566 0.000000 0.000000 0.000000
# 4 0.000000 0.000000 0.000000 0.106241 0.000000 0.000000
# 5 0.000000 0.000000 0.000000 0.000000 0.021190 0.000000
# 6 0.000000 0.000000 0.000000 0.000000 0.000000 0.145655
#
#
# Mechanical properties :
#
#
# Convention : Reuss Voigt Hill
#
# Bulk Modulus (GPa) = 50.40762 74.93084 62.66923
# Shear Modulus (GPa) = 14.97740 29.98917 22.48329
#
# Velocity S-wave (km/s) = 2.62947 3.72076 3.22166
# Velocity P-wave (km/s) = 5.69989 7.28351 6.53981
#
# Compressibility (1/GPa) = 0.01983827
#
# Stress axis : x y z
#
# Youngs Moduli (GPa) = 111.61118 46.59372 152.29917
#
# Poissons Ratio (x) = 0.11489 0.39560
# Poissons Ratio (y) = 0.27521 0.53478
# Poissons Ratio (z) = 0.28992 0.16361
#
# Static dielectric constant tensor:
#      x y z
#    x 1.757040 0.000000 0.000000 
#    y 0.000000 1.854150 0.000000 
#    z 0.000000 0.000000 1.735170 
# 
# From -- ./inp_files/27654.got.cif
#   From: 2010.05.17/outbox.cif.g08.bks.cpg/sg70_14_cif.got.tgz:27654.got - 2010.06.03 15:57:51.
