data_PCOD9514736
_publ_section_title
;
Structure prediction by ZEFSAII (Michael W. Deem and Ramdas Pophale) SiO2 
 PCOD9514736
Probable space group: F D D D
;
_chemical_formula_sum "Si O2"
_cell_formula_units_Z 192
_cell_length_a 17.366229
_cell_length_b 34.154774
_cell_length_c 17.885185
_cell_angle_alpha 90.000000
_cell_angle_beta 90.000000
_cell_angle_gamma 90.000000
_cell_volume 10608.411955
_symmetry_space_group_name_H-M "F D D D"
_symmetry_group_IT_number 70
_space_group.IT_coordinate_system_code '2'
_symmetry_cell_setting 'orthorhombic'
loop_
_space_group_symop_operation_xyz
x,y,z
1/4-x,1/4-y,z
x,1/4-y,1/4-z
1/4-x,y,1/4-z
-x,-y,-z
3/4+x,3/4+y,-z
-x,3/4+y,3/4+z
3/4+x,-y,3/4+z
x,1/2+y,1/2+z
1/4-x,3/4-y,1/2+z
x,3/4-y,3/4-z
1/4-x,1/2+y,3/4-z
-x,1/2-y,1/2-z
3/4+x,1/4+y,1/2-z
-x,1/4+y,1/4+z
3/4+x,1/2-y,1/4+z
1/2+x,y,1/2+z
3/4-x,1/4-y,1/2+z
1/2+x,1/4-y,3/4-z
3/4-x,y,3/4-z
1/2-x,-y,1/2-z
1/4+x,3/4+y,1/2-z
1/2-x,3/4+y,1/4+z
1/4+x,-y,1/4+z
1/2+x,1/2+y,z
3/4-x,3/4-y,z
1/2+x,3/4-y,1/4-z
3/4-x,1/2+y,1/4-z
1/2-x,1/2-y,-z
1/4+x,1/4+y,-z
1/2-x,1/4+y,3/4+z
1/4+x,1/2-y,3/4+z
loop_
_atom_site_type_symbol
_atom_site_label
_atom_site_fract_x
_atom_site_fract_y
_atom_site_fract_z
Si Si1 0.208349 0.760675 0.218252
Si Si2 0.867642 0.625000 0.625000
Si Si3 0.502370 0.839308 0.479203
Si Si4 0.779903 0.032162 0.305414
Si Si5 0.746779 0.079299 0.026249
Si Si6 0.783634 0.364062 0.100042
Si Si7 0.875000 0.375000 0.875000
Si Si8 0.875000 0.375000 0.375000
O O1 0.246020 0.792400 0.271233
O O2 0.243185 0.766469 0.136459
O O3 0.121687 0.777964 0.206980
O O4 0.223809 0.715784 0.237132
O O5 0.816446 0.592045 0.581994
O O6 0.921912 0.605819 0.688145
O O7 0.494279 0.855363 0.564810
O O8 0.430251 0.851556 0.430002
O O9 0.741921 0.075192 0.302654
O O10 0.750000 0.000000 0.250000
O O11 0.675455 0.098248 0.070856
O O12 0.755535 0.100871 0.946497
O O13 0.875000 0.375000 0.101691
#
# Coordination Sequence:
#
# PCOD9514736 Si02
#       8
#    32  16  32  32  32  32   8   8
#     4  10  22  36  56  89 121 158 203 247 302 369
#     4  10  24  40  62  88 124 170 200 256 306 382
#     4  10  22  43  63  88 114 162 212 252 312 359
#     4  10  21  34  56  84 127 164 194 241 302 370
#     4  11  22  36  58  92 127 161 199 251 308 372
#     4  11  21  37  62  91 118 159 209 258 300 363
#     4  10  20  32  52  82 132 162 200 218 308 380
#     4  10  20  44  72  78 112 154 216 258 300 376
#
# _framework density 18.098845000000001
#
# number of rings (size 3 to 8) (size 9 to 14) (size 15 to 20)
#    0.000    1.667    1.667    3.000    7.000    2.000 
#    0.000    1.667    0.000    4.000    0.000    0.000 
#    0.000    0.000    0.000    0.000    0.000    0.000 
#
# Total GULP energy -267330.889259 kJ/mol
# GULP energy per Si atom -5569.393526 kJ/mol
# Density = 1.805765 g / cm^3
# Si number density = 18.098845 Si / 1000 Ang^3
#
#
#
# Elastic Constant Matrix: (Units=GPa)
#
#
# Indices 1 2 3 4 5 6 
#
# 1 95.7728 63.4962 41.6657 0.0000 0.0000 0.0000
# 2 63.4962 188.7278 61.0238 0.0000 0.0000 0.0000
# 3 41.6657 61.0238 81.1585 0.0000 0.0000 0.0000
# 4 0.0000 0.0000 0.0000 27.3479 0.0000 0.0000
# 5 0.0000 0.0000 0.0000 0.0000 7.4581 0.0000
# 6 0.0000 0.0000 0.0000 0.0000 0.0000 13.9537
#
#
#
# Elastic Compliance Matrix: (Units=1/GPa)
#
#
# Indices 1 2 3 4 5 6 
#
# 1 0.014895 -0.003354 -0.005125 0.000000 0.000000 0.000000
# 2 -0.003354 0.007756 -0.004110 0.000000 0.000000 0.000000
# 3 -0.005125 -0.004110 0.018043 0.000000 0.000000 0.000000
# 4 0.000000 0.000000 0.000000 0.036566 0.000000 0.000000
# 5 0.000000 0.000000 0.000000 0.000000 0.134082 0.000000
# 6 0.000000 0.000000 0.000000 0.000000 0.000000 0.071666
#
#
# Mechanical properties :
#
#
# Convention : Reuss Voigt Hill
#
# Bulk Modulus (GPa) = 64.44955 77.55897 71.00426
# Shear Modulus (GPa) = 15.95628 23.05016 19.50322
#
# Velocity S-wave (km/s) = 2.97243 3.57258 3.28624
# Velocity P-wave (km/s) = 6.88967 7.74363 7.32910
#
# Compressibility (1/GPa) = 0.01551601
#
# Stress axis : x y z
#
# Youngs Moduli (GPa) = 67.13833 128.93232 55.42403
#
# Poissons Ratio (x) = 0.43246 0.28403
# Poissons Ratio (y) = 0.22519 0.22778
# Poissons Ratio (z) = 0.34406 0.52989
#
# Static dielectric constant tensor:
#      x y z
#    x 0.985680 0.000000 0.000000 
#    y 0.000000 1.643310 0.000000 
#    z 0.000000 0.000000 1.639680 
# 
# From -- ./inp_files/35542.got.cif
#   From: 2010.05.17/outbox.cif.g08.bks.cpg/sg70_18_cif.got.tgz:35542.got - 2010.06.03 15:57:51.
