data_PCOD9514061
_publ_section_title
;
Structure prediction by ZEFSAII (Michael W. Deem and Ramdas Pophale) SiO2 
 PCOD9514061
Probable space group: F D D D
;
_chemical_formula_sum "Si O2"
_cell_formula_units_Z 160
_cell_length_a 25.343150
_cell_length_b 9.522816
_cell_length_c 30.151486
_cell_angle_alpha 90.000000
_cell_angle_beta 90.000000
_cell_angle_gamma 90.000000
_cell_volume 7276.703981
_symmetry_space_group_name_H-M "F D D D"
_symmetry_group_IT_number 70
_space_group.IT_coordinate_system_code '2'
_symmetry_cell_setting 'orthorhombic'
loop_
_space_group_symop_operation_xyz
x,y,z
1/4-x,1/4-y,z
x,1/4-y,1/4-z
1/4-x,y,1/4-z
-x,-y,-z
3/4+x,3/4+y,-z
-x,3/4+y,3/4+z
3/4+x,-y,3/4+z
x,1/2+y,1/2+z
1/4-x,3/4-y,1/2+z
x,3/4-y,3/4-z
1/4-x,1/2+y,3/4-z
-x,1/2-y,1/2-z
3/4+x,1/4+y,1/2-z
-x,1/4+y,1/4+z
3/4+x,1/2-y,1/4+z
1/2+x,y,1/2+z
3/4-x,1/4-y,1/2+z
1/2+x,1/4-y,3/4-z
3/4-x,y,3/4-z
1/2-x,-y,1/2-z
1/4+x,3/4+y,1/2-z
1/2-x,3/4+y,1/4+z
1/4+x,-y,1/4+z
1/2+x,1/2+y,z
3/4-x,3/4-y,z
1/2+x,3/4-y,1/4-z
3/4-x,1/2+y,1/4-z
1/2-x,1/2-y,-z
1/4+x,1/4+y,-z
1/2-x,1/4+y,3/4+z
1/4+x,1/2-y,3/4+z
loop_
_atom_site_type_symbol
_atom_site_label
_atom_site_fract_x
_atom_site_fract_y
_atom_site_fract_z
Si Si1 0.619953 0.846724 0.459509
Si Si2 0.965298 0.375000 0.875000
Si Si3 0.625000 0.625000 0.386357
Si Si4 0.545331 0.179591 0.430593
Si Si5 0.737770 0.501577 0.487712
Si Si6 0.435607 0.016864 0.959661
O O1 0.640775 0.747149 0.420061
O O2 0.654725 0.983003 0.450227
O O3 0.557126 0.828192 0.460228
O O4 0.636050 0.797822 0.509003
O O5 0.931070 0.287444 0.840013
O O6 0.004689 0.272937 0.902063
O O7 0.575017 0.665729 0.355773
O O8 0.513508 0.149012 0.475571
O O9 0.780700 0.588349 0.459369
O O10 0.713583 0.636591 0.514439
#
# Coordination Sequence:
#
# PCOD9514061 Si02
#       6
#    32  16  16  32  32  32
#     4  11  18  32  52  72 100 139 165 194 259 309
#     4  10  16  30  43  72 106 120 158 201 234 298
#     4  12  18  32  52  71  98 132 171 210 244 290
#     4  10  21  31  48  76  97 128 173 211 242 297
#     4   9  17  30  46  68 100 128 163 199 248 295
#     4   9  17  27  47  71  99 134 156 195 250 303
#
# _framework density 21.987977000000001
#
# number of rings (size 3 to 8) (size 9 to 14) (size 15 to 20)
#    0.000    2.000    4.000    2.400    0.000    0.000 
#    0.000    9.000    0.000    0.000    0.000    0.000 
#    0.000    0.000    0.000    0.000    0.000    0.000 
#
# Total GULP energy -222744.440736 kJ/mol
# GULP energy per Si atom -5568.611018 kJ/mol
# Density = 2.193793 g / cm^3
# Si number density = 21.987977 Si / 1000 Ang^3
#
#
#
# Elastic Constant Matrix: (Units=GPa)
#
#
# Indices 1 2 3 4 5 6 
#
# 1 69.9954 19.2594 34.7527 0.0000 0.0000 0.0000
# 2 19.2594 30.8920 28.7365 0.0000 0.0001 0.0000
# 3 34.7527 28.7365 125.4543 0.0000 0.0000 0.0000
# 4 0.0000 0.0000 0.0000 9.2823 0.0000 0.0000
# 5 0.0000 0.0001 0.0000 0.0000 99.7217 0.0000
# 6 0.0000 0.0000 0.0000 0.0000 0.0000 23.5055
#
#
#
# Elastic Compliance Matrix: (Units=1/GPa)
#
#
# Indices 1 2 3 4 5 6 
#
# 1 0.018143 -0.008433 -0.003094 0.000000 0.000000 0.000000
# 2 -0.008433 0.045055 -0.007984 0.000000 0.000000 0.000000
# 3 -0.003094 -0.007984 0.010657 0.000000 0.000000 0.000000
# 4 0.000000 0.000000 0.000000 0.107732 0.000000 0.000000
# 5 0.000000 0.000000 0.000000 0.000000 0.010028 0.000000
# 6 0.000000 0.000000 0.000000 0.000000 0.000000 0.042543
#
#
# Mechanical properties :
#
#
# Convention : Reuss Voigt Hill
#
# Bulk Modulus (GPa) = 28.70862 43.53766 36.12314
# Shear Modulus (GPa) = 17.55663 36.07478 26.81570
#
# Velocity S-wave (km/s) = 2.82878 4.05490 3.49601
# Velocity P-wave (km/s) = 4.87382 6.46271 5.72367
#
# Compressibility (1/GPa) = 0.03483274
#
# Stress axis : x y z
#
# Youngs Moduli (GPa) = 55.11676 22.19487 93.83412
#
# Poissons Ratio (x) = 0.18717 0.29035
# Poissons Ratio (y) = 0.46479 0.74921
# Poissons Ratio (z) = 0.17055 0.17721
#
# Static dielectric constant tensor:
#      x y z
#    x 1.872010 0.000000 0.000000 
#    y 0.000000 1.894140 0.000000 
#    z 0.000000 0.000000 1.822110 
# 
# From -- ./inp_files/62163.got.cif
#   From: 2010.05.17/outbox.cif.g08.bks.cpg/sg70_32_cif.got.tgz:62163.got - 2010.06.03 15:57:51.
