data_PCOD9514383
_publ_section_title
;
Structure prediction by ZEFSAII (Michael W. Deem and Ramdas Pophale) SiO2 
 PCOD9514383
Probable space group: F D D D
;
_chemical_formula_sum "Si O2"
_cell_formula_units_Z 192
_cell_length_a 19.213273
_cell_length_b 18.748337
_cell_length_c 24.471798
_cell_angle_alpha 90.000000
_cell_angle_beta 90.000000
_cell_angle_gamma 90.000000
_cell_volume 8815.155631
_symmetry_space_group_name_H-M "F D D D"
_symmetry_group_IT_number 70
_space_group.IT_coordinate_system_code '2'
_symmetry_cell_setting 'orthorhombic'
loop_
_space_group_symop_operation_xyz
x,y,z
1/4-x,1/4-y,z
x,1/4-y,1/4-z
1/4-x,y,1/4-z
-x,-y,-z
3/4+x,3/4+y,-z
-x,3/4+y,3/4+z
3/4+x,-y,3/4+z
x,1/2+y,1/2+z
1/4-x,3/4-y,1/2+z
x,3/4-y,3/4-z
1/4-x,1/2+y,3/4-z
-x,1/2-y,1/2-z
3/4+x,1/4+y,1/2-z
-x,1/4+y,1/4+z
3/4+x,1/2-y,1/4+z
1/2+x,y,1/2+z
3/4-x,1/4-y,1/2+z
1/2+x,1/4-y,3/4-z
3/4-x,y,3/4-z
1/2-x,-y,1/2-z
1/4+x,3/4+y,1/2-z
1/2-x,3/4+y,1/4+z
1/4+x,-y,1/4+z
1/2+x,1/2+y,z
3/4-x,3/4-y,z
1/2+x,3/4-y,1/4-z
3/4-x,1/2+y,1/4-z
1/2-x,1/2-y,-z
1/4+x,1/4+y,-z
1/2-x,1/4+y,3/4+z
1/4+x,1/2-y,3/4+z
loop_
_atom_site_type_symbol
_atom_site_label
_atom_site_fract_x
_atom_site_fract_y
_atom_site_fract_z
Si Si1 0.828895 0.125000 0.125000
Si Si2 0.374640 0.277494 0.645746
Si Si3 0.875000 0.375000 0.047346
Si Si4 0.613767 0.437966 0.063974
Si Si5 0.438220 0.325990 0.758784
Si Si6 0.480019 0.188115 0.454449
Si Si7 0.496532 0.155826 0.014304
O O1 0.874766 0.193797 0.137138
O O2 0.782301 0.129354 0.069986
O O3 0.394809 0.312581 0.589166
O O4 0.420009 0.304861 0.696017
O O5 0.296028 0.299999 0.663957
O O6 0.944025 0.391547 0.013283
O O7 0.625000 0.464717 0.125000
O O8 0.579712 0.359868 0.070851
O O9 0.564650 0.499587 0.037789
O O10 0.681589 0.427103 0.025251
O O11 0.375000 0.375000 0.780460
O O12 0.498494 0.385015 0.754427
O O13 0.465552 0.268486 0.472558
#
# Coordination Sequence:
#
# PCOD9514383 Si02
#       7
#    16  32  16  32  32  32  32
#     4  10  22  45  68  94 136 175 224 278 324 394
#     4  10  20  41  72  90 131 181 219 266 331 404
#     4  12  24  41  70  96 127 178 232 274 338 390
#     4  12  24  40  67 100 136 169 221 280 336 390
#     4  10  18  41  67  91 132 175 214 259 333 403
#     4  10  21  44  65  94 132 176 215 268 337 403
#     4  11  26  45  65 100 133 172 230 278 330 397
#
# _framework density 21.780670000000001
#
# number of rings (size 3 to 8) (size 9 to 14) (size 15 to 20)
#    0.000    1.333    7.500    1.500    2.333    1.333 
#    6.000    0.000    0.000    0.000    0.000    0.000 
#    0.000    0.000    0.000    0.000    0.000    0.000 
#
# Total GULP energy -267647.009544 kJ/mol
# GULP energy per Si atom -5575.979365 kJ/mol
# Density = 2.173110 g / cm^3
# Si number density = 21.780670 Si / 1000 Ang^3
#
#
#
# Elastic Constant Matrix: (Units=GPa)
#
#
# Indices 1 2 3 4 5 6 
#
# 1 34.5220 -9.5249 6.1743 0.0000 0.0000 0.0000
# 2 -9.5249 96.5364 -9.2234 0.0000 0.0000 0.0000
# 3 6.1743 -9.2234 95.8555 0.0000 0.0000 0.0000
# 4 0.0000 0.0000 0.0000 22.3081 0.0000 0.0000
# 5 0.0000 0.0000 0.0000 0.0000 8.5169 0.0000
# 6 0.0000 0.0000 0.0000 0.0000 0.0000 33.2704
#
#
#
# Elastic Compliance Matrix: (Units=1/GPa)
#
#
# Indices 1 2 3 4 5 6 
#
# 1 0.030039 0.002805 -0.001665 0.000000 0.000000 0.000000
# 2 0.002805 0.010717 0.000851 0.000000 0.000000 0.000000
# 3 -0.001665 0.000851 0.010621 0.000000 0.000000 0.000000
# 4 0.000000 0.000000 0.000000 0.044827 0.000000 0.000000
# 5 0.000000 0.000000 0.000000 0.000000 0.117413 0.000000
# 6 0.000000 0.000000 0.000000 0.000000 0.000000 0.030057
#
#
# Mechanical properties :
#
#
# Convention : Reuss Voigt Hill
#
# Bulk Modulus (GPa) = 18.06441 22.41844 20.24142
# Shear Modulus (GPa) = 19.36893 28.78495 24.07694
#
# Velocity S-wave (km/s) = 2.98530 3.63930 3.32840
# Velocity P-wave (km/s) = 4.49383 5.28909 4.90760
#
# Compressibility (1/GPa) = 0.05535747
#
# Stress axis : x y z
#
# Youngs Moduli (GPa) = 33.29039 93.31155 94.14904
#
# Poissons Ratio (x) = -0.26172 0.15676
# Poissons Ratio (y) = -0.09337 -0.08008
# Poissons Ratio (z) = 0.05543 -0.07936
#
# Static dielectric constant tensor:
#      x y z
#    x 1.856740 0.000000 0.000000 
#    y 0.000000 1.826520 0.000000 
#    z 0.000000 0.000000 1.815480 
# 
# From -- ./inp_files/53029.got.cif
#   From: 2010.05.17/outbox.cif.g08.bks.cpg/sg70_27_cif.got.tgz:53029.got - 2010.06.03 15:57:51.
