data_PCOD9514441
_publ_section_title
;
Structure prediction by ZEFSAII (Michael W. Deem and Ramdas Pophale) SiO2 
 PCOD9514441
Probable space group: F D D D
;
_chemical_formula_sum "Si O2"
_cell_formula_units_Z 144
_cell_length_a 13.481988
_cell_length_b 28.954776
_cell_length_c 21.296527
_cell_angle_alpha 90.000000
_cell_angle_beta 90.000000
_cell_angle_gamma 90.000000
_cell_volume 8313.481429
_symmetry_space_group_name_H-M "F D D D"
_symmetry_group_IT_number 70
_space_group.IT_coordinate_system_code '2'
_symmetry_cell_setting 'orthorhombic'
loop_
_space_group_symop_operation_xyz
x,y,z
1/4-x,1/4-y,z
x,1/4-y,1/4-z
1/4-x,y,1/4-z
-x,-y,-z
3/4+x,3/4+y,-z
-x,3/4+y,3/4+z
3/4+x,-y,3/4+z
x,1/2+y,1/2+z
1/4-x,3/4-y,1/2+z
x,3/4-y,3/4-z
1/4-x,1/2+y,3/4-z
-x,1/2-y,1/2-z
3/4+x,1/4+y,1/2-z
-x,1/4+y,1/4+z
3/4+x,1/2-y,1/4+z
1/2+x,y,1/2+z
3/4-x,1/4-y,1/2+z
1/2+x,1/4-y,3/4-z
3/4-x,y,3/4-z
1/2-x,-y,1/2-z
1/4+x,3/4+y,1/2-z
1/2-x,3/4+y,1/4+z
1/4+x,-y,1/4+z
1/2+x,1/2+y,z
3/4-x,3/4-y,z
1/2+x,3/4-y,1/4-z
3/4-x,1/2+y,1/4-z
1/2-x,1/2-y,-z
1/4+x,1/4+y,-z
1/2-x,1/4+y,3/4+z
1/4+x,1/2-y,3/4+z
loop_
_atom_site_type_symbol
_atom_site_label
_atom_site_fract_x
_atom_site_fract_y
_atom_site_fract_z
Si Si1 0.846422 0.012224 0.622989
Si Si2 0.452529 0.151376 0.187353
Si Si3 0.625000 0.768662 0.125000
Si Si4 0.089781 0.310081 0.995541
Si Si5 0.617294 0.676647 0.789411
O O1 0.887581 0.056036 0.585407
O O2 0.877843 0.022354 0.694581
O O3 0.727472 0.008895 0.618189
O O4 0.893361 0.966204 0.591738
O O5 0.494749 0.125000 0.125000
O O6 0.388272 0.111432 0.220729
O O7 0.533737 0.170763 0.235995
O O8 0.635634 0.799390 0.062771
O O9 0.970763 0.311029 0.005083
O O10 0.625000 0.625000 0.817926
#
# Coordination Sequence:
#
# PCOD9514441 Si02
#       5
#    32  32  16  32  32
#     4  10  19  33  53  75 101 135 170 206 248 301
#     4   9  18  33  54  80 104 129 165 210 261 308
#     4  10  20  36  51  70 102 140 175 202 242 298
#     4   9  19  34  53  73  99 136 167 207 257 299
#     4   9  18  33  53  79 104 128 163 210 262 310
#
# _framework density 17.321262999999998
#
# number of rings (size 3 to 8) (size 9 to 14) (size 15 to 20)
#    0.000    2.667    0.000    1.333    0.000   10.222 
#    0.000   18.333    0.000    0.000    0.000    0.000 
#    0.000    0.000    0.000    0.000    0.000    0.000 
#
# Total GULP energy -200442.786739 kJ/mol
# GULP energy per Si atom -5567.855187 kJ/mol
# Density = 1.728184 g / cm^3
# Si number density = 17.321263 Si / 1000 Ang^3
#
#
#
# Elastic Constant Matrix: (Units=GPa)
#
#
# Indices 1 2 3 4 5 6 
#
# 1 57.0981 43.9971 26.0901 0.0000 0.0000 0.0000
# 2 43.9971 126.6380 85.3234 0.0000 0.0000 0.0000
# 3 26.0901 85.3234 125.7405 0.0000 0.0000 0.0000
# 4 0.0000 0.0000 0.0000 29.2053 0.0000 0.0000
# 5 0.0000 0.0000 0.0000 0.0000 19.2445 0.0000
# 6 0.0000 0.0000 0.0000 0.0000 0.0000 17.2960
#
#
#
# Elastic Compliance Matrix: (Units=1/GPa)
#
#
# Indices 1 2 3 4 5 6 
#
# 1 0.024023 -0.009189 0.001251 0.000000 0.000000 0.000000
# 2 -0.009189 0.018062 -0.010350 0.000000 0.000000 0.000000
# 3 0.001251 -0.010350 0.014716 0.000000 0.000000 0.000000
# 4 0.000000 0.000000 0.000000 0.034240 0.000000 0.000000
# 5 0.000000 0.000000 0.000000 0.000000 0.051963 0.000000
# 6 0.000000 0.000000 0.000000 0.000000 0.000000 0.057817
#
#
# Mechanical properties :
#
#
# Convention : Reuss Voigt Hill
#
# Bulk Modulus (GPa) = 49.44245 68.92197 59.18221
# Shear Modulus (GPa) = 20.48015 23.42023 21.95019
#
# Velocity S-wave (km/s) = 3.44229 3.68109 3.56369
# Velocity P-wave (km/s) = 6.66374 7.61210 7.15365
#
# Compressibility (1/GPa) = 0.02022553
#
# Stress axis : x y z
#
# Youngs Moduli (GPa) = 41.62739 55.36429 67.95120
#
# Poissons Ratio (x) = 0.50873 -0.08498
# Poissons Ratio (y) = 0.38250 0.70328
# Poissons Ratio (z) = -0.05206 0.57301
#
# Static dielectric constant tensor:
#      x y z
#    x 1.580070 0.000000 0.000000 
#    y 0.000000 1.595840 0.000000 
#    z 0.000000 0.000000 1.622230 
# 
# From -- ./inp_files/19200.got.cif
#   From: 2010.05.17/outbox.cif.g08.bks.cpg/sg70_10_cif.got.tgz:19200.got - 2010.06.03 15:57:51.
