data_PCOD9514690
_publ_section_title
;
Structure prediction by ZEFSAII (Michael W. Deem and Ramdas Pophale) SiO2 
 PCOD9514690
Probable space group: F D D D
;
_chemical_formula_sum "Si O2"
_cell_formula_units_Z 112
_cell_length_a 19.965132
_cell_length_b 10.630931
_cell_length_c 25.624312
_cell_angle_alpha 90.000000
_cell_angle_beta 90.000000
_cell_angle_gamma 90.000000
_cell_volume 5438.707454
_symmetry_space_group_name_H-M "F D D D"
_symmetry_group_IT_number 70
_space_group.IT_coordinate_system_code '2'
_symmetry_cell_setting 'orthorhombic'
loop_
_space_group_symop_operation_xyz
x,y,z
1/4-x,1/4-y,z
x,1/4-y,1/4-z
1/4-x,y,1/4-z
-x,-y,-z
3/4+x,3/4+y,-z
-x,3/4+y,3/4+z
3/4+x,-y,3/4+z
x,1/2+y,1/2+z
1/4-x,3/4-y,1/2+z
x,3/4-y,3/4-z
1/4-x,1/2+y,3/4-z
-x,1/2-y,1/2-z
3/4+x,1/4+y,1/2-z
-x,1/4+y,1/4+z
3/4+x,1/2-y,1/4+z
1/2+x,y,1/2+z
3/4-x,1/4-y,1/2+z
1/2+x,1/4-y,3/4-z
3/4-x,y,3/4-z
1/2-x,-y,1/2-z
1/4+x,3/4+y,1/2-z
1/2-x,3/4+y,1/4+z
1/4+x,-y,1/4+z
1/2+x,1/2+y,z
3/4-x,3/4-y,z
1/2+x,3/4-y,1/4-z
3/4-x,1/2+y,1/4-z
1/2-x,1/2-y,-z
1/4+x,1/4+y,-z
1/2-x,1/4+y,3/4+z
1/4+x,1/2-y,3/4+z
loop_
_atom_site_type_symbol
_atom_site_label
_atom_site_fract_x
_atom_site_fract_y
_atom_site_fract_z
Si Si1 0.835067 0.490048 0.098573
Si Si2 0.683817 0.396461 0.089366
Si Si3 0.940035 0.586976 0.022792
Si Si4 0.517274 0.125000 0.125000
O O1 0.838279 0.625000 0.125000
O O2 0.875000 0.375000 0.125600
O O3 0.757910 0.453201 0.094460
O O4 0.877230 0.510006 0.045293
O O5 0.625000 0.450948 0.125000
O O6 0.693339 0.250198 0.107872
O O7 0.666154 0.409495 0.028341
O O8 0.972543 0.654044 0.073391
O O9 0.000000 0.500000 0.000000
#
# Coordination Sequence:
#
# PCOD9514690 Si02
#       4
#    32  32  32  16
#     4  12  23  44  71  97 139 181 224 285 350 411
#     4  11  25  39  68 103 140 180 233 286 343 416
#     4  10  20  38  69 100 130 176 235 283 342 399
#     4  10  19  40  68  98 131 174 230 294 339 398
#
# _framework density 20.593128
#
# number of rings (size 3 to 8) (size 9 to 14) (size 15 to 20)
#    0.000    1.143    7.143    0.429    4.000    0.571 
#    0.000    1.429    6.286    0.000    0.000    0.000 
#    0.000    0.000    0.000    0.000    0.000    0.000 
#
# Total GULP energy -156000.661199 kJ/mol
# GULP energy per Si atom -5571.452186 kJ/mol
# Density = 2.054626 g / cm^3
# Si number density = 20.593128 Si / 1000 Ang^3
#
#
#
# Elastic Constant Matrix: (Units=GPa)
#
#
# Indices 1 2 3 4 5 6 
#
# 1 170.1579 39.0569 57.1486 0.0000 0.0000 0.0000
# 2 39.0569 98.2159 32.1203 0.0000 0.0000 0.0000
# 3 57.1486 32.1203 149.4908 0.0000 0.0000 0.0000
# 4 0.0000 0.0000 0.0000 17.7349 0.0000 0.0000
# 5 0.0000 0.0000 0.0000 0.0000 29.4268 0.0000
# 6 0.0000 0.0000 0.0000 0.0000 0.0000 21.2385
#
#
#
# Elastic Compliance Matrix: (Units=1/GPa)
#
#
# Indices 1 2 3 4 5 6 
#
# 1 0.007120 -0.002088 -0.002273 0.000000 0.000000 0.000000
# 2 -0.002088 0.011563 -0.001686 0.000000 0.000000 0.000000
# 3 -0.002273 -0.001686 0.007921 0.000000 0.000000 0.000000
# 4 0.000000 0.000000 0.000000 0.056386 0.000000 0.000000
# 5 0.000000 0.000000 0.000000 0.000000 0.033983 0.000000
# 6 0.000000 0.000000 0.000000 0.000000 0.000000 0.047084
#
#
# Mechanical properties :
#
#
# Convention : Reuss Voigt Hill
#
# Bulk Modulus (GPa) = 68.92278 74.94623 71.93451
# Shear Modulus (GPa) = 27.62622 32.98264 30.30443
#
# Velocity S-wave (km/s) = 3.66666 4.00638 3.84028
# Velocity P-wave (km/s) = 7.17407 7.60751 7.39397
#
# Compressibility (1/GPa) = 0.01450899
#
# Stress axis : x y z
#
# Youngs Moduli (GPa) = 140.45811 86.47960 126.25111
#
# Poissons Ratio (x) = 0.18055 0.28699
# Poissons Ratio (y) = 0.29325 0.21291
# Poissons Ratio (z) = 0.31928 0.14584
#
# Static dielectric constant tensor:
#      x y z
#    x 1.777810 0.000000 0.000000 
#    y 0.000000 1.789900 0.000000 
#    z 0.000000 0.000000 1.785360 
# 
# From -- ./inp_files/18724.got.cif
#   From: 2010.05.17/outbox.cif.g08.bks.cpg/sg70_10_cif.got.tgz:18724.got - 2010.06.03 15:57:51.
