data_PCOD9514783
_publ_section_title
;
Structure prediction by ZEFSAII (Michael W. Deem and Ramdas Pophale) SiO2 
 PCOD9514783
Probable space group: F D D D
;
_chemical_formula_sum "Si O2"
_cell_formula_units_Z 208
_cell_length_a 23.087585
_cell_length_b 29.117078
_cell_length_c 17.121123
_cell_angle_alpha 90.000000
_cell_angle_beta 90.000000
_cell_angle_gamma 90.000000
_cell_volume 11509.555316
_symmetry_space_group_name_H-M "F D D D"
_symmetry_group_IT_number 70
_space_group.IT_coordinate_system_code '2'
_symmetry_cell_setting 'orthorhombic'
loop_
_space_group_symop_operation_xyz
x,y,z
1/4-x,1/4-y,z
x,1/4-y,1/4-z
1/4-x,y,1/4-z
-x,-y,-z
3/4+x,3/4+y,-z
-x,3/4+y,3/4+z
3/4+x,-y,3/4+z
x,1/2+y,1/2+z
1/4-x,3/4-y,1/2+z
x,3/4-y,3/4-z
1/4-x,1/2+y,3/4-z
-x,1/2-y,1/2-z
3/4+x,1/4+y,1/2-z
-x,1/4+y,1/4+z
3/4+x,1/2-y,1/4+z
1/2+x,y,1/2+z
3/4-x,1/4-y,1/2+z
1/2+x,1/4-y,3/4-z
3/4-x,y,3/4-z
1/2-x,-y,1/2-z
1/4+x,3/4+y,1/2-z
1/2-x,3/4+y,1/4+z
1/4+x,-y,1/4+z
1/2+x,1/2+y,z
3/4-x,3/4-y,z
1/2+x,3/4-y,1/4-z
3/4-x,1/2+y,1/4-z
1/2-x,1/2-y,-z
1/4+x,1/4+y,-z
1/2-x,1/4+y,3/4+z
1/4+x,1/2-y,3/4+z
loop_
_atom_site_type_symbol
_atom_site_label
_atom_site_fract_x
_atom_site_fract_y
_atom_site_fract_z
Si Si1 0.715024 0.471227 0.313760
Si Si2 0.537343 0.875000 0.375000
Si Si3 0.648370 0.786794 0.211291
Si Si4 0.333656 0.578250 0.473689
Si Si5 0.952006 0.137369 0.816649
Si Si6 0.273898 0.261731 0.232744
Si Si7 0.057651 0.114056 0.716450
O O1 0.750000 0.500000 0.250000
O O2 0.741614 0.420904 0.336891
O O3 0.652492 0.463256 0.274378
O O4 0.711663 0.501920 0.391826
O O5 0.574356 0.851592 0.442996
O O6 0.625000 0.773217 0.125000
O O7 0.674083 0.838025 0.202766
O O8 0.704215 0.757820 0.237252
O O9 0.298942 0.608436 0.410005
O O10 0.401975 0.577078 0.457698
O O11 0.305757 0.528451 0.471567
O O12 0.012309 0.141293 0.771813
O O13 0.294728 0.310910 0.263332
O O14 0.125000 0.125000 0.731842
O O15 0.046108 0.125000 0.625000
#
# Coordination Sequence:
#
# PCOD9514783 Si02
#       7
#    32  16  32  32  32  32  32
#     4  11  21  35  63  90 126 167 209 261 315 383
#     4  10  20  34  58  95 131 150 214 254 310 372
#     4  11  18  36  58  86 120 163 212 247 315 373
#     4  10  20  36  59  95 119 155 205 264 307 366
#     4  10  20  36  65  86 116 160 208 262 309 369
#     4  10  24  37  59  91 124 157 208 268 309 379
#     4  10  24  43  61  84 122 167 208 254 323 380
#
# _framework density 18.071940999999999
#
# number of rings (size 3 to 8) (size 9 to 14) (size 15 to 20)
#    0.000    1.692    4.615    0.000    3.231    4.923 
#    0.000    1.538    0.000    3.692    0.000    0.000 
#    0.000    0.000    0.000    0.000    0.000    0.000 
#
# Total GULP energy -289716.645759 kJ/mol
# GULP energy per Si atom -5571.473957 kJ/mol
# Density = 1.803081 g / cm^3
# Si number density = 18.071941 Si / 1000 Ang^3
#
#
#
# Elastic Constant Matrix: (Units=GPa)
#
#
# Indices 1 2 3 4 5 6 
#
# 1 116.6646 38.2411 46.9638 0.0000 0.0000 0.0000
# 2 38.2411 96.1051 35.4129 0.0000 0.0000 0.0000
# 3 46.9638 35.4129 94.8450 0.0000 0.0000 0.0000
# 4 0.0000 0.0000 0.0000 35.3113 0.0000 0.0000
# 5 0.0000 0.0000 0.0000 0.0000 20.9592 0.0000
# 6 0.0000 0.0000 0.0000 0.0000 0.0000 24.2262
#
#
#
# Elastic Compliance Matrix: (Units=1/GPa)
#
#
# Indices 1 2 3 4 5 6 
#
# 1 0.011333 -0.002831 -0.004555 0.000000 0.000000 0.000000
# 2 -0.002831 0.012773 -0.003367 0.000000 0.000000 0.000000
# 3 -0.004555 -0.003367 0.014056 0.000000 0.000000 0.000000
# 4 0.000000 0.000000 0.000000 0.028320 0.000000 0.000000
# 5 0.000000 0.000000 0.000000 0.000000 0.047712 0.000000
# 6 0.000000 0.000000 0.000000 0.000000 0.000000 0.041278
#
#
# Mechanical properties :
#
#
# Convention : Reuss Voigt Hill
#
# Bulk Modulus (GPa) = 60.03912 60.98336 60.51124
# Shear Modulus (GPa) = 27.39300 28.56579 27.97939
#
# Velocity S-wave (km/s) = 3.89752 3.98008 3.93902
# Velocity P-wave (km/s) = 7.31769 7.41211 7.36505
#
# Compressibility (1/GPa) = 0.01665581
#
# Stress axis : x y z
#
# Youngs Moduli (GPa) = 88.23714 78.29295 71.14415
#
# Poissons Ratio (x) = 0.22167 0.32403
# Poissons Ratio (y) = 0.24982 0.23955
# Poissons Ratio (z) = 0.40189 0.26362
#
# Static dielectric constant tensor:
#      x y z
#    x 1.627220 0.000000 0.000000 
#    y 0.000000 1.649960 0.000000 
#    z 0.000000 0.000000 1.648950 
# 
# From -- ./inp_files/37731.got.cif
#   From: 2010.05.17/outbox.cif.g08.bks.cpg/sg70_19_cif.got.tgz:37731.got - 2010.06.03 15:57:51.
