data_PCOD9514951
_publ_section_title
;
Structure prediction by ZEFSAII (Michael W. Deem and Ramdas Pophale) SiO2 
 PCOD9514951
Probable space group: F D D D
;
_chemical_formula_sum "Si O2"
_cell_formula_units_Z 160
_cell_length_a 18.112041
_cell_length_b 23.461506
_cell_length_c 15.905698
_cell_angle_alpha 90.000000
_cell_angle_beta 90.000000
_cell_angle_gamma 90.000000
_cell_volume 6758.899846
_symmetry_space_group_name_H-M "F D D D"
_symmetry_group_IT_number 70
_space_group.IT_coordinate_system_code '2'
_symmetry_cell_setting 'orthorhombic'
loop_
_space_group_symop_operation_xyz
x,y,z
1/4-x,1/4-y,z
x,1/4-y,1/4-z
1/4-x,y,1/4-z
-x,-y,-z
3/4+x,3/4+y,-z
-x,3/4+y,3/4+z
3/4+x,-y,3/4+z
x,1/2+y,1/2+z
1/4-x,3/4-y,1/2+z
x,3/4-y,3/4-z
1/4-x,1/2+y,3/4-z
-x,1/2-y,1/2-z
3/4+x,1/4+y,1/2-z
-x,1/4+y,1/4+z
3/4+x,1/2-y,1/4+z
1/2+x,y,1/2+z
3/4-x,1/4-y,1/2+z
1/2+x,1/4-y,3/4-z
3/4-x,y,3/4-z
1/2-x,-y,1/2-z
1/4+x,3/4+y,1/2-z
1/2-x,3/4+y,1/4+z
1/4+x,-y,1/4+z
1/2+x,1/2+y,z
3/4-x,3/4-y,z
1/2+x,3/4-y,1/4-z
3/4-x,1/2+y,1/4-z
1/2-x,1/2-y,-z
1/4+x,1/4+y,-z
1/2-x,1/4+y,3/4+z
1/4+x,1/2-y,3/4+z
loop_
_atom_site_type_symbol
_atom_site_label
_atom_site_fract_x
_atom_site_fract_y
_atom_site_fract_z
Si Si1 0.323968 0.961271 0.246934
Si Si2 0.060638 0.958110 0.740076
Si Si3 0.488618 0.375000 0.875000
Si Si4 0.769929 0.056343 0.301814
Si Si5 0.785271 0.827477 0.174824
Si Si6 0.875000 0.206758 0.375000
O O1 0.308082 0.910156 0.308965
O O2 0.336811 0.936693 0.155161
O O3 0.250000 0.000000 0.250000
O O4 0.380680 0.003000 0.292578
O O5 0.033386 0.920296 0.818667
O O6 0.143772 0.936713 0.722064
O O7 0.016995 0.950994 0.652716
O O8 0.052395 0.024484 0.764909
O O9 0.717985 0.110817 0.282299
O O10 0.750000 0.000000 0.250000
O O11 0.702253 0.825860 0.131845
#
# Coordination Sequence:
#
# PCOD9514951 Si02
#       6
#    32  32  16  32  32  16
#     4  10  21  37  62 103 138 172 214 267 350 414
#     4  11  25  44  72 100 137 178 232 289 339 420
#     4  12  20  41  68 104 138 169 212 280 352 414
#     4  11  27  48  67  96 134 187 239 286 339 405
#     4  11  23  43  70  98 138 184 229 284 346 416
#     4  10  20  37  64 106 144 169 208 276 362 434
#
# _framework density 23.672491000000001
#
# number of rings (size 3 to 8) (size 9 to 14) (size 15 to 20)
#    0.000    1.200    6.000    1.200    2.800    5.200 
#    0.000    4.000    0.000    0.000    0.000    0.000 
#    0.000    0.000    0.000    0.000    0.000    0.000 
#
# Total GULP energy -223641.287407 kJ/mol
# GULP energy per Si atom -5591.032185 kJ/mol
# Density = 2.361861 g / cm^3
# Si number density = 23.672491 Si / 1000 Ang^3
#
#
#
# Elastic Constant Matrix: (Units=GPa)
#
#
# Indices 1 2 3 4 5 6 
#
# 1 60.9113 16.2749 20.5920 0.0000 0.0000 0.0000
# 2 16.2749 187.6074 72.5582 0.0000 0.0000 0.0000
# 3 20.5920 72.5582 109.1588 0.0000 0.0000 0.0000
# 4 0.0000 0.0000 0.0000 44.4716 0.0000 0.0000
# 5 0.0000 0.0000 0.0000 0.0000 24.9512 0.0000
# 6 0.0000 0.0000 0.0000 0.0000 0.0000 36.9024
#
#
#
# Elastic Compliance Matrix: (Units=1/GPa)
#
#
# Indices 1 2 3 4 5 6 
#
# 1 0.017550 -0.000326 -0.003094 0.000000 0.000000 0.000000
# 2 -0.000326 0.007181 -0.004712 0.000000 0.000000 0.000000
# 3 -0.003094 -0.004712 0.012877 0.000000 0.000000 0.000000
# 4 0.000000 0.000000 0.000000 0.022486 0.000000 0.000000
# 5 0.000000 0.000000 0.000000 0.000000 0.040078 0.000000
# 6 0.000000 0.000000 0.000000 0.000000 0.000000 0.027099
#
#
# Mechanical properties :
#
#
# Convention : Reuss Voigt Hill
#
# Bulk Modulus (GPa) = 46.85061 64.05864 55.45463
# Shear Modulus (GPa) = 33.18978 37.81520 35.50249
#
# Velocity S-wave (km/s) = 3.74844 4.00113 3.87684
# Velocity P-wave (km/s) = 6.21036 6.96164 6.59670
#
# Compressibility (1/GPa) = 0.02134444
#
# Stress axis : x y z
#
# Youngs Moduli (GPa) = 56.97878 139.26034 77.66080
#
# Poissons Ratio (x) = 0.04537 0.24030
# Poissons Ratio (y) = 0.01856 0.36591
# Poissons Ratio (z) = 0.17630 0.65614
#
# Static dielectric constant tensor:
#      x y z
#    x 11.713590 0.000000 0.000000 
#    y 0.000000 1.885080 0.000000 
#    z 0.000000 0.000000 1.909720 
# 
# From -- ./inp_files/36350.got.cif
#   From: 2010.05.17/outbox.cif.g08.bks.cpg/sg70_19_cif.got.tgz:36350.got - 2010.06.03 15:57:51.
