data_PCOD9514761
_publ_section_title
;
Structure prediction by ZEFSAII (Michael W. Deem and Ramdas Pophale) SiO2 
 PCOD9514761
Probable space group: F D D D
;
_chemical_formula_sum "Si O2"
_cell_formula_units_Z 208
_cell_length_a 14.380562
_cell_length_b 20.694714
_cell_length_c 30.853179
_cell_angle_alpha 90.000000
_cell_angle_beta 90.000000
_cell_angle_gamma 90.000000
_cell_volume 9181.955983
_symmetry_space_group_name_H-M "F D D D"
_symmetry_group_IT_number 70
_space_group.IT_coordinate_system_code '2'
_symmetry_cell_setting 'orthorhombic'
loop_
_space_group_symop_operation_xyz
x,y,z
1/4-x,1/4-y,z
x,1/4-y,1/4-z
1/4-x,y,1/4-z
-x,-y,-z
3/4+x,3/4+y,-z
-x,3/4+y,3/4+z
3/4+x,-y,3/4+z
x,1/2+y,1/2+z
1/4-x,3/4-y,1/2+z
x,3/4-y,3/4-z
1/4-x,1/2+y,3/4-z
-x,1/2-y,1/2-z
3/4+x,1/4+y,1/2-z
-x,1/4+y,1/4+z
3/4+x,1/2-y,1/4+z
1/2+x,y,1/2+z
3/4-x,1/4-y,1/2+z
1/2+x,1/4-y,3/4-z
3/4-x,y,3/4-z
1/2-x,-y,1/2-z
1/4+x,3/4+y,1/2-z
1/2-x,3/4+y,1/4+z
1/4+x,-y,1/4+z
1/2+x,1/2+y,z
3/4-x,3/4-y,z
1/2+x,3/4-y,1/4-z
3/4-x,1/2+y,1/4-z
1/2-x,1/2-y,-z
1/4+x,1/4+y,-z
1/2-x,1/4+y,3/4+z
1/4+x,1/2-y,3/4+z
loop_
_atom_site_type_symbol
_atom_site_label
_atom_site_fract_x
_atom_site_fract_y
_atom_site_fract_z
Si Si1 0.005496 0.807645 0.472890
Si Si2 0.702293 0.938261 0.729984
Si Si3 0.125000 0.125000 0.016336
Si Si4 0.279855 0.784816 0.141091
Si Si5 0.200066 0.419183 0.332196
Si Si6 0.992352 0.022223 0.195294
Si Si7 0.003653 0.182358 0.363046
O O1 0.108931 0.819354 0.492944
O O2 0.000071 0.755261 0.433858
O O3 0.987764 0.878066 0.451514
O O4 0.960224 0.773486 0.514521
O O5 0.783877 0.886252 0.737148
O O6 0.692921 0.946019 0.679068
O O7 0.750000 0.000000 0.750000
O O8 0.083876 0.184663 0.044119
O O9 0.263391 0.737531 0.100106
O O10 0.389505 0.798866 0.148266
O O11 0.241696 0.855662 0.130315
O O12 0.191912 0.375000 0.375000
O O13 0.095626 0.432279 0.315399
O O14 0.010906 0.976662 0.154475
#
# Coordination Sequence:
#
# PCOD9514761 Si02
#       7
#    32  32  16  32  32  32  32
#     4  11  20  34  55  79 107 143 186 228 270 335
#     4  12  21  34  51  74 108 151 186 213 270 340
#     4  12  22  36  55  76 114 156 178 216 281 340
#     4   9  18  36  57  70 100 146 187 223 271 328
#     4   9  20  37  56  78 107 142 185 230 268 334
#     4  11  22  34  51  80 110 143 182 224 277 327
#     4  10  20  34  51  75 104 143 187 226 272 333
#
# _framework density 22.653126
#
# number of rings (size 3 to 8) (size 9 to 14) (size 15 to 20)
#    0.000    1.538    4.615    1.846    0.000    0.615 
#    2.769    1.538    0.000    0.000    0.000    0.000 
#    0.000    0.000    0.000    0.000    0.000    0.000 
#
# Total GULP energy -290037.221214 kJ/mol
# GULP energy per Si atom -5577.638869 kJ/mol
# Density = 2.260157 g / cm^3
# Si number density = 22.653126 Si / 1000 Ang^3
#
#
#
# Elastic Constant Matrix: (Units=GPa)
#
#
# Indices 1 2 3 4 5 6 
#
# 1 30.3904 -13.1283 -1.4615 0.0000 0.0000 0.0000
# 2 -13.1283 130.7022 60.5186 0.0000 0.0000 0.0000
# 3 -1.4615 60.5186 112.5674 0.0000 0.0000 0.0000
# 4 0.0000 0.0000 0.0000 26.3354 0.0000 0.0000
# 5 0.0000 0.0000 0.0000 0.0000 9.6979 0.0000
# 6 0.0000 0.0000 0.0000 0.0000 0.0000 6.9948
#
#
#
# Elastic Compliance Matrix: (Units=1/GPa)
#
#
# Indices 1 2 3 4 5 6 
#
# 1 0.034699 0.004363 -0.001895 0.000000 0.000000 0.000000
# 2 0.004363 0.010735 -0.005715 0.000000 0.000000 0.000000
# 3 -0.001895 -0.005715 0.011931 0.000000 0.000000 0.000000
# 4 0.000000 0.000000 0.000000 0.037972 0.000000 0.000000
# 5 0.000000 0.000000 0.000000 0.000000 0.103115 0.000000
# 6 0.000000 0.000000 0.000000 0.000000 0.000000 0.142963
#
#
# Mechanical properties :
#
#
# Convention : Reuss Voigt Hill
#
# Bulk Modulus (GPa) = 19.65753 40.61306 30.13529
# Shear Modulus (GPa) = 13.70364 23.78770 18.74567
#
# Velocity S-wave (km/s) = 2.46221 3.24402 2.87977
# Velocity P-wave (km/s) = 4.09631 5.65674 4.93854
#
# Compressibility (1/GPa) = 0.05087110
#
# Stress axis : x y z
#
# Youngs Moduli (GPa) = 28.81955 93.15035 83.81240
#
# Poissons Ratio (x) = -0.40639 0.15882
# Poissons Ratio (y) = -0.12573 0.47898
# Poissons Ratio (z) = 0.05461 0.53234
#
# Static dielectric constant tensor:
#      x y z
#    x 1.908590 0.000000 0.000000 
#    y 0.000000 1.913680 0.000000 
#    z 0.000000 0.000000 1.821740 
# 
# From -- ./inp_files/66808.got.cif
#   From: 2010.05.17/outbox.cif.g08.bks.cpg/sg70_34_cif.got.tgz:66808.got - 2010.06.03 15:57:51.
