data_PCOD9514077
_publ_section_title
;
Structure prediction by ZEFSAII (Michael W. Deem and Ramdas Pophale) SiO2 
 PCOD9514077
Probable space group: F D D D
;
_chemical_formula_sum "Si O2"
_cell_formula_units_Z 192
_cell_length_a 14.797241
_cell_length_b 31.502603
_cell_length_c 20.119329
_cell_angle_alpha 90.000000
_cell_angle_beta 90.000000
_cell_angle_gamma 90.000000
_cell_volume 9378.657580
_symmetry_space_group_name_H-M "F D D D"
_symmetry_group_IT_number 70
_space_group.IT_coordinate_system_code '2'
_symmetry_cell_setting 'orthorhombic'
loop_
_space_group_symop_operation_xyz
x,y,z
1/4-x,1/4-y,z
x,1/4-y,1/4-z
1/4-x,y,1/4-z
-x,-y,-z
3/4+x,3/4+y,-z
-x,3/4+y,3/4+z
3/4+x,-y,3/4+z
x,1/2+y,1/2+z
1/4-x,3/4-y,1/2+z
x,3/4-y,3/4-z
1/4-x,1/2+y,3/4-z
-x,1/2-y,1/2-z
3/4+x,1/4+y,1/2-z
-x,1/4+y,1/4+z
3/4+x,1/2-y,1/4+z
1/2+x,y,1/2+z
3/4-x,1/4-y,1/2+z
1/2+x,1/4-y,3/4-z
3/4-x,y,3/4-z
1/2-x,-y,1/2-z
1/4+x,3/4+y,1/2-z
1/2-x,3/4+y,1/4+z
1/4+x,-y,1/4+z
1/2+x,1/2+y,z
3/4-x,3/4-y,z
1/2+x,3/4-y,1/4-z
3/4-x,1/2+y,1/4-z
1/2-x,1/2-y,-z
1/4+x,1/4+y,-z
1/2-x,1/4+y,3/4+z
1/4+x,1/2-y,3/4+z
loop_
_atom_site_type_symbol
_atom_site_label
_atom_site_fract_x
_atom_site_fract_y
_atom_site_fract_z
Si Si1 0.190717 0.336718 0.258232
Si Si2 0.144343 0.555401 0.928038
Si Si3 0.875000 0.123968 0.875000
Si Si4 0.177355 0.983097 0.893827
Si Si5 0.625000 0.125000 0.435960
Si Si6 0.280301 0.682673 0.020252
Si Si7 0.228279 0.435254 0.045097
O O1 0.281041 0.314402 0.232589
O O2 0.135771 0.346966 0.191128
O O3 0.144881 0.304640 0.308913
O O4 0.217625 0.382581 0.286773
O O5 0.149566 0.509617 0.893927
O O6 0.157786 0.588966 0.867486
O O7 0.049138 0.558354 0.967554
O O8 0.954633 0.157122 0.889430
O O9 0.234696 0.960936 0.835412
O O10 0.231537 0.019608 0.933766
O O11 0.694830 0.097454 0.481401
O O12 0.382847 0.690354 0.992533
#
# Coordination Sequence:
#
# PCOD9514077 Si02
#       7
#    32  32  16  32  16  32  32
#     4  11  21  38  58  82 115 162 197 245 294 358
#     4  11  20  36  55  82 121 153 201 237 287 355
#     4  10  20  40  64  80 109 159 210 236 288 362
#     4  11  23  34  56  92 124 151 190 249 305 345
#     4  10  16  34  58  81 101 156 206 236 258 346
#     4  11  22  37  56  87 125 161 190 240 297 367
#     4  10  20  36  60  85 116 157 205 232 290 356
#
# _framework density 20.472013
#
# number of rings (size 3 to 8) (size 9 to 14) (size 15 to 20)
#    0.000    1.333    3.333    5.000    0.000    3.333 
#    0.000    2.500    0.000    0.000    0.000    0.000 
#    0.000    0.000    0.000    0.000    0.000    0.000 
#
# Total GULP energy -267343.755940 kJ/mol
# GULP energy per Si atom -5569.661582 kJ/mol
# Density = 2.042542 g / cm^3
# Si number density = 20.472013 Si / 1000 Ang^3
#
#
#
# Elastic Constant Matrix: (Units=GPa)
#
#
# Indices 1 2 3 4 5 6 
#
# 1 37.7316 10.0980 -1.0324 0.0000 0.0000 0.0000
# 2 10.0980 140.3191 40.1925 0.0000 0.0000 0.0000
# 3 -1.0324 40.1925 43.5827 0.0000 0.0000 0.0000
# 4 0.0000 0.0000 0.0000 35.5843 0.0000 0.0000
# 5 0.0000 0.0000 0.0000 0.0000 6.1568 0.0000
# 6 0.0000 0.0000 0.0000 0.0000 0.0000 19.1494
#
#
#
# Elastic Compliance Matrix: (Units=1/GPa)
#
#
# Indices 1 2 3 4 5 6 
#
# 1 0.027379 -0.002930 0.003351 0.000000 0.000000 0.000000
# 2 -0.002930 0.009999 -0.009290 0.000000 0.000000 0.000000
# 3 0.003351 -0.009290 0.031592 0.000000 0.000000 0.000000
# 4 0.000000 0.000000 0.000000 0.028102 0.000000 0.000000
# 5 0.000000 0.000000 0.000000 0.000000 0.162421 0.000000
# 6 0.000000 0.000000 0.000000 0.000000 0.000000 0.052221
#
#
# Mechanical properties :
#
#
# Convention : Reuss Voigt Hill
#
# Bulk Modulus (GPa) = 19.51977 35.57219 27.54598
# Shear Modulus (GPa) = 14.42880 23.66979 19.04929
#
# Velocity S-wave (km/s) = 2.65770 3.40399 3.05373
# Velocity P-wave (km/s) = 4.35584 5.73265 5.09100
#
# Compressibility (1/GPa) = 0.05123010
#
# Stress axis : x y z
#
# Youngs Moduli (GPa) = 36.52455 100.01476 31.65377
#
# Poissons Ratio (x) = 0.29305 -0.10606
# Poissons Ratio (y) = 0.10702 0.29407
# Poissons Ratio (z) = -0.12238 0.92916
#
# Static dielectric constant tensor:
#      x y z
#    x 1.888420 0.000000 0.000000 
#    y 0.000000 1.766290 0.000000 
#    z 0.000000 0.000000 1.761810 
# 
# From -- ./inp_files/35531.got.cif
#   From: 2010.05.17/outbox.cif.g08.bks.cpg/sg70_18_cif.got.tgz:35531.got - 2010.06.03 15:57:51.
