data_PCOD9514507
_publ_section_title
;
Structure prediction by ZEFSAII (Michael W. Deem and Ramdas Pophale) SiO2 
 PCOD9514507
Probable space group: F D D D
;
_chemical_formula_sum "Si O2"
_cell_formula_units_Z 160
_cell_length_a 30.317961
_cell_length_b 12.611940
_cell_length_c 19.300553
_cell_angle_alpha 90.000000
_cell_angle_beta 90.000000
_cell_angle_gamma 90.000000
_cell_volume 7379.919737
_symmetry_space_group_name_H-M "F D D D"
_symmetry_group_IT_number 70
_space_group.IT_coordinate_system_code '2'
_symmetry_cell_setting 'orthorhombic'
loop_
_space_group_symop_operation_xyz
x,y,z
1/4-x,1/4-y,z
x,1/4-y,1/4-z
1/4-x,y,1/4-z
-x,-y,-z
3/4+x,3/4+y,-z
-x,3/4+y,3/4+z
3/4+x,-y,3/4+z
x,1/2+y,1/2+z
1/4-x,3/4-y,1/2+z
x,3/4-y,3/4-z
1/4-x,1/2+y,3/4-z
-x,1/2-y,1/2-z
3/4+x,1/4+y,1/2-z
-x,1/4+y,1/4+z
3/4+x,1/2-y,1/4+z
1/2+x,y,1/2+z
3/4-x,1/4-y,1/2+z
1/2+x,1/4-y,3/4-z
3/4-x,y,3/4-z
1/2-x,-y,1/2-z
1/4+x,3/4+y,1/2-z
1/2-x,3/4+y,1/4+z
1/4+x,-y,1/4+z
1/2+x,1/2+y,z
3/4-x,3/4-y,z
1/2+x,3/4-y,1/4-z
3/4-x,1/2+y,1/4-z
1/2-x,1/2-y,-z
1/4+x,1/4+y,-z
1/2-x,1/4+y,3/4+z
1/4+x,1/2-y,3/4+z
loop_
_atom_site_type_symbol
_atom_site_label
_atom_site_fract_x
_atom_site_fract_y
_atom_site_fract_z
Si Si1 0.767742 0.248066 0.604568
Si Si2 0.070314 0.243775 0.209667
Si Si3 0.726974 0.840737 0.453154
Si Si4 0.667584 0.673673 0.399631
Si Si5 0.666260 0.742203 0.241612
O O1 0.767376 0.125000 0.625000
O O2 0.796147 0.245585 0.533621
O O3 0.717285 0.285573 0.591903
O O4 0.794149 0.334978 0.649149
O O5 0.120178 0.288514 0.211898
O O6 0.075111 0.116897 0.201584
O O7 0.745106 0.875000 0.375000
O O8 0.750000 0.750000 0.500000
O O9 0.681797 0.781571 0.434292
O O10 0.710926 0.940513 0.498357
O O11 0.625000 0.625000 0.434004
O O12 0.656605 0.706569 0.320798
#
# Coordination Sequence:
#
# PCOD9514507 Si02
#       5
#    32  32  32  32  32
#     4  10  20  30  54  84 117 149 195 250 317 374
#     4   9  18  34  54  85 115 155 193 258 311 377
#     4  10  23  39  65  90 123 168 209 264 324 387
#     4  10  19  35  55  88 115 150 209 263 318 382
#     4   9  17  36  58  80 121 152 206 256 316 380
#
# _framework density 21.680453
#
# number of rings (size 3 to 8) (size 9 to 14) (size 15 to 20)
#    0.000    2.400    4.000    0.000    5.600    0.000 
#    0.000    2.000    0.000    3.000    0.000    0.000 
#    0.000    0.000    0.000    0.000    0.000    0.000 
#
# Total GULP energy -222719.582070 kJ/mol
# GULP energy per Si atom -5567.989552 kJ/mol
# Density = 2.163111 g / cm^3
# Si number density = 21.680453 Si / 1000 Ang^3
#
#
#
# Elastic Constant Matrix: (Units=GPa)
#
#
# Indices 1 2 3 4 5 6 
#
# 1 117.2098 16.4373 21.4752 0.0000 0.0000 0.0000
# 2 16.4373 55.2552 11.7367 0.0000 0.0000 0.0000
# 3 21.4752 11.7367 73.7721 0.0000 0.0000 0.0000
# 4 0.0000 0.0000 0.0000 17.8669 0.0000 0.0000
# 5 0.0000 0.0000 0.0000 0.0000 -2.5905 0.0000
# 6 0.0000 0.0000 0.0000 0.0000 0.0000 46.3199
#
#
#
# Elastic Compliance Matrix: (Units=1/GPa)
#
#
# Indices 1 2 3 4 5 6 
#
# 1 0.009278 -0.002263 -0.002341 0.000000 0.000000 0.000000
# 2 -0.002263 0.019283 -0.002409 0.000000 0.000000 0.000000
# 3 -0.002341 -0.002409 0.014620 0.000000 0.000000 0.000000
# 4 0.000000 0.000000 0.000000 0.055970 0.000000 0.000000
# 5 0.000000 0.000000 0.000000 0.000000 -0.386019 0.000000
# 6 0.000000 0.000000 0.000000 0.000000 0.000000 0.021589
#
#
# Mechanical properties :
#
#
# Convention : Reuss Voigt Hill
#
# Bulk Modulus (GPa) = 34.29918 38.39284 36.34601
# Shear Modulus (GPa) = -20.70079 25.42510 2.36216
#
# Velocity S-wave (km/s) = -3.09336 3.42822 1.04494
# Velocity P-wave (km/s) = 1.75960 5.78076 4.27278
#
# Compressibility (1/GPa) = 0.02915521
#
# Stress axis : x y z
#
# Youngs Moduli (GPa) = 107.78270 51.86001 68.39971
#
# Poissons Ratio (x) = 0.11735 0.16011
# Poissons Ratio (y) = 0.24389 0.16478
# Poissons Ratio (z) = 0.25230 0.12493
#
# Static dielectric constant tensor:
#      x y z
#    x 1.848950 0.000000 0.000000 
#    y 0.000000 1.815310 0.000000 
#    z 0.000000 0.000000 1.871210 
# 
# From -- ./inp_files/54891.got.cif
#   From: 2010.05.17/outbox.cif.g08.bks.cpg/sg70_28_cif.got.tgz:54891.got - 2010.06.03 15:57:51.
