data_PCOD9514307
_publ_section_title
;
Structure prediction by ZEFSAII (Michael W. Deem and Ramdas Pophale) SiO2 
 PCOD9514307
Probable space group: F D D D
;
_chemical_formula_sum "Si O2"
_cell_formula_units_Z 208
_cell_length_a 26.252767
_cell_length_b 17.066469
_cell_length_c 27.671778
_cell_angle_alpha 90.000000
_cell_angle_beta 90.000000
_cell_angle_gamma 90.000000
_cell_volume 12398.119704
_symmetry_space_group_name_H-M "F D D D"
_symmetry_group_IT_number 70
_space_group.IT_coordinate_system_code '2'
_symmetry_cell_setting 'orthorhombic'
loop_
_space_group_symop_operation_xyz
x,y,z
1/4-x,1/4-y,z
x,1/4-y,1/4-z
1/4-x,y,1/4-z
-x,-y,-z
3/4+x,3/4+y,-z
-x,3/4+y,3/4+z
3/4+x,-y,3/4+z
x,1/2+y,1/2+z
1/4-x,3/4-y,1/2+z
x,3/4-y,3/4-z
1/4-x,1/2+y,3/4-z
-x,1/2-y,1/2-z
3/4+x,1/4+y,1/2-z
-x,1/4+y,1/4+z
3/4+x,1/2-y,1/4+z
1/2+x,y,1/2+z
3/4-x,1/4-y,1/2+z
1/2+x,1/4-y,3/4-z
3/4-x,y,3/4-z
1/2-x,-y,1/2-z
1/4+x,3/4+y,1/2-z
1/2-x,3/4+y,1/4+z
1/4+x,-y,1/4+z
1/2+x,1/2+y,z
3/4-x,3/4-y,z
1/2+x,3/4-y,1/4-z
3/4-x,1/2+y,1/4-z
1/2-x,1/2-y,-z
1/4+x,1/4+y,-z
1/2-x,1/4+y,3/4+z
1/4+x,1/2-y,3/4+z
loop_
_atom_site_type_symbol
_atom_site_label
_atom_site_fract_x
_atom_site_fract_y
_atom_site_fract_z
Si Si1 0.414495 0.039221 0.218498
Si Si2 0.558118 0.245637 0.873519
Si Si3 0.714281 0.755301 0.187392
Si Si4 0.763949 0.418964 0.295158
Si Si5 0.319561 0.173270 0.968709
Si Si6 0.359478 0.625000 0.125000
Si Si7 0.125000 0.419134 0.625000
Si Si8 0.625000 0.125000 0.818358
O O1 0.365104 0.079413 0.242977
O O2 0.421981 0.085683 0.168607
O O3 0.457720 0.038656 0.258876
O O4 0.400172 0.947730 0.209893
O O5 0.517726 0.222657 0.913764
O O6 0.526599 0.293062 0.832345
O O7 0.602496 0.304423 0.890985
O O8 0.582942 0.169290 0.850182
O O9 0.713827 0.661567 0.186605
O O10 0.666815 0.784278 0.155875
O O11 0.732817 0.399612 0.245720
O O12 0.807247 0.484492 0.289982
O O13 0.339408 0.134083 0.918839
#
# Coordination Sequence:
#
# PCOD9514307 Si02
#       8
#    32  32  32  32  32  16  16  16
#     4  10  20  32  48  69  97 131 175 213 252 305
#     4  11  19  34  50  71  98 138 173 216 257 310
#     4  11  21  31  46  73 102 138 172 209 253 312
#     4  11  19  30  45  67 101 138 166 201 246 312
#     4  10  19  30  41  64  98 133 167 200 242 298
#     4  10  18  36  50  67  96 139 178 210 254 302
#     4  10  22  29  40  68 104 136 166 203 242 297
#     4  10  20  34  50  73  98 133 182 214 248 306
#
# _framework density 16.776738000000002
#
# number of rings (size 3 to 8) (size 9 to 14) (size 15 to 20)
#    0.000    1.538    6.154    0.923    2.154    2.462 
#    0.000    0.000    0.000    3.692    0.000    2.154 
#    0.000    0.000    0.000    0.000    0.000    1.231 
#
# Total GULP energy -289642.886073 kJ/mol
# GULP energy per Si atom -5570.055501 kJ/mol
# Density = 1.673855 g / cm^3
# Si number density = 16.776738 Si / 1000 Ang^3
#
#
#
# Elastic Constant Matrix: (Units=GPa)
#
#
# Indices 1 2 3 4 5 6 
#
# 1 40.6142 1.5191 37.3680 0.0000 0.0000 0.0000
# 2 1.5191 29.4411 23.0667 0.0000 0.0000 0.0000
# 3 37.3680 23.0667 115.6052 0.0000 0.0000 0.0000
# 4 0.0000 0.0000 0.0000 -2.2350 0.0000 0.0000
# 5 0.0000 0.0000 0.0000 0.0000 42.3427 0.0000
# 6 0.0000 0.0000 0.0000 0.0000 0.0000 14.6586
#
#
#
# Elastic Compliance Matrix: (Units=1/GPa)
#
#
# Indices 1 2 3 4 5 6 
#
# 1 0.036878 0.008815 -0.013679 0.000000 0.000000 0.000000
# 2 0.008815 0.042367 -0.011303 0.000000 0.000000 0.000000
# 3 -0.013679 -0.011303 0.015327 0.000000 0.000000 0.000000
# 4 0.000000 0.000000 0.000000 -0.447421 0.000000 0.000000
# 5 0.000000 0.000000 0.000000 0.000000 0.023617 0.000000
# 6 0.000000 0.000000 0.000000 0.000000 0.000000 0.068219
#
#
# Mechanical properties :
#
#
# Convention : Reuss Voigt Hill
#
# Bulk Modulus (GPa) = 16.06749 34.39645 25.23197
# Shear Modulus (GPa) = -24.04626 19.20038 -2.42294
#
# Velocity S-wave (km/s) = -3.79001 3.38666 -1.20306
# Velocity P-wave (km/s) = 3.09099 5.98662 3.62529
#
# Compressibility (1/GPa) = 0.06223746
#
# Stress axis : x y z
#
# Youngs Moduli (GPa) = 27.11641 23.60337 65.24442
#
# Poissons Ratio (x) = -0.20806 0.89249
# Poissons Ratio (y) = -0.23902 0.73744
# Poissons Ratio (z) = 0.37093 0.26678
#
# Static dielectric constant tensor:
#      x y z
#    x 1.589410 0.000000 0.000000 
#    y 0.000000 1.546710 0.000000 
#    z 0.000000 0.000000 1.662650 
# 
# From -- ./inp_files/68046.got.cif
#   From: 2010.05.17/outbox.cif.g08.bks.cpg/sg70_35_cif.got.tgz:68046.got - 2010.06.03 15:57:51.
