data_PCOD9514268
_publ_section_title
;
Structure prediction by ZEFSAII (Michael W. Deem and Ramdas Pophale) SiO2 
 PCOD9514268
Probable space group: F D D D
;
_chemical_formula_sum "Si O2"
_cell_formula_units_Z 176
_cell_length_a 17.759224
_cell_length_b 17.774137
_cell_length_c 26.891417
_cell_angle_alpha 90.000000
_cell_angle_beta 90.000000
_cell_angle_gamma 90.000000
_cell_volume 8488.407017
_symmetry_space_group_name_H-M "F D D D"
_symmetry_group_IT_number 70
_space_group.IT_coordinate_system_code '2'
_symmetry_cell_setting 'orthorhombic'
loop_
_space_group_symop_operation_xyz
x,y,z
1/4-x,1/4-y,z
x,1/4-y,1/4-z
1/4-x,y,1/4-z
-x,-y,-z
3/4+x,3/4+y,-z
-x,3/4+y,3/4+z
3/4+x,-y,3/4+z
x,1/2+y,1/2+z
1/4-x,3/4-y,1/2+z
x,3/4-y,3/4-z
1/4-x,1/2+y,3/4-z
-x,1/2-y,1/2-z
3/4+x,1/4+y,1/2-z
-x,1/4+y,1/4+z
3/4+x,1/2-y,1/4+z
1/2+x,y,1/2+z
3/4-x,1/4-y,1/2+z
1/2+x,1/4-y,3/4-z
3/4-x,y,3/4-z
1/2-x,-y,1/2-z
1/4+x,3/4+y,1/2-z
1/2-x,3/4+y,1/4+z
1/4+x,-y,1/4+z
1/2+x,1/2+y,z
3/4-x,3/4-y,z
1/2+x,3/4-y,1/4-z
3/4-x,1/2+y,1/4-z
1/2-x,1/2-y,-z
1/4+x,1/4+y,-z
1/2-x,1/4+y,3/4+z
1/4+x,1/2-y,3/4+z
loop_
_atom_site_type_symbol
_atom_site_label
_atom_site_fract_x
_atom_site_fract_y
_atom_site_fract_z
Si Si1 0.869108 0.502499 0.555010
Si Si2 0.625000 0.125000 0.517129
Si Si3 0.966453 0.647438 0.566960
Si Si4 0.708949 0.215680 0.066561
Si Si5 0.384246 0.463174 0.577050
Si Si6 0.295332 0.959831 0.937449
O O1 0.903495 0.440974 0.519073
O O2 0.910389 0.582083 0.546670
O O3 0.870518 0.477330 0.612928
O O4 0.780293 0.504153 0.542630
O O5 0.552008 0.146236 0.548821
O O6 0.967358 0.625000 0.625000
O O7 0.929046 0.728868 0.558411
O O8 0.784763 0.260519 0.055700
O O9 0.711046 0.128678 0.050423
O O10 0.707719 0.213931 0.127104
O O11 0.626812 0.243167 0.049188
O O12 0.375000 0.375000 0.567020
#
# Coordination Sequence:
#
# PCOD9514268 Si02
#       6
#    32  16  32  32  32  32
#     4  10  19  36  59  88 116 154 202 244 298 354
#     4  12  23  38  60  88 118 156 208 256 288 350
#     4  10  22  40  63  84 116 164 199 244 303 357
#     4   8  13  24  49  84 111 142 184 234 288 343
#     4  10  18  34  60  90 119 154 198 244 297 361
#     4   8  13  25  50  81 112 141 184 236 289 349
#
# _framework density 20.734162000000001
#
# number of rings (size 3 to 8) (size 9 to 14) (size 15 to 20)
#    0.000    2.545    2.727    1.909    0.000    0.000 
#    0.000    3.636   16.000    2.182    0.000    0.000 
#    0.000    0.000    0.000    0.000    0.000    0.000 
#
# Total GULP energy -245456.285332 kJ/mol
# GULP energy per Si atom -5578.551939 kJ/mol
# Density = 2.068697 g / cm^3
# Si number density = 20.734162 Si / 1000 Ang^3
#
#
#
# Elastic Constant Matrix: (Units=GPa)
#
#
# Indices 1 2 3 4 5 6 
#
# 1 177.5178 74.5777 27.2129 0.0000 0.0000 0.0000
# 2 74.5777 131.9232 25.5156 0.0000 0.0000 0.0000
# 3 27.2129 25.5156 48.6161 0.0000 0.0000 0.0000
# 4 0.0000 0.0000 0.0000 11.1825 0.0000 0.0000
# 5 0.0000 0.0000 0.0000 0.0000 11.4750 0.0000
# 6 0.0000 0.0000 0.0000 0.0000 0.0000 24.4566
#
#
#
# Elastic Compliance Matrix: (Units=1/GPa)
#
#
# Indices 1 2 3 4 5 6 
#
# 1 0.007598 -0.003865 -0.002224 0.000000 0.000000 0.000000
# 2 -0.003865 0.010403 -0.003296 0.000000 0.000000 0.000000
# 3 -0.002224 -0.003296 0.023545 0.000000 0.000000 0.000000
# 4 0.000000 0.000000 0.000000 0.089425 0.000000 0.000000
# 5 0.000000 0.000000 0.000000 0.000000 0.087146 0.000000
# 6 0.000000 0.000000 0.000000 0.000000 0.000000 0.040889
#
#
# Mechanical properties :
#
#
# Convention : Reuss Voigt Hill
#
# Bulk Modulus (GPa) = 43.91044 68.07440 55.99242
# Shear Modulus (GPa) = 17.52128 24.80623 21.16375
#
# Velocity S-wave (km/s) = 2.91012 3.46265 3.19834
# Velocity P-wave (km/s) = 5.70224 6.99213 6.37986
#
# Compressibility (1/GPa) = 0.02277363
#
# Stress axis : x y z
#
# Youngs Moduli (GPa) = 131.61396 96.12961 42.47275
#
# Poissons Ratio (x) = 0.37154 0.09448
# Poissons Ratio (y) = 0.50869 0.14000
# Poissons Ratio (z) = 0.29277 0.31687
#
# Static dielectric constant tensor:
#      x y z
#    x 1.742350 0.000000 0.000000 
#    y 0.000000 1.715590 0.000000 
#    z 0.000000 0.000000 1.780000 
# 
# From -- ./inp_files/59474.got.cif
#   From: 2010.05.17/outbox.cif.g08.bks.cpg/sg70_30_cif.got.tgz:59474.got - 2010.06.03 15:57:51.
