data_PCOD9514620
_publ_section_title
;
Structure prediction by ZEFSAII (Michael W. Deem and Ramdas Pophale) SiO2 
 PCOD9514620
Probable space group: F D D D
;
_chemical_formula_sum "Si O2"
_cell_formula_units_Z 216
_cell_length_a 11.186552
_cell_length_b 29.451694
_cell_length_c 30.641158
_cell_angle_alpha 90.000000
_cell_angle_beta 90.000000
_cell_angle_gamma 90.000000
_cell_volume 10095.124971
_symmetry_space_group_name_H-M "F D D D"
_symmetry_group_IT_number 70
_space_group.IT_coordinate_system_code '2'
_symmetry_cell_setting 'orthorhombic'
loop_
_space_group_symop_operation_xyz
x,y,z
1/4-x,1/4-y,z
x,1/4-y,1/4-z
1/4-x,y,1/4-z
-x,-y,-z
3/4+x,3/4+y,-z
-x,3/4+y,3/4+z
3/4+x,-y,3/4+z
x,1/2+y,1/2+z
1/4-x,3/4-y,1/2+z
x,3/4-y,3/4-z
1/4-x,1/2+y,3/4-z
-x,1/2-y,1/2-z
3/4+x,1/4+y,1/2-z
-x,1/4+y,1/4+z
3/4+x,1/2-y,1/4+z
1/2+x,y,1/2+z
3/4-x,1/4-y,1/2+z
1/2+x,1/4-y,3/4-z
3/4-x,y,3/4-z
1/2-x,-y,1/2-z
1/4+x,3/4+y,1/2-z
1/2-x,3/4+y,1/4+z
1/4+x,-y,1/4+z
1/2+x,1/2+y,z
3/4-x,3/4-y,z
1/2+x,3/4-y,1/4-z
3/4-x,1/2+y,1/4-z
1/2-x,1/2-y,-z
1/4+x,1/4+y,-z
1/2-x,1/4+y,3/4+z
1/4+x,1/2-y,3/4+z
loop_
_atom_site_type_symbol
_atom_site_label
_atom_site_fract_x
_atom_site_fract_y
_atom_site_fract_z
Si Si1 0.125000 0.625000 0.625000
Si Si2 0.875000 0.946202 0.375000
Si Si3 0.211310 0.085431 0.534748
Si Si4 0.594000 0.269221 0.012895
Si Si5 0.010802 0.026553 0.891564
Si Si6 0.189584 0.005391 0.821825
Si Si7 0.779660 0.565824 0.192126
Si Si8 0.108145 0.571896 0.472249
O O1 0.208840 0.596401 0.657554
O O2 0.821427 0.918409 0.414416
O O3 0.771533 0.977050 0.354565
O O4 0.125000 0.125000 0.516133
O O5 0.354492 0.090279 0.536607
O O6 0.183574 0.034960 0.516283
O O7 0.713631 0.279441 0.040379
O O8 0.485021 0.297037 0.032287
O O9 0.617671 0.277227 0.961660
O O10 0.096936 0.034035 0.850094
O O11 0.028863 0.063306 0.929450
O O12 0.875000 0.022229 0.875000
O O13 0.054126 0.980164 0.915315
O O14 0.699541 0.552625 0.233615
O O15 0.125000 0.625000 0.479303
#
# Coordination Sequence:
#
# PCOD9514620 Si02
#       8
#     8  16  32  32  32  32  32  32
#     4  12  28  40  66 116 134 178 220 298 364 448
#     4  10  19  38  60  98 131 167 222 276 354 408
#     4  11  24  39  66  98 135 182 223 286 348 430
#     4  10  23  43  71  99 136 185 237 291 358 417
#     4  12  24  44  74 101 139 189 240 290 361 431
#     4  10  21  41  72  98 134 183 230 289 354 424
#     4  12  25  45  71 104 149 175 231 295 370 431
#     4  12  27  48  70 102 141 193 241 301 361 424
#
# _framework density 21.396466
#
# number of rings (size 3 to 8) (size 9 to 14) (size 15 to 20)
#    0.000    0.889    4.444    2.444    4.148    3.556 
#    2.667    0.741    0.000    0.000    0.000    0.000 
#    0.000    0.000    0.000    0.000    0.000    0.000 
#
# Total GULP energy -301658.484052 kJ/mol
# GULP energy per Si atom -5586.268223 kJ/mol
# Density = 2.134777 g / cm^3
# Si number density = 21.396466 Si / 1000 Ang^3
#
#
#
# Elastic Constant Matrix: (Units=GPa)
#
#
# Indices 1 2 3 4 5 6 
#
# 1 110.6388 17.3730 34.1457 0.0000 0.0000 0.0000
# 2 17.3730 59.4974 2.2404 0.0000 0.0000 0.0000
# 3 34.1457 2.2404 104.8403 0.0000 0.0000 0.0000
# 4 0.0000 0.0000 0.0000 19.6930 0.0000 0.0000
# 5 0.0000 0.0000 0.0000 0.0000 33.1191 0.0000
# 6 0.0000 0.0000 0.0000 0.0000 0.0000 17.1742
#
#
#
# Elastic Compliance Matrix: (Units=1/GPa)
#
#
# Indices 1 2 3 4 5 6 
#
# 1 0.010542 -0.002951 -0.003370 0.000000 0.000000 0.000000
# 2 -0.002951 0.017647 0.000584 0.000000 0.000000 0.000000
# 3 -0.003370 0.000584 0.010624 0.000000 0.000000 0.000000
# 4 0.000000 0.000000 0.000000 0.050780 0.000000 0.000000
# 5 0.000000 0.000000 0.000000 0.000000 0.030194 0.000000
# 6 0.000000 0.000000 0.000000 0.000000 0.000000 0.058227
#
#
# Mechanical properties :
#
#
# Convention : Reuss Voigt Hill
#
# Bulk Modulus (GPa) = 36.57965 42.49942 39.53954
# Shear Modulus (GPa) = 25.17611 28.74509 26.96060
#
# Velocity S-wave (km/s) = 3.43395 3.66929 3.55357
# Velocity P-wave (km/s) = 5.73201 6.15284 5.94615
#
# Compressibility (1/GPa) = 0.02733760
#
# Stress axis : x y z
#
# Youngs Moduli (GPa) = 94.85832 56.66612 94.13055
#
# Poissons Ratio (x) = 0.16724 0.31726
# Poissons Ratio (y) = 0.27996 -0.05498
# Poissons Ratio (z) = 0.31971 -0.03310
#
# Static dielectric constant tensor:
#      x y z
#    x 1.851370 0.000000 0.000000 
#    y 0.000000 1.801870 0.000000 
#    z 0.000000 0.000000 1.771150 
# 
# From -- ./inp_files/65177.got.cif
#   From: 2010.05.17/outbox.cif.g08.bks.cpg/sg70_33_cif.got.tgz:65177.got - 2010.06.03 15:57:51.
