data_PCOD9514133
_publ_section_title
;
Structure prediction by ZEFSAII (Michael W. Deem and Ramdas Pophale) SiO2 
 PCOD9514133
Probable space group: F D D D
;
_chemical_formula_sum "Si O2"
_cell_formula_units_Z 208
_cell_length_a 28.716170
_cell_length_b 18.650606
_cell_length_c 20.688703
_cell_angle_alpha 90.000000
_cell_angle_beta 90.000000
_cell_angle_gamma 90.000000
_cell_volume 11080.330852
_symmetry_space_group_name_H-M "F D D D"
_symmetry_group_IT_number 70
_space_group.IT_coordinate_system_code '2'
_symmetry_cell_setting 'orthorhombic'
loop_
_space_group_symop_operation_xyz
x,y,z
1/4-x,1/4-y,z
x,1/4-y,1/4-z
1/4-x,y,1/4-z
-x,-y,-z
3/4+x,3/4+y,-z
-x,3/4+y,3/4+z
3/4+x,-y,3/4+z
x,1/2+y,1/2+z
1/4-x,3/4-y,1/2+z
x,3/4-y,3/4-z
1/4-x,1/2+y,3/4-z
-x,1/2-y,1/2-z
3/4+x,1/4+y,1/2-z
-x,1/4+y,1/4+z
3/4+x,1/2-y,1/4+z
1/2+x,y,1/2+z
3/4-x,1/4-y,1/2+z
1/2+x,1/4-y,3/4-z
3/4-x,y,3/4-z
1/2-x,-y,1/2-z
1/4+x,3/4+y,1/2-z
1/2-x,3/4+y,1/4+z
1/4+x,-y,1/4+z
1/2+x,1/2+y,z
3/4-x,3/4-y,z
1/2+x,3/4-y,1/4-z
3/4-x,1/2+y,1/4-z
1/2-x,1/2-y,-z
1/4+x,1/4+y,-z
1/2-x,1/4+y,3/4+z
1/4+x,1/2-y,3/4+z
loop_
_atom_site_type_symbol
_atom_site_label
_atom_site_fract_x
_atom_site_fract_y
_atom_site_fract_z
Si Si1 0.776662 0.499651 0.416752
Si Si2 0.475102 0.125000 0.125000
Si Si3 0.761844 0.843827 0.569064
Si Si4 0.709083 0.875000 0.875000
Si Si5 0.066621 0.275017 0.762244
Si Si6 0.746840 0.516302 0.944072
Si Si7 0.125000 0.442344 0.625000
Si Si8 0.410143 0.158426 0.491239
O O1 0.746914 0.572810 0.424535
O O2 0.743913 0.442888 0.380595
O O3 0.783190 0.478174 0.491324
O O4 0.827151 0.514222 0.386771
O O5 0.446957 0.076534 0.073186
O O6 0.501312 0.184958 0.082207
O O7 0.798107 0.805711 0.521132
O O8 0.712594 0.808600 0.547085
O O9 0.775724 0.812881 0.638002
O O10 0.677904 0.875194 0.809461
O O11 0.121018 0.282486 0.754701
O O12 0.795735 0.553050 0.959769
O O13 0.136911 0.395399 0.689138
#
# Coordination Sequence:
#
# PCOD9514133 Si02
#       8
#    32  16  32  16  32  32  16  32
#     4  11  22  43  61  93 122 168 211 270 317 375
#     4  10  17  32  56  87 116 164 190 247 303 386
#     4  10  19  36  62  89 123 162 200 259 312 389
#     4  10  27  41  64  88 134 166 214 269 333 362
#     4  10  19  32  62  90 121 159 211 241 319 377
#     4  10  20  34  58  86 124 156 202 253 321 369
#     4  12  22  39  74  87 122 162 224 262 316 379
#     4  11  20  39  60  94 118 167 210 262 308 387
#
# _framework density 18.772002000000001
#
# number of rings (size 3 to 8) (size 9 to 14) (size 15 to 20)
#    0.000    1.538    4.615    0.462    0.000    2.154 
#    0.000    3.077    3.385    0.000    0.000    0.000 
#    0.000    0.000    0.000    0.000    0.000    0.000 
#
# Total GULP energy -289777.818424 kJ/mol
# GULP energy per Si atom -5572.650354 kJ/mol
# Density = 1.872928 g / cm^3
# Si number density = 18.772002 Si / 1000 Ang^3
#
#
#
# Elastic Constant Matrix: (Units=GPa)
#
#
# Indices 1 2 3 4 5 6 
#
# 1 69.7348 23.1965 16.5878 0.0000 0.0000 0.0000
# 2 23.1965 68.6387 6.8332 0.0000 0.0000 0.0000
# 3 16.5878 6.8332 69.4307 0.0000 0.0000 0.0000
# 4 0.0000 0.0000 0.0000 30.7839 0.0000 0.0000
# 5 0.0000 0.0000 0.0000 0.0000 16.7523 0.0000
# 6 0.0000 0.0000 0.0000 0.0000 0.0000 13.8233
#
#
#
# Elastic Compliance Matrix: (Units=1/GPa)
#
#
# Indices 1 2 3 4 5 6 
#
# 1 0.016969 -0.005384 -0.003524 0.000000 0.000000 0.000000
# 2 -0.005384 0.016421 -0.000330 0.000000 0.000000 0.000000
# 3 -0.003524 -0.000330 0.015277 0.000000 0.000000 0.000000
# 4 0.000000 0.000000 0.000000 0.032485 0.000000 0.000000
# 5 0.000000 0.000000 0.000000 0.000000 0.059693 0.000000
# 6 0.000000 0.000000 0.000000 0.000000 0.000000 0.072342
#
#
# Mechanical properties :
#
#
# Convention : Reuss Voigt Hill
#
# Bulk Modulus (GPa) = 33.12158 33.44881 33.28520
# Shear Modulus (GPa) = 20.68444 23.01767 21.85105
#
# Velocity S-wave (km/s) = 3.32305 3.50547 3.41548
# Velocity P-wave (km/s) = 5.69263 5.85163 5.77268
#
# Compressibility (1/GPa) = 0.03019179
#
# Stress axis : x y z
#
# Youngs Moduli (GPa) = 58.93008 60.89621 65.45658
#
# Poissons Ratio (x) = 0.32786 0.23069
# Poissons Ratio (y) = 0.31728 0.02159
# Poissons Ratio (z) = 0.20769 0.02009
#
# Static dielectric constant tensor:
#      x y z
#    x 1.622830 0.000000 0.000000 
#    y 0.000000 1.671450 0.000000 
#    z 0.000000 0.000000 1.707280 
# 
# From -- ./inp_files/46983.got.cif
#   From: 2010.05.17/outbox.cif.g08.bks.cpg/sg70_24_cif.got.tgz:46983.got - 2010.06.03 15:57:51.
