data_PCOD9514577
_publ_section_title
;
Structure prediction by ZEFSAII (Michael W. Deem and Ramdas Pophale) SiO2 
 PCOD9514577
Probable space group: F D D D
;
_chemical_formula_sum "Si O2"
_cell_formula_units_Z 192
_cell_length_a 20.736458
_cell_length_b 22.207228
_cell_length_c 20.185887
_cell_angle_alpha 90.000000
_cell_angle_beta 90.000000
_cell_angle_gamma 90.000000
_cell_volume 9295.585839
_symmetry_space_group_name_H-M "F D D D"
_symmetry_group_IT_number 70
_space_group.IT_coordinate_system_code '2'
_symmetry_cell_setting 'orthorhombic'
loop_
_space_group_symop_operation_xyz
x,y,z
1/4-x,1/4-y,z
x,1/4-y,1/4-z
1/4-x,y,1/4-z
-x,-y,-z
3/4+x,3/4+y,-z
-x,3/4+y,3/4+z
3/4+x,-y,3/4+z
x,1/2+y,1/2+z
1/4-x,3/4-y,1/2+z
x,3/4-y,3/4-z
1/4-x,1/2+y,3/4-z
-x,1/2-y,1/2-z
3/4+x,1/4+y,1/2-z
-x,1/4+y,1/4+z
3/4+x,1/2-y,1/4+z
1/2+x,y,1/2+z
3/4-x,1/4-y,1/2+z
1/2+x,1/4-y,3/4-z
3/4-x,y,3/4-z
1/2-x,-y,1/2-z
1/4+x,3/4+y,1/2-z
1/2-x,3/4+y,1/4+z
1/4+x,-y,1/4+z
1/2+x,1/2+y,z
3/4-x,3/4-y,z
1/2+x,3/4-y,1/4-z
3/4-x,1/2+y,1/4-z
1/2-x,1/2-y,-z
1/4+x,1/4+y,-z
1/2-x,1/4+y,3/4+z
1/4+x,1/2-y,3/4+z
loop_
_atom_site_type_symbol
_atom_site_label
_atom_site_fract_x
_atom_site_fract_y
_atom_site_fract_z
Si Si1 0.410456 0.592566 0.690835
Si Si2 0.470255 0.095942 0.807170
Si Si3 0.416188 0.222400 0.809399
Si Si4 0.194807 0.644275 0.549707
Si Si5 0.278882 0.494459 0.144557
Si Si6 0.589300 0.462792 0.515146
O O1 0.378349 0.625000 0.625000
O O2 0.370314 0.551034 0.742486
O O3 0.462880 0.549998 0.655779
O O4 0.434656 0.647635 0.736780
O O5 0.452457 0.162041 0.833011
O O6 0.499280 0.108063 0.735720
O O7 0.523862 0.065104 0.851552
O O8 0.407221 0.053886 0.798497
O O9 0.375000 0.239457 0.875000
O O10 0.452595 0.284132 0.792847
O O11 0.125000 0.625000 0.521698
O O12 0.195199 0.625000 0.625000
O O13 0.336435 0.497919 0.198090
O O14 0.211978 0.492400 0.185530
#
# Coordination Sequence:
#
# PCOD9514577 Si02
#       6
#    32  32  32  32  32  32
#     4   9  19  36  65  94 128 176 219 274 336 403
#     4  11  22  37  64  95 125 176 222 270 338 406
#     4  11  21  39  65  93 133 171 220 273 339 411
#     4  11  23  41  60  89 134 173 214 279 336 398
#     4  10  19  36  65  92 130 165 217 277 321 396
#     4   9  20  38  62  96 127 170 220 272 337 402
#
# _framework density 20.654965000000001
#
# number of rings (size 3 to 8) (size 9 to 14) (size 15 to 20)
#    0.000    1.833    1.667    4.000    0.000    5.333 
#    0.000    1.667    3.667   30.000    0.000    0.000 
#    0.000    0.000    0.000    0.000    0.000    0.000 
#
# Total GULP energy -267323.120857 kJ/mol
# GULP energy per Si atom -5569.231685 kJ/mol
# Density = 2.060795 g / cm^3
# Si number density = 20.654965 Si / 1000 Ang^3
#
#
#
# Elastic Constant Matrix: (Units=GPa)
#
#
# Indices 1 2 3 4 5 6 
#
# 1 33.7653 23.9698 23.0107 0.0000 0.0000 0.0000
# 2 23.9698 108.3729 47.4477 0.0000 0.0000 0.0000
# 3 23.0107 47.4477 100.8194 0.0000 0.0000 0.0000
# 4 0.0000 0.0000 0.0000 9.2683 0.0000 0.0000
# 5 0.0000 0.0000 0.0000 0.0000 28.6631 0.0000
# 6 0.0000 0.0000 0.0000 0.0000 0.0000 1.8395
#
#
#
# Elastic Compliance Matrix: (Units=1/GPa)
#
#
# Indices 1 2 3 4 5 6 
#
# 1 0.037726 -0.005762 -0.005899 0.000000 0.000000 0.000000
# 2 -0.005762 0.012502 -0.004569 0.000000 0.000000 0.000000
# 3 -0.005899 -0.004569 0.013415 0.000000 0.000000 0.000000
# 4 0.000000 0.000000 0.000000 0.107895 0.000000 0.000000
# 5 0.000000 0.000000 0.000000 0.000000 0.034888 0.000000
# 6 0.000000 0.000000 0.000000 0.000000 0.000000 0.543635
#
#
# Mechanical properties :
#
#
# Convention : Reuss Voigt Hill
#
# Bulk Modulus (GPa) = 32.06670 47.97933 40.02301
# Shear Modulus (GPa) = 6.30584 17.85613 12.08098
#
# Velocity S-wave (km/s) = 1.74916 2.94342 2.42108
# Velocity P-wave (km/s) = 4.43149 5.90178 5.21867
#
# Compressibility (1/GPa) = 0.03118500
#
# Stress axis : x y z
#
# Youngs Moduli (GPa) = 26.50664 79.98729 74.54214
#
# Poissons Ratio (x) = 0.46085 0.43973
# Poissons Ratio (y) = 0.15272 0.34056
# Poissons Ratio (z) = 0.15636 0.36544
#
# Static dielectric constant tensor:
#      x y z
#    x 1.801560 0.000000 0.000000 
#    y 0.000000 1.770700 0.000000 
#    z 0.000000 0.000000 1.816180 
# 
# From -- ./inp_files/45937.got.cif
#   From: 2010.05.17/outbox.cif.g08.bks.cpg/sg70_23_cif.got.tgz:45937.got - 2010.06.03 15:57:51.
