data_PCOD9514925
_publ_section_title
;
Structure prediction by ZEFSAII (Michael W. Deem and Ramdas Pophale) SiO2 
 PCOD9514925
Probable space group: F D D D
;
_chemical_formula_sum "Si O2"
_cell_formula_units_Z 216
_cell_length_a 19.397490
_cell_length_b 21.367648
_cell_length_c 26.020047
_cell_angle_alpha 90.000000
_cell_angle_beta 90.000000
_cell_angle_gamma 90.000000
_cell_volume 10784.756254
_symmetry_space_group_name_H-M "F D D D"
_symmetry_group_IT_number 70
_space_group.IT_coordinate_system_code '2'
_symmetry_cell_setting 'orthorhombic'
loop_
_space_group_symop_operation_xyz
x,y,z
1/4-x,1/4-y,z
x,1/4-y,1/4-z
1/4-x,y,1/4-z
-x,-y,-z
3/4+x,3/4+y,-z
-x,3/4+y,3/4+z
3/4+x,-y,3/4+z
x,1/2+y,1/2+z
1/4-x,3/4-y,1/2+z
x,3/4-y,3/4-z
1/4-x,1/2+y,3/4-z
-x,1/2-y,1/2-z
3/4+x,1/4+y,1/2-z
-x,1/4+y,1/4+z
3/4+x,1/2-y,1/4+z
1/2+x,y,1/2+z
3/4-x,1/4-y,1/2+z
1/2+x,1/4-y,3/4-z
3/4-x,y,3/4-z
1/2-x,-y,1/2-z
1/4+x,3/4+y,1/2-z
1/2-x,3/4+y,1/4+z
1/4+x,-y,1/4+z
1/2+x,1/2+y,z
3/4-x,3/4-y,z
1/2+x,3/4-y,1/4-z
3/4-x,1/2+y,1/4-z
1/2-x,1/2-y,-z
1/4+x,1/4+y,-z
1/2-x,1/4+y,3/4+z
1/4+x,1/2-y,3/4+z
loop_
_atom_site_type_symbol
_atom_site_label
_atom_site_fract_x
_atom_site_fract_y
_atom_site_fract_z
Si Si1 0.438220 0.025686 0.907804
Si Si2 0.553570 0.025626 0.554819
Si Si3 0.625000 0.125000 0.873023
Si Si4 0.367476 0.083151 0.003306
Si Si5 0.842135 0.742059 0.599176
Si Si6 0.522676 0.366476 0.669706
Si Si7 0.625000 0.125000 0.625000
Si Si8 0.141854 0.783362 0.464186
O O1 0.375000 0.996538 0.875000
O O2 0.414745 0.042658 0.965127
O O3 0.451864 0.091932 0.878377
O O4 0.509490 0.987730 0.906982
O O5 0.578600 0.078667 0.592106
O O6 0.474900 0.042594 0.540373
O O7 0.550346 0.954665 0.577863
O O8 0.606952 0.020466 0.507146
O O9 0.637931 0.185515 0.907719
O O10 0.558763 0.136145 0.837569
O O11 0.298301 0.095392 0.969807
O O12 0.366951 0.049950 0.058446
O O13 0.392498 0.153907 0.013729
O O14 0.861866 0.729128 0.658281
#
# Coordination Sequence:
#
# PCOD9514925 Si02
#       8
#    32  32  16  32  32  32   8  32
#     4   9  20  39  62  90 117 161 209 260 321 372
#     4  10  23  42  57  93 131 170 213 259 306 385
#     4  10  20  37  60  92 120 166 207 268 312 384
#     4  10  21  37  65  90 118 166 210 261 322 381
#     4  11  21  38  64  89 124 162 212 261 318 387
#     4   9  19  39  66  85 130 167 209 260 318 386
#     4  12  28  38  68  96 140 176 212 270 322 376
#     4  10  22  41  63  86 127 168 210 261 317 376
#
# _framework density 20.028269000000002
#
# number of rings (size 3 to 8) (size 9 to 14) (size 15 to 20)
#    0.000    2.074    1.481    0.889    7.259    0.593 
#    8.000    8.889    0.000    1.778    0.000    1.037 
#    0.000    0.000    0.000    0.000    0.000    0.000 
#
# Total GULP energy -301072.868374 kJ/mol
# GULP energy per Si atom -5575.423488 kJ/mol
# Density = 1.998268 g / cm^3
# Si number density = 20.028269 Si / 1000 Ang^3
#
#
#
# Elastic Constant Matrix: (Units=GPa)
#
#
# Indices 1 2 3 4 5 6 
#
# 1 78.3733 13.1379 14.3563 0.0000 0.0000 0.0000
# 2 13.1379 63.5532 29.6996 0.0000 0.0000 0.0000
# 3 14.3563 29.6996 87.4127 0.0000 0.0000 0.0000
# 4 0.0000 0.0000 0.0000 72.6033 0.0000 0.0000
# 5 0.0000 0.0000 0.0000 0.0000 17.1245 0.0000
# 6 0.0000 0.0000 0.0000 0.0000 0.0000 16.4405
#
#
#
# Elastic Compliance Matrix: (Units=1/GPa)
#
#
# Indices 1 2 3 4 5 6 
#
# 1 0.013380 -0.002067 -0.001495 0.000000 0.000000 0.000000
# 2 -0.002067 0.019024 -0.006124 0.000000 0.000000 0.000000
# 3 -0.001495 -0.006124 0.013766 0.000000 0.000000 0.000000
# 4 0.000000 0.000000 0.000000 0.013773 0.000000 0.000000
# 5 0.000000 0.000000 0.000000 0.000000 0.058396 0.000000
# 6 0.000000 0.000000 0.000000 0.000000 0.000000 0.060825
#
#
# Mechanical properties :
#
#
# Convention : Reuss Voigt Hill
#
# Bulk Modulus (GPa) = 37.31721 38.19185 37.75453
# Shear Modulus (GPa) = 24.09984 32.71003 28.40493
#
# Velocity S-wave (km/s) = 3.47261 4.04566 3.77004
# Velocity P-wave (km/s) = 5.89503 6.39793 6.15163
#
# Compressibility (1/GPa) = 0.02679729
#
# Stress axis : x y z
#
# Youngs Moduli (GPa) = 74.73923 52.56484 72.64115
#
# Poissons Ratio (x) = 0.10866 0.10860
# Poissons Ratio (y) = 0.15450 0.44487
# Poissons Ratio (z) = 0.11174 0.32192
#
# Static dielectric constant tensor:
#      x y z
#    x 1.707600 0.000000 0.000000 
#    y 0.000000 1.725270 0.000000 
#    z 0.000000 0.000000 1.756630 
# 
# From -- ./inp_files/60530.got.cif
#   From: 2010.05.17/outbox.cif.g08.bks.cpg/sg70_31_cif.got.tgz:60530.got - 2010.06.03 15:57:51.
