data_PCOD9514625
_publ_section_title
;
Structure prediction by ZEFSAII (Michael W. Deem and Ramdas Pophale) SiO2 
 PCOD9514625
Probable space group: F D D D
;
_chemical_formula_sum "Si O2"
_cell_formula_units_Z 112
_cell_length_a 17.359083
_cell_length_b 18.596106
_cell_length_c 14.595364
_cell_angle_alpha 90.000000
_cell_angle_beta 90.000000
_cell_angle_gamma 90.000000
_cell_volume 4711.549121
_symmetry_space_group_name_H-M "F D D D"
_symmetry_group_IT_number 70
_space_group.IT_coordinate_system_code '2'
_symmetry_cell_setting 'orthorhombic'
loop_
_space_group_symop_operation_xyz
x,y,z
1/4-x,1/4-y,z
x,1/4-y,1/4-z
1/4-x,y,1/4-z
-x,-y,-z
3/4+x,3/4+y,-z
-x,3/4+y,3/4+z
3/4+x,-y,3/4+z
x,1/2+y,1/2+z
1/4-x,3/4-y,1/2+z
x,3/4-y,3/4-z
1/4-x,1/2+y,3/4-z
-x,1/2-y,1/2-z
3/4+x,1/4+y,1/2-z
-x,1/4+y,1/4+z
3/4+x,1/2-y,1/4+z
1/2+x,y,1/2+z
3/4-x,1/4-y,1/2+z
1/2+x,1/4-y,3/4-z
3/4-x,y,3/4-z
1/2-x,-y,1/2-z
1/4+x,3/4+y,1/2-z
1/2-x,3/4+y,1/4+z
1/4+x,-y,1/4+z
1/2+x,1/2+y,z
3/4-x,3/4-y,z
1/2+x,3/4-y,1/4-z
3/4-x,1/2+y,1/4-z
1/2-x,1/2-y,-z
1/4+x,1/4+y,-z
1/2-x,1/4+y,3/4+z
1/4+x,1/2-y,3/4+z
loop_
_atom_site_type_symbol
_atom_site_label
_atom_site_fract_x
_atom_site_fract_y
_atom_site_fract_z
Si Si1 0.125000 0.940945 0.625000
Si Si2 0.934330 0.439054 0.593120
Si Si3 0.833812 0.160275 0.528512
Si Si4 0.046302 0.075058 0.698349
O O1 0.114794 0.890391 0.536729
O O2 0.058277 0.998398 0.648075
O O3 0.875000 0.375000 0.590686
O O4 0.890527 0.509658 0.555557
O O5 0.967777 0.445813 0.696384
O O6 0.006006 0.421312 0.528784
O O7 0.815909 0.125000 0.625000
O O8 0.125000 0.125000 0.709661
O O9 0.000014 0.125000 0.625000
#
# Coordination Sequence:
#
# PCOD9514625 Si02
#       4
#    16  32  32  32
#     4  10  19  38  61  88 122 158 206 256 309 362
#     4  10  22  41  64  92 127 170 211 259 331 381
#     4  11  23  39  65  92 130 167 210 269 314 386
#     4   8  16  35  63  85 119 158 196 257 309 370
#
# _framework density 23.771376
#
# number of rings (size 3 to 8) (size 9 to 14) (size 15 to 20)
#    0.000    2.571    2.857    0.000    0.000    5.143 
#    0.000   14.286    0.000    0.000    0.000    0.000 
#    0.000    0.000    0.000    0.000    0.000    0.000 
#
# Total GULP energy -156149.421717 kJ/mol
# GULP energy per Si atom -5576.765061 kJ/mol
# Density = 2.371727 g / cm^3
# Si number density = 23.771376 Si / 1000 Ang^3
#
#
#
# Elastic Constant Matrix: (Units=GPa)
#
#
# Indices 1 2 3 4 5 6 
#
# 1 31.9894 27.5559 28.8401 0.0000 0.0000 0.0000
# 2 27.5559 217.6935 107.6753 0.0000 0.0000 0.0000
# 3 28.8401 107.6753 245.8224 0.0000 0.0000 0.0000
# 4 0.0000 0.0000 0.0000 44.1179 0.0000 0.0000
# 5 0.0000 0.0000 0.0000 0.0000 0.4574 0.0000
# 6 0.0000 0.0000 0.0000 0.0000 0.0000 7.3759
#
#
#
# Elastic Compliance Matrix: (Units=1/GPa)
#
#
# Indices 1 2 3 4 5 6 
#
# 1 0.036630 -0.003206 -0.002893 0.000000 0.000000 0.000000
# 2 -0.003206 0.006145 -0.002315 0.000000 0.000000 0.000000
# 3 -0.002893 -0.002315 0.005422 0.000000 0.000000 0.000000
# 4 0.000000 0.000000 0.000000 0.022667 0.000000 0.000000
# 5 0.000000 0.000000 0.000000 0.000000 2.186314 0.000000
# 6 0.000000 0.000000 0.000000 0.000000 0.000000 0.135578
#
#
# Mechanical properties :
#
#
# Convention : Reuss Voigt Hill
#
# Bulk Modulus (GPa) = 31.87984 91.51643 61.69814
# Shear Modulus (GPa) = 2.06608 32.48582 17.27595
#
# Velocity S-wave (km/s) = 0.93329 3.70076 2.69876
# Velocity P-wave (km/s) = 3.82119 7.53943 5.97681
#
# Compressibility (1/GPa) = 0.03136779
#
# Stress axis : x y z
#
# Youngs Moduli (GPa) = 27.29984 162.74414 184.44669
#
# Poissons Ratio (x) = 0.52169 0.53367
# Poissons Ratio (y) = 0.08751 0.42707
# Poissons Ratio (z) = 0.07899 0.37682
#
# Static dielectric constant tensor:
#      x y z
#    x 2.085520 0.000000 0.000000 
#    y 0.000000 1.905080 0.000000 
#    z 0.000000 0.000000 1.927690 
# 
# From -- ./inp_files/28402.got.cif
#   From: 2010.05.17/outbox.cif.g08.bks.cpg/sg70_15_cif.got.tgz:28402.got - 2010.06.03 15:57:51.
