data_PCOD9514251
_publ_section_title
;
Structure prediction by ZEFSAII (Michael W. Deem and Ramdas Pophale) SiO2 
 PCOD9514251
Probable space group: F D D D
;
_chemical_formula_sum "Si O2"
_cell_formula_units_Z 240
_cell_length_a 20.056847
_cell_length_b 31.677624
_cell_length_c 15.205450
_cell_angle_alpha 90.000000
_cell_angle_beta 90.000000
_cell_angle_gamma 90.000000
_cell_volume 9660.832195
_symmetry_space_group_name_H-M "F D D D"
_symmetry_group_IT_number 70
_space_group.IT_coordinate_system_code '2'
_symmetry_cell_setting 'orthorhombic'
loop_
_space_group_symop_operation_xyz
x,y,z
1/4-x,1/4-y,z
x,1/4-y,1/4-z
1/4-x,y,1/4-z
-x,-y,-z
3/4+x,3/4+y,-z
-x,3/4+y,3/4+z
3/4+x,-y,3/4+z
x,1/2+y,1/2+z
1/4-x,3/4-y,1/2+z
x,3/4-y,3/4-z
1/4-x,1/2+y,3/4-z
-x,1/2-y,1/2-z
3/4+x,1/4+y,1/2-z
-x,1/4+y,1/4+z
3/4+x,1/2-y,1/4+z
1/2+x,y,1/2+z
3/4-x,1/4-y,1/2+z
1/2+x,1/4-y,3/4-z
3/4-x,y,3/4-z
1/2-x,-y,1/2-z
1/4+x,3/4+y,1/2-z
1/2-x,3/4+y,1/4+z
1/4+x,-y,1/4+z
1/2+x,1/2+y,z
3/4-x,3/4-y,z
1/2+x,3/4-y,1/4-z
3/4-x,1/2+y,1/4-z
1/2-x,1/2-y,-z
1/4+x,1/4+y,-z
1/2-x,1/4+y,3/4+z
1/4+x,1/2-y,3/4+z
loop_
_atom_site_type_symbol
_atom_site_label
_atom_site_fract_x
_atom_site_fract_y
_atom_site_fract_z
Si Si1 0.659158 0.698977 0.770368
Si Si2 0.382935 0.963260 0.523723
Si Si3 0.522972 0.465113 0.711971
Si Si4 0.399226 0.696630 0.273862
Si Si5 0.467198 0.110665 0.241659
Si Si6 0.978429 0.620786 0.807639
Si Si7 0.125000 0.625000 0.489580
Si Si8 0.744705 0.199408 0.990476
O O1 0.654563 0.702296 0.876392
O O2 0.682953 0.744536 0.733344
O O3 0.712104 0.663753 0.740665
O O4 0.583354 0.690118 0.744272
O O5 0.303942 0.974836 0.515672
O O6 0.391370 0.920241 0.468753
O O7 0.418478 0.006480 0.502224
O O8 0.546916 0.419597 0.748313
O O9 0.520089 0.450217 0.610430
O O10 0.375000 0.701294 0.375000
O O11 0.339419 0.673667 0.220462
O O12 0.459656 0.664434 0.262177
O O13 0.452026 0.120476 0.344743
O O14 0.471526 0.159465 0.208253
O O15 0.058000 0.615001 0.813756
O O16 0.750000 0.250000 0.000000
#
# Coordination Sequence:
#
# PCOD9514251 Si02
#       8
#    32  32  32  32  32  32  16  32
#     4  11  20  36  64  86 116 162 198 251 300 352
#     4  10  20  36  61  88 114 153 204 243 297 365
#     4   9  20  37  59  84 118 151 197 248 299 356
#     4  10  21  37  58  89 121 153 196 252 306 352
#     4  10  19  37  60  85 116 154 200 248 294 361
#     4   9  19  34  58  83 111 154 197 240 292 358
#     4  10  18  34  55  84 112 145 202 240 278 358
#     4  10  23  37  60  93 116 154 209 244 301 366
#
# _framework density 24.842580999999999
#
# number of rings (size 3 to 8) (size 9 to 14) (size 15 to 20)
#    0.000    2.133    2.667    1.200    1.867    1.067 
#    0.000    1.667    0.000    4.800    0.000    0.000 
#    0.000    0.000    0.000    0.000    0.000    0.000 
#
# Total GULP energy -334188.808052 kJ/mol
# GULP energy per Si atom -5569.813468 kJ/mol
# Density = 2.478604 g / cm^3
# Si number density = 24.842581 Si / 1000 Ang^3
#
#
#
# Elastic Constant Matrix: (Units=GPa)
#
#
# Indices 1 2 3 4 5 6 
#
# 1 71.8169 27.4765 12.5847 0.0000 0.0000 0.0000
# 2 27.4765 249.3086 11.5161 0.0000 0.0000 0.0000
# 3 12.5847 11.5161 30.1362 0.0000 0.0000 0.0000
# 4 0.0000 0.0000 0.0000 14.2478 0.0000 0.0000
# 5 0.0000 0.0000 0.0000 0.0000 14.2796 0.0000
# 6 0.0000 0.0000 0.0000 0.0000 0.0000 40.5669
#
#
#
# Elastic Compliance Matrix: (Units=1/GPa)
#
#
# Indices 1 2 3 4 5 6 
#
# 1 0.015513 -0.001436 -0.005929 0.000000 0.000000 0.000000
# 2 -0.001436 0.004216 -0.001012 0.000000 0.000000 0.000000
# 3 -0.005929 -0.001012 0.036045 0.000000 0.000000 0.000000
# 4 0.000000 0.000000 0.000000 0.070187 0.000000 0.000000
# 5 0.000000 0.000000 0.000000 0.000000 0.070030 0.000000
# 6 0.000000 0.000000 0.000000 0.000000 0.000000 0.024651
#
#
# Mechanical properties :
#
#
# Convention : Reuss Voigt Hill
#
# Bulk Modulus (GPa) = 25.62740 50.49069 38.05904
# Shear Modulus (GPa) = 19.96796 33.79782 26.88289
#
# Velocity S-wave (km/s) = 2.83818 3.69247 3.29314
# Velocity P-wave (km/s) = 4.59115 6.20866 5.46013
#
# Compressibility (1/GPa) = 0.03902074
#
# Stress axis : x y z
#
# Youngs Moduli (GPa) = 64.46366 237.18858 27.74288
#
# Poissons Ratio (x) = 0.34055 0.16450
# Poissons Ratio (y) = 0.09255 0.02806
# Poissons Ratio (z) = 0.38222 0.23993
#
# Static dielectric constant tensor:
#      x y z
#    x 1.955020 0.000000 0.000000 
#    y 0.000000 2.536810 0.000000 
#    z 0.000000 0.000000 2.179590 
# 
# From -- ./inp_files/45279.got.cif
#   From: 2010.05.17/outbox.cif.g08.bks.cpg/sg70_23_cif.got.tgz:45279.got - 2010.06.03 15:57:51.
