data_PCOD9514613
_publ_section_title
;
Structure prediction by ZEFSAII (Michael W. Deem and Ramdas Pophale) SiO2 
 PCOD9514613
Probable space group: F D D D
;
_chemical_formula_sum "Si O2"
_cell_formula_units_Z 216
_cell_length_a 21.997575
_cell_length_b 27.287095
_cell_length_c 16.300840
_cell_angle_alpha 90.000000
_cell_angle_beta 90.000000
_cell_angle_gamma 90.000000
_cell_volume 9784.577886
_symmetry_space_group_name_H-M "F D D D"
_symmetry_group_IT_number 70
_space_group.IT_coordinate_system_code '2'
_symmetry_cell_setting 'orthorhombic'
loop_
_space_group_symop_operation_xyz
x,y,z
1/4-x,1/4-y,z
x,1/4-y,1/4-z
1/4-x,y,1/4-z
-x,-y,-z
3/4+x,3/4+y,-z
-x,3/4+y,3/4+z
3/4+x,-y,3/4+z
x,1/2+y,1/2+z
1/4-x,3/4-y,1/2+z
x,3/4-y,3/4-z
1/4-x,1/2+y,3/4-z
-x,1/2-y,1/2-z
3/4+x,1/4+y,1/2-z
-x,1/4+y,1/4+z
3/4+x,1/2-y,1/4+z
1/2+x,y,1/2+z
3/4-x,1/4-y,1/2+z
1/2+x,1/4-y,3/4-z
3/4-x,y,3/4-z
1/2-x,-y,1/2-z
1/4+x,3/4+y,1/2-z
1/2-x,3/4+y,1/4+z
1/4+x,-y,1/4+z
1/2+x,1/2+y,z
3/4-x,3/4-y,z
1/2+x,3/4-y,1/4-z
3/4-x,1/2+y,1/4-z
1/2-x,1/2-y,-z
1/4+x,1/4+y,-z
1/2-x,1/4+y,3/4+z
1/4+x,1/2-y,3/4+z
loop_
_atom_site_type_symbol
_atom_site_label
_atom_site_fract_x
_atom_site_fract_y
_atom_site_fract_z
Si Si1 0.883306 0.956060 0.278306
Si Si2 0.443483 0.600960 0.376856
Si Si3 0.298191 0.287479 0.916925
Si Si4 0.900746 0.125000 0.125000
Si Si5 0.225247 0.134182 0.529132
Si Si6 0.282892 0.543256 0.519463
Si Si7 0.625000 0.125000 0.625000
Si Si8 0.422055 0.191423 0.759480
O O1 0.875000 0.966347 0.375000
O O2 0.817966 0.931341 0.261105
O O3 0.932429 0.912819 0.263087
O O4 0.913633 0.002745 0.234790
O O5 0.375000 0.580840 0.375000
O O6 0.469865 0.609184 0.466574
O O7 0.481997 0.563067 0.321436
O O8 0.436974 0.653263 0.331618
O O9 0.274112 0.277215 0.824428
O O10 0.333207 0.338351 0.924893
O O11 0.340008 0.244440 0.952409
O O12 0.235447 0.296565 0.964304
O O13 0.939921 0.158939 0.064371
O O14 0.877915 0.165932 0.191646
O O15 0.242739 0.125000 0.625000
#
# Coordination Sequence:
#
# PCOD9514613 Si02
#       8
#    32  32  32  16  32  32   8  32
#     4   9  18  38  71  91 125 171 221 286 349 394
#     4  11  22  37  61  91 134 170 218 283 340 419
#     4  10  21  38  61  87 130 178 226 276 334 410
#     4   8  17  34  58  83 120 160 213 257 328 398
#     4   9  20  41  63  97 128 168 225 284 342 413
#     4  10  19  38  59  88 126 179 215 273 342 394
#     4  12  22  36  60  92 136 188 238 282 334 410
#     4   9  19  39  61  82 120 175 221 276 337 394
#
# _framework density 22.075555999999999
#
# number of rings (size 3 to 8) (size 9 to 14) (size 15 to 20)
#    0.000    2.370    0.000    4.889    1.037    0.000 
#    8.000   21.481    0.000    0.000    0.000    0.000 
#    0.000    0.000    0.000    0.000    0.000    0.000 
#
# Total GULP energy -300720.103872 kJ/mol
# GULP energy per Si atom -5568.890812 kJ/mol
# Density = 2.202531 g / cm^3
# Si number density = 22.075556 Si / 1000 Ang^3
#
#
#
# Elastic Constant Matrix: (Units=GPa)
#
#
# Indices 1 2 3 4 5 6 
#
# 1 84.7540 29.2989 61.0341 0.0000 0.0000 0.0000
# 2 29.2989 139.4921 44.6167 0.0000 0.0000 0.0000
# 3 61.0341 44.6167 111.3431 0.0000 0.0000 0.0000
# 4 0.0000 0.0000 0.0000 48.3064 0.0000 0.0000
# 5 0.0000 0.0000 0.0000 0.0000 11.3976 0.0000
# 6 0.0000 0.0000 0.0000 0.0000 0.0000 15.2224
#
#
#
# Elastic Compliance Matrix: (Units=1/GPa)
#
#
# Indices 1 2 3 4 5 6 
#
# 1 0.019568 -0.000779 -0.010414 0.000000 0.000000 0.000000
# 2 -0.000779 0.008254 -0.002880 0.000000 0.000000 0.000000
# 3 -0.010414 -0.002880 0.015844 0.000000 0.000000 0.000000
# 4 0.000000 0.000000 0.000000 0.020701 0.000000 0.000000
# 5 0.000000 0.000000 0.000000 0.000000 0.087738 0.000000
# 6 0.000000 0.000000 0.000000 0.000000 0.000000 0.065693
#
#
# Mechanical properties :
#
#
# Convention : Reuss Voigt Hill
#
# Bulk Modulus (GPa) = 64.43908 67.27653 65.85781
# Shear Modulus (GPa) = 19.91105 28.36125 24.13615
#
# Velocity S-wave (km/s) = 3.00651 3.58821 3.31016
# Velocity P-wave (km/s) = 6.42695 6.90715 6.67137
#
# Compressibility (1/GPa) = 0.01551853
#
# Stress axis : x y z
#
# Youngs Moduli (GPa) = 51.10465 121.15660 63.11508
#
# Poissons Ratio (x) = 0.09438 0.65729
# Poissons Ratio (y) = 0.03981 0.18179
# Poissons Ratio (z) = 0.53221 0.34898
#
# Static dielectric constant tensor:
#      x y z
#    x 1.849260 0.000000 0.000000 
#    y 0.000000 1.845500 0.000000 
#    z 0.000000 0.000000 1.898970 
# 
# From -- ./inp_files/29129.got.cif
#   From: 2010.05.17/outbox.cif.g08.bks.cpg/sg70_15_cif.got.tgz:29129.got - 2010.06.03 15:57:51.
