data_PCOD9514485
_publ_section_title
;
Structure prediction by ZEFSAII (Michael W. Deem and Ramdas Pophale) SiO2 
 PCOD9514485
Probable space group: F D D D
;
_chemical_formula_sum "Si O2"
_cell_formula_units_Z 232
_cell_length_a 20.737280
_cell_length_b 30.780352
_cell_length_c 17.894104
_cell_angle_alpha 90.000000
_cell_angle_beta 90.000000
_cell_angle_gamma 90.000000
_cell_volume 11421.820503
_symmetry_space_group_name_H-M "F D D D"
_symmetry_group_IT_number 70
_space_group.IT_coordinate_system_code '2'
_symmetry_cell_setting 'orthorhombic'
loop_
_space_group_symop_operation_xyz
x,y,z
1/4-x,1/4-y,z
x,1/4-y,1/4-z
1/4-x,y,1/4-z
-x,-y,-z
3/4+x,3/4+y,-z
-x,3/4+y,3/4+z
3/4+x,-y,3/4+z
x,1/2+y,1/2+z
1/4-x,3/4-y,1/2+z
x,3/4-y,3/4-z
1/4-x,1/2+y,3/4-z
-x,1/2-y,1/2-z
3/4+x,1/4+y,1/2-z
-x,1/4+y,1/4+z
3/4+x,1/2-y,1/4+z
1/2+x,y,1/2+z
3/4-x,1/4-y,1/2+z
1/2+x,1/4-y,3/4-z
3/4-x,y,3/4-z
1/2-x,-y,1/2-z
1/4+x,3/4+y,1/2-z
1/2-x,3/4+y,1/4+z
1/4+x,-y,1/4+z
1/2+x,1/2+y,z
3/4-x,3/4-y,z
1/2+x,3/4-y,1/4-z
3/4-x,1/2+y,1/4-z
1/2-x,1/2-y,-z
1/4+x,1/4+y,-z
1/2-x,1/4+y,3/4+z
1/4+x,1/2-y,3/4+z
loop_
_atom_site_type_symbol
_atom_site_label
_atom_site_fract_x
_atom_site_fract_y
_atom_site_fract_z
Si Si1 0.191955 0.924118 0.449176
Si Si2 0.234149 0.655292 0.237387
Si Si3 0.673992 0.747828 0.987716
Si Si4 0.119521 0.911469 0.963733
Si Si5 0.414981 0.419231 0.764011
Si Si6 0.181673 0.161485 0.409649
Si Si7 0.625000 0.625000 0.625000
Si Si8 0.587851 0.518456 0.810081
O O1 0.162212 0.919689 0.366814
O O2 0.163641 0.882621 0.493216
O O3 0.268984 0.921964 0.440727
O O4 0.170357 0.971586 0.477404
O O5 0.304346 0.657570 0.202514
O O6 0.234558 0.613348 0.292136
O O7 0.175179 0.650225 0.178725
O O8 0.217854 0.698869 0.283150
O O9 0.645373 0.794747 0.008793
O O10 0.633929 0.709087 0.025749
O O11 0.666333 0.738253 0.899133
O O12 0.750000 0.750000 0.000000
O O13 0.375000 0.375000 0.775130
O O14 0.441236 0.420257 0.677742
O O15 0.125000 0.125000 0.410473
O O16 0.154289 0.204606 0.449355
#
# Coordination Sequence:
#
# PCOD9514485 Si02
#       8
#    32  32  32  32  32  32   8  32
#     4  10  20  37  54  80 115 164 189 238 310 358
#     4  11  20  38  62  90 112 162 205 258 317 365
#     4  10  20  37  61  91 116 158 201 248 310 371
#     4  10  22  37  54  78 125 157 197 249 299 365
#     4  10  19  34  60  84 117 153 195 251 303 372
#     4   8  16  34  57  84 109 142 194 248 306 360
#     4  12  20  32  68  92 116 152 226 254 304 404
#     4   9  18  36  59  81 119 148 198 254 303 364
#
# _framework density 20.311997999999999
#
# number of rings (size 3 to 8) (size 9 to 14) (size 15 to 20)
#    0.000    2.207    2.069    3.310    0.000    0.000 
#    0.000   15.862    9.103    0.000    0.000    0.000 
#    0.000    0.000    0.000    0.000    0.000    0.000 
#
# Total GULP energy -323295.730842 kJ/mol
# GULP energy per Si atom -5574.064325 kJ/mol
# Density = 2.026577 g / cm^3
# Si number density = 20.311998 Si / 1000 Ang^3
#
#
#
# Elastic Constant Matrix: (Units=GPa)
#
#
# Indices 1 2 3 4 5 6 
#
# 1 155.2982 66.7031 22.7947 0.0000 0.0000 0.0000
# 2 66.7031 191.3815 10.2051 0.0000 0.0000 0.0000
# 3 22.7947 10.2051 29.8908 0.0000 0.0000 0.0000
# 4 0.0000 0.0000 0.0000 -0.7265 0.0000 0.0000
# 5 0.0000 0.0000 0.0000 0.0000 15.7142 0.0000
# 6 0.0000 0.0000 0.0000 0.0000 0.0000 25.6567
#
#
#
# Elastic Compliance Matrix: (Units=1/GPa)
#
#
# Indices 1 2 3 4 5 6 
#
# 1 0.008372 -0.002625 -0.005488 0.000000 0.000000 0.000000
# 2 -0.002625 0.006145 -0.000096 0.000000 0.000000 0.000000
# 3 -0.005488 -0.000096 0.037673 0.000000 0.000000 0.000000
# 4 0.000000 0.000000 0.000000 -1.376411 0.000000 0.000000
# 5 0.000000 0.000000 0.000000 0.000000 0.063637 0.000000
# 6 0.000000 0.000000 0.000000 0.000000 0.000000 0.038976
#
#
# Mechanical properties :
#
#
# Convention : Reuss Voigt Hill
#
# Bulk Modulus (GPa) = 27.95524 63.99735 45.97629
# Shear Modulus (GPa) = -4.19019 26.58672 11.19826
#
# Velocity S-wave (km/s) = -1.43784 3.62182 2.35055
# Velocity P-wave (km/s) = 3.32209 7.00469 5.48188
#
# Compressibility (1/GPa) = 0.03577147
#
# Stress axis : x y z
#
# Youngs Moduli (GPa) = 119.43867 162.72501 26.54394
#
# Poissons Ratio (x) = 0.42722 0.14569
# Poissons Ratio (y) = 0.31358 0.00255
# Poissons Ratio (z) = 0.65554 0.01561
#
# Static dielectric constant tensor:
#      x y z
#    x 1.705920 0.000000 0.000000 
#    y 0.000000 1.808260 0.000000 
#    z 0.000000 0.000000 1.771490 
# 
# From -- ./inp_files/52450.got.cif
#   From: 2010.05.17/outbox.cif.g08.bks.cpg/sg70_27_cif.got.tgz:52450.got - 2010.06.03 15:57:51.
