data_PCOD9514554
_publ_section_title
;
Structure prediction by ZEFSAII (Michael W. Deem and Ramdas Pophale) SiO2 
 PCOD9514554
Probable space group: F D D D
;
_chemical_formula_sum "Si O2"
_cell_formula_units_Z 192
_cell_length_a 29.891273
_cell_length_b 14.938597
_cell_length_c 21.263831
_cell_angle_alpha 90.000000
_cell_angle_beta 90.000000
_cell_angle_gamma 90.000000
_cell_volume 9495.016732
_symmetry_space_group_name_H-M "F D D D"
_symmetry_group_IT_number 70
_space_group.IT_coordinate_system_code '2'
_symmetry_cell_setting 'orthorhombic'
loop_
_space_group_symop_operation_xyz
x,y,z
1/4-x,1/4-y,z
x,1/4-y,1/4-z
1/4-x,y,1/4-z
-x,-y,-z
3/4+x,3/4+y,-z
-x,3/4+y,3/4+z
3/4+x,-y,3/4+z
x,1/2+y,1/2+z
1/4-x,3/4-y,1/2+z
x,3/4-y,3/4-z
1/4-x,1/2+y,3/4-z
-x,1/2-y,1/2-z
3/4+x,1/4+y,1/2-z
-x,1/4+y,1/4+z
3/4+x,1/2-y,1/4+z
1/2+x,y,1/2+z
3/4-x,1/4-y,1/2+z
1/2+x,1/4-y,3/4-z
3/4-x,y,3/4-z
1/2-x,-y,1/2-z
1/4+x,3/4+y,1/2-z
1/2-x,3/4+y,1/4+z
1/4+x,-y,1/4+z
1/2+x,1/2+y,z
3/4-x,3/4-y,z
1/2+x,3/4-y,1/4-z
3/4-x,1/2+y,1/4-z
1/2-x,1/2-y,-z
1/4+x,1/4+y,-z
1/2-x,1/4+y,3/4+z
1/4+x,1/2-y,3/4+z
loop_
_atom_site_type_symbol
_atom_site_label
_atom_site_fract_x
_atom_site_fract_y
_atom_site_fract_z
Si Si1 0.024415 0.908687 0.939652
Si Si2 0.875000 0.661213 0.375000
Si Si3 0.792144 0.272060 0.239212
Si Si4 0.625000 0.125000 0.712446
Si Si5 0.310907 0.185585 0.477752
Si Si6 0.809820 0.224084 0.434961
Si Si7 0.981406 0.225978 0.648458
O O1 0.045095 0.875000 0.875000
O O2 0.058044 0.943548 0.992412
O O3 0.989791 0.989074 0.922631
O O4 0.993840 0.830535 0.971361
O O5 0.893047 0.703467 0.310149
O O6 0.831556 0.603368 0.355680
O O7 0.840320 0.316533 0.248181
O O8 0.797897 0.169711 0.262957
O O9 0.778971 0.276194 0.166163
O O10 0.593026 0.193199 0.676292
O O11 0.307800 0.222733 0.549087
O O12 0.273040 0.233073 0.435772
O O13 0.991082 0.125000 0.625000
#
# Coordination Sequence:
#
# PCOD9514554 Si02
#       7
#    32  16  32  16  32  32  32
#     4  10  21  37  55  84 119 157 188 242 289 359
#     4  12  20  35  59  90 114 152 192 252 291 357
#     4  10  19  36  59  82 115 154 194 237 293 362
#     4  10  20  35  50  86 116 153 188 236 290 352
#     4  10  20  36  61  87 110 149 200 244 301 352
#     4  10  22  35  54  85 118 155 196 228 294 358
#     4   9  20  39  63  81 110 155 202 247 292 360
#
# _framework density 20.221133999999999
#
# number of rings (size 3 to 8) (size 9 to 14) (size 15 to 20)
#    0.000    2.000    1.667    2.000    2.333    2.667 
#    3.000    0.417   11.000    0.000    0.000    0.000 
#    0.000    0.000    0.000    0.000    0.000    0.000 
#
# Total GULP energy -267712.566922 kJ/mol
# GULP energy per Si atom -5577.345144 kJ/mol
# Density = 2.017511 g / cm^3
# Si number density = 20.221134 Si / 1000 Ang^3
#
#
#
# Elastic Constant Matrix: (Units=GPa)
#
#
# Indices 1 2 3 4 5 6 
#
# 1 33.6183 4.9612 28.4499 0.0000 0.0000 0.0000
# 2 4.9612 31.0342 27.2494 0.0000 0.0000 0.0000
# 3 28.4499 27.2494 144.6257 0.0000 0.0000 0.0000
# 4 0.0000 0.0000 0.0000 27.7663 0.0000 0.0000
# 5 0.0000 0.0000 0.0000 0.0000 -120.8511 0.0000
# 6 0.0000 0.0000 0.0000 0.0000 0.0000 19.8998
#
#
#
# Elastic Compliance Matrix: (Units=1/GPa)
#
#
# Indices 1 2 3 4 5 6 
#
# 1 0.035694 0.000550 -0.007125 0.000000 0.000000 0.000000
# 2 0.000550 0.038618 -0.007384 0.000000 0.000000 0.000000
# 3 -0.007125 -0.007384 0.009707 0.000000 0.000000 0.000000
# 4 0.000000 0.000000 0.000000 0.036015 0.000000 0.000000
# 5 0.000000 0.000000 0.000000 0.000000 -0.008275 0.000000
# 6 0.000000 0.000000 0.000000 0.000000 0.000000 0.050252
#
#
# Mechanical properties :
#
#
# Convention : Reuss Voigt Hill
#
# Bulk Modulus (GPa) = 17.82498 36.73324 27.27911
# Shear Modulus (GPa) = 23.96570 -4.72913 9.61828
#
# Velocity S-wave (km/s) = 3.44638 -1.53094 2.18332
# Velocity P-wave (km/s) = 4.96698 3.88332 4.45820
#
# Compressibility (1/GPa) = 0.05610105
#
# Stress axis : x y z
#
# Youngs Moduli (GPa) = 28.01568 25.89433 103.01459
#
# Poissons Ratio (x) = -0.01425 0.73400
# Poissons Ratio (y) = -0.01541 0.76071
# Poissons Ratio (z) = 0.19962 0.19122
#
# Static dielectric constant tensor:
#      x y z
#    x 1.698170 0.000000 0.000000 
#    y 0.000000 1.753620 0.000000 
#    z 0.000000 0.000000 1.798840 
# 
# From -- ./inp_files/54353.got.cif
#   From: 2010.05.17/outbox.cif.g08.bks.cpg/sg70_28_cif.got.tgz:54353.got - 2010.06.03 15:57:51.
