data_PCOD9514477
_publ_section_title
;
Structure prediction by ZEFSAII (Michael W. Deem and Ramdas Pophale) SiO2 
 PCOD9514477
Probable space group: F D D D
;
_chemical_formula_sum "Si O2"
_cell_formula_units_Z 208
_cell_length_a 17.552899
_cell_length_b 33.573993
_cell_length_c 20.586599
_cell_angle_alpha 90.000000
_cell_angle_beta 90.000000
_cell_angle_gamma 90.000000
_cell_volume 12132.113219
_symmetry_space_group_name_H-M "F D D D"
_symmetry_group_IT_number 70
_space_group.IT_coordinate_system_code '2'
_symmetry_cell_setting 'orthorhombic'
loop_
_space_group_symop_operation_xyz
x,y,z
1/4-x,1/4-y,z
x,1/4-y,1/4-z
1/4-x,y,1/4-z
-x,-y,-z
3/4+x,3/4+y,-z
-x,3/4+y,3/4+z
3/4+x,-y,3/4+z
x,1/2+y,1/2+z
1/4-x,3/4-y,1/2+z
x,3/4-y,3/4-z
1/4-x,1/2+y,3/4-z
-x,1/2-y,1/2-z
3/4+x,1/4+y,1/2-z
-x,1/4+y,1/4+z
3/4+x,1/2-y,1/4+z
1/2+x,y,1/2+z
3/4-x,1/4-y,1/2+z
1/2+x,1/4-y,3/4-z
3/4-x,y,3/4-z
1/2-x,-y,1/2-z
1/4+x,3/4+y,1/2-z
1/2-x,3/4+y,1/4+z
1/4+x,-y,1/4+z
1/2+x,1/2+y,z
3/4-x,3/4-y,z
1/2+x,3/4-y,1/4-z
3/4-x,1/2+y,1/4-z
1/2-x,1/2-y,-z
1/4+x,1/4+y,-z
1/2-x,1/4+y,3/4+z
1/4+x,1/2-y,3/4+z
loop_
_atom_site_type_symbol
_atom_site_label
_atom_site_fract_x
_atom_site_fract_y
_atom_site_fract_z
Si Si1 0.375000 0.875000 0.733160
Si Si2 0.039235 0.171418 0.143649
Si Si3 0.531450 0.858767 0.801868
Si Si4 0.868818 0.539239 0.101497
Si Si5 0.082334 0.309045 0.997585
Si Si6 0.253567 0.205606 0.971590
Si Si7 0.935676 0.795223 0.579552
O O1 0.445468 0.858707 0.775885
O O2 0.350495 0.837018 0.691106
O O3 0.032598 0.125000 0.125000
O O4 0.125000 0.185052 0.125000
O O5 0.968459 0.194540 0.109755
O O6 0.027265 0.177642 0.220663
O O7 0.529453 0.875000 0.875000
O O8 0.580279 0.818450 0.806975
O O9 0.571915 0.893564 0.761057
O O10 0.902811 0.541587 0.175088
O O11 0.865260 0.494438 0.075165
O O12 0.157681 0.302442 0.038810
O O13 0.009083 0.291030 0.032684
O O14 0.210216 0.202466 0.904464
O O15 0.250000 0.250000 0.000000
#
# Coordination Sequence:
#
# PCOD9514477 Si02
#       7
#    16  32  32  32  32  32  32
#     4  10  23  38  54  84 111 148 186 226 296 328
#     4  10  21  34  53  84 116 145 186 232 279 333
#     4   9  18  37  62  80 107 139 189 239 275 334
#     4  10  19  34  58  82 106 147 189 233 274 332
#     4   9  19  35  54  80 108 145 183 225 283 329
#     4  11  20  34  55  81 111 147 191 227 274 337
#     4  11  22  35  55  80 114 147 181 234 280 339
#
# _framework density 17.144580999999999
#
# number of rings (size 3 to 8) (size 9 to 14) (size 15 to 20)
#    0.000    2.000    3.077    3.000    2.154    1.846 
#    0.000    1.538    0.000    0.000    0.000    0.000 
#    0.000    0.000    0.000    0.000    0.000    0.000 
#
# Total GULP energy -289854.270515 kJ/mol
# GULP energy per Si atom -5574.120587 kJ/mol
# Density = 1.710556 g / cm^3
# Si number density = 17.144581 Si / 1000 Ang^3
#
#
#
# Elastic Constant Matrix: (Units=GPa)
#
#
# Indices 1 2 3 4 5 6 
#
# 1 103.5002 58.9541 27.9358 0.0000 0.0000 0.0000
# 2 58.9541 112.1036 46.2753 0.0000 0.0000 0.0000
# 3 27.9358 46.2753 40.1092 0.0000 0.0000 0.0000
# 4 0.0000 0.0000 0.0000 24.5319 0.0000 0.0000
# 5 0.0000 0.0000 0.0000 0.0000 23.2913 0.0000
# 6 0.0000 0.0000 0.0000 0.0000 0.0000 22.0544
#
#
#
# Elastic Compliance Matrix: (Units=1/GPa)
#
#
# Indices 1 2 3 4 5 6 
#
# 1 0.013912 -0.006332 -0.002384 0.000000 0.000000 0.000000
# 2 -0.006332 0.019914 -0.018565 0.000000 0.000000 0.000000
# 3 -0.002384 -0.018565 0.048011 0.000000 0.000000 0.000000
# 4 0.000000 0.000000 0.000000 0.040763 0.000000 0.000000
# 5 0.000000 0.000000 0.000000 0.000000 0.042935 0.000000
# 6 0.000000 0.000000 0.000000 0.000000 0.000000 0.045343
#
#
# Mechanical properties :
#
#
# Convention : Reuss Voigt Hill
#
# Bulk Modulus (GPa) = 36.66366 58.00483 47.33424
# Shear Modulus (GPa) = 18.21288 22.14536 20.17912
#
# Velocity S-wave (km/s) = 3.26285 3.59790 3.43446
# Velocity P-wave (km/s) = 5.96878 7.15304 6.58758
#
# Compressibility (1/GPa) = 0.02727497
#
# Stress axis : x y z
#
# Youngs Moduli (GPa) = 71.87995 50.21687 20.82844
#
# Poissons Ratio (x) = 0.31798 0.04966
# Poissons Ratio (y) = 0.45515 0.38668
# Poissons Ratio (z) = 0.17138 0.93226
#
# Static dielectric constant tensor:
#      x y z
#    x 1.619770 0.000000 0.000000 
#    y 0.000000 1.601890 0.000000 
#    z 0.000000 0.000000 1.579480 
# 
# From -- ./inp_files/44092.got.cif
#   From: 2010.05.17/outbox.cif.g08.bks.cpg/sg70_23_cif.got.tgz:44092.got - 2010.06.03 15:57:51.
