data_PCOD9514183
_publ_section_title
;
Structure prediction by ZEFSAII (Michael W. Deem and Ramdas Pophale) SiO2 
 PCOD9514183
Probable space group: F D D D
;
_chemical_formula_sum "Si O2"
_cell_formula_units_Z 176
_cell_length_a 22.825377
_cell_length_b 13.261259
_cell_length_c 30.284494
_cell_angle_alpha 90.000000
_cell_angle_beta 90.000000
_cell_angle_gamma 90.000000
_cell_volume 9166.911495
_symmetry_space_group_name_H-M "F D D D"
_symmetry_group_IT_number 70
_space_group.IT_coordinate_system_code '2'
_symmetry_cell_setting 'orthorhombic'
loop_
_space_group_symop_operation_xyz
x,y,z
1/4-x,1/4-y,z
x,1/4-y,1/4-z
1/4-x,y,1/4-z
-x,-y,-z
3/4+x,3/4+y,-z
-x,3/4+y,3/4+z
3/4+x,-y,3/4+z
x,1/2+y,1/2+z
1/4-x,3/4-y,1/2+z
x,3/4-y,3/4-z
1/4-x,1/2+y,3/4-z
-x,1/2-y,1/2-z
3/4+x,1/4+y,1/2-z
-x,1/4+y,1/4+z
3/4+x,1/2-y,1/4+z
1/2+x,y,1/2+z
3/4-x,1/4-y,1/2+z
1/2+x,1/4-y,3/4-z
3/4-x,y,3/4-z
1/2-x,-y,1/2-z
1/4+x,3/4+y,1/2-z
1/2-x,3/4+y,1/4+z
1/4+x,-y,1/4+z
1/2+x,1/2+y,z
3/4-x,3/4-y,z
1/2+x,3/4-y,1/4-z
3/4-x,1/2+y,1/4-z
1/2-x,1/2-y,-z
1/4+x,1/4+y,-z
1/2-x,1/4+y,3/4+z
1/4+x,1/2-y,3/4+z
loop_
_atom_site_type_symbol
_atom_site_label
_atom_site_fract_x
_atom_site_fract_y
_atom_site_fract_z
Si Si1 0.031208 0.280485 0.946915
Si Si2 0.125000 0.625000 0.433983
Si Si3 0.683143 0.177832 0.035137
Si Si4 0.150310 0.480535 0.308597
Si Si5 0.295038 0.508027 0.616829
Si Si6 0.756107 0.186258 0.891958
O O1 0.074929 0.189260 0.960046
O O2 0.075935 0.368666 0.932957
O O3 0.983457 0.343904 0.974987
O O4 0.993650 0.240109 0.905332
O O5 0.086601 0.545065 0.404501
O O6 0.625000 0.125000 0.052433
O O7 0.706258 0.255637 0.071789
O O8 0.665155 0.235045 0.990599
O O9 0.083661 0.490309 0.322211
O O10 0.189690 0.547773 0.340829
O O11 0.281344 0.625000 0.625000
O O12 0.239523 0.433681 0.612393
#
# Coordination Sequence:
#
# PCOD9514183 Si02
#       6
#    32  16  32  32  32  32
#     4  10  19  32  52  78 108 135 182 223 274 316
#     4  10  18  30  54  80 104 138 171 245 274 308
#     4  11  23  33  49  79 115 149 174 214 274 342
#     4  11  17  30  51  81 116 139 169 218 285 335
#     4  11  17  29  53  84 111 133 174 232 282 319
#     4  10  19  31  50  78 110 139 180 225 269 316
#
# _framework density 19.199487999999999
#
# number of rings (size 3 to 8) (size 9 to 14) (size 15 to 20)
#    0.000    1.455    5.455    5.455    0.000    1.455 
#    0.000    0.000    0.000    1.091    4.727    5.091 
#    0.000    0.000    0.000    0.000    0.000    0.000 
#
# Total GULP energy -245040.207976 kJ/mol
# GULP energy per Si atom -5569.095636 kJ/mol
# Density = 1.915579 g / cm^3
# Si number density = 19.199488 Si / 1000 Ang^3
#
#
#
# Elastic Constant Matrix: (Units=GPa)
#
#
# Indices 1 2 3 4 5 6 
#
# 1 59.1674 38.1238 6.4841 0.0000 0.0000 0.0000
# 2 38.1238 154.3504 22.0795 0.0000 0.0000 0.0000
# 3 6.4841 22.0795 42.8717 0.0000 0.0000 0.0000
# 4 0.0000 0.0000 0.0000 13.9398 0.0000 0.0000
# 5 0.0000 0.0000 0.0000 0.0000 17.5268 0.0000
# 6 0.0000 0.0000 0.0000 0.0000 0.0000 22.0414
#
#
#
# Elastic Compliance Matrix: (Units=1/GPa)
#
#
# Indices 1 2 3 4 5 6 
#
# 1 0.020111 -0.004893 -0.000522 0.000000 0.000000 0.000000
# 2 -0.004893 0.008184 -0.003475 0.000000 0.000000 0.000000
# 3 -0.000522 -0.003475 0.025194 0.000000 0.000000 0.000000
# 4 0.000000 0.000000 0.000000 0.071737 0.000000 0.000000
# 5 0.000000 0.000000 0.000000 0.000000 0.057056 0.000000
# 6 0.000000 0.000000 0.000000 0.000000 0.000000 0.045369
#
#
# Mechanical properties :
#
#
# Convention : Reuss Voigt Hill
#
# Bulk Modulus (GPa) = 28.00325 43.30714 35.65520
# Shear Modulus (GPa) = 19.43003 23.34839 21.38921
#
# Velocity S-wave (km/s) = 3.18466 3.49104 3.34136
# Velocity P-wave (km/s) = 5.30470 6.23339 5.78770
#
# Compressibility (1/GPa) = 0.03571014
#
# Stress axis : x y z
#
# Youngs Moduli (GPa) = 49.72424 122.18481 39.69192
#
# Poissons Ratio (x) = 0.59781 0.02071
# Poissons Ratio (y) = 0.24328 0.13793
# Poissons Ratio (z) = 0.02595 0.42460
#
# Static dielectric constant tensor:
#      x y z
#    x 1.700730 0.000000 0.000000 
#    y 0.000000 1.763130 0.000000 
#    z 0.000000 0.000000 1.698990 
# 
# From -- ./inp_files/68354.got.cif
#   From: 2010.05.17/outbox.cif.g08.bks.cpg/sg70_35_cif.got.tgz:68354.got - 2010.06.03 15:57:51.
