data_PCOD9514220
_publ_section_title
;
Structure prediction by ZEFSAII (Michael W. Deem and Ramdas Pophale) SiO2 
 PCOD9514220
Probable space group: F D D D
;
_chemical_formula_sum "Si O2"
_cell_formula_units_Z 112
_cell_length_a 8.450488
_cell_length_b 34.339726
_cell_length_c 22.516984
_cell_angle_alpha 90.000000
_cell_angle_beta 90.000000
_cell_angle_gamma 90.000000
_cell_volume 6534.145999
_symmetry_space_group_name_H-M "F D D D"
_symmetry_group_IT_number 70
_space_group.IT_coordinate_system_code '2'
_symmetry_cell_setting 'orthorhombic'
loop_
_space_group_symop_operation_xyz
x,y,z
1/4-x,1/4-y,z
x,1/4-y,1/4-z
1/4-x,y,1/4-z
-x,-y,-z
3/4+x,3/4+y,-z
-x,3/4+y,3/4+z
3/4+x,-y,3/4+z
x,1/2+y,1/2+z
1/4-x,3/4-y,1/2+z
x,3/4-y,3/4-z
1/4-x,1/2+y,3/4-z
-x,1/2-y,1/2-z
3/4+x,1/4+y,1/2-z
-x,1/4+y,1/4+z
3/4+x,1/2-y,1/4+z
1/2+x,y,1/2+z
3/4-x,1/4-y,1/2+z
1/2+x,1/4-y,3/4-z
3/4-x,y,3/4-z
1/2-x,-y,1/2-z
1/4+x,3/4+y,1/2-z
1/2-x,3/4+y,1/4+z
1/4+x,-y,1/4+z
1/2+x,1/2+y,z
3/4-x,3/4-y,z
1/2+x,3/4-y,1/4-z
3/4-x,1/2+y,1/4-z
1/2-x,1/2-y,-z
1/4+x,1/4+y,-z
1/2-x,1/4+y,3/4+z
1/4+x,1/2-y,3/4+z
loop_
_atom_site_type_symbol
_atom_site_label
_atom_site_fract_x
_atom_site_fract_y
_atom_site_fract_z
Si Si1 0.008074 0.407688 0.070690
Si Si2 0.696002 0.668256 0.245817
Si Si3 0.375000 0.961899 0.375000
Si Si4 0.951322 0.787939 0.642586
O O1 0.125000 0.395911 0.125000
O O2 0.875000 0.375000 0.061605
O O3 0.920782 0.446570 0.093628
O O4 0.121057 0.415295 0.015222
O O5 0.625000 0.625000 0.249257
O O6 0.670546 0.686427 0.181464
O O7 0.608294 0.694947 0.295160
O O8 0.232577 0.991762 0.357920
O O9 0.125000 0.803956 0.625000
#
# Coordination Sequence:
#
# PCOD9514220 Si02
#       4
#    32  32  16  32
#     4  10  18  32  58  88 109 141 190 242 278 324
#     4  11  21  36  59  81 113 152 191 229 281 342
#     4  10  23  36  56  82 118 152 182 228 292 346
#     4   9  19  35  58  82 111 137 190 238 279 327
#
# _framework density 17.140725
#
# number of rings (size 3 to 8) (size 9 to 14) (size 15 to 20)
#    0.857    1.143    0.000    7.286    0.000    1.143 
#    0.000    0.000    0.000    5.143    0.000    0.000 
#    0.000    0.000    0.000    0.000    0.000    0.000 
#
# Total GULP energy -156033.952263 kJ/mol
# GULP energy per Si atom -5572.641152 kJ/mol
# Density = 1.710171 g / cm^3
# Si number density = 17.140725 Si / 1000 Ang^3
#
#
#
# Elastic Constant Matrix: (Units=GPa)
#
#
# Indices 1 2 3 4 5 6 
#
# 1 118.4043 32.4124 62.6252 0.0000 0.0000 0.0000
# 2 32.4124 58.5752 53.0181 0.0000 0.0000 0.0000
# 3 62.6252 53.0181 126.3132 0.0000 0.0000 0.0000
# 4 0.0000 0.0000 0.0000 29.7663 0.0000 0.0000
# 5 0.0000 0.0000 0.0000 0.0000 6.8659 0.0000
# 6 0.0000 0.0000 0.0000 0.0000 0.0000 13.3486
#
#
#
# Elastic Compliance Matrix: (Units=1/GPa)
#
#
# Indices 1 2 3 4 5 6 
#
# 1 0.011585 -0.001954 -0.004923 0.000000 0.000000 0.000000
# 2 -0.001954 0.027861 -0.010726 0.000000 0.000000 0.000000
# 3 -0.004923 -0.010726 0.014860 0.000000 0.000000 0.000000
# 4 0.000000 0.000000 0.000000 0.033595 0.000000 0.000000
# 5 0.000000 0.000000 0.000000 0.000000 0.145648 0.000000
# 6 0.000000 0.000000 0.000000 0.000000 0.000000 0.074914
#
#
# Mechanical properties :
#
#
# Convention : Reuss Voigt Hill
#
# Bulk Modulus (GPa) = 52.35693 66.60045 59.47869
# Shear Modulus (GPa) = 14.28427 20.34528 17.31478
#
# Velocity S-wave (km/s) = 2.88992 3.44896 3.18174
# Velocity P-wave (km/s) = 6.46120 7.40269 6.94791
#
# Compressibility (1/GPa) = 0.01909967
#
# Stress axis : x y z
#
# Youngs Moduli (GPa) = 86.32180 35.89197 67.29593
#
# Poissons Ratio (x) = 0.07013 0.33132
# Poissons Ratio (y) = 0.16867 0.72179
# Poissons Ratio (z) = 0.42500 0.38496
#
# Static dielectric constant tensor:
#      x y z
#    x 1.595570 0.000000 0.000000 
#    y 0.000000 1.583430 0.000000 
#    z 0.000000 0.000000 1.557900 
# 
# From -- ./inp_files/49249.got.cif
#   From: 2010.05.17/outbox.cif.g08.bks.cpg/sg70_25_cif.got.tgz:49249.got - 2010.06.03 15:57:51.
