data_PCOD9514370
_publ_section_title
;
Structure prediction by ZEFSAII (Michael W. Deem and Ramdas Pophale) SiO2 
 PCOD9514370
Probable space group: F D D D
;
_chemical_formula_sum "Si O2"
_cell_formula_units_Z 168
_cell_length_a 18.517349
_cell_length_b 15.910362
_cell_length_c 25.401414
_cell_angle_alpha 90.000000
_cell_angle_beta 90.000000
_cell_angle_gamma 90.000000
_cell_volume 7483.706827
_symmetry_space_group_name_H-M "F D D D"
_symmetry_group_IT_number 70
_space_group.IT_coordinate_system_code '2'
_symmetry_cell_setting 'orthorhombic'
loop_
_space_group_symop_operation_xyz
x,y,z
1/4-x,1/4-y,z
x,1/4-y,1/4-z
1/4-x,y,1/4-z
-x,-y,-z
3/4+x,3/4+y,-z
-x,3/4+y,3/4+z
3/4+x,-y,3/4+z
x,1/2+y,1/2+z
1/4-x,3/4-y,1/2+z
x,3/4-y,3/4-z
1/4-x,1/2+y,3/4-z
-x,1/2-y,1/2-z
3/4+x,1/4+y,1/2-z
-x,1/4+y,1/4+z
3/4+x,1/2-y,1/4+z
1/2+x,y,1/2+z
3/4-x,1/4-y,1/2+z
1/2+x,1/4-y,3/4-z
3/4-x,y,3/4-z
1/2-x,-y,1/2-z
1/4+x,3/4+y,1/2-z
1/2-x,3/4+y,1/4+z
1/4+x,-y,1/4+z
1/2+x,1/2+y,z
3/4-x,3/4-y,z
1/2+x,3/4-y,1/4-z
3/4-x,1/2+y,1/4-z
1/2-x,1/2-y,-z
1/4+x,1/4+y,-z
1/2-x,1/4+y,3/4+z
1/4+x,1/2-y,3/4+z
loop_
_atom_site_type_symbol
_atom_site_label
_atom_site_fract_x
_atom_site_fract_y
_atom_site_fract_z
Si Si1 0.887711 0.784777 0.683491
Si Si2 0.030082 0.791807 0.353229
Si Si3 0.375000 0.375000 0.875000
Si Si4 0.337748 0.674078 0.929271
Si Si5 0.234569 0.495899 0.604905
Si Si6 0.414839 0.146973 0.532998
O O1 0.875000 0.875000 0.710168
O O2 0.814878 0.759693 0.651780
O O3 0.913280 0.704398 0.716880
O O4 0.950339 0.792087 0.639194
O O5 0.991059 0.875000 0.375000
O O6 0.098130 0.826607 0.320540
O O7 0.980545 0.735049 0.316633
O O8 0.316045 0.446232 0.857996
O O9 0.375000 0.698043 0.875000
O O10 0.308397 0.579400 0.922298
O O11 0.395044 0.679186 0.975658
O O12 0.267755 0.557143 0.560151
#
# Coordination Sequence:
#
# PCOD9514370 Si02
#       6
#    32  32   8  32  32  32
#     4  10  18  39  71  96 128 171 224 276 333 406
#     4   9  20  40  68  94 130 172 216 277 336 400
#     4  12  20  44  68  92 134 176 214 272 348 400
#     4  12  25  41  62  97 135 173 222 278 336 400
#     4  11  22  42  67  94 132 176 217 281 346 398
#     4  10  23  41  65 100 130 174 233 267 336 416
#
# _framework density 22.448768000000001
#
# number of rings (size 3 to 8) (size 9 to 14) (size 15 to 20)
#    0.000    1.524    4.762    1.714    0.000    3.429 
#    1.714    3.810    0.000    0.000    0.000    0.000 
#    0.000    0.000    0.000    0.000    0.000    0.000 
#
# Total GULP energy -234286.097635 kJ/mol
# GULP energy per Si atom -5578.240420 kJ/mol
# Density = 2.239767 g / cm^3
# Si number density = 22.448768 Si / 1000 Ang^3
#
#
#
# Elastic Constant Matrix: (Units=GPa)
#
#
# Indices 1 2 3 4 5 6 
#
# 1 50.2737 17.2656 -8.4110 0.0000 0.0000 0.0000
# 2 17.2656 118.2861 -15.6942 0.0000 0.0000 0.0000
# 3 -8.4110 -15.6942 42.8361 0.0000 0.0000 0.0000
# 4 0.0000 0.0000 0.0000 12.3368 0.0000 0.0000
# 5 0.0000 0.0000 0.0000 0.0000 -22.2329 0.0000
# 6 0.0000 0.0000 0.0000 0.0000 0.0000 32.9685
#
#
#
# Elastic Compliance Matrix: (Units=1/GPa)
#
#
# Indices 1 2 3 4 5 6 
#
# 1 0.021352 -0.002691 0.003207 0.000000 0.000000 0.000000
# 2 -0.002691 0.009225 0.002851 0.000000 0.000000 0.000000
# 3 0.003207 0.002851 0.025019 0.000000 0.000000 0.000000
# 4 0.000000 0.000000 0.000000 0.081058 0.000000 0.000000
# 5 0.000000 0.000000 0.000000 0.000000 -0.044978 0.000000
# 6 0.000000 0.000000 0.000000 0.000000 0.000000 0.030332
#
#
# Mechanical properties :
#
#
# Convention : Reuss Voigt Hill
#
# Bulk Modulus (GPa) = 16.04369 21.96854 19.00611
# Shear Modulus (GPa) = 36.75093 19.16352 27.95722
#
# Velocity S-wave (km/s) = 4.05050 2.92491 3.53282
# Velocity P-wave (km/s) = 5.38867 4.60588 5.01258
#
# Compressibility (1/GPa) = 0.06232981
#
# Stress axis : x y z
#
# Youngs Moduli (GPa) = 46.83444 108.39839 39.96945
#
# Poissons Ratio (x) = 0.29172 -0.12816
# Poissons Ratio (y) = 0.12604 -0.11397
# Poissons Ratio (z) = -0.15018 -0.30910
#
# Static dielectric constant tensor:
#      x y z
#    x 1.835750 0.000000 0.000000 
#    y 0.000000 1.842770 0.000000 
#    z 0.000000 0.000000 1.818150 
# 
# From -- ./inp_files/42843.got.cif
#   From: 2010.05.17/outbox.cif.g08.bks.cpg/sg70_22_cif.got.tgz:42843.got - 2010.06.03 15:57:51.
