data_PCOD9514423
_publ_section_title
;
Structure prediction by ZEFSAII (Michael W. Deem and Ramdas Pophale) SiO2 
 PCOD9514423
Probable space group: F D D D
;
_chemical_formula_sum "Si O2"
_cell_formula_units_Z 160
_cell_length_a 12.218377
_cell_length_b 25.145232
_cell_length_c 22.281611
_cell_angle_alpha 90.000000
_cell_angle_beta 90.000000
_cell_angle_gamma 90.000000
_cell_volume 6845.666788
_symmetry_space_group_name_H-M "F D D D"
_symmetry_group_IT_number 70
_space_group.IT_coordinate_system_code '2'
_symmetry_cell_setting 'orthorhombic'
loop_
_space_group_symop_operation_xyz
x,y,z
1/4-x,1/4-y,z
x,1/4-y,1/4-z
1/4-x,y,1/4-z
-x,-y,-z
3/4+x,3/4+y,-z
-x,3/4+y,3/4+z
3/4+x,-y,3/4+z
x,1/2+y,1/2+z
1/4-x,3/4-y,1/2+z
x,3/4-y,3/4-z
1/4-x,1/2+y,3/4-z
-x,1/2-y,1/2-z
3/4+x,1/4+y,1/2-z
-x,1/4+y,1/4+z
3/4+x,1/2-y,1/4+z
1/2+x,y,1/2+z
3/4-x,1/4-y,1/2+z
1/2+x,1/4-y,3/4-z
3/4-x,y,3/4-z
1/2-x,-y,1/2-z
1/4+x,3/4+y,1/2-z
1/2-x,3/4+y,1/4+z
1/4+x,-y,1/4+z
1/2+x,1/2+y,z
3/4-x,3/4-y,z
1/2+x,3/4-y,1/4-z
3/4-x,1/2+y,1/4-z
1/2-x,1/2-y,-z
1/4+x,1/4+y,-z
1/2-x,1/4+y,3/4+z
1/4+x,1/2-y,3/4+z
loop_
_atom_site_type_symbol
_atom_site_label
_atom_site_fract_x
_atom_site_fract_y
_atom_site_fract_z
Si Si1 0.770692 0.073556 0.763504
Si Si2 0.593335 0.210380 0.319993
Si Si3 0.769080 0.481249 0.350370
Si Si4 0.478822 0.317543 0.056954
Si Si5 0.116777 0.034708 0.559242
O O1 0.795866 0.055888 0.696133
O O2 0.638388 0.066992 0.773524
O O3 0.797208 0.133751 0.780002
O O4 0.814972 0.030440 0.810226
O O5 0.693402 0.242823 0.349508
O O6 0.548291 0.172522 0.372827
O O7 0.620970 0.186722 0.255056
O O8 0.498294 0.253826 0.311644
O O9 0.875000 0.451651 0.375000
O O10 0.541848 0.262091 0.054322
O O11 0.125000 0.061223 0.625000
#
# Coordination Sequence:
#
# PCOD9514423 Si02
#       5
#    32  32  32  32  32
#     4   9  19  33  51  80 109 140 182 226 276 333
#     4   9  18  31  50  77 102 137 185 224 268 332
#     4  10  19  32  51  76 112 146 178 223 278 329
#     4   9  17  33  54  77 108 141 184 232 277 334
#     4   9  17  31  53  75 102 138 182 228 272 326
#
# _framework density 23.372450000000001
#
# number of rings (size 3 to 8) (size 9 to 14) (size 15 to 20)
#    0.000    2.800    0.000    1.200    0.000    4.000 
#    0.000    7.000    0.000    0.000    0.000   22.400 
#    0.000   16.000    0.000    0.000    0.000    0.000 
#
# Total GULP energy -223164.473009 kJ/mol
# GULP energy per Si atom -5579.111825 kJ/mol
# Density = 2.331925 g / cm^3
# Si number density = 23.372450 Si / 1000 Ang^3
#
#
#
# Elastic Constant Matrix: (Units=GPa)
#
#
# Indices 1 2 3 4 5 6 
#
# 1 59.8528 0.3275 16.1780 0.0000 0.0000 0.0000
# 2 0.3275 70.9170 15.2711 0.0000 0.0000 0.0000
# 3 16.1780 15.2711 155.5913 0.0000 0.0000 0.0000
# 4 0.0000 0.0000 0.0000 -30.8732 0.0000 0.0000
# 5 0.0000 0.0000 0.0000 0.0000 25.9206 0.0000
# 6 0.0000 0.0000 0.0000 0.0000 0.0000 2.1899
#
#
#
# Elastic Compliance Matrix: (Units=1/GPa)
#
#
# Indices 1 2 3 4 5 6 
#
# 1 0.017198 0.000312 -0.001819 0.000000 0.000000 0.000000
# 2 0.000312 0.014411 -0.001447 0.000000 0.000000 0.000000
# 3 -0.001819 -0.001447 0.006758 0.000000 0.000000 0.000000
# 4 0.000000 0.000000 0.000000 -0.032391 0.000000 0.000000
# 5 0.000000 0.000000 0.000000 0.000000 0.038579 0.000000
# 6 0.000000 0.000000 0.000000 0.000000 0.000000 0.456648
#
#
# Mechanical properties :
#
#
# Convention : Reuss Voigt Hill
#
# Bulk Modulus (GPa) = 30.80720 38.87940 34.84330
# Shear Modulus (GPa) = 9.65380 16.41975 13.03678
#
# Velocity S-wave (km/s) = 2.03455 2.65340 2.36431
# Velocity P-wave (km/s) = 4.32768 5.10472 4.73217
#
# Compressibility (1/GPa) = 0.03245994
#
# Stress axis : x y z
#
# Youngs Moduli (GPa) = 58.14778 69.39087 147.96795
#
# Poissons Ratio (x) = -0.02167 0.26913
# Poissons Ratio (y) = -0.01816 0.21410
# Poissons Ratio (z) = 0.10576 0.10040
#
# Static dielectric constant tensor:
#      x y z
#    x 1.973280 0.000000 0.000000 
#    y 0.000000 1.870090 0.000000 
#    z 0.000000 0.000000 1.971740 
# 
# From -- ./inp_files/51274.got.cif
#   From: 2010.05.17/outbox.cif.g08.bks.cpg/sg70_26_cif.got.tgz:51274.got - 2010.06.03 15:57:51.
