data_PCOD9514017
_publ_section_title
;
Structure prediction by ZEFSAII (Michael W. Deem and Ramdas Pophale) SiO2 
 PCOD9514017
Probable space group: F M M M
;
_chemical_formula_sum "Si O2"
_cell_formula_units_Z 40
_cell_length_a 12.000000
_cell_length_b 27.000000
_cell_length_c 27.000000
_cell_angle_alpha 90.000000
_cell_angle_beta 90.000000
_cell_angle_gamma 90.000000
_cell_volume 8748.000000
_symmetry_space_group_name_H-M "F M M M"
_symmetry_group_IT_number 69
_symmetry_cell_setting 'orthorhombic'
loop_
_space_group_symop_operation_xyz
x,y,z
-x,-y,z
x,-y,-z
-x,y,-z
-x,-y,-z
x,y,-z
-x,y,z
x,-y,z
x,1/2+y,1/2+z
-x,1/2-y,1/2+z
x,1/2-y,1/2-z
-x,1/2+y,1/2-z
-x,1/2-y,1/2-z
x,1/2+y,1/2-z
-x,1/2+y,1/2+z
x,1/2-y,1/2+z
1/2+x,y,1/2+z
1/2-x,-y,1/2+z
1/2+x,-y,1/2-z
1/2-x,y,1/2-z
1/2-x,-y,1/2-z
1/2+x,y,1/2-z
1/2-x,y,1/2+z
1/2+x,-y,1/2+z
1/2+x,1/2+y,z
1/2-x,1/2-y,z
1/2+x,1/2-y,-z
1/2-x,1/2+y,-z
1/2-x,1/2-y,-z
1/2+x,1/2+y,-z
1/2-x,1/2+y,z
1/2+x,1/2-y,z
loop_
_atom_site_type_symbol
_atom_site_label
_atom_site_fract_x
_atom_site_fract_y
_atom_site_fract_z
Si Si1 0.500000 0.861868 0.281066
Si Si2 0.808669 0.196471 0.944421
Si Si3 0.814300 0.388739 0.884881
Si Si4 0.500000 0.716730 0.867349
Si Si5 0.180591 0.944273 0.800549
Si Si6 0.000000 0.327705 0.171478
Si Si7 0.500000 0.058393 0.945488
O O1 0.500000 0.821663 0.323356
O O2 0.600292 0.899593 0.286973
O O3 0.500000 0.833462 0.229755
O O4 0.750000 0.250000 0.947915
O O5 0.741037 0.149849 0.922996
O O6 0.897802 0.206256 0.902606
O O7 0.849460 0.184943 0.000000
O O8 0.741794 0.423686 0.849376
O O9 0.892109 0.355444 0.849652
O O10 0.893142 0.423767 0.916344
O O11 0.500000 0.771938 0.847004
O O12 0.250000 0.949063 0.750000
O O13 0.135860 0.000000 0.810357
O O14 0.500000 0.000000 0.948652
O O15 0.500000 0.081131 0.000000
#
# Coordination Sequence:
#
# PCOD9514017 Si02
#       7
#    16  32  32  16  32  16  16
#     4  12  23  40  60  88 123 158 199 242 295 364
#     4  11  23  39  62  88 118 160 205 249 299 359
#     4  11  21  40  61  86 122 154 197 244 306 355
#     4  12  23  40  60  88 123 158 199 242 295 364
#     4  11  23  39  62  88 118 160 205 249 299 359
#     4  11  23  37  59  91 119 152 198 238 295 361
#     4  10  22  39  61  90 118 150 198 254 308 356
#
# _framework density 4.5724739999999997
#
# number of rings (size 3 to 8) (size 9 to 14) (size 15 to 20)
#    0.000    0.900    6.000    2.100    0.000    0.000 
#    0.000    0.000    0.000    0.000    0.000    1.400 
#    0.000    0.000    0.000    0.000    0.000    0.000 
#
# Total GULP energy -222726.575884 kJ/mol
# GULP energy per Si atom -5568.164397 kJ/mol
# Density = 0.456207 g / cm^3
# Si number density = 4.572474 Si / 1000 Ang^3
#
#
#
# Elastic Constant Matrix: (Units=GPa)
#
#
# Indices 1 2 3 4 5 6 
#
# 1 38.8796 21.1225 47.8806 0.0000 0.0000 0.0000
# 2 21.1225 65.2449 54.6895 0.0000 0.0000 0.0000
# 3 47.8806 54.6895 169.6696 0.0000 0.0000 0.0000
# 4 0.0000 0.0000 0.0000 69.2974 0.0000 0.0000
# 5 0.0000 0.0000 0.0000 0.0000 76.4682 0.0000
# 6 0.0000 0.0000 0.0000 0.0000 0.0000 490.9848
#
#
#
# Elastic Compliance Matrix: (Units=1/GPa)
#
#
# Indices 1 2 3 4 5 6 
#
# 1 0.040506 -0.004840 -0.009871 0.000000 0.000000 0.000000
# 2 -0.004840 0.021579 -0.005590 0.000000 0.000000 0.000000
# 3 -0.009871 -0.005590 0.010481 0.000000 0.000000 0.000000
# 4 0.000000 0.000000 0.000000 0.014431 0.000000 0.000000
# 5 0.000000 0.000000 0.000000 0.000000 0.013077 0.000000
# 6 0.000000 0.000000 0.000000 0.000000 0.000000 0.002037
#
#
# Mechanical properties :
#
#
# Convention : Reuss Voigt Hill
#
# Bulk Modulus (GPa) = 31.28368 57.90883 44.59625
# Shear Modulus (GPa) = 32.60176 137.35684 84.97930
#
# Velocity S-wave (km/s) = 4.22655 8.67542 6.82373
# Velocity P-wave (km/s) = 6.39998 11.49265 9.30163
#
# Compressibility (1/GPa) = 0.03196555
#
# Stress axis : x y z
#
# Youngs Moduli (GPa) = 24.68799 46.34089 95.40985
#
# Poissons Ratio (x) = 0.22427 0.94176
# Poissons Ratio (y) = 0.11948 0.53333
# Poissons Ratio (z) = 0.24369 0.25904
#
# Static dielectric constant tensor:
#      x y z
#    x 1.531800 0.000000 0.000000 
#    y 0.000000 1.574850 0.000000 
#    z 0.000000 0.000000 1.596530 
# 
# From -- ./inp_files/11533.got.cif
#   From: 2010.05.17/outbox.ucp.g08.bks.cvg/sg69_6_cif.got.tgz:11533.got - 2010.06.11 16:51:34.
