data_PCOD9514547
_publ_section_title
;
Structure prediction by ZEFSAII (Michael W. Deem and Ramdas Pophale) SiO2 
 PCOD9514547
Probable space group: F D D D
;
_chemical_formula_sum "Si O2"
_cell_formula_units_Z 144
_cell_length_a 19.796061
_cell_length_b 19.904554
_cell_length_c 20.883387
_cell_angle_alpha 90.000000
_cell_angle_beta 90.000000
_cell_angle_gamma 90.000000
_cell_volume 8228.717842
_symmetry_space_group_name_H-M "F D D D"
_symmetry_group_IT_number 70
_space_group.IT_coordinate_system_code '2'
_symmetry_cell_setting 'orthorhombic'
loop_
_space_group_symop_operation_xyz
x,y,z
1/4-x,1/4-y,z
x,1/4-y,1/4-z
1/4-x,y,1/4-z
-x,-y,-z
3/4+x,3/4+y,-z
-x,3/4+y,3/4+z
3/4+x,-y,3/4+z
x,1/2+y,1/2+z
1/4-x,3/4-y,1/2+z
x,3/4-y,3/4-z
1/4-x,1/2+y,3/4-z
-x,1/2-y,1/2-z
3/4+x,1/4+y,1/2-z
-x,1/4+y,1/4+z
3/4+x,1/2-y,1/4+z
1/2+x,y,1/2+z
3/4-x,1/4-y,1/2+z
1/2+x,1/4-y,3/4-z
3/4-x,y,3/4-z
1/2-x,-y,1/2-z
1/4+x,3/4+y,1/2-z
1/2-x,3/4+y,1/4+z
1/4+x,-y,1/4+z
1/2+x,1/2+y,z
3/4-x,3/4-y,z
1/2+x,3/4-y,1/4-z
3/4-x,1/2+y,1/4-z
1/2-x,1/2-y,-z
1/4+x,1/4+y,-z
1/2-x,1/4+y,3/4+z
1/4+x,1/2-y,3/4+z
loop_
_atom_site_type_symbol
_atom_site_label
_atom_site_fract_x
_atom_site_fract_y
_atom_site_fract_z
Si Si1 0.834151 0.441691 0.644126
Si Si2 0.875000 0.687898 0.375000
Si Si3 0.777418 0.629388 0.476809
Si Si4 0.101057 0.325836 0.433306
Si Si5 0.733101 0.486165 0.532945
O O1 0.875000 0.375000 0.628713
O O2 0.786663 0.424840 0.705893
O O3 0.885453 0.500686 0.659998
O O4 0.790254 0.464968 0.583311
O O5 0.824195 0.639420 0.413763
O O6 0.915403 0.736152 0.423469
O O7 0.828327 0.653606 0.532415
O O8 0.752377 0.555689 0.498151
O O9 0.088306 0.375000 0.375000
O O10 0.038088 0.320649 0.481652
#
# Coordination Sequence:
#
# PCOD9514547 Si02
#       5
#    32  16  32  32  32
#     4  11  21  37  58  85 116 154 191 236 290 346
#     4   8  20  34  56  85 119 148 188 240 288 340
#     4  10  19  36  57  83 117 152 187 239 285 344
#     4  11  21  37  58  85 116 154 191 236 290 346
#     4  10  20  37  56  84 117 147 194 236 292 343
#
# _framework density 17.499689
#
# number of rings (size 3 to 8) (size 9 to 14) (size 15 to 20)
#    0.000    1.778    4.444    0.667    0.000    0.000 
#    0.000    5.556    0.000    0.000    0.000    0.000 
#    0.000    0.000    0.000    0.000    0.000    0.000 
#
# Total GULP energy -200464.518645 kJ/mol
# GULP energy per Si atom -5568.458851 kJ/mol
# Density = 1.745986 g / cm^3
# Si number density = 17.499689 Si / 1000 Ang^3
#
#
#
# Elastic Constant Matrix: (Units=GPa)
#
#
# Indices 1 2 3 4 5 6 
#
# 1 33.5816 16.0244 10.3165 0.0000 0.0000 0.0000
# 2 16.0244 86.9437 27.7302 0.0000 0.0000 0.0000
# 3 10.3165 27.7302 61.3904 0.0000 0.0000 0.0000
# 4 0.0000 0.0000 0.0000 18.6861 0.0000 0.0000
# 5 0.0000 0.0000 0.0000 0.0000 13.2360 0.0000
# 6 0.0000 0.0000 0.0000 0.0000 0.0000 27.9223
#
#
#
# Elastic Compliance Matrix: (Units=1/GPa)
#
#
# Indices 1 2 3 4 5 6 
#
# 1 0.033209 -0.005071 -0.003290 0.000000 0.000000 0.000000
# 2 -0.005071 0.014212 -0.005567 0.000000 0.000000 0.000000
# 3 -0.003290 -0.005567 0.019357 0.000000 0.000000 0.000000
# 4 0.000000 0.000000 0.000000 0.053516 0.000000 0.000000
# 5 0.000000 0.000000 0.000000 0.000000 0.075552 0.000000
# 6 0.000000 0.000000 0.000000 0.000000 0.000000 0.035814
#
#
# Mechanical properties :
#
#
# Convention : Reuss Voigt Hill
#
# Bulk Modulus (GPa) = 25.69346 32.22866 28.96106
# Shear Modulus (GPa) = 18.34934 20.49186 19.42060
#
# Velocity S-wave (km/s) = 3.24165 3.42568 3.33493
# Velocity P-wave (km/s) = 5.35959 5.83984 5.60486
#
# Compressibility (1/GPa) = 0.03892041
#
# Stress axis : x y z
#
# Youngs Moduli (GPa) = 30.11251 70.36267 51.66120
#
# Poissons Ratio (x) = 0.35683 0.16996
# Poissons Ratio (y) = 0.15271 0.28762
# Poissons Ratio (z) = 0.09907 0.39174
#
# Static dielectric constant tensor:
#      x y z
#    x 1.603860 0.000000 0.000000 
#    y 0.000000 1.572010 0.000000 
#    z 0.000000 0.000000 1.625050 
# 
# From -- ./inp_files/34927.got.cif
#   From: 2010.05.17/outbox.cif.g08.bks.cpg/sg70_18_cif.got.tgz:34927.got - 2010.06.03 15:57:51.
