data_PCOD9514848
_publ_section_title
;
Structure prediction by ZEFSAII (Michael W. Deem and Ramdas Pophale) SiO2 
 PCOD9514848
Probable space group: F D D D
;
_chemical_formula_sum "Si O2"
_cell_formula_units_Z 96
_cell_length_a 19.637270
_cell_length_b 9.957459
_cell_length_c 19.593433
_cell_angle_alpha 90.000000
_cell_angle_beta 90.000000
_cell_angle_gamma 90.000000
_cell_volume 3831.247200
_symmetry_space_group_name_H-M "F D D D"
_symmetry_group_IT_number 70
_space_group.IT_coordinate_system_code '2'
_symmetry_cell_setting 'orthorhombic'
loop_
_space_group_symop_operation_xyz
x,y,z
1/4-x,1/4-y,z
x,1/4-y,1/4-z
1/4-x,y,1/4-z
-x,-y,-z
3/4+x,3/4+y,-z
-x,3/4+y,3/4+z
3/4+x,-y,3/4+z
x,1/2+y,1/2+z
1/4-x,3/4-y,1/2+z
x,3/4-y,3/4-z
1/4-x,1/2+y,3/4-z
-x,1/2-y,1/2-z
3/4+x,1/4+y,1/2-z
-x,1/4+y,1/4+z
3/4+x,1/2-y,1/4+z
1/2+x,y,1/2+z
3/4-x,1/4-y,1/2+z
1/2+x,1/4-y,3/4-z
3/4-x,y,3/4-z
1/2-x,-y,1/2-z
1/4+x,3/4+y,1/2-z
1/2-x,3/4+y,1/4+z
1/4+x,-y,1/4+z
1/2+x,1/2+y,z
3/4-x,3/4-y,z
1/2+x,3/4-y,1/4-z
3/4-x,1/2+y,1/4-z
1/2-x,1/2-y,-z
1/4+x,1/4+y,-z
1/2-x,1/4+y,3/4+z
1/4+x,1/2-y,3/4+z
loop_
_atom_site_type_symbol
_atom_site_label
_atom_site_fract_x
_atom_site_fract_y
_atom_site_fract_z
Si Si1 0.181421 0.527951 0.292759
Si Si2 0.872364 0.028494 0.761010
Si Si3 0.763399 0.030374 0.870317
O O1 0.125000 0.625000 0.257749
O O2 0.250000 0.500000 0.250000
O O3 0.144197 0.385333 0.295070
O O4 0.207483 0.611366 0.357878
O O5 0.800689 0.059055 0.798560
O O6 0.927826 0.038249 0.821919
O O7 0.875000 0.875000 0.738836
O O8 0.740797 0.875000 0.875000
#
# Coordination Sequence:
#
# PCOD9514848 Si02
#       3
#    32  32  32
#     4  10  20  36  58  88 123 163 216 277 333 398
#     4   8  15  32  59  84 113 160 210 262 327 393
#     4   8  15  32  56  81 115 163 212 257 319 403
#
# _framework density 25.057115
#
# number of rings (size 3 to 8) (size 9 to 14) (size 15 to 20)
#    0.000    3.333    0.000    2.000    0.000    0.000 
#    0.000   31.667    0.000    4.000    0.000    0.000 
#    0.000    0.000    0.000    0.667    0.000    0.000 
#
# Total GULP energy -134134.283703 kJ/mol
# GULP energy per Si atom -5588.928488 kJ/mol
# Density = 2.500008 g / cm^3
# Si number density = 25.057115 Si / 1000 Ang^3
#
#
#
# Elastic Constant Matrix: (Units=GPa)
#
#
# Indices 1 2 3 4 5 6 
#
# 1 158.4444 78.2294 81.0069 0.0000 0.0000 0.0000
# 2 78.2294 240.5923 69.2947 0.0000 0.0000 0.0000
# 3 81.0069 69.2947 103.5069 0.0000 0.0000 0.0000
# 4 0.0000 0.0000 0.0000 -2.0052 0.0000 0.0000
# 5 0.0000 0.0000 0.0000 0.0000 26.8647 0.0000
# 6 0.0000 0.0000 0.0000 0.0000 0.0000 17.6944
#
#
#
# Elastic Compliance Matrix: (Units=1/GPa)
#
#
# Indices 1 2 3 4 5 6 
#
# 1 0.010860 -0.001342 -0.007601 0.000000 0.000000 0.000000
# 2 -0.001342 0.005315 -0.002508 0.000000 0.000000 0.000000
# 3 -0.007601 -0.002508 0.017289 0.000000 0.000000 0.000000
# 4 0.000000 0.000000 0.000000 -0.498691 0.000000 0.000000
# 5 0.000000 0.000000 0.000000 0.000000 0.037224 0.000000
# 6 0.000000 0.000000 0.000000 0.000000 0.000000 0.056515
#
#
# Mechanical properties :
#
#
# Convention : Reuss Voigt Hill
#
# Bulk Modulus (GPa) = 94.67734 106.62286 100.65010
# Shear Modulus (GPa) = -14.48998 26.77827 6.14415
#
# Velocity S-wave (km/s) = -2.40735 3.27263 1.56760
# Velocity P-wave (km/s) = 5.48995 7.54483 6.59788
#
# Compressibility (1/GPa) = 0.01056219
#
# Stress axis : x y z
#
# Youngs Moduli (GPa) = 92.08107 188.14255 57.84071
#
# Poissons Ratio (x) = 0.25248 0.43964
# Poissons Ratio (y) = 0.12357 0.14507
# Poissons Ratio (z) = 0.69990 0.47187
#
# Static dielectric constant tensor:
#      x y z
#    x 2.033170 0.000000 0.000000 
#    y 0.000000 1.961080 0.000000 
#    z 0.000000 0.000000 2.028090 
# 
# From -- ./inp_files/10338.got.cif
#   From: 2010.05.17/outbox.cif.g08.bks.cpg/sg70_6_cif.got.tgz:10338.got - 2010.06.03 15:57:51.
