data_PCOD9514784
_publ_section_title
;
Structure prediction by ZEFSAII (Michael W. Deem and Ramdas Pophale) SiO2 
 PCOD9514784
Probable space group: F D D D
;
_chemical_formula_sum "Si O2"
_cell_formula_units_Z 176
_cell_length_a 24.546578
_cell_length_b 16.344831
_cell_length_c 22.163363
_cell_angle_alpha 90.000000
_cell_angle_beta 90.000000
_cell_angle_gamma 90.000000
_cell_volume 8892.155534
_symmetry_space_group_name_H-M "F D D D"
_symmetry_group_IT_number 70
_space_group.IT_coordinate_system_code '2'
_symmetry_cell_setting 'orthorhombic'
loop_
_space_group_symop_operation_xyz
x,y,z
1/4-x,1/4-y,z
x,1/4-y,1/4-z
1/4-x,y,1/4-z
-x,-y,-z
3/4+x,3/4+y,-z
-x,3/4+y,3/4+z
3/4+x,-y,3/4+z
x,1/2+y,1/2+z
1/4-x,3/4-y,1/2+z
x,3/4-y,3/4-z
1/4-x,1/2+y,3/4-z
-x,1/2-y,1/2-z
3/4+x,1/4+y,1/2-z
-x,1/4+y,1/4+z
3/4+x,1/2-y,1/4+z
1/2+x,y,1/2+z
3/4-x,1/4-y,1/2+z
1/2+x,1/4-y,3/4-z
3/4-x,y,3/4-z
1/2-x,-y,1/2-z
1/4+x,3/4+y,1/2-z
1/2-x,3/4+y,1/4+z
1/4+x,-y,1/4+z
1/2+x,1/2+y,z
3/4-x,3/4-y,z
1/2+x,3/4-y,1/4-z
3/4-x,1/2+y,1/4-z
1/2-x,1/2-y,-z
1/4+x,1/4+y,-z
1/2-x,1/4+y,3/4+z
1/4+x,1/2-y,3/4+z
loop_
_atom_site_type_symbol
_atom_site_label
_atom_site_fract_x
_atom_site_fract_y
_atom_site_fract_z
Si Si1 0.069906 0.502760 0.368787
Si Si2 0.764114 0.611157 0.893814
Si Si3 0.908873 0.799714 0.979989
Si Si4 0.125000 0.942724 0.125000
Si Si5 0.729191 0.373650 0.287084
Si Si6 0.309550 0.717159 0.149989
O O1 0.043787 0.450187 0.425020
O O2 0.058545 0.450196 0.309152
O O3 0.134392 0.506775 0.375468
O O4 0.035077 0.584353 0.368348
O O5 0.821319 0.638548 0.866785
O O6 0.744331 0.518651 0.884557
O O7 0.769483 0.631193 0.965312
O O8 0.875000 0.875000 0.008730
O O9 0.871874 0.751713 0.932793
O O10 0.959797 0.843290 0.946992
O O11 0.931822 0.735056 0.028449
O O12 0.307542 0.625000 0.125000
#
# Coordination Sequence:
#
# PCOD9514784 Si02
#       6
#    32  32  32  16  32  32
#     4  11  19  37  60  92 121 159 194 245 310 379
#     4  11  23  38  59  88 124 160 202 253 301 371
#     4  11  22  37  62  99 131 160 183 250 320 391
#     4  12  23  36  63  94 132 158 198 240 325 373
#     4  10  20  34  59  91 128 149 195 236 316 372
#     4  11  23  41  62  83 122 168 217 250 295 348
#
# _framework density 19.792725999999998
#
# number of rings (size 3 to 8) (size 9 to 14) (size 15 to 20)
#    0.000    1.091    3.636    5.727    2.545    0.000 
#    0.000    1.364    0.000    0.000    0.000    0.000 
#    0.000    0.000    0.000    0.000    0.000    0.000 
#
# Total GULP energy -245564.467042 kJ/mol
# GULP energy per Si atom -5581.010615 kJ/mol
# Density = 1.974768 g / cm^3
# Si number density = 19.792726 Si / 1000 Ang^3
#
#
#
# Elastic Constant Matrix: (Units=GPa)
#
#
# Indices 1 2 3 4 5 6 
#
# 1 103.3830 45.1059 0.1361 0.0000 0.0000 0.0000
# 2 45.1059 115.6415 36.6754 0.0000 0.0000 0.0000
# 3 0.1361 36.6754 34.4716 0.0000 0.0000 0.0000
# 4 0.0000 0.0000 0.0000 -1.6982 0.0000 0.0000
# 5 0.0000 0.0000 0.0000 0.0000 14.7021 0.0000
# 6 0.0000 0.0000 0.0000 0.0000 0.0000 32.7973
#
#
#
# Elastic Compliance Matrix: (Units=1/GPa)
#
#
# Indices 1 2 3 4 5 6 
#
# 1 0.012987 -0.007621 0.008057 0.000000 0.000000 0.000000
# 2 -0.007621 0.017523 -0.018613 0.000000 0.000000 0.000000
# 3 0.008057 -0.018613 0.048781 0.000000 0.000000 0.000000
# 4 0.000000 0.000000 0.000000 -0.588854 0.000000 0.000000
# 5 0.000000 0.000000 0.000000 0.000000 0.068017 0.000000
# 6 0.000000 0.000000 0.000000 0.000000 0.000000 0.030490
#
#
# Mechanical properties :
#
#
# Convention : Reuss Voigt Hill
#
# Bulk Modulus (GPa) = 23.29029 46.37010 34.83019
# Shear Modulus (GPa) = -13.87391 20.59882 3.36246
#
# Velocity S-wave (km/s) = -2.65044 3.22953 1.30481
# Velocity P-wave (km/s) = 1.55763 6.11434 4.46158
#
# Compressibility (1/GPa) = 0.04293635
#
# Stress axis : x y z
#
# Youngs Moduli (GPa) = 76.99952 57.06778 20.49986
#
# Poissons Ratio (x) = 0.43490 -0.16516
# Poissons Ratio (y) = 0.58680 0.38157
# Poissons Ratio (z) = -0.62036 1.06222
#
# Static dielectric constant tensor:
#      x y z
#    x 1.727680 0.000000 0.000000 
#    y 0.000000 1.756180 0.000000 
#    z 0.000000 0.000000 1.716730 
# 
# From -- ./inp_files/28776.got.cif
#   From: 2010.05.17/outbox.cif.g08.bks.cpg/sg70_15_cif.got.tgz:28776.got - 2010.06.03 15:57:51.
