data_PCOD9514403
_publ_section_title
;
Structure prediction by ZEFSAII (Michael W. Deem and Ramdas Pophale) SiO2 
 PCOD9514403
Probable space group: F D D D
;
_chemical_formula_sum "Si O2"
_cell_formula_units_Z 176
_cell_length_a 14.314387
_cell_length_b 23.301537
_cell_length_c 23.908333
_cell_angle_alpha 90.000000
_cell_angle_beta 90.000000
_cell_angle_gamma 90.000000
_cell_volume 7974.557967
_symmetry_space_group_name_H-M "F D D D"
_symmetry_group_IT_number 70
_space_group.IT_coordinate_system_code '2'
_symmetry_cell_setting 'orthorhombic'
loop_
_space_group_symop_operation_xyz
x,y,z
1/4-x,1/4-y,z
x,1/4-y,1/4-z
1/4-x,y,1/4-z
-x,-y,-z
3/4+x,3/4+y,-z
-x,3/4+y,3/4+z
3/4+x,-y,3/4+z
x,1/2+y,1/2+z
1/4-x,3/4-y,1/2+z
x,3/4-y,3/4-z
1/4-x,1/2+y,3/4-z
-x,1/2-y,1/2-z
3/4+x,1/4+y,1/2-z
-x,1/4+y,1/4+z
3/4+x,1/2-y,1/4+z
1/2+x,y,1/2+z
3/4-x,1/4-y,1/2+z
1/2+x,1/4-y,3/4-z
3/4-x,y,3/4-z
1/2-x,-y,1/2-z
1/4+x,3/4+y,1/2-z
1/2-x,3/4+y,1/4+z
1/4+x,-y,1/4+z
1/2+x,1/2+y,z
3/4-x,3/4-y,z
1/2+x,3/4-y,1/4-z
3/4-x,1/2+y,1/4-z
1/2-x,1/2-y,-z
1/4+x,1/4+y,-z
1/2-x,1/4+y,3/4+z
1/4+x,1/2-y,3/4+z
loop_
_atom_site_type_symbol
_atom_site_label
_atom_site_fract_x
_atom_site_fract_y
_atom_site_fract_z
Si Si1 0.174523 0.501929 0.384625
Si Si2 0.514935 0.326386 0.914998
Si Si3 0.625000 0.280358 0.125000
Si Si4 0.091546 0.688083 0.271969
Si Si5 0.461003 0.234124 0.991054
Si Si6 0.606067 0.353442 0.233902
O O1 0.100790 0.453682 0.367825
O O2 0.283730 0.490645 0.372034
O O3 0.157748 0.552732 0.339543
O O4 0.168657 0.508477 0.451411
O O5 0.476314 0.375000 0.875000
O O6 0.447675 0.277137 0.939306
O O7 0.563808 0.352644 0.969991
O O8 0.637399 0.324542 0.176328
O O9 0.125000 0.625000 0.257877
O O10 0.175501 0.728540 0.251311
O O11 0.984875 0.686249 0.250414
O O12 0.426319 0.169675 0.978494
#
# Coordination Sequence:
#
# PCOD9514403 Si02
#       6
#    32  32  16  32  32  32
#     4  10  19  29  49  76 101 142 176 215 263 322
#     4  11  21  33  51  78 112 142 181 222 269 319
#     4  10  20  32  53  74 105 140 188 216 258 326
#     4   8  18  31  46  67 103 139 173 212 259 311
#     4  10  19  33  50  73 107 141 173 218 272 317
#     4  10  19  34  51  74 105 146 179 220 265 322
#
# _framework density 22.070188999999999
#
# number of rings (size 3 to 8) (size 9 to 14) (size 15 to 20)
#    0.000    2.182    3.636    0.000    2.545    2.182 
#    0.000    0.455    0.000    3.273    0.000    0.000 
#    0.000    0.000    0.000    0.000    0.000    0.000 
#
# Total GULP energy -245301.712002 kJ/mol
# GULP energy per Si atom -5575.038909 kJ/mol
# Density = 2.201996 g / cm^3
# Si number density = 22.070189 Si / 1000 Ang^3
#
#
#
# Elastic Constant Matrix: (Units=GPa)
#
#
# Indices 1 2 3 4 5 6 
#
# 1 35.7949 12.6573 18.3531 0.0000 0.0000 0.0000
# 2 12.6573 96.1518 42.5639 0.0000 0.0000 0.0000
# 3 18.3531 42.5639 140.2195 0.0000 0.0000 0.0000
# 4 0.0000 0.0000 0.0000 33.9071 0.0000 0.0000
# 5 0.0000 0.0000 0.0000 0.0000 21.6166 0.0000
# 6 0.0000 0.0000 0.0000 0.0000 0.0000 15.2583
#
#
#
# Elastic Compliance Matrix: (Units=1/GPa)
#
#
# Indices 1 2 3 4 5 6 
#
# 1 0.030498 -0.002597 -0.003204 0.000000 0.000000 0.000000
# 2 -0.002597 0.012236 -0.003374 0.000000 0.000000 0.000000
# 3 -0.003204 -0.003374 0.008575 0.000000 0.000000 0.000000
# 4 0.000000 0.000000 0.000000 0.029492 0.000000 0.000000
# 5 0.000000 0.000000 0.000000 0.000000 0.046261 0.000000
# 6 0.000000 0.000000 0.000000 0.000000 0.000000 0.065538
#
#
# Mechanical properties :
#
#
# Convention : Reuss Voigt Hill
#
# Bulk Modulus (GPa) = 30.34004 46.59055 38.46529
# Shear Modulus (GPa) = 22.52909 27.39586 24.96248
#
# Velocity S-wave (km/s) = 3.19845 3.52704 3.36676
# Velocity P-wave (km/s) = 5.23613 6.14351 5.70788
#
# Compressibility (1/GPa) = 0.03295974
#
# Stress axis : x y z
#
# Youngs Moduli (GPa) = 32.78942 81.72775 116.61426
#
# Poissons Ratio (x) = 0.21221 0.37359
# Poissons Ratio (y) = 0.08514 0.39350
# Poissons Ratio (z) = 0.10504 0.27578
#
# Static dielectric constant tensor:
#      x y z
#    x 1.863160 0.000000 0.000000 
#    y 0.000000 1.805770 0.000000 
#    z 0.000000 0.000000 1.852430 
# 
# From -- ./inp_files/35263.got.cif
#   From: 2010.05.17/outbox.cif.g08.bks.cpg/sg70_18_cif.got.tgz:35263.got - 2010.06.03 15:57:51.
