data_PCOD9514735
_publ_section_title
;
Structure prediction by ZEFSAII (Michael W. Deem and Ramdas Pophale) SiO2 
 PCOD9514735
Probable space group: F D D D
;
_chemical_formula_sum "Si O2"
_cell_formula_units_Z 112
_cell_length_a 17.598560
_cell_length_b 25.727327
_cell_length_c 8.558097
_cell_angle_alpha 90.000000
_cell_angle_beta 90.000000
_cell_angle_gamma 90.000000
_cell_volume 3874.797441
_symmetry_space_group_name_H-M "F D D D"
_symmetry_group_IT_number 70
_space_group.IT_coordinate_system_code '2'
_symmetry_cell_setting 'orthorhombic'
loop_
_space_group_symop_operation_xyz
x,y,z
1/4-x,1/4-y,z
x,1/4-y,1/4-z
1/4-x,y,1/4-z
-x,-y,-z
3/4+x,3/4+y,-z
-x,3/4+y,3/4+z
3/4+x,-y,3/4+z
x,1/2+y,1/2+z
1/4-x,3/4-y,1/2+z
x,3/4-y,3/4-z
1/4-x,1/2+y,3/4-z
-x,1/2-y,1/2-z
3/4+x,1/4+y,1/2-z
-x,1/4+y,1/4+z
3/4+x,1/2-y,1/4+z
1/2+x,y,1/2+z
3/4-x,1/4-y,1/2+z
1/2+x,1/4-y,3/4-z
3/4-x,y,3/4-z
1/2-x,-y,1/2-z
1/4+x,3/4+y,1/2-z
1/2-x,3/4+y,1/4+z
1/4+x,-y,1/4+z
1/2+x,1/2+y,z
3/4-x,3/4-y,z
1/2+x,3/4-y,1/4-z
3/4-x,1/2+y,1/4-z
1/2-x,1/2-y,-z
1/4+x,1/4+y,-z
1/2-x,1/4+y,3/4+z
1/4+x,1/2-y,3/4+z
loop_
_atom_site_type_symbol
_atom_site_label
_atom_site_fract_x
_atom_site_fract_y
_atom_site_fract_z
Si Si1 0.625000 0.387456 0.125000
Si Si2 0.757208 0.190392 0.613907
Si Si3 0.667262 0.208432 0.316901
Si Si4 0.270492 0.845337 0.056902
O O1 0.674323 0.422371 0.245608
O O2 0.681101 0.349084 0.029719
O O3 0.688346 0.206707 0.501679
O O4 0.790362 0.238422 0.718010
O O5 0.727832 0.153756 0.752532
O O6 0.701993 0.153440 0.257850
O O7 0.579097 0.201103 0.273901
#
# Coordination Sequence:
#
# PCOD9514735 Si02
#       4
#    16  32  32  32
#     4  10  20  32  48  79 110 141 174 212 276 328
#     4  10  20  32  54  84 108 133 179 228 274 327
#     4   9  19  32  54  81 107 135 172 229 284 310
#     4  10  20  35  52  80 112 140 176 227 272 325
#
# _framework density 28.904736
#
# number of rings (size 3 to 8) (size 9 to 14) (size 15 to 20)
#    0.000    2.286    0.000    4.286   12.000    4.571 
#    0.000    1.429    0.000    0.000    0.000   16.000 
#    0.000    0.000    0.000    0.000    0.000    0.000 
#
# Total GULP energy -156243.103105 kJ/mol
# GULP energy per Si atom -5580.110825 kJ/mol
# Density = 2.883895 g / cm^3
# Si number density = 28.904736 Si / 1000 Ang^3
#
#
#
# Elastic Constant Matrix: (Units=GPa)
#
#
# Indices 1 2 3 4 5 6 
#
# 1 163.4594 48.3088 11.4492 0.0000 0.0000 0.0000
# 2 48.3088 110.3480 12.4665 0.0000 0.0000 0.0000
# 3 11.4492 12.4665 92.2430 0.0000 -0.0001 0.0000
# 4 0.0000 0.0000 0.0000 53.1771 0.0000 0.0000
# 5 0.0000 0.0000 -0.0001 0.0000 48.5477 0.0000
# 6 0.0000 0.0000 0.0000 0.0000 0.0000 50.5323
#
#
#
# Elastic Compliance Matrix: (Units=1/GPa)
#
#
# Indices 1 2 3 4 5 6 
#
# 1 0.007046 -0.003032 -0.000465 0.000000 0.000000 0.000000
# 2 -0.003032 0.010508 -0.001044 0.000000 0.000000 0.000000
# 3 -0.000465 -0.001044 0.011040 0.000000 0.000000 0.000000
# 4 0.000000 0.000000 0.000000 0.018805 0.000000 0.000000
# 5 0.000000 0.000000 0.000000 0.000000 0.020598 0.000000
# 6 0.000000 0.000000 0.000000 0.000000 0.000000 0.019789
#
#
# Mechanical properties :
#
#
# Convention : Reuss Voigt Hill
#
# Bulk Modulus (GPa) = 51.25022 56.72216 53.98619
# Shear Modulus (GPa) = 48.36890 50.03982 49.20436
#
# Velocity S-wave (km/s) = 4.09515 4.16528 4.13036
# Velocity P-wave (km/s) = 6.33479 6.54211 6.43928
#
# Compressibility (1/GPa) = 0.01951211
#
# Stress axis : x y z
#
# Youngs Moduli (GPa) = 141.91526 95.16865 90.58239
#
# Poissons Ratio (x) = 0.28858 0.04210
# Poissons Ratio (y) = 0.43033 0.09454
# Poissons Ratio (z) = 0.06596 0.09933
#
# Static dielectric constant tensor:
#      x y z
#    x 2.296250 0.000000 0.000000 
#    y 0.000000 2.640470 0.000000 
#    z 0.000000 0.000000 2.355620 
# 
# From -- ./inp_files/16514.got.cif
#   From: 2010.05.17/outbox.cif.g08.bks.cpg/sg70_9_cif.got.tgz:16514.got - 2010.06.03 15:57:51.
