data_PCOD9514299
_publ_section_title
;
Structure prediction by ZEFSAII (Michael W. Deem and Ramdas Pophale) SiO2 
 PCOD9514299
Probable space group: F D D D
;
_chemical_formula_sum "Si O2"
_cell_formula_units_Z 216
_cell_length_a 27.145934
_cell_length_b 13.254826
_cell_length_c 24.611312
_cell_angle_alpha 90.000000
_cell_angle_beta 90.000000
_cell_angle_gamma 90.000000
_cell_volume 8855.510165
_symmetry_space_group_name_H-M "F D D D"
_symmetry_group_IT_number 70
_space_group.IT_coordinate_system_code '2'
_symmetry_cell_setting 'orthorhombic'
loop_
_space_group_symop_operation_xyz
x,y,z
1/4-x,1/4-y,z
x,1/4-y,1/4-z
1/4-x,y,1/4-z
-x,-y,-z
3/4+x,3/4+y,-z
-x,3/4+y,3/4+z
3/4+x,-y,3/4+z
x,1/2+y,1/2+z
1/4-x,3/4-y,1/2+z
x,3/4-y,3/4-z
1/4-x,1/2+y,3/4-z
-x,1/2-y,1/2-z
3/4+x,1/4+y,1/2-z
-x,1/4+y,1/4+z
3/4+x,1/2-y,1/4+z
1/2+x,y,1/2+z
3/4-x,1/4-y,1/2+z
1/2+x,1/4-y,3/4-z
3/4-x,y,3/4-z
1/2-x,-y,1/2-z
1/4+x,3/4+y,1/2-z
1/2-x,3/4+y,1/4+z
1/4+x,-y,1/4+z
1/2+x,1/2+y,z
3/4-x,3/4-y,z
1/2+x,3/4-y,1/4-z
3/4-x,1/2+y,1/4-z
1/2-x,1/2-y,-z
1/4+x,1/4+y,-z
1/2-x,1/4+y,3/4+z
1/4+x,1/2-y,3/4+z
loop_
_atom_site_type_symbol
_atom_site_label
_atom_site_fract_x
_atom_site_fract_y
_atom_site_fract_z
Si Si1 0.848909 0.071584 0.319043
Si Si2 0.874730 0.132793 0.703448
Si Si3 0.285263 0.891414 0.794706
Si Si4 0.947824 0.301637 0.679236
Si Si5 0.540589 0.014448 0.689649
Si Si6 0.539478 0.875000 0.375000
Si Si7 0.625000 0.125000 0.625000
Si Si8 0.964835 0.774475 0.061952
O O1 0.875000 0.092498 0.375000
O O2 0.882132 0.099382 0.267333
O O3 0.830385 0.956802 0.316556
O O4 0.802054 0.145280 0.309368
O O5 0.896275 0.239722 0.681833
O O6 0.826285 0.096716 0.673413
O O7 0.917994 0.051805 0.692070
O O8 0.297897 0.875035 0.730933
O O9 0.265820 0.961834 0.929872
O O10 0.238165 0.965008 0.804911
O O11 0.956177 0.335215 0.617323
O O12 0.496577 0.042002 0.649880
O O13 0.589805 0.060439 0.663589
O O14 0.532471 0.061293 0.749713
#
# Coordination Sequence:
#
# PCOD9514299 Si02
#       8
#    32  32  32  32  32  16   8  32
#     4  10  20  37  59  86 118 169 198 247 309 369
#     4   9  17  32  57  82 110 153 199 237 305 361
#     4   9  18  31  60  91 114 149 213 234 286 375
#     4   9  15  30  57  85 112 154 193 238 288 370
#     4  10  22  35  63  81 118 155 204 255 305 356
#     4  11  20  37  56  92 110 156 207 256 299 368
#     4  10  20  44  60  80 116 156 210 252 300 372
#     4  10  18  35  62  90 113 162 196 242 310 371
#
# _framework density 24.391594000000001
#
# number of rings (size 3 to 8) (size 9 to 14) (size 15 to 20)
#    0.000    2.370    2.222    4.000    0.000    1.185 
#    0.000    0.741   13.037   26.667    0.000    0.000 
#    0.000    0.000    0.000    0.000    0.000    0.000 
#
# Total GULP energy -301766.414718 kJ/mol
# GULP energy per Si atom -5588.266939 kJ/mol
# Density = 2.433608 g / cm^3
# Si number density = 24.391594 Si / 1000 Ang^3
#
#
#
# Elastic Constant Matrix: (Units=GPa)
#
#
# Indices 1 2 3 4 5 6 
#
# 1 99.9384 28.5793 63.5904 0.0000 0.0000 0.0000
# 2 28.5793 41.0207 32.3800 0.0000 0.0000 0.0000
# 3 63.5904 32.3800 233.2560 0.0000 0.0000 0.0000
# 4 0.0000 0.0000 0.0000 21.1710 0.0000 0.0000
# 5 0.0000 0.0000 0.0000 0.0000 44.5309 0.0000
# 6 0.0000 0.0000 0.0000 0.0000 0.0000 9.9661
#
#
#
# Elastic Compliance Matrix: (Units=1/GPa)
#
#
# Indices 1 2 3 4 5 6 
#
# 1 0.013904 -0.007519 -0.002747 0.000000 0.000000 0.000000
# 2 -0.007519 0.031444 -0.002315 0.000000 0.000000 0.000000
# 3 -0.002747 -0.002315 0.005357 0.000000 0.000000 0.000000
# 4 0.000000 0.000000 0.000000 0.047235 0.000000 0.000000
# 5 0.000000 0.000000 0.000000 0.000000 0.022456 0.000000
# 6 0.000000 0.000000 0.000000 0.000000 0.000000 0.100340
#
#
# Mechanical properties :
#
#
# Convention : Reuss Voigt Hill
#
# Bulk Modulus (GPa) = 39.14860 69.25716 54.20288
# Shear Modulus (GPa) = 19.65315 31.77796 25.71556
#
# Velocity S-wave (km/s) = 2.84163 3.61338 3.25049
# Velocity P-wave (km/s) = 5.18183 6.77231 6.02974
#
# Compressibility (1/GPa) = 0.02554370
#
# Stress axis : x y z
#
# Youngs Moduli (GPa) = 71.92126 31.80273 186.65934
#
# Poissons Ratio (x) = 0.23912 0.51272
# Poissons Ratio (y) = 0.54076 0.43215
# Poissons Ratio (z) = 0.19755 0.07363
#
# Static dielectric constant tensor:
#      x y z
#    x 1.951420 0.000000 0.000000 
#    y 0.000000 1.994450 0.000000 
#    z 0.000000 0.000000 1.950840 
# 
# From -- ./inp_files/54457.got.cif
#   From: 2010.05.17/outbox.cif.g08.bks.cpg/sg70_28_cif.got.tgz:54457.got - 2010.06.03 15:57:51.
