data_PCOD9514901
_publ_section_title
;
Structure prediction by ZEFSAII (Michael W. Deem and Ramdas Pophale) SiO2 
 PCOD9514901
Probable space group: F D D D
;
_chemical_formula_sum "Si O2"
_cell_formula_units_Z 136
_cell_length_a 25.251079
_cell_length_b 28.501483
_cell_length_c 9.612673
_cell_angle_alpha 90.000000
_cell_angle_beta 90.000000
_cell_angle_gamma 90.000000
_cell_volume 6918.175381
_symmetry_space_group_name_H-M "F D D D"
_symmetry_group_IT_number 70
_space_group.IT_coordinate_system_code '2'
_symmetry_cell_setting 'orthorhombic'
loop_
_space_group_symop_operation_xyz
x,y,z
1/4-x,1/4-y,z
x,1/4-y,1/4-z
1/4-x,y,1/4-z
-x,-y,-z
3/4+x,3/4+y,-z
-x,3/4+y,3/4+z
3/4+x,-y,3/4+z
x,1/2+y,1/2+z
1/4-x,3/4-y,1/2+z
x,3/4-y,3/4-z
1/4-x,1/2+y,3/4-z
-x,1/2-y,1/2-z
3/4+x,1/4+y,1/2-z
-x,1/4+y,1/4+z
3/4+x,1/2-y,1/4+z
1/2+x,y,1/2+z
3/4-x,1/4-y,1/2+z
1/2+x,1/4-y,3/4-z
3/4-x,y,3/4-z
1/2-x,-y,1/2-z
1/4+x,3/4+y,1/2-z
1/2-x,3/4+y,1/4+z
1/4+x,-y,1/4+z
1/2+x,1/2+y,z
3/4-x,3/4-y,z
1/2+x,3/4-y,1/4-z
3/4-x,1/2+y,1/4-z
1/2-x,1/2-y,-z
1/4+x,1/4+y,-z
1/2-x,1/4+y,3/4+z
1/4+x,1/2-y,3/4+z
loop_
_atom_site_type_symbol
_atom_site_label
_atom_site_fract_x
_atom_site_fract_y
_atom_site_fract_z
Si Si1 0.307466 0.176996 0.625494
Si Si2 0.625000 0.785499 0.625000
Si Si3 0.298740 0.954728 0.288342
Si Si4 0.125000 0.287492 0.125000
Si Si5 0.125000 0.625000 0.625000
Si Si6 0.520674 0.744554 0.491808
O O1 0.283509 0.125000 0.625000
O O2 0.343102 0.185101 0.489782
O O3 0.345325 0.182746 0.759393
O O4 0.265096 0.218931 0.643102
O O5 0.578947 0.756033 0.547091
O O6 0.336088 0.909870 0.293929
O O7 0.272114 0.958732 0.138792
O O8 0.334882 0.001384 0.300569
O O9 0.258847 0.960510 0.419926
#
# Coordination Sequence:
#
# PCOD9514901 Si02
#       6
#    32  16  32  16   8  32
#     4  11  23  39  61  92 121 158 210 261 303 369
#     4  12  23  42  64  90 121 173 204 246 318 385
#     4   9  19  39  63  93 119 166 203 253 305 375
#     4   9  17  39  64  78 123 165 200 243 318 370
#     4  10  20  36  70 102 120 152 224 264 292 356
#     4  10  22  41  63  86 129 166 200 248 323 372
#
# _framework density 19.658363000000001
#
# number of rings (size 3 to 8) (size 9 to 14) (size 15 to 20)
#    0.000    1.882    2.353    1.412    0.000    1.882 
#    6.353    0.000    0.000    0.000    0.000    0.000 
#    0.000    0.000    0.000    0.000    0.000    0.000 
#
# Total GULP energy -189566.387544 kJ/mol
# GULP energy per Si atom -5575.481987 kJ/mol
# Density = 1.961362 g / cm^3
# Si number density = 19.658363 Si / 1000 Ang^3
#
#
#
# Elastic Constant Matrix: (Units=GPa)
#
#
# Indices 1 2 3 4 5 6 
#
# 1 107.4558 32.5266 30.4688 0.0006 -0.0005 -0.0002
# 2 32.5266 78.4824 35.0748 0.0010 -0.0010 -0.0007
# 3 30.4688 35.0748 80.8531 0.0019 -0.0018 -0.0013
# 4 0.0006 0.0010 0.0019 15.2818 -0.0014 -0.0010
# 5 -0.0005 -0.0010 -0.0018 -0.0014 32.0809 0.0010
# 6 -0.0002 -0.0007 -0.0013 -0.0010 0.0010 5.9621
#
#
#
# Elastic Compliance Matrix: (Units=1/GPa)
#
#
# Indices 1 2 3 4 5 6 
#
# 1 0.011101 -0.003388 -0.002714 0.000000 0.000000 -0.000001
# 2 -0.003388 0.016840 -0.006029 0.000000 0.000000 0.000001
# 3 -0.002714 -0.006029 0.016006 -0.000001 0.000001 0.000003
# 4 0.000000 0.000000 -0.000001 0.065437 0.000003 0.000011
# 5 0.000000 0.000000 0.000001 0.000003 0.031171 -0.000005
# 6 -0.000001 0.000001 0.000003 0.000011 -0.000005 0.167726
#
#
# Mechanical properties :
#
#
# Convention : Reuss Voigt Hill
#
# Bulk Modulus (GPa) = 50.79579 51.43683 51.11631
# Shear Modulus (GPa) = 14.74471 21.91303 18.32887
#
# Velocity S-wave (km/s) = 2.74167 3.34232 3.05679
# Velocity P-wave (km/s) = 5.99314 6.41225 6.20624
#
# Compressibility (1/GPa) = 0.01968667
#
# Stress axis : x y z
#
# Youngs Moduli (GPa) = 90.08084 59.38188 62.47666
#
# Poissons Ratio (x) = 0.20119 0.16954
# Poissons Ratio (y) = 0.30520 0.37665
# Poissons Ratio (z) = 0.24444 0.35799
#
# Static dielectric constant tensor:
#      x y z
#    x 1.733440 0.000000 0.000000 
#    y 0.000000 1.668170 0.000000 
#    z 0.000000 0.000000 1.716890 
# 
# From -- ./inp_files/11093.got.cif
#   From: 2010.05.17/outbox.cif.g08.bks.cpg/sg70_6_cif.got.tgz:11093.got - 2010.06.03 15:57:51.
