data_PCOD9514491
_publ_section_title
;
Structure prediction by ZEFSAII (Michael W. Deem and Ramdas Pophale) SiO2 
 PCOD9514491
Probable space group: F D D D
;
_chemical_formula_sum "Si O2"
_cell_formula_units_Z 192
_cell_length_a 31.245024
_cell_length_b 10.665227
_cell_length_c 25.776309
_cell_angle_alpha 90.000000
_cell_angle_beta 90.000000
_cell_angle_gamma 90.000000
_cell_volume 8589.575382
_symmetry_space_group_name_H-M "F D D D"
_symmetry_group_IT_number 70
_space_group.IT_coordinate_system_code '2'
_symmetry_cell_setting 'orthorhombic'
loop_
_space_group_symop_operation_xyz
x,y,z
1/4-x,1/4-y,z
x,1/4-y,1/4-z
1/4-x,y,1/4-z
-x,-y,-z
3/4+x,3/4+y,-z
-x,3/4+y,3/4+z
3/4+x,-y,3/4+z
x,1/2+y,1/2+z
1/4-x,3/4-y,1/2+z
x,3/4-y,3/4-z
1/4-x,1/2+y,3/4-z
-x,1/2-y,1/2-z
3/4+x,1/4+y,1/2-z
-x,1/4+y,1/4+z
3/4+x,1/2-y,1/4+z
1/2+x,y,1/2+z
3/4-x,1/4-y,1/2+z
1/2+x,1/4-y,3/4-z
3/4-x,y,3/4-z
1/2-x,-y,1/2-z
1/4+x,3/4+y,1/2-z
1/2-x,3/4+y,1/4+z
1/4+x,-y,1/4+z
1/2+x,1/2+y,z
3/4-x,3/4-y,z
1/2+x,3/4-y,1/4-z
3/4-x,1/2+y,1/4-z
1/2-x,1/2-y,-z
1/4+x,1/4+y,-z
1/2-x,1/4+y,3/4+z
1/4+x,1/2-y,3/4+z
loop_
_atom_site_type_symbol
_atom_site_label
_atom_site_fract_x
_atom_site_fract_y
_atom_site_fract_z
Si Si1 0.625000 0.625000 0.216010
Si Si2 0.937185 0.819882 0.055597
Si Si3 0.225123 0.326839 0.045341
Si Si4 0.931371 0.450836 0.663368
Si Si5 0.881202 0.101594 0.316681
Si Si6 0.502510 0.625000 0.125000
Si Si7 0.092948 0.290073 0.787825
O O1 0.665528 0.616805 0.255085
O O2 0.618996 0.498975 0.184517
O O3 0.924240 0.904871 0.104406
O O4 0.921345 0.677583 0.055291
O O5 0.988285 0.821625 0.057262
O O6 0.179547 0.395173 0.043582
O O7 0.221611 0.226096 0.092249
O O8 0.250000 0.250000 0.000000
O O9 0.970724 0.546552 0.662617
O O10 0.937848 0.322464 0.695013
O O11 0.888425 0.513382 0.684596
O O12 0.875000 0.053732 0.375000
O O13 0.851488 0.037722 0.273592
#
# Coordination Sequence:
#
# PCOD9514491 Si02
#       7
#    16  32  32  32  32  16  32
#     4  10  19  34  60  96 126 158 215 274 336 386
#     4  10  21  35  62  99 130 164 206 274 346 398
#     4  11  22  41  62  94 137 168 217 281 338 394
#     4  10  21  36  61  96 128 160 210 269 337 399
#     4  11  24  39  63  94 125 177 227 275 325 392
#     4  10  24  34  61  96 126 170 204 268 337 392
#     4  10  22  37  64  93 126 165 215 272 325 401
#
# _framework density 22.352677
#
# number of rings (size 3 to 8) (size 9 to 14) (size 15 to 20)
#    0.000    1.667    1.667    2.750   14.000    0.000 
#    0.000    1.667    0.000   37.000    0.000    0.000 
#    0.000    0.000    0.000    0.000    0.000    0.000 
#
# Total GULP energy -268250.637530 kJ/mol
# GULP energy per Si atom -5588.554949 kJ/mol
# Density = 2.230180 g / cm^3
# Si number density = 22.352677 Si / 1000 Ang^3
#
#
#
# Elastic Constant Matrix: (Units=GPa)
#
#
# Indices 1 2 3 4 5 6 
#
# 1 52.5790 4.3006 13.3624 0.0000 0.0000 0.0000
# 2 4.3006 75.3648 16.0813 0.0000 0.0000 0.0000
# 3 13.3624 16.0813 103.1082 0.0000 0.0000 0.0000
# 4 0.0000 0.0000 0.0000 0.9561 0.0000 0.0000
# 5 0.0000 0.0000 0.0000 0.0000 18.1185 0.0000
# 6 0.0000 0.0000 0.0000 0.0000 0.0000 10.2332
#
#
#
# Elastic Compliance Matrix: (Units=1/GPa)
#
#
# Indices 1 2 3 4 5 6 
#
# 1 0.019693 -0.000599 -0.002459 0.000000 0.000000 0.000000
# 2 -0.000599 0.013744 -0.002066 0.000000 0.000000 0.000000
# 3 -0.002459 -0.002066 0.010339 0.000000 0.000000 0.000000
# 4 0.000000 0.000000 0.000000 1.045970 0.000000 0.000000
# 5 0.000000 0.000000 0.000000 0.000000 0.055192 0.000000
# 6 0.000000 0.000000 0.000000 0.000000 0.000000 0.097722
#
#
# Mechanical properties :
#
#
# Convention : Reuss Voigt Hill
#
# Bulk Modulus (GPa) = 29.82528 33.17121 31.49825
# Shear Modulus (GPa) = 3.95544 19.01538 11.48541
#
# Velocity S-wave (km/s) = 1.33169 2.91984 2.26923
# Velocity P-wave (km/s) = 3.96693 5.12244 4.58126
#
# Compressibility (1/GPa) = 0.03352860
#
# Stress axis : x y z
#
# Youngs Moduli (GPa) = 50.77989 72.76006 96.71749
#
# Poissons Ratio (x) = 0.04359 0.23780
# Poissons Ratio (y) = 0.03042 0.19981
# Poissons Ratio (z) = 0.12485 0.15032
#
# Static dielectric constant tensor:
#      x y z
#    x 1.852210 0.000000 0.000000 
#    y 0.000000 1.811190 0.000000 
#    z 0.000000 0.000000 1.867740 
# 
# From -- ./inp_files/62236.got.cif
#   From: 2010.05.17/outbox.cif.g08.bks.cpg/sg70_32_cif.got.tgz:62236.got - 2010.06.03 15:57:51.
