data_PCOD9514737
_publ_section_title
;
Structure prediction by ZEFSAII (Michael W. Deem and Ramdas Pophale) SiO2 
 PCOD9514737
Probable space group: F D D D
;
_chemical_formula_sum "Si O2"
_cell_formula_units_Z 216
_cell_length_a 23.637619
_cell_length_b 20.119238
_cell_length_c 24.687503
_cell_angle_alpha 90.000000
_cell_angle_beta 90.000000
_cell_angle_gamma 90.000000
_cell_volume 11740.657586
_symmetry_space_group_name_H-M "F D D D"
_symmetry_group_IT_number 70
_space_group.IT_coordinate_system_code '2'
_symmetry_cell_setting 'orthorhombic'
loop_
_space_group_symop_operation_xyz
x,y,z
1/4-x,1/4-y,z
x,1/4-y,1/4-z
1/4-x,y,1/4-z
-x,-y,-z
3/4+x,3/4+y,-z
-x,3/4+y,3/4+z
3/4+x,-y,3/4+z
x,1/2+y,1/2+z
1/4-x,3/4-y,1/2+z
x,3/4-y,3/4-z
1/4-x,1/2+y,3/4-z
-x,1/2-y,1/2-z
3/4+x,1/4+y,1/2-z
-x,1/4+y,1/4+z
3/4+x,1/2-y,1/4+z
1/2+x,y,1/2+z
3/4-x,1/4-y,1/2+z
1/2+x,1/4-y,3/4-z
3/4-x,y,3/4-z
1/2-x,-y,1/2-z
1/4+x,3/4+y,1/2-z
1/2-x,3/4+y,1/4+z
1/4+x,-y,1/4+z
1/2+x,1/2+y,z
3/4-x,3/4-y,z
1/2+x,3/4-y,1/4-z
3/4-x,1/2+y,1/4-z
1/2-x,1/2-y,-z
1/4+x,1/4+y,-z
1/2-x,1/4+y,3/4+z
1/4+x,1/2-y,3/4+z
loop_
_atom_site_type_symbol
_atom_site_label
_atom_site_fract_x
_atom_site_fract_y
_atom_site_fract_z
Si Si1 0.261493 0.428447 0.158666
Si Si2 0.072575 0.375000 0.375000
Si Si3 0.058120 0.549075 0.137314
Si Si4 0.875000 0.875000 0.875000
Si Si5 0.814329 0.338749 0.744672
Si Si6 0.521365 0.176277 0.817506
Si Si7 0.527206 0.180036 0.697322
Si Si8 0.363474 0.983810 0.106943
O O1 0.222110 0.492587 0.148757
O O2 0.269837 0.391389 0.217263
O O3 0.247015 0.374668 0.111806
O O4 0.324750 0.453758 0.146398
O O5 0.110697 0.312544 0.389784
O O6 0.028907 0.352926 0.328248
O O7 0.040307 0.625000 0.125000
O O8 0.125000 0.543658 0.125000
O O9 0.047090 0.547683 0.202121
O O10 0.917399 0.834445 0.837211
O O11 0.875000 0.375000 0.757602
O O12 0.828968 0.289581 0.695704
O O13 0.532891 0.150828 0.757411
O O14 0.482500 0.240807 0.807103
O O15 0.579652 0.203066 0.842888
#
# Coordination Sequence:
#
# PCOD9514737 Si02
#       8
#    32  16  32   8  32  32  32  32
#     4  10  22  36  62  87 111 151 202 239 289 354
#     4   9  18  33  50  84 119 142 185 242 286 336
#     4  11  23  41  60  85 118 154 192 236 300 361
#     4  10  20  32  52  84 108 152 188 232 284 356
#     4   9  18  40  60  81 114 154 183 239 293 339
#     4   9  18  37  55  79 112 150 191 234 289 341
#     4   9  19  33  55  78 114 153 186 231 287 352
#     4   9  19  34  58  84 112 148 192 239 286 338
#
# _framework density 18.397607000000001
#
# number of rings (size 3 to 8) (size 9 to 14) (size 15 to 20)
#    0.000    2.519    1.481    1.333    5.185    0.593 
#    1.333    0.000    0.000    0.000    0.000    0.000 
#    0.000    0.000    0.000    0.000    0.000    0.000 
#
# Total GULP energy -300701.024350 kJ/mol
# GULP energy per Si atom -5568.537488 kJ/mol
# Density = 1.835573 g / cm^3
# Si number density = 18.397607 Si / 1000 Ang^3
#
#
#
# Elastic Constant Matrix: (Units=GPa)
#
#
# Indices 1 2 3 4 5 6 
#
# 1 36.6307 10.3847 15.4754 0.0000 0.0000 0.0000
# 2 10.3847 73.5167 5.2913 0.0000 0.0000 0.0000
# 3 15.4754 5.2913 93.8985 0.0000 0.0000 0.0000
# 4 0.0000 0.0000 0.0000 16.7523 0.0000 0.0000
# 5 0.0000 0.0000 0.0000 0.0000 6.7811 0.0000
# 6 0.0000 0.0000 0.0000 0.0000 0.0000 16.1405
#
#
#
# Elastic Compliance Matrix: (Units=1/GPa)
#
#
# Indices 1 2 3 4 5 6 
#
# 1 0.030447 -0.003956 -0.004795 0.000000 0.000000 0.000000
# 2 -0.003956 0.014172 -0.000147 0.000000 0.000000 0.000000
# 3 -0.004795 -0.000147 0.011448 0.000000 0.000000 0.000000
# 4 0.000000 0.000000 0.000000 0.059693 0.000000 0.000000
# 5 0.000000 0.000000 0.000000 0.000000 0.147469 0.000000
# 6 0.000000 0.000000 0.000000 0.000000 0.000000 0.061956
#
#
# Mechanical properties :
#
#
# Convention : Reuss Voigt Hill
#
# Bulk Modulus (GPa) = 26.12876 29.59430 27.86153
# Shear Modulus (GPa) = 14.05535 19.46108 16.75822
#
# Velocity S-wave (km/s) = 2.76701 3.25592 3.02137
# Velocity P-wave (km/s) = 4.94384 5.50051 5.22959
#
# Compressibility (1/GPa) = 0.03827200
#
# Stress axis : x y z
#
# Youngs Moduli (GPa) = 32.84432 70.56329 87.34897
#
# Poissons Ratio (x) = 0.27912 0.41884
# Poissons Ratio (y) = 0.12992 0.01281
# Poissons Ratio (z) = 0.15749 0.01035
#
# Static dielectric constant tensor:
#      x y z
#    x 1.610920 0.000000 0.000000 
#    y 0.000000 1.661470 0.000000 
#    z 0.000000 0.000000 1.663770 
# 
# From -- ./inp_files/47078.got.cif
#   From: 2010.05.17/outbox.cif.g08.bks.cpg/sg70_24_cif.got.tgz:47078.got - 2010.06.03 15:57:51.
