data_PCOD9514115
_publ_section_title
;
Structure prediction by ZEFSAII (Michael W. Deem and Ramdas Pophale) SiO2 
 PCOD9514115
Probable space group: F D D D
;
_chemical_formula_sum "Si O2"
_cell_formula_units_Z 208
_cell_length_a 23.476686
_cell_length_b 15.277588
_cell_length_c 23.778950
_cell_angle_alpha 90.000000
_cell_angle_beta 90.000000
_cell_angle_gamma 90.000000
_cell_volume 8528.727901
_symmetry_space_group_name_H-M "F D D D"
_symmetry_group_IT_number 70
_space_group.IT_coordinate_system_code '2'
_symmetry_cell_setting 'orthorhombic'
loop_
_space_group_symop_operation_xyz
x,y,z
1/4-x,1/4-y,z
x,1/4-y,1/4-z
1/4-x,y,1/4-z
-x,-y,-z
3/4+x,3/4+y,-z
-x,3/4+y,3/4+z
3/4+x,-y,3/4+z
x,1/2+y,1/2+z
1/4-x,3/4-y,1/2+z
x,3/4-y,3/4-z
1/4-x,1/2+y,3/4-z
-x,1/2-y,1/2-z
3/4+x,1/4+y,1/2-z
-x,1/4+y,1/4+z
3/4+x,1/2-y,1/4+z
1/2+x,y,1/2+z
3/4-x,1/4-y,1/2+z
1/2+x,1/4-y,3/4-z
3/4-x,y,3/4-z
1/2-x,-y,1/2-z
1/4+x,3/4+y,1/2-z
1/2-x,3/4+y,1/4+z
1/4+x,-y,1/4+z
1/2+x,1/2+y,z
3/4-x,3/4-y,z
1/2+x,3/4-y,1/4-z
3/4-x,1/2+y,1/4-z
1/2-x,1/2-y,-z
1/4+x,1/4+y,-z
1/2-x,1/4+y,3/4+z
1/4+x,1/2-y,3/4+z
loop_
_atom_site_type_symbol
_atom_site_label
_atom_site_fract_x
_atom_site_fract_y
_atom_site_fract_z
Si Si1 0.782198 0.125000 0.125000
Si Si2 0.510643 0.072253 0.394612
Si Si3 0.169571 0.436526 0.735439
Si Si4 0.186860 0.654599 0.031808
Si Si5 0.079909 0.529840 0.804437
Si Si6 0.666306 0.426113 0.671706
Si Si7 0.974665 0.013329 0.216526
O O1 0.738393 0.149224 0.075475
O O2 0.819226 0.203142 0.150191
O O3 0.473538 0.038140 0.447283
O O4 0.563559 0.131274 0.413378
O O5 0.470556 0.142625 0.361878
O O6 0.519448 0.995489 0.350105
O O7 0.139396 0.507768 0.774072
O O8 0.119413 0.405517 0.693670
O O9 0.187248 0.347268 0.767277
O O10 0.125000 0.625000 0.053312
O O11 0.180213 0.759488 0.026611
O O12 0.199325 0.581947 0.984610
O O13 0.031404 0.523117 0.754948
O O14 0.625000 0.469453 0.625000
#
# Coordination Sequence:
#
# PCOD9514115 Si02
#       7
#    16  32  32  32  32  32  32
#     4  10  19  28  44  74 110 152 198 233 278 356
#     4  10  20  35  52  80 118 159 199 243 297 366
#     4  10  20  35  52  78 117 161 196 243 300 362
#     4  11  18  27  45  71 111 159 194 226 275 359
#     4  10  20  33  51  77 116 161 200 237 296 370
#     4  10  17  29  46  68 107 159 190 219 275 350
#     4  10  21  32  50  79 116 161 202 238 292 371
#
# _framework density 24.388162000000001
#
# number of rings (size 3 to 8) (size 9 to 14) (size 15 to 20)
#    0.000    1.846    4.615    1.154    0.000    1.846 
#    0.000    0.000    0.000    0.000    0.000    1.077 
#    9.231    0.000    0.000    0.000    0.000    0.000 
#
# Total GULP energy -290572.919322 kJ/mol
# GULP energy per Si atom -5587.940756 kJ/mol
# Density = 2.433265 g / cm^3
# Si number density = 24.388162 Si / 1000 Ang^3
#
#
#
# Elastic Constant Matrix: (Units=GPa)
#
#
# Indices 1 2 3 4 5 6 
#
# 1 93.7782 30.0799 49.0650 0.0000 0.0000 0.0000
# 2 30.0799 37.2775 50.5394 0.0000 0.0000 0.0000
# 3 49.0650 50.5394 120.6062 0.0000 0.0000 0.0000
# 4 0.0000 0.0000 0.0000 60.2184 0.0000 0.0000
# 5 0.0000 0.0000 0.0000 0.0000 27.5810 0.0000
# 6 0.0000 0.0000 0.0000 0.0000 0.0000 21.1335
#
#
#
# Elastic Compliance Matrix: (Units=1/GPa)
#
#
# Indices 1 2 3 4 5 6 
#
# 1 0.014665 -0.008672 -0.002332 0.000000 0.000000 0.000000
# 2 -0.008672 0.067243 -0.024650 0.000000 0.000000 0.000000
# 3 -0.002332 -0.024650 0.019570 0.000000 0.000000 0.000000
# 4 0.000000 0.000000 0.000000 0.016606 0.000000 0.000000
# 5 0.000000 0.000000 0.000000 0.000000 0.036257 0.000000
# 6 0.000000 0.000000 0.000000 0.000000 0.000000 0.047318
#
#
# Mechanical properties :
#
#
# Convention : Reuss Voigt Hill
#
# Bulk Modulus (GPa) = 33.14563 56.78117 44.96340
# Shear Modulus (GPa) = 17.66642 29.91842 23.79242
#
# Velocity S-wave (km/s) = 2.69436 3.50631 3.12680
# Velocity P-wave (km/s) = 4.82699 6.30279 5.61360
#
# Compressibility (1/GPa) = 0.03016989
#
# Stress axis : x y z
#
# Youngs Moduli (GPa) = 68.18873 14.87154 51.09940
#
# Poissons Ratio (x) = 0.12896 0.11918
# Poissons Ratio (y) = 0.59130 1.25959
# Poissons Ratio (z) = 0.15904 0.36658
#
# Static dielectric constant tensor:
#      x y z
#    x 1.960050 0.000000 0.000000 
#    y 0.000000 1.972730 0.000000 
#    z 0.000000 0.000000 2.004210 
# 
# From -- ./inp_files/61258.got.cif
#   From: 2010.05.17/outbox.cif.g08.bks.cpg/sg70_31_cif.got.tgz:61258.got - 2010.06.03 15:57:51.
