data_PCOD9514174
_publ_section_title
;
Structure prediction by ZEFSAII (Michael W. Deem and Ramdas Pophale) SiO2 
 PCOD9514174
Probable space group: F D D D
;
_chemical_formula_sum "Si O2"
_cell_formula_units_Z 160
_cell_length_a 25.431148
_cell_length_b 12.288500
_cell_length_c 26.113054
_cell_angle_alpha 90.000000
_cell_angle_beta 90.000000
_cell_angle_gamma 90.000000
_cell_volume 8160.607798
_symmetry_space_group_name_H-M "F D D D"
_symmetry_group_IT_number 70
_space_group.IT_coordinate_system_code '2'
_symmetry_cell_setting 'orthorhombic'
loop_
_space_group_symop_operation_xyz
x,y,z
1/4-x,1/4-y,z
x,1/4-y,1/4-z
1/4-x,y,1/4-z
-x,-y,-z
3/4+x,3/4+y,-z
-x,3/4+y,3/4+z
3/4+x,-y,3/4+z
x,1/2+y,1/2+z
1/4-x,3/4-y,1/2+z
x,3/4-y,3/4-z
1/4-x,1/2+y,3/4-z
-x,1/2-y,1/2-z
3/4+x,1/4+y,1/2-z
-x,1/4+y,1/4+z
3/4+x,1/2-y,1/4+z
1/2+x,y,1/2+z
3/4-x,1/4-y,1/2+z
1/2+x,1/4-y,3/4-z
3/4-x,y,3/4-z
1/2-x,-y,1/2-z
1/4+x,3/4+y,1/2-z
1/2-x,3/4+y,1/4+z
1/4+x,-y,1/4+z
1/2+x,1/2+y,z
3/4-x,3/4-y,z
1/2+x,3/4-y,1/4-z
3/4-x,1/2+y,1/4-z
1/2-x,1/2-y,-z
1/4+x,1/4+y,-z
1/2-x,1/4+y,3/4+z
1/4+x,1/2-y,3/4+z
loop_
_atom_site_type_symbol
_atom_site_label
_atom_site_fract_x
_atom_site_fract_y
_atom_site_fract_z
Si Si1 0.268075 0.459433 0.162363
Si Si2 0.875000 0.375000 0.875000
Si Si3 0.125000 0.125000 0.457346
Si Si4 0.875000 0.875000 0.875000
Si Si5 0.829857 0.695396 0.805397
Si Si6 0.726903 0.296973 0.797262
Si Si7 0.085825 0.778788 0.040123
O O1 0.320523 0.393461 0.178092
O O2 0.216036 0.386349 0.173372
O O3 0.263304 0.573270 0.194096
O O4 0.278118 0.495342 0.103616
O O5 0.910065 0.301671 0.911369
O O6 0.120118 0.228111 0.494821
O O7 0.837351 0.801541 0.839369
O O8 0.817533 0.715521 0.745557
O O9 0.886793 0.637734 0.807506
O O10 0.776265 0.231958 0.773534
#
# Coordination Sequence:
#
# PCOD9514174 Si02
#       7
#    32   8  16   8  32  32  32
#     4  11  22  40  66 102 136 162 212 270 330 384
#     4  10  18  28  56  96 122 148 202 254 324 368
#     4  11  20  36  64 102 132 164 200 273 334 380
#     4  12  30  46  64  88 130 182 234 256 312 378
#     4  12  24  45  64  92 128 175 218 272 309 389
#     4  11  22  38  68 100 129 167 209 269 336 385
#     4  11  20  36  64  93 125 163 211 269 323 377
#
# _framework density 19.606383000000001
#
# number of rings (size 3 to 8) (size 9 to 14) (size 15 to 20)
#    0.000    0.800    4.000    7.200    0.000    0.800 
#    0.000    8.000    0.000    0.000    0.000    0.000 
#    0.000    0.000    0.000    0.000    0.000    0.000 
#
# Total GULP energy -223253.700197 kJ/mol
# GULP energy per Si atom -5581.342505 kJ/mol
# Density = 1.956176 g / cm^3
# Si number density = 19.606383 Si / 1000 Ang^3
#
#
#
# Elastic Constant Matrix: (Units=GPa)
#
#
# Indices 1 2 3 4 5 6 
#
# 1 79.5398 32.3651 18.0343 0.0000 0.0000 0.0000
# 2 32.3651 88.3520 42.1213 0.0000 0.0000 0.0000
# 3 18.0343 42.1213 102.4956 0.0000 0.0000 0.0000
# 4 0.0000 0.0000 0.0000 28.9660 0.0000 0.0000
# 5 0.0000 0.0000 0.0000 0.0000 31.5500 0.0000
# 6 0.0000 0.0000 0.0000 0.0000 0.0000 22.2292
#
#
#
# Elastic Compliance Matrix: (Units=1/GPa)
#
#
# Indices 1 2 3 4 5 6 
#
# 1 0.014793 -0.005196 -0.000467 0.000000 0.000000 0.000000
# 2 -0.005196 0.015901 -0.005621 0.000000 0.000000 0.000000
# 3 -0.000467 -0.005621 0.012149 0.000000 0.000000 0.000000
# 4 0.000000 0.000000 0.000000 0.034523 0.000000 0.000000
# 5 0.000000 0.000000 0.000000 0.000000 0.031696 0.000000
# 6 0.000000 0.000000 0.000000 0.000000 0.000000 0.044986
#
#
# Mechanical properties :
#
#
# Convention : Reuss Voigt Hill
#
# Bulk Modulus (GPa) = 49.32292 50.60321 49.96306
# Shear Modulus (GPa) = 27.26678 28.40681 27.83679
#
# Velocity S-wave (km/s) = 3.73327 3.81051 3.77209
# Velocity P-wave (km/s) = 6.61772 6.72500 6.67157
#
# Compressibility (1/GPa) = 0.02027455
#
# Stress axis : x y z
#
# Youngs Moduli (GPa) = 67.60154 62.88805 82.31429
#
# Poissons Ratio (x) = 0.32676 0.03848
# Poissons Ratio (y) = 0.35125 0.46265
# Poissons Ratio (z) = 0.03160 0.35346
#
# Static dielectric constant tensor:
#      x y z
#    x 1.752270 0.000000 0.000000 
#    y 0.000000 1.691490 0.000000 
#    z 0.000000 0.000000 1.732810 
# 
# From -- ./inp_files/67753.got.cif
#   From: 2010.05.17/outbox.cif.g08.bks.cpg/sg70_34_cif.got.tgz:67753.got - 2010.06.03 15:57:51.
