data_PCOD9514549
_publ_section_title
;
Structure prediction by ZEFSAII (Michael W. Deem and Ramdas Pophale) SiO2 
 PCOD9514549
Probable space group: F D D D
;
_chemical_formula_sum "Si O2"
_cell_formula_units_Z 144
_cell_length_a 13.969705
_cell_length_b 20.552268
_cell_length_c 21.181648
_cell_angle_alpha 90.000000
_cell_angle_beta 90.000000
_cell_angle_gamma 90.000000
_cell_volume 6081.444339
_symmetry_space_group_name_H-M "F D D D"
_symmetry_group_IT_number 70
_space_group.IT_coordinate_system_code '2'
_symmetry_cell_setting 'orthorhombic'
loop_
_space_group_symop_operation_xyz
x,y,z
1/4-x,1/4-y,z
x,1/4-y,1/4-z
1/4-x,y,1/4-z
-x,-y,-z
3/4+x,3/4+y,-z
-x,3/4+y,3/4+z
3/4+x,-y,3/4+z
x,1/2+y,1/2+z
1/4-x,3/4-y,1/2+z
x,3/4-y,3/4-z
1/4-x,1/2+y,3/4-z
-x,1/2-y,1/2-z
3/4+x,1/4+y,1/2-z
-x,1/4+y,1/4+z
3/4+x,1/2-y,1/4+z
1/2+x,y,1/2+z
3/4-x,1/4-y,1/2+z
1/2+x,1/4-y,3/4-z
3/4-x,y,3/4-z
1/2-x,-y,1/2-z
1/4+x,3/4+y,1/2-z
1/2-x,3/4+y,1/4+z
1/4+x,-y,1/4+z
1/2+x,1/2+y,z
3/4-x,3/4-y,z
1/2+x,3/4-y,1/4-z
3/4-x,1/2+y,1/4-z
1/2-x,1/2-y,-z
1/4+x,1/4+y,-z
1/2-x,1/4+y,3/4+z
1/4+x,1/2-y,3/4+z
loop_
_atom_site_type_symbol
_atom_site_label
_atom_site_fract_x
_atom_site_fract_y
_atom_site_fract_z
Si Si1 0.125000 0.489903 0.125000
Si Si2 0.247961 0.591056 0.192566
Si Si3 0.020881 0.379434 0.568832
Si Si4 0.484576 0.685426 0.442975
Si Si5 0.273344 0.085571 0.060590
O O1 0.179690 0.529013 0.180865
O O2 0.203793 0.443155 0.093113
O O3 0.235063 0.625000 0.125000
O O4 0.361103 0.576962 0.196753
O O5 0.227088 0.608319 0.000933
O O6 0.123793 0.414217 0.560993
O O7 0.968565 0.415345 0.625906
O O8 0.983026 0.375968 0.498527
O O9 0.486406 0.762536 0.445675
O O10 0.255251 0.125000 0.125000
#
# Coordination Sequence:
#
# PCOD9514549 Si02
#       5
#    16  32  32  32  32
#     4  10  19  36  58  82 121 160 190 232 306 364
#     4  10  20  34  57  87 118 155 194 241 295 360
#     4   9  21  38  57  84 119 154 197 256 295 347
#     4   9  19  38  59  82 118 158 200 246 299 352
#     4  10  21  37  58  84 117 154 199 251 302 355
#
# _framework density 23.678585999999999
#
# number of rings (size 3 to 8) (size 9 to 14) (size 15 to 20)
#    0.000    2.667    0.000    1.667    0.000    8.889 
#    0.000   13.333    0.000    5.333    0.000    0.000 
#    0.000    0.000    0.000    0.000    0.000    0.000 
#
# Total GULP energy -201000.274808 kJ/mol
# GULP energy per Si atom -5583.340967 kJ/mol
# Density = 2.362469 g / cm^3
# Si number density = 23.678586 Si / 1000 Ang^3
#
#
#
# Elastic Constant Matrix: (Units=GPa)
#
#
# Indices 1 2 3 4 5 6 
#
# 1 73.2339 12.3262 -1.1872 0.0000 0.0000 0.0000
# 2 12.3262 111.5198 63.4224 0.0000 0.0000 0.0000
# 3 -1.1872 63.4224 224.4250 0.0000 0.0000 0.0000
# 4 0.0000 0.0000 0.0000 -23.4981 0.0000 0.0000
# 5 0.0000 0.0000 0.0000 0.0000 -19.5852 0.0000
# 6 0.0000 0.0000 0.0000 0.0000 0.0000 -7.1504
#
#
#
# Elastic Compliance Matrix: (Units=1/GPa)
#
#
# Indices 1 2 3 4 5 6 
#
# 1 0.013983 -0.001892 0.000609 0.000000 0.000000 0.000000
# 2 -0.001892 0.010940 -0.003102 0.000000 0.000000 0.000000
# 3 0.000609 -0.003102 0.005336 0.000000 0.000000 0.000000
# 4 0.000000 0.000000 0.000000 -0.042557 0.000000 0.000000
# 5 0.000000 0.000000 0.000000 0.000000 -0.051059 0.000000
# 6 0.000000 0.000000 0.000000 0.000000 0.000000 -0.139852
#
#
# Mechanical properties :
#
#
# Convention : Reuss Voigt Hill
#
# Bulk Modulus (GPa) = 46.53487 62.03350 54.28418
# Shear Modulus (GPa) = -26.69850 12.26108 -7.21871
#
# Velocity S-wave (km/s) = -3.36153 2.27802 -1.74793
# Velocity P-wave (km/s) = 2.15149 5.75970 4.34759
#
# Compressibility (1/GPa) = 0.02148926
#
# Stress axis : x y z
#
# Youngs Moduli (GPa) = 71.51477 91.40737 187.42121
#
# Poissons Ratio (x) = 0.17291 -0.11405
# Poissons Ratio (y) = 0.13528 0.58132
# Poissons Ratio (z) = -0.04352 0.28351
#
# Static dielectric constant tensor:
#      x y z
#    x 1.952280 0.000000 0.000000 
#    y 0.000000 1.953130 0.000000 
#    z 0.000000 0.000000 1.980250 
# 
# From -- ./inp_files/34916.got.cif
#   From: 2010.05.17/outbox.cif.g08.bks.cpg/sg70_18_cif.got.tgz:34916.got - 2010.06.03 15:57:51.
