data_PCOD9514804
_publ_section_title
;
Structure prediction by ZEFSAII (Michael W. Deem and Ramdas Pophale) SiO2 
 PCOD9514804
Probable space group: F D D D
;
_chemical_formula_sum "Si O2"
_cell_formula_units_Z 232
_cell_length_a 16.565673
_cell_length_b 29.787540
_cell_length_c 24.524368
_cell_angle_alpha 90.000000
_cell_angle_beta 90.000000
_cell_angle_gamma 90.000000
_cell_volume 12101.565260
_symmetry_space_group_name_H-M "F D D D"
_symmetry_group_IT_number 70
_space_group.IT_coordinate_system_code '2'
_symmetry_cell_setting 'orthorhombic'
loop_
_space_group_symop_operation_xyz
x,y,z
1/4-x,1/4-y,z
x,1/4-y,1/4-z
1/4-x,y,1/4-z
-x,-y,-z
3/4+x,3/4+y,-z
-x,3/4+y,3/4+z
3/4+x,-y,3/4+z
x,1/2+y,1/2+z
1/4-x,3/4-y,1/2+z
x,3/4-y,3/4-z
1/4-x,1/2+y,3/4-z
-x,1/2-y,1/2-z
3/4+x,1/4+y,1/2-z
-x,1/4+y,1/4+z
3/4+x,1/2-y,1/4+z
1/2+x,y,1/2+z
3/4-x,1/4-y,1/2+z
1/2+x,1/4-y,3/4-z
3/4-x,y,3/4-z
1/2-x,-y,1/2-z
1/4+x,3/4+y,1/2-z
1/2-x,3/4+y,1/4+z
1/4+x,-y,1/4+z
1/2+x,1/2+y,z
3/4-x,3/4-y,z
1/2+x,3/4-y,1/4-z
3/4-x,1/2+y,1/4-z
1/2-x,1/2-y,-z
1/4+x,1/4+y,-z
1/2-x,1/4+y,3/4+z
1/4+x,1/2-y,3/4+z
loop_
_atom_site_type_symbol
_atom_site_label
_atom_site_fract_x
_atom_site_fract_y
_atom_site_fract_z
Si Si1 0.413867 0.921175 0.580975
Si Si2 0.600185 0.830567 0.339525
Si Si3 0.758017 0.454561 0.533093
Si Si4 0.927846 0.108561 0.964981
Si Si5 0.291584 0.282160 0.845121
Si Si6 0.262448 0.179472 0.817822
Si Si7 0.625000 0.125000 0.125000
Si Si8 0.227728 0.552481 0.057015
O O1 0.375000 0.875000 0.559805
O O2 0.344003 0.955403 0.564919
O O3 0.501604 0.925443 0.554039
O O4 0.438648 0.915452 0.643772
O O5 0.610512 0.875000 0.375000
O O6 0.581189 0.847489 0.278625
O O7 0.530623 0.801159 0.367668
O O8 0.684839 0.805311 0.335271
O O9 0.708889 0.409073 0.545005
O O10 0.779681 0.453017 0.468195
O O11 0.708991 0.499173 0.551087
O O12 0.843387 0.100174 0.934541
O O13 0.375000 0.295526 0.875000
O O14 0.287369 0.228548 0.839464
O O15 0.235007 0.182705 0.755656
O O16 0.674700 0.089686 0.087755
#
# Coordination Sequence:
#
# PCOD9514804 Si02
#       8
#    32  32  32  32  32  32   8  32
#     4  10  20  35  56  82 124 159 197 242 299 369
#     4  11  20  37  61  88 126 163 205 255 313 359
#     4  10  21  39  57  94 128 159 207 257 310 377
#     4  10  20  37  60  88 128 169 202 248 309 375
#     4  11  21  34  61  93 129 165 206 245 301 385
#     4  10  22  39  59  86 120 162 206 251 313 371
#     4  12  24  48  68  84 114 148 228 268 334 368
#     4  10  24  41  67  87 114 158 209 272 318 374
#
# _framework density 19.171074000000001
#
# number of rings (size 3 to 8) (size 9 to 14) (size 15 to 20)
#    0.000    1.655    2.069    2.897    0.966    0.276 
#    4.966    5.517    0.000    5.793    0.000    0.000 
#    0.000    0.000    0.000    0.000    0.000    0.000 
#
# Total GULP energy -323220.724168 kJ/mol
# GULP energy per Si atom -5572.771106 kJ/mol
# Density = 1.912744 g / cm^3
# Si number density = 19.171074 Si / 1000 Ang^3
#
#
#
# Elastic Constant Matrix: (Units=GPa)
#
#
# Indices 1 2 3 4 5 6 
#
# 1 82.3775 50.8871 44.1452 0.0000 0.0000 0.0000
# 2 50.8871 110.2062 39.8470 0.0000 0.0000 0.0000
# 3 44.1452 39.8470 102.3748 0.0000 0.0000 0.0000
# 4 0.0000 0.0000 0.0000 28.3364 0.0000 0.0000
# 5 0.0000 0.0000 0.0000 0.0000 30.1942 0.0000
# 6 0.0000 0.0000 0.0000 0.0000 0.0000 248.7825
#
#
#
# Elastic Compliance Matrix: (Units=1/GPa)
#
#
# Indices 1 2 3 4 5 6 
#
# 1 0.019476 -0.006932 -0.005700 0.000000 0.000000 0.000000
# 2 -0.006932 0.013027 -0.002081 0.000000 0.000000 0.000000
# 3 -0.005700 -0.002081 0.013036 0.000000 0.000000 0.000000
# 4 0.000000 0.000000 0.000000 0.035290 0.000000 0.000000
# 5 0.000000 0.000000 0.000000 0.000000 0.033119 0.000000
# 6 0.000000 0.000000 0.000000 0.000000 0.000000 0.004020
#
#
# Mechanical properties :
#
#
# Convention : Reuss Voigt Hill
#
# Bulk Modulus (GPa) = 62.06429 62.74635 62.40532
# Shear Modulus (GPa) = 32.72977 72.13456 52.43216
#
# Velocity S-wave (km/s) = 4.13637 6.14072 5.23536
# Velocity P-wave (km/s) = 7.43350 9.11475 8.31672
#
# Compressibility (1/GPa) = 0.01611232
#
# Stress axis : x y z
#
# Youngs Moduli (GPa) = 51.34529 76.76210 76.70966
#
# Poissons Ratio (x) = 0.53211 0.43726
# Poissons Ratio (y) = 0.35592 0.15967
# Poissons Ratio (z) = 0.29268 0.15977
#
# Static dielectric constant tensor:
#      x y z
#    x 1.693690 0.000000 0.000000 
#    y 0.000000 1.691630 0.000000 
#    z 0.000000 0.000000 1.712040 
# 
# From -- ./inp_files/52453.got.cif
#   From: 2010.05.17/outbox.cif.g08.bks.cpg/sg70_27_cif.got.tgz:52453.got - 2010.06.03 15:57:51.
