data_PCOD9514110
_publ_section_title
;
Structure prediction by ZEFSAII (Michael W. Deem and Ramdas Pophale) SiO2 
 PCOD9514110
Probable space group: F D D D
;
_chemical_formula_sum "Si O2"
_cell_formula_units_Z 192
_cell_length_a 30.946884
_cell_length_b 27.302019
_cell_length_c 13.440795
_cell_angle_alpha 90.000000
_cell_angle_beta 90.000000
_cell_angle_gamma 90.000000
_cell_volume 11356.294562
_symmetry_space_group_name_H-M "F D D D"
_symmetry_group_IT_number 70
_space_group.IT_coordinate_system_code '2'
_symmetry_cell_setting 'orthorhombic'
loop_
_space_group_symop_operation_xyz
x,y,z
1/4-x,1/4-y,z
x,1/4-y,1/4-z
1/4-x,y,1/4-z
-x,-y,-z
3/4+x,3/4+y,-z
-x,3/4+y,3/4+z
3/4+x,-y,3/4+z
x,1/2+y,1/2+z
1/4-x,3/4-y,1/2+z
x,3/4-y,3/4-z
1/4-x,1/2+y,3/4-z
-x,1/2-y,1/2-z
3/4+x,1/4+y,1/2-z
-x,1/4+y,1/4+z
3/4+x,1/2-y,1/4+z
1/2+x,y,1/2+z
3/4-x,1/4-y,1/2+z
1/2+x,1/4-y,3/4-z
3/4-x,y,3/4-z
1/2-x,-y,1/2-z
1/4+x,3/4+y,1/2-z
1/2-x,3/4+y,1/4+z
1/4+x,-y,1/4+z
1/2+x,1/2+y,z
3/4-x,3/4-y,z
1/2+x,3/4-y,1/4-z
3/4-x,1/2+y,1/4-z
1/2-x,1/2-y,-z
1/4+x,1/4+y,-z
1/2-x,1/4+y,3/4+z
1/4+x,1/2-y,3/4+z
loop_
_atom_site_type_symbol
_atom_site_label
_atom_site_fract_x
_atom_site_fract_y
_atom_site_fract_z
Si Si1 0.233946 0.096364 0.767037
Si Si2 0.981191 0.060869 0.691601
Si Si3 0.855738 0.197060 0.683700
Si Si4 0.221669 0.964165 0.572946
Si Si5 0.863457 0.093585 0.989279
Si Si6 0.592201 0.220673 0.209259
O O1 0.234407 0.154131 0.747482
O O2 0.262279 0.074015 0.674976
O O3 0.256796 0.080362 0.868253
O O4 0.187493 0.070986 0.756773
O O5 0.934751 0.076779 0.731780
O O6 0.992447 0.004356 0.704989
O O7 0.808480 0.199293 0.731812
O O8 0.856501 0.185525 0.567186
O O9 0.880026 0.151023 0.735734
O O10 0.881349 0.246263 0.712963
O O11 0.190094 0.992697 0.650185
O O12 0.875000 0.085227 0.875000
O O13 0.625000 0.201445 0.125000
#
# Coordination Sequence:
#
# PCOD9514110 Si02
#       6
#    32  32  32  32  32  32
#     4  10  17  28  46  69  97 131 161 194 245 303
#     4  10  19  30  46  71  99 129 164 200 246 308
#     4  10  19  31  47  71  96 123 160 202 247 299
#     4  10  18  30  47  68  98 129 158 200 249 295
#     4  11  20  32  50  70  93 124 162 205 247 296
#     4   9  16  27  44  66  95 125 154 191 237 293
#
# _framework density 16.906924
#
# number of rings (size 3 to 8) (size 9 to 14) (size 15 to 20)
#    0.000    2.000    0.000    9.500    0.000    0.000 
#    0.000   15.000    0.000    0.000    0.000    0.000 
#    0.000    5.333    0.000    0.000    0.000    0.000 
#
# Total GULP energy -267860.966401 kJ/mol
# GULP energy per Si atom -5580.436800 kJ/mol
# Density = 1.686844 g / cm^3
# Si number density = 16.906924 Si / 1000 Ang^3
#
#
#
# Elastic Constant Matrix: (Units=GPa)
#
#
# Indices 1 2 3 4 5 6 
#
# 1 45.5738 11.7598 24.9824 0.0000 0.0000 0.0000
# 2 11.7598 48.1756 31.6529 0.0000 0.0000 0.0000
# 3 24.9824 31.6529 101.9756 0.0000 0.0000 0.0000
# 4 0.0000 0.0000 0.0000 16.6484 0.0000 0.0000
# 5 0.0000 0.0000 0.0000 0.0000 18.5239 0.0000
# 6 0.0000 0.0000 0.0000 0.0000 0.0000 14.4582
#
#
#
# Elastic Compliance Matrix: (Units=1/GPa)
#
#
# Indices 1 2 3 4 5 6 
#
# 1 0.025618 -0.002675 -0.005446 0.000000 0.000000 0.000000
# 2 -0.002675 0.026355 -0.007525 0.000000 0.000000 0.000000
# 3 -0.005446 -0.007525 0.013476 0.000000 0.000000 0.000000
# 4 0.000000 0.000000 0.000000 0.060066 0.000000 0.000000
# 5 0.000000 0.000000 0.000000 0.000000 0.053984 0.000000
# 6 0.000000 0.000000 0.000000 0.000000 0.000000 0.069165
#
#
# Mechanical properties :
#
#
# Convention : Reuss Voigt Hill
#
# Bulk Modulus (GPa) = 29.27688 36.94613 33.11150
# Shear Modulus (GPa) = 17.16201 18.41476 17.78838
#
# Velocity S-wave (km/s) = 3.18950 3.30386 3.24718
# Velocity P-wave (km/s) = 5.56039 6.03772 5.80397
#
# Compressibility (1/GPa) = 0.03415665
#
# Stress axis : x y z
#
# Youngs Moduli (GPa) = 39.03520 37.94407 74.20573
#
# Poissons Ratio (x) = 0.10152 0.40409
# Poissons Ratio (y) = 0.10444 0.55839
# Poissons Ratio (z) = 0.21257 0.28553
#
# Static dielectric constant tensor:
#      x y z
#    x 1.601500 0.000000 0.000000 
#    y 0.000000 1.588090 0.000000 
#    z 0.000000 0.000000 1.564910 
# 
# From -- ./inp_files/31291.got.cif
#   From: 2010.05.17/outbox.cif.g08.bks.cpg/sg70_16_cif.got.tgz:31291.got - 2010.06.03 15:57:51.
