data_PCOD9514137
_publ_section_title
;
Structure prediction by ZEFSAII (Michael W. Deem and Ramdas Pophale) SiO2 
 PCOD9514137
Probable space group: F D D D
;
_chemical_formula_sum "Si O2"
_cell_formula_units_Z 112
_cell_length_a 11.518617
_cell_length_b 27.018285
_cell_length_c 14.038578
_cell_angle_alpha 90.000000
_cell_angle_beta 90.000000
_cell_angle_gamma 90.000000
_cell_volume 4368.991863
_symmetry_space_group_name_H-M "F D D D"
_symmetry_group_IT_number 70
_space_group.IT_coordinate_system_code '2'
_symmetry_cell_setting 'orthorhombic'
loop_
_space_group_symop_operation_xyz
x,y,z
1/4-x,1/4-y,z
x,1/4-y,1/4-z
1/4-x,y,1/4-z
-x,-y,-z
3/4+x,3/4+y,-z
-x,3/4+y,3/4+z
3/4+x,-y,3/4+z
x,1/2+y,1/2+z
1/4-x,3/4-y,1/2+z
x,3/4-y,3/4-z
1/4-x,1/2+y,3/4-z
-x,1/2-y,1/2-z
3/4+x,1/4+y,1/2-z
-x,1/4+y,1/4+z
3/4+x,1/2-y,1/4+z
1/2+x,y,1/2+z
3/4-x,1/4-y,1/2+z
1/2+x,1/4-y,3/4-z
3/4-x,y,3/4-z
1/2-x,-y,1/2-z
1/4+x,3/4+y,1/2-z
1/2-x,3/4+y,1/4+z
1/4+x,-y,1/4+z
1/2+x,1/2+y,z
3/4-x,3/4-y,z
1/2+x,3/4-y,1/4-z
3/4-x,1/2+y,1/4-z
1/2-x,1/2-y,-z
1/4+x,1/4+y,-z
1/2-x,1/4+y,3/4+z
1/4+x,1/2-y,3/4+z
loop_
_atom_site_type_symbol
_atom_site_label
_atom_site_fract_x
_atom_site_fract_y
_atom_site_fract_z
Si Si1 0.049673 0.862141 0.475208
Si Si2 0.806846 0.704521 0.290845
Si Si3 0.750896 0.213161 0.589207
Si Si4 0.875000 0.875000 0.629076
O O1 0.993043 0.875000 0.375000
O O2 0.100635 0.912750 0.515194
O O3 0.158427 0.827714 0.447575
O O4 0.965239 0.846926 0.559611
O O5 0.875000 0.733344 0.375000
O O6 0.791794 0.733906 0.192338
O O7 0.694465 0.669673 0.317270
O O8 0.625000 0.193945 0.625000
O O9 0.750000 0.250000 0.500000
#
# Coordination Sequence:
#
# PCOD9514137 Si02
#       4
#    32  32  32  16
#     4   9  19  36  61  96 129 166 218 282 341 396
#     4   9  19  36  61  91 122 161 218 282 336 388
#     4  11  24  40  59  89 132 181 224 268 331 411
#     4  10  17  32  65 100 126 158 215 290 349 394
#
# _framework density 25.635204000000002
#
# number of rings (size 3 to 8) (size 9 to 14) (size 15 to 20)
#    0.000    2.286    0.000    2.143    0.000    9.714 
#    0.000    1.429    0.000    3.429    0.000    0.000 
#    0.000    0.000    0.000    0.000    0.000    0.000 
#
# Total GULP energy -156082.879149 kJ/mol
# GULP energy per Si atom -5574.388541 kJ/mol
# Density = 2.557686 g / cm^3
# Si number density = 25.635204 Si / 1000 Ang^3
#
#
#
# Elastic Constant Matrix: (Units=GPa)
#
#
# Indices 1 2 3 4 5 6 
#
# 1 123.7323 27.6402 54.2985 0.0000 0.0000 0.0000
# 2 27.6402 70.7701 37.5806 0.0000 0.0000 0.0000
# 3 54.2985 37.5806 220.4865 0.0000 0.0000 0.0000
# 4 0.0000 0.0000 0.0000 21.8173 0.0000 0.0000
# 5 0.0000 0.0000 0.0000 0.0000 -2.2235 0.0000
# 6 0.0000 0.0000 0.0000 0.0000 0.0000 4.0199
#
#
#
# Elastic Compliance Matrix: (Units=1/GPa)
#
#
# Indices 1 2 3 4 5 6 
#
# 1 0.009514 -0.002718 -0.001880 0.000000 0.000000 0.000000
# 2 -0.002718 0.016313 -0.002111 0.000000 0.000000 0.000000
# 3 -0.001880 -0.002111 0.005358 0.000000 0.000000 0.000000
# 4 0.000000 0.000000 0.000000 0.045835 0.000000 0.000000
# 5 0.000000 0.000000 0.000000 0.000000 -0.449736 0.000000
# 6 0.000000 0.000000 0.000000 0.000000 0.000000 0.248764
#
#
# Mechanical properties :
#
#
# Convention : Reuss Voigt Hill
#
# Bulk Modulus (GPa) = 56.28151 72.66971 64.47561
# Shear Modulus (GPa) = -47.79566 24.42070 -11.68748
#
# Velocity S-wave (km/s) = -4.32262 3.08981 -2.13753
# Velocity P-wave (km/s) = 1.70614 6.41392 4.37193
#
# Compressibility (1/GPa) = 0.01776783
#
# Stress axis : x y z
#
# Youngs Moduli (GPa) = 105.10876 61.30184 186.63038
#
# Poissons Ratio (x) = 0.16659 0.35082
# Poissons Ratio (y) = 0.28564 0.39401
# Poissons Ratio (z) = 0.19758 0.12942
#
# Static dielectric constant tensor:
#      x y z
#    x 2.151730 0.000000 0.000000 
#    y 0.000000 1.992500 0.000000 
#    z 0.000000 0.000000 2.172330 
# 
# From -- ./inp_files/24461.got.cif
#   From: 2010.05.17/outbox.cif.g08.bks.cpg/sg70_13_cif.got.tgz:24461.got - 2010.06.03 15:57:51.
