data_PCOD9514868
_publ_section_title
;
Structure prediction by ZEFSAII (Michael W. Deem and Ramdas Pophale) SiO2 
 PCOD9514868
Probable space group: F D D D
;
_chemical_formula_sum "Si O2"
_cell_formula_units_Z 216
_cell_length_a 28.731085
_cell_length_b 20.398295
_cell_length_c 19.503068
_cell_angle_alpha 90.000000
_cell_angle_beta 90.000000
_cell_angle_gamma 90.000000
_cell_volume 11430.068424
_symmetry_space_group_name_H-M "F D D D"
_symmetry_group_IT_number 70
_space_group.IT_coordinate_system_code '2'
_symmetry_cell_setting 'orthorhombic'
loop_
_space_group_symop_operation_xyz
x,y,z
1/4-x,1/4-y,z
x,1/4-y,1/4-z
1/4-x,y,1/4-z
-x,-y,-z
3/4+x,3/4+y,-z
-x,3/4+y,3/4+z
3/4+x,-y,3/4+z
x,1/2+y,1/2+z
1/4-x,3/4-y,1/2+z
x,3/4-y,3/4-z
1/4-x,1/2+y,3/4-z
-x,1/2-y,1/2-z
3/4+x,1/4+y,1/2-z
-x,1/4+y,1/4+z
3/4+x,1/2-y,1/4+z
1/2+x,y,1/2+z
3/4-x,1/4-y,1/2+z
1/2+x,1/4-y,3/4-z
3/4-x,y,3/4-z
1/2-x,-y,1/2-z
1/4+x,3/4+y,1/2-z
1/2-x,3/4+y,1/4+z
1/4+x,-y,1/4+z
1/2+x,1/2+y,z
3/4-x,3/4-y,z
1/2+x,3/4-y,1/4-z
3/4-x,1/2+y,1/4-z
1/2-x,1/2-y,-z
1/4+x,1/4+y,-z
1/2-x,1/4+y,3/4+z
1/4+x,1/2-y,3/4+z
loop_
_atom_site_type_symbol
_atom_site_label
_atom_site_fract_x
_atom_site_fract_y
_atom_site_fract_z
Si Si1 0.902395 0.222070 0.570352
Si Si2 0.449277 0.979511 0.415867
Si Si3 0.835302 0.097689 0.926917
Si Si4 0.001514 0.576101 0.982615
Si Si5 0.225531 0.375000 0.375000
Si Si6 0.322195 0.358870 0.635896
Si Si7 0.625000 0.125000 0.625000
Si Si8 0.699737 0.753556 0.927316
O O1 0.898707 0.181383 0.500030
O O2 0.940500 0.186096 0.616580
O O3 0.921257 0.296744 0.562905
O O4 0.850278 0.223935 0.601035
O O5 0.410735 0.922285 0.415359
O O6 0.448732 0.011549 0.490879
O O7 0.435024 0.034140 0.361514
O O8 0.503265 0.962409 0.401051
O O9 0.875000 0.123003 0.875000
O O10 0.795332 0.149628 0.944364
O O11 0.003649 0.615479 0.054727
O O12 0.000000 0.500000 0.000000
O O13 0.043289 0.589383 0.930692
O O14 0.375000 0.375000 0.616203
O O15 0.298865 0.424705 0.665622
#
# Coordination Sequence:
#
# PCOD9514868 Si02
#       8
#    32  32  32  32  16  32   8  32
#     4  10  20  36  62  87 120 163 212 252 319 379
#     4  11  22  35  54  88 125 167 197 249 303 378
#     4  11  21  39  63  92 127 168 204 259 319 389
#     4  11  22  43  66  91 124 162 220 267 324 383
#     4  10  22  37  67  86 112 165 211 266 316 378
#     4  10  21  37  63  91 120 167 204 266 321 383
#     4  12  24  34  56  84 128 168 206 236 308 384
#     4  10  21  36  56  85 124 157 204 251 309 377
#
# _framework density 18.897524000000001
#
# number of rings (size 3 to 8) (size 9 to 14) (size 15 to 20)
#    0.000    1.481    5.185    0.000    5.185    0.593 
#    0.000    1.852    6.519    0.000    0.000    0.000 
#    0.000    0.000    0.000    0.000    0.000    0.000 
#
# Total GULP energy -301044.657911 kJ/mol
# GULP energy per Si atom -5574.901072 kJ/mol
# Density = 1.885451 g / cm^3
# Si number density = 18.897524 Si / 1000 Ang^3
#
#
#
# Elastic Constant Matrix: (Units=GPa)
#
#
# Indices 1 2 3 4 5 6 
#
# 1 94.7147 42.5150 15.9053 0.0000 0.0000 0.0000
# 2 42.5150 80.2962 8.7385 0.0000 0.0000 0.0000
# 3 15.9053 8.7385 50.9060 0.0000 0.0000 0.0000
# 4 0.0000 0.0000 0.0000 20.1654 0.0000 0.0000
# 5 0.0000 0.0000 0.0000 0.0000 24.3402 0.0000
# 6 0.0000 0.0000 0.0000 0.0000 0.0000 34.0558
#
#
#
# Elastic Compliance Matrix: (Units=1/GPa)
#
#
# Indices 1 2 3 4 5 6 
#
# 1 0.014356 -0.007248 -0.003241 0.000000 0.000000 0.000000
# 2 -0.007248 0.016351 -0.000542 0.000000 0.000000 0.000000
# 3 -0.003241 -0.000542 0.020750 0.000000 0.000000 0.000000
# 4 0.000000 0.000000 0.000000 0.049590 0.000000 0.000000
# 5 0.000000 0.000000 0.000000 0.000000 0.041084 0.000000
# 6 0.000000 0.000000 0.000000 0.000000 0.000000 0.029364
#
#
# Mechanical properties :
#
#
# Convention : Reuss Voigt Hill
#
# Bulk Modulus (GPa) = 34.02142 40.02604 37.02373
# Shear Modulus (GPa) = 24.58751 26.29615 25.44183
#
# Velocity S-wave (km/s) = 3.61099 3.73435 3.67318
# Velocity P-wave (km/s) = 5.95213 6.31034 6.13385
#
# Compressibility (1/GPa) = 0.02939325
#
# Stress axis : x y z
#
# Youngs Moduli (GPa) = 69.65756 61.15925 48.19324
#
# Poissons Ratio (x) = 0.44331 0.15620
# Poissons Ratio (y) = 0.50491 0.02612
# Poissons Ratio (z) = 0.22577 0.03315
#
# Static dielectric constant tensor:
#      x y z
#    x 1.701250 0.000000 0.000000 
#    y 0.000000 1.685930 0.000000 
#    z 0.000000 0.000000 1.650250 
# 
# From -- ./inp_files/45257.got.cif
#   From: 2010.05.17/outbox.cif.g08.bks.cpg/sg70_23_cif.got.tgz:45257.got - 2010.06.03 15:57:51.
