data_PCOD9514384
_publ_section_title
;
Structure prediction by ZEFSAII (Michael W. Deem and Ramdas Pophale) SiO2 
 PCOD9514384
Probable space group: F D D D
;
_chemical_formula_sum "Si O2"
_cell_formula_units_Z 176
_cell_length_a 31.800722
_cell_length_b 9.066489
_cell_length_c 23.623028
_cell_angle_alpha 90.000000
_cell_angle_beta 90.000000
_cell_angle_gamma 90.000000
_cell_volume 6811.012604
_symmetry_space_group_name_H-M "F D D D"
_symmetry_group_IT_number 70
_space_group.IT_coordinate_system_code '2'
_symmetry_cell_setting 'orthorhombic'
loop_
_space_group_symop_operation_xyz
x,y,z
1/4-x,1/4-y,z
x,1/4-y,1/4-z
1/4-x,y,1/4-z
-x,-y,-z
3/4+x,3/4+y,-z
-x,3/4+y,3/4+z
3/4+x,-y,3/4+z
x,1/2+y,1/2+z
1/4-x,3/4-y,1/2+z
x,3/4-y,3/4-z
1/4-x,1/2+y,3/4-z
-x,1/2-y,1/2-z
3/4+x,1/4+y,1/2-z
-x,1/4+y,1/4+z
3/4+x,1/2-y,1/4+z
1/2+x,y,1/2+z
3/4-x,1/4-y,1/2+z
1/2+x,1/4-y,3/4-z
3/4-x,y,3/4-z
1/2-x,-y,1/2-z
1/4+x,3/4+y,1/2-z
1/2-x,3/4+y,1/4+z
1/4+x,-y,1/4+z
1/2+x,1/2+y,z
3/4-x,3/4-y,z
1/2+x,3/4-y,1/4-z
3/4-x,1/2+y,1/4-z
1/2-x,1/2-y,-z
1/4+x,1/4+y,-z
1/2-x,1/4+y,3/4+z
1/4+x,1/2-y,3/4+z
loop_
_atom_site_type_symbol
_atom_site_label
_atom_site_fract_x
_atom_site_fract_y
_atom_site_fract_z
Si Si1 0.511823 0.875000 0.875000
Si Si2 0.802333 0.695788 0.329167
Si Si3 0.960058 0.589077 0.715128
Si Si4 0.802651 0.211020 0.303950
Si Si5 0.674875 0.013651 0.299790
Si Si6 0.625000 0.625000 0.125000
Si Si7 0.101068 0.875000 0.875000
Si Si8 0.625000 0.625000 0.625000
O O1 0.483441 0.818610 0.926147
O O2 0.541701 0.996927 0.900094
O O3 0.797669 0.590819 0.276619
O O4 0.792231 0.635549 0.390722
O O5 0.847031 0.771732 0.335998
O O6 0.935380 0.429934 0.720283
O O7 0.933839 0.685472 0.669871
O O8 0.009113 0.552062 0.705379
O O9 0.816024 0.106219 0.250589
O O10 0.843329 0.293509 0.331058
O O11 0.632530 0.967750 0.334395
#
# Coordination Sequence:
#
# PCOD9514384 Si02
#       8
#    16  32  32  32  32   8  16   8
#     4  10  18  41  69 115 134 185 245 309 368 424
#     4  11  23  39  74 110 140 186 250 312 367 431
#     4  12  25  48  76 111 149 196 256 317 367 459
#     4  12  26  51  75 107 150 201 252 301 386 456
#     4  11  23  47  75 108 151 194 250 311 370 450
#     4  12  32  52  70 108 162 200 240 316 386 468
#     4  11  29  43  68 114 158 194 244 315 395 433
#     4  10  22  34  64 112 150 168 238 318 362 416
#
# _framework density 25.840503999999999
#
# number of rings (size 3 to 8) (size 9 to 14) (size 15 to 20)
#    0.000    0.727    3.636    4.364    7.636    0.000 
#    9.818    1.818    0.000    0.000    0.000    0.000 
#    0.000    0.000    0.000    0.000    0.000    0.000 
#
# Total GULP energy -245322.566192 kJ/mol
# GULP energy per Si atom -5575.512868 kJ/mol
# Density = 2.578169 g / cm^3
# Si number density = 25.840504 Si / 1000 Ang^3
#
#
#
# Elastic Constant Matrix: (Units=GPa)
#
#
# Indices 1 2 3 4 5 6 
#
# 1 212.2765 65.1876 74.4813 0.0000 0.0000 0.0000
# 2 65.1876 82.7637 37.4690 0.0000 0.0000 0.0000
# 3 74.4813 37.4690 156.5425 0.0000 0.0000 0.0000
# 4 0.0000 0.0000 0.0000 19.5357 0.0000 0.0000
# 5 0.0000 0.0000 0.0000 0.0000 -3.0855 0.0000
# 6 0.0000 0.0000 0.0000 0.0000 0.0000 26.9236
#
#
#
# Elastic Compliance Matrix: (Units=1/GPa)
#
#
# Indices 1 2 3 4 5 6 
#
# 1 0.006829 -0.004382 -0.002200 0.000000 0.000000 0.000000
# 2 -0.004382 0.016364 -0.001832 0.000000 0.000000 0.000000
# 3 -0.002200 -0.001832 0.007873 0.000000 0.000000 0.000000
# 4 0.000000 0.000000 0.000000 0.051188 0.000000 0.000000
# 5 0.000000 0.000000 0.000000 0.000000 -0.324101 0.000000
# 6 0.000000 0.000000 0.000000 0.000000 0.000000 0.037142
#
#
# Mechanical properties :
#
#
# Convention : Reuss Voigt Hill
#
# Bulk Modulus (GPa) = 70.23812 89.53984 79.88898
# Shear Modulus (GPa) = -27.30273 26.97109 -0.16582
#
# Velocity S-wave (km/s) = -3.25404 3.23422 -0.25359
# Velocity P-wave (km/s) = 3.62243 6.97661 5.55856
#
# Compressibility (1/GPa) = 0.01423728
#
# Stress axis : x y z
#
# Youngs Moduli (GPa) = 146.44442 61.11157 127.01366
#
# Poissons Ratio (x) = 0.26782 0.27943
# Poissons Ratio (y) = 0.64178 0.23263
# Poissons Ratio (z) = 0.32218 0.11193
#
# Static dielectric constant tensor:
#      x y z
#    x 2.083100 0.000000 0.000000 
#    y 0.000000 2.322120 0.000000 
#    z 0.000000 0.000000 1.916540 
# 
# From -- ./inp_files/55046.got.cif
#   From: 2010.05.17/outbox.cif.g08.bks.cpg/sg70_28_cif.got.tgz:55046.got - 2010.06.03 15:57:51.
