data_PCOD9514996
_publ_section_title
;
Structure prediction by ZEFSAII (Michael W. Deem and Ramdas Pophale) SiO2 
 PCOD9514996
Probable space group: F D D D
;
_chemical_formula_sum "Si O2"
_cell_formula_units_Z 176
_cell_length_a 28.983416
_cell_length_b 16.639355
_cell_length_c 17.658836
_cell_angle_alpha 90.000000
_cell_angle_beta 90.000000
_cell_angle_gamma 90.000000
_cell_volume 8516.244688
_symmetry_space_group_name_H-M "F D D D"
_symmetry_group_IT_number 70
_space_group.IT_coordinate_system_code '2'
_symmetry_cell_setting 'orthorhombic'
loop_
_space_group_symop_operation_xyz
x,y,z
1/4-x,1/4-y,z
x,1/4-y,1/4-z
1/4-x,y,1/4-z
-x,-y,-z
3/4+x,3/4+y,-z
-x,3/4+y,3/4+z
3/4+x,-y,3/4+z
x,1/2+y,1/2+z
1/4-x,3/4-y,1/2+z
x,3/4-y,3/4-z
1/4-x,1/2+y,3/4-z
-x,1/2-y,1/2-z
3/4+x,1/4+y,1/2-z
-x,1/4+y,1/4+z
3/4+x,1/2-y,1/4+z
1/2+x,y,1/2+z
3/4-x,1/4-y,1/2+z
1/2+x,1/4-y,3/4-z
3/4-x,y,3/4-z
1/2-x,-y,1/2-z
1/4+x,3/4+y,1/2-z
1/2-x,3/4+y,1/4+z
1/4+x,-y,1/4+z
1/2+x,1/2+y,z
3/4-x,3/4-y,z
1/2+x,3/4-y,1/4-z
3/4-x,1/2+y,1/4-z
1/2-x,1/2-y,-z
1/4+x,1/4+y,-z
1/2-x,1/4+y,3/4+z
1/4+x,1/2-y,3/4+z
loop_
_atom_site_type_symbol
_atom_site_label
_atom_site_fract_x
_atom_site_fract_y
_atom_site_fract_z
Si Si1 0.875000 0.875000 0.537152
Si Si2 0.965506 0.839159 0.959796
Si Si3 0.600998 0.279534 0.207194
Si Si4 0.295572 0.673538 0.344117
Si Si5 0.181016 0.865331 0.490923
Si Si6 0.807327 0.297558 0.594958
O O1 0.846084 0.810248 0.488572
O O2 0.842103 0.923917 0.592217
O O3 0.962760 0.875000 0.875000
O O4 0.943719 0.750493 0.957548
O O5 0.019855 0.838626 0.983868
O O6 0.941290 0.897210 0.019907
O O7 0.625000 0.271770 0.125000
O O8 0.557550 0.338780 0.194991
O O9 0.637022 0.327383 0.260832
O O10 0.321709 0.673044 0.424666
O O11 0.243217 0.688779 0.369852
O O12 0.184331 0.956584 0.318653
#
# Coordination Sequence:
#
# PCOD9514996 Si02
#       6
#    16  32  32  32  32  32
#     4  12  27  42  59  90 128 172 216 278 323 380
#     4  11  18  35  64  94 127 167 202 256 319 400
#     4  10  24  43  66  86 117 168 228 270 316 384
#     4  10  20  39  63  91 121 162 215 261 311 387
#     4  10  20  38  63  91 123 166 207 258 322 391
#     4  11  23  38  60  97 134 166 210 260 336 389
#
# _framework density 20.666387
#
# number of rings (size 3 to 8) (size 9 to 14) (size 15 to 20)
#    0.000    1.455    3.636    2.455    2.545    0.727 
#    0.000    0.455    0.000    0.000    0.000    0.000 
#    0.000    0.000    0.000    0.000    0.000    0.000 
#
# Total GULP energy -245733.567390 kJ/mol
# GULP energy per Si atom -5584.853804 kJ/mol
# Density = 2.061935 g / cm^3
# Si number density = 20.666387 Si / 1000 Ang^3
#
#
#
# Elastic Constant Matrix: (Units=GPa)
#
#
# Indices 1 2 3 4 5 6 
#
# 1 24.3002 26.8461 20.3633 0.0000 0.0000 0.0000
# 2 26.8461 146.0998 57.0853 0.0000 0.0000 0.0000
# 3 20.3633 57.0853 81.8530 0.0000 0.0000 0.0000
# 4 0.0000 0.0000 0.0000 14.9137 0.0000 0.0000
# 5 0.0000 0.0000 0.0000 0.0000 13.8918 0.0000
# 6 0.0000 0.0000 0.0000 0.0000 0.0000 22.1159
#
#
#
# Elastic Compliance Matrix: (Units=1/GPa)
#
#
# Indices 1 2 3 4 5 6 
#
# 1 0.056402 -0.006710 -0.009352 0.000000 0.000000 0.000000
# 2 -0.006710 0.010207 -0.005449 0.000000 0.000000 0.000000
# 3 -0.009352 -0.005449 0.018344 0.000000 0.000000 0.000000
# 4 0.000000 0.000000 0.000000 0.067053 0.000000 0.000000
# 5 0.000000 0.000000 0.000000 0.000000 0.071985 0.000000
# 6 0.000000 0.000000 0.000000 0.000000 0.000000 0.045216
#
#
# Mechanical properties :
#
#
# Convention : Reuss Voigt Hill
#
# Bulk Modulus (GPa) = 23.84900 51.20473 37.52687
# Shear Modulus (GPa) = 15.32780 20.04816 17.68798
#
# Velocity S-wave (km/s) = 2.72633 3.11800 2.92872
# Velocity P-wave (km/s) = 4.63417 6.14761 5.44374
#
# Compressibility (1/GPa) = 0.04193047
#
# Stress axis : x y z
#
# Youngs Moduli (GPa) = 17.72996 97.97536 54.51437
#
# Poissons Ratio (x) = 0.65740 0.50982
# Poissons Ratio (y) = 0.11896 0.29705
# Poissons Ratio (z) = 0.16581 0.53387
#
# Static dielectric constant tensor:
#      x y z
#    x 1.782770 0.000000 0.000000 
#    y 0.000000 1.800430 0.000000 
#    z 0.000000 0.000000 1.745470 
# 
# From -- ./inp_files/39651.got.cif
#   From: 2010.05.17/outbox.cif.g08.bks.cpg/sg70_20_cif.got.tgz:39651.got - 2010.06.03 15:57:51.
