data_PCOD9514872
_publ_section_title
;
Structure prediction by ZEFSAII (Michael W. Deem and Ramdas Pophale) SiO2 
 PCOD9514872
Probable space group: F D D D
;
_chemical_formula_sum "Si O2"
_cell_formula_units_Z 160
_cell_length_a 28.788465
_cell_length_b 27.081183
_cell_length_c 8.502191
_cell_angle_alpha 90.000000
_cell_angle_beta 90.000000
_cell_angle_gamma 90.000000
_cell_volume 6628.526516
_symmetry_space_group_name_H-M "F D D D"
_symmetry_group_IT_number 70
_space_group.IT_coordinate_system_code '2'
_symmetry_cell_setting 'orthorhombic'
loop_
_space_group_symop_operation_xyz
x,y,z
1/4-x,1/4-y,z
x,1/4-y,1/4-z
1/4-x,y,1/4-z
-x,-y,-z
3/4+x,3/4+y,-z
-x,3/4+y,3/4+z
3/4+x,-y,3/4+z
x,1/2+y,1/2+z
1/4-x,3/4-y,1/2+z
x,3/4-y,3/4-z
1/4-x,1/2+y,3/4-z
-x,1/2-y,1/2-z
3/4+x,1/4+y,1/2-z
-x,1/4+y,1/4+z
3/4+x,1/2-y,1/4+z
1/2+x,y,1/2+z
3/4-x,1/4-y,1/2+z
1/2+x,1/4-y,3/4-z
3/4-x,y,3/4-z
1/2-x,-y,1/2-z
1/4+x,3/4+y,1/2-z
1/2-x,3/4+y,1/4+z
1/4+x,-y,1/4+z
1/2+x,1/2+y,z
3/4-x,3/4-y,z
1/2+x,3/4-y,1/4-z
3/4-x,1/2+y,1/4-z
1/2-x,1/2-y,-z
1/4+x,1/4+y,-z
1/2-x,1/4+y,3/4+z
1/4+x,1/2-y,3/4+z
loop_
_atom_site_type_symbol
_atom_site_label
_atom_site_fract_x
_atom_site_fract_y
_atom_site_fract_z
Si Si1 0.060695 0.768419 0.343416
Si Si2 0.238530 0.875000 0.875000
Si Si3 0.375000 0.375000 0.375000
Si Si4 0.125000 0.625000 0.625000
Si Si5 0.443106 0.915984 0.633812
Si Si6 0.855003 0.177524 0.698608
Si Si7 0.771534 0.735550 0.245878
O O1 0.039761 0.824008 0.364825
O O2 0.115019 0.776968 0.371381
O O3 0.046382 0.752810 0.166438
O O4 0.032548 0.733702 0.462138
O O5 0.268390 0.870887 0.712681
O O6 0.405114 0.338701 0.479498
O O7 0.161880 0.654085 0.515893
O O8 0.467776 0.968741 0.632654
O O9 0.864534 0.125000 0.625000
O O10 0.800550 0.188995 0.689023
O O11 0.875000 0.175070 0.875000
#
# Coordination Sequence:
#
# PCOD9514872 Si02
#       7
#    32  16   8   8  32  32  32
#     4   9  17  33  60  93 121 153 211 273 317 372
#     4   9  16  33  60  86 119 158 204 265 316 377
#     4   8  16  26  48  82 102 146 182 250 292 362
#     4  10  20  38  52  86 124 174 206 252 324 402
#     4   9  18  32  55  81 120 154 205 249 317 372
#     4  10  20  36  62  90 125 170 209 264 325 384
#     4   9  19  33  57  91 119 154 214 266 308 376
#
# _framework density 24.138095
#
# number of rings (size 3 to 8) (size 9 to 14) (size 15 to 20)
#    0.000    2.800    1.000    0.000    4.200    0.000 
#    5.400    0.000    8.800    2.400    0.000    0.000 
#    0.000    0.000    0.000    0.000    0.000    0.000 
#
# Total GULP energy -223180.916234 kJ/mol
# GULP energy per Si atom -5579.522906 kJ/mol
# Density = 2.408316 g / cm^3
# Si number density = 24.138095 Si / 1000 Ang^3
#
#
#
# Elastic Constant Matrix: (Units=GPa)
#
#
# Indices 1 2 3 4 5 6 
#
# 1 80.9253 26.8235 26.5814 0.0058 -0.0024 -0.0042
# 2 26.8235 64.3230 25.8260 0.0119 -0.0055 -0.0021
# 3 26.5814 25.8260 67.7004 0.0216 0.0016 0.0286
# 4 0.0058 0.0119 0.0216 20.1752 -0.0001 0.0075
# 5 -0.0024 -0.0055 0.0016 -0.0001 41.4218 0.0110
# 6 -0.0042 -0.0021 0.0286 0.0075 0.0110 -38.5620
#
#
#
# Elastic Compliance Matrix: (Units=1/GPa)
#
#
# Indices 1 2 3 4 5 6 
#
# 1 0.015295 -0.004685 -0.004218 0.000003 0.000000 -0.000005
# 2 -0.004685 0.019793 -0.005711 -0.000004 0.000003 -0.000005
# 3 -0.004218 -0.005711 0.018606 -0.000015 -0.000002 0.000015
# 4 0.000003 -0.000004 -0.000015 0.049566 0.000000 0.000010
# 5 0.000000 0.000003 -0.000002 0.000000 0.024142 0.000007
# 6 -0.000005 -0.000005 0.000015 0.000010 0.000007 -0.025932
#
#
# Mechanical properties :
#
#
# Convention : Reuss Voigt Hill
#
# Bulk Modulus (GPa) = 40.87317 41.26783 41.07050
# Shear Modulus (GPa) = 36.00902 13.52152 24.76527
#
# Velocity S-wave (km/s) = 3.86656 2.36937 3.20657
# Velocity P-wave (km/s) = 6.07483 4.96174 5.54628
#
# Compressibility (1/GPa) = 0.02446593
#
# Stress axis : x y z
#
# Youngs Moduli (GPa) = 65.37879 50.52233 53.74629
#
# Poissons Ratio (x) = 0.23668 0.22672
# Poissons Ratio (y) = 0.30628 0.30696
# Poissons Ratio (z) = 0.27579 0.28855
#
# Static dielectric constant tensor:
#      x y z
#    x 2.016180 0.000000 0.000000 
#    y 0.000000 1.886640 -0.000010 
#    z 0.000000 -0.000010 1.963930 
# 
# From -- ./inp_files/12399.got.cif
#   From: 2010.05.17/outbox.cif.g08.bks.cpg/sg70_7_cif.got.tgz:12399.got - 2010.06.03 15:57:51.
