data_PCOD9514731
_publ_section_title
;
Structure prediction by ZEFSAII (Michael W. Deem and Ramdas Pophale) SiO2 
 PCOD9514731
Probable space group: F D D D
;
_chemical_formula_sum "Si O2"
_cell_formula_units_Z 128
_cell_length_a 5.060674
_cell_length_b 30.060522
_cell_length_c 29.870391
_cell_angle_alpha 90.000000
_cell_angle_beta 90.000000
_cell_angle_gamma 90.000000
_cell_volume 4544.078100
_symmetry_space_group_name_H-M "F D D D"
_symmetry_group_IT_number 70
_space_group.IT_coordinate_system_code '2'
_symmetry_cell_setting 'orthorhombic'
loop_
_space_group_symop_operation_xyz
x,y,z
1/4-x,1/4-y,z
x,1/4-y,1/4-z
1/4-x,y,1/4-z
-x,-y,-z
3/4+x,3/4+y,-z
-x,3/4+y,3/4+z
3/4+x,-y,3/4+z
x,1/2+y,1/2+z
1/4-x,3/4-y,1/2+z
x,3/4-y,3/4-z
1/4-x,1/2+y,3/4-z
-x,1/2-y,1/2-z
3/4+x,1/4+y,1/2-z
-x,1/4+y,1/4+z
3/4+x,1/2-y,1/4+z
1/2+x,y,1/2+z
3/4-x,1/4-y,1/2+z
1/2+x,1/4-y,3/4-z
3/4-x,y,3/4-z
1/2-x,-y,1/2-z
1/4+x,3/4+y,1/2-z
1/2-x,3/4+y,1/4+z
1/4+x,-y,1/4+z
1/2+x,1/2+y,z
3/4-x,3/4-y,z
1/2+x,3/4-y,1/4-z
3/4-x,1/2+y,1/4-z
1/2-x,1/2-y,-z
1/4+x,1/4+y,-z
1/2-x,1/4+y,3/4+z
1/4+x,1/2-y,3/4+z
loop_
_atom_site_type_symbol
_atom_site_label
_atom_site_fract_x
_atom_site_fract_y
_atom_site_fract_z
Si Si1 0.375000 0.875000 0.702461
Si Si2 0.861945 0.756811 0.676399
Si Si3 0.875000 0.875000 0.954743
Si Si4 0.125000 0.679951 0.625000
Si Si5 0.625000 0.326664 0.625000
Si Si6 0.502191 0.701365 0.499723
O O1 0.587204 0.893282 0.667999
O O2 0.278592 0.918348 0.729391
O O3 0.660225 0.736503 0.712693
O O4 0.924614 0.712608 0.649065
O O5 0.883667 0.794495 0.638612
O O6 0.096331 0.772759 0.710479
O O7 0.022749 0.845990 0.915737
O O8 0.697231 0.838675 0.981452
#
# Coordination Sequence:
#
# PCOD9514731 Si02
#       6
#    16  32  16  16  16  32
#     4  10  20  31  50  76 102 132 168 210 254 301
#     4   8  15  29  51  70  94 131 171 201 240 302
#     4   9  16  27  50  73  92 120 164 211 248 291
#     4   8  14  27  48  72  88 118 170 208 234 287
#     4   9  18  33  54  75 100 134 172 209 248 299
#     4   9  17  30  50  74  97 126 166 209 250 296
#
# _framework density 28.168530000000001
#
# number of rings (size 3 to 8) (size 9 to 14) (size 15 to 20)
#    0.000    3.250    0.000    0.000    0.000    4.000 
#    0.000    0.000    0.000   88.500    0.000    0.000 
#    0.000    0.000    0.000    0.000    0.000    0.000 
#
# Total GULP energy -178244.088799 kJ/mol
# GULP energy per Si atom -5570.127775 kJ/mol
# Density = 2.810442 g / cm^3
# Si number density = 28.168530 Si / 1000 Ang^3
#
#
#
# Elastic Constant Matrix: (Units=GPa)
#
#
# Indices 1 2 3 4 5 6 
#
# 1 71.9077 36.8200 31.0316 0.0000 0.0000 0.0000
# 2 36.8200 164.4978 60.2638 0.0000 0.0000 0.0000
# 3 31.0316 60.2638 137.6102 0.0000 0.0000 0.0000
# 4 0.0000 0.0000 0.0000 -2.7647 0.0000 0.0000
# 5 0.0000 0.0000 0.0000 0.0000 11.5074 0.0000
# 6 0.0000 0.0000 0.0000 0.0000 0.0000 18.3321
#
#
#
# Elastic Compliance Matrix: (Units=1/GPa)
#
#
# Indices 1 2 3 4 5 6 
#
# 1 0.016393 -0.002757 -0.002489 0.000000 0.000000 0.000000
# 2 -0.002757 0.007705 -0.002752 0.000000 0.000000 0.000000
# 3 -0.002489 -0.002752 0.009034 0.000000 0.000000 0.000000
# 4 0.000000 0.000000 0.000000 -0.361707 0.000000 0.000000
# 5 0.000000 0.000000 0.000000 0.000000 0.086900 0.000000
# 6 0.000000 0.000000 0.000000 0.000000 0.000000 0.054549
#
#
# Mechanical properties :
#
#
# Convention : Reuss Voigt Hill
#
# Bulk Modulus (GPa) = 58.36553 70.02738 64.19645
# Shear Modulus (GPa) = -30.22649 21.80832 -4.20908
#
# Velocity S-wave (km/s) = -3.27931 2.78548 -1.22372
# Velocity P-wave (km/s) = 2.53507 5.93796 4.56541
#
# Compressibility (1/GPa) = 0.01713340
#
# Stress axis : x y z
#
# Youngs Moduli (GPa) = 61.00250 129.79259 110.69893
#
# Poissons Ratio (x) = 0.35789 0.27554
# Poissons Ratio (y) = 0.16821 0.30468
# Poissons Ratio (z) = 0.15184 0.35723
#
# Static dielectric constant tensor:
#      x y z
#    x 7.611240 0.000000 0.000000 
#    y 0.000000 2.512330 0.000000 
#    z 0.000000 0.000000 2.420950 
# 
# From -- ./inp_files/12211.got.cif
#   From: 2010.05.17/outbox.cif.g08.bks.cpg/sg70_7_cif.got.tgz:12211.got - 2010.06.03 15:57:51.
