data_PCOD9514745
_publ_section_title
;
Structure prediction by ZEFSAII (Michael W. Deem and Ramdas Pophale) SiO2 
 PCOD9514745
Probable space group: F D D D
;
_chemical_formula_sum "Si O2"
_cell_formula_units_Z 240
_cell_length_a 27.229600
_cell_length_b 24.930381
_cell_length_c 12.864330
_cell_angle_alpha 90.000000
_cell_angle_beta 90.000000
_cell_angle_gamma 90.000000
_cell_volume 8732.877126
_symmetry_space_group_name_H-M "F D D D"
_symmetry_group_IT_number 70
_space_group.IT_coordinate_system_code '2'
_symmetry_cell_setting 'orthorhombic'
loop_
_space_group_symop_operation_xyz
x,y,z
1/4-x,1/4-y,z
x,1/4-y,1/4-z
1/4-x,y,1/4-z
-x,-y,-z
3/4+x,3/4+y,-z
-x,3/4+y,3/4+z
3/4+x,-y,3/4+z
x,1/2+y,1/2+z
1/4-x,3/4-y,1/2+z
x,3/4-y,3/4-z
1/4-x,1/2+y,3/4-z
-x,1/2-y,1/2-z
3/4+x,1/4+y,1/2-z
-x,1/4+y,1/4+z
3/4+x,1/2-y,1/4+z
1/2+x,y,1/2+z
3/4-x,1/4-y,1/2+z
1/2+x,1/4-y,3/4-z
3/4-x,y,3/4-z
1/2-x,-y,1/2-z
1/4+x,3/4+y,1/2-z
1/2-x,3/4+y,1/4+z
1/4+x,-y,1/4+z
1/2+x,1/2+y,z
3/4-x,3/4-y,z
1/2+x,3/4-y,1/4-z
3/4-x,1/2+y,1/4-z
1/2-x,1/2-y,-z
1/4+x,1/4+y,-z
1/2-x,1/4+y,3/4+z
1/4+x,1/2-y,3/4+z
loop_
_atom_site_type_symbol
_atom_site_label
_atom_site_fract_x
_atom_site_fract_y
_atom_site_fract_z
Si Si1 0.322886 0.401673 0.735530
Si Si2 0.486578 0.051249 0.188575
Si Si3 0.334365 0.625000 0.625000
Si Si4 0.640228 0.277695 0.916379
Si Si5 0.258457 0.186389 0.238937
Si Si6 0.441524 0.737797 0.263013
Si Si7 0.682410 0.370293 0.645873
Si Si8 0.910521 0.926235 0.251478
O O1 0.375000 0.375000 0.739845
O O2 0.284199 0.356175 0.757142
O O3 0.320999 0.453249 0.808519
O O4 0.315878 0.420118 0.614627
O O5 0.448485 0.030207 0.101437
O O6 0.458435 0.098838 0.249511
O O7 0.543158 0.068346 0.171197
O O8 0.493560 0.997627 0.257797
O O9 0.373871 0.661335 0.687942
O O10 0.292569 0.672189 0.640273
O O11 0.609221 0.266880 0.809543
O O12 0.621251 0.231214 0.993013
O O13 0.290027 0.170597 0.342543
O O14 0.500000 0.750000 0.250000
O O15 0.440897 0.681720 0.321813
O O16 0.625000 0.376798 0.625000
O O17 0.875000 0.875000 0.265205
#
# Coordination Sequence:
#
# PCOD9514745 Si02
#       8
#    32  32  16  32  32  32  32  32
#     4  10  20  33  51  76 119 162 204 257 303 374
#     4  12  23  38  64  91 119 175 217 261 339 397
#     4  12  22  38  57  88 127 162 214 274 320 386
#     4  11  22  38  58  90 124 169 215 267 331 397
#     4  12  23  37  57  87 120 169 217 262 330 386
#     4  11  18  33  51  75 117 163 207 257 314 373
#     4  12  23  38  56  83 121 165 211 270 316 392
#     4  10  20  38  62  89 125 168 215 270 320 392
#
# _framework density 27.482351000000001
#
# number of rings (size 3 to 8) (size 9 to 14) (size 15 to 20)
#    0.000    0.800    6.667    3.200    1.867    0.000 
#    0.000    0.333    0.000    2.400    0.000    0.000 
#    0.000    0.000    0.000    0.000    0.000    0.000 
#
# Total GULP energy -334630.818368 kJ/mol
# GULP energy per Si atom -5577.180306 kJ/mol
# Density = 2.741980 g / cm^3
# Si number density = 27.482351 Si / 1000 Ang^3
#
#
#
# Elastic Constant Matrix: (Units=GPa)
#
#
# Indices 1 2 3 4 5 6 
#
# 1 227.8800 68.5216 32.2619 0.0000 0.0000 0.0000
# 2 68.5216 158.8341 34.6231 0.0000 0.0000 0.0000
# 3 32.2619 34.6231 52.0442 0.0000 0.0000 0.0000
# 4 0.0000 0.0000 0.0000 22.6588 0.0000 0.0000
# 5 0.0000 0.0000 0.0000 0.0000 20.7093 0.0000
# 6 0.0000 0.0000 0.0000 0.0000 0.0000 59.3687
#
#
#
# Elastic Compliance Matrix: (Units=1/GPa)
#
#
# Indices 1 2 3 4 5 6 
#
# 1 0.005220 -0.001809 -0.002032 0.000000 0.000000 0.000000
# 2 -0.001809 0.007991 -0.004195 0.000000 0.000000 0.000000
# 3 -0.002032 -0.004195 0.023265 0.000000 0.000000 0.000000
# 4 0.000000 0.000000 0.000000 0.044133 0.000000 0.000000
# 5 0.000000 0.000000 0.000000 0.000000 0.048287 0.000000
# 6 0.000000 0.000000 0.000000 0.000000 0.000000 0.016844
#
#
# Mechanical properties :
#
#
# Convention : Reuss Voigt Hill
#
# Bulk Modulus (GPa) = 49.01088 78.84129 63.92608
# Shear Modulus (GPa) = 29.65379 40.77080 35.21229
#
# Velocity S-wave (km/s) = 3.28840 3.85584 3.58337
# Velocity P-wave (km/s) = 5.68246 6.96947 6.35861
#
# Compressibility (1/GPa) = 0.02040363
#
# Stress axis : x y z
#
# Youngs Moduli (GPa) = 191.57372 125.14774 42.98341
#
# Poissons Ratio (x) = 0.22637 0.08736
# Poissons Ratio (y) = 0.34653 0.18030
# Poissons Ratio (z) = 0.38936 0.52494
#
# Static dielectric constant tensor:
#      x y z
#    x 2.169950 0.000000 0.000000 
#    y 0.000000 2.154640 0.000000 
#    z 0.000000 0.000000 2.640710 
# 
# From -- ./inp_files/46155.got.cif
#   From: 2010.05.17/outbox.cif.g08.bks.cpg/sg70_24_cif.got.tgz:46155.got - 2010.06.03 15:57:51.
