data_PCOD9514154
_publ_section_title
;
Structure prediction by ZEFSAII (Michael W. Deem and Ramdas Pophale) SiO2 
 PCOD9514154
Probable space group: F D D D
;
_chemical_formula_sum "Si O2"
_cell_formula_units_Z 192
_cell_length_a 30.979457
_cell_length_b 24.881140
_cell_length_c 11.987466
_cell_angle_alpha 90.000000
_cell_angle_beta 90.000000
_cell_angle_gamma 90.000000
_cell_volume 9239.989221
_symmetry_space_group_name_H-M "F D D D"
_symmetry_group_IT_number 70
_space_group.IT_coordinate_system_code '2'
_symmetry_cell_setting 'orthorhombic'
loop_
_space_group_symop_operation_xyz
x,y,z
1/4-x,1/4-y,z
x,1/4-y,1/4-z
1/4-x,y,1/4-z
-x,-y,-z
3/4+x,3/4+y,-z
-x,3/4+y,3/4+z
3/4+x,-y,3/4+z
x,1/2+y,1/2+z
1/4-x,3/4-y,1/2+z
x,3/4-y,3/4-z
1/4-x,1/2+y,3/4-z
-x,1/2-y,1/2-z
3/4+x,1/4+y,1/2-z
-x,1/4+y,1/4+z
3/4+x,1/2-y,1/4+z
1/2+x,y,1/2+z
3/4-x,1/4-y,1/2+z
1/2+x,1/4-y,3/4-z
3/4-x,y,3/4-z
1/2-x,-y,1/2-z
1/4+x,3/4+y,1/2-z
1/2-x,3/4+y,1/4+z
1/4+x,-y,1/4+z
1/2+x,1/2+y,z
3/4-x,3/4-y,z
1/2+x,3/4-y,1/4-z
3/4-x,1/2+y,1/4-z
1/2-x,1/2-y,-z
1/4+x,1/4+y,-z
1/2-x,1/4+y,3/4+z
1/4+x,1/2-y,3/4+z
loop_
_atom_site_type_symbol
_atom_site_label
_atom_site_fract_x
_atom_site_fract_y
_atom_site_fract_z
Si Si1 0.260157 0.496858 0.560179
Si Si2 0.390602 0.148011 0.505751
Si Si3 0.625000 0.008386 0.625000
Si Si4 0.125000 0.125000 0.883223
Si Si5 0.198538 0.164241 0.222447
Si Si6 0.898056 0.976089 0.258245
Si Si7 0.801237 0.057178 0.772237
O O1 0.234303 0.542590 0.491663
O O2 0.299915 0.470929 0.495044
O O3 0.227285 0.454502 0.617655
O O4 0.279322 0.528221 0.667929
O O5 0.371373 0.125000 0.625000
O O6 0.375000 0.139712 0.375000
O O7 0.390349 0.211753 0.522277
O O8 0.437203 0.118766 0.499303
O O9 0.589446 0.047341 0.676361
O O10 0.597762 0.971238 0.541817
O O11 0.122597 0.068856 0.819471
O O12 0.171053 0.123311 0.946383
O O13 0.215078 0.125000 0.125000
O O14 0.875000 0.967556 0.375000
#
# Coordination Sequence:
#
# PCOD9514154 Si02
#       7
#    32  32  16  16  32  32  32
#     4  10  23  36  64 103 140 172 217 291 370 426
#     4  11  23  39  66  98 137 180 233 289 353 428
#     4  10  17  36  58  96 138 175 216 268 350 448
#     4  12  24  44  70  90 132 194 238 286 346 426
#     4  11  22  34  62 105 142 165 220 287 361 428
#     4  11  26  46  65  91 128 189 249 287 349 433
#     4  10  20  36  63  96 143 172 214 280 364 425
#
# _framework density 20.779245
#
# number of rings (size 3 to 8) (size 9 to 14) (size 15 to 20)
#    0.000    1.333    4.167    1.250    7.000    0.000 
#    0.000    0.833    0.000    6.000    0.000    0.000 
#    0.000    0.000    0.000    0.000    0.000    0.000 
#
# Total GULP energy -267454.354236 kJ/mol
# GULP energy per Si atom -5571.965713 kJ/mol
# Density = 2.073195 g / cm^3
# Si number density = 20.779245 Si / 1000 Ang^3
#
#
#
# Elastic Constant Matrix: (Units=GPa)
#
#
# Indices 1 2 3 4 5 6 
#
# 1 76.5861 12.7806 24.8012 0.0000 0.0000 0.0000
# 2 12.7806 98.6707 37.0547 0.0001 0.0000 -0.0001
# 3 24.8012 37.0547 96.8621 0.0002 -0.0001 -0.0003
# 4 0.0000 0.0001 0.0002 28.5664 0.0000 -0.0002
# 5 0.0000 0.0000 -0.0001 0.0000 31.7310 0.0001
# 6 0.0000 -0.0001 -0.0003 -0.0002 0.0001 -12.9430
#
#
#
# Elastic Compliance Matrix: (Units=1/GPa)
#
#
# Indices 1 2 3 4 5 6 
#
# 1 0.014264 -0.000556 -0.003440 0.000000 0.000000 0.000000
# 2 -0.000556 0.011857 -0.004393 0.000000 0.000000 0.000000
# 3 -0.003440 -0.004393 0.012885 0.000000 0.000000 0.000000
# 4 0.000000 0.000000 0.000000 0.035006 0.000000 -0.000001
# 5 0.000000 0.000000 0.000000 0.000000 0.031515 0.000000
# 6 0.000000 0.000000 0.000000 -0.000001 0.000000 -0.077262
#
#
# Mechanical properties :
#
#
# Convention : Reuss Voigt Hill
#
# Bulk Modulus (GPa) = 44.98815 46.82132 45.90474
# Shear Modulus (GPa) = 95.32455 22.63636 58.98045
#
# Velocity S-wave (km/s) = 6.78045 3.30415 5.33347
# Velocity P-wave (km/s) = 9.11026 6.09411 7.75032
#
# Compressibility (1/GPa) = 0.02222807
#
# Stress axis : x y z
#
# Youngs Moduli (GPa) = 70.10752 84.34101 77.60753
#
# Poissons Ratio (x) = 0.04688 0.26693
# Poissons Ratio (y) = 0.03897 0.34096
# Poissons Ratio (z) = 0.24114 0.37055
#
# Static dielectric constant tensor:
#      x y z
#    x 1.845260 0.000000 0.000000 
#    y 0.000000 1.816120 0.000000 
#    z 0.000000 0.000000 1.815500 
# 
# From -- ./inp_files/22484.got.cif
#   From: 2010.05.17/outbox.cif.g08.bks.cpg/sg70_12_cif.got.tgz:22484.got - 2010.06.03 15:57:51.
