data_PCOD9514052
_publ_section_title
;
Structure prediction by ZEFSAII (Michael W. Deem and Ramdas Pophale) SiO2 
 PCOD9514052
Probable space group: F D D D
;
_chemical_formula_sum "Si O2"
_cell_formula_units_Z 192
_cell_length_a 24.258782
_cell_length_b 15.657825
_cell_length_c 20.621082
_cell_angle_alpha 90.000000
_cell_angle_beta 90.000000
_cell_angle_gamma 90.000000
_cell_volume 7832.706905
_symmetry_space_group_name_H-M "F D D D"
_symmetry_group_IT_number 70
_space_group.IT_coordinate_system_code '2'
_symmetry_cell_setting 'orthorhombic'
loop_
_space_group_symop_operation_xyz
x,y,z
1/4-x,1/4-y,z
x,1/4-y,1/4-z
1/4-x,y,1/4-z
-x,-y,-z
3/4+x,3/4+y,-z
-x,3/4+y,3/4+z
3/4+x,-y,3/4+z
x,1/2+y,1/2+z
1/4-x,3/4-y,1/2+z
x,3/4-y,3/4-z
1/4-x,1/2+y,3/4-z
-x,1/2-y,1/2-z
3/4+x,1/4+y,1/2-z
-x,1/4+y,1/4+z
3/4+x,1/2-y,1/4+z
1/2+x,y,1/2+z
3/4-x,1/4-y,1/2+z
1/2+x,1/4-y,3/4-z
3/4-x,y,3/4-z
1/2-x,-y,1/2-z
1/4+x,3/4+y,1/2-z
1/2-x,3/4+y,1/4+z
1/4+x,-y,1/4+z
1/2+x,1/2+y,z
3/4-x,3/4-y,z
1/2+x,3/4-y,1/4-z
3/4-x,1/2+y,1/4-z
1/2-x,1/2-y,-z
1/4+x,1/4+y,-z
1/2-x,1/4+y,3/4+z
1/4+x,1/2-y,3/4+z
loop_
_atom_site_type_symbol
_atom_site_label
_atom_site_fract_x
_atom_site_fract_y
_atom_site_fract_z
Si Si1 0.913804 0.222078 0.127089
Si Si2 0.037312 0.875000 0.375000
Si Si3 0.273349 0.094472 0.763194
Si Si4 0.204696 0.676580 0.486399
Si Si5 0.721508 0.800525 0.651452
Si Si6 0.726185 0.625000 0.125000
Si Si7 0.912197 0.448059 0.751995
O O1 0.892347 0.125000 0.125000
O O2 0.908719 0.275201 0.193288
O O3 0.979510 0.202996 0.115493
O O4 0.888819 0.273323 0.067292
O O5 0.057714 0.869909 0.299810
O O6 0.999743 0.789174 0.381354
O O7 0.297719 0.094678 0.835202
O O8 0.220644 0.155961 0.763587
O O9 0.250000 0.000000 0.750000
O O10 0.250000 0.750000 0.500000
O O11 0.233794 0.606792 0.440323
O O12 0.193717 0.639030 0.558047
O O13 0.673089 0.776996 0.701191
O O14 0.875000 0.375000 0.782971
#
# Coordination Sequence:
#
# PCOD9514052 Si02
#       7
#    32  16  32  32  32  16  32
#     4   9  17  30  48  77 116 147 190 244 314 367
#     4   8  18  28  49  73  98 152 193 240 291 344
#     4   9  18  34  52  74 111 152 196 243 300 356
#     4  10  16  26  49  79 108 146 184 237 308 351
#     4  10  17  32  50  76 115 153 196 239 299 366
#     4   8  16  26  46  77 113 134 183 242 297 342
#     4  11  20  32  55  85 118 156 205 260 313 367
#
# _framework density 24.512598000000001
#
# number of rings (size 3 to 8) (size 9 to 14) (size 15 to 20)
#    0.500    2.000    3.333    0.000    0.000    0.000 
#    0.000   15.000   11.000    0.000    0.000    0.583 
#    0.000    0.000    0.000    1.500    0.000    0.000 
#
# Total GULP energy -267735.136632 kJ/mol
# GULP energy per Si atom -5577.815346 kJ/mol
# Density = 2.445681 g / cm^3
# Si number density = 24.512598 Si / 1000 Ang^3
#
#
#
# Elastic Constant Matrix: (Units=GPa)
#
#
# Indices 1 2 3 4 5 6 
#
# 1 36.3334 29.9099 31.1054 0.0000 0.0000 0.0000
# 2 29.9099 84.9049 45.5208 0.0000 0.0000 0.0000
# 3 31.1054 45.5208 241.5866 0.0000 0.0000 0.0000
# 4 0.0000 0.0000 0.0000 54.0134 0.0000 0.0000
# 5 0.0000 0.0000 0.0000 0.0000 1.5998 0.0000
# 6 0.0000 0.0000 0.0000 0.0000 0.0000 21.4501
#
#
#
# Elastic Compliance Matrix: (Units=1/GPa)
#
#
# Indices 1 2 3 4 5 6 
#
# 1 0.040402 -0.012730 -0.002803 0.000000 0.000000 0.000000
# 2 -0.012730 0.017112 -0.001585 0.000000 0.000000 0.000000
# 3 -0.002803 -0.001585 0.004799 0.000000 0.000000 0.000000
# 4 0.000000 0.000000 0.000000 0.018514 0.000000 0.000000
# 5 0.000000 0.000000 0.000000 0.000000 0.625071 0.000000
# 6 0.000000 0.000000 0.000000 0.000000 0.000000 0.046620
#
#
# Mechanical properties :
#
#
# Convention : Reuss Voigt Hill
#
# Bulk Modulus (GPa) = 35.61706 63.98857 49.80282
# Shear Modulus (GPa) = 6.28052 32.49859 19.38955
#
# Velocity S-wave (km/s) = 1.60241 3.64509 2.81553
# Velocity P-wave (km/s) = 4.24091 6.62394 5.56156
#
# Compressibility (1/GPa) = 0.02807643
#
# Stress axis : x y z
#
# Youngs Moduli (GPa) = 24.75129 58.43789 208.37808
#
# Poissons Ratio (x) = 0.74389 0.58416
# Poissons Ratio (y) = 0.31507 0.33035
# Poissons Ratio (z) = 0.06939 0.09264
#
# Static dielectric constant tensor:
#      x y z
#    x 4.058770 0.000000 0.000000 
#    y 0.000000 1.911230 0.000000 
#    z 0.000000 0.000000 2.000780 
# 
# From -- ./inp_files/55120.got.cif
#   From: 2010.05.17/outbox.cif.g08.bks.cpg/sg70_28_cif.got.tgz:55120.got - 2010.06.03 15:57:51.
