data_PCOD9514693
_publ_section_title
;
Structure prediction by ZEFSAII (Michael W. Deem and Ramdas Pophale) SiO2 
 PCOD9514693
Probable space group: F D D D
;
_chemical_formula_sum "Si O2"
_cell_formula_units_Z 120
_cell_length_a 6.982077
_cell_length_b 27.725186
_cell_length_c 26.860678
_cell_angle_alpha 90.000000
_cell_angle_beta 90.000000
_cell_angle_gamma 90.000000
_cell_volume 5199.673487
_symmetry_space_group_name_H-M "F D D D"
_symmetry_group_IT_number 70
_space_group.IT_coordinate_system_code '2'
_symmetry_cell_setting 'orthorhombic'
loop_
_space_group_symop_operation_xyz
x,y,z
1/4-x,1/4-y,z
x,1/4-y,1/4-z
1/4-x,y,1/4-z
-x,-y,-z
3/4+x,3/4+y,-z
-x,3/4+y,3/4+z
3/4+x,-y,3/4+z
x,1/2+y,1/2+z
1/4-x,3/4-y,1/2+z
x,3/4-y,3/4-z
1/4-x,1/2+y,3/4-z
-x,1/2-y,1/2-z
3/4+x,1/4+y,1/2-z
-x,1/4+y,1/4+z
3/4+x,1/2-y,1/4+z
1/2+x,y,1/2+z
3/4-x,1/4-y,1/2+z
1/2+x,1/4-y,3/4-z
3/4-x,y,3/4-z
1/2-x,-y,1/2-z
1/4+x,3/4+y,1/2-z
1/2-x,3/4+y,1/4+z
1/4+x,-y,1/4+z
1/2+x,1/2+y,z
3/4-x,3/4-y,z
1/2+x,3/4-y,1/4-z
3/4-x,1/2+y,1/4-z
1/2-x,1/2-y,-z
1/4+x,1/4+y,-z
1/2-x,1/4+y,3/4+z
1/4+x,1/2-y,3/4+z
loop_
_atom_site_type_symbol
_atom_site_label
_atom_site_fract_x
_atom_site_fract_y
_atom_site_fract_z
Si Si1 0.072527 0.569945 0.316420
Si Si2 0.875000 0.375000 0.875000
Si Si3 0.875000 0.375000 0.234671
Si Si4 0.196349 0.937090 0.961308
Si Si5 0.126543 0.708049 0.830559
O O1 0.125000 0.625000 0.328023
O O2 0.169501 0.539305 0.360549
O O3 0.097496 0.562012 0.257344
O O4 0.846656 0.557870 0.324341
O O5 0.762210 0.340317 0.837736
O O6 0.732506 0.405991 0.268439
O O7 0.771399 0.335776 0.198782
O O8 0.150228 0.991645 0.946865
#
# Coordination Sequence:
#
# PCOD9514693 Si02
#       5
#    32   8  16  32  32
#     4  10  19  40  69  97 138 168 221 290 329 395
#     4  12  28  48  60 100 144 184 228 296 348 390
#     4  10  20  42  72  94 132 178 228 280 340 416
#     4  11  25  45  66  98 140 181 230 282 347 411
#     4  10  22  40  71 102 130 179 230 272 346 415
#
# _framework density 23.078372000000002
#
# number of rings (size 3 to 8) (size 9 to 14) (size 15 to 20)
#    0.000    1.600    2.667    3.200    0.000    6.933 
#    9.600    2.667    0.000    0.000    0.000    0.000 
#    0.000    0.000    0.000    0.000    0.000    0.000 
#
# Total GULP energy -167599.025571 kJ/mol
# GULP energy per Si atom -5586.634186 kJ/mol
# Density = 2.302584 g / cm^3
# Si number density = 23.078372 Si / 1000 Ang^3
#
#
#
# Elastic Constant Matrix: (Units=GPa)
#
#
# Indices 1 2 3 4 5 6 
#
# 1 58.1354 35.4939 34.0532 0.0000 0.0000 0.0000
# 2 35.4939 203.6795 83.7416 0.0000 0.0000 0.0000
# 3 34.0532 83.7416 221.8283 0.0000 0.0000 0.0000
# 4 0.0000 0.0000 0.0000 47.4884 0.0000 0.0000
# 5 0.0000 0.0000 0.0000 0.0000 25.6432 0.0000
# 6 0.0000 0.0000 0.0000 0.0000 0.0000 21.9397
#
#
#
# Elastic Compliance Matrix: (Units=1/GPa)
#
#
# Indices 1 2 3 4 5 6 
#
# 1 0.020028 -0.002635 -0.002080 0.000000 0.000000 0.000000
# 2 -0.002635 0.006158 -0.001920 0.000000 0.000000 0.000000
# 3 -0.002080 -0.001920 0.005552 0.000000 0.000000 0.000000
# 4 0.000000 0.000000 0.000000 0.021058 0.000000 0.000000
# 5 0.000000 0.000000 0.000000 0.000000 0.038997 0.000000
# 6 0.000000 0.000000 0.000000 0.000000 0.000000 0.045580
#
#
# Mechanical properties :
#
#
# Convention : Reuss Voigt Hill
#
# Bulk Modulus (GPa) = 54.14638 87.80230 70.97434
# Shear Modulus (GPa) = 31.88787 41.03790 36.46288
#
# Velocity S-wave (km/s) = 3.72118 4.22144 3.97918
# Velocity P-wave (km/s) = 6.47888 7.86693 7.20640
#
# Compressibility (1/GPa) = 0.01846845
#
# Stress axis : x y z
#
# Youngs Moduli (GPa) = 49.92934 162.37972 180.10889
#
# Poissons Ratio (x) = 0.42789 0.37459
# Poissons Ratio (y) = 0.13157 0.34587
# Poissons Ratio (z) = 0.10384 0.31182
#
# Static dielectric constant tensor:
#      x y z
#    x 2.034830 0.000000 0.000000 
#    y 0.000000 1.813700 0.000000 
#    z 0.000000 0.000000 1.939900 
# 
# From -- ./inp_files/10727.got.cif
#   From: 2010.05.17/outbox.cif.g08.bks.cpg/sg70_6_cif.got.tgz:10727.got - 2010.06.03 15:57:51.
