data_PCOD9514588
_publ_section_title
;
Structure prediction by ZEFSAII (Michael W. Deem and Ramdas Pophale) SiO2 
 PCOD9514588
Probable space group: F D D D
;
_chemical_formula_sum "Si O2"
_cell_formula_units_Z 216
_cell_length_a 20.390210
_cell_length_b 22.781347
_cell_length_c 24.071150
_cell_angle_alpha 90.000000
_cell_angle_beta 90.000000
_cell_angle_gamma 90.000000
_cell_volume 11181.445131
_symmetry_space_group_name_H-M "F D D D"
_symmetry_group_IT_number 70
_space_group.IT_coordinate_system_code '2'
_symmetry_cell_setting 'orthorhombic'
loop_
_space_group_symop_operation_xyz
x,y,z
1/4-x,1/4-y,z
x,1/4-y,1/4-z
1/4-x,y,1/4-z
-x,-y,-z
3/4+x,3/4+y,-z
-x,3/4+y,3/4+z
3/4+x,-y,3/4+z
x,1/2+y,1/2+z
1/4-x,3/4-y,1/2+z
x,3/4-y,3/4-z
1/4-x,1/2+y,3/4-z
-x,1/2-y,1/2-z
3/4+x,1/4+y,1/2-z
-x,1/4+y,1/4+z
3/4+x,1/2-y,1/4+z
1/2+x,y,1/2+z
3/4-x,1/4-y,1/2+z
1/2+x,1/4-y,3/4-z
3/4-x,y,3/4-z
1/2-x,-y,1/2-z
1/4+x,3/4+y,1/2-z
1/2-x,3/4+y,1/4+z
1/4+x,-y,1/4+z
1/2+x,1/2+y,z
3/4-x,3/4-y,z
1/2+x,3/4-y,1/4-z
3/4-x,1/2+y,1/4-z
1/2-x,1/2-y,-z
1/4+x,1/4+y,-z
1/2-x,1/4+y,3/4+z
1/4+x,1/2-y,3/4+z
loop_
_atom_site_type_symbol
_atom_site_label
_atom_site_fract_x
_atom_site_fract_y
_atom_site_fract_z
Si Si1 0.251932 0.808113 0.854152
Si Si2 0.530751 0.518549 0.120425
Si Si3 0.610590 0.443330 0.856900
Si Si4 0.207691 0.002601 0.998008
Si Si5 0.125000 0.475416 0.125000
Si Si6 0.676040 0.831482 0.734733
Si Si7 0.625000 0.125000 0.625000
Si Si8 0.933152 0.532483 0.485010
O O1 0.260391 0.875000 0.875000
O O2 0.182389 0.784604 0.877124
O O3 0.241630 0.800014 0.787293
O O4 0.311655 0.768115 0.874764
O O5 0.453079 0.528816 0.113993
O O6 0.537392 0.503817 0.185289
O O7 0.571707 0.577333 0.102449
O O8 0.562448 0.469762 0.081985
O O9 0.609869 0.375000 0.875000
O O10 0.600909 0.448800 0.790703
O O11 0.129916 0.000300 0.990347
O O12 0.249180 0.058623 0.977640
O O13 0.115222 0.436524 0.180547
O O14 0.677224 0.899695 0.748799
O O15 0.000000 0.500000 0.500000
#
# Coordination Sequence:
#
# PCOD9514588 Si02
#       8
#    32  32  32  32  16  32   8  32
#     4  10  20  39  64  88 110 154 203 260 311 373
#     4  11  22  34  57  87 125 162 208 239 300 366
#     4  10  19  37  58  84 115 155 198 245 302 361
#     4  10  22  39  56  87 123 154 200 257 301 360
#     4  10  23  41  60  88 117 149 204 256 332 362
#     4  10  24  39  60  84 123 158 198 265 306 368
#     4  12  20  34  56  84 122 174 196 244 278 370
#     4  12  23  35  58  91 118 168 204 239 308 377
#
# _framework density 19.317717999999999
#
# number of rings (size 3 to 8) (size 9 to 14) (size 15 to 20)
#    0.000    1.481    2.222    3.778    4.148    1.185 
#    0.000    0.000    0.000    0.000    3.852    0.000 
#    0.000    0.000    0.000    0.000    0.000    0.000 
#
# Total GULP energy -300726.450823 kJ/mol
# GULP energy per Si atom -5569.008349 kJ/mol
# Density = 1.927375 g / cm^3
# Si number density = 19.317718 Si / 1000 Ang^3
#
#
#
# Elastic Constant Matrix: (Units=GPa)
#
#
# Indices 1 2 3 4 5 6 
#
# 1 171.1507 29.7175 38.0323 0.0000 0.0000 0.0000
# 2 29.7175 34.0911 21.2932 0.0000 0.0000 0.0000
# 3 38.0323 21.2932 100.7726 0.0000 0.0000 0.0000
# 4 0.0000 0.0000 0.0000 23.2292 0.0000 0.0000
# 5 0.0000 0.0000 0.0000 0.0000 33.0221 0.0000
# 6 0.0000 0.0000 0.0000 0.0000 0.0000 17.8114
#
#
#
# Elastic Compliance Matrix: (Units=1/GPa)
#
#
# Indices 1 2 3 4 5 6 
#
# 1 0.007097 -0.005200 -0.001580 0.000000 0.000000 0.000000
# 2 -0.005200 0.037603 -0.005983 0.000000 0.000000 0.000000
# 3 -0.001580 -0.005983 0.011784 0.000000 0.000000 0.000000
# 4 0.000000 0.000000 0.000000 0.043049 0.000000 0.000000
# 5 0.000000 0.000000 0.000000 0.000000 0.030283 0.000000
# 6 0.000000 0.000000 0.000000 0.000000 0.000000 0.056144
#
#
# Mechanical properties :
#
#
# Convention : Reuss Voigt Hill
#
# Bulk Modulus (GPa) = 32.30136 53.78894 43.04515
# Shear Modulus (GPa) = 22.54253 29.27729 25.90991
#
# Velocity S-wave (km/s) = 3.41975 3.89725 3.66628
# Velocity P-wave (km/s) = 5.68773 6.93947 6.34455
#
# Compressibility (1/GPa) = 0.03095845
#
# Stress axis : x y z
#
# Youngs Moduli (GPa) = 140.91157 26.59386 84.86279
#
# Poissons Ratio (x) = 0.13828 0.13405
# Poissons Ratio (y) = 0.73268 0.50774
# Poissons Ratio (z) = 0.22259 0.15911
#
# Static dielectric constant tensor:
#      x y z
#    x 1.703200 0.000000 0.000000 
#    y 0.000000 1.677710 0.000000 
#    z 0.000000 0.000000 1.797050 
# 
# From -- ./inp_files/60531.got.cif
#   From: 2010.05.17/outbox.cif.g08.bks.cpg/sg70_31_cif.got.tgz:60531.got - 2010.06.03 15:57:51.
