data_PCOD9514381
_publ_section_title
;
Structure prediction by ZEFSAII (Michael W. Deem and Ramdas Pophale) SiO2 
 PCOD9514381
Probable space group: F D D D
;
_chemical_formula_sum "Si O2"
_cell_formula_units_Z 160
_cell_length_a 29.492089
_cell_length_b 16.947211
_cell_length_c 11.878833
_cell_angle_alpha 90.000000
_cell_angle_beta 90.000000
_cell_angle_gamma 90.000000
_cell_volume 5937.143546
_symmetry_space_group_name_H-M "F D D D"
_symmetry_group_IT_number 70
_space_group.IT_coordinate_system_code '2'
_symmetry_cell_setting 'orthorhombic'
loop_
_space_group_symop_operation_xyz
x,y,z
1/4-x,1/4-y,z
x,1/4-y,1/4-z
1/4-x,y,1/4-z
-x,-y,-z
3/4+x,3/4+y,-z
-x,3/4+y,3/4+z
3/4+x,-y,3/4+z
x,1/2+y,1/2+z
1/4-x,3/4-y,1/2+z
x,3/4-y,3/4-z
1/4-x,1/2+y,3/4-z
-x,1/2-y,1/2-z
3/4+x,1/4+y,1/2-z
-x,1/4+y,1/4+z
3/4+x,1/2-y,1/4+z
1/2+x,y,1/2+z
3/4-x,1/4-y,1/2+z
1/2+x,1/4-y,3/4-z
3/4-x,y,3/4-z
1/2-x,-y,1/2-z
1/4+x,3/4+y,1/2-z
1/2-x,3/4+y,1/4+z
1/4+x,-y,1/4+z
1/2+x,1/2+y,z
3/4-x,3/4-y,z
1/2+x,3/4-y,1/4-z
3/4-x,1/2+y,1/4-z
1/2-x,1/2-y,-z
1/4+x,1/4+y,-z
1/2-x,1/4+y,3/4+z
1/4+x,1/2-y,3/4+z
loop_
_atom_site_type_symbol
_atom_site_label
_atom_site_fract_x
_atom_site_fract_y
_atom_site_fract_z
Si Si1 0.645320 0.009893 0.879256
Si Si2 0.437415 0.424324 0.485390
Si Si3 0.677006 0.379417 0.529927
Si Si4 0.473799 0.834888 0.260070
Si Si5 0.961725 0.146069 0.752943
O O1 0.795164 0.875000 0.875000
O O2 0.651572 0.936748 0.792733
O O3 0.681746 0.068311 0.822549
O O4 0.657432 0.963751 0.995269
O O5 0.421995 0.375000 0.375000
O O6 0.454516 0.513253 0.462109
O O7 0.400261 0.446905 0.580573
O O8 0.484844 0.380083 0.515899
O O9 0.731134 0.388673 0.505534
O O10 0.570612 0.352627 0.590908
O O11 0.500000 0.750000 0.250000
O O12 0.950020 0.125000 0.625000
#
# Coordination Sequence:
#
# PCOD9514381 Si02
#       5
#    32  32  32  32  32
#     4  10  22  43  82 114 157 215 277 349 418 511
#     4  10  24  50  76 118 165 221 277 359 435 502
#     4  10  21  43  78 117 155 219 276 342 416 505
#     4  10  18  40  73 113 159 214 271 337 431 500
#     4  10  24  48  81 114 166 223 286 344 431 530
#
# _framework density 26.948985
#
# number of rings (size 3 to 8) (size 9 to 14) (size 15 to 20)
#    0.000    2.000    4.000    0.000    2.800    5.600 
#    0.000   10.000    4.400    0.000    0.000    0.000 
#    0.000    0.000    0.000    0.000    0.000    0.000 
#
# Total GULP energy -222862.739355 kJ/mol
# GULP energy per Si atom -5571.568484 kJ/mol
# Density = 2.688765 g / cm^3
# Si number density = 26.948985 Si / 1000 Ang^3
#
#
#
# Elastic Constant Matrix: (Units=GPa)
#
#
# Indices 1 2 3 4 5 6 
#
# 1 189.9503 56.3120 102.2654 0.0000 0.0000 0.0000
# 2 56.3120 129.7389 75.8308 0.0000 0.0000 0.0000
# 3 102.2654 75.8308 224.0137 0.0000 0.0000 0.0000
# 4 0.0000 0.0000 0.0000 38.5278 0.0000 0.0000
# 5 0.0000 0.0000 0.0000 0.0000 100.2304 0.0000
# 6 0.0000 0.0000 0.0000 0.0000 0.0000 51.5212
#
#
#
# Elastic Compliance Matrix: (Units=1/GPa)
#
#
# Indices 1 2 3 4 5 6 
#
# 1 0.007208 -0.001502 -0.002782 0.000000 0.000000 0.000000
# 2 -0.001502 0.009922 -0.002673 0.000000 0.000000 0.000000
# 3 -0.002782 -0.002673 0.006639 0.000000 0.000000 0.000000
# 4 0.000000 0.000000 0.000000 0.025955 0.000000 0.000000
# 5 0.000000 0.000000 0.000000 0.000000 0.009977 0.000000
# 6 0.000000 0.000000 0.000000 0.000000 0.000000 0.019409
#
#
# Mechanical properties :
#
#
# Convention : Reuss Voigt Hill
#
# Bulk Modulus (GPa) = 101.47863 112.50215 106.99039
# Shear Modulus (GPa) = 51.91610 58.67551 55.29581
#
# Velocity S-wave (km/s) = 4.39391 4.67120 4.53467
# Velocity P-wave (km/s) = 7.96740 8.42202 8.19786
#
# Compressibility (1/GPa) = 0.00985429
#
# Stress axis : x y z
#
# Youngs Moduli (GPa) = 138.74233 100.78438 150.63164
#
# Poissons Ratio (x) = 0.15143 0.41902
# Poissons Ratio (y) = 0.20846 0.40261
# Poissons Ratio (z) = 0.38595 0.26938
#
# Static dielectric constant tensor:
#      x y z
#    x 2.155370 0.000000 0.000000 
#    y 0.000000 2.160400 0.000000 
#    z 0.000000 0.000000 2.410840 
# 
# From -- ./inp_files/38428.got.cif
#   From: 2010.05.17/outbox.cif.g08.bks.cpg/sg70_20_cif.got.tgz:38428.got - 2010.06.03 15:57:51.
