data_PCOD9514040
_publ_section_title
;
Structure prediction by ZEFSAII (Michael W. Deem and Ramdas Pophale) SiO2 
 PCOD9514040
Probable space group: F D D D
;
_chemical_formula_sum "Si O2"
_cell_formula_units_Z 136
_cell_length_a 13.223431
_cell_length_b 11.688404
_cell_length_c 39.043636
_cell_angle_alpha 90.000000
_cell_angle_beta 90.000000
_cell_angle_gamma 90.000000
_cell_volume 6034.615763
_symmetry_space_group_name_H-M "F D D D"
_symmetry_group_IT_number 70
_space_group.IT_coordinate_system_code '2'
_symmetry_cell_setting 'orthorhombic'
loop_
_space_group_symop_operation_xyz
x,y,z
1/4-x,1/4-y,z
x,1/4-y,1/4-z
1/4-x,y,1/4-z
-x,-y,-z
3/4+x,3/4+y,-z
-x,3/4+y,3/4+z
3/4+x,-y,3/4+z
x,1/2+y,1/2+z
1/4-x,3/4-y,1/2+z
x,3/4-y,3/4-z
1/4-x,1/2+y,3/4-z
-x,1/2-y,1/2-z
3/4+x,1/4+y,1/2-z
-x,1/4+y,1/4+z
3/4+x,1/2-y,1/4+z
1/2+x,y,1/2+z
3/4-x,1/4-y,1/2+z
1/2+x,1/4-y,3/4-z
3/4-x,y,3/4-z
1/2-x,-y,1/2-z
1/4+x,3/4+y,1/2-z
1/2-x,3/4+y,1/4+z
1/4+x,-y,1/4+z
1/2+x,1/2+y,z
3/4-x,3/4-y,z
1/2+x,3/4-y,1/4-z
3/4-x,1/2+y,1/4-z
1/2-x,1/2-y,-z
1/4+x,1/4+y,-z
1/2-x,1/4+y,3/4+z
1/4+x,1/2-y,3/4+z
loop_
_atom_site_type_symbol
_atom_site_label
_atom_site_fract_x
_atom_site_fract_y
_atom_site_fract_z
Si Si1 0.625000 0.625000 0.625000
Si Si2 0.253137 0.747815 0.368631
Si Si3 0.522049 0.867437 0.700571
Si Si4 0.497766 0.366379 0.470505
Si Si5 0.989028 0.690912 0.421123
O O1 0.695341 0.539835 0.603758
O O2 0.375000 0.752391 0.375000
O O3 0.232607 0.693591 0.331169
O O4 0.220336 0.660516 0.398082
O O5 0.212373 0.875000 0.375000
O O6 0.515568 0.908429 0.739623
O O7 0.472068 0.740654 0.705253
O O8 0.640000 0.854905 0.691062
O O9 0.375000 0.375000 0.466952
O O10 0.547956 0.264497 0.449103
#
# Coordination Sequence:
#
# PCOD9514040 Si02
#       5
#     8  32  32  32  32
#     4  12  12  24  42  68  88  92 132 182 216 232
#     4   9  16  26  41  62  83 106 137 169 204 246
#     4   9  15  25  40  62  84 107 135 170 209 251
#     4   9  16  25  40  64  86 106 134 173 218 249
#     4  10  15  25  42  65  88 104 133 180 213 241
#
# _framework density 22.536645
#
# number of rings (size 3 to 8) (size 9 to 14) (size 15 to 20)
#    0.000    2.588    7.059    0.000    0.000    0.000 
#    0.000    1.176    0.000    0.000   21.412    0.000 
#    0.000    0.000    0.000    0.000    0.000    0.000 
#
# Total GULP energy -189512.667312 kJ/mol
# GULP energy per Si atom -5573.901980 kJ/mol
# Density = 2.248535 g / cm^3
# Si number density = 22.536645 Si / 1000 Ang^3
#
#
#
# Elastic Constant Matrix: (Units=GPa)
#
#
# Indices 1 2 3 4 5 6 
#
# 1 47.8007 5.0085 13.0397 0.0000 0.0000 0.0000
# 2 5.0085 184.7894 138.7541 0.0000 0.0000 0.0000
# 3 13.0397 138.7541 217.6584 0.0000 0.0000 0.0000
# 4 0.0000 0.0000 0.0000 21.3309 0.0000 0.0000
# 5 0.0000 0.0000 0.0000 0.0000 41.4621 0.0000
# 6 0.0000 0.0000 0.0000 0.0000 0.0000 -2.8703
#
#
#
# Elastic Compliance Matrix: (Units=1/GPa)
#
#
# Indices 1 2 3 4 5 6 
#
# 1 0.021319 0.000731 -0.001743 0.000000 0.000000 0.000000
# 2 0.000731 0.010405 -0.006677 0.000000 0.000000 0.000000
# 3 -0.001743 -0.006677 0.008955 0.000000 0.000000 0.000000
# 4 0.000000 0.000000 0.000000 0.046880 0.000000 0.000000
# 5 0.000000 0.000000 0.000000 0.000000 0.024118 0.000000
# 6 0.000000 0.000000 0.000000 0.000000 0.000000 -0.348391
#
#
# Mechanical properties :
#
#
# Convention : Reuss Voigt Hill
#
# Bulk Modulus (GPa) = 39.52347 84.87257 62.19802
# Shear Modulus (GPa) = -23.48526 31.54761 4.03117
#
# Velocity S-wave (km/s) = -3.23165 3.74550 1.33888
# Velocity P-wave (km/s) = 1.91070 7.51309 5.48167
#
# Compressibility (1/GPa) = 0.02530142
#
# Stress axis : x y z
#
# Youngs Moduli (GPa) = 46.90621 96.10352 111.66483
#
# Poissons Ratio (x) = -0.07027 0.19467
# Poissons Ratio (y) = -0.03430 0.74560
# Poissons Ratio (z) = 0.08177 0.64170
#
# Static dielectric constant tensor:
#      x y z
#    x 1.950720 0.000000 0.000000 
#    y 0.000000 1.890270 0.000000 
#    z 0.000000 0.000000 1.853960 
# 
# From -- ./inp_files/17838.got.cif
#   From: 2010.05.17/outbox.cif.g08.bks.cpg/sg70_9_cif.got.tgz:17838.got - 2010.06.03 15:57:51.
