data_PCOD9514752
_publ_section_title
;
Structure prediction by ZEFSAII (Michael W. Deem and Ramdas Pophale) SiO2 
 PCOD9514752
Probable space group: F D D D
;
_chemical_formula_sum "Si O2"
_cell_formula_units_Z 128
_cell_length_a 24.031068
_cell_length_b 20.554219
_cell_length_c 10.933343
_cell_angle_alpha 90.000000
_cell_angle_beta 90.000000
_cell_angle_gamma 90.000000
_cell_volume 5400.413632
_symmetry_space_group_name_H-M "F D D D"
_symmetry_group_IT_number 70
_space_group.IT_coordinate_system_code '2'
_symmetry_cell_setting 'orthorhombic'
loop_
_space_group_symop_operation_xyz
x,y,z
1/4-x,1/4-y,z
x,1/4-y,1/4-z
1/4-x,y,1/4-z
-x,-y,-z
3/4+x,3/4+y,-z
-x,3/4+y,3/4+z
3/4+x,-y,3/4+z
x,1/2+y,1/2+z
1/4-x,3/4-y,1/2+z
x,3/4-y,3/4-z
1/4-x,1/2+y,3/4-z
-x,1/2-y,1/2-z
3/4+x,1/4+y,1/2-z
-x,1/4+y,1/4+z
3/4+x,1/2-y,1/4+z
1/2+x,y,1/2+z
3/4-x,1/4-y,1/2+z
1/2+x,1/4-y,3/4-z
3/4-x,y,3/4-z
1/2-x,-y,1/2-z
1/4+x,3/4+y,1/2-z
1/2-x,3/4+y,1/4+z
1/4+x,-y,1/4+z
1/2+x,1/2+y,z
3/4-x,3/4-y,z
1/2+x,3/4-y,1/4-z
3/4-x,1/2+y,1/4-z
1/2-x,1/2-y,-z
1/4+x,1/4+y,-z
1/2-x,1/4+y,3/4+z
1/4+x,1/2-y,3/4+z
loop_
_atom_site_type_symbol
_atom_site_label
_atom_site_fract_x
_atom_site_fract_y
_atom_site_fract_z
Si Si1 0.834099 0.711846 0.966911
Si Si2 0.309032 0.301325 0.394718
Si Si3 0.165484 0.683335 0.841181
Si Si4 0.992160 0.039277 0.185160
O O1 0.875000 0.671768 0.875000
O O2 0.783808 0.740995 0.887206
O O3 0.875547 0.767555 0.018639
O O4 0.803874 0.687827 0.089110
O O5 0.286566 0.375000 0.375000
O O6 0.375000 0.302475 0.375000
O O7 0.306068 0.285863 0.539129
O O8 0.285345 0.252484 0.294087
O O9 0.125000 0.625000 0.878848
O O10 0.215451 0.661078 0.752116
#
# Coordination Sequence:
#
# PCOD9514752 Si02
#       4
#    32  32  32  32
#     4   9  19  34  53  82 120 163 199 244 298 352
#     4  11  19  35  59  86 126 158 203 252 297 362
#     4  11  20  35  59  94 122 154 208 254 297 365
#     4  10  20  33  54  89 121 161 200 246 309 348
#
# _framework density 23.701888
#
# number of rings (size 3 to 8) (size 9 to 14) (size 15 to 20)
#    0.000    1.750    5.000    0.750    0.000    4.500 
#    0.000    0.000    0.000    0.000  104.000    7.000 
#    0.000    0.000    0.000    0.000    0.000    0.000 
#
# Total GULP energy -178541.456325 kJ/mol
# GULP energy per Si atom -5579.420510 kJ/mol
# Density = 2.364794 g / cm^3
# Si number density = 23.701888 Si / 1000 Ang^3
#
#
#
# Elastic Constant Matrix: (Units=GPa)
#
#
# Indices 1 2 3 4 5 6 
#
# 1 131.5338 36.8936 92.0725 0.0000 0.0000 0.0000
# 2 36.8936 40.6298 28.4085 0.0000 0.0000 0.0000
# 3 92.0725 28.4085 195.0617 0.0000 0.0000 0.0000
# 4 0.0000 0.0000 0.0000 10.2148 0.0000 0.0000
# 5 0.0000 0.0000 0.0000 0.0000 22.0414 0.0000
# 6 0.0000 0.0000 0.0000 0.0000 0.0000 18.9099
#
#
#
# Elastic Compliance Matrix: (Units=1/GPa)
#
#
# Indices 1 2 3 4 5 6 
#
# 1 0.013706 -0.008820 -0.005185 0.000000 0.000000 0.000000
# 2 -0.008820 0.033079 -0.000654 0.000000 0.000000 0.000000
# 3 -0.005185 -0.000654 0.007669 0.000000 0.000000 0.000000
# 4 0.000000 0.000000 0.000000 0.097897 0.000000 0.000000
# 5 0.000000 0.000000 0.000000 0.000000 0.045369 0.000000
# 6 0.000000 0.000000 0.000000 0.000000 0.000000 0.052882
#
#
# Mechanical properties :
#
#
# Convention : Reuss Voigt Hill
#
# Bulk Modulus (GPa) = 39.78443 75.77495 57.77969
# Shear Modulus (GPa) = 17.34304 24.22327 20.78315
#
# Velocity S-wave (km/s) = 2.70796 3.20034 2.96439
# Velocity P-wave (km/s) = 5.15744 6.75985 6.01227
#
# Compressibility (1/GPa) = 0.02513546
#
# Stress axis : x y z
#
# Youngs Moduli (GPa) = 72.96084 30.23046 130.39132
#
# Poissons Ratio (x) = 0.26664 0.67606
# Poissons Ratio (y) = 0.64354 0.08531
# Poissons Ratio (z) = 0.37829 0.01978
#
# Static dielectric constant tensor:
#      x y z
#    x 1.882160 0.000000 0.000000 
#    y 0.000000 1.882690 0.000000 
#    z 0.000000 0.000000 1.900450 
# 
# From -- ./inp_files/18843.got.cif
#   From: 2010.05.17/outbox.cif.g08.bks.cpg/sg70_10_cif.got.tgz:18843.got - 2010.06.03 15:57:51.
