data_PCOD9514351
_publ_section_title
;
Structure prediction by ZEFSAII (Michael W. Deem and Ramdas Pophale) SiO2 
 PCOD9514351
Probable space group: F D D D
;
_chemical_formula_sum "Si O2"
_cell_formula_units_Z 160
_cell_length_a 16.764083
_cell_length_b 26.610022
_cell_length_c 13.805959
_cell_angle_alpha 90.000000
_cell_angle_beta 90.000000
_cell_angle_gamma 90.000000
_cell_volume 6158.736387
_symmetry_space_group_name_H-M "F D D D"
_symmetry_group_IT_number 70
_space_group.IT_coordinate_system_code '2'
_symmetry_cell_setting 'orthorhombic'
loop_
_space_group_symop_operation_xyz
x,y,z
1/4-x,1/4-y,z
x,1/4-y,1/4-z
1/4-x,y,1/4-z
-x,-y,-z
3/4+x,3/4+y,-z
-x,3/4+y,3/4+z
3/4+x,-y,3/4+z
x,1/2+y,1/2+z
1/4-x,3/4-y,1/2+z
x,3/4-y,3/4-z
1/4-x,1/2+y,3/4-z
-x,1/2-y,1/2-z
3/4+x,1/4+y,1/2-z
-x,1/4+y,1/4+z
3/4+x,1/2-y,1/4+z
1/2+x,y,1/2+z
3/4-x,1/4-y,1/2+z
1/2+x,1/4-y,3/4-z
3/4-x,y,3/4-z
1/2-x,-y,1/2-z
1/4+x,3/4+y,1/2-z
1/2-x,3/4+y,1/4+z
1/4+x,-y,1/4+z
1/2+x,1/2+y,z
3/4-x,3/4-y,z
1/2+x,3/4-y,1/4-z
3/4-x,1/2+y,1/4-z
1/2-x,1/2-y,-z
1/4+x,1/4+y,-z
1/2-x,1/4+y,3/4+z
1/4+x,1/2-y,3/4+z
loop_
_atom_site_type_symbol
_atom_site_label
_atom_site_fract_x
_atom_site_fract_y
_atom_site_fract_z
Si Si1 0.268799 0.206697 0.241810
Si Si2 0.323915 0.811739 0.710592
Si Si3 0.286639 0.350533 0.008238
Si Si4 0.490194 0.625000 0.625000
Si Si5 0.625000 0.719806 0.125000
Si Si6 0.007418 0.805741 0.213287
O O1 0.324526 0.251076 0.204683
O O2 0.265642 0.146811 0.221377
O O3 0.180856 0.232889 0.218262
O O4 0.286536 0.200816 0.355347
O O5 0.273572 0.830673 0.616736
O O6 0.288563 0.833237 0.811274
O O7 0.416572 0.826997 0.705123
O O8 0.375000 0.375000 0.006953
O O9 0.300280 0.305479 0.933512
O O10 0.449517 0.592085 0.540309
O O11 0.000000 0.750000 0.250000
#
# Coordination Sequence:
#
# PCOD9514351 Si02
#       6
#    32  32  32  16  16  32
#     4  11  22  36  64  92 120 158 210 250 305 358
#     4  12  22  37  65  93 121 162 205 254 312 371
#     4  10  18  38  63  89 115 158 212 254 292 364
#     4  12  23  38  64  90 120 160 206 257 298 363
#     4  10  21  42  66  86 120 160 210 266 290 357
#     4  12  23  39  62  94 125 155 204 256 311 372
#
# _framework density 25.979354000000001
#
# number of rings (size 3 to 8) (size 9 to 14) (size 15 to 20)
#    0.000    0.800    8.000    4.500    0.000    0.800 
#    0.000    0.000    8.800    0.000    0.000    0.000 
#    0.000    0.000    0.000    0.000    0.000    0.000 
#
# Total GULP energy -222673.820647 kJ/mol
# GULP energy per Si atom -5566.845516 kJ/mol
# Density = 2.592022 g / cm^3
# Si number density = 25.979354 Si / 1000 Ang^3
#
#
#
# Elastic Constant Matrix: (Units=GPa)
#
#
# Indices 1 2 3 4 5 6 
#
# 1 82.1452 10.7150 7.2129 0.0000 0.0000 0.0000
# 2 10.7150 116.0147 32.1788 0.0000 0.0000 0.0000
# 3 7.2129 32.1788 146.8658 0.0000 0.0000 0.0000
# 4 0.0000 0.0000 0.0000 24.3374 0.0000 0.0000
# 5 0.0000 0.0000 0.0000 0.0000 9.0060 0.0000
# 6 0.0000 0.0000 0.0000 0.0000 0.0000 37.0566
#
#
#
# Elastic Compliance Matrix: (Units=1/GPa)
#
#
# Indices 1 2 3 4 5 6 
#
# 1 0.012342 -0.001035 -0.000379 0.000000 0.000000 0.000000
# 2 -0.001035 0.009264 -0.001979 0.000000 0.000000 0.000000
# 3 -0.000379 -0.001979 0.007261 0.000000 0.000000 0.000000
# 4 0.000000 0.000000 0.000000 0.041089 0.000000 0.000000
# 5 0.000000 0.000000 0.000000 0.000000 0.111037 0.000000
# 6 0.000000 0.000000 0.000000 0.000000 0.000000 0.026986
#
#
# Mechanical properties :
#
#
# Convention : Reuss Voigt Hill
#
# Bulk Modulus (GPa) = 45.28788 49.47103 47.37946
# Shear Modulus (GPa) = 22.50986 33.74127 28.12556
#
# Velocity S-wave (km/s) = 2.94675 3.60776 3.29388
# Velocity P-wave (km/s) = 5.38961 6.03642 5.72216
#
# Compressibility (1/GPa) = 0.02208096
#
# Stress axis : x y z
#
# Youngs Moduli (GPa) = 81.02523 107.94399 137.71876
#
# Poissons Ratio (x) = 0.11168 0.05226
# Poissons Ratio (y) = 0.08383 0.27254
# Poissons Ratio (z) = 0.03074 0.21362
#
# Static dielectric constant tensor:
#      x y z
#    x 2.147820 0.000000 0.000000 
#    y 0.000000 2.155610 0.000000 
#    z 0.000000 0.000000 2.110680 
# 
# From -- ./inp_files/28912.got.cif
#   From: 2010.05.17/outbox.cif.g08.bks.cpg/sg70_15_cif.got.tgz:28912.got - 2010.06.03 15:57:51.
