data_PCOD9514479
_publ_section_title
;
Structure prediction by ZEFSAII (Michael W. Deem and Ramdas Pophale) SiO2 
 PCOD9514479
Probable space group: F D D D
;
_chemical_formula_sum "Si O2"
_cell_formula_units_Z 160
_cell_length_a 16.541360
_cell_length_b 17.303015
_cell_length_c 24.345260
_cell_angle_alpha 90.000000
_cell_angle_beta 90.000000
_cell_angle_gamma 90.000000
_cell_volume 6967.988334
_symmetry_space_group_name_H-M "F D D D"
_symmetry_group_IT_number 70
_space_group.IT_coordinate_system_code '2'
_symmetry_cell_setting 'orthorhombic'
loop_
_space_group_symop_operation_xyz
x,y,z
1/4-x,1/4-y,z
x,1/4-y,1/4-z
1/4-x,y,1/4-z
-x,-y,-z
3/4+x,3/4+y,-z
-x,3/4+y,3/4+z
3/4+x,-y,3/4+z
x,1/2+y,1/2+z
1/4-x,3/4-y,1/2+z
x,3/4-y,3/4-z
1/4-x,1/2+y,3/4-z
-x,1/2-y,1/2-z
3/4+x,1/4+y,1/2-z
-x,1/4+y,1/4+z
3/4+x,1/2-y,1/4+z
1/2+x,y,1/2+z
3/4-x,1/4-y,1/2+z
1/2+x,1/4-y,3/4-z
3/4-x,y,3/4-z
1/2-x,-y,1/2-z
1/4+x,3/4+y,1/2-z
1/2-x,3/4+y,1/4+z
1/4+x,-y,1/4+z
1/2+x,1/2+y,z
3/4-x,3/4-y,z
1/2+x,3/4-y,1/4-z
3/4-x,1/2+y,1/4-z
1/2-x,1/2-y,-z
1/4+x,1/4+y,-z
1/2-x,1/4+y,3/4+z
1/4+x,1/2-y,3/4+z
loop_
_atom_site_type_symbol
_atom_site_label
_atom_site_fract_x
_atom_site_fract_y
_atom_site_fract_z
Si Si1 0.169872 0.430329 0.218628
Si Si2 0.054683 0.775937 0.826361
Si Si3 0.948293 0.207266 0.057507
Si Si4 0.621519 0.257873 0.710295
Si Si5 0.712064 0.165436 0.070776
O O1 0.101193 0.476416 0.253138
O O2 0.134933 0.349110 0.199392
O O3 0.236900 0.408306 0.264752
O O4 0.201739 0.491534 0.174282
O O5 0.080919 0.750903 0.887003
O O6 0.068123 0.866898 0.817276
O O7 0.097644 0.739643 0.773700
O O8 0.958005 0.765294 0.822848
O O9 0.043569 0.218229 0.051267
O O10 0.625000 0.125000 0.065536
O O11 0.749547 0.125000 0.125000
#
# Coordination Sequence:
#
# PCOD9514479 Si02
#       5
#    32  32  32  32  32
#     4  10  22  38  64  90 114 157 215 248 315 384
#     4   9  20  34  56  90 120 171 204 242 327 369
#     4  10  19  36  61  86 123 163 203 259 307 374
#     4  10  19  34  58  87 128 155 207 263 303 381
#     4  10  22  42  64  86 117 158 201 260 321 377
#
# _framework density 22.962152
#
# number of rings (size 3 to 8) (size 9 to 14) (size 15 to 20)
#    0.000    2.200    0.000    2.400    5.600    1.600 
#    7.200    0.000    0.000    4.800    0.000    0.000 
#    0.000    0.000    0.000    0.000    0.000    0.000 
#
# Total GULP energy -223372.852061 kJ/mol
# GULP energy per Si atom -5584.321302 kJ/mol
# Density = 2.290989 g / cm^3
# Si number density = 22.962152 Si / 1000 Ang^3
#
#
#
# Elastic Constant Matrix: (Units=GPa)
#
#
# Indices 1 2 3 4 5 6 
#
# 1 78.9729 18.6058 18.0932 0.0000 0.0000 0.0000
# 2 18.6058 39.1400 10.3911 0.0000 0.0000 0.0000
# 3 18.0932 10.3911 71.1275 0.0000 0.0000 0.0000
# 4 0.0000 0.0000 0.0000 25.3087 0.0000 0.0000
# 5 0.0000 0.0000 0.0000 0.0000 11.8750 0.0000
# 6 0.0000 0.0000 0.0000 0.0000 0.0000 15.0641
#
#
#
# Elastic Compliance Matrix: (Units=1/GPa)
#
#
# Indices 1 2 3 4 5 6 
#
# 1 0.014793 -0.006277 -0.002846 0.000000 0.000000 0.000000
# 2 -0.006277 0.029243 -0.002676 0.000000 0.000000 0.000000
# 3 -0.002846 -0.002676 0.015174 0.000000 0.000000 0.000000
# 4 0.000000 0.000000 0.000000 0.039512 0.000000 0.000000
# 5 0.000000 0.000000 0.000000 0.000000 0.084211 0.000000
# 6 0.000000 0.000000 0.000000 0.000000 0.000000 0.066383
#
#
# Mechanical properties :
#
#
# Convention : Reuss Voigt Hill
#
# Bulk Modulus (GPa) = 28.07873 31.49119 29.78496
# Shear Modulus (GPa) = 17.55711 19.92623 18.74167
#
# Velocity S-wave (km/s) = 2.76816 2.94902 2.86002
# Velocity P-wave (km/s) = 4.74044 5.03386 4.88935
#
# Compressibility (1/GPa) = 0.03561415
#
# Stress axis : x y z
#
# Youngs Moduli (GPa) = 67.59764 34.19580 65.90162
#
# Poissons Ratio (x) = 0.21464 0.18757
# Poissons Ratio (y) = 0.42429 0.17632
# Poissons Ratio (z) = 0.19239 0.09149
#
# Static dielectric constant tensor:
#      x y z
#    x 1.859990 0.000000 0.000000 
#    y 0.000000 1.854730 0.000000 
#    z 0.000000 0.000000 1.999310 
# 
# From -- ./inp_files/35105.got.cif
#   From: 2010.05.17/outbox.cif.g08.bks.cpg/sg70_18_cif.got.tgz:35105.got - 2010.06.03 15:57:51.
