data_PCOD9514539
_publ_section_title
;
Structure prediction by ZEFSAII (Michael W. Deem and Ramdas Pophale) SiO2 
 PCOD9514539
Probable space group: F D D D
;
_chemical_formula_sum "Si O2"
_cell_formula_units_Z 104
_cell_length_a 12.604900
_cell_length_b 11.288367
_cell_length_c 26.742431
_cell_angle_alpha 90.000000
_cell_angle_beta 90.000000
_cell_angle_gamma 90.000000
_cell_volume 3805.146737
_symmetry_space_group_name_H-M "F D D D"
_symmetry_group_IT_number 70
_space_group.IT_coordinate_system_code '2'
_symmetry_cell_setting 'orthorhombic'
loop_
_space_group_symop_operation_xyz
x,y,z
1/4-x,1/4-y,z
x,1/4-y,1/4-z
1/4-x,y,1/4-z
-x,-y,-z
3/4+x,3/4+y,-z
-x,3/4+y,3/4+z
3/4+x,-y,3/4+z
x,1/2+y,1/2+z
1/4-x,3/4-y,1/2+z
x,3/4-y,3/4-z
1/4-x,1/2+y,3/4-z
-x,1/2-y,1/2-z
3/4+x,1/4+y,1/2-z
-x,1/4+y,1/4+z
3/4+x,1/2-y,1/4+z
1/2+x,y,1/2+z
3/4-x,1/4-y,1/2+z
1/2+x,1/4-y,3/4-z
3/4-x,y,3/4-z
1/2-x,-y,1/2-z
1/4+x,3/4+y,1/2-z
1/2-x,3/4+y,1/4+z
1/4+x,-y,1/4+z
1/2+x,1/2+y,z
3/4-x,3/4-y,z
1/2+x,3/4-y,1/4-z
3/4-x,1/2+y,1/4-z
1/2-x,1/2-y,-z
1/4+x,1/4+y,-z
1/2-x,1/4+y,3/4+z
1/4+x,1/2-y,3/4+z
loop_
_atom_site_type_symbol
_atom_site_label
_atom_site_fract_x
_atom_site_fract_y
_atom_site_fract_z
Si Si1 0.851289 0.557186 0.792423
Si Si2 0.985080 0.521275 0.407812
Si Si3 0.450137 0.726723 0.055840
Si Si4 0.875000 0.875000 0.375000
O O1 0.966529 0.607499 0.812408
O O2 0.861883 0.511837 0.736345
O O3 0.786614 0.677929 0.789327
O O4 0.818663 0.463449 0.835155
O O5 0.875000 0.506324 0.375000
O O6 0.007621 0.408094 0.442171
O O7 0.071085 0.511214 0.363448
#
# Coordination Sequence:
#
# PCOD9514539 Si02
#       4
#    32  32  32   8
#     4  11  21  38  60  88 119 168 206 253 312 382
#     4   9  17  36  62  90 117 154 203 258 316 377
#     4  10  19  35  65  87 117 156 209 256 312 373
#     4  12  24  40  58  76 128 172 204 242 330 386
#
# _framework density 27.331403000000002
#
# number of rings (size 3 to 8) (size 9 to 14) (size 15 to 20)
#    0.000    1.846    4.615    7.385    0.000    1.231 
#    0.000    3.077    0.000    0.000    0.000    0.000 
#    0.000    0.000    0.000    0.000    0.000    0.000 
#
# Total GULP energy -145227.349409 kJ/mol
# GULP energy per Si atom -5585.667285 kJ/mol
# Density = 2.726920 g / cm^3
# Si number density = 27.331403 Si / 1000 Ang^3
#
#
#
# Elastic Constant Matrix: (Units=GPa)
#
#
# Indices 1 2 3 4 5 6 
#
# 1 52.1582 26.4137 50.1418 0.0000 0.0000 0.0000
# 2 26.4137 137.2470 50.6505 0.0000 0.0000 0.0000
# 3 50.1418 50.6505 178.8026 0.0000 0.0000 0.0000
# 4 0.0000 0.0000 0.0000 48.5208 0.0000 0.0000
# 5 0.0000 0.0000 0.0000 0.0000 47.0960 0.0000
# 6 0.0000 0.0000 0.0000 0.0000 0.0000 39.2433
#
#
#
# Elastic Compliance Matrix: (Units=1/GPa)
#
#
# Indices 1 2 3 4 5 6 
#
# 1 0.027112 -0.002694 -0.006840 0.000000 0.000000 0.000000
# 2 -0.002694 0.008404 -0.001625 0.000000 0.000000 0.000000
# 3 -0.006840 -0.001625 0.007971 0.000000 0.000000 0.000000
# 4 0.000000 0.000000 0.000000 0.020610 0.000000 0.000000
# 5 0.000000 0.000000 0.000000 0.000000 0.021233 0.000000
# 6 0.000000 0.000000 0.000000 0.000000 0.000000 0.025482
#
#
# Mechanical properties :
#
#
# Convention : Reuss Voigt Hill
#
# Bulk Modulus (GPa) = 47.23702 69.17998 58.20850
# Shear Modulus (GPa) = 35.66653 43.03880 39.35266
#
# Velocity S-wave (km/s) = 3.61635 3.97256 3.79863
# Velocity P-wave (km/s) = 5.89558 6.81235 6.37048
#
# Compressibility (1/GPa) = 0.02116984
#
# Stress axis : x y z
#
# Youngs Moduli (GPa) = 36.88391 118.98586 125.44900
#
# Poissons Ratio (x) = 0.32049 0.85808
# Poissons Ratio (y) = 0.09935 0.20391
# Poissons Ratio (z) = 0.25229 0.19340
#
# Static dielectric constant tensor:
#      x y z
#    x 2.376380 0.000000 0.000000 
#    y 0.000000 2.097310 0.000000 
#    z 0.000000 0.000000 2.164950 
# 
# From -- ./inp_files/59187.got.cif
#   From: 2010.05.17/outbox.cif.g08.bks.cpg/sg70_30_cif.got.tgz:59187.got - 2010.06.03 15:57:51.
