data_PCOD9514792
_publ_section_title
;
Structure prediction by ZEFSAII (Michael W. Deem and Ramdas Pophale) SiO2 
 PCOD9514792
Probable space group: F D D D
;
_chemical_formula_sum "Si O2"
_cell_formula_units_Z 176
_cell_length_a 20.992886
_cell_length_b 13.273944
_cell_length_c 28.978189
_cell_angle_alpha 90.000000
_cell_angle_beta 90.000000
_cell_angle_gamma 90.000000
_cell_volume 8075.015583
_symmetry_space_group_name_H-M "F D D D"
_symmetry_group_IT_number 70
_space_group.IT_coordinate_system_code '2'
_symmetry_cell_setting 'orthorhombic'
loop_
_space_group_symop_operation_xyz
x,y,z
1/4-x,1/4-y,z
x,1/4-y,1/4-z
1/4-x,y,1/4-z
-x,-y,-z
3/4+x,3/4+y,-z
-x,3/4+y,3/4+z
3/4+x,-y,3/4+z
x,1/2+y,1/2+z
1/4-x,3/4-y,1/2+z
x,3/4-y,3/4-z
1/4-x,1/2+y,3/4-z
-x,1/2-y,1/2-z
3/4+x,1/4+y,1/2-z
-x,1/4+y,1/4+z
3/4+x,1/2-y,1/4+z
1/2+x,y,1/2+z
3/4-x,1/4-y,1/2+z
1/2+x,1/4-y,3/4-z
3/4-x,y,3/4-z
1/2-x,-y,1/2-z
1/4+x,3/4+y,1/2-z
1/2-x,3/4+y,1/4+z
1/4+x,-y,1/4+z
1/2+x,1/2+y,z
3/4-x,3/4-y,z
1/2+x,3/4-y,1/4-z
3/4-x,1/2+y,1/4-z
1/2-x,1/2-y,-z
1/4+x,1/4+y,-z
1/2-x,1/4+y,3/4+z
1/4+x,1/2-y,3/4+z
loop_
_atom_site_type_symbol
_atom_site_label
_atom_site_fract_x
_atom_site_fract_y
_atom_site_fract_z
Si Si1 0.095892 0.416937 0.424597
Si Si2 0.824422 0.588069 0.836330
Si Si3 0.780137 0.381317 0.152154
Si Si4 0.319185 0.172185 0.271179
Si Si5 0.375000 0.875000 0.746238
Si Si6 0.797023 0.736122 0.573504
O O1 0.073787 0.375000 0.375000
O O2 0.061622 0.368173 0.469393
O O3 0.167225 0.369499 0.430152
O O4 0.075941 0.532655 0.420839
O O5 0.875000 0.554799 0.875000
O O6 0.774320 0.661135 0.863135
O O7 0.867392 0.627724 0.794588
O O8 0.778958 0.496458 0.820059
O O9 0.740049 0.346562 0.196043
O O10 0.811042 0.290552 0.122667
O O11 0.334987 0.290503 0.272002
O O12 0.421853 0.809896 0.713839
#
# Coordination Sequence:
#
# PCOD9514792 Si02
#       6
#    32  32  32  32  16  32
#     4  11  22  37  63  96 130 180 222 274 336 398
#     4   8  18  39  63  89 131 170 214 275 329 398
#     4   9  19  40  64  91 134 170 224 277 328 404
#     4  10  20  39  64  96 130 174 221 276 339 406
#     4  10  20  34  61  96 140 170 217 278 348 404
#     4   9  20  39  62  90 132 174 215 272 336 392
#
# _framework density 21.795622999999999
#
# number of rings (size 3 to 8) (size 9 to 14) (size 15 to 20)
#    1.091    1.455    0.000    2.727    0.000    2.909 
#    6.545    4.091    0.000    4.909    0.000    0.000 
#    0.000    0.000    0.000    0.000    0.000    0.000 
#
# Total GULP energy -244967.626987 kJ/mol
# GULP energy per Si atom -5567.446068 kJ/mol
# Density = 2.174602 g / cm^3
# Si number density = 21.795623 Si / 1000 Ang^3
#
#
#
# Elastic Constant Matrix: (Units=GPa)
#
#
# Indices 1 2 3 4 5 6 
#
# 1 104.1742 43.2478 24.5599 0.0000 0.0000 0.0000
# 2 43.2478 76.1514 14.6845 0.0000 0.0000 0.0000
# 3 24.5599 14.6845 118.3249 0.0000 0.0000 0.0000
# 4 0.0000 0.0000 0.0000 32.6789 0.0000 0.0000
# 5 0.0000 0.0000 0.0000 0.0000 22.5304 0.0000
# 6 0.0000 0.0000 0.0000 0.0000 0.0000 25.0354
#
#
#
# Elastic Compliance Matrix: (Units=1/GPa)
#
#
# Indices 1 2 3 4 5 6 
#
# 1 0.012931 -0.006993 -0.001816 0.000000 0.000000 0.000000
# 2 -0.006993 0.017236 -0.000687 0.000000 0.000000 0.000000
# 3 -0.001816 -0.000687 0.008914 0.000000 0.000000 0.000000
# 4 0.000000 0.000000 0.000000 0.030601 0.000000 0.000000
# 5 0.000000 0.000000 0.000000 0.000000 0.044384 0.000000
# 6 0.000000 0.000000 0.000000 0.000000 0.000000 0.039943
#
#
# Mechanical properties :
#
#
# Convention : Reuss Voigt Hill
#
# Bulk Modulus (GPa) = 49.78479 51.51499 50.64989
# Shear Modulus (GPa) = 27.82440 30.45950 29.14195
#
# Velocity S-wave (km/s) = 3.57684 3.74238 3.66054
# Velocity P-wave (km/s) = 6.32057 6.50851 6.41523
#
# Compressibility (1/GPa) = 0.02008646
#
# Stress axis : x y z
#
# Youngs Moduli (GPa) = 77.33496 58.01806 112.18858
#
# Poissons Ratio (x) = 0.40575 0.20374
# Poissons Ratio (y) = 0.54084 0.07713
# Poissons Ratio (z) = 0.14044 0.03989
#
# Static dielectric constant tensor:
#      x y z
#    x 1.864880 0.000000 0.000000 
#    y 0.000000 1.814140 0.000000 
#    z 0.000000 0.000000 1.838260 
# 
# From -- ./inp_files/61112.got.cif
#   From: 2010.05.17/outbox.cif.g08.bks.cpg/sg70_31_cif.got.tgz:61112.got - 2010.06.03 15:57:51.
