data_PCOD9514856
_publ_section_title
;
Structure prediction by ZEFSAII (Michael W. Deem and Ramdas Pophale) SiO2 
 PCOD9514856
Probable space group: F D D D
;
_chemical_formula_sum "Si O2"
_cell_formula_units_Z 160
_cell_length_a 14.274645
_cell_length_b 18.897476
_cell_length_c 22.590004
_cell_angle_alpha 90.000000
_cell_angle_beta 90.000000
_cell_angle_gamma 90.000000
_cell_volume 6093.761137
_symmetry_space_group_name_H-M "F D D D"
_symmetry_group_IT_number 70
_space_group.IT_coordinate_system_code '2'
_symmetry_cell_setting 'orthorhombic'
loop_
_space_group_symop_operation_xyz
x,y,z
1/4-x,1/4-y,z
x,1/4-y,1/4-z
1/4-x,y,1/4-z
-x,-y,-z
3/4+x,3/4+y,-z
-x,3/4+y,3/4+z
3/4+x,-y,3/4+z
x,1/2+y,1/2+z
1/4-x,3/4-y,1/2+z
x,3/4-y,3/4-z
1/4-x,1/2+y,3/4-z
-x,1/2-y,1/2-z
3/4+x,1/4+y,1/2-z
-x,1/4+y,1/4+z
3/4+x,1/2-y,1/4+z
1/2+x,y,1/2+z
3/4-x,1/4-y,1/2+z
1/2+x,1/4-y,3/4-z
3/4-x,y,3/4-z
1/2-x,-y,1/2-z
1/4+x,3/4+y,1/2-z
1/2-x,3/4+y,1/4+z
1/4+x,-y,1/4+z
1/2+x,1/2+y,z
3/4-x,3/4-y,z
1/2+x,3/4-y,1/4-z
3/4-x,1/2+y,1/4-z
1/2-x,1/2-y,-z
1/4+x,1/4+y,-z
1/2-x,1/4+y,3/4+z
1/4+x,1/2-y,3/4+z
loop_
_atom_site_type_symbol
_atom_site_label
_atom_site_fract_x
_atom_site_fract_y
_atom_site_fract_z
Si Si1 0.776901 0.515666 0.065976
Si Si2 0.480319 0.467995 0.063648
Si Si3 0.481370 0.882434 0.015816
Si Si4 0.497992 0.482307 0.414186
Si Si5 0.509134 0.063798 0.805709
O O1 0.740262 0.518983 0.132562
O O2 0.888862 0.516458 0.077296
O O3 0.734388 0.445222 0.033208
O O4 0.760707 0.570537 0.013923
O O5 0.520010 0.390429 0.079522
O O6 0.369439 0.450960 0.062723
O O7 0.500000 0.500000 0.000000
O O8 0.375000 0.875000 0.038896
O O9 0.472749 0.910594 0.948498
O O10 0.532092 0.947662 0.048463
O O11 0.469468 0.500162 0.346833
#
# Coordination Sequence:
#
# PCOD9514856 Si02
#       5
#    32  32  32  32  32
#     4  10  20  36  60  87 115 156 198 242 303 361
#     4  10  22  41  61  82 115 155 201 256 309 359
#     4   9  17  34  59  84 121 157 190 230 284 350
#     4   9  18  36  59  85 120 160 196 235 289 364
#     4  10  21  39  62  84 116 158 198 249 308 362
#
# _framework density 26.256360999999998
#
# number of rings (size 3 to 8) (size 9 to 14) (size 15 to 20)
#    0.000    2.400    2.000    0.000    0.000    4.000 
#    0.000   18.000    0.000    0.000    0.000    0.000 
#    0.000    0.000    0.000    0.000    0.000    0.000 
#
# Total GULP energy -223122.581453 kJ/mol
# GULP energy per Si atom -5578.064536 kJ/mol
# Density = 2.619660 g / cm^3
# Si number density = 26.256361 Si / 1000 Ang^3
#
#
#
# Elastic Constant Matrix: (Units=GPa)
#
#
# Indices 1 2 3 4 5 6 
#
# 1 56.6896 6.7178 6.4415 0.0000 0.0000 0.0000
# 2 6.7178 54.1131 21.9249 0.0000 0.0000 0.0000
# 3 6.4415 21.9249 195.9488 0.0000 0.0000 0.0000
# 4 0.0000 0.0000 0.0000 37.6327 0.0000 0.0000
# 5 0.0000 0.0000 0.0000 0.0000 32.1405 0.0000
# 6 0.0000 0.0000 0.0000 0.0000 0.0000 23.5030
#
#
#
# Elastic Compliance Matrix: (Units=1/GPa)
#
#
# Indices 1 2 3 4 5 6 
#
# 1 0.017927 -0.002081 -0.000356 0.000000 0.000000 0.000000
# 2 -0.002081 0.019599 -0.002125 0.000000 0.000000 0.000000
# 3 -0.000356 -0.002125 0.005353 0.000000 0.000000 0.000000
# 4 0.000000 0.000000 0.000000 0.026573 0.000000 0.000000
# 5 0.000000 0.000000 0.000000 0.000000 0.031113 0.000000
# 6 0.000000 0.000000 0.000000 0.000000 0.000000 0.042548
#
#
# Mechanical properties :
#
#
# Convention : Reuss Voigt Hill
#
# Bulk Modulus (GPa) = 29.62562 41.88002 35.75282
# Shear Modulus (GPa) = 30.58322 36.76639 33.67480
#
# Velocity S-wave (km/s) = 3.41661 3.74610 3.58514
# Velocity P-wave (km/s) = 5.18382 5.89034 5.54834
#
# Compressibility (1/GPa) = 0.03375457
#
# Stress axis : x y z
#
# Youngs Moduli (GPa) = 55.78169 51.02311 186.81782
#
# Poissons Ratio (x) = 0.10618 0.06659
# Poissons Ratio (y) = 0.11609 0.39690
# Poissons Ratio (z) = 0.01988 0.10840
#
# Static dielectric constant tensor:
#      x y z
#    x 2.128310 0.000000 0.000000 
#    y 0.000000 2.106020 0.000000 
#    z 0.000000 0.000000 2.101340 
# 
# From -- ./inp_files/36300.got.cif
#   From: 2010.05.17/outbox.cif.g08.bks.cpg/sg70_19_cif.got.tgz:36300.got - 2010.06.03 15:57:51.
