data_PCOD9514041
_publ_section_title
;
Structure prediction by ZEFSAII (Michael W. Deem and Ramdas Pophale) SiO2 
 PCOD9514041
Probable space group: F D D D
;
_chemical_formula_sum "Si O2"
_cell_formula_units_Z 128
_cell_length_a 36.201746
_cell_length_b 14.907505
_cell_length_c 10.607780
_cell_angle_alpha 90.000000
_cell_angle_beta 90.000000
_cell_angle_gamma 90.000000
_cell_volume 5724.782413
_symmetry_space_group_name_H-M "F D D D"
_symmetry_group_IT_number 70
_space_group.IT_coordinate_system_code '2'
_symmetry_cell_setting 'orthorhombic'
loop_
_space_group_symop_operation_xyz
x,y,z
1/4-x,1/4-y,z
x,1/4-y,1/4-z
1/4-x,y,1/4-z
-x,-y,-z
3/4+x,3/4+y,-z
-x,3/4+y,3/4+z
3/4+x,-y,3/4+z
x,1/2+y,1/2+z
1/4-x,3/4-y,1/2+z
x,3/4-y,3/4-z
1/4-x,1/2+y,3/4-z
-x,1/2-y,1/2-z
3/4+x,1/4+y,1/2-z
-x,1/4+y,1/4+z
3/4+x,1/2-y,1/4+z
1/2+x,y,1/2+z
3/4-x,1/4-y,1/2+z
1/2+x,1/4-y,3/4-z
3/4-x,y,3/4-z
1/2-x,-y,1/2-z
1/4+x,3/4+y,1/2-z
1/2-x,3/4+y,1/4+z
1/4+x,-y,1/4+z
1/2+x,1/2+y,z
3/4-x,3/4-y,z
1/2+x,3/4-y,1/4-z
3/4-x,1/2+y,1/4-z
1/2-x,1/2-y,-z
1/4+x,1/4+y,-z
1/2-x,1/4+y,3/4+z
1/4+x,1/2-y,3/4+z
loop_
_atom_site_type_symbol
_atom_site_label
_atom_site_fract_x
_atom_site_fract_y
_atom_site_fract_z
Si Si1 0.970288 0.106612 0.910315
Si Si2 0.621960 0.494545 0.768480
Si Si3 0.648266 0.955131 0.516741
Si Si4 0.208747 0.734942 0.338839
O O1 0.937975 0.077354 0.815212
O O2 0.966657 0.205884 0.964686
O O3 0.964556 0.044666 0.034925
O O4 0.010611 0.090847 0.852837
O O5 0.625000 0.527046 0.625000
O O6 0.623196 0.385417 0.752483
O O7 0.584347 0.533487 0.825384
O O8 0.650852 0.505041 0.882918
O O9 0.625000 0.005834 0.625000
#
# Coordination Sequence:
#
# PCOD9514041 Si02
#       4
#    32  32  32  32
#     4  10  18  30  50  78 111 139 182 237 296 346
#     4  10  17  28  51  75 105 135 189 232 277 336
#     4  10  15  28  51  74 101 135 186 231 269 341
#     4  10  18  30  49  81 108 142 179 240 295 348
#
# _framework density 22.358927999999999
#
# number of rings (size 3 to 8) (size 9 to 14) (size 15 to 20)
#    0.000    2.000    7.500    1.500    0.000    0.000 
#    0.000    1.250    0.000    1.500    0.000    1.750 
#    0.000    0.000    0.000    0.000    0.000    0.000 
#
# Total GULP energy -178232.528564 kJ/mol
# GULP energy per Si atom -5569.766518 kJ/mol
# Density = 2.230804 g / cm^3
# Si number density = 22.358928 Si / 1000 Ang^3
#
#
#
# Elastic Constant Matrix: (Units=GPa)
#
#
# Indices 1 2 3 4 5 6 
#
# 1 108.4448 7.9299 38.8383 0.0000 0.0000 0.0000
# 2 7.9299 42.3501 9.2083 0.0000 0.0000 0.0000
# 3 38.8383 9.2083 155.5457 0.0000 0.0000 0.0000
# 4 0.0000 0.0000 0.0000 -7.1610 0.0000 0.0000
# 5 0.0000 0.0000 0.0000 0.0000 26.1990 0.0000
# 6 0.0000 0.0000 0.0000 0.0000 0.0000 -3.1327
#
#
#
# Elastic Compliance Matrix: (Units=1/GPa)
#
#
# Indices 1 2 3 4 5 6 
#
# 1 0.010205 -0.001375 -0.002467 0.000000 0.000000 0.000000
# 2 -0.001375 0.024106 -0.001084 0.000000 0.000000 0.000000
# 3 -0.002467 -0.001084 0.007109 0.000000 0.000000 0.000000
# 4 0.000000 0.000000 0.000000 -0.139645 0.000000 0.000000
# 5 0.000000 0.000000 0.000000 0.000000 0.038169 0.000000
# 6 0.000000 0.000000 0.000000 0.000000 0.000000 -0.319218
#
#
# Mechanical properties :
#
#
# Convention : Reuss Voigt Hill
#
# Bulk Modulus (GPa) = 31.67594 46.47708 39.07651
# Shear Modulus (GPa) = -13.93146 19.87200 2.97027
#
# Velocity S-wave (km/s) = -2.49887 2.98446 1.15383
# Velocity P-wave (km/s) = 2.42322 5.71909 4.39203
#
# Compressibility (1/GPa) = 0.03156970
#
# Stress axis : x y z
#
# Youngs Moduli (GPa) = 97.98883 41.48394 140.66527
#
# Poissons Ratio (x) = 0.05702 0.34699
# Poissons Ratio (y) = 0.13469 0.15246
# Poissons Ratio (z) = 0.24172 0.04496
#
# Static dielectric constant tensor:
#      x y z
#    x 1.816530 0.000000 0.000000 
#    y 0.000000 1.874140 0.000000 
#    z 0.000000 0.000000 1.909210 
# 
# From -- ./inp_files/20573.got.cif
#   From: 2010.05.17/outbox.cif.g08.bks.cpg/sg70_11_cif.got.tgz:20573.got - 2010.06.03 15:57:51.
