data_PCOD9514014
_publ_section_title
;
Structure prediction by ZEFSAII (Michael W. Deem and Ramdas Pophale) SiO2 
 PCOD9514014
Probable space group: F M M M
;
_chemical_formula_sum "Si O2"
_cell_formula_units_Z 28
_cell_length_a 9.000000
_cell_length_b 27.000000
_cell_length_c 24.000000
_cell_angle_alpha 90.000000
_cell_angle_beta 90.000000
_cell_angle_gamma 90.000000
_cell_volume 5832.000000
_symmetry_space_group_name_H-M "F M M M"
_symmetry_group_IT_number 69
_symmetry_cell_setting 'orthorhombic'
loop_
_space_group_symop_operation_xyz
x,y,z
-x,-y,z
x,-y,-z
-x,y,-z
-x,-y,-z
x,y,-z
-x,y,z
x,-y,z
x,1/2+y,1/2+z
-x,1/2-y,1/2+z
x,1/2-y,1/2-z
-x,1/2+y,1/2-z
-x,1/2-y,1/2-z
x,1/2+y,1/2-z
-x,1/2+y,1/2+z
x,1/2-y,1/2+z
1/2+x,y,1/2+z
1/2-x,-y,1/2+z
1/2+x,-y,1/2-z
1/2-x,y,1/2-z
1/2-x,-y,1/2-z
1/2+x,y,1/2-z
1/2-x,y,1/2+z
1/2+x,-y,1/2+z
1/2+x,1/2+y,z
1/2-x,1/2-y,z
1/2+x,1/2-y,-z
1/2-x,1/2+y,-z
1/2-x,1/2-y,-z
1/2+x,1/2+y,-z
1/2-x,1/2+y,z
1/2+x,1/2-y,z
loop_
_atom_site_type_symbol
_atom_site_label
_atom_site_fract_x
_atom_site_fract_y
_atom_site_fract_z
Si Si1 0.662770 0.557743 0.433866
Si Si2 0.326840 0.796718 0.190469
Si Si3 0.830068 0.638064 0.388584
Si Si4 0.323600 0.197252 0.500000
O O1 0.679594 0.564690 0.500000
O O2 0.500000 0.579123 0.418464
O O3 0.658119 0.500000 0.423232
O O4 0.799530 0.581796 0.402769
O O5 0.500000 0.788512 0.195065
O O6 0.250000 0.799656 0.250000
O O7 0.250000 0.750000 0.160108
O O8 0.282042 0.845127 0.158218
O O9 0.786396 0.667042 0.444693
O O10 0.000000 0.649141 0.373983
O O11 0.500000 0.203362 0.500000
O O12 0.250000 0.250000 0.500000
#
# Coordination Sequence:
#
# PCOD9514014 Si02
#       4
#    32  32  32  16
#     4   9  18  33  53  78 108 143 183 224 268 320
#     4  11  22  38  58  81 107 142 183 227 270 318
#     4  11  21  35  53  79 110 144 182 222 269 322
#     4  10  22  34  47  72 107 143 176 213 261 316
#
# _framework density 4.8010970000000004
#
# number of rings (size 3 to 8) (size 9 to 14) (size 15 to 20)
#    0.000    1.714    1.429    6.000    0.000    5.143 
#    0.000    1.429    0.000    0.857    0.000    0.000 
#    0.000    0.000    0.000    0.000    0.000    0.000 
#
# Total GULP energy -155952.907124 kJ/mol
# GULP energy per Si atom -5569.746683 kJ/mol
# Density = 0.479017 g / cm^3
# Si number density = 4.801097 Si / 1000 Ang^3
#
#
#
# Elastic Constant Matrix: (Units=GPa)
#
#
# Indices 1 2 3 4 5 6 
#
# 1 91.5293 35.7965 41.7614 0.0000 0.0000 0.0000
# 2 35.7965 60.8929 26.8902 0.0000 0.0000 0.0000
# 3 41.7614 26.8902 42.1816 0.0000 0.0000 0.0000
# 4 0.0000 0.0000 0.0000 17.3992 0.0000 0.0000
# 5 0.0000 0.0000 0.0000 0.0000 51.4827 0.0000
# 6 0.0000 0.0000 0.0000 0.0000 0.0000 28.6437
#
#
#
# Elastic Compliance Matrix: (Units=1/GPa)
#
#
# Indices 1 2 3 4 5 6 
#
# 1 0.020721 -0.004345 -0.017745 0.000000 0.000000 0.000000
# 2 -0.004345 0.023768 -0.010850 0.000000 0.000000 0.000000
# 3 -0.017745 -0.010850 0.048192 0.000000 0.000000 0.000000
# 4 0.000000 0.000000 0.000000 0.057474 0.000000 0.000000
# 5 0.000000 0.000000 0.000000 0.000000 0.019424 0.000000
# 6 0.000000 0.000000 0.000000 0.000000 0.000000 0.034912
#
#
# Mechanical properties :
#
#
# Convention : Reuss Voigt Hill
#
# Bulk Modulus (GPa) = 37.31178 44.83332 41.07255
# Shear Modulus (GPa) = 17.90168 25.51549 21.70858
#
# Velocity S-wave (km/s) = 3.05645 3.64899 3.36579
# Velocity P-wave (km/s) = 5.65038 6.41479 6.04468
#
# Compressibility (1/GPa) = 0.02680119
#
# Stress axis : x y z
#
# Youngs Moduli (GPa) = 48.26013 42.07367 20.75045
#
# Poissons Ratio (x) = 0.18281 0.36821
# Poissons Ratio (y) = 0.20969 0.22514
# Poissons Ratio (z) = 0.85636 0.45650
#
# Static dielectric constant tensor:
#      x y z
#    x 1.703760 0.000000 0.000000 
#    y 0.000000 1.771680 0.000000 
#    z 0.000000 0.000000 2.596680 
# 
# From -- ./inp_files/3699.got.cif
#   From: 2010.05.17/outbox.ucp.g08.bks.cvg/sg69_2_cif.got.tgz:3699.got - 2010.06.11 16:51:34.
