data_PCOD9514223
_publ_section_title
;
Structure prediction by ZEFSAII (Michael W. Deem and Ramdas Pophale) SiO2 
 PCOD9514223
Probable space group: F D D D
;
_chemical_formula_sum "Si O2"
_cell_formula_units_Z 240
_cell_length_a 26.847964
_cell_length_b 19.732778
_cell_length_c 20.407119
_cell_angle_alpha 90.000000
_cell_angle_beta 90.000000
_cell_angle_gamma 90.000000
_cell_volume 10811.383771
_symmetry_space_group_name_H-M "F D D D"
_symmetry_group_IT_number 70
_space_group.IT_coordinate_system_code '2'
_symmetry_cell_setting 'orthorhombic'
loop_
_space_group_symop_operation_xyz
x,y,z
1/4-x,1/4-y,z
x,1/4-y,1/4-z
1/4-x,y,1/4-z
-x,-y,-z
3/4+x,3/4+y,-z
-x,3/4+y,3/4+z
3/4+x,-y,3/4+z
x,1/2+y,1/2+z
1/4-x,3/4-y,1/2+z
x,3/4-y,3/4-z
1/4-x,1/2+y,3/4-z
-x,1/2-y,1/2-z
3/4+x,1/4+y,1/2-z
-x,1/4+y,1/4+z
3/4+x,1/2-y,1/4+z
1/2+x,y,1/2+z
3/4-x,1/4-y,1/2+z
1/2+x,1/4-y,3/4-z
3/4-x,y,3/4-z
1/2-x,-y,1/2-z
1/4+x,3/4+y,1/2-z
1/2-x,3/4+y,1/4+z
1/4+x,-y,1/4+z
1/2+x,1/2+y,z
3/4-x,3/4-y,z
1/2+x,3/4-y,1/4-z
3/4-x,1/2+y,1/4-z
1/2-x,1/2-y,-z
1/4+x,1/4+y,-z
1/2-x,1/4+y,3/4+z
1/4+x,1/2-y,3/4+z
loop_
_atom_site_type_symbol
_atom_site_label
_atom_site_fract_x
_atom_site_fract_y
_atom_site_fract_z
Si Si1 0.673162 0.268652 0.668145
Si Si2 0.069074 0.632084 0.341778
Si Si3 0.941589 0.727836 0.230179
Si Si4 0.666594 0.916474 0.007231
Si Si5 0.886500 0.530559 0.537129
Si Si6 0.784728 0.582858 0.861539
Si Si7 0.316378 0.125000 0.625000
Si Si8 0.965562 0.741932 0.603103
O O1 0.625000 0.254022 0.625000
O O2 0.654415 0.244845 0.740452
O O3 0.687526 0.349354 0.665515
O O4 0.725032 0.238346 0.641415
O O5 0.125000 0.625000 0.368913
O O6 0.068851 0.695883 0.293208
O O7 0.051440 0.559867 0.313345
O O8 0.020986 0.648962 0.386102
O O9 0.886388 0.698724 0.243287
O O10 0.968437 0.717518 0.299826
O O11 0.961757 0.673030 0.176672
O O12 0.686697 0.943661 0.075617
O O13 0.661540 0.835501 0.011362
O O14 0.699007 0.930928 0.943095
O O15 0.852144 0.572247 0.587578
O O16 0.931782 0.501839 0.581133
#
# Coordination Sequence:
#
# PCOD9514223 Si02
#       8
#    32  32  32  32  32  32  16  32
#     4  11  22  40  64 100 131 164 226 277 327 404
#     4  11  23  41  57  87 139 167 201 270 337 392
#     4  11  20  39  63  92 128 167 210 268 319 381
#     4  11  20  39  68  91 124 169 225 268 323 396
#     4  11  19  39  67  94 129 173 216 277 323 388
#     4  11  22  39  66  94 124 169 222 271 323 395
#     4  10  18  32  68  94 114 160 226 264 306 386
#     4  11  24  39  65  98 131 177 217 269 338 406
#
# _framework density 22.198823999999998
#
# number of rings (size 3 to 8) (size 9 to 14) (size 15 to 20)
#    0.000    1.067    8.000    0.800    0.000    2.667 
#    0.000    0.667    0.000    0.800    0.000    0.000 
#    0.000    0.000    0.000    0.000    0.000    0.000 
#
# Total GULP energy -334290.720914 kJ/mol
# GULP energy per Si atom -5571.512015 kJ/mol
# Density = 2.214830 g / cm^3
# Si number density = 22.198824 Si / 1000 Ang^3
#
#
#
# Elastic Constant Matrix: (Units=GPa)
#
#
# Indices 1 2 3 4 5 6 
#
# 1 156.7378 22.3706 35.9316 0.0000 0.0000 0.0000
# 2 22.3706 39.6226 13.3172 0.0000 0.0000 0.0000
# 3 35.9316 13.3172 101.6345 0.0000 0.0000 0.0000
# 4 0.0000 0.0000 0.0000 11.8941 0.0000 0.0000
# 5 0.0000 0.0000 0.0000 0.0000 22.9224 0.0000
# 6 0.0000 0.0000 0.0000 0.0000 0.0000 25.3302
#
#
#
# Elastic Compliance Matrix: (Units=1/GPa)
#
#
# Indices 1 2 3 4 5 6 
#
# 1 0.007364 -0.003434 -0.002153 0.000000 0.000000 0.000000
# 2 -0.003434 0.028002 -0.002455 0.000000 0.000000 0.000000
# 3 -0.002153 -0.002455 0.010922 0.000000 0.000000 0.000000
# 4 0.000000 0.000000 0.000000 0.084076 0.000000 0.000000
# 5 0.000000 0.000000 0.000000 0.000000 0.043626 0.000000
# 6 0.000000 0.000000 0.000000 0.000000 0.000000 0.039479
#
#
# Mechanical properties :
#
#
# Convention : Reuss Voigt Hill
#
# Bulk Modulus (GPa) = 33.10898 49.02595 41.06746
# Shear Modulus (GPa) = 20.86635 27.12103 23.99369
#
# Velocity S-wave (km/s) = 3.06923 3.49912 3.29120
# Velocity P-wave (km/s) = 5.24474 6.20145 5.74305
#
# Compressibility (1/GPa) = 0.03020329
#
# Stress axis : x y z
#
# Youngs Moduli (GPa) = 135.79855 35.71171 91.55660
#
# Poissons Ratio (x) = 0.12263 0.19716
# Poissons Ratio (y) = 0.46631 0.22478
# Poissons Ratio (z) = 0.29244 0.08768
#
# Static dielectric constant tensor:
#      x y z
#    x 1.903980 0.000000 0.000000 
#    y 0.000000 1.900320 0.000000 
#    z 0.000000 0.000000 1.871020 
# 
# From -- ./inp_files/47141.got.cif
#   From: 2010.05.17/outbox.cif.g08.bks.cpg/sg70_24_cif.got.tgz:47141.got - 2010.06.03 15:57:51.
