data_PCOD9514208
_publ_section_title
;
Structure prediction by ZEFSAII (Michael W. Deem and Ramdas Pophale) SiO2 
 PCOD9514208
Probable space group: F D D D
;
_chemical_formula_sum "Si O2"
_cell_formula_units_Z 192
_cell_length_a 27.291114
_cell_length_b 15.169668
_cell_length_c 21.621147
_cell_angle_alpha 90.000000
_cell_angle_beta 90.000000
_cell_angle_gamma 90.000000
_cell_volume 8951.092994
_symmetry_space_group_name_H-M "F D D D"
_symmetry_group_IT_number 70
_space_group.IT_coordinate_system_code '2'
_symmetry_cell_setting 'orthorhombic'
loop_
_space_group_symop_operation_xyz
x,y,z
1/4-x,1/4-y,z
x,1/4-y,1/4-z
1/4-x,y,1/4-z
-x,-y,-z
3/4+x,3/4+y,-z
-x,3/4+y,3/4+z
3/4+x,-y,3/4+z
x,1/2+y,1/2+z
1/4-x,3/4-y,1/2+z
x,3/4-y,3/4-z
1/4-x,1/2+y,3/4-z
-x,1/2-y,1/2-z
3/4+x,1/4+y,1/2-z
-x,1/4+y,1/4+z
3/4+x,1/2-y,1/4+z
1/2+x,y,1/2+z
3/4-x,1/4-y,1/2+z
1/2+x,1/4-y,3/4-z
3/4-x,y,3/4-z
1/2-x,-y,1/2-z
1/4+x,3/4+y,1/2-z
1/2-x,3/4+y,1/4+z
1/4+x,-y,1/4+z
1/2+x,1/2+y,z
3/4-x,3/4-y,z
1/2+x,3/4-y,1/4-z
3/4-x,1/2+y,1/4-z
1/2-x,1/2-y,-z
1/4+x,1/4+y,-z
1/2-x,1/4+y,3/4+z
1/4+x,1/2-y,3/4+z
loop_
_atom_site_type_symbol
_atom_site_label
_atom_site_fract_x
_atom_site_fract_y
_atom_site_fract_z
Si Si1 0.782806 0.125000 0.125000
Si Si2 0.087025 0.402264 0.244557
Si Si3 0.715870 0.875000 0.875000
Si Si4 0.721133 0.565876 0.856630
Si Si5 0.165614 0.971128 0.677438
Si Si6 0.489564 0.210282 0.816626
Si Si7 0.550529 0.600682 0.726522
O O1 0.805530 0.222118 0.115508
O O2 0.748913 0.141895 0.185862
O O3 0.067787 0.382227 0.313572
O O4 0.145069 0.411633 0.233686
O O5 0.063367 0.333280 0.195939
O O6 0.066795 0.499892 0.228084
O O7 0.750120 0.788512 0.884654
O O8 0.778786 0.549187 0.840965
O O9 0.723685 0.631037 0.914843
O O10 0.702453 0.617155 0.796954
O O11 0.125000 0.958063 0.625000
O O12 0.167095 0.073445 0.695185
O O13 0.500000 0.250000 0.750000
#
# Coordination Sequence:
#
# PCOD9514208 Si02
#       7
#    16  32  16  32  32  32  32
#     4  10  18  32  52  80 118 147 184 233 290 346
#     4  11  20  36  60  86 114 150 201 246 300 350
#     4  10  22  38  63  81 116 153 210 247 291 350
#     4  11  21  37  57  90 120 152 200 245 301 359
#     4  11  21  35  57  87 123 157 190 242 305 363
#     4  10  20  37  61  90 106 155 202 250 285 345
#     4  11  21  35  55  87 120 156 193 242 297 364
#
# _framework density 21.449894
#
# number of rings (size 3 to 8) (size 9 to 14) (size 15 to 20)
#    0.000    1.333    5.000    3.500    0.000    3.333 
#    0.000    3.333    0.000    2.000    0.000    0.000 
#    0.000    0.000    0.000    0.000    0.000    0.000 
#
# Total GULP energy -267620.159589 kJ/mol
# GULP energy per Si atom -5575.419991 kJ/mol
# Density = 2.140107 g / cm^3
# Si number density = 21.449894 Si / 1000 Ang^3
#
#
#
# Elastic Constant Matrix: (Units=GPa)
#
#
# Indices 1 2 3 4 5 6 
#
# 1 33.0794 17.3702 6.3020 0.0000 0.0000 0.0000
# 2 17.3702 124.2929 27.3365 0.0000 0.0000 0.0000
# 3 6.3020 27.3365 89.9874 0.0000 0.0000 0.0000
# 4 0.0000 0.0000 0.0000 41.8556 0.0000 0.0000
# 5 0.0000 0.0000 0.0000 0.0000 19.1639 0.0000
# 6 0.0000 0.0000 0.0000 0.0000 0.0000 21.3473
#
#
#
# Elastic Compliance Matrix: (Units=1/GPa)
#
#
# Indices 1 2 3 4 5 6 
#
# 1 0.032703 -0.004358 -0.000966 0.000000 0.000000 0.000000
# 2 -0.004358 0.009202 -0.002490 0.000000 0.000000 0.000000
# 3 -0.000966 -0.002490 0.011937 0.000000 0.000000 0.000000
# 4 0.000000 0.000000 0.000000 0.023892 0.000000 0.000000
# 5 0.000000 0.000000 0.000000 0.000000 0.052181 0.000000
# 6 0.000000 0.000000 0.000000 0.000000 0.000000 0.046844
#
#
# Mechanical properties :
#
#
# Convention : Reuss Voigt Hill
#
# Bulk Modulus (GPa) = 26.16919 38.81970 32.49445
# Shear Modulus (GPa) = 24.37528 29.56342 26.96935
#
# Velocity S-wave (km/s) = 3.37468 3.71651 3.54972
# Velocity P-wave (km/s) = 5.23558 6.04597 5.65531
#
# Compressibility (1/GPa) = 0.03821287
#
# Stress axis : x y z
#
# Youngs Moduli (GPa) = 30.57850 108.66949 83.77422
#
# Poissons Ratio (x) = 0.47355 0.08096
# Poissons Ratio (y) = 0.13325 0.20862
# Poissons Ratio (z) = 0.02955 0.27062
#
# Static dielectric constant tensor:
#      x y z
#    x 1.827660 0.000000 0.000000 
#    y 0.000000 1.817220 0.000000 
#    z 0.000000 0.000000 1.858400 
# 
# From -- ./inp_files/55127.got.cif
#   From: 2010.05.17/outbox.cif.g08.bks.cpg/sg70_28_cif.got.tgz:55127.got - 2010.06.03 15:57:51.
