data_PCOD9514439
_publ_section_title
;
Structure prediction by ZEFSAII (Michael W. Deem and Ramdas Pophale) SiO2 
 PCOD9514439
Probable space group: F D D D
;
_chemical_formula_sum "Si O2"
_cell_formula_units_Z 176
_cell_length_a 7.917536
_cell_length_b 30.145120
_cell_length_c 29.074856
_cell_angle_alpha 90.000000
_cell_angle_beta 90.000000
_cell_angle_gamma 90.000000
_cell_volume 6939.443373
_symmetry_space_group_name_H-M "F D D D"
_symmetry_group_IT_number 70
_space_group.IT_coordinate_system_code '2'
_symmetry_cell_setting 'orthorhombic'
loop_
_space_group_symop_operation_xyz
x,y,z
1/4-x,1/4-y,z
x,1/4-y,1/4-z
1/4-x,y,1/4-z
-x,-y,-z
3/4+x,3/4+y,-z
-x,3/4+y,3/4+z
3/4+x,-y,3/4+z
x,1/2+y,1/2+z
1/4-x,3/4-y,1/2+z
x,3/4-y,3/4-z
1/4-x,1/2+y,3/4-z
-x,1/2-y,1/2-z
3/4+x,1/4+y,1/2-z
-x,1/4+y,1/4+z
3/4+x,1/2-y,1/4+z
1/2+x,y,1/2+z
3/4-x,1/4-y,1/2+z
1/2+x,1/4-y,3/4-z
3/4-x,y,3/4-z
1/2-x,-y,1/2-z
1/4+x,3/4+y,1/2-z
1/2-x,3/4+y,1/4+z
1/4+x,-y,1/4+z
1/2+x,1/2+y,z
3/4-x,3/4-y,z
1/2+x,3/4-y,1/4-z
3/4-x,1/2+y,1/4-z
1/2-x,1/2-y,-z
1/4+x,1/4+y,-z
1/2-x,1/4+y,3/4+z
1/4+x,1/2-y,3/4+z
loop_
_atom_site_type_symbol
_atom_site_label
_atom_site_fract_x
_atom_site_fract_y
_atom_site_fract_z
Si Si1 0.875000 0.660594 0.875000
Si Si2 0.478363 0.029773 0.446250
Si Si3 0.280637 0.597190 0.292992
Si Si4 0.030669 0.316053 0.297710
Si Si5 0.345488 0.660210 0.693776
Si Si6 0.079626 0.746798 0.301109
O O1 0.743144 0.692690 0.900249
O O2 0.825597 0.630061 0.833343
O O3 0.493788 0.059691 0.492088
O O4 0.584213 0.984405 0.442007
O O5 0.281947 0.013277 0.449103
O O6 0.125000 0.625000 0.270783
O O7 0.400407 0.589129 0.249811
O O8 0.245914 0.549946 0.316371
O O9 0.847543 0.328069 0.318431
O O10 0.137377 0.358483 0.314900
O O11 0.446704 0.704037 0.677989
O O12 0.000000 0.750000 0.250000
#
# Coordination Sequence:
#
# PCOD9514439 Si02
#       6
#    16  32  32  32  32  32
#     4  12  22  30  48  77 124 148 179 222 308 356
#     4  10  19  33  50  78 110 150 179 235 288 347
#     4  11  20  33  49  77 111 149 179 223 293 351
#     4   9  17  32  53  76 106 138 197 229 278 332
#     4   9  17  31  54  78 101 135 188 240 274 322
#     4   9  18  33  53  74 105 139 190 238 276 334
#
# _framework density 25.362265000000001
#
# number of rings (size 3 to 8) (size 9 to 14) (size 15 to 20)
#    0.000    2.182    3.636    0.000    0.000    1.455 
#    0.000    0.000    0.000    8.727    0.000    0.000 
#    0.000    0.000    0.000    0.000    0.000    0.000 
#
# Total GULP energy -244967.136893 kJ/mol
# GULP energy per Si atom -5567.434929 kJ/mol
# Density = 2.530454 g / cm^3
# Si number density = 25.362265 Si / 1000 Ang^3
#
#
#
# Elastic Constant Matrix: (Units=GPa)
#
#
# Indices 1 2 3 4 5 6 
#
# 1 28.7688 3.9866 6.0914 0.0000 0.0000 0.0000
# 2 3.9866 243.7138 19.5967 0.0000 0.0000 0.0000
# 3 6.0914 19.5967 59.4833 0.0000 0.0000 0.0000
# 4 0.0000 0.0000 0.0000 1040.8774 0.0000 0.0000
# 5 0.0000 0.0000 0.0000 0.0000 10.4391 0.0000
# 6 0.0000 0.0000 0.0000 0.0000 0.0000 26.9014
#
#
#
# Elastic Compliance Matrix: (Units=1/GPa)
#
#
# Indices 1 2 3 4 5 6 
#
# 1 0.035551 -0.000297 -0.003543 0.000000 0.000000 0.000000
# 2 -0.000297 0.004217 -0.001359 0.000000 0.000000 0.000000
# 3 -0.003543 -0.001359 0.017622 0.000000 0.000000 0.000000
# 4 0.000000 0.000000 0.000000 0.000961 0.000000 0.000000
# 5 0.000000 0.000000 0.000000 0.000000 0.095794 0.000000
# 6 0.000000 0.000000 0.000000 0.000000 0.000000 0.037173
#
#
# Mechanical properties :
#
#
# Convention : Reuss Voigt Hill
#
# Bulk Modulus (GPa) = 21.27961 43.47948 32.37954
# Shear Modulus (GPa) = 23.00124 235.79631 129.39878
#
# Velocity S-wave (km/s) = 3.01476 9.65262 7.15059
# Velocity P-wave (km/s) = 4.53066 11.89165 8.99829
#
# Compressibility (1/GPa) = 0.04699333
#
# Stress axis : x y z
#
# Youngs Moduli (GPa) = 28.12851 237.11837 56.74729
#
# Poissons Ratio (x) = 0.07034 0.20105
# Poissons Ratio (y) = 0.00834 0.07712
# Poissons Ratio (z) = 0.09966 0.32225
#
# Static dielectric constant tensor:
#      x y z
#    x 2.124060 0.000000 0.000000 
#    y 0.000000 2.081660 0.000000 
#    z 0.000000 0.000000 2.084170 
# 
# From -- ./inp_files/65078.got.cif
#   From: 2010.05.17/outbox.cif.g08.bks.cpg/sg70_33_cif.got.tgz:65078.got - 2010.06.03 15:57:51.
