data_PCOD9514617
_publ_section_title
;
Structure prediction by ZEFSAII (Michael W. Deem and Ramdas Pophale) SiO2 
 PCOD9514617
Probable space group: F D D D
;
_chemical_formula_sum "Si O2"
_cell_formula_units_Z 208
_cell_length_a 21.213767
_cell_length_b 20.984954
_cell_length_c 17.648852
_cell_angle_alpha 90.000000
_cell_angle_beta 90.000000
_cell_angle_gamma 90.000000
_cell_volume 7856.738115
_symmetry_space_group_name_H-M "F D D D"
_symmetry_group_IT_number 70
_space_group.IT_coordinate_system_code '2'
_symmetry_cell_setting 'orthorhombic'
loop_
_space_group_symop_operation_xyz
x,y,z
1/4-x,1/4-y,z
x,1/4-y,1/4-z
1/4-x,y,1/4-z
-x,-y,-z
3/4+x,3/4+y,-z
-x,3/4+y,3/4+z
3/4+x,-y,3/4+z
x,1/2+y,1/2+z
1/4-x,3/4-y,1/2+z
x,3/4-y,3/4-z
1/4-x,1/2+y,3/4-z
-x,1/2-y,1/2-z
3/4+x,1/4+y,1/2-z
-x,1/4+y,1/4+z
3/4+x,1/2-y,1/4+z
1/2+x,y,1/2+z
3/4-x,1/4-y,1/2+z
1/2+x,1/4-y,3/4-z
3/4-x,y,3/4-z
1/2-x,-y,1/2-z
1/4+x,3/4+y,1/2-z
1/2-x,3/4+y,1/4+z
1/4+x,-y,1/4+z
1/2+x,1/2+y,z
3/4-x,3/4-y,z
1/2+x,3/4-y,1/4-z
3/4-x,1/2+y,1/4-z
1/2-x,1/2-y,-z
1/4+x,1/4+y,-z
1/2-x,1/4+y,3/4+z
1/4+x,1/2-y,3/4+z
loop_
_atom_site_type_symbol
_atom_site_label
_atom_site_fract_x
_atom_site_fract_y
_atom_site_fract_z
Si Si1 0.888196 0.130918 0.725910
Si Si2 0.731689 0.252315 0.208459
Si Si3 0.727315 0.580206 0.681371
Si Si4 0.263897 0.102692 0.270848
Si Si5 0.625000 0.125000 0.445219
Si Si6 0.883139 0.780325 0.195540
Si Si7 0.933167 0.215071 0.408911
O O1 0.821125 0.093921 0.709307
O O2 0.881628 0.203523 0.697180
O O3 0.902602 0.099760 0.807277
O O4 0.961664 0.126626 0.699327
O O5 0.741888 0.229855 0.122888
O O6 0.714403 0.326656 0.201981
O O7 0.679298 0.209811 0.252612
O O8 0.787775 0.249374 0.269002
O O9 0.688953 0.625000 0.625000
O O10 0.690685 0.556620 0.754316
O O11 0.189049 0.109710 0.258467
O O12 0.271314 0.052497 0.339521
O O13 0.633407 0.065989 0.384814
O O14 0.875000 0.253748 0.375000
#
# Coordination Sequence:
#
# PCOD9514617 Si02
#       7
#    32  32  32  32  16  32  32
#     4  10  21  38  54  83 119 165 209 247 308 372
#     4  11  21  37  56  93 127 164 207 253 319 388
#     4  12  21  33  53  85 125 162 200 245 310 385
#     4  10  22  36  62  84 117 165 209 264 317 379
#     4  12  20  38  59  88 123 158 212 258 320 372
#     4  11  22  34  56  85 127 163 200 249 308 389
#     4  10  19  38  60  86 124 162 209 257 309 377
#
# _framework density 26.474091000000001
#
# number of rings (size 3 to 8) (size 9 to 14) (size 15 to 20)
#    0.000    1.231    3.077    4.615    0.000    3.077 
#    0.000    0.000    0.000    7.385    0.000    0.000 
#    0.000    0.000    0.000    0.000    0.000    0.000 
#
# Total GULP energy -289536.397775 kJ/mol
# GULP energy per Si atom -5568.007650 kJ/mol
# Density = 2.641383 g / cm^3
# Si number density = 26.474091 Si / 1000 Ang^3
#
#
#
# Elastic Constant Matrix: (Units=GPa)
#
#
# Indices 1 2 3 4 5 6 
#
# 1 200.4149 -4.9422 51.1516 0.0000 0.0000 0.0000
# 2 -4.9422 52.5065 4.1287 0.0000 0.0000 0.0000
# 3 51.1516 4.1287 83.1251 0.0000 0.0000 0.0000
# 4 0.0000 0.0000 0.0000 15.6195 0.0000 0.0000
# 5 0.0000 0.0000 0.0000 0.0000 -4.9588 0.0000
# 6 0.0000 0.0000 0.0000 0.0000 0.0000 -1.1772
#
#
#
# Elastic Compliance Matrix: (Units=1/GPa)
#
#
# Indices 1 2 3 4 5 6 
#
# 1 0.005957 0.000852 -0.003708 0.000000 0.000000 0.000000
# 2 0.000852 0.019242 -0.001480 0.000000 0.000000 0.000000
# 3 -0.003708 -0.001480 0.014385 0.000000 0.000000 0.000000
# 4 0.000000 0.000000 0.000000 0.064023 0.000000 0.000000
# 5 0.000000 0.000000 0.000000 0.000000 -0.201661 0.000000
# 6 0.000000 0.000000 0.000000 0.000000 0.000000 -0.849451
#
#
# Mechanical properties :
#
#
# Convention : Reuss Voigt Hill
#
# Bulk Modulus (GPa) = 32.34947 48.52473 40.43710
# Shear Modulus (GPa) = -5.38486 20.94391 7.77953
#
# Velocity S-wave (km/s) = -1.42773 2.81572 1.71608
# Velocity P-wave (km/s) = 3.08673 5.37959 4.38565
#
# Compressibility (1/GPa) = 0.03091241
#
# Stress axis : x y z
#
# Youngs Moduli (GPa) = 167.86788 51.97001 69.51511
#
# Poissons Ratio (x) = -0.04429 0.25777
# Poissons Ratio (y) = -0.14307 0.10289
# Poissons Ratio (z) = 0.62246 0.07692
#
# Static dielectric constant tensor:
#      x y z
#    x 2.340130 0.000000 0.000000 
#    y 0.000000 2.145550 0.000000 
#    z 0.000000 0.000000 2.070150 
# 
# From -- ./inp_files/36742.got.cif
#   From: 2010.05.17/outbox.cif.g08.bks.cpg/sg70_19_cif.got.tgz:36742.got - 2010.06.03 15:57:51.
