data_PCOD9514844
_publ_section_title
;
Structure prediction by ZEFSAII (Michael W. Deem and Ramdas Pophale) SiO2 
 PCOD9514844
Probable space group: F D D D
;
_chemical_formula_sum "Si O2"
_cell_formula_units_Z 176
_cell_length_a 19.416406
_cell_length_b 14.439816
_cell_length_c 25.164540
_cell_angle_alpha 90.000000
_cell_angle_beta 90.000000
_cell_angle_gamma 90.000000
_cell_volume 7055.365220
_symmetry_space_group_name_H-M "F D D D"
_symmetry_group_IT_number 70
_space_group.IT_coordinate_system_code '2'
_symmetry_cell_setting 'orthorhombic'
loop_
_space_group_symop_operation_xyz
x,y,z
1/4-x,1/4-y,z
x,1/4-y,1/4-z
1/4-x,y,1/4-z
-x,-y,-z
3/4+x,3/4+y,-z
-x,3/4+y,3/4+z
3/4+x,-y,3/4+z
x,1/2+y,1/2+z
1/4-x,3/4-y,1/2+z
x,3/4-y,3/4-z
1/4-x,1/2+y,3/4-z
-x,1/2-y,1/2-z
3/4+x,1/4+y,1/2-z
-x,1/4+y,1/4+z
3/4+x,1/2-y,1/4+z
1/2+x,y,1/2+z
3/4-x,1/4-y,1/2+z
1/2+x,1/4-y,3/4-z
3/4-x,y,3/4-z
1/2-x,-y,1/2-z
1/4+x,3/4+y,1/2-z
1/2-x,3/4+y,1/4+z
1/4+x,-y,1/4+z
1/2+x,1/2+y,z
3/4-x,3/4-y,z
1/2+x,3/4-y,1/4-z
3/4-x,1/2+y,1/4-z
1/2-x,1/2-y,-z
1/4+x,1/4+y,-z
1/2-x,1/4+y,3/4+z
1/4+x,1/2-y,3/4+z
loop_
_atom_site_type_symbol
_atom_site_label
_atom_site_fract_x
_atom_site_fract_y
_atom_site_fract_z
Si Si1 0.511467 0.030455 0.922737
Si Si2 0.638883 0.913392 0.933227
Si Si3 0.046734 0.144804 0.941456
Si Si4 0.022316 0.481563 0.709574
Si Si5 0.875000 0.018789 0.375000
Si Si6 0.663861 0.929378 0.706643
O O1 0.544068 0.069218 0.868191
O O2 0.490901 0.121848 0.955618
O O3 0.442132 0.975747 0.903853
O O4 0.572741 0.974461 0.949248
O O5 0.622924 0.875000 0.875000
O O6 0.709815 0.970574 0.928828
O O7 0.649796 0.842863 0.981718
O O8 0.125000 0.125000 0.955792
O O9 0.994973 0.056971 0.947470
O O10 0.020300 0.222866 0.982400
O O11 0.100913 0.494946 0.689215
O O12 0.903767 0.087415 0.329537
#
# Coordination Sequence:
#
# PCOD9514844 Si02
#       6
#    32  32  32  32  16  32
#     4  10  20  39  63  87 122 166 208 258 324 385
#     4  11  22  37  62  94 123 156 209 267 316 379
#     4  10  20  36  58  86 119 161 216 267 317 382
#     4  10  21  38  58  84 120 162 204 252 315 379
#     4   8  18  36  57  84 115 150 198 248 298 372
#     4   9  20  37  57  84 120 158 202 257 312 375
#
# _framework density 24.945556
#
# number of rings (size 3 to 8) (size 9 to 14) (size 15 to 20)
#    0.000    2.182    0.000    2.727    0.000    3.636 
#    0.000   22.273    0.000    4.909    0.000    0.000 
#    0.000    0.000    0.000    0.000    0.000    0.000 
#
# Total GULP energy -245750.601366 kJ/mol
# GULP energy per Si atom -5585.240940 kJ/mol
# Density = 2.488878 g / cm^3
# Si number density = 24.945556 Si / 1000 Ang^3
#
#
#
# Elastic Constant Matrix: (Units=GPa)
#
#
# Indices 1 2 3 4 5 6 
#
# 1 188.8227 42.3708 -9.2296 0.0000 0.0000 0.0000
# 2 42.3708 50.5169 23.1817 0.0000 0.0000 0.0000
# 3 -9.2296 23.1817 97.8704 0.0000 0.0000 0.0000
# 4 0.0000 0.0000 0.0000 18.8827 0.0000 0.0000
# 5 0.0000 0.0000 0.0000 0.0000 35.7970 0.0000
# 6 0.0000 0.0000 0.0000 0.0000 0.0000 27.4532
#
#
#
# Elastic Compliance Matrix: (Units=1/GPa)
#
#
# Indices 1 2 3 4 5 6 
#
# 1 0.006951 -0.006879 0.002285 0.000000 0.000000 0.000000
# 2 -0.006879 0.029016 -0.007522 0.000000 0.000000 0.000000
# 3 0.002285 -0.007522 0.012215 0.000000 0.000000 0.000000
# 4 0.000000 0.000000 0.000000 0.052959 0.000000 0.000000
# 5 0.000000 0.000000 0.000000 0.000000 0.027935 0.000000
# 6 0.000000 0.000000 0.000000 0.000000 0.000000 0.036426
#
#
# Mechanical properties :
#
#
# Convention : Reuss Voigt Hill
#
# Bulk Modulus (GPa) = 41.75142 49.98398 45.86770
# Shear Modulus (GPa) = 25.28869 35.15237 30.22053
#
# Velocity S-wave (km/s) = 3.18741 3.75796 3.48438
# Velocity P-wave (km/s) = 5.50631 6.23782 5.88344
#
# Compressibility (1/GPa) = 0.02395128
#
# Stress axis : x y z
#
# Youngs Moduli (GPa) = 143.85963 34.46317 81.86892
#
# Poissons Ratio (x) = 0.23707 -0.18706
# Poissons Ratio (y) = 0.98958 0.61578
# Poissons Ratio (z) = -0.32870 0.25922
#
# Static dielectric constant tensor:
#      x y z
#    x 2.127540 0.000000 0.000000 
#    y 0.000000 2.029340 0.000000 
#    z 0.000000 0.000000 1.967640 
# 
# From -- ./inp_files/59468.got.cif
#   From: 2010.05.17/outbox.cif.g08.bks.cpg/sg70_30_cif.got.tgz:59468.got - 2010.06.03 15:57:51.
