data_PCOD9514131
_publ_section_title
;
Structure prediction by ZEFSAII (Michael W. Deem and Ramdas Pophale) SiO2 
 PCOD9514131
Probable space group: F D D D
;
_chemical_formula_sum "Si O2"
_cell_formula_units_Z 176
_cell_length_a 21.274585
_cell_length_b 13.048609
_cell_length_c 30.481820
_cell_angle_alpha 90.000000
_cell_angle_beta 90.000000
_cell_angle_gamma 90.000000
_cell_volume 8461.867274
_symmetry_space_group_name_H-M "F D D D"
_symmetry_group_IT_number 70
_space_group.IT_coordinate_system_code '2'
_symmetry_cell_setting 'orthorhombic'
loop_
_space_group_symop_operation_xyz
x,y,z
1/4-x,1/4-y,z
x,1/4-y,1/4-z
1/4-x,y,1/4-z
-x,-y,-z
3/4+x,3/4+y,-z
-x,3/4+y,3/4+z
3/4+x,-y,3/4+z
x,1/2+y,1/2+z
1/4-x,3/4-y,1/2+z
x,3/4-y,3/4-z
1/4-x,1/2+y,3/4-z
-x,1/2-y,1/2-z
3/4+x,1/4+y,1/2-z
-x,1/4+y,1/4+z
3/4+x,1/2-y,1/4+z
1/2+x,y,1/2+z
3/4-x,1/4-y,1/2+z
1/2+x,1/4-y,3/4-z
3/4-x,y,3/4-z
1/2-x,-y,1/2-z
1/4+x,3/4+y,1/2-z
1/2-x,3/4+y,1/4+z
1/4+x,-y,1/4+z
1/2+x,1/2+y,z
3/4-x,3/4-y,z
1/2+x,3/4-y,1/4-z
3/4-x,1/2+y,1/4-z
1/2-x,1/2-y,-z
1/4+x,1/4+y,-z
1/2-x,1/4+y,3/4+z
1/4+x,1/2-y,3/4+z
loop_
_atom_site_type_symbol
_atom_site_label
_atom_site_fract_x
_atom_site_fract_y
_atom_site_fract_z
Si Si1 0.437058 0.703082 0.070983
Si Si2 0.989662 0.630990 0.961912
Si Si3 0.944968 0.493802 0.204063
Si Si4 0.920047 0.125000 0.625000
Si Si5 0.397745 0.268814 0.258844
Si Si6 0.706608 0.237355 0.457204
O O1 0.485890 0.795012 0.076107
O O2 0.378489 0.706651 0.103845
O O3 0.467596 0.590065 0.071500
O O4 0.404662 0.719762 0.022848
O O5 0.928317 0.561045 0.957919
O O6 0.046779 0.556420 0.975802
O O7 0.974536 0.706448 0.002749
O O8 0.956492 0.570350 0.163711
O O9 0.869503 0.491347 0.212907
O O10 0.967678 0.379729 0.192667
O O11 0.375000 0.375000 0.279549
O O12 0.750000 0.250000 0.500000
#
# Coordination Sequence:
#
# PCOD9514131 Si02
#       6
#    32  32  32  16  32  32
#     4  10  19  34  52  78 118 144 185 237 293 354
#     4  10  17  32  52  76 108 147 187 231 284 344
#     4  10  20  33  54  82 113 143 193 237 295 351
#     4  10  20  36  48  82 124 148 178 252 302 348
#     4   9  18  31  49  77 108 141 189 235 274 336
#     4  10  18  32  51  78 112 145 185 243 290 340
#
# _framework density 20.799192000000001
#
# number of rings (size 3 to 8) (size 9 to 14) (size 15 to 20)
#    0.000    2.182    5.455    0.000    0.000    0.000 
#   19.636    0.000    0.000    0.000    0.000   15.909 
#   21.818    0.000    0.000    0.000    0.000    0.000 
#
# Total GULP energy -245124.227651 kJ/mol
# GULP energy per Si atom -5571.005174 kJ/mol
# Density = 2.075185 g / cm^3
# Si number density = 20.799192 Si / 1000 Ang^3
#
#
#
# Elastic Constant Matrix: (Units=GPa)
#
#
# Indices 1 2 3 4 5 6 
#
# 1 42.4405 19.4629 8.0681 0.0000 0.0000 0.0000
# 2 19.4629 125.8534 14.1953 0.0000 0.0000 0.0000
# 3 8.0681 14.1953 15.4184 0.0000 0.0000 0.0000
# 4 0.0000 0.0000 0.0000 22.0433 0.0000 0.0000
# 5 0.0000 0.0000 0.0000 0.0000 14.3471 0.0000
# 6 0.0000 0.0000 0.0000 0.0000 0.0000 41.0671
#
#
#
# Elastic Compliance Matrix: (Units=1/GPa)
#
#
# Indices 1 2 3 4 5 6 
#
# 1 0.027075 -0.002889 -0.011508 0.000000 0.000000 0.000000
# 2 -0.002889 0.009175 -0.006935 0.000000 0.000000 0.000000
# 3 -0.011508 -0.006935 0.077264 0.000000 0.000000 0.000000
# 4 0.000000 0.000000 0.000000 0.045365 0.000000 0.000000
# 5 0.000000 0.000000 0.000000 0.000000 0.069700 0.000000
# 6 0.000000 0.000000 0.000000 0.000000 0.000000 0.024350
#
#
# Mechanical properties :
#
#
# Convention : Reuss Voigt Hill
#
# Bulk Modulus (GPa) = 14.11436 29.68499 21.89967
# Shear Modulus (GPa) = 15.66363 24.95723 20.31043
#
# Velocity S-wave (km/s) = 2.74722 3.46773 3.12829
# Velocity P-wave (km/s) = 4.10655 5.50788 4.85801
#
# Compressibility (1/GPa) = 0.07084985
#
# Stress axis : x y z
#
# Youngs Moduli (GPa) = 36.93447 108.99452 12.94260
#
# Poissons Ratio (x) = 0.31489 0.14894
# Poissons Ratio (y) = 0.10671 0.08976
# Poissons Ratio (z) = 0.42504 0.75589
#
# Static dielectric constant tensor:
#      x y z
#    x 1.765830 0.000000 0.000000 
#    y 0.000000 1.842500 0.000000 
#    z 0.000000 0.000000 1.741340 
# 
# From -- ./inp_files/61106.got.cif
#   From: 2010.05.17/outbox.cif.g08.bks.cpg/sg70_31_cif.got.tgz:61106.got - 2010.06.03 15:57:51.
