data_PCOD9514532
_publ_section_title
;
Structure prediction by ZEFSAII (Michael W. Deem and Ramdas Pophale) SiO2 
 PCOD9514532
Probable space group: F D D D
;
_chemical_formula_sum "Si O2"
_cell_formula_units_Z 216
_cell_length_a 25.286866
_cell_length_b 13.825810
_cell_length_c 29.116116
_cell_angle_alpha 90.000000
_cell_angle_beta 90.000000
_cell_angle_gamma 90.000000
_cell_volume 10179.326217
_symmetry_space_group_name_H-M "F D D D"
_symmetry_group_IT_number 70
_space_group.IT_coordinate_system_code '2'
_symmetry_cell_setting 'orthorhombic'
loop_
_space_group_symop_operation_xyz
x,y,z
1/4-x,1/4-y,z
x,1/4-y,1/4-z
1/4-x,y,1/4-z
-x,-y,-z
3/4+x,3/4+y,-z
-x,3/4+y,3/4+z
3/4+x,-y,3/4+z
x,1/2+y,1/2+z
1/4-x,3/4-y,1/2+z
x,3/4-y,3/4-z
1/4-x,1/2+y,3/4-z
-x,1/2-y,1/2-z
3/4+x,1/4+y,1/2-z
-x,1/4+y,1/4+z
3/4+x,1/2-y,1/4+z
1/2+x,y,1/2+z
3/4-x,1/4-y,1/2+z
1/2+x,1/4-y,3/4-z
3/4-x,y,3/4-z
1/2-x,-y,1/2-z
1/4+x,3/4+y,1/2-z
1/2-x,3/4+y,1/4+z
1/4+x,-y,1/4+z
1/2+x,1/2+y,z
3/4-x,3/4-y,z
1/2+x,3/4-y,1/4-z
3/4-x,1/2+y,1/4-z
1/2-x,1/2-y,-z
1/4+x,1/4+y,-z
1/2-x,1/4+y,3/4+z
1/4+x,1/2-y,3/4+z
loop_
_atom_site_type_symbol
_atom_site_label
_atom_site_fract_x
_atom_site_fract_y
_atom_site_fract_z
Si Si1 0.951120 0.625000 0.625000
Si Si2 0.783037 0.006256 0.357651
Si Si3 0.229597 0.413620 0.440338
Si Si4 0.064461 0.414782 0.710383
Si Si5 0.181067 0.933191 0.233587
Si Si6 0.025241 0.121071 0.210071
Si Si7 0.625000 0.625000 0.625000
Si Si8 0.381931 0.987973 0.576798
O O1 0.914232 0.532654 0.618212
O O2 0.987233 0.603877 0.667828
O O3 0.739345 0.942101 0.331374
O O4 0.770002 0.985589 0.411776
O O5 0.836753 0.946559 0.347580
O O6 0.791196 0.110713 0.334616
O O7 0.224030 0.397874 0.495359
O O8 0.173378 0.458420 0.427512
O O9 0.126267 0.384190 0.717448
O O10 0.065216 0.531836 0.710369
O O11 0.235016 0.875342 0.246010
O O12 0.198157 0.024639 0.203254
O O13 0.164856 0.984201 0.281583
O O14 0.375000 0.875000 0.579723
#
# Coordination Sequence:
#
# PCOD9514532 Si02
#       8
#    16  32  32  32  32  32   8  32
#     4  10  22  37  53  90 124 145 191 266 304 372
#     4  10  21  38  62  88 127 169 207 262 325 382
#     4   9  20  38  60  86 124 160 206 263 311 379
#     4  11  21  37  64  94 118 164 221 257 320 394
#     4   9  20  39  60  85 121 167 201 258 314 386
#     4  10  21  39  59  87 125 155 207 258 321 380
#     4   8  20  42  52  84 130 168 206 252 320 400
#     4  10  19  35  63  84 113 160 207 247 318 375
#
# _framework density 21.219479
#
# number of rings (size 3 to 8) (size 9 to 14) (size 15 to 20)
#    0.000    2.370    0.000    3.556    2.074    2.370 
#    2.667    0.741    0.000    0.000    0.000    0.000 
#    0.000    0.000    0.000    0.000    0.000    0.000 
#
# Total GULP energy -300704.326889 kJ/mol
# GULP energy per Si atom -5568.598646 kJ/mol
# Density = 2.117118 g / cm^3
# Si number density = 21.219479 Si / 1000 Ang^3
#
#
#
# Elastic Constant Matrix: (Units=GPa)
#
#
# Indices 1 2 3 4 5 6 
#
# 1 80.7827 16.5422 7.9169 0.0000 0.0000 0.0000
# 2 16.5422 60.5324 11.8237 0.0000 0.0000 0.0000
# 3 7.9169 11.8237 42.7481 0.0000 0.0000 0.0000
# 4 0.0000 0.0000 0.0000 28.8658 0.0000 0.0000
# 5 0.0000 0.0000 0.0000 0.0000 -15.8140 0.0000
# 6 0.0000 0.0000 0.0000 0.0000 0.0000 22.6556
#
#
#
# Elastic Compliance Matrix: (Units=1/GPa)
#
#
# Indices 1 2 3 4 5 6 
#
# 1 0.013207 -0.003310 -0.001530 0.000000 0.000000 0.000000
# 2 -0.003310 0.018293 -0.004447 0.000000 0.000000 0.000000
# 3 -0.001530 -0.004447 0.024906 0.000000 0.000000 0.000000
# 4 0.000000 0.000000 0.000000 0.034643 0.000000 0.000000
# 5 0.000000 0.000000 0.000000 0.000000 -0.063235 0.000000
# 6 0.000000 0.000000 0.000000 0.000000 0.000000 0.044139
#
#
# Mechanical properties :
#
#
# Convention : Reuss Voigt Hill
#
# Bulk Modulus (GPa) = 26.43281 28.51432 27.47356
# Shear Modulus (GPa) = 48.47864 16.99351 32.73607
#
# Velocity S-wave (km/s) = 4.78496 2.83299 3.93203
# Velocity P-wave (km/s) = 6.55833 4.91610 5.79568
#
# Compressibility (1/GPa) = 0.03783177
#
# Stress axis : x y z
#
# Youngs Moduli (GPa) = 75.71910 54.66498 40.15068
#
# Poissons Ratio (x) = 0.18095 0.06144
# Poissons Ratio (y) = 0.25065 0.17854
# Poissons Ratio (z) = 0.11587 0.24308
#
# Static dielectric constant tensor:
#      x y z
#    x 1.816740 0.000000 0.000000 
#    y 0.000000 1.809510 0.000000 
#    z 0.000000 0.000000 1.892280 
# 
# From -- ./inp_files/68508.got.cif
#   From: 2010.05.17/outbox.cif.g08.bks.cpg/sg70_35_cif.got.tgz:68508.got - 2010.06.03 15:57:51.
