data_PCOD9514372
_publ_section_title
;
Structure prediction by ZEFSAII (Michael W. Deem and Ramdas Pophale) SiO2 
 PCOD9514372
Probable space group: F D D D
;
_chemical_formula_sum "Si O2"
_cell_formula_units_Z 192
_cell_length_a 13.118483
_cell_length_b 26.343581
_cell_length_c 24.151639
_cell_angle_alpha 90.000000
_cell_angle_beta 90.000000
_cell_angle_gamma 90.000000
_cell_volume 8346.512260
_symmetry_space_group_name_H-M "F D D D"
_symmetry_group_IT_number 70
_space_group.IT_coordinate_system_code '2'
_symmetry_cell_setting 'orthorhombic'
loop_
_space_group_symop_operation_xyz
x,y,z
1/4-x,1/4-y,z
x,1/4-y,1/4-z
1/4-x,y,1/4-z
-x,-y,-z
3/4+x,3/4+y,-z
-x,3/4+y,3/4+z
3/4+x,-y,3/4+z
x,1/2+y,1/2+z
1/4-x,3/4-y,1/2+z
x,3/4-y,3/4-z
1/4-x,1/2+y,3/4-z
-x,1/2-y,1/2-z
3/4+x,1/4+y,1/2-z
-x,1/4+y,1/4+z
3/4+x,1/2-y,1/4+z
1/2+x,y,1/2+z
3/4-x,1/4-y,1/2+z
1/2+x,1/4-y,3/4-z
3/4-x,y,3/4-z
1/2-x,-y,1/2-z
1/4+x,3/4+y,1/2-z
1/2-x,3/4+y,1/4+z
1/4+x,-y,1/4+z
1/2+x,1/2+y,z
3/4-x,3/4-y,z
1/2+x,3/4-y,1/4-z
3/4-x,1/2+y,1/4-z
1/2-x,1/2-y,-z
1/4+x,1/4+y,-z
1/2-x,1/4+y,3/4+z
1/4+x,1/2-y,3/4+z
loop_
_atom_site_type_symbol
_atom_site_label
_atom_site_fract_x
_atom_site_fract_y
_atom_site_fract_z
Si Si1 0.021126 0.723698 0.330186
Si Si2 0.734747 0.473165 0.428478
Si Si3 0.243394 0.292427 0.081617
Si Si4 0.701686 0.492834 0.546367
Si Si5 0.784480 0.125000 0.625000
Si Si6 0.129569 0.445029 0.782197
Si Si7 0.625000 0.125000 0.357717
O O1 0.113717 0.763699 0.325496
O O2 0.065009 0.667062 0.321075
O O3 0.986654 0.722863 0.394430
O O4 0.920309 0.739828 0.296978
O O5 0.782246 0.518520 0.392666
O O6 0.750645 0.465650 0.493374
O O7 0.771776 0.422565 0.399989
O O8 0.312622 0.245683 0.056754
O O9 0.302787 0.342322 0.101912
O O10 0.171284 0.308539 0.030316
O O11 0.757985 0.546574 0.537272
O O12 0.844349 0.148910 0.572869
#
# Coordination Sequence:
#
# PCOD9514372 Si02
#       7
#    32  32  32  32  16  32  16
#     4  10  22  41  61  93 129 175 225 281 341 419
#     4  10  21  41  62  93 132 173 224 281 341 412
#     4   9  20  38  65  91 132 172 222 284 339 404
#     4  11  21  40  66  88 130 184 213 275 356 401
#     4  10  20  38  61  95 128 168 226 284 324 408
#     4  10  20  39  63  95 130 176 218 281 341 406
#     4  10  18  40  62  91 126 173 230 284 346 412
#
# _framework density 23.003620000000002
#
# number of rings (size 3 to 8) (size 9 to 14) (size 15 to 20)
#    0.000    2.000    5.000    0.500    2.333    0.667 
#    6.000    1.667    0.000    9.500    0.000    0.000 
#    0.000    0.000    0.000    0.000    0.000    0.000 
#
# Total GULP energy -267321.360740 kJ/mol
# GULP energy per Si atom -5569.195015 kJ/mol
# Density = 2.295126 g / cm^3
# Si number density = 23.003620 Si / 1000 Ang^3
#
#
#
# Elastic Constant Matrix: (Units=GPa)
#
#
# Indices 1 2 3 4 5 6 
#
# 1 106.0173 33.3057 40.5701 0.0000 0.0000 0.0000
# 2 33.3057 110.9284 35.5986 0.0000 0.0000 0.0000
# 3 40.5701 35.5986 151.8718 0.0000 0.0000 0.0000
# 4 0.0000 0.0000 0.0000 22.7146 0.0000 0.0000
# 5 0.0000 0.0000 0.0000 0.0000 32.3207 0.0000
# 6 0.0000 0.0000 0.0000 0.0000 0.0000 -3.9321
#
#
#
# Elastic Compliance Matrix: (Units=1/GPa)
#
#
# Indices 1 2 3 4 5 6 
#
# 1 0.011153 -0.002587 -0.002373 0.000000 0.000000 0.000000
# 2 -0.002587 0.010348 -0.001734 0.000000 0.000000 0.000000
# 3 -0.002373 -0.001734 0.007625 0.000000 0.000000 0.000000
# 4 0.000000 0.000000 0.000000 0.044024 0.000000 0.000000
# 5 0.000000 0.000000 0.000000 0.000000 0.030940 0.000000
# 6 0.000000 0.000000 0.000000 0.000000 0.000000 -0.254316
#
#
# Mechanical properties :
#
#
# Convention : Reuss Voigt Hill
#
# Bulk Modulus (GPa) = 63.54390 65.30738 64.42564
# Shear Modulus (GPa) = -37.99688 27.51019 -5.24334
#
# Velocity S-wave (km/s) = -4.06862 3.46194 -1.51139
# Velocity P-wave (km/s) = 2.36894 6.66571 5.00218
#
# Compressibility (1/GPa) = 0.01573715
#
# Stress axis : x y z
#
# Youngs Moduli (GPa) = 89.65977 96.63476 131.14816
#
# Poissons Ratio (x) = 0.25001 0.31121
# Poissons Ratio (y) = 0.23197 0.22747
# Poissons Ratio (z) = 0.21276 0.16761
#
# Static dielectric constant tensor:
#      x y z
#    x 2.064640 0.000000 0.000000 
#    y 0.000000 1.854090 0.000000 
#    z 0.000000 0.000000 1.971550 
# 
# From -- ./inp_files/58747.got.cif
#   From: 2010.05.17/outbox.cif.g08.bks.cpg/sg70_30_cif.got.tgz:58747.got - 2010.06.03 15:57:51.
