data_PCOD9514778
_publ_section_title
;
Structure prediction by ZEFSAII (Michael W. Deem and Ramdas Pophale) SiO2 
 PCOD9514778
Probable space group: F D D D
;
_chemical_formula_sum "Si O2"
_cell_formula_units_Z 160
_cell_length_a 14.196561
_cell_length_b 24.286576
_cell_length_c 26.436414
_cell_angle_alpha 90.000000
_cell_angle_beta 90.000000
_cell_angle_gamma 90.000000
_cell_volume 9114.901675
_symmetry_space_group_name_H-M "F D D D"
_symmetry_group_IT_number 70
_space_group.IT_coordinate_system_code '2'
_symmetry_cell_setting 'orthorhombic'
loop_
_space_group_symop_operation_xyz
x,y,z
1/4-x,1/4-y,z
x,1/4-y,1/4-z
1/4-x,y,1/4-z
-x,-y,-z
3/4+x,3/4+y,-z
-x,3/4+y,3/4+z
3/4+x,-y,3/4+z
x,1/2+y,1/2+z
1/4-x,3/4-y,1/2+z
x,3/4-y,3/4-z
1/4-x,1/2+y,3/4-z
-x,1/2-y,1/2-z
3/4+x,1/4+y,1/2-z
-x,1/4+y,1/4+z
3/4+x,1/2-y,1/4+z
1/2+x,y,1/2+z
3/4-x,1/4-y,1/2+z
1/2+x,1/4-y,3/4-z
3/4-x,y,3/4-z
1/2-x,-y,1/2-z
1/4+x,3/4+y,1/2-z
1/2-x,3/4+y,1/4+z
1/4+x,-y,1/4+z
1/2+x,1/2+y,z
3/4-x,3/4-y,z
1/2+x,3/4-y,1/4-z
3/4-x,1/2+y,1/4-z
1/2-x,1/2-y,-z
1/4+x,1/4+y,-z
1/2-x,1/4+y,3/4+z
1/4+x,1/2-y,3/4+z
loop_
_atom_site_type_symbol
_atom_site_label
_atom_site_fract_x
_atom_site_fract_y
_atom_site_fract_z
Si Si1 0.272671 0.401547 0.544414
Si Si2 0.473789 0.279114 0.943260
Si Si3 0.778042 0.905285 0.662551
Si Si4 0.745692 0.531769 0.175847
Si Si5 0.659670 0.874190 0.993576
O O1 0.375000 0.375000 0.536019
O O2 0.259775 0.467989 0.542393
O O3 0.252574 0.392602 0.604432
O O4 0.201377 0.375134 0.503887
O O5 0.487023 0.294232 0.883884
O O6 0.360073 0.281592 0.949626
O O7 0.536170 0.322620 0.973294
O O8 0.875000 0.875000 0.674335
O O9 0.698783 0.886190 0.700513
O O10 0.786547 0.970191 0.673908
O O11 0.808742 0.574288 0.206913
#
# Coordination Sequence:
#
# PCOD9514778 Si02
#       5
#    32  32  32  32  32
#     4  10  23  40  53  77 117 154 186 231 273 318
#     4  10  21  37  57  84 116 143 180 234 286 334
#     4  10  20  34  57  85 114 141 183 232 281 334
#     4  10  20  36  56  87 119 140 172 236 299 330
#     4  12  21  32  60  85 112 146 189 222 284 346
#
# _framework density 17.553673
#
# number of rings (size 3 to 8) (size 9 to 14) (size 15 to 20)
#    0.000    1.600    2.000    3.600    2.800    2.400 
#    0.000    0.000    0.000    2.400    0.000    0.000 
#    0.000    0.000    0.000    0.000    0.000    0.000 
#
# Total GULP energy -223058.906281 kJ/mol
# GULP energy per Si atom -5576.472657 kJ/mol
# Density = 1.751372 g / cm^3
# Si number density = 17.553673 Si / 1000 Ang^3
#
#
#
# Elastic Constant Matrix: (Units=GPa)
#
#
# Indices 1 2 3 4 5 6 
#
# 1 497.3034 379.4268 459.5578 0.0000 0.0000 0.0000
# 2 379.4268 335.7898 372.0402 0.0000 0.0000 0.0000
# 3 459.5578 372.0402 470.5032 0.0000 0.0000 0.0000
# 4 0.0000 0.0000 0.0000 34.3328 0.0000 0.0000
# 5 0.0000 0.0000 0.0000 0.0000 25.8006 0.0000
# 6 0.0000 0.0000 0.0000 0.0000 0.0000 28.7823
#
#
#
# Elastic Compliance Matrix: (Units=1/GPa)
#
#
# Indices 1 2 3 4 5 6 
#
# 1 0.023668 -0.009125 -0.015902 0.000000 0.000000 0.000000
# 2 -0.009125 0.027552 -0.012874 0.000000 0.000000 0.000000
# 3 -0.015902 -0.012874 0.027837 0.000000 0.000000 0.000000
# 4 0.000000 0.000000 0.000000 0.029127 0.000000 0.000000
# 5 0.000000 0.000000 0.000000 0.000000 0.038759 0.000000
# 6 0.000000 0.000000 0.000000 0.000000 0.000000 0.034744
#
#
# Mechanical properties :
#
#
# Convention : Reuss Voigt Hill
#
# Bulk Modulus (GPa) = 307.12565 413.96065 360.54315
# Shear Modulus (GPa) = 19.33695 23.95458 21.64576
#
# Velocity S-wave (km/s) = 3.32262 3.69812 3.51539
# Velocity P-wave (km/s) = 13.78635 15.95533 14.91033
#
# Compressibility (1/GPa) = 0.00325600
#
# Stress axis : x y z
#
# Youngs Moduli (GPa) = 42.25171 36.29438 35.92360
#
# Poissons Ratio (x) = 0.33119 0.57125
# Poissons Ratio (y) = 0.38555 0.46247
# Poissons Ratio (z) = 0.67187 0.46725
#
# Static dielectric constant tensor:
#      x y z
#    x 1.629910 0.000000 0.000000 
#    y 0.000000 1.609910 0.000000 
#    z 0.000000 0.000000 1.615790 
# 
# From -- ./inp_files/20843.got.cif
#   From: 2010.05.17/outbox.cif.g08.bks.cpg/sg70_11_cif.got.tgz:20843.got - 2010.06.03 15:57:51.
