data_PCOD9514795
_publ_section_title
;
Structure prediction by ZEFSAII (Michael W. Deem and Ramdas Pophale) SiO2 
 PCOD9514795
Probable space group: F D D D
;
_chemical_formula_sum "Si O2"
_cell_formula_units_Z 160
_cell_length_a 8.527089
_cell_length_b 26.682118
_cell_length_c 37.745053
_cell_angle_alpha 90.000000
_cell_angle_beta 90.000000
_cell_angle_gamma 90.000000
_cell_volume 8587.784462
_symmetry_space_group_name_H-M "F D D D"
_symmetry_group_IT_number 70
_space_group.IT_coordinate_system_code '2'
_symmetry_cell_setting 'orthorhombic'
loop_
_space_group_symop_operation_xyz
x,y,z
1/4-x,1/4-y,z
x,1/4-y,1/4-z
1/4-x,y,1/4-z
-x,-y,-z
3/4+x,3/4+y,-z
-x,3/4+y,3/4+z
3/4+x,-y,3/4+z
x,1/2+y,1/2+z
1/4-x,3/4-y,1/2+z
x,3/4-y,3/4-z
1/4-x,1/2+y,3/4-z
-x,1/2-y,1/2-z
3/4+x,1/4+y,1/2-z
-x,1/4+y,1/4+z
3/4+x,1/2-y,1/4+z
1/2+x,y,1/2+z
3/4-x,1/4-y,1/2+z
1/2+x,1/4-y,3/4-z
3/4-x,y,3/4-z
1/2-x,-y,1/2-z
1/4+x,3/4+y,1/2-z
1/2-x,3/4+y,1/4+z
1/4+x,-y,1/4+z
1/2+x,1/2+y,z
3/4-x,3/4-y,z
1/2+x,3/4-y,1/4-z
3/4-x,1/2+y,1/4-z
1/2-x,1/2-y,-z
1/4+x,1/4+y,-z
1/2-x,1/4+y,3/4+z
1/4+x,1/2-y,3/4+z
loop_
_atom_site_type_symbol
_atom_site_label
_atom_site_fract_x
_atom_site_fract_y
_atom_site_fract_z
Si Si1 0.625000 0.125000 0.125000
Si Si2 0.357502 0.154972 0.754350
Si Si3 0.125000 0.625000 0.625000
Si Si4 0.193946 0.785381 0.163768
Si Si5 0.375000 0.875000 0.196214
Si Si6 0.963267 0.952125 0.523203
Si Si7 0.123077 0.933954 0.328004
O O1 0.730159 0.092167 0.098851
O O2 0.513707 0.157156 0.777743
O O3 0.220408 0.188966 0.771445
O O4 0.297822 0.097511 0.757720
O O5 0.381114 0.168517 0.713264
O O6 0.228566 0.661610 0.599683
O O7 0.273903 0.838398 0.172007
O O8 0.323944 0.742339 0.170661
O O9 0.125000 0.780396 0.125000
O O10 0.043645 0.784612 0.189705
O O11 0.000000 0.000000 0.500000
#
# Coordination Sequence:
#
# PCOD9514795 Si02
#       7
#     8  32   8  32  16  32  32
#     4  10  20  34  64  90 124 158 202 266 316 382
#     4  10  21  39  64  90 122 164 212 268 319 374
#     4  10  26  38  56 100 136 166 198 254 344 400
#     4  11  24  43  65  92 125 170 214 265 324 383
#     4  10  25  44  58  92 130 166 216 264 321 385
#     4  10  20  38  64  95 119 162 215 261 317 384
#     4  11  21  41  62  93 128 163 209 262 324 390
#
# _framework density 18.631115000000001
#
# number of rings (size 3 to 8) (size 9 to 14) (size 15 to 20)
#    0.000    1.600    3.000    1.800    0.000    4.000 
#    9.000    0.000    0.000    0.000    0.000    0.000 
#    0.000    0.000    0.000    0.000    0.000    0.000 
#
# Total GULP energy -223127.359951 kJ/mol
# GULP energy per Si atom -5578.183999 kJ/mol
# Density = 1.858871 g / cm^3
# Si number density = 18.631115 Si / 1000 Ang^3
#
#
#
# Elastic Constant Matrix: (Units=GPa)
#
#
# Indices 1 2 3 4 5 6 
#
# 1 103.6487 31.9609 51.3275 0.0000 0.0000 0.0000
# 2 31.9609 78.3717 59.9723 0.0000 0.0000 0.0000
# 3 51.3275 59.9723 143.2355 0.0000 0.0000 0.0000
# 4 0.0000 0.0000 0.0000 18.2744 0.0000 0.0000
# 5 0.0000 0.0000 0.0000 0.0000 16.0673 0.0000
# 6 0.0000 0.0000 0.0000 0.0000 0.0000 16.7708
#
#
#
# Elastic Compliance Matrix: (Units=1/GPa)
#
#
# Indices 1 2 3 4 5 6 
#
# 1 0.012020 -0.002363 -0.003318 0.000000 0.000000 0.000000
# 2 -0.002363 0.019240 -0.007209 0.000000 0.000000 0.000000
# 3 -0.003318 -0.007209 0.011189 0.000000 0.000000 0.000000
# 4 0.000000 0.000000 0.000000 0.054721 0.000000 0.000000
# 5 0.000000 0.000000 0.000000 0.000000 0.062238 0.000000
# 6 0.000000 0.000000 0.000000 0.000000 0.000000 0.059628
#
#
# Mechanical properties :
#
#
# Convention : Reuss Voigt Hill
#
# Bulk Modulus (GPa) = 59.99171 67.97526 63.98349
# Shear Modulus (GPa) = 19.97038 22.35550 21.16294
#
# Velocity S-wave (km/s) = 3.27751 3.46772 3.37396
# Velocity P-wave (km/s) = 6.82587 7.25241 7.04237
#
# Compressibility (1/GPa) = 0.01666897
#
# Stress axis : x y z
#
# Youngs Moduli (GPa) = 83.19751 51.97557 89.37505
#
# Poissons Ratio (x) = 0.12281 0.29653
# Poissons Ratio (y) = 0.19658 0.64430
# Poissons Ratio (z) = 0.27604 0.37469
#
# Static dielectric constant tensor:
#      x y z
#    x 1.640560 0.000000 0.000000 
#    y 0.000000 1.647650 0.000000 
#    z 0.000000 0.000000 1.700930 
# 
# From -- ./inp_files/63965.got.cif
#   From: 2010.05.17/outbox.cif.g08.bks.cpg/sg70_32_cif.got.tgz:63965.got - 2010.06.03 15:57:51.
