data_PCOD9514013
_publ_section_title
;
Structure prediction by ZEFSAII (Michael W. Deem and Ramdas Pophale) SiO2 
 PCOD9514013
Probable space group: F M M M
;
_chemical_formula_sum "Si O2"
_cell_formula_units_Z 34
_cell_length_a 12.000000
_cell_length_b 21.000000
_cell_length_c 27.000000
_cell_angle_alpha 90.000000
_cell_angle_beta 90.000000
_cell_angle_gamma 90.000000
_cell_volume 6804.000000
_symmetry_space_group_name_H-M "F M M M"
_symmetry_group_IT_number 69
_symmetry_cell_setting 'orthorhombic'
loop_
_space_group_symop_operation_xyz
x,y,z
-x,-y,z
x,-y,-z
-x,y,-z
-x,-y,-z
x,y,-z
-x,y,z
x,-y,z
x,1/2+y,1/2+z
-x,1/2-y,1/2+z
x,1/2-y,1/2-z
-x,1/2+y,1/2-z
-x,1/2-y,1/2-z
x,1/2+y,1/2-z
-x,1/2+y,1/2+z
x,1/2-y,1/2+z
1/2+x,y,1/2+z
1/2-x,-y,1/2+z
1/2+x,-y,1/2-z
1/2-x,y,1/2-z
1/2-x,-y,1/2-z
1/2+x,y,1/2-z
1/2-x,y,1/2+z
1/2+x,-y,1/2+z
1/2+x,1/2+y,z
1/2-x,1/2-y,z
1/2+x,1/2-y,-z
1/2-x,1/2+y,-z
1/2-x,1/2-y,-z
1/2+x,1/2+y,-z
1/2-x,1/2+y,z
1/2+x,1/2-y,z
loop_
_atom_site_type_symbol
_atom_site_label
_atom_site_fract_x
_atom_site_fract_y
_atom_site_fract_z
Si Si1 0.236710 0.678049 0.557778
Si Si2 0.236764 0.500000 0.309192
Si Si3 0.625108 0.177010 0.766002
Si Si4 0.000000 0.887593 0.057287
Si Si5 0.500000 0.500000 0.862087
Si Si6 0.126210 0.110204 0.362592
O O1 0.266605 0.677526 0.500000
O O2 0.250000 0.750000 0.576268
O O3 0.110262 0.654661 0.562823
O O4 0.315475 0.630760 0.587428
O O5 0.250000 0.500000 0.250000
O O6 0.300511 0.440791 0.333550
O O7 0.109521 0.500000 0.327775
O O8 0.500000 0.149375 0.749916
O O9 0.623097 0.250000 0.750000
O O10 0.750000 0.152467 0.750000
O O11 0.623895 0.169660 0.824981
O O12 0.000000 0.940299 0.100123
O O13 0.000000 0.912982 0.000000
O O14 0.000000 0.087742 0.369839
#
# Coordination Sequence:
#
# PCOD9514013 Si02
#       6
#    32  16  32  16   8  32
#     4  10  23  42  66  99 137 176 217 270 341 411
#     4  12  27  47  68  94 133 177 226 275 334 399
#     4   9  19  37  57  87 122 161 209 266 325 384
#     4  10  21  44  72 103 136 170 227 294 345 408
#     4  12  23  46  76 102 126 182 233 284 352 400
#     4  11  24  43  65  92 130 171 219 274 332 397
#
# _framework density 4.9970610000000004
#
# number of rings (size 3 to 8) (size 9 to 14) (size 15 to 20)
#    0.000    1.647    2.353    1.235    6.588    0.471 
#    4.235    0.588    0.000    1.412    0.000    0.000 
#    0.000    0.000    0.000    0.000    0.000    0.000 
#
# Total GULP energy -189536.357801 kJ/mol
# GULP energy per Si atom -5574.598759 kJ/mol
# Density = 0.498569 g / cm^3
# Si number density = 4.997061 Si / 1000 Ang^3
#
#
#
# Elastic Constant Matrix: (Units=GPa)
#
#
# Indices 1 2 3 4 5 6 
#
# 1 209.4073 35.4460 78.1731 0.0000 0.0000 0.0000
# 2 35.4460 90.5635 61.4640 0.0000 0.0000 0.0000
# 3 78.1731 61.4640 101.2784 0.0000 0.0000 0.0000
# 4 0.0000 0.0000 0.0000 -6.1126 0.0000 0.0000
# 5 0.0000 0.0000 0.0000 0.0000 36.3418 0.0000
# 6 0.0000 0.0000 0.0000 0.0000 0.0000 9.1694
#
#
#
# Elastic Compliance Matrix: (Units=1/GPa)
#
#
# Indices 1 2 3 4 5 6 
#
# 1 0.006832 0.001539 -0.006207 0.000000 0.000000 0.000000
# 2 0.001539 0.019122 -0.012792 0.000000 0.000000 0.000000
# 3 -0.006207 -0.012792 0.022428 0.000000 0.000000 0.000000
# 4 0.000000 0.000000 0.000000 -0.163598 0.000000 0.000000
# 5 0.000000 0.000000 0.000000 0.000000 0.027517 0.000000
# 6 0.000000 0.000000 0.000000 0.000000 0.000000 0.109058
#
#
# Mechanical properties :
#
#
# Convention : Reuss Voigt Hill
#
# Bulk Modulus (GPa) = 74.29164 83.49059 78.89112
# Shear Modulus (GPa) = 82.28046 22.95748 52.61897
#
# Velocity S-wave (km/s) = 6.42291 3.39270 5.13635
# Velocity P-wave (km/s) = 9.60486 7.56358 8.64469
#
# Compressibility (1/GPa) = 0.01346046
#
# Stress axis : x y z
#
# Youngs Moduli (GPa) = 146.36662 52.29675 44.58633
#
# Poissons Ratio (x) = -0.08047 0.27676
# Poissons Ratio (y) = -0.22522 0.57036
# Poissons Ratio (z) = 0.90855 0.66900
#
# Static dielectric constant tensor:
#      x y z
#    x 1.731350 0.000000 0.000000 
#    y 0.000000 1.715710 0.000000 
#    z 0.000000 0.000000 1.679600 
# 
# From -- ./inp_files/10203.got.cif
#   From: 2010.05.17/outbox.ucp.g08.bks.cvg/sg69_6_cif.got.tgz:10203.got - 2010.06.11 16:51:34.
