data_PCOD9514375
_publ_section_title
;
Structure prediction by ZEFSAII (Michael W. Deem and Ramdas Pophale) SiO2 
 PCOD9514375
Probable space group: F D D D
;
_chemical_formula_sum "Si O2"
_cell_formula_units_Z 240
_cell_length_a 27.532029
_cell_length_b 28.526083
_cell_length_c 15.609811
_cell_angle_alpha 90.000000
_cell_angle_beta 90.000000
_cell_angle_gamma 90.000000
_cell_volume 12259.648105
_symmetry_space_group_name_H-M "F D D D"
_symmetry_group_IT_number 70
_space_group.IT_coordinate_system_code '2'
_symmetry_cell_setting 'orthorhombic'
loop_
_space_group_symop_operation_xyz
x,y,z
1/4-x,1/4-y,z
x,1/4-y,1/4-z
1/4-x,y,1/4-z
-x,-y,-z
3/4+x,3/4+y,-z
-x,3/4+y,3/4+z
3/4+x,-y,3/4+z
x,1/2+y,1/2+z
1/4-x,3/4-y,1/2+z
x,3/4-y,3/4-z
1/4-x,1/2+y,3/4-z
-x,1/2-y,1/2-z
3/4+x,1/4+y,1/2-z
-x,1/4+y,1/4+z
3/4+x,1/2-y,1/4+z
1/2+x,y,1/2+z
3/4-x,1/4-y,1/2+z
1/2+x,1/4-y,3/4-z
3/4-x,y,3/4-z
1/2-x,-y,1/2-z
1/4+x,3/4+y,1/2-z
1/2-x,3/4+y,1/4+z
1/4+x,-y,1/4+z
1/2+x,1/2+y,z
3/4-x,3/4-y,z
1/2+x,3/4-y,1/4-z
3/4-x,1/2+y,1/4-z
1/2-x,1/2-y,-z
1/4+x,1/4+y,-z
1/2-x,1/4+y,3/4+z
1/4+x,1/2-y,3/4+z
loop_
_atom_site_type_symbol
_atom_site_label
_atom_site_fract_x
_atom_site_fract_y
_atom_site_fract_z
Si Si1 0.147924 0.524097 0.242191
Si Si2 0.553160 0.242222 0.713845
Si Si3 0.625179 0.818384 0.269380
Si Si4 0.852859 0.580180 0.711793
Si Si5 0.541924 0.241295 0.512536
Si Si6 0.368051 0.930754 0.570999
Si Si7 0.762611 0.125000 0.125000
Si Si8 0.043407 0.209130 0.584251
O O1 0.146806 0.467843 0.239086
O O2 0.142738 0.544342 0.337753
O O3 0.195408 0.537513 0.186507
O O4 0.097144 0.539799 0.202216
O O5 0.500000 0.250000 0.750000
O O6 0.583083 0.290453 0.723098
O O7 0.543349 0.233372 0.614026
O O8 0.586819 0.205191 0.768142
O O9 0.629807 0.872437 0.242758
O O10 0.618177 0.821199 0.372550
O O11 0.673167 0.786537 0.255798
O O12 0.798715 0.592674 0.679736
O O13 0.569229 0.195452 0.478202
O O14 0.491863 0.253356 0.462606
O O15 0.375000 0.875000 0.578633
O O16 0.730303 0.091228 0.068206
#
# Coordination Sequence:
#
# PCOD9514375 Si02
#       8
#    32  32  32  32  32  32  16  32
#     4  11  24  41  63  91 144 164 213 288 336 388
#     4  11  23  42  66  93 133 168 215 276 331 393
#     4   9  18  38  64  93 115 169 215 254 321 391
#     4  10  18  40  66  89 124 169 212 276 317 394
#     4  11  21  42  67  90 131 174 218 268 325 403
#     4  11  24  44  65  95 128 176 225 272 331 406
#     4  10  20  39  66  86 124 170 230 249 334 406
#     4  11  24  41  61 101 129 175 217 272 341 398
#
# _framework density 19.576419000000001
#
# number of rings (size 3 to 8) (size 9 to 14) (size 15 to 20)
#    0.000    1.600    5.333    2.400    1.867    3.733 
#    7.200    0.000    0.000    0.000    0.000    0.000 
#    0.000    0.000    0.000    0.000    0.000    0.000 
#
# Total GULP energy -334200.781911 kJ/mol
# GULP energy per Si atom -5570.013032 kJ/mol
# Density = 1.953186 g / cm^3
# Si number density = 19.576419 Si / 1000 Ang^3
#
#
#
# Elastic Constant Matrix: (Units=GPa)
#
#
# Indices 1 2 3 4 5 6 
#
# 1 100.9097 8.8101 39.6786 0.0000 0.0000 0.0000
# 2 8.8101 92.5343 24.0197 0.0000 0.0000 0.0000
# 3 39.6786 24.0197 99.9693 0.0000 0.0000 0.0000
# 4 0.0000 0.0000 0.0000 16.8185 0.0000 0.0000
# 5 0.0000 0.0000 0.0000 0.0000 21.6953 0.0000
# 6 0.0000 0.0000 0.0000 0.0000 0.0000 18.1239
#
#
#
# Elastic Compliance Matrix: (Units=1/GPa)
#
#
# Indices 1 2 3 4 5 6 
#
# 1 0.011743 0.000098 -0.004685 0.000000 0.000000 0.000000
# 2 0.000098 0.011526 -0.002808 0.000000 0.000000 0.000000
# 3 -0.004685 -0.002808 0.012537 0.000000 0.000000 0.000000
# 4 0.000000 0.000000 0.000000 0.059458 0.000000 0.000000
# 5 0.000000 0.000000 0.000000 0.000000 0.046093 0.000000
# 6 0.000000 0.000000 0.000000 0.000000 0.000000 0.055176
#
#
# Mechanical properties :
#
#
# Convention : Reuss Voigt Hill
#
# Bulk Modulus (GPa) = 47.58048 48.71447 48.14748
# Shear Modulus (GPa) = 22.90117 26.05454 24.47785
#
# Velocity S-wave (km/s) = 3.42399 3.65213 3.53990
# Velocity P-wave (km/s) = 6.32372 6.53623 6.43085
#
# Compressibility (1/GPa) = 0.02101702
#
# Stress axis : x y z
#
# Youngs Moduli (GPa) = 85.15491 86.75691 79.76288
#
# Poissons Ratio (x) = -0.00850 0.37365
# Poissons Ratio (y) = -0.00834 0.22400
# Poissons Ratio (z) = 0.39891 0.24364
#
# Static dielectric constant tensor:
#      x y z
#    x 1.652620 0.000000 0.000000 
#    y 0.000000 1.685000 0.000000 
#    z 0.000000 0.000000 1.811610 
# 
# From -- ./inp_files/31360.got.cif
#   From: 2010.05.17/outbox.cif.g08.bks.cpg/sg70_16_cif.got.tgz:31360.got - 2010.06.03 15:57:51.
