data_PCOD9514273
_publ_section_title
;
Structure prediction by ZEFSAII (Michael W. Deem and Ramdas Pophale) SiO2 
 PCOD9514273
Probable space group: F D D D
;
_chemical_formula_sum "Si O2"
_cell_formula_units_Z 240
_cell_length_a 21.107958
_cell_length_b 22.225267
_cell_length_c 29.098049
_cell_angle_alpha 90.000000
_cell_angle_beta 90.000000
_cell_angle_gamma 90.000000
_cell_volume 13650.767796
_symmetry_space_group_name_H-M "F D D D"
_symmetry_group_IT_number 70
_space_group.IT_coordinate_system_code '2'
_symmetry_cell_setting 'orthorhombic'
loop_
_space_group_symop_operation_xyz
x,y,z
1/4-x,1/4-y,z
x,1/4-y,1/4-z
1/4-x,y,1/4-z
-x,-y,-z
3/4+x,3/4+y,-z
-x,3/4+y,3/4+z
3/4+x,-y,3/4+z
x,1/2+y,1/2+z
1/4-x,3/4-y,1/2+z
x,3/4-y,3/4-z
1/4-x,1/2+y,3/4-z
-x,1/2-y,1/2-z
3/4+x,1/4+y,1/2-z
-x,1/4+y,1/4+z
3/4+x,1/2-y,1/4+z
1/2+x,y,1/2+z
3/4-x,1/4-y,1/2+z
1/2+x,1/4-y,3/4-z
3/4-x,y,3/4-z
1/2-x,-y,1/2-z
1/4+x,3/4+y,1/2-z
1/2-x,3/4+y,1/4+z
1/4+x,-y,1/4+z
1/2+x,1/2+y,z
3/4-x,3/4-y,z
1/2+x,3/4-y,1/4-z
3/4-x,1/2+y,1/4-z
1/2-x,1/2-y,-z
1/4+x,1/4+y,-z
1/2-x,1/4+y,3/4+z
1/4+x,1/2-y,3/4+z
loop_
_atom_site_type_symbol
_atom_site_label
_atom_site_fract_x
_atom_site_fract_y
_atom_site_fract_z
Si Si1 0.305034 0.680999 0.217962
Si Si2 0.849552 0.003119 0.420962
Si Si3 0.484349 0.581138 0.891715
Si Si4 0.043462 0.542886 0.834835
Si Si5 0.108669 0.860266 0.560730
Si Si6 0.584434 0.566749 0.759103
Si Si7 0.355984 0.125000 0.625000
Si Si8 0.908886 0.251855 0.105001
O O1 0.317814 0.752683 0.208605
O O2 0.349275 0.653968 0.257531
O O3 0.235284 0.670545 0.238878
O O4 0.316089 0.648272 0.169060
O O5 0.875000 0.973760 0.375000
O O6 0.775144 0.011632 0.410947
O O7 0.876512 0.070125 0.428528
O O8 0.866214 0.966690 0.466143
O O9 0.525154 0.636706 0.913019
O O10 0.420713 0.574371 0.921646
O O11 0.453494 0.596106 0.841573
O O12 0.532152 0.526345 0.884656
O O13 0.094334 0.531062 0.874612
O O14 0.625000 0.625000 0.771588
O O15 0.581158 0.523978 0.803180
O O16 0.398269 0.181095 0.609087
#
# Coordination Sequence:
#
# PCOD9514273 Si02
#       8
#    32  32  32  32  32  32  16  32
#     4  10  21  38  55  82 123 156 197 231 292 355
#     4  10  19  35  53  76 115 160 198 231 281 342
#     4  10  18  34  62  88 108 145 192 247 288 343
#     4   9  19  34  55  78 114 149 181 241 287 332
#     4  10  18  35  59  85 111 147 197 239 292 351
#     4  11  23  33  55  87 118 157 201 246 278 344
#     4  10  24  42  57  79 120 170 184 240 310 358
#     4  11  21  38  59  85 115 148 198 245 297 349
#
# _framework density 17.581429
#
# number of rings (size 3 to 8) (size 9 to 14) (size 15 to 20)
#    0.000    1.867    4.000    2.000    0.000    3.467 
#    0.000    4.667    0.000    6.400    0.000    0.000 
#    0.000    0.000    0.000    0.000    0.000    0.000 
#
# Total GULP energy -334023.148531 kJ/mol
# GULP energy per Si atom -5567.052476 kJ/mol
# Density = 1.754141 g / cm^3
# Si number density = 17.581429 Si / 1000 Ang^3
#
#
#
# Elastic Constant Matrix: (Units=GPa)
#
#
# Indices 1 2 3 4 5 6 
#
# 1 47.6971 46.1421 27.0001 0.0000 0.0000 0.0000
# 2 46.1421 90.2350 35.9648 0.0000 0.0000 0.0000
# 3 27.0001 35.9648 116.2934 0.0000 0.0000 0.0000
# 4 0.0000 0.0000 0.0000 20.1053 0.0000 0.0000
# 5 0.0000 0.0000 0.0000 0.0000 17.5137 0.0000
# 6 0.0000 0.0000 0.0000 0.0000 0.0000 16.1961
#
#
#
# Elastic Compliance Matrix: (Units=1/GPa)
#
#
# Indices 1 2 3 4 5 6 
#
# 1 0.042780 -0.020436 -0.003612 0.000000 0.000000 0.000000
# 2 -0.020436 0.022403 -0.002183 0.000000 0.000000 0.000000
# 3 -0.003612 -0.002183 0.010113 0.000000 0.000000 0.000000
# 4 0.000000 0.000000 0.000000 0.049738 0.000000 0.000000
# 5 0.000000 0.000000 0.000000 0.000000 0.057098 0.000000
# 6 0.000000 0.000000 0.000000 0.000000 0.000000 0.061743
#
#
# Mechanical properties :
#
#
# Convention : Reuss Voigt Hill
#
# Bulk Modulus (GPa) = 43.79847 52.49328 48.14587
# Shear Modulus (GPa) = 16.45005 20.43758 18.44382
#
# Velocity S-wave (km/s) = 3.06216 3.41317 3.24242
# Velocity P-wave (km/s) = 6.12113 6.74204 6.43907
#
# Compressibility (1/GPa) = 0.02283185
#
# Stress axis : x y z
#
# Youngs Moduli (GPa) = 23.37514 44.63765 98.88375
#
# Poissons Ratio (x) = 0.91223 0.35720
# Poissons Ratio (y) = 0.47770 0.21591
# Poissons Ratio (z) = 0.08444 0.09747
#
# Static dielectric constant tensor:
#      x y z
#    x 1.616720 0.000000 0.000000 
#    y 0.000000 1.613640 0.000000 
#    z 0.000000 0.000000 1.612170 
# 
# From -- ./inp_files/67386.got.cif
#   From: 2010.05.17/outbox.cif.g08.bks.cpg/sg70_34_cif.got.tgz:67386.got - 2010.06.03 15:57:51.
