data_PCOD9514333
_publ_section_title
;
Structure prediction by ZEFSAII (Michael W. Deem and Ramdas Pophale) SiO2 
 PCOD9514333
Probable space group: F D D D
;
_chemical_formula_sum "Si O2"
_cell_formula_units_Z 192
_cell_length_a 19.711486
_cell_length_b 24.718381
_cell_length_c 20.311908
_cell_angle_alpha 90.000000
_cell_angle_beta 90.000000
_cell_angle_gamma 90.000000
_cell_volume 9896.693233
_symmetry_space_group_name_H-M "F D D D"
_symmetry_group_IT_number 70
_space_group.IT_coordinate_system_code '2'
_symmetry_cell_setting 'orthorhombic'
loop_
_space_group_symop_operation_xyz
x,y,z
1/4-x,1/4-y,z
x,1/4-y,1/4-z
1/4-x,y,1/4-z
-x,-y,-z
3/4+x,3/4+y,-z
-x,3/4+y,3/4+z
3/4+x,-y,3/4+z
x,1/2+y,1/2+z
1/4-x,3/4-y,1/2+z
x,3/4-y,3/4-z
1/4-x,1/2+y,3/4-z
-x,1/2-y,1/2-z
3/4+x,1/4+y,1/2-z
-x,1/4+y,1/4+z
3/4+x,1/2-y,1/4+z
1/2+x,y,1/2+z
3/4-x,1/4-y,1/2+z
1/2+x,1/4-y,3/4-z
3/4-x,y,3/4-z
1/2-x,-y,1/2-z
1/4+x,3/4+y,1/2-z
1/2-x,3/4+y,1/4+z
1/4+x,-y,1/4+z
1/2+x,1/2+y,z
3/4-x,3/4-y,z
1/2+x,3/4-y,1/4-z
3/4-x,1/2+y,1/4-z
1/2-x,1/2-y,-z
1/4+x,1/4+y,-z
1/2-x,1/4+y,3/4+z
1/4+x,1/2-y,3/4+z
loop_
_atom_site_type_symbol
_atom_site_label
_atom_site_fract_x
_atom_site_fract_y
_atom_site_fract_z
Si Si1 0.140965 0.374001 0.980990
Si Si2 0.453372 0.024020 0.196880
Si Si3 0.385791 0.509380 0.566912
Si Si4 0.375000 0.083348 0.375000
Si Si5 0.606147 0.062248 0.196872
Si Si6 0.775234 0.261592 0.336154
Si Si7 0.741436 0.625000 0.125000
O O1 0.141731 0.368126 0.059922
O O2 0.101886 0.320979 0.956310
O O3 0.104622 0.429223 0.958532
O O4 0.211327 0.374715 0.940649
O O5 0.435864 0.997808 0.127114
O O6 0.525928 0.052814 0.201253
O O7 0.453527 0.984531 0.259395
O O8 0.392155 0.469584 0.505518
O O9 0.306628 0.505578 0.590030
O O10 0.437591 0.042126 0.361942
O O11 0.625000 0.125000 0.200422
O O12 0.625000 0.040805 0.125000
O O13 0.794672 0.317058 0.372479
#
# Coordination Sequence:
#
# PCOD9514333 Si02
#       7
#    32  32  32  16  32  32  16
#     4  10  19  35  63  86 109 157 204 233 291 350
#     4  10  19  39  61  83 114 156 196 241 291 352
#     4  10  20  39  63  83 114 163 202 238 290 368
#     4  10  22  35  56  92 123 144 196 264 296 338
#     4  10  24  38  54  87 124 145 191 247 301 347
#     4   9  20  37  58  88 117 149 202 244 291 360
#     4  10  18  37  60  82 115 162 198 238 292 364
#
# _framework density 19.400418999999999
#
# number of rings (size 3 to 8) (size 9 to 14) (size 15 to 20)
#    0.000    2.167    3.333    0.000    5.833    1.667 
#    0.000    8.333    0.000    0.000    0.000    0.000 
#    0.000    0.000    0.000    0.000    0.000    0.000 
#
# Total GULP energy -267694.381005 kJ/mol
# GULP energy per Si atom -5576.966271 kJ/mol
# Density = 1.935626 g / cm^3
# Si number density = 19.400419 Si / 1000 Ang^3
#
#
#
# Elastic Constant Matrix: (Units=GPa)
#
#
# Indices 1 2 3 4 5 6 
#
# 1 25.6116 4.7582 14.6495 0.0000 0.0000 0.0000
# 2 4.7582 37.8021 22.0406 0.0000 0.0000 0.0000
# 3 14.6495 22.0406 131.9601 0.0000 0.0000 0.0000
# 4 0.0000 0.0000 0.0000 282.3643 0.0000 0.0000
# 5 0.0000 0.0000 0.0000 0.0000 -17.7767 0.0000
# 6 0.0000 0.0000 0.0000 0.0000 0.0000 14.0522
#
#
#
# Elastic Compliance Matrix: (Units=1/GPa)
#
#
# Indices 1 2 3 4 5 6 
#
# 1 0.041966 -0.002843 -0.004184 0.000000 0.000000 0.000000
# 2 -0.002843 0.029500 -0.004612 0.000000 0.000000 0.000000
# 3 -0.004184 -0.004612 0.008813 0.000000 0.000000 0.000000
# 4 0.000000 0.000000 0.000000 0.003542 0.000000 0.000000
# 5 0.000000 0.000000 0.000000 0.000000 -0.056254 0.000000
# 6 0.000000 0.000000 0.000000 0.000000 0.000000 0.071163
#
#
# Mechanical properties :
#
#
# Convention : Reuss Voigt Hill
#
# Bulk Modulus (GPa) = 17.54320 30.91893 24.23107
# Shear Modulus (GPa) = 35.45891 65.98967 50.72429
#
# Velocity S-wave (km/s) = 4.27985 5.83853 5.11886
# Velocity P-wave (km/s) = 5.78663 7.83729 6.88869
#
# Compressibility (1/GPa) = 0.05700213
#
# Stress axis : x y z
#
# Youngs Moduli (GPa) = 23.82867 33.89803 113.47132
#
# Poissons Ratio (x) = 0.09637 0.47477
# Poissons Ratio (y) = 0.06774 0.52329
# Poissons Ratio (z) = 0.09970 0.15633
#
# Static dielectric constant tensor:
#      x y z
#    x 1.713500 0.000000 0.000000 
#    y 0.000000 1.654370 0.000000 
#    z 0.000000 0.000000 1.718140 
# 
# From -- ./inp_files/45117.got.cif
#   From: 2010.05.17/outbox.cif.g08.bks.cpg/sg70_23_cif.got.tgz:45117.got - 2010.06.03 15:57:51.
