data_PCOD9514662
_publ_section_title
;
Structure prediction by ZEFSAII (Michael W. Deem and Ramdas Pophale) SiO2 
 PCOD9514662
Probable space group: F D D D
;
_chemical_formula_sum "Si O2"
_cell_formula_units_Z 160
_cell_length_a 23.729170
_cell_length_b 10.392968
_cell_length_c 25.882642
_cell_angle_alpha 90.000000
_cell_angle_beta 90.000000
_cell_angle_gamma 90.000000
_cell_volume 6383.086697
_symmetry_space_group_name_H-M "F D D D"
_symmetry_group_IT_number 70
_space_group.IT_coordinate_system_code '2'
_symmetry_cell_setting 'orthorhombic'
loop_
_space_group_symop_operation_xyz
x,y,z
1/4-x,1/4-y,z
x,1/4-y,1/4-z
1/4-x,y,1/4-z
-x,-y,-z
3/4+x,3/4+y,-z
-x,3/4+y,3/4+z
3/4+x,-y,3/4+z
x,1/2+y,1/2+z
1/4-x,3/4-y,1/2+z
x,3/4-y,3/4-z
1/4-x,1/2+y,3/4-z
-x,1/2-y,1/2-z
3/4+x,1/4+y,1/2-z
-x,1/4+y,1/4+z
3/4+x,1/2-y,1/4+z
1/2+x,y,1/2+z
3/4-x,1/4-y,1/2+z
1/2+x,1/4-y,3/4-z
3/4-x,y,3/4-z
1/2-x,-y,1/2-z
1/4+x,3/4+y,1/2-z
1/2-x,3/4+y,1/4+z
1/4+x,-y,1/4+z
1/2+x,1/2+y,z
3/4-x,3/4-y,z
1/2+x,3/4-y,1/4-z
3/4-x,1/2+y,1/4-z
1/2-x,1/2-y,-z
1/4+x,1/4+y,-z
1/2-x,1/4+y,3/4+z
1/4+x,1/2-y,3/4+z
loop_
_atom_site_type_symbol
_atom_site_label
_atom_site_fract_x
_atom_site_fract_y
_atom_site_fract_z
Si Si1 0.528122 0.506119 0.875300
Si Si2 0.373263 0.528894 0.706826
Si Si3 0.762839 0.889949 0.524917
Si Si4 0.859607 0.526103 0.431983
Si Si5 0.999342 0.526483 0.169332
O O1 0.490911 0.375000 0.875000
O O2 0.574646 0.452863 0.915623
O O3 0.552739 0.574246 0.823159
O O4 0.500188 0.629680 0.901935
O O5 0.375000 0.375000 0.711936
O O6 0.362454 0.577757 0.764690
O O7 0.434344 0.565775 0.683898
O O8 0.750000 0.750000 0.500000
O O9 0.705490 0.944134 0.551923
O O10 0.780293 0.962250 0.473486
O O11 0.875000 0.579519 0.375000
O O12 0.875000 0.375000 0.430480
O O13 0.018707 0.625000 0.125000
#
# Coordination Sequence:
#
# PCOD9514662 Si02
#       5
#    32  32  32  32  32
#     4  11  23  38  61 102 131 168 235 298 347 404
#     4   8  17  35  59  91 128 174 225 279 338 408
#     4  11  23  41  66 101 136 185 224 292 370 418
#     4   9  19  38  66  94 135 185 232 280 350 429
#     4  10  19  39  64  84 132 182 220 266 352 430
#
# _framework density 25.066244000000001
#
# number of rings (size 3 to 8) (size 9 to 14) (size 15 to 20)
#    0.000    2.200    2.000    1.800    2.800    0.800 
#    3.600    0.000    0.000    0.000    0.000    0.000 
#    0.000    0.000    0.000    0.000    0.000    0.000 
#
# Total GULP energy -222863.288391 kJ/mol
# GULP energy per Si atom -5571.582210 kJ/mol
# Density = 2.500919 g / cm^3
# Si number density = 25.066244 Si / 1000 Ang^3
#
#
#
# Elastic Constant Matrix: (Units=GPa)
#
#
# Indices 1 2 3 4 5 6 
#
# 1 54.5888 6.7040 4.0188 0.0000 0.0000 0.0000
# 2 6.7040 151.1929 44.6362 0.0000 0.0000 0.0000
# 3 4.0188 44.6362 238.7266 0.0000 0.0000 0.0000
# 4 0.0000 0.0000 0.0000 37.4236 0.0000 0.0000
# 5 0.0000 0.0000 0.0000 0.0000 -3.8480 0.0000
# 6 0.0000 0.0000 0.0000 0.0000 0.0000 11.6203
#
#
#
# Elastic Compliance Matrix: (Units=1/GPa)
#
#
# Indices 1 2 3 4 5 6 
#
# 1 0.018425 -0.000768 -0.000167 0.000000 0.000000 0.000000
# 2 -0.000768 0.007032 -0.001302 0.000000 0.000000 0.000000
# 3 -0.000167 -0.001302 0.004435 0.000000 0.000000 0.000000
# 4 0.000000 0.000000 0.000000 0.026721 0.000000 0.000000
# 5 0.000000 0.000000 0.000000 0.000000 -0.259877 0.000000
# 6 0.000000 0.000000 0.000000 0.000000 0.000000 0.086056
#
#
# Mechanical properties :
#
#
# Convention : Reuss Voigt Hill
#
# Bulk Modulus (GPa) = 39.33885 61.69182 50.51533
# Shear Modulus (GPa) = -47.95674 34.98247 -6.48713
#
# Velocity S-wave (km/s) = -4.37876 3.73983 -1.61047
# Velocity P-wave (km/s) = 3.13635 6.58129 4.09125
#
# Compressibility (1/GPa) = 0.02542016
#
# Stress axis : x y z
#
# Youngs Moduli (GPa) = 54.27306 142.19707 225.47221
#
# Poissons Ratio (x) = 0.10918 0.03757
# Poissons Ratio (y) = 0.04167 0.29356
# Poissons Ratio (z) = 0.00904 0.18514
#
# Static dielectric constant tensor:
#      x y z
#    x 2.151610 0.000000 0.000000 
#    y 0.000000 2.003870 0.000000 
#    z 0.000000 0.000000 2.202010 
# 
# From -- ./inp_files/54867.got.cif
#   From: 2010.05.17/outbox.cif.g08.bks.cpg/sg70_28_cif.got.tgz:54867.got - 2010.06.03 15:57:51.
