data_PCOD9514803
_publ_section_title
;
Structure prediction by ZEFSAII (Michael W. Deem and Ramdas Pophale) SiO2 
 PCOD9514803
Probable space group: F D D D
;
_chemical_formula_sum "Si O2"
_cell_formula_units_Z 160
_cell_length_a 23.223866
_cell_length_b 11.755850
_cell_length_c 25.303258
_cell_angle_alpha 90.000000
_cell_angle_beta 90.000000
_cell_angle_gamma 90.000000
_cell_volume 6908.201500
_symmetry_space_group_name_H-M "F D D D"
_symmetry_group_IT_number 70
_space_group.IT_coordinate_system_code '2'
_symmetry_cell_setting 'orthorhombic'
loop_
_space_group_symop_operation_xyz
x,y,z
1/4-x,1/4-y,z
x,1/4-y,1/4-z
1/4-x,y,1/4-z
-x,-y,-z
3/4+x,3/4+y,-z
-x,3/4+y,3/4+z
3/4+x,-y,3/4+z
x,1/2+y,1/2+z
1/4-x,3/4-y,1/2+z
x,3/4-y,3/4-z
1/4-x,1/2+y,3/4-z
-x,1/2-y,1/2-z
3/4+x,1/4+y,1/2-z
-x,1/4+y,1/4+z
3/4+x,1/2-y,1/4+z
1/2+x,y,1/2+z
3/4-x,1/4-y,1/2+z
1/2+x,1/4-y,3/4-z
3/4-x,y,3/4-z
1/2-x,-y,1/2-z
1/4+x,3/4+y,1/2-z
1/2-x,3/4+y,1/4+z
1/4+x,-y,1/4+z
1/2+x,1/2+y,z
3/4-x,3/4-y,z
1/2+x,3/4-y,1/4-z
3/4-x,1/2+y,1/4-z
1/2-x,1/2-y,-z
1/4+x,1/4+y,-z
1/2-x,1/4+y,3/4+z
1/4+x,1/2-y,3/4+z
loop_
_atom_site_type_symbol
_atom_site_label
_atom_site_fract_x
_atom_site_fract_y
_atom_site_fract_z
Si Si1 0.907093 0.986966 0.020367
Si Si2 0.624646 0.947358 0.926023
Si Si3 0.510577 0.545876 0.576446
Si Si4 0.522199 0.163361 0.684932
Si Si5 0.985387 0.424455 0.715432
O O1 0.875000 0.875000 0.040854
O O2 0.873035 0.102756 0.028305
O O3 0.922579 0.972580 0.959249
O O4 0.967303 0.007546 0.051513
O O5 0.644013 0.875000 0.875000
O O6 0.558372 0.974499 0.916718
O O7 0.673124 0.039471 0.940200
O O8 0.530424 0.625000 0.625000
O O9 0.525332 0.412822 0.568226
O O10 0.523117 0.613731 0.522102
O O11 0.525471 0.125000 0.625000
O O12 0.514555 0.047712 0.719121
#
# Coordination Sequence:
#
# PCOD9514803 Si02
#       5
#    32  32  32  32  32
#     4  10  20  35  56  82 115 152 191 234 291 351
#     4  10  21  35  58  89 115 149 195 245 293 345
#     4  10  22  37  58  84 114 156 198 240 290 347
#     4  10  22  37  56  85 120 154 190 242 298 349
#     4  10  20  36  56  82 116 150 196 244 287 344
#
# _framework density 23.160876999999999
#
# number of rings (size 3 to 8) (size 9 to 14) (size 15 to 20)
#    0.000    2.000    0.000    4.200    0.000   13.200 
#    0.000    0.000    0.000   14.400    0.000    0.000 
#    0.000    0.000    0.000    0.000    0.000    0.000 
#
# Total GULP energy -223116.351709 kJ/mol
# GULP energy per Si atom -5577.908793 kJ/mol
# Density = 2.310816 g / cm^3
# Si number density = 23.160877 Si / 1000 Ang^3
#
#
#
# Elastic Constant Matrix: (Units=GPa)
#
#
# Indices 1 2 3 4 5 6 
#
# 1 19.6808 18.7056 17.1735 0.0000 0.0000 0.0000
# 2 18.7056 146.8003 39.4024 0.0000 0.0000 0.0000
# 3 17.1735 39.4024 115.5196 0.0000 0.0000 0.0000
# 4 0.0000 0.0000 0.0000 24.7073 0.0000 0.0000
# 5 0.0000 0.0000 0.0000 0.0000 24.5184 0.0000
# 6 0.0000 0.0000 0.0000 0.0000 0.0000 30.7753
#
#
#
# Elastic Compliance Matrix: (Units=1/GPa)
#
#
# Indices 1 2 3 4 5 6 
#
# 1 0.062933 -0.006063 -0.007288 0.000000 0.000000 0.000000
# 2 -0.006063 0.008083 -0.001856 0.000000 0.000000 0.000000
# 3 -0.007288 -0.001856 0.010373 0.000000 0.000000 0.000000
# 4 0.000000 0.000000 0.000000 0.040474 0.000000 0.000000
# 5 0.000000 0.000000 0.000000 0.000000 0.040786 0.000000
# 6 0.000000 0.000000 0.000000 0.000000 0.000000 0.032494
#
#
# Mechanical properties :
#
#
# Convention : Reuss Voigt Hill
#
# Bulk Modulus (GPa) = 19.61716 48.06262 33.83989
# Shear Modulus (GPa) = 20.61466 29.78149 25.19807
#
# Velocity S-wave (km/s) = 2.98663 3.58977 3.30200
# Velocity P-wave (km/s) = 4.51460 6.16268 5.40186
#
# Compressibility (1/GPa) = 0.05097577
#
# Stress axis : x y z
#
# Youngs Moduli (GPa) = 15.88995 123.72311 96.40535
#
# Poissons Ratio (x) = 0.75012 0.70258
# Poissons Ratio (y) = 0.09634 0.17888
# Poissons Ratio (z) = 0.11580 0.22957
#
# Static dielectric constant tensor:
#      x y z
#    x 1.956800 0.000000 0.000000 
#    y 0.000000 1.972280 0.000000 
#    z 0.000000 0.000000 1.952820 
# 
# From -- ./inp_files/54874.got.cif
#   From: 2010.05.17/outbox.cif.g08.bks.cpg/sg70_28_cif.got.tgz:54874.got - 2010.06.03 15:57:51.
