data_PCOD9514916
_publ_section_title
;
Structure prediction by ZEFSAII (Michael W. Deem and Ramdas Pophale) SiO2 
 PCOD9514916
Probable space group: F D D D
;
_chemical_formula_sum "Si O2"
_cell_formula_units_Z 160
_cell_length_a 22.370279
_cell_length_b 13.689817
_cell_length_c 23.005009
_cell_angle_alpha 90.000000
_cell_angle_beta 90.000000
_cell_angle_gamma 90.000000
_cell_volume 7045.169574
_symmetry_space_group_name_H-M "F D D D"
_symmetry_group_IT_number 70
_space_group.IT_coordinate_system_code '2'
_symmetry_cell_setting 'orthorhombic'
loop_
_space_group_symop_operation_xyz
x,y,z
1/4-x,1/4-y,z
x,1/4-y,1/4-z
1/4-x,y,1/4-z
-x,-y,-z
3/4+x,3/4+y,-z
-x,3/4+y,3/4+z
3/4+x,-y,3/4+z
x,1/2+y,1/2+z
1/4-x,3/4-y,1/2+z
x,3/4-y,3/4-z
1/4-x,1/2+y,3/4-z
-x,1/2-y,1/2-z
3/4+x,1/4+y,1/2-z
-x,1/4+y,1/4+z
3/4+x,1/2-y,1/4+z
1/2+x,y,1/2+z
3/4-x,1/4-y,1/2+z
1/2+x,1/4-y,3/4-z
3/4-x,y,3/4-z
1/2-x,-y,1/2-z
1/4+x,3/4+y,1/2-z
1/2-x,3/4+y,1/4+z
1/4+x,-y,1/4+z
1/2+x,1/2+y,z
3/4-x,3/4-y,z
1/2+x,3/4-y,1/4-z
3/4-x,1/2+y,1/4-z
1/2-x,1/2-y,-z
1/4+x,1/4+y,-z
1/2-x,1/4+y,3/4+z
1/4+x,1/2-y,3/4+z
loop_
_atom_site_type_symbol
_atom_site_label
_atom_site_fract_x
_atom_site_fract_y
_atom_site_fract_z
Si Si1 0.503760 0.377842 0.091922
Si Si2 0.056233 0.789941 0.447210
Si Si3 0.884483 0.579406 0.772070
Si Si4 0.847173 0.982919 0.600982
Si Si5 0.720486 0.717259 0.560227
O O1 0.464171 0.320821 0.043933
O O2 0.466289 0.467155 0.117214
O O3 0.507758 0.296539 0.142899
O O4 0.568111 0.382018 0.063116
O O5 0.086691 0.839825 0.502174
O O6 0.105846 0.781548 0.395869
O O7 0.998448 0.859116 0.433465
O O8 0.908235 0.536661 0.710642
O O9 0.849801 0.489622 0.803219
O O10 0.875000 0.875000 0.589589
O O11 0.750000 0.750000 0.500000
#
# Coordination Sequence:
#
# PCOD9514916 Si02
#       5
#    32  32  32  32  32
#     4  11  23  36  60  91 120 157 206 249 304 376
#     4  10  21  40  58  83 123 159 200 251 304 371
#     4  11  23  35  62  90 120 162 199 255 315 360
#     4  10  21  39  59  86 122 162 204 247 305 371
#     4  10  20  37  59  86 122 155 201 252 312 361
#
# _framework density 22.710595999999999
#
# number of rings (size 3 to 8) (size 9 to 14) (size 15 to 20)
#    0.000    1.600    0.000    7.800    8.400    0.800 
#    0.000    2.000    0.000    0.000    0.000    0.000 
#    0.000    0.000    0.000    0.000    0.000    0.000 
#
# Total GULP energy -223177.514687 kJ/mol
# GULP energy per Si atom -5579.437867 kJ/mol
# Density = 2.265891 g / cm^3
# Si number density = 22.710596 Si / 1000 Ang^3
#
#
#
# Elastic Constant Matrix: (Units=GPa)
#
#
# Indices 1 2 3 4 5 6 
#
# 1 141.8845 12.4404 36.6101 0.0000 0.0000 0.0000
# 2 12.4404 34.4561 4.4928 0.0000 0.0000 0.0000
# 3 36.6101 4.4928 52.7388 0.0000 0.0000 0.0000
# 4 0.0000 0.0000 0.0000 22.8650 0.0000 0.0000
# 5 0.0000 0.0000 0.0000 0.0000 38.6042 0.0000
# 6 0.0000 0.0000 0.0000 0.0000 0.0000 26.4451
#
#
#
# Elastic Compliance Matrix: (Units=1/GPa)
#
#
# Indices 1 2 3 4 5 6 
#
# 1 0.008778 -0.002401 -0.005889 0.000000 0.000000 0.000000
# 2 -0.002401 0.030005 -0.000889 0.000000 0.000000 0.000000
# 3 -0.005889 -0.000889 0.023125 0.000000 0.000000 0.000000
# 4 0.000000 0.000000 0.000000 0.043735 0.000000 0.000000
# 5 0.000000 0.000000 0.000000 0.000000 0.025904 0.000000
# 6 0.000000 0.000000 0.000000 0.000000 0.000000 0.037814
#
#
# Mechanical properties :
#
#
# Convention : Reuss Voigt Hill
#
# Bulk Modulus (GPa) = 22.96238 37.35180 30.15709
# Shear Modulus (GPa) = 24.72345 29.28528 27.00437
#
# Velocity S-wave (km/s) = 3.30302 3.59485 3.45202
# Velocity P-wave (km/s) = 4.96784 5.80631 5.40336
#
# Compressibility (1/GPa) = 0.04354950
#
# Stress axis : x y z
#
# Youngs Moduli (GPa) = 113.92039 33.32734 43.24307
#
# Poissons Ratio (x) = 0.08003 0.25466
# Poissons Ratio (y) = 0.27358 0.03845
# Poissons Ratio (z) = 0.67087 0.02963
#
# Static dielectric constant tensor:
#      x y z
#    x 1.963720 0.000000 0.000000 
#    y 0.000000 1.898880 0.000000 
#    z 0.000000 0.000000 1.891860 
# 
# From -- ./inp_files/53554.got.cif
#   From: 2010.05.17/outbox.cif.g08.bks.cpg/sg70_27_cif.got.tgz:53554.got - 2010.06.03 15:57:51.
