data_PCOD9514977
_publ_section_title
;
Structure prediction by ZEFSAII (Michael W. Deem and Ramdas Pophale) SiO2 
 PCOD9514977
Probable space group: F D D D
;
_chemical_formula_sum "Si O2"
_cell_formula_units_Z 176
_cell_length_a 11.992159
_cell_length_b 31.350054
_cell_length_c 22.029561
_cell_angle_alpha 90.000000
_cell_angle_beta 90.000000
_cell_angle_gamma 90.000000
_cell_volume 8282.119910
_symmetry_space_group_name_H-M "F D D D"
_symmetry_group_IT_number 70
_space_group.IT_coordinate_system_code '2'
_symmetry_cell_setting 'orthorhombic'
loop_
_space_group_symop_operation_xyz
x,y,z
1/4-x,1/4-y,z
x,1/4-y,1/4-z
1/4-x,y,1/4-z
-x,-y,-z
3/4+x,3/4+y,-z
-x,3/4+y,3/4+z
3/4+x,-y,3/4+z
x,1/2+y,1/2+z
1/4-x,3/4-y,1/2+z
x,3/4-y,3/4-z
1/4-x,1/2+y,3/4-z
-x,1/2-y,1/2-z
3/4+x,1/4+y,1/2-z
-x,1/4+y,1/4+z
3/4+x,1/2-y,1/4+z
1/2+x,y,1/2+z
3/4-x,1/4-y,1/2+z
1/2+x,1/4-y,3/4-z
3/4-x,y,3/4-z
1/2-x,-y,1/2-z
1/4+x,3/4+y,1/2-z
1/2-x,3/4+y,1/4+z
1/4+x,-y,1/4+z
1/2+x,1/2+y,z
3/4-x,3/4-y,z
1/2+x,3/4-y,1/4-z
3/4-x,1/2+y,1/4-z
1/2-x,1/2-y,-z
1/4+x,1/4+y,-z
1/2-x,1/4+y,3/4+z
1/4+x,1/2-y,3/4+z
loop_
_atom_site_type_symbol
_atom_site_label
_atom_site_fract_x
_atom_site_fract_y
_atom_site_fract_z
Si Si1 0.863156 0.027873 0.185457
Si Si2 0.303782 0.621466 0.195660
Si Si3 0.419761 0.980413 0.245584
Si Si4 0.005578 0.552201 0.883193
Si Si5 0.375000 0.375000 0.210591
Si Si6 0.966707 0.193565 0.192779
O O1 0.812490 0.071605 0.210586
O O2 0.928538 0.041940 0.124084
O O3 0.958215 0.010540 0.229132
O O4 0.773183 0.992322 0.169057
O O5 0.267956 0.625000 0.125000
O O6 0.218667 0.642241 0.242805
O O7 0.421473 0.645790 0.200940
O O8 0.436510 0.956225 0.181896
O O9 0.344493 0.951845 0.290647
O O10 0.353636 0.024419 0.235712
O O11 0.069554 0.589302 0.918559
O O12 0.875000 0.561667 0.875000
#
# Coordination Sequence:
#
# PCOD9514977 Si02
#       6
#    32  32  32  32  16  32
#     4  10  21  39  64  90 120 158 204 257 313 370
#     4  10  22  39  63  92 120 157 205 258 308 367
#     4  10  20  38  61  87 125 165 203 250 309 372
#     4  11  26  42  61  91 125 165 209 259 317 382
#     4  12  25  42  62  86 121 162 204 252 318 386
#     4   9  20  37  60  91 121 158 206 254 306 364
#
# _framework density 21.250598
#
# number of rings (size 3 to 8) (size 9 to 14) (size 15 to 20)
#    0.000    1.818    0.000    3.000    0.000   10.909 
#    0.000    6.364    0.000    0.000    0.000    0.000 
#    0.000    0.000    0.000    0.000    0.000    0.000 
#
# Total GULP energy -245896.909138 kJ/mol
# GULP energy per Si atom -5588.566117 kJ/mol
# Density = 2.120223 g / cm^3
# Si number density = 21.250598 Si / 1000 Ang^3
#
#
#
# Elastic Constant Matrix: (Units=GPa)
#
#
# Indices 1 2 3 4 5 6 
#
# 1 93.2555 38.9221 26.7301 0.0000 0.0000 0.0000
# 2 38.9221 104.7609 26.2984 0.0000 0.0000 0.0000
# 3 26.7301 26.2984 49.5603 0.0000 0.0000 0.0000
# 4 0.0000 0.0000 0.0000 28.7745 0.0000 0.0000
# 5 0.0000 0.0000 0.0000 0.0000 44.3368 0.0000
# 6 0.0000 0.0000 0.0000 0.0000 0.0000 34.3018
#
#
#
# Elastic Compliance Matrix: (Units=1/GPa)
#
#
# Indices 1 2 3 4 5 6 
#
# 1 0.013870 -0.003779 -0.005476 0.000000 0.000000 0.000000
# 2 -0.003779 0.012042 -0.004352 0.000000 0.000000 0.000000
# 3 -0.005476 -0.004352 0.025440 0.000000 0.000000 0.000000
# 4 0.000000 0.000000 0.000000 0.034753 0.000000 0.000000
# 5 0.000000 0.000000 0.000000 0.000000 0.022555 0.000000
# 6 0.000000 0.000000 0.000000 0.000000 0.000000 0.029153
#
#
# Mechanical properties :
#
#
# Convention : Reuss Voigt Hill
#
# Bulk Modulus (GPa) = 41.42576 47.94199 44.68387
# Shear Modulus (GPa) = 28.88995 31.85771 30.37383
#
# Velocity S-wave (km/s) = 3.69112 3.87608 3.78473
# Velocity P-wave (km/s) = 6.14020 6.53003 6.33811
#
# Compressibility (1/GPa) = 0.02413957
#
# Stress axis : x y z
#
# Youngs Moduli (GPa) = 72.09941 83.04367 39.30827
#
# Poissons Ratio (x) = 0.31378 0.21523
# Poissons Ratio (y) = 0.27243 0.17107
# Poissons Ratio (z) = 0.39479 0.36140
#
# Static dielectric constant tensor:
#      x y z
#    x 1.749150 0.000000 0.000000 
#    y 0.000000 1.755110 0.000000 
#    z 0.000000 0.000000 1.795420 
# 
# From -- ./inp_files/19663.got.cif
#   From: 2010.05.17/outbox.cif.g08.bks.cpg/sg70_10_cif.got.tgz:19663.got - 2010.06.03 15:57:51.
