data_PCOD9514157
_publ_section_title
;
Structure prediction by ZEFSAII (Michael W. Deem and Ramdas Pophale) SiO2 
 PCOD9514157
Probable space group: F D D D
;
_chemical_formula_sum "Si O2"
_cell_formula_units_Z 176
_cell_length_a 11.345580
_cell_length_b 29.711160
_cell_length_c 25.828621
_cell_angle_alpha 90.000000
_cell_angle_beta 90.000000
_cell_angle_gamma 90.000000
_cell_volume 8706.578704
_symmetry_space_group_name_H-M "F D D D"
_symmetry_group_IT_number 70
_space_group.IT_coordinate_system_code '2'
_symmetry_cell_setting 'orthorhombic'
loop_
_space_group_symop_operation_xyz
x,y,z
1/4-x,1/4-y,z
x,1/4-y,1/4-z
1/4-x,y,1/4-z
-x,-y,-z
3/4+x,3/4+y,-z
-x,3/4+y,3/4+z
3/4+x,-y,3/4+z
x,1/2+y,1/2+z
1/4-x,3/4-y,1/2+z
x,3/4-y,3/4-z
1/4-x,1/2+y,3/4-z
-x,1/2-y,1/2-z
3/4+x,1/4+y,1/2-z
-x,1/4+y,1/4+z
3/4+x,1/2-y,1/4+z
1/2+x,y,1/2+z
3/4-x,1/4-y,1/2+z
1/2+x,1/4-y,3/4-z
3/4-x,y,3/4-z
1/2-x,-y,1/2-z
1/4+x,3/4+y,1/2-z
1/2-x,3/4+y,1/4+z
1/4+x,-y,1/4+z
1/2+x,1/2+y,z
3/4-x,3/4-y,z
1/2+x,3/4-y,1/4-z
3/4-x,1/2+y,1/4-z
1/2-x,1/2-y,-z
1/4+x,1/4+y,-z
1/2-x,1/4+y,3/4+z
1/4+x,1/2-y,3/4+z
loop_
_atom_site_type_symbol
_atom_site_label
_atom_site_fract_x
_atom_site_fract_y
_atom_site_fract_z
Si Si1 0.290097 0.670922 0.827056
Si Si2 0.989155 0.921343 0.405338
Si Si3 0.228568 0.064716 0.333630
Si Si4 0.885276 0.222496 0.731693
Si Si5 0.875000 0.375000 0.748519
Si Si6 0.032803 0.451603 0.701096
O O1 0.375000 0.684460 0.875000
O O2 0.261580 0.618018 0.833980
O O3 0.159594 0.692283 0.825127
O O4 0.353608 0.684612 0.773893
O O5 0.021211 0.875000 0.375000
O O6 0.875000 0.940601 0.375000
O O7 0.942252 0.907251 0.461736
O O8 0.092055 0.954258 0.423122
O O9 0.326258 0.046918 0.293480
O O10 0.255278 0.045474 0.390259
O O11 0.779923 0.258224 0.730552
O O12 0.000000 0.250000 0.750000
O O13 0.781994 0.345033 0.717310
#
# Coordination Sequence:
#
# PCOD9514157 Si02
#       6
#    32  32  32  32  16  32
#     4  11  22  42  67  95 127 169 224 264 320 404
#     4   9  21  39  59  90 126 168 217 253 320 384
#     4  10  23  39  65  91 127 174 213 262 327 393
#     4  12  24  37  65 100 129 161 217 275 321 376
#     4  10  17  36  64  86 124 166 202 266 309 390
#     4  11  21  37  62  95 128 163 214 265 329 373
#
# _framework density 20.214599
#
# number of rings (size 3 to 8) (size 9 to 14) (size 15 to 20)
#    0.000    1.636    3.636    3.273    0.000    2.909 
#    0.000    0.000   16.000    0.000    0.000    0.000 
#    0.000    0.000    0.000    0.000    0.000    0.000 
#
# Total GULP energy -245292.247038 kJ/mol
# GULP energy per Si atom -5574.823796 kJ/mol
# Density = 2.016859 g / cm^3
# Si number density = 20.214599 Si / 1000 Ang^3
#
#
#
# Elastic Constant Matrix: (Units=GPa)
#
#
# Indices 1 2 3 4 5 6 
#
# 1 159.0749 27.8141 50.3786 0.0000 0.0000 0.0000
# 2 27.8141 53.9028 24.9517 0.0000 0.0000 0.0000
# 3 50.3786 24.9517 80.7965 0.0000 0.0000 0.0000
# 4 0.0000 0.0000 0.0000 24.9022 0.0000 0.0000
# 5 0.0000 0.0000 0.0000 0.0000 37.9889 0.0000
# 6 0.0000 0.0000 0.0000 0.0000 0.0000 23.2604
#
#
#
# Elastic Compliance Matrix: (Units=1/GPa)
#
#
# Indices 1 2 3 4 5 6 
#
# 1 0.008038 -0.002132 -0.004353 0.000000 0.000000 0.000000
# 2 -0.002132 0.022212 -0.005530 0.000000 0.000000 0.000000
# 3 -0.004353 -0.005530 0.016799 0.000000 0.000000 0.000000
# 4 0.000000 0.000000 0.000000 0.040157 0.000000 0.000000
# 5 0.000000 0.000000 0.000000 0.000000 0.026324 0.000000
# 6 0.000000 0.000000 0.000000 0.000000 0.000000 0.042992
#
#
# Mechanical properties :
#
#
# Convention : Reuss Voigt Hill
#
# Bulk Modulus (GPa) = 43.44507 55.56256 49.50382
# Shear Modulus (GPa) = 26.56395 29.93893 28.25144
#
# Velocity S-wave (km/s) = 3.62898 3.85262 3.74247
# Velocity P-wave (km/s) = 6.25283 6.88014 6.57397
#
# Compressibility (1/GPa) = 0.02301757
#
# Stress axis : x y z
#
# Youngs Moduli (GPa) = 124.41104 45.02050 59.52763
#
# Poissons Ratio (x) = 0.09600 0.25914
# Poissons Ratio (y) = 0.26530 0.32918
# Poissons Ratio (z) = 0.54159 0.24896
#
# Static dielectric constant tensor:
#      x y z
#    x 1.842990 0.000000 0.000000 
#    y 0.000000 1.838590 0.000000 
#    z 0.000000 0.000000 1.689750 
# 
# From -- ./inp_files/50379.got.cif
#   From: 2010.05.17/outbox.cif.g08.bks.cpg/sg70_26_cif.got.tgz:50379.got - 2010.06.03 15:57:51.
