data_PCOD9514397
_publ_section_title
;
Structure prediction by ZEFSAII (Michael W. Deem and Ramdas Pophale) SiO2 
 PCOD9514397
Probable space group: F D D D
;
_chemical_formula_sum "Si O2"
_cell_formula_units_Z 160
_cell_length_a 12.429821
_cell_length_b 14.090505
_cell_length_c 38.421573
_cell_angle_alpha 90.000000
_cell_angle_beta 90.000000
_cell_angle_gamma 90.000000
_cell_volume 6729.248618
_symmetry_space_group_name_H-M "F D D D"
_symmetry_group_IT_number 70
_space_group.IT_coordinate_system_code '2'
_symmetry_cell_setting 'orthorhombic'
loop_
_space_group_symop_operation_xyz
x,y,z
1/4-x,1/4-y,z
x,1/4-y,1/4-z
1/4-x,y,1/4-z
-x,-y,-z
3/4+x,3/4+y,-z
-x,3/4+y,3/4+z
3/4+x,-y,3/4+z
x,1/2+y,1/2+z
1/4-x,3/4-y,1/2+z
x,3/4-y,3/4-z
1/4-x,1/2+y,3/4-z
-x,1/2-y,1/2-z
3/4+x,1/4+y,1/2-z
-x,1/4+y,1/4+z
3/4+x,1/2-y,1/4+z
1/2+x,y,1/2+z
3/4-x,1/4-y,1/2+z
1/2+x,1/4-y,3/4-z
3/4-x,y,3/4-z
1/2-x,-y,1/2-z
1/4+x,3/4+y,1/2-z
1/2-x,3/4+y,1/4+z
1/4+x,-y,1/4+z
1/2+x,1/2+y,z
3/4-x,3/4-y,z
1/2+x,3/4-y,1/4-z
3/4-x,1/2+y,1/4-z
1/2-x,1/2-y,-z
1/4+x,1/4+y,-z
1/2-x,1/4+y,3/4+z
1/4+x,1/2-y,3/4+z
loop_
_atom_site_type_symbol
_atom_site_label
_atom_site_fract_x
_atom_site_fract_y
_atom_site_fract_z
Si Si1 0.635504 0.512742 0.944665
Si Si2 0.337964 0.241376 0.913599
Si Si3 0.890760 0.238975 0.914119
Si Si4 0.191619 0.042804 0.792790
Si Si5 0.026954 0.768661 0.519153
O O1 0.625000 0.625000 0.937502
O O2 0.530011 0.473613 0.925444
O O3 0.748100 0.475099 0.929939
O O4 0.650594 0.505533 0.986237
O O5 0.375000 0.270601 0.875000
O O6 0.345511 0.125935 0.913740
O O7 0.415836 0.264771 0.945692
O O8 0.875000 0.270083 0.875000
O O9 0.783161 0.258904 0.935966
O O10 0.125000 0.125000 0.815300
O O11 0.097270 0.985582 0.773663
O O12 0.253646 0.117740 0.768268
#
# Coordination Sequence:
#
# PCOD9514397 Si02
#       5
#    32  32  32  32  32
#     4  10  19  27  44  71  96 120 153 199 242 283
#     4   9  17  28  45  64  92 125 152 187 243 287
#     4   9  17  26  42  68  94 117 148 194 242 291
#     4   7  16  29  46  60  90 127 154 185 243 276
#     4   8  16  30  45  65  92 122 160 188 230 295
#
# _framework density 23.776800000000001
#
# number of rings (size 3 to 8) (size 9 to 14) (size 15 to 20)
#    1.200    2.000    0.000    0.600    2.800    1.600 
#    0.000    0.000    0.000    0.600    0.000    2.800 
#    0.000    0.000    0.000    0.000    0.000    0.000 
#
# Total GULP energy -222818.478355 kJ/mol
# GULP energy per Si atom -5570.461959 kJ/mol
# Density = 2.372268 g / cm^3
# Si number density = 23.776800 Si / 1000 Ang^3
#
#
#
# Elastic Constant Matrix: (Units=GPa)
#
#
# Indices 1 2 3 4 5 6 
#
# 1 218.0524 29.0292 119.8830 0.0000 0.0000 0.0000
# 2 29.0292 67.6196 2.9695 0.0000 0.0000 0.0000
# 3 119.8830 2.9695 173.0597 0.0000 0.0000 0.0000
# 4 0.0000 0.0000 0.0000 -37.1821 0.0000 0.0000
# 5 0.0000 0.0000 0.0000 0.0000 37.4427 0.0000
# 6 0.0000 0.0000 0.0000 0.0000 0.0000 13.5229
#
#
#
# Elastic Compliance Matrix: (Units=1/GPa)
#
#
# Indices 1 2 3 4 5 6 
#
# 1 0.008049 -0.003213 -0.005521 0.000000 0.000000 0.000000
# 2 -0.003213 0.016082 0.001950 0.000000 0.000000 0.000000
# 3 -0.005521 0.001950 0.009569 0.000000 0.000000 0.000000
# 4 0.000000 0.000000 0.000000 -0.026895 0.000000 0.000000
# 5 0.000000 0.000000 0.000000 0.000000 0.026708 0.000000
# 6 0.000000 0.000000 0.000000 0.000000 0.000000 0.073949
#
#
# Mechanical properties :
#
#
# Convention : Reuss Voigt Hill
#
# Bulk Modulus (GPa) = 49.67017 84.72167 67.19592
# Shear Modulus (GPa) = 39.14185 23.21336 31.17761
#
# Velocity S-wave (km/s) = 4.06177 3.12797 3.62506
# Velocity P-wave (km/s) = 6.55231 6.98248 6.77081
#
# Compressibility (1/GPa) = 0.02013281
#
# Stress axis : x y z
#
# Youngs Moduli (GPa) = 124.23945 62.18008 104.50231
#
# Poissons Ratio (x) = 0.19978 0.57692
# Poissons Ratio (y) = 0.39918 -0.20376
# Poissons Ratio (z) = 0.68588 -0.12124
#
# Static dielectric constant tensor:
#      x y z
#    x 1.929750 0.000000 0.000000 
#    y 0.000000 2.008050 0.000000 
#    z 0.000000 0.000000 1.874740 
# 
# From -- ./inp_files/64674.got.cif
#   From: 2010.05.17/outbox.cif.g08.bks.cpg/sg70_33_cif.got.tgz:64674.got - 2010.06.03 15:57:51.
