data_PCOD9514586
_publ_section_title
;
Structure prediction by ZEFSAII (Michael W. Deem and Ramdas Pophale) SiO2 
 PCOD9514586
Probable space group: F D D D
;
_chemical_formula_sum "Si O2"
_cell_formula_units_Z 160
_cell_length_a 16.994022
_cell_length_b 26.955901
_cell_length_c 19.215556
_cell_angle_alpha 90.000000
_cell_angle_beta 90.000000
_cell_angle_gamma 90.000000
_cell_volume 8802.438188
_symmetry_space_group_name_H-M "F D D D"
_symmetry_group_IT_number 70
_space_group.IT_coordinate_system_code '2'
_symmetry_cell_setting 'orthorhombic'
loop_
_space_group_symop_operation_xyz
x,y,z
1/4-x,1/4-y,z
x,1/4-y,1/4-z
1/4-x,y,1/4-z
-x,-y,-z
3/4+x,3/4+y,-z
-x,3/4+y,3/4+z
3/4+x,-y,3/4+z
x,1/2+y,1/2+z
1/4-x,3/4-y,1/2+z
x,3/4-y,3/4-z
1/4-x,1/2+y,3/4-z
-x,1/2-y,1/2-z
3/4+x,1/4+y,1/2-z
-x,1/4+y,1/4+z
3/4+x,1/2-y,1/4+z
1/2+x,y,1/2+z
3/4-x,1/4-y,1/2+z
1/2+x,1/4-y,3/4-z
3/4-x,y,3/4-z
1/2-x,-y,1/2-z
1/4+x,3/4+y,1/2-z
1/2-x,3/4+y,1/4+z
1/4+x,-y,1/4+z
1/2+x,1/2+y,z
3/4-x,3/4-y,z
1/2+x,3/4-y,1/4-z
3/4-x,1/2+y,1/4-z
1/2-x,1/2-y,-z
1/4+x,1/4+y,-z
1/2-x,1/4+y,3/4+z
1/4+x,1/2-y,3/4+z
loop_
_atom_site_type_symbol
_atom_site_label
_atom_site_fract_x
_atom_site_fract_y
_atom_site_fract_z
Si Si1 0.999437 0.320022 0.622651
Si Si2 0.113012 0.304527 0.739998
Si Si3 0.667447 0.348845 0.443798
Si Si4 0.464421 0.071510 0.404279
Si Si5 0.854817 0.996708 0.625250
O O1 0.917097 0.295388 0.605228
O O2 0.036715 0.297558 0.692830
O O3 0.063064 0.309266 0.562277
O O4 0.998543 0.379330 0.630473
O O5 0.109563 0.357831 0.779165
O O6 0.131056 0.262614 0.795795
O O7 0.706592 0.375000 0.375000
O O8 0.715243 0.333420 0.512924
O O9 0.631412 0.297175 0.418213
O O10 0.375000 0.066987 0.375000
O O11 0.517602 0.024160 0.387851
#
# Coordination Sequence:
#
# PCOD9514586 Si02
#       5
#    32  32  32  32  32
#     4  10  19  37  58  78 114 146 183 230 289 335
#     4   9  19  37  57  80 114 146 175 234 289 331
#     4   9  19  38  57  79 114 150 180 228 288 334
#     4  11  21  38  56  79 118 150 185 234 285 330
#     4  11  22  32  61  87 104 144 200 226 273 345
#
# _framework density 18.176781999999999
#
# number of rings (size 3 to 8) (size 9 to 14) (size 15 to 20)
#    0.000    2.000    4.000    1.800    2.800    0.000 
#    0.000    0.000    0.000    0.000    0.000    2.800 
#    0.000    0.000    0.000    0.000    0.000    0.000 
#
# Total GULP energy -222728.904933 kJ/mol
# GULP energy per Si atom -5568.222623 kJ/mol
# Density = 1.813541 g / cm^3
# Si number density = 18.176782 Si / 1000 Ang^3
#
#
#
# Elastic Constant Matrix: (Units=GPa)
#
#
# Indices 1 2 3 4 5 6 
#
# 1 71.2024 48.6522 16.0918 0.0000 0.0000 0.0000
# 2 48.6522 64.3628 22.6062 0.0000 0.0000 0.0000
# 3 16.0918 22.6062 98.8285 0.0000 0.0000 0.0000
# 4 0.0000 0.0000 0.0000 25.4192 0.0000 0.0000
# 5 0.0000 0.0000 0.0000 0.0000 8.5182 0.0000
# 6 0.0000 0.0000 0.0000 0.0000 0.0000 15.6598
#
#
#
# Elastic Compliance Matrix: (Units=1/GPa)
#
#
# Indices 1 2 3 4 5 6 
#
# 1 0.029057 -0.022076 0.000319 0.000000 0.000000 0.000000
# 2 -0.022076 0.033667 -0.004106 0.000000 0.000000 0.000000
# 3 0.000319 -0.004106 0.011006 0.000000 0.000000 0.000000
# 4 0.000000 0.000000 0.000000 0.039340 0.000000 0.000000
# 5 0.000000 0.000000 0.000000 0.000000 0.117396 0.000000
# 6 0.000000 0.000000 0.000000 0.000000 0.000000 0.063858
#
#
# Mechanical properties :
#
#
# Convention : Reuss Voigt Hill
#
# Bulk Modulus (GPa) = 45.45139 45.45490 45.45315
# Shear Modulus (GPa) = 14.14882 19.72233 16.93557
#
# Velocity S-wave (km/s) = 2.79301 3.29755 3.05571
# Velocity P-wave (km/s) = 5.95489 6.28966 6.12456
#
# Compressibility (1/GPa) = 0.02200153
#
# Stress axis : x y z
#
# Youngs Moduli (GPa) = 34.41491 29.70274 90.85961
#
# Poissons Ratio (x) = 0.65573 -0.02894
# Poissons Ratio (y) = 0.75976 0.37311
# Poissons Ratio (z) = -0.01096 0.12197
#
# Static dielectric constant tensor:
#      x y z
#    x 1.593770 0.000000 0.000000 
#    y 0.000000 1.636810 0.000000 
#    z 0.000000 0.000000 1.675540 
# 
# From -- ./inp_files/35099.got.cif
#   From: 2010.05.17/outbox.cif.g08.bks.cpg/sg70_18_cif.got.tgz:35099.got - 2010.06.03 15:57:51.
