data_PCOD9514670
_publ_section_title
;
Structure prediction by ZEFSAII (Michael W. Deem and Ramdas Pophale) SiO2 
 PCOD9514670
Probable space group: F D D D
;
_chemical_formula_sum "Si O2"
_cell_formula_units_Z 192
_cell_length_a 10.782582
_cell_length_b 27.807098
_cell_length_c 30.828500
_cell_angle_alpha 90.000000
_cell_angle_beta 90.000000
_cell_angle_gamma 90.000000
_cell_volume 9243.380503
_symmetry_space_group_name_H-M "F D D D"
_symmetry_group_IT_number 70
_space_group.IT_coordinate_system_code '2'
_symmetry_cell_setting 'orthorhombic'
loop_
_space_group_symop_operation_xyz
x,y,z
1/4-x,1/4-y,z
x,1/4-y,1/4-z
1/4-x,y,1/4-z
-x,-y,-z
3/4+x,3/4+y,-z
-x,3/4+y,3/4+z
3/4+x,-y,3/4+z
x,1/2+y,1/2+z
1/4-x,3/4-y,1/2+z
x,3/4-y,3/4-z
1/4-x,1/2+y,3/4-z
-x,1/2-y,1/2-z
3/4+x,1/4+y,1/2-z
-x,1/4+y,1/4+z
3/4+x,1/2-y,1/4+z
1/2+x,y,1/2+z
3/4-x,1/4-y,1/2+z
1/2+x,1/4-y,3/4-z
3/4-x,y,3/4-z
1/2-x,-y,1/2-z
1/4+x,3/4+y,1/2-z
1/2-x,3/4+y,1/4+z
1/4+x,-y,1/4+z
1/2+x,1/2+y,z
3/4-x,3/4-y,z
1/2+x,3/4-y,1/4-z
3/4-x,1/2+y,1/4-z
1/2-x,1/2-y,-z
1/4+x,1/4+y,-z
1/2-x,1/4+y,3/4+z
1/4+x,1/2-y,3/4+z
loop_
_atom_site_type_symbol
_atom_site_label
_atom_site_fract_x
_atom_site_fract_y
_atom_site_fract_z
Si Si1 0.373853 0.769263 0.227803
Si Si2 0.375000 0.875000 0.680512
Si Si3 0.936800 0.425085 0.309229
Si Si4 0.353756 0.789964 0.127567
Si Si5 0.875000 0.245948 0.375000
Si Si6 0.837315 0.451016 0.000873
Si Si7 0.197717 0.785851 0.937310
O O1 0.500000 0.750000 0.250000
O O2 0.326261 0.811696 0.259022
O O3 0.360666 0.788948 0.179174
O O4 0.283226 0.723674 0.230101
O O5 0.308618 0.912503 0.647913
O O6 0.445106 0.908658 0.715544
O O7 0.875000 0.375000 0.319970
O O8 0.866000 0.467740 0.334630
O O9 0.082179 0.428718 0.320591
O O10 0.500931 0.783750 0.116858
O O11 0.282249 0.744187 0.106978
O O12 0.938106 0.440870 0.963156
O O13 0.895838 0.493555 0.030789
#
# Coordination Sequence:
#
# PCOD9514670 Si02
#       7
#    32  16  32  32  16  32  32
#     4  11  22  37  60  88 129 173 206 266 339 395
#     4  10  22  38  64  93 126 159 218 280 318 394
#     4  10  20  34  58  89 119 157 213 266 314 387
#     4  10  21  38  61  92 123 164 214 264 334 390
#     4  10  19  40  58  82 122 170 200 254 331 396
#     4   9  19  39  60  84 120 170 209 253 336 394
#     4   8  18  38  60  79 120 166 207 250 321 400
#
# _framework density 20.771622000000001
#
# number of rings (size 3 to 8) (size 9 to 14) (size 15 to 20)
#    0.000    2.333    1.667    1.250    1.167    2.000 
#    0.000    3.333    0.000    1.000    0.000    0.000 
#    0.000    0.000    0.000    0.000    0.000    0.000 
#
# Total GULP energy -267277.978206 kJ/mol
# GULP energy per Si atom -5568.291213 kJ/mol
# Density = 2.072434 g / cm^3
# Si number density = 20.771622 Si / 1000 Ang^3
#
#
#
# Elastic Constant Matrix: (Units=GPa)
#
#
# Indices 1 2 3 4 5 6 
#
# 1 66.8217 24.4859 16.3428 0.0000 0.0000 0.0000
# 2 24.4859 75.6117 36.4512 0.0000 0.0000 0.0000
# 3 16.3428 36.4512 132.3592 0.0000 0.0000 0.0000
# 4 0.0000 0.0000 0.0000 30.6511 0.0000 0.0000
# 5 0.0000 0.0000 0.0000 0.0000 16.9843 0.0000
# 6 0.0000 0.0000 0.0000 0.0000 0.0000 14.7267
#
#
#
# Elastic Compliance Matrix: (Units=1/GPa)
#
#
# Indices 1 2 3 4 5 6 
#
# 1 0.017032 -0.005191 -0.000673 0.000000 0.000000 0.000000
# 2 -0.005191 0.016832 -0.003995 0.000000 0.000000 0.000000
# 3 -0.000673 -0.003995 0.008738 0.000000 0.000000 0.000000
# 4 0.000000 0.000000 0.000000 0.032625 0.000000 0.000000
# 5 0.000000 0.000000 0.000000 0.000000 0.058878 0.000000
# 6 0.000000 0.000000 0.000000 0.000000 0.000000 0.067904
#
#
# Mechanical properties :
#
#
# Convention : Reuss Voigt Hill
#
# Bulk Modulus (GPa) = 43.69720 47.70581 45.70150
# Shear Modulus (GPa) = 21.80014 25.63991 23.72003
#
# Velocity S-wave (km/s) = 3.24314 3.51717 3.38293
# Velocity P-wave (km/s) = 5.92508 6.28575 6.10808
#
# Compressibility (1/GPa) = 0.02288476
#
# Stress axis : x y z
#
# Youngs Moduli (GPa) = 58.71278 59.40985 114.43690
#
# Poissons Ratio (x) = 0.30840 0.07706
# Poissons Ratio (y) = 0.30478 0.45713
# Poissons Ratio (z) = 0.03954 0.23732
#
# Static dielectric constant tensor:
#      x y z
#    x 1.603630 0.000000 0.000000 
#    y 0.000000 1.757950 0.000000 
#    z 0.000000 0.000000 1.806880 
# 
# From -- ./inp_files/65003.got.cif
#   From: 2010.05.17/outbox.cif.g08.bks.cpg/sg70_33_cif.got.tgz:65003.got - 2010.06.03 15:57:51.
