data_PCOD9514034
_publ_section_title
;
Structure prediction by ZEFSAII (Michael W. Deem and Ramdas Pophale) SiO2 
 PCOD9514034
Probable space group: F D D D
;
_chemical_formula_sum "Si O2"
_cell_formula_units_Z 192
_cell_length_a 20.051615
_cell_length_b 21.297798
_cell_length_c 19.041140
_cell_angle_alpha 90.000000
_cell_angle_beta 90.000000
_cell_angle_gamma 90.000000
_cell_volume 8131.618724
_symmetry_space_group_name_H-M "F D D D"
_symmetry_group_IT_number 70
_space_group.IT_coordinate_system_code '2'
_symmetry_cell_setting 'orthorhombic'
loop_
_space_group_symop_operation_xyz
x,y,z
1/4-x,1/4-y,z
x,1/4-y,1/4-z
1/4-x,y,1/4-z
-x,-y,-z
3/4+x,3/4+y,-z
-x,3/4+y,3/4+z
3/4+x,-y,3/4+z
x,1/2+y,1/2+z
1/4-x,3/4-y,1/2+z
x,3/4-y,3/4-z
1/4-x,1/2+y,3/4-z
-x,1/2-y,1/2-z
3/4+x,1/4+y,1/2-z
-x,1/4+y,1/4+z
3/4+x,1/2-y,1/4+z
1/2+x,y,1/2+z
3/4-x,1/4-y,1/2+z
1/2+x,1/4-y,3/4-z
3/4-x,y,3/4-z
1/2-x,-y,1/2-z
1/4+x,3/4+y,1/2-z
1/2-x,3/4+y,1/4+z
1/4+x,-y,1/4+z
1/2+x,1/2+y,z
3/4-x,3/4-y,z
1/2+x,3/4-y,1/4-z
3/4-x,1/2+y,1/4-z
1/2-x,1/2-y,-z
1/4+x,1/4+y,-z
1/2-x,1/4+y,3/4+z
1/4+x,1/2-y,3/4+z
loop_
_atom_site_type_symbol
_atom_site_label
_atom_site_fract_x
_atom_site_fract_y
_atom_site_fract_z
Si Si1 0.188983 0.487355 0.003707
Si Si2 0.469898 0.402883 0.633849
Si Si3 0.453838 0.989217 0.931944
Si Si4 0.583075 0.223917 0.840933
Si Si5 0.251129 0.634085 0.228357
Si Si6 0.592670 0.390645 0.957862
O O1 0.174942 0.502000 0.920804
O O2 0.201375 0.411963 0.998245
O O3 0.121639 0.503971 0.044992
O O4 0.239990 0.541509 0.027043
O O5 0.527044 0.456089 0.623152
O O6 0.468452 0.333710 0.669013
O O7 0.405849 0.441187 0.661466
O O8 0.463427 0.383044 0.551258
O O9 0.473151 0.916691 0.922857
O O10 0.500000 0.000000 0.000000
O O11 0.577975 0.284682 0.790486
O O12 0.331277 0.627112 0.232502
O O13 0.590481 0.375000 0.875000
#
# Coordination Sequence:
#
# PCOD9514034 Si02
#       6
#    32  32  32  32  32  32
#     4  10  16  25  39  64  84 127 164 198 229 306
#     4   9  15  25  42  63  78 121 161 198 236 299
#     4  10  13  22  39  61  80 115 167 190 218 278
#     4   9  16  25  40  63  87 109 162 207 239 278
#     4  10  17  25  42  63  89 127 164 193 237 298
#     4  10  18  28  40  64  94 126 158 213 247 280
#
# _framework density 23.611536000000001
#
# number of rings (size 3 to 8) (size 9 to 14) (size 15 to 20)
#    0.000    2.333    6.667    1.500    0.000    0.000 
#    0.000    0.000    0.000    7.000    0.000    4.667 
#    0.000    0.000    0.000    0.000    0.000    0.500 
#
# Total GULP energy -267477.934260 kJ/mol
# GULP energy per Si atom -5572.456964 kJ/mol
# Density = 2.355779 g / cm^3
# Si number density = 23.611536 Si / 1000 Ang^3
#
#
#
# Elastic Constant Matrix: (Units=GPa)
#
#
# Indices 1 2 3 4 5 6 
#
# 1 39.5532 37.0771 -1.8624 0.0000 0.0000 0.0000
# 2 37.0771 254.5378 51.7703 0.0000 0.0000 0.0000
# 3 -1.8624 51.7703 47.4481 0.0000 0.0000 0.0000
# 4 0.0000 0.0000 0.0000 62.5519 0.0000 0.0000
# 5 0.0000 0.0000 0.0000 0.0000 9.8749 0.0000
# 6 0.0000 0.0000 0.0000 0.0000 0.0000 107.5267
#
#
#
# Elastic Compliance Matrix: (Units=1/GPa)
#
#
# Indices 1 2 3 4 5 6 
#
# 1 0.031489 -0.006218 0.008020 0.000000 0.000000 0.000000
# 2 -0.006218 0.006277 -0.007093 0.000000 0.000000 0.000000
# 3 0.008020 -0.007093 0.029129 0.000000 0.000000 0.000000
# 4 0.000000 0.000000 0.000000 0.015987 0.000000 0.000000
# 5 0.000000 0.000000 0.000000 0.000000 0.101267 0.000000
# 6 0.000000 0.000000 0.000000 0.000000 0.000000 0.009300
#
#
# Mechanical properties :
#
#
# Convention : Reuss Voigt Hill
#
# Bulk Modulus (GPa) = 17.75745 57.27878 37.51812
# Shear Modulus (GPa) = 22.44148 52.96098 37.70123
#
# Velocity S-wave (km/s) = 3.08627 4.74118 4.00024
# Velocity P-wave (km/s) = 4.49857 7.36772 6.10411
#
# Compressibility (1/GPa) = 0.05631438
#
# Stress axis : x y z
#
# Youngs Moduli (GPa) = 31.75722 159.31009 34.32946
#
# Poissons Ratio (x) = 0.99060 -0.27534
# Poissons Ratio (y) = 0.19747 0.24350
# Poissons Ratio (z) = -0.25471 1.12997
#
# Static dielectric constant tensor:
#      x y z
#    x 1.897730 0.000000 0.000000 
#    y 0.000000 1.997770 0.000000 
#    z 0.000000 0.000000 2.013510 
# 
# From -- ./inp_files/45916.got.cif
#   From: 2010.05.17/outbox.cif.g08.bks.cpg/sg70_23_cif.got.tgz:45916.got - 2010.06.03 15:57:51.
