data_PCOD9514596
_publ_section_title
;
Structure prediction by ZEFSAII (Michael W. Deem and Ramdas Pophale) SiO2 
 PCOD9514596
Probable space group: F D D D
;
_chemical_formula_sum "Si O2"
_cell_formula_units_Z 112
_cell_length_a 12.252295
_cell_length_b 14.650707
_cell_length_c 27.761508
_cell_angle_alpha 90.000000
_cell_angle_beta 90.000000
_cell_angle_gamma 90.000000
_cell_volume 4983.323500
_symmetry_space_group_name_H-M "F D D D"
_symmetry_group_IT_number 70
_space_group.IT_coordinate_system_code '2'
_symmetry_cell_setting 'orthorhombic'
loop_
_space_group_symop_operation_xyz
x,y,z
1/4-x,1/4-y,z
x,1/4-y,1/4-z
1/4-x,y,1/4-z
-x,-y,-z
3/4+x,3/4+y,-z
-x,3/4+y,3/4+z
3/4+x,-y,3/4+z
x,1/2+y,1/2+z
1/4-x,3/4-y,1/2+z
x,3/4-y,3/4-z
1/4-x,1/2+y,3/4-z
-x,1/2-y,1/2-z
3/4+x,1/4+y,1/2-z
-x,1/4+y,1/4+z
3/4+x,1/2-y,1/4+z
1/2+x,y,1/2+z
3/4-x,1/4-y,1/2+z
1/2+x,1/4-y,3/4-z
3/4-x,y,3/4-z
1/2-x,-y,1/2-z
1/4+x,3/4+y,1/2-z
1/2-x,3/4+y,1/4+z
1/4+x,-y,1/4+z
1/2+x,1/2+y,z
3/4-x,3/4-y,z
1/2+x,3/4-y,1/4-z
3/4-x,1/2+y,1/4-z
1/2-x,1/2-y,-z
1/4+x,1/4+y,-z
1/2-x,1/4+y,3/4+z
1/4+x,1/2-y,3/4+z
loop_
_atom_site_type_symbol
_atom_site_label
_atom_site_fract_x
_atom_site_fract_y
_atom_site_fract_z
Si Si1 0.689098 0.912183 0.227466
Si Si2 0.705747 0.538336 0.991342
Si Si3 0.375000 0.875000 0.649745
Si Si4 0.009811 0.524971 0.644338
O O1 0.675903 0.820500 0.260954
O O2 0.567572 0.941780 0.213237
O O3 0.769168 0.889295 0.183201
O O4 0.750000 0.000000 0.250000
O O5 0.625000 0.625000 0.983584
O O6 0.736790 0.539640 0.048313
O O7 0.340061 0.784100 0.623560
O O8 0.999481 0.625000 0.625000
O O9 0.125000 0.487265 0.625000
#
# Coordination Sequence:
#
# PCOD9514596 Si02
#       4
#    32  32  16  32
#     4  11  19  36  60  89 119 156 187 251 310 354
#     4  11  21  36  60  92 122 150 202 244 300 357
#     4  10  22  38  66  84 117 154 198 236 312 350
#     4  10  19  37  63  79 118 162 196 235 288 346
#
# _framework density 22.474962000000001
#
# number of rings (size 3 to 8) (size 9 to 14) (size 15 to 20)
#    0.000    1.429    8.571    0.857    0.000    0.000 
#    0.000    5.714    0.000    0.000    0.000    0.000 
#    0.000    0.000    0.000    0.000    0.000    0.000 
#
# Total GULP energy -155985.922756 kJ/mol
# GULP energy per Si atom -5570.925813 kJ/mol
# Density = 2.242381 g / cm^3
# Si number density = 22.474962 Si / 1000 Ang^3
#
#
#
# Elastic Constant Matrix: (Units=GPa)
#
#
# Indices 1 2 3 4 5 6 
#
# 1 126.3126 65.2483 -16.4741 0.0000 0.0000 0.0000
# 2 65.2483 174.9758 -4.9712 0.0000 0.0000 0.0000
# 3 -16.4741 -4.9712 25.9910 0.0000 0.0000 0.0000
# 4 0.0000 0.0000 0.0000 -61.1673 0.0000 0.0000
# 5 0.0000 0.0000 0.0000 0.0000 17.7206 0.0000
# 6 0.0000 0.0000 0.0000 0.0000 0.0000 65.4178
#
#
#
# Elastic Compliance Matrix: (Units=1/GPa)
#
#
# Indices 1 2 3 4 5 6 
#
# 1 0.010671 -0.003808 0.006035 0.000000 0.000000 0.000000
# 2 -0.003808 0.007105 -0.001055 0.000000 0.000000 0.000000
# 3 0.006035 -0.001055 0.042099 0.000000 0.000000 0.000000
# 4 0.000000 0.000000 0.000000 -0.016349 0.000000 0.000000
# 5 0.000000 0.000000 0.000000 0.000000 0.056432 0.000000
# 6 0.000000 0.000000 0.000000 0.000000 0.000000 0.015286
#
#
# Mechanical properties :
#
#
# Convention : Reuss Voigt Hill
#
# Bulk Modulus (GPa) = 16.07178 46.09837 31.08507
# Shear Modulus (GPa) = 37.41451 23.29263 30.35357
#
# Velocity S-wave (km/s) = 4.08452 3.22278 3.67897
# Velocity P-wave (km/s) = 5.42319 5.86549 5.64867
#
# Compressibility (1/GPa) = 0.06222086
#
# Stress axis : x y z
#
# Youngs Moduli (GPa) = 93.71246 140.74576 23.75373
#
# Poissons Ratio (x) = 0.53592 -0.14336
# Poissons Ratio (y) = 0.35683 0.02505
# Poissons Ratio (z) = -0.56559 0.14842
#
# Static dielectric constant tensor:
#      x y z
#    x 1.894440 0.000000 0.000000 
#    y 0.000000 2.132690 0.000000 
#    z 0.000000 0.000000 1.915350 
# 
# From -- ./inp_files/15036.got.cif
#   From: 2010.05.17/outbox.cif.g08.bks.cpg/sg70_8_cif.got.tgz:15036.got - 2010.06.03 15:57:51.
