data_PCOD9514005
_publ_section_title
;
Structure prediction by ZEFSAII (Michael W. Deem and Ramdas Pophale) SiO2 
 PCOD9514005
Probable space group: F M M M
;
_chemical_formula_sum "Si O2"
_cell_formula_units_Z 44
_cell_length_a 18.000000
_cell_length_b 18.000000
_cell_length_c 27.000000
_cell_angle_alpha 90.000000
_cell_angle_beta 90.000000
_cell_angle_gamma 90.000000
_cell_volume 8748.000000
_symmetry_space_group_name_H-M "F M M M"
_symmetry_group_IT_number 69
_symmetry_cell_setting 'orthorhombic'
loop_
_space_group_symop_operation_xyz
x,y,z
-x,-y,z
x,-y,-z
-x,y,-z
-x,-y,-z
x,y,-z
-x,y,z
x,-y,z
x,1/2+y,1/2+z
-x,1/2-y,1/2+z
x,1/2-y,1/2-z
-x,1/2+y,1/2-z
-x,1/2-y,1/2-z
x,1/2+y,1/2-z
-x,1/2+y,1/2+z
x,1/2-y,1/2+z
1/2+x,y,1/2+z
1/2-x,-y,1/2+z
1/2+x,-y,1/2-z
1/2-x,y,1/2-z
1/2-x,-y,1/2-z
1/2+x,y,1/2-z
1/2-x,y,1/2+z
1/2+x,-y,1/2+z
1/2+x,1/2+y,z
1/2-x,1/2-y,z
1/2+x,1/2-y,-z
1/2-x,1/2+y,-z
1/2-x,1/2-y,-z
1/2+x,1/2+y,-z
1/2-x,1/2+y,z
1/2+x,1/2-y,z
loop_
_atom_site_type_symbol
_atom_site_label
_atom_site_fract_x
_atom_site_fract_y
_atom_site_fract_z
Si Si1 0.912504 0.310801 0.401085
Si Si2 0.295761 0.915766 0.798365
Si Si3 0.714552 0.082949 0.399854
Si Si4 0.147398 0.666043 0.057002
Si Si5 0.000000 0.085930 0.439559
Si Si6 0.086205 0.786791 0.303539
O O1 0.868118 0.386897 0.405593
O O2 0.871886 0.251845 0.436466
O O3 0.902385 0.274177 0.346617
O O4 0.000000 0.315629 0.411494
O O5 0.250000 0.894197 0.750000
O O6 0.236728 0.918685 0.842495
O O7 0.358665 0.855686 0.809463
O O8 0.325859 0.000000 0.792111
O O9 0.775304 0.139483 0.421240
O O10 0.724882 0.000000 0.420565
O O11 0.075090 0.624324 0.079214
O O12 0.150099 0.645595 0.000000
O O13 0.000000 0.092566 0.500000
O O14 0.000000 0.000000 0.426849
O O15 0.098792 0.750000 0.250000
O O16 0.000000 0.810433 0.306109
#
# Coordination Sequence:
#
# PCOD9514005 Si02
#       6
#    32  32  32  32  16  32
#     4  11  23  40  62  89 120 158 207 253 301 363
#     4  10  21  37  58  86 119 156 198 247 303 359
#     4  11  24  40  60  89 122 159 205 252 303 363
#     4  11  22  39  62  90 122 157 201 251 302 362
#     4   9  18  34  58  88 122 157 193 243 309 366
#     4  10  21  37  58  86 118 156 200 247 300 358
#
# _framework density 5.0297210000000003
#
# number of rings (size 3 to 8) (size 9 to 14) (size 15 to 20)
#    0.000    1.545    2.727    2.182    0.000    5.091 
#    0.000    0.000    0.000    6.545    0.000    2.545 
#    0.000    0.000    0.000    0.000    0.000    0.000 
#
# Total GULP energy -245666.979306 kJ/mol
# GULP energy per Si atom -5583.340439 kJ/mol
# Density = 0.501827 g / cm^3
# Si number density = 5.029721 Si / 1000 Ang^3
#
#
#
# Elastic Constant Matrix: (Units=GPa)
#
#
# Indices 1 2 3 4 5 6 
#
# 1 110.5768 56.9521 17.7853 0.0000 0.0000 0.0000
# 2 56.9521 48.0663 -4.5160 0.0000 0.0000 0.0000
# 3 17.7853 -4.5160 45.0273 0.0000 0.0000 0.0000
# 4 0.0000 0.0000 0.0000 15.6959 0.0000 0.0000
# 5 0.0000 0.0000 0.0000 0.0000 18.2918 0.0000
# 6 0.0000 0.0000 0.0000 0.0000 0.0000 11.6164
#
#
#
# Elastic Compliance Matrix: (Units=1/GPa)
#
#
# Indices 1 2 3 4 5 6 
#
# 1 0.032159 -0.039671 -0.016681 0.000000 0.000000 0.000000
# 2 -0.039671 0.069941 0.022685 0.000000 0.000000 0.000000
# 3 -0.016681 0.022685 0.031073 0.000000 0.000000 0.000000
# 4 0.000000 0.000000 0.000000 0.063711 0.000000 0.000000
# 5 0.000000 0.000000 0.000000 0.000000 0.054669 0.000000
# 6 0.000000 0.000000 0.000000 0.000000 0.000000 0.086085
#
#
# Mechanical properties :
#
#
# Convention : Reuss Voigt Hill
#
# Bulk Modulus (GPa) = 15.18912 38.23478 26.71195
# Shear Modulus (GPa) = 11.71178 18.01743 14.86461
#
# Velocity S-wave (km/s) = 2.41535 2.99582 2.72111
# Velocity P-wave (km/s) = 3.91722 5.56886 4.81440
#
# Compressibility (1/GPa) = 0.06583659
#
# Stress axis : x y z
#
# Youngs Moduli (GPa) = 31.09539 14.29774 32.18246
#
# Poissons Ratio (x) = 0.56721 0.53685
# Poissons Ratio (y) = 1.23360 -0.73004
# Poissons Ratio (z) = 0.51871 -0.32434
#
# Static dielectric constant tensor:
#      x y z
#    x 1.679050 0.000000 0.000000 
#    y 0.000000 1.719610 0.000000 
#    z 0.000000 0.000000 1.731500 
# 
# From -- ./inp_files/26764.got.cif
#   From: 2010.05.17/outbox.ucp.g08.bks.cvg/sg69_14_cif.got.tgz:26764.got - 2010.06.11 16:51:34.
