data_PCOD9514179
_publ_section_title
;
Structure prediction by ZEFSAII (Michael W. Deem and Ramdas Pophale) SiO2 
 PCOD9514179
Probable space group: F D D D
;
_chemical_formula_sum "Si O2"
_cell_formula_units_Z 112
_cell_length_a 26.280371
_cell_length_b 17.415173
_cell_length_c 9.885824
_cell_angle_alpha 90.000000
_cell_angle_beta 90.000000
_cell_angle_gamma 90.000000
_cell_volume 4524.516322
_symmetry_space_group_name_H-M "F D D D"
_symmetry_group_IT_number 70
_space_group.IT_coordinate_system_code '2'
_symmetry_cell_setting 'orthorhombic'
loop_
_space_group_symop_operation_xyz
x,y,z
1/4-x,1/4-y,z
x,1/4-y,1/4-z
1/4-x,y,1/4-z
-x,-y,-z
3/4+x,3/4+y,-z
-x,3/4+y,3/4+z
3/4+x,-y,3/4+z
x,1/2+y,1/2+z
1/4-x,3/4-y,1/2+z
x,3/4-y,3/4-z
1/4-x,1/2+y,3/4-z
-x,1/2-y,1/2-z
3/4+x,1/4+y,1/2-z
-x,1/4+y,1/4+z
3/4+x,1/2-y,1/4+z
1/2+x,y,1/2+z
3/4-x,1/4-y,1/2+z
1/2+x,1/4-y,3/4-z
3/4-x,y,3/4-z
1/2-x,-y,1/2-z
1/4+x,3/4+y,1/2-z
1/2-x,3/4+y,1/4+z
1/4+x,-y,1/4+z
1/2+x,1/2+y,z
3/4-x,3/4-y,z
1/2+x,3/4-y,1/4-z
3/4-x,1/2+y,1/4-z
1/2-x,1/2-y,-z
1/4+x,1/4+y,-z
1/2-x,1/4+y,3/4+z
1/4+x,1/2-y,3/4+z
loop_
_atom_site_type_symbol
_atom_site_label
_atom_site_fract_x
_atom_site_fract_y
_atom_site_fract_z
Si Si1 0.931147 0.125000 0.125000
Si Si2 0.672127 0.735966 0.046008
Si Si3 0.748837 0.738485 0.288372
Si Si4 0.813653 0.373338 0.700426
O O1 0.903450 0.190672 0.209422
O O2 0.964711 0.170827 0.015858
O O3 0.625000 0.704598 0.125000
O O4 0.713007 0.756580 0.159406
O O5 0.691266 0.673358 0.941586
O O6 0.785130 0.813197 0.301616
O O7 0.713881 0.703854 0.408982
O O8 0.875000 0.375000 0.726105
#
# Coordination Sequence:
#
# PCOD9514179 Si02
#       4
#    16  32  32  32
#     4  10  18  30  43  70 108 142 179 224 272 342
#     4  11  19  28  48  72 110 149 175 224 287 338
#     4  11  18  31  45  74 117 145 178 227 283 347
#     4  11  20  30  50  77 118 149 176 226 290 340
#
# _framework density 24.754028000000002
#
# number of rings (size 3 to 8) (size 9 to 14) (size 15 to 20)
#    0.000    1.143    8.571    1.714    0.000    0.000 
#    0.000    0.000    0.000    0.000    0.000   18.000 
#    0.000   10.286    0.000    0.000    0.000    0.000 
#
# Total GULP energy -156420.070414 kJ/mol
# GULP energy per Si atom -5586.431086 kJ/mol
# Density = 2.469769 g / cm^3
# Si number density = 24.754028 Si / 1000 Ang^3
#
#
#
# Elastic Constant Matrix: (Units=GPa)
#
#
# Indices 1 2 3 4 5 6 
#
# 1 141.2929 70.9468 36.2623 0.0000 0.0000 0.0000
# 2 70.9468 166.7069 47.7087 0.0000 0.0000 0.0000
# 3 36.2623 47.7087 116.5199 0.0000 0.0000 0.0000
# 4 0.0000 0.0000 0.0000 13.1489 0.0000 0.0000
# 5 0.0000 0.0000 0.0000 0.0000 -22.8553 0.0000
# 6 0.0000 0.0000 0.0000 0.0000 0.0000 61.7762
#
#
#
# Elastic Compliance Matrix: (Units=1/GPa)
#
#
# Indices 1 2 3 4 5 6 
#
# 1 0.009206 -0.003509 -0.001428 0.000000 0.000000 0.000000
# 2 -0.003509 0.008132 -0.002238 0.000000 0.000000 0.000000
# 3 -0.001428 -0.002238 0.009943 0.000000 0.000000 0.000000
# 4 0.000000 0.000000 0.000000 0.076052 0.000000 0.000000
# 5 0.000000 0.000000 0.000000 0.000000 -0.043754 0.000000
# 6 0.000000 0.000000 0.000000 0.000000 0.000000 0.016187
#
#
# Mechanical properties :
#
#
# Convention : Reuss Voigt Hill
#
# Bulk Modulus (GPa) = 77.33220 81.59505 79.46363
# Shear Modulus (GPa) = 52.95037 28.38741 40.66889
#
# Velocity S-wave (km/s) = 4.63002 3.39009 4.05769
# Velocity P-wave (km/s) = 7.73891 6.95395 7.35691
#
# Compressibility (1/GPa) = 0.01293122
#
# Stress axis : x y z
#
# Youngs Moduli (GPa) = 108.62377 122.96550 100.57411
#
# Poissons Ratio (x) = 0.43151 0.14364
# Poissons Ratio (y) = 0.38118 0.22505
# Poissons Ratio (z) = 0.15514 0.27516
#
# Static dielectric constant tensor:
#      x y z
#    x 2.014240 0.000000 0.000000 
#    y 0.000000 1.973860 0.000000 
#    z 0.000000 0.000000 2.209230 
# 
# From -- ./inp_files/16267.got.cif
#   From: 2010.05.17/outbox.cif.g08.bks.cpg/sg70_9_cif.got.tgz:16267.got - 2010.06.03 15:57:51.
