data_PCOD9514619
_publ_section_title
;
Structure prediction by ZEFSAII (Michael W. Deem and Ramdas Pophale) SiO2 
 PCOD9514619
Probable space group: F D D D
;
_chemical_formula_sum "Si O2"
_cell_formula_units_Z 176
_cell_length_a 10.423494
_cell_length_b 31.687184
_cell_length_c 24.090387
_cell_angle_alpha 90.000000
_cell_angle_beta 90.000000
_cell_angle_gamma 90.000000
_cell_volume 7956.842163
_symmetry_space_group_name_H-M "F D D D"
_symmetry_group_IT_number 70
_space_group.IT_coordinate_system_code '2'
_symmetry_cell_setting 'orthorhombic'
loop_
_space_group_symop_operation_xyz
x,y,z
1/4-x,1/4-y,z
x,1/4-y,1/4-z
1/4-x,y,1/4-z
-x,-y,-z
3/4+x,3/4+y,-z
-x,3/4+y,3/4+z
3/4+x,-y,3/4+z
x,1/2+y,1/2+z
1/4-x,3/4-y,1/2+z
x,3/4-y,3/4-z
1/4-x,1/2+y,3/4-z
-x,1/2-y,1/2-z
3/4+x,1/4+y,1/2-z
-x,1/4+y,1/4+z
3/4+x,1/2-y,1/4+z
1/2+x,y,1/2+z
3/4-x,1/4-y,1/2+z
1/2+x,1/4-y,3/4-z
3/4-x,y,3/4-z
1/2-x,-y,1/2-z
1/4+x,3/4+y,1/2-z
1/2-x,3/4+y,1/4+z
1/4+x,-y,1/4+z
1/2+x,1/2+y,z
3/4-x,3/4-y,z
1/2+x,3/4-y,1/4-z
3/4-x,1/2+y,1/4-z
1/2-x,1/2-y,-z
1/4+x,1/4+y,-z
1/2-x,1/4+y,3/4+z
1/4+x,1/2-y,3/4+z
loop_
_atom_site_type_symbol
_atom_site_label
_atom_site_fract_x
_atom_site_fract_y
_atom_site_fract_z
Si Si1 0.771111 0.289406 0.543608
Si Si2 0.745031 0.811713 0.232948
Si Si3 0.099688 0.864582 0.312728
Si Si4 0.776438 0.510408 0.922967
Si Si5 0.875000 0.875000 0.983003
Si Si6 0.233218 0.451488 0.235684
O O1 0.750000 0.250000 0.500000
O O2 0.623454 0.300842 0.557147
O O3 0.830839 0.332433 0.516243
O O4 0.878693 0.273783 0.587450
O O5 0.706101 0.852341 0.268508
O O6 0.760011 0.775055 0.279632
O O7 0.887194 0.815840 0.208398
O O8 0.065175 0.875000 0.375000
O O9 0.252151 0.863563 0.304174
O O10 0.041045 0.820941 0.293571
O O11 0.875000 0.496222 0.875000
O O12 0.855630 0.550132 0.948664
O O13 0.250000 0.500000 0.250000
#
# Coordination Sequence:
#
# PCOD9514619 Si02
#       6
#    32  32  32  32  16  32
#     4   9  18  37  60  87 120 172 208 260 327 402
#     4   9  21  35  58  86 124 161 205 260 328 383
#     4  11  22  35  61  93 128 163 212 268 331 400
#     4  10  20  37  63  86 118 165 219 260 320 397
#     4  10  19  38  60  88 130 166 210 264 339 402
#     4  10  21  37  57  85 126 167 202 261 329 389
#
# _framework density 22.119327999999999
#
# number of rings (size 3 to 8) (size 9 to 14) (size 15 to 20)
#    0.000    2.182    1.818    0.818    5.091    0.727 
#    0.000    0.909    4.000    0.000    0.000    0.000 
#    0.000    0.000    0.000    0.000    0.000    0.000 
#
# Total GULP energy -245048.772941 kJ/mol
# GULP energy per Si atom -5569.290294 kJ/mol
# Density = 2.206898 g / cm^3
# Si number density = 22.119328 Si / 1000 Ang^3
#
#
#
# Elastic Constant Matrix: (Units=GPa)
#
#
# Indices 1 2 3 4 5 6 
#
# 1 185.0900 40.1308 27.7150 0.0000 0.0000 0.0000
# 2 40.1308 95.8289 19.8537 0.0000 0.0000 0.0000
# 3 27.7150 19.8537 56.9383 0.0000 0.0000 0.0000
# 4 0.0000 0.0000 0.0000 24.0601 0.0000 0.0000
# 5 0.0000 0.0000 0.0000 0.0000 19.8876 0.0000
# 6 0.0000 0.0000 0.0000 0.0000 0.0000 24.3842
#
#
#
# Elastic Compliance Matrix: (Units=1/GPa)
#
#
# Indices 1 2 3 4 5 6 
#
# 1 0.006205 -0.002126 -0.002279 0.000000 0.000000 0.000000
# 2 -0.002126 0.011976 -0.003141 0.000000 0.000000 0.000000
# 3 -0.002279 -0.003141 0.019767 0.000000 0.000000 0.000000
# 4 0.000000 0.000000 0.000000 0.041563 0.000000 0.000000
# 5 0.000000 0.000000 0.000000 0.000000 0.050283 0.000000
# 6 0.000000 0.000000 0.000000 0.000000 0.000000 0.041010
#
#
# Mechanical properties :
#
#
# Convention : Reuss Voigt Hill
#
# Bulk Modulus (GPa) = 43.75162 57.02848 50.39005
# Shear Modulus (GPa) = 25.83769 30.34355 28.09062
#
# Velocity S-wave (km/s) = 3.42146 3.70782 3.56751
# Velocity P-wave (km/s) = 5.95242 6.64595 6.30872
#
# Compressibility (1/GPa) = 0.02285630
#
# Stress axis : x y z
#
# Youngs Moduli (GPa) = 161.15897 83.49686 50.58835
#
# Poissons Ratio (x) = 0.17755 0.11529
# Poissons Ratio (y) = 0.34269 0.15890
# Poissons Ratio (z) = 0.36726 0.26227
#
# Static dielectric constant tensor:
#      x y z
#    x 1.929380 0.000000 0.000000 
#    y 0.000000 1.434150 0.000000 
#    z 0.000000 0.000000 1.814230 
# 
# From -- ./inp_files/57748.got.cif
#   From: 2010.05.17/outbox.cif.g08.bks.cpg/sg70_29_cif.got.tgz:57748.got - 2010.06.03 15:57:51.
