data_PCOD9514388
_publ_section_title
;
Structure prediction by ZEFSAII (Michael W. Deem and Ramdas Pophale) SiO2 
 PCOD9514388
Probable space group: F D D D
;
_chemical_formula_sum "Si O2"
_cell_formula_units_Z 136
_cell_length_a 13.602389
_cell_length_b 20.570819
_cell_length_c 18.253225
_cell_angle_alpha 90.000000
_cell_angle_beta 90.000000
_cell_angle_gamma 90.000000
_cell_volume 5107.476543
_symmetry_space_group_name_H-M "F D D D"
_symmetry_group_IT_number 70
_space_group.IT_coordinate_system_code '2'
_symmetry_cell_setting 'orthorhombic'
loop_
_space_group_symop_operation_xyz
x,y,z
1/4-x,1/4-y,z
x,1/4-y,1/4-z
1/4-x,y,1/4-z
-x,-y,-z
3/4+x,3/4+y,-z
-x,3/4+y,3/4+z
3/4+x,-y,3/4+z
x,1/2+y,1/2+z
1/4-x,3/4-y,1/2+z
x,3/4-y,3/4-z
1/4-x,1/2+y,3/4-z
-x,1/2-y,1/2-z
3/4+x,1/4+y,1/2-z
-x,1/4+y,1/4+z
3/4+x,1/2-y,1/4+z
1/2+x,y,1/2+z
3/4-x,1/4-y,1/2+z
1/2+x,1/4-y,3/4-z
3/4-x,y,3/4-z
1/2-x,-y,1/2-z
1/4+x,3/4+y,1/2-z
1/2-x,3/4+y,1/4+z
1/4+x,-y,1/4+z
1/2+x,1/2+y,z
3/4-x,3/4-y,z
1/2+x,3/4-y,1/4-z
3/4-x,1/2+y,1/4-z
1/2-x,1/2-y,-z
1/4+x,1/4+y,-z
1/2-x,1/4+y,3/4+z
1/4+x,1/2-y,3/4+z
loop_
_atom_site_type_symbol
_atom_site_label
_atom_site_fract_x
_atom_site_fract_y
_atom_site_fract_z
Si Si1 0.250000 0.250000 0.500000
Si Si2 0.125000 0.125000 0.125000
Si Si3 0.285351 0.125000 0.625000
Si Si4 0.484582 0.347219 0.705375
Si Si5 0.709333 0.786768 0.886414
Si Si6 0.875000 0.197104 0.875000
Si Si7 0.125000 0.625000 0.007124
O O1 0.318844 0.242483 0.430623
O O2 0.177519 0.186073 0.469266
O O3 0.202591 0.177986 0.156838
O O4 0.357948 0.184673 0.603683
O O5 0.217146 0.103980 0.558616
O O6 0.375000 0.375000 0.716149
O O7 0.475852 0.288630 0.646838
O O8 0.528535 0.316051 0.780557
O O9 0.556354 0.401210 0.674237
#
# Coordination Sequence:
#
# PCOD9514388 Si02
#       7
#    16   8  16  32  32  16  16
#     4  12  30  52  84 116 170 218 298 356 464 524
#     4  10  18  42  70 106 144 198 268 318 424 494
#     4  10  22  44  74 106 156 206 280 334 440 504
#     4  11  25  44  69 108 156 207 275 348 431 517
#     4  10  22  42  72 110 154 215 266 351 419 552
#     4  12  29  53  76 121 161 224 288 370 440 546
#     4  11  26  46  73 116 151 218 270 361 414 536
#
# _framework density 26.62763
#
# number of rings (size 3 to 8) (size 9 to 14) (size 15 to 20)
#    0.000    1.176    1.176    3.529    8.235    0.000 
#    0.000    0.000    0.000    0.000    0.000    0.000 
#    0.000    0.000    0.000    0.000    0.000    0.000 
#
# Total GULP energy -189461.415426 kJ/mol
# GULP energy per Si atom -5572.394571 kJ/mol
# Density = 2.656702 g / cm^3
# Si number density = 26.627630 Si / 1000 Ang^3
#
#
#
# Elastic Constant Matrix: (Units=GPa)
#
#
# Indices 1 2 3 4 5 6 
#
# 1 179.7969 39.4675 34.5268 0.0000 0.0000 0.0000
# 2 39.4675 118.1045 25.2102 0.0000 0.0000 0.0000
# 3 34.5268 25.2102 98.5907 0.0000 0.0000 0.0000
# 4 0.0000 0.0000 0.0000 43.8153 0.0000 0.0000
# 5 0.0000 0.0000 0.0000 0.0000 57.8808 0.0000
# 6 0.0000 0.0000 0.0000 0.0000 0.0000 59.2906
#
#
#
# Elastic Compliance Matrix: (Units=1/GPa)
#
#
# Indices 1 2 3 4 5 6 
#
# 1 0.006278 -0.001723 -0.001758 0.000000 0.000000 0.000000
# 2 -0.001723 0.009429 -0.001808 0.000000 0.000000 0.000000
# 3 -0.001758 -0.001808 0.011221 0.000000 0.000000 0.000000
# 4 0.000000 0.000000 0.000000 0.022823 0.000000 0.000000
# 5 0.000000 0.000000 0.000000 0.000000 0.017277 0.000000
# 6 0.000000 0.000000 0.000000 0.000000 0.000000 0.016866
#
#
# Mechanical properties :
#
#
# Convention : Reuss Voigt Hill
#
# Bulk Modulus (GPa) = 61.16004 66.10012 63.63008
# Shear Modulus (GPa) = 50.04026 52.01651 51.02839
#
# Velocity S-wave (km/s) = 4.33975 4.42461 4.38239
# Velocity P-wave (km/s) = 6.93756 7.14008 7.03955
#
# Compressibility (1/GPa) = 0.01635055
#
# Stress axis : x y z
#
# Youngs Moduli (GPa) = 159.29828 106.06058 89.12008
#
# Poissons Ratio (x) = 0.18269 0.15667
# Poissons Ratio (y) = 0.27440 0.16110
# Poissons Ratio (z) = 0.28004 0.19173
#
# Static dielectric constant tensor:
#      x y z
#    x 2.108960 0.000000 0.000000 
#    y 0.000000 3.052900 0.000000 
#    z 0.000000 0.000000 2.101730 
# 
# From -- ./inp_files/27515.got.cif
#   From: 2010.05.17/outbox.cif.g08.bks.cpg/sg70_14_cif.got.tgz:27515.got - 2010.06.03 15:57:51.
