data_PCOD9514850
_publ_section_title
;
Structure prediction by ZEFSAII (Michael W. Deem and Ramdas Pophale) SiO2 
 PCOD9514850
Probable space group: F D D D
;
_chemical_formula_sum "Si O2"
_cell_formula_units_Z 160
_cell_length_a 20.982495
_cell_length_b 25.334296
_cell_length_c 13.177877
_cell_angle_alpha 90.000000
_cell_angle_beta 90.000000
_cell_angle_gamma 90.000000
_cell_volume 7005.052885
_symmetry_space_group_name_H-M "F D D D"
_symmetry_group_IT_number 70
_space_group.IT_coordinate_system_code '2'
_symmetry_cell_setting 'orthorhombic'
loop_
_space_group_symop_operation_xyz
x,y,z
1/4-x,1/4-y,z
x,1/4-y,1/4-z
1/4-x,y,1/4-z
-x,-y,-z
3/4+x,3/4+y,-z
-x,3/4+y,3/4+z
3/4+x,-y,3/4+z
x,1/2+y,1/2+z
1/4-x,3/4-y,1/2+z
x,3/4-y,3/4-z
1/4-x,1/2+y,3/4-z
-x,1/2-y,1/2-z
3/4+x,1/4+y,1/2-z
-x,1/4+y,1/4+z
3/4+x,1/2-y,1/4+z
1/2+x,y,1/2+z
3/4-x,1/4-y,1/2+z
1/2+x,1/4-y,3/4-z
3/4-x,y,3/4-z
1/2-x,-y,1/2-z
1/4+x,3/4+y,1/2-z
1/2-x,3/4+y,1/4+z
1/4+x,-y,1/4+z
1/2+x,1/2+y,z
3/4-x,3/4-y,z
1/2+x,3/4-y,1/4-z
3/4-x,1/2+y,1/4-z
1/2-x,1/2-y,-z
1/4+x,1/4+y,-z
1/2-x,1/4+y,3/4+z
1/4+x,1/2-y,3/4+z
loop_
_atom_site_type_symbol
_atom_site_label
_atom_site_fract_x
_atom_site_fract_y
_atom_site_fract_z
Si Si1 0.899992 0.989656 0.761727
Si Si2 0.982896 0.897701 0.524705
Si Si3 0.891979 0.297061 0.039964
Si Si4 0.367763 0.136759 0.752825
Si Si5 0.535548 0.303041 0.017659
O O1 0.875000 0.978305 0.875000
O O2 0.886991 0.050972 0.735063
O O3 0.871884 0.960255 0.661629
O O4 0.973712 0.974960 0.777718
O O5 0.947634 0.841091 0.533764
O O6 0.924106 0.933568 0.488218
O O7 0.051022 0.890392 0.472543
O O8 0.006087 0.924541 0.628738
O O9 0.912996 0.243513 0.986257
O O10 0.375000 0.132901 0.875000
O O11 0.427811 0.102233 0.717975
#
# Coordination Sequence:
#
# PCOD9514850 Si02
#       5
#    32  32  32  32  32
#     4  10  21  38  55  83 124 160 197 254 306 354
#     4   9  19  38  59  83 120 154 199 251 308 358
#     4  10  20  36  59  85 116 161 202 250 303 366
#     4   9  18  36  57  82 116 158 199 248 306 359
#     4  10  20  36  59  86 111 159 209 241 305 371
#
# _framework density 22.840655999999999
#
# number of rings (size 3 to 8) (size 9 to 14) (size 15 to 20)
#    0.000    2.400    2.000    0.000    0.000    2.400 
#    3.600    7.000    0.000    0.000    0.000    0.000 
#    0.000    0.000    0.000    0.000    0.000    0.000 
#
# Total GULP energy -222863.756709 kJ/mol
# GULP energy per Si atom -5571.593918 kJ/mol
# Density = 2.278867 g / cm^3
# Si number density = 22.840656 Si / 1000 Ang^3
#
#
#
# Elastic Constant Matrix: (Units=GPa)
#
#
# Indices 1 2 3 4 5 6 
#
# 1 124.9770 43.6615 24.5934 0.0000 0.0000 0.0000
# 2 43.6615 94.1145 30.6907 0.0000 0.0000 0.0000
# 3 24.5934 30.6907 76.0459 0.0000 0.0000 0.0000
# 4 0.0000 0.0000 0.0000 11.7447 0.0000 0.0000
# 5 0.0000 0.0000 0.0000 0.0000 -106.1065 0.0000
# 6 0.0000 0.0000 0.0000 0.0000 0.0000 366.7813
#
#
#
# Elastic Compliance Matrix: (Units=1/GPa)
#
#
# Indices 1 2 3 4 5 6 
#
# 1 0.009700 -0.004004 -0.001521 0.000000 0.000000 0.000000
# 2 -0.004004 0.013888 -0.004310 0.000000 0.000000 0.000000
# 3 -0.001521 -0.004310 0.015381 0.000000 0.000000 0.000000
# 4 0.000000 0.000000 0.000000 0.085145 0.000000 0.000000
# 5 0.000000 0.000000 0.000000 0.000000 -0.009424 0.000000
# 6 0.000000 0.000000 0.000000 0.000000 0.000000 0.002726
#
#
# Mechanical properties :
#
#
# Convention : Reuss Voigt Hill
#
# Bulk Modulus (GPa) = 51.81561 54.78095 53.29828
# Shear Modulus (GPa) = 34.83851 67.56335 51.20093
#
# Velocity S-wave (km/s) = 3.90973 5.44468 4.73975
# Velocity P-wave (km/s) = 6.56629 7.97258 7.30337
#
# Compressibility (1/GPa) = 0.01929920
#
# Stress axis : x y z
#
# Youngs Moduli (GPa) = 103.09777 72.00270 65.01374
#
# Poissons Ratio (x) = 0.28829 0.09888
# Poissons Ratio (y) = 0.41278 0.28022
# Poissons Ratio (z) = 0.15681 0.31035
#
# Static dielectric constant tensor:
#      x y z
#    x 1.875500 0.000000 0.000000 
#    y 0.000000 1.858800 0.000000 
#    z 0.000000 0.000000 1.935580 
# 
# From -- ./inp_files/36289.got.cif
#   From: 2010.05.17/outbox.cif.g08.bks.cpg/sg70_19_cif.got.tgz:36289.got - 2010.06.03 15:57:51.
