data_PCOD9514159
_publ_section_title
;
Structure prediction by ZEFSAII (Michael W. Deem and Ramdas Pophale) SiO2 
 PCOD9514159
Probable space group: F D D D
;
_chemical_formula_sum "Si O2"
_cell_formula_units_Z 144
_cell_length_a 21.014845
_cell_length_b 27.921841
_cell_length_c 12.957875
_cell_angle_alpha 90.000000
_cell_angle_beta 90.000000
_cell_angle_gamma 90.000000
_cell_volume 7603.333270
_symmetry_space_group_name_H-M "F D D D"
_symmetry_group_IT_number 70
_space_group.IT_coordinate_system_code '2'
_symmetry_cell_setting 'orthorhombic'
loop_
_space_group_symop_operation_xyz
x,y,z
1/4-x,1/4-y,z
x,1/4-y,1/4-z
1/4-x,y,1/4-z
-x,-y,-z
3/4+x,3/4+y,-z
-x,3/4+y,3/4+z
3/4+x,-y,3/4+z
x,1/2+y,1/2+z
1/4-x,3/4-y,1/2+z
x,3/4-y,3/4-z
1/4-x,1/2+y,3/4-z
-x,1/2-y,1/2-z
3/4+x,1/4+y,1/2-z
-x,1/4+y,1/4+z
3/4+x,1/2-y,1/4+z
1/2+x,y,1/2+z
3/4-x,1/4-y,1/2+z
1/2+x,1/4-y,3/4-z
3/4-x,y,3/4-z
1/2-x,-y,1/2-z
1/4+x,3/4+y,1/2-z
1/2-x,3/4+y,1/4+z
1/4+x,-y,1/4+z
1/2+x,1/2+y,z
3/4-x,3/4-y,z
1/2+x,3/4-y,1/4-z
3/4-x,1/2+y,1/4-z
1/2-x,1/2-y,-z
1/4+x,1/4+y,-z
1/2-x,1/4+y,3/4+z
1/4+x,1/2-y,3/4+z
loop_
_atom_site_type_symbol
_atom_site_label
_atom_site_fract_x
_atom_site_fract_y
_atom_site_fract_z
Si Si1 0.749528 0.476884 0.991117
Si Si2 0.730846 0.915824 0.950323
Si Si3 0.914843 0.687838 0.191822
Si Si4 0.448690 0.110506 0.345387
Si Si5 0.875000 0.255565 0.875000
O O1 0.700193 0.464153 0.900219
O O2 0.819453 0.469552 0.940478
O O3 0.741738 0.530853 0.033804
O O4 0.735981 0.438378 0.079487
O O5 0.758931 0.875000 0.875000
O O6 0.657960 0.925510 0.913450
O O7 0.726712 0.892348 0.063240
O O8 0.947841 0.640524 0.238704
O O9 0.910310 0.722307 0.291479
O O10 0.375000 0.101560 0.375000
#
# Coordination Sequence:
#
# PCOD9514159 Si02
#       5
#    32  32  32  32  16
#     4  11  21  34  63  86 121 151 188 249 295 348
#     4  10  21  37  58  85 114 152 202 242 282 348
#     4  10  17  37  60  85 114 148 197 245 283 339
#     4  10  19  36  59  87 109 155 206 240 285 343
#     4  10  20  34  57  92 120 146 183 242 306 356
#
# _framework density 18.939062
#
# number of rings (size 3 to 8) (size 9 to 14) (size 15 to 20)
#    0.000    1.778    5.556    4.000    0.000    0.889 
#    0.000    2.222    0.000    6.000    0.000    0.000 
#    0.000    0.000    0.000    0.000    0.000    0.000 
#
# Total GULP energy -200758.776126 kJ/mol
# GULP energy per Si atom -5576.632670 kJ/mol
# Density = 1.889596 g / cm^3
# Si number density = 18.939062 Si / 1000 Ang^3
#
#
#
# Elastic Constant Matrix: (Units=GPa)
#
#
# Indices 1 2 3 4 5 6 
#
# 1 21.6413 49.3344 24.0089 0.0000 0.0000 0.0000
# 2 49.3344 160.2607 46.5071 0.0000 0.0000 0.0000
# 3 24.0089 46.5071 55.3443 0.0000 0.0000 0.0000
# 4 0.0000 0.0000 0.0000 57.7636 0.0000 0.0000
# 5 0.0000 0.0000 0.0000 0.0000 15.1549 0.0000
# 6 0.0000 0.0000 0.0000 0.0000 0.0000 27.4952
#
#
#
# Elastic Compliance Matrix: (Units=1/GPa)
#
#
# Indices 1 2 3 4 5 6 
#
# 1 0.237557 -0.057163 -0.055019 0.000000 0.000000 0.000000
# 2 -0.057163 0.022007 0.006305 0.000000 0.000000 0.000000
# 3 -0.055019 0.006305 0.036639 0.000000 0.000000 0.000000
# 4 0.000000 0.000000 0.000000 0.017312 0.000000 0.000000
# 5 0.000000 0.000000 0.000000 0.000000 0.065985 0.000000
# 6 0.000000 0.000000 0.000000 0.000000 0.000000 0.036370
#
#
# Mechanical properties :
#
#
# Convention : Reuss Voigt Hill
#
# Bulk Modulus (GPa) = 11.84157 52.99412 32.41785
# Shear Modulus (GPa) = 7.62457 27.90913 17.76685
#
# Velocity S-wave (km/s) = 2.00863 3.84295 3.06617
# Velocity P-wave (km/s) = 3.41255 6.90892 5.44879
#
# Compressibility (1/GPa) = 0.08444825
#
# Stress axis : x y z
#
# Youngs Moduli (GPa) = 4.20951 45.43966 27.29366
#
# Poissons Ratio (x) = 2.59747 1.50167
# Poissons Ratio (y) = 0.24063 -0.17208
# Poissons Ratio (z) = 0.23160 -0.28648
#
# Static dielectric constant tensor:
#      x y z
#    x 1.660050 0.000000 0.000000 
#    y 0.000000 1.692950 0.000000 
#    z 0.000000 0.000000 1.680890 
# 
# From -- ./inp_files/19190.got.cif
#   From: 2010.05.17/outbox.cif.g08.bks.cpg/sg70_10_cif.got.tgz:19190.got - 2010.06.03 15:57:51.
