data_PCOD9514243
_publ_section_title
;
Structure prediction by ZEFSAII (Michael W. Deem and Ramdas Pophale) SiO2 
 PCOD9514243
Probable space group: F D D D
;
_chemical_formula_sum "Si O2"
_cell_formula_units_Z 144
_cell_length_a 19.257463
_cell_length_b 10.460797
_cell_length_c 32.552190
_cell_angle_alpha 90.000000
_cell_angle_beta 90.000000
_cell_angle_gamma 90.000000
_cell_volume 6557.586956
_symmetry_space_group_name_H-M "F D D D"
_symmetry_group_IT_number 70
_space_group.IT_coordinate_system_code '2'
_symmetry_cell_setting 'orthorhombic'
loop_
_space_group_symop_operation_xyz
x,y,z
1/4-x,1/4-y,z
x,1/4-y,1/4-z
1/4-x,y,1/4-z
-x,-y,-z
3/4+x,3/4+y,-z
-x,3/4+y,3/4+z
3/4+x,-y,3/4+z
x,1/2+y,1/2+z
1/4-x,3/4-y,1/2+z
x,3/4-y,3/4-z
1/4-x,1/2+y,3/4-z
-x,1/2-y,1/2-z
3/4+x,1/4+y,1/2-z
-x,1/4+y,1/4+z
3/4+x,1/2-y,1/4+z
1/2+x,y,1/2+z
3/4-x,1/4-y,1/2+z
1/2+x,1/4-y,3/4-z
3/4-x,y,3/4-z
1/2-x,-y,1/2-z
1/4+x,3/4+y,1/2-z
1/2-x,3/4+y,1/4+z
1/4+x,-y,1/4+z
1/2+x,1/2+y,z
3/4-x,3/4-y,z
1/2+x,3/4-y,1/4-z
3/4-x,1/2+y,1/4-z
1/2-x,1/2-y,-z
1/4+x,1/4+y,-z
1/2-x,1/4+y,3/4+z
1/4+x,1/2-y,3/4+z
loop_
_atom_site_type_symbol
_atom_site_label
_atom_site_fract_x
_atom_site_fract_y
_atom_site_fract_z
Si Si1 0.260524 0.919644 0.025393
Si Si2 0.555434 0.180114 0.690682
Si Si3 0.405231 0.508377 0.080016
Si Si4 0.135025 0.904641 0.502241
Si Si5 0.125000 0.625000 0.908547
O O1 0.224255 0.055434 0.036536
O O2 0.317361 0.970393 0.992901
O O3 0.306670 0.871654 0.063445
O O4 0.195177 0.832320 0.014473
O O5 0.625000 0.125000 0.669659
O O6 0.489188 0.234969 0.666434
O O7 0.579558 0.290281 0.722099
O O8 0.375000 0.375000 0.061300
O O9 0.384942 0.612381 0.045839
O O10 0.378410 0.493080 0.126558
#
# Coordination Sequence:
#
# PCOD9514243 Si02
#       5
#    32  32  32  32  16
#     4  10  20  35  53  85 110 151 191 240 282 353
#     4   9  17  31  58  89 108 132 195 248 287 330
#     4   9  17  32  53  76 118 151 176 224 302 356
#     4  10  18  33  63  84 109 143 201 244 287 343
#     4  10  24  34  48  78 124 151 191 228 306 352
#
# _framework density 21.959298
#
# number of rings (size 3 to 8) (size 9 to 14) (size 15 to 20)
#    0.667    1.778    0.000    6.000    0.000    4.444 
#    0.000    7.778    0.000    0.000    0.000    0.000 
#    0.000    0.000    0.000    0.000    0.000    0.000 
#
# Total GULP energy -200582.926219 kJ/mol
# GULP energy per Si atom -5571.747951 kJ/mol
# Density = 2.190932 g / cm^3
# Si number density = 21.959298 Si / 1000 Ang^3
#
#
#
# Elastic Constant Matrix: (Units=GPa)
#
#
# Indices 1 2 3 4 5 6 
#
# 1 189.7727 56.5579 38.7021 0.0000 0.0000 0.0000
# 2 56.5579 77.4547 15.9815 0.0000 0.0000 0.0000
# 3 38.7021 15.9815 98.5301 0.0000 0.0000 0.0000
# 4 0.0000 0.0000 0.0000 22.7167 0.0000 0.0000
# 5 0.0000 0.0000 0.0000 0.0000 -62.3376 0.0000
# 6 0.0000 0.0000 0.0000 0.0000 0.0000 58.2345
#
#
#
# Elastic Compliance Matrix: (Units=1/GPa)
#
#
# Indices 1 2 3 4 5 6 
#
# 1 0.007102 -0.004770 -0.002016 0.000000 0.000000 0.000000
# 2 -0.004770 0.016562 -0.000813 0.000000 0.000000 0.000000
# 3 -0.002016 -0.000813 0.011073 0.000000 0.000000 0.000000
# 4 0.000000 0.000000 0.000000 0.044021 0.000000 0.000000
# 5 0.000000 0.000000 0.000000 0.000000 -0.016042 0.000000
# 6 0.000000 0.000000 0.000000 0.000000 0.000000 0.017172
#
#
# Mechanical properties :
#
#
# Convention : Reuss Voigt Hill
#
# Bulk Modulus (GPa) = 51.17907 65.36005 58.26956
# Shear Modulus (GPa) = 49.21352 20.69046 34.95199
#
# Velocity S-wave (km/s) = 4.73919 3.07289 3.99390
# Velocity P-wave (km/s) = 7.30092 6.51299 6.91818
#
# Compressibility (1/GPa) = 0.01953924
#
# Stress axis : x y z
#
# Youngs Moduli (GPa) = 140.80054 60.38058 90.31092
#
# Poissons Ratio (x) = 0.28802 0.18207
# Poissons Ratio (y) = 0.67164 0.07339
# Poissons Ratio (z) = 0.28386 0.04907
#
# Static dielectric constant tensor:
#      x y z
#    x 1.875800 0.000000 0.000000 
#    y 0.000000 1.974130 0.000000 
#    z 0.000000 0.000000 1.813490 
# 
# From -- ./inp_files/66477.got.cif
#   From: 2010.05.17/outbox.cif.g08.bks.cpg/sg70_34_cif.got.tgz:66477.got - 2010.06.03 15:57:51.
