data_PCOD9514743
_publ_section_title
;
Structure prediction by ZEFSAII (Michael W. Deem and Ramdas Pophale) SiO2 
 PCOD9514743
Probable space group: F D D D
;
_chemical_formula_sum "Si O2"
_cell_formula_units_Z 120
_cell_length_a 24.035937
_cell_length_b 12.190801
_cell_length_c 15.404334
_cell_angle_alpha 90.000000
_cell_angle_beta 90.000000
_cell_angle_gamma 90.000000
_cell_volume 4513.736739
_symmetry_space_group_name_H-M "F D D D"
_symmetry_group_IT_number 70
_space_group.IT_coordinate_system_code '2'
_symmetry_cell_setting 'orthorhombic'
loop_
_space_group_symop_operation_xyz
x,y,z
1/4-x,1/4-y,z
x,1/4-y,1/4-z
1/4-x,y,1/4-z
-x,-y,-z
3/4+x,3/4+y,-z
-x,3/4+y,3/4+z
3/4+x,-y,3/4+z
x,1/2+y,1/2+z
1/4-x,3/4-y,1/2+z
x,3/4-y,3/4-z
1/4-x,1/2+y,3/4-z
-x,1/2-y,1/2-z
3/4+x,1/4+y,1/2-z
-x,1/4+y,1/4+z
3/4+x,1/2-y,1/4+z
1/2+x,y,1/2+z
3/4-x,1/4-y,1/2+z
1/2+x,1/4-y,3/4-z
3/4-x,y,3/4-z
1/2-x,-y,1/2-z
1/4+x,3/4+y,1/2-z
1/2-x,3/4+y,1/4+z
1/4+x,-y,1/4+z
1/2+x,1/2+y,z
3/4-x,3/4-y,z
1/2+x,3/4-y,1/4-z
3/4-x,1/2+y,1/4-z
1/2-x,1/2-y,-z
1/4+x,1/4+y,-z
1/2-x,1/4+y,3/4+z
1/4+x,1/2-y,3/4+z
loop_
_atom_site_type_symbol
_atom_site_label
_atom_site_fract_x
_atom_site_fract_y
_atom_site_fract_z
Si Si1 0.625000 0.457384 0.625000
Si Si2 0.012227 0.482014 0.186934
Si Si3 0.394765 0.716014 0.521843
Si Si4 0.280077 0.253272 0.119118
Si Si5 0.625000 0.125000 0.625000
O O1 0.564008 0.508999 0.626253
O O2 0.622334 0.390420 0.533410
O O3 0.028416 0.532722 0.279865
O O4 0.005327 0.347394 0.180218
O O5 0.950035 0.525592 0.171189
O O6 0.341392 0.752136 0.576907
O O7 0.407247 0.797854 0.441251
O O8 0.262971 0.125000 0.125000
#
# Coordination Sequence:
#
# PCOD9514743 Si02
#       5
#    16  32  32  32   8
#     4  11  24  39  64 102 133 181 236 285 357 406
#     4  12  24  43  67 102 144 190 235 302 351 432
#     4  11  23  38  64  99 143 182 233 292 358 422
#     4  12  24  39  65 101 144 184 234 295 364 415
#     4  10  20  32  64  96 136 180 222 278 350 416
#
# _framework density 26.585512000000001
#
# number of rings (size 3 to 8) (size 9 to 14) (size 15 to 20)
#    0.000    0.533    8.000    0.800    1.867    0.000 
#    0.000    1.333    0.000    0.000    0.000    0.000 
#    0.000    0.000    0.000    0.000    0.000    0.000 
#
# Total GULP energy -167622.491449 kJ/mol
# GULP energy per Si atom -5587.416382 kJ/mol
# Density = 2.652500 g / cm^3
# Si number density = 26.585512 Si / 1000 Ang^3
#
#
#
# Elastic Constant Matrix: (Units=GPa)
#
#
# Indices 1 2 3 4 5 6 
#
# 1 257.1967 52.7353 60.1118 0.0000 0.0000 0.0000
# 2 52.7353 123.3709 34.5547 0.0000 0.0000 0.0000
# 3 60.1118 34.5547 93.4057 0.0000 0.0000 0.0000
# 4 0.0000 0.0000 0.0000 34.1098 0.0000 0.0000
# 5 0.0000 0.0000 0.0000 0.0000 51.8585 0.0000
# 6 0.0000 0.0000 0.0000 0.0000 0.0000 -27.6532
#
#
#
# Elastic Compliance Matrix: (Units=1/GPa)
#
#
# Indices 1 2 3 4 5 6 
#
# 1 0.004760 -0.001313 -0.002578 0.000000 0.000000 0.000000
# 2 -0.001313 0.009405 -0.002634 0.000000 0.000000 0.000000
# 3 -0.002578 -0.002634 0.013339 0.000000 0.000000 0.000000
# 4 0.000000 0.000000 0.000000 0.029317 0.000000 0.000000
# 5 0.000000 0.000000 0.000000 0.000000 0.019283 0.000000
# 6 0.000000 0.000000 0.000000 0.000000 0.000000 -0.036162
#
#
# Mechanical properties :
#
#
# Convention : Reuss Voigt Hill
#
# Bulk Modulus (GPa) = 69.18255 85.41964 77.30110
# Shear Modulus (GPa) = 86.49203 33.43447 59.96325
#
# Velocity S-wave (km/s) = 5.71000 3.55014 4.75435
# Velocity P-wave (km/s) = 8.33974 7.00033 7.69922
#
# Compressibility (1/GPa) = 0.01445451
#
# Stress axis : x y z
#
# Youngs Moduli (GPa) = 210.10090 106.33119 74.96624
#
# Poissons Ratio (x) = 0.13957 0.19323
# Poissons Ratio (y) = 0.27578 0.19749
# Poissons Ratio (z) = 0.54154 0.28012
#
# Static dielectric constant tensor:
#      x y z
#    x 2.100420 0.000000 0.000000 
#    y 0.000000 2.225940 0.000000 
#    z 0.000000 0.000000 2.057390 
# 
# From -- ./inp_files/27401.got.cif
#   From: 2010.05.17/outbox.cif.g08.bks.cpg/sg70_14_cif.got.tgz:27401.got - 2010.06.03 15:57:51.
