data_PCOD9514929
_publ_section_title
;
Structure prediction by ZEFSAII (Michael W. Deem and Ramdas Pophale) SiO2 
 PCOD9514929
Probable space group: F D D D
;
_chemical_formula_sum "Si O2"
_cell_formula_units_Z 128
_cell_length_a 10.759019
_cell_length_b 26.875554
_cell_length_c 20.019758
_cell_angle_alpha 90.000000
_cell_angle_beta 90.000000
_cell_angle_gamma 90.000000
_cell_volume 5788.805039
_symmetry_space_group_name_H-M "F D D D"
_symmetry_group_IT_number 70
_space_group.IT_coordinate_system_code '2'
_symmetry_cell_setting 'orthorhombic'
loop_
_space_group_symop_operation_xyz
x,y,z
1/4-x,1/4-y,z
x,1/4-y,1/4-z
1/4-x,y,1/4-z
-x,-y,-z
3/4+x,3/4+y,-z
-x,3/4+y,3/4+z
3/4+x,-y,3/4+z
x,1/2+y,1/2+z
1/4-x,3/4-y,1/2+z
x,3/4-y,3/4-z
1/4-x,1/2+y,3/4-z
-x,1/2-y,1/2-z
3/4+x,1/4+y,1/2-z
-x,1/4+y,1/4+z
3/4+x,1/2-y,1/4+z
1/2+x,y,1/2+z
3/4-x,1/4-y,1/2+z
1/2+x,1/4-y,3/4-z
3/4-x,y,3/4-z
1/2-x,-y,1/2-z
1/4+x,3/4+y,1/2-z
1/2-x,3/4+y,1/4+z
1/4+x,-y,1/4+z
1/2+x,1/2+y,z
3/4-x,3/4-y,z
1/2+x,3/4-y,1/4-z
3/4-x,1/2+y,1/4-z
1/2-x,1/2-y,-z
1/4+x,1/4+y,-z
1/2-x,1/4+y,3/4+z
1/4+x,1/2-y,3/4+z
loop_
_atom_site_type_symbol
_atom_site_label
_atom_site_fract_x
_atom_site_fract_y
_atom_site_fract_z
Si Si1 0.848741 0.158233 0.222975
Si Si2 0.252517 0.104093 0.921805
Si Si3 0.222371 0.807254 0.925465
Si Si4 0.205975 0.748826 0.232736
O O1 0.969271 0.137014 0.261109
O O2 0.834272 0.177607 0.146347
O O3 0.767844 0.107972 0.218430
O O4 0.799800 0.207266 0.259281
O O5 0.375000 0.108715 0.875000
O O6 0.240508 0.045792 0.941665
O O7 0.125000 0.125000 0.891375
O O8 0.352057 0.779867 0.938924
O O9 0.119204 0.772521 0.957234
#
# Coordination Sequence:
#
# PCOD9514929 Si02
#       4
#    32  32  32  32
#     4  10  20  37  61  89 122 163 213 258 311 377
#     4  11  26  44  63  91 127 169 216 268 325 387
#     4   9  19  35  60  97 130 162 203 259 317 377
#     4  10  20  37  63  92 128 166 206 255 315 381
#
# _framework density 22.111643999999998
#
# number of rings (size 3 to 8) (size 9 to 14) (size 15 to 20)
#    0.000    2.000    0.000    3.000    0.000   11.000 
#    0.000   10.000    0.000    0.000    0.000    0.000 
#    0.000    0.000    0.000    0.000    0.000    0.000 
#
# Total GULP energy -178201.727498 kJ/mol
# GULP energy per Si atom -5568.803984 kJ/mol
# Density = 2.206132 g / cm^3
# Si number density = 22.111644 Si / 1000 Ang^3
#
#
#
# Elastic Constant Matrix: (Units=GPa)
#
#
# Indices 1 2 3 4 5 6 
#
# 1 72.1215 52.0142 7.4965 0.0000 0.0000 0.0000
# 2 52.0142 154.8010 25.2144 0.0000 0.0000 0.0000
# 3 7.4965 25.2144 49.4588 0.0000 0.0000 0.0000
# 4 0.0000 0.0000 0.0000 16.3417 0.0000 0.0000
# 5 0.0000 0.0000 0.0000 0.0000 20.2055 0.0000
# 6 0.0000 0.0000 0.0000 0.0000 0.0000 16.5527
#
#
#
# Elastic Compliance Matrix: (Units=1/GPa)
#
#
# Indices 1 2 3 4 5 6 
#
# 1 0.018307 -0.006215 0.000394 0.000000 0.000000 0.000000
# 2 -0.006215 0.009155 -0.003725 0.000000 0.000000 0.000000
# 3 0.000394 -0.003725 0.022058 0.000000 0.000000 0.000000
# 4 0.000000 0.000000 0.000000 0.061193 0.000000 0.000000
# 5 0.000000 0.000000 0.000000 0.000000 0.049492 0.000000
# 6 0.000000 0.000000 0.000000 0.000000 0.000000 0.060413
#
#
# Mechanical properties :
#
#
# Convention : Reuss Voigt Hill
#
# Bulk Modulus (GPa) = 32.86570 49.53682 41.20126
# Shear Modulus (GPa) = 20.01164 23.39705 21.70435
#
# Velocity S-wave (km/s) = 3.01163 3.25642 3.13642
# Velocity P-wave (km/s) = 5.19510 6.04903 5.63825
#
# Compressibility (1/GPa) = 0.03042685
#
# Stress axis : x y z
#
# Youngs Moduli (GPa) = 54.62345 109.22844 45.33436
#
# Poissons Ratio (x) = 0.67891 -0.01785
# Poissons Ratio (y) = 0.33951 0.16888
# Poissons Ratio (z) = -0.02151 0.40690
#
# Static dielectric constant tensor:
#      x y z
#    x 1.848740 0.000000 0.000000 
#    y 0.000000 1.845840 0.000000 
#    z 0.000000 0.000000 1.945510 
# 
# From -- ./inp_files/18839.got.cif
#   From: 2010.05.17/outbox.cif.g08.bks.cpg/sg70_10_cif.got.tgz:18839.got - 2010.06.03 15:57:51.
