data_PCOD9514071
_publ_section_title
;
Structure prediction by ZEFSAII (Michael W. Deem and Ramdas Pophale) SiO2 
 PCOD9514071
Probable space group: F D D D
;
_chemical_formula_sum "Si O2"
_cell_formula_units_Z 168
_cell_length_a 29.791716
_cell_length_b 17.680389
_cell_length_c 18.989694
_cell_angle_alpha 90.000000
_cell_angle_beta 90.000000
_cell_angle_gamma 90.000000
_cell_volume 10002.424959
_symmetry_space_group_name_H-M "F D D D"
_symmetry_group_IT_number 70
_space_group.IT_coordinate_system_code '2'
_symmetry_cell_setting 'orthorhombic'
loop_
_space_group_symop_operation_xyz
x,y,z
1/4-x,1/4-y,z
x,1/4-y,1/4-z
1/4-x,y,1/4-z
-x,-y,-z
3/4+x,3/4+y,-z
-x,3/4+y,3/4+z
3/4+x,-y,3/4+z
x,1/2+y,1/2+z
1/4-x,3/4-y,1/2+z
x,3/4-y,3/4-z
1/4-x,1/2+y,3/4-z
-x,1/2-y,1/2-z
3/4+x,1/4+y,1/2-z
-x,1/4+y,1/4+z
3/4+x,1/2-y,1/4+z
1/2+x,y,1/2+z
3/4-x,1/4-y,1/2+z
1/2+x,1/4-y,3/4-z
3/4-x,y,3/4-z
1/2-x,-y,1/2-z
1/4+x,3/4+y,1/2-z
1/2-x,3/4+y,1/4+z
1/4+x,-y,1/4+z
1/2+x,1/2+y,z
3/4-x,3/4-y,z
1/2+x,3/4-y,1/4-z
3/4-x,1/2+y,1/4-z
1/2-x,1/2-y,-z
1/4+x,1/4+y,-z
1/2-x,1/4+y,3/4+z
1/4+x,1/2-y,3/4+z
loop_
_atom_site_type_symbol
_atom_site_label
_atom_site_fract_x
_atom_site_fract_y
_atom_site_fract_z
Si Si1 0.082857 0.392628 0.014511
Si Si2 0.125000 0.625000 0.125000
Si Si3 0.553315 0.245087 0.112709
Si Si4 0.313219 0.620673 0.757014
Si Si5 0.773986 0.625000 0.625000
Si Si6 0.675666 0.753091 0.127493
Si Si7 0.001446 0.625000 0.625000
O O1 0.070293 0.463919 0.065129
O O2 0.134998 0.392669 0.992148
O O3 0.075797 0.319487 0.064332
O O4 0.053169 0.384352 0.945254
O O5 0.090761 0.683603 0.087888
O O6 0.546576 0.311085 0.056562
O O7 0.508226 0.197939 0.122122
O O8 0.314851 0.545048 0.803743
O O9 0.281220 0.611054 0.690836
O O10 0.625000 0.720389 0.125000
O O11 0.714974 0.694164 0.140938
#
# Coordination Sequence:
#
# PCOD9514071 Si02
#       7
#    32   8  32  32  16  32  16
#     4  10  19  37  51  76 107 140 171 215 267 310
#     4  10  16  32  58  76  88 136 188 198 234 316
#     4  10  19  34  54  76 103 139 179 211 249 321
#     4  10  20  35  54  74 107 139 171 214 263 311
#     4  11  21  29  54  83 103 132 173 225 265 298
#     4   9  20  36  55  73 103 141 178 210 251 317
#     4  12  20  32  55  85 101 133 178 222 260 300
#
# _framework density 16.795926999999999
#
# number of rings (size 3 to 8) (size 9 to 14) (size 15 to 20)
#    0.000    1.905    1.905    4.286    0.000    0.000 
#    0.000    0.000    0.000    0.000    0.000    0.000 
#    0.000    0.000    0.000    0.000    0.000    0.000 
#
# Total GULP energy -234070.926232 kJ/mol
# GULP energy per Si atom -5573.117291 kJ/mol
# Density = 1.675770 g / cm^3
# Si number density = 16.795927 Si / 1000 Ang^3
#
#
#
# Elastic Constant Matrix: (Units=GPa)
#
#
# Indices 1 2 3 4 5 6 
#
# 1 136.1949 45.4004 65.4750 0.0000 0.0000 0.0000
# 2 45.4004 67.5776 21.6331 0.0000 0.0000 0.0000
# 3 65.4750 21.6331 88.0285 0.0000 0.0000 0.0000
# 4 0.0000 0.0000 0.0000 7.9574 0.0000 0.0000
# 5 0.0000 0.0000 0.0000 0.0000 24.5400 0.0000
# 6 0.0000 0.0000 0.0000 0.0000 0.0000 31.2707
#
#
#
# Elastic Compliance Matrix: (Units=1/GPa)
#
#
# Indices 1 2 3 4 5 6 
#
# 1 0.013569 -0.006388 -0.008523 0.000000 0.000000 0.000000
# 2 -0.006388 0.019068 0.000065 0.000000 0.000000 0.000000
# 3 -0.008523 0.000065 0.017683 0.000000 0.000000 0.000000
# 4 0.000000 0.000000 0.000000 0.125669 0.000000 0.000000
# 5 0.000000 0.000000 0.000000 0.000000 0.040750 0.000000
# 6 0.000000 0.000000 0.000000 0.000000 0.000000 0.031979
#
#
# Mechanical properties :
#
#
# Convention : Reuss Voigt Hill
#
# Bulk Modulus (GPa) = 48.47371 61.86867 55.17119
# Shear Modulus (GPa) = 17.52630 23.37311 20.44970
#
# Velocity S-wave (km/s) = 3.23381 3.73445 3.49311
# Velocity P-wave (km/s) = 6.54724 7.45053 7.01344
#
# Compressibility (1/GPa) = 0.02062974
#
# Stress axis : x y z
#
# Youngs Moduli (GPa) = 73.69720 52.44277 56.55098
#
# Poissons Ratio (x) = 0.33499 0.48197
# Poissons Ratio (y) = 0.47076 -0.00368
# Poissons Ratio (z) = 0.62810 -0.00341
#
# Static dielectric constant tensor:
#      x y z
#    x 1.572270 0.000000 0.000000 
#    y 0.000000 1.566380 0.000000 
#    z 0.000000 0.000000 1.546210 
# 
# From -- ./inp_files/45906.got.cif
#   From: 2010.05.17/outbox.cif.g08.bks.cpg/sg70_23_cif.got.tgz:45906.got - 2010.06.03 15:57:51.
