data_PCOD9514103
_publ_section_title
;
Structure prediction by ZEFSAII (Michael W. Deem and Ramdas Pophale) SiO2 
 PCOD9514103
Probable space group: F D D D
;
_chemical_formula_sum "Si O2"
_cell_formula_units_Z 192
_cell_length_a 15.565286
_cell_length_b 29.502307
_cell_length_c 20.522315
_cell_angle_alpha 90.000000
_cell_angle_beta 90.000000
_cell_angle_gamma 90.000000
_cell_volume 9424.090158
_symmetry_space_group_name_H-M "F D D D"
_symmetry_group_IT_number 70
_space_group.IT_coordinate_system_code '2'
_symmetry_cell_setting 'orthorhombic'
loop_
_space_group_symop_operation_xyz
x,y,z
1/4-x,1/4-y,z
x,1/4-y,1/4-z
1/4-x,y,1/4-z
-x,-y,-z
3/4+x,3/4+y,-z
-x,3/4+y,3/4+z
3/4+x,-y,3/4+z
x,1/2+y,1/2+z
1/4-x,3/4-y,1/2+z
x,3/4-y,3/4-z
1/4-x,1/2+y,3/4-z
-x,1/2-y,1/2-z
3/4+x,1/4+y,1/2-z
-x,1/4+y,1/4+z
3/4+x,1/2-y,1/4+z
1/2+x,y,1/2+z
3/4-x,1/4-y,1/2+z
1/2+x,1/4-y,3/4-z
3/4-x,y,3/4-z
1/2-x,-y,1/2-z
1/4+x,3/4+y,1/2-z
1/2-x,3/4+y,1/4+z
1/4+x,-y,1/4+z
1/2+x,1/2+y,z
3/4-x,3/4-y,z
1/2+x,3/4-y,1/4-z
3/4-x,1/2+y,1/4-z
1/2-x,1/2-y,-z
1/4+x,1/4+y,-z
1/2-x,1/4+y,3/4+z
1/4+x,1/2-y,3/4+z
loop_
_atom_site_type_symbol
_atom_site_label
_atom_site_fract_x
_atom_site_fract_y
_atom_site_fract_z
Si Si1 0.008660 0.873886 0.274638
Si Si2 0.177688 0.545548 0.421890
Si Si3 0.875000 0.375000 0.672114
Si Si4 0.125000 0.125000 0.125000
Si Si5 0.322612 0.081463 0.007440
Si Si6 0.626278 0.448464 0.348291
Si Si7 0.625000 0.625000 0.625000
Si Si8 0.226776 0.074871 0.234678
O O1 0.077172 0.839784 0.242849
O O2 0.063323 0.910900 0.315782
O O3 0.949616 0.895072 0.218576
O O4 0.941023 0.850913 0.325071
O O5 0.169714 0.585996 0.370020
O O6 0.263625 0.547696 0.466207
O O7 0.169244 0.496172 0.390228
O O8 0.094104 0.555907 0.467032
O O9 0.177459 0.092749 0.171691
O O10 0.329776 0.069747 0.084914
O O11 0.275067 0.129305 0.992378
O O12 0.698685 0.456656 0.293117
#
# Coordination Sequence:
#
# PCOD9514103 Si02
#       8
#    32  32  16   8  32  32   8  32
#     4  10  22  41  71  92 124 174 224 270 325 403
#     4  12  24  40  61  97 143 171 213 276 342 395
#     4  11  25  45  62  91 137 179 208 262 350 407
#     4  12  14  30  66  88 114 180 220 254 322 400
#     4  11  20  41  67  91 128 172 223 269 327 395
#     4  11  23  38  66 101 127 167 233 282 316 383
#     4  10  16  42  70  96 114 160 228 282 310 390
#     4  11  18  37  61  91 129 174 216 260 323 398
#
# _framework density 20.373318999999999
#
# number of rings (size 3 to 8) (size 9 to 14) (size 15 to 20)
#    0.000    1.000    6.667    1.500    2.333    0.667 
#    0.000    2.500    0.000    0.000    0.000    0.000 
#    0.000    0.000    0.000    0.000    0.000    0.000 
#
# Total GULP energy -267272.687844 kJ/mol
# GULP energy per Si atom -5568.180997 kJ/mol
# Density = 2.032695 g / cm^3
# Si number density = 20.373319 Si / 1000 Ang^3
#
#
#
# Elastic Constant Matrix: (Units=GPa)
#
#
# Indices 1 2 3 4 5 6 
#
# 1 122.1801 18.6117 45.4476 0.0000 0.0000 0.0000
# 2 18.6117 77.1930 21.8820 0.0000 0.0000 0.0000
# 3 45.4476 21.8820 81.7285 0.0000 0.0000 0.0000
# 4 0.0000 0.0000 0.0000 13.5865 0.0000 0.0000
# 5 0.0000 0.0000 0.0000 0.0000 97.2447 0.0000
# 6 0.0000 0.0000 0.0000 0.0000 0.0000 29.4993
#
#
#
# Elastic Compliance Matrix: (Units=1/GPa)
#
#
# Indices 1 2 3 4 5 6 
#
# 1 0.010381 -0.000938 -0.005522 0.000000 0.000000 0.000000
# 2 -0.000938 0.014103 -0.003255 0.000000 0.000000 0.000000
# 3 -0.005522 -0.003255 0.016178 0.000000 0.000000 0.000000
# 4 0.000000 0.000000 0.000000 0.073602 0.000000 0.000000
# 5 0.000000 0.000000 0.000000 0.000000 0.010283 0.000000
# 6 0.000000 0.000000 0.000000 0.000000 0.000000 0.033899
#
#
# Mechanical properties :
#
#
# Convention : Reuss Voigt Hill
#
# Bulk Modulus (GPa) = 47.09426 50.33156 48.71291
# Shear Modulus (GPa) = 27.03385 41.07678 34.05532
#
# Velocity S-wave (km/s) = 3.64665 4.49509 4.09291
# Velocity P-wave (km/s) = 6.39504 7.19023 6.80426
#
# Compressibility (1/GPa) = 0.02123401
#
# Stress axis : x y z
#
# Youngs Moduli (GPa) = 96.32561 70.90584 61.81395
#
# Poissons Ratio (x) = 0.06649 0.34133
# Poissons Ratio (y) = 0.09033 0.20117
# Poissons Ratio (z) = 0.53189 0.23076
#
# Static dielectric constant tensor:
#      x y z
#    x 1.798360 0.000000 0.000000 
#    y 0.000000 1.719700 0.000000 
#    z 0.000000 0.000000 1.746780 
# 
# From -- ./inp_files/29107.got.cif
#   From: 2010.05.17/outbox.cif.g08.bks.cpg/sg70_15_cif.got.tgz:29107.got - 2010.06.03 15:57:51.
