data_PCOD9514647
_publ_section_title
;
Structure prediction by ZEFSAII (Michael W. Deem and Ramdas Pophale) SiO2 
 PCOD9514647
Probable space group: F D D D
;
_chemical_formula_sum "Si O2"
_cell_formula_units_Z 176
_cell_length_a 30.377953
_cell_length_b 11.535003
_cell_length_c 25.009866
_cell_angle_alpha 90.000000
_cell_angle_beta 90.000000
_cell_angle_gamma 90.000000
_cell_volume 8763.701618
_symmetry_space_group_name_H-M "F D D D"
_symmetry_group_IT_number 70
_space_group.IT_coordinate_system_code '2'
_symmetry_cell_setting 'orthorhombic'
loop_
_space_group_symop_operation_xyz
x,y,z
1/4-x,1/4-y,z
x,1/4-y,1/4-z
1/4-x,y,1/4-z
-x,-y,-z
3/4+x,3/4+y,-z
-x,3/4+y,3/4+z
3/4+x,-y,3/4+z
x,1/2+y,1/2+z
1/4-x,3/4-y,1/2+z
x,3/4-y,3/4-z
1/4-x,1/2+y,3/4-z
-x,1/2-y,1/2-z
3/4+x,1/4+y,1/2-z
-x,1/4+y,1/4+z
3/4+x,1/2-y,1/4+z
1/2+x,y,1/2+z
3/4-x,1/4-y,1/2+z
1/2+x,1/4-y,3/4-z
3/4-x,y,3/4-z
1/2-x,-y,1/2-z
1/4+x,3/4+y,1/2-z
1/2-x,3/4+y,1/4+z
1/4+x,-y,1/4+z
1/2+x,1/2+y,z
3/4-x,3/4-y,z
1/2+x,3/4-y,1/4-z
3/4-x,1/2+y,1/4-z
1/2-x,1/2-y,-z
1/4+x,1/4+y,-z
1/2-x,1/4+y,3/4+z
1/4+x,1/2-y,3/4+z
loop_
_atom_site_type_symbol
_atom_site_label
_atom_site_fract_x
_atom_site_fract_y
_atom_site_fract_z
Si Si1 0.044026 0.283792 0.219149
Si Si2 0.184263 0.023772 0.929348
Si Si3 0.828543 0.941319 0.944502
Si Si4 0.508178 0.625000 0.625000
Si Si5 0.666404 0.278642 0.416625
Si Si6 0.176276 0.427950 0.128405
O O1 0.048130 0.168469 0.182693
O O2 0.076720 0.301832 0.269968
O O3 0.053849 0.388925 0.179202
O O4 0.000000 0.250000 0.250000
O O5 0.189899 0.154691 0.907252
O O6 0.224184 0.941058 0.913976
O O7 0.136145 0.985651 0.908950
O O8 0.179740 0.033668 0.993058
O O9 0.875000 0.875000 0.938183
O O10 0.825027 0.060972 0.913701
O O11 0.541136 0.721906 0.649209
O O12 0.682301 0.375000 0.375000
O O13 0.125000 0.465887 0.125000
#
# Coordination Sequence:
#
# PCOD9514647 Si02
#       6
#    32  32  32  16  32  32
#     4  11  23  39  65 102 133 162 220 292 339 390
#     4  10  20  41  66  97 134 174 215 281 339 404
#     4  11  20  41  72  98 124 167 230 284 336 390
#     4  12  27  42  60  94 144 184 218 266 349 420
#     4  10  19  38  69  95 125 171 224 274 335 400
#     4  12  24  42  67  94 134 183 224 276 338 414
#
# _framework density 20.082837999999999
#
# number of rings (size 3 to 8) (size 9 to 14) (size 15 to 20)
#    0.000    1.091    6.364    3.000    0.000    3.636 
#    0.000    1.818    4.000    0.000    0.000    0.000 
#    0.000    0.000    0.000    0.000    0.000    0.000 
#
# Total GULP energy -245081.747175 kJ/mol
# GULP energy per Si atom -5570.039709 kJ/mol
# Density = 2.003713 g / cm^3
# Si number density = 20.082838 Si / 1000 Ang^3
#
#
#
# Elastic Constant Matrix: (Units=GPa)
#
#
# Indices 1 2 3 4 5 6 
#
# 1 125.8468 58.8826 26.5113 0.0000 0.0000 0.0000
# 2 58.8826 134.3028 61.8454 0.0000 0.0000 0.0000
# 3 26.5113 61.8454 80.8147 0.0000 0.0000 0.0000
# 4 0.0000 0.0000 0.0000 28.4734 0.0000 0.0000
# 5 0.0000 0.0000 0.0000 0.0000 6.2134 0.0000
# 6 0.0000 0.0000 0.0000 0.0000 0.0000 41.0555
#
#
#
# Elastic Compliance Matrix: (Units=1/GPa)
#
#
# Indices 1 2 3 4 5 6 
#
# 1 0.009998 -0.004436 0.000115 0.000000 0.000000 0.000000
# 2 -0.004436 0.013466 -0.008850 0.000000 0.000000 0.000000
# 3 0.000115 -0.008850 0.019109 0.000000 0.000000 0.000000
# 4 0.000000 0.000000 0.000000 0.035121 0.000000 0.000000
# 5 0.000000 0.000000 0.000000 0.000000 0.160943 0.000000
# 6 0.000000 0.000000 0.000000 0.000000 0.000000 0.024357
#
#
# Mechanical properties :
#
#
# Convention : Reuss Voigt Hill
#
# Bulk Modulus (GPa) = 61.61215 70.60477 66.10846
# Shear Modulus (GPa) = 16.96377 28.06346 22.51361
#
# Velocity S-wave (km/s) = 2.90951 3.74222 3.35182
# Velocity P-wave (km/s) = 6.48325 7.34203 6.92596
#
# Compressibility (1/GPa) = 0.01623057
#
# Stress axis : x y z
#
# Youngs Moduli (GPa) = 100.02391 74.25957 52.33174
#
# Poissons Ratio (x) = 0.32944 -0.00603
# Poissons Ratio (y) = 0.44374 0.46314
# Poissons Ratio (z) = -0.01153 0.65720
#
# Static dielectric constant tensor:
#      x y z
#    x 2.939720 0.000000 0.000000 
#    y 0.000000 1.735190 0.000000 
#    z 0.000000 0.000000 1.754690 
# 
# From -- ./inp_files/19652.got.cif
#   From: 2010.05.17/outbox.cif.g08.bks.cpg/sg70_10_cif.got.tgz:19652.got - 2010.06.03 15:57:51.
