data_PCOD9514113
_publ_section_title
;
Structure prediction by ZEFSAII (Michael W. Deem and Ramdas Pophale) SiO2 
 PCOD9514113
Probable space group: F D D D
;
_chemical_formula_sum "Si O2"
_cell_formula_units_Z 176
_cell_length_a 14.635830
_cell_length_b 24.563124
_cell_length_c 24.090755
_cell_angle_alpha 90.000000
_cell_angle_beta 90.000000
_cell_angle_gamma 90.000000
_cell_volume 8660.667549
_symmetry_space_group_name_H-M "F D D D"
_symmetry_group_IT_number 70
_space_group.IT_coordinate_system_code '2'
_symmetry_cell_setting 'orthorhombic'
loop_
_space_group_symop_operation_xyz
x,y,z
1/4-x,1/4-y,z
x,1/4-y,1/4-z
1/4-x,y,1/4-z
-x,-y,-z
3/4+x,3/4+y,-z
-x,3/4+y,3/4+z
3/4+x,-y,3/4+z
x,1/2+y,1/2+z
1/4-x,3/4-y,1/2+z
x,3/4-y,3/4-z
1/4-x,1/2+y,3/4-z
-x,1/2-y,1/2-z
3/4+x,1/4+y,1/2-z
-x,1/4+y,1/4+z
3/4+x,1/2-y,1/4+z
1/2+x,y,1/2+z
3/4-x,1/4-y,1/2+z
1/2+x,1/4-y,3/4-z
3/4-x,y,3/4-z
1/2-x,-y,1/2-z
1/4+x,3/4+y,1/2-z
1/2-x,3/4+y,1/4+z
1/4+x,-y,1/4+z
1/2+x,1/2+y,z
3/4-x,3/4-y,z
1/2+x,3/4-y,1/4-z
3/4-x,1/2+y,1/4-z
1/2-x,1/2-y,-z
1/4+x,1/4+y,-z
1/2-x,1/4+y,3/4+z
1/4+x,1/2-y,3/4+z
loop_
_atom_site_type_symbol
_atom_site_label
_atom_site_fract_x
_atom_site_fract_y
_atom_site_fract_z
Si Si1 0.246911 0.014349 0.480847
Si Si2 0.517973 0.375000 0.375000
Si Si3 0.772124 0.396895 0.437511
Si Si4 0.972962 0.498069 0.858263
Si Si5 0.400134 0.133994 0.002117
Si Si6 0.044345 0.203355 0.788624
O O1 0.243396 0.993873 0.544318
O O2 0.329687 0.056590 0.478357
O O3 0.151420 0.048549 0.476512
O O4 0.258866 0.962635 0.440820
O O5 0.470492 0.433918 0.373879
O O6 0.568560 0.372574 0.433669
O O7 0.748283 0.375000 0.375000
O O8 0.875000 0.375000 0.446859
O O9 0.706383 0.377528 0.488119
O O10 0.875000 0.521256 0.875000
O O11 0.044232 0.526523 0.898345
O O12 0.471980 0.095055 0.970209
O O13 0.000000 0.250000 0.750000
#
# Coordination Sequence:
#
# PCOD9514113 Si02
#       6
#    32  16  32  32  32  32
#     4  11  24  39  65 101 131 174 223 274 335 400
#     4  10  17  28  53  90 120 164 210 254 314 404
#     4  11  24  45  71  91 124 177 234 284 327 394
#     4  11  19  31  55  88 132 175 209 257 324 390
#     4  11  21  38  65  96 131 169 214 271 339 405
#     4  12  20  36  61  95 145 169 208 266 340 407
#
# _framework density 20.321759
#
# number of rings (size 3 to 8) (size 9 to 14) (size 15 to 20)
#    0.000    0.909    6.364    0.818    2.545    3.636 
#    0.000    1.818   12.000    0.000    0.000    0.000 
#    0.000    0.000    0.000    0.000    0.000    0.000 
#
# Total GULP energy -245015.486729 kJ/mol
# GULP energy per Si atom -5568.533789 kJ/mol
# Density = 2.027551 g / cm^3
# Si number density = 20.321759 Si / 1000 Ang^3
#
#
#
# Elastic Constant Matrix: (Units=GPa)
#
#
# Indices 1 2 3 4 5 6 
#
# 1 107.0228 40.1887 11.7131 0.0000 0.0000 0.0000
# 2 40.1887 110.5366 39.9629 0.0000 0.0000 0.0000
# 3 11.7131 39.9629 74.3757 0.0000 0.0000 0.0000
# 4 0.0000 0.0000 0.0000 34.9541 0.0000 0.0000
# 5 0.0000 0.0000 0.0000 0.0000 15.0019 0.0000
# 6 0.0000 0.0000 0.0000 0.0000 0.0000 27.4842
#
#
#
# Elastic Compliance Matrix: (Units=1/GPa)
#
#
# Indices 1 2 3 4 5 6 
#
# 1 0.010837 -0.004124 0.000509 0.000000 0.000000 0.000000
# 2 -0.004124 0.012797 -0.006227 0.000000 0.000000 0.000000
# 3 0.000509 -0.006227 0.016711 0.000000 0.000000 0.000000
# 4 0.000000 0.000000 0.000000 0.028609 0.000000 0.000000
# 5 0.000000 0.000000 0.000000 0.000000 0.066658 0.000000
# 6 0.000000 0.000000 0.000000 0.000000 0.000000 0.036385
#
#
# Mechanical properties :
#
#
# Convention : Reuss Voigt Hill
#
# Bulk Modulus (GPa) = 48.39844 52.85161 50.62503
# Shear Modulus (GPa) = 25.18046 28.82608 27.00327
#
# Velocity S-wave (km/s) = 3.52389 3.77036 3.64921
# Velocity P-wave (km/s) = 6.35805 6.70955 6.53616
#
# Compressibility (1/GPa) = 0.02066182
#
# Stress axis : x y z
#
# Youngs Moduli (GPa) = 92.27869 78.14093 59.84184
#
# Poissons Ratio (x) = 0.32226 -0.03048
# Poissons Ratio (y) = 0.38057 0.37262
# Poissons Ratio (z) = -0.04700 0.48656
#
# Static dielectric constant tensor:
#      x y z
#    x 1.803470 0.000000 0.000000 
#    y 0.000000 1.752140 0.000000 
#    z 0.000000 0.000000 1.712240 
# 
# From -- ./inp_files/58601.got.cif
#   From: 2010.05.17/outbox.cif.g08.bks.cpg/sg70_30_cif.got.tgz:58601.got - 2010.06.03 15:57:51.
