data_PCOD9514146
_publ_section_title
;
Structure prediction by ZEFSAII (Michael W. Deem and Ramdas Pophale) SiO2 
 PCOD9514146
Probable space group: F D D D
;
_chemical_formula_sum "Si O2"
_cell_formula_units_Z 144
_cell_length_a 23.405662
_cell_length_b 13.163690
_cell_length_c 22.125323
_cell_angle_alpha 90.000000
_cell_angle_beta 90.000000
_cell_angle_gamma 90.000000
_cell_volume 6816.919962
_symmetry_space_group_name_H-M "F D D D"
_symmetry_group_IT_number 70
_space_group.IT_coordinate_system_code '2'
_symmetry_cell_setting 'orthorhombic'
loop_
_space_group_symop_operation_xyz
x,y,z
1/4-x,1/4-y,z
x,1/4-y,1/4-z
1/4-x,y,1/4-z
-x,-y,-z
3/4+x,3/4+y,-z
-x,3/4+y,3/4+z
3/4+x,-y,3/4+z
x,1/2+y,1/2+z
1/4-x,3/4-y,1/2+z
x,3/4-y,3/4-z
1/4-x,1/2+y,3/4-z
-x,1/2-y,1/2-z
3/4+x,1/4+y,1/2-z
-x,1/4+y,1/4+z
3/4+x,1/2-y,1/4+z
1/2+x,y,1/2+z
3/4-x,1/4-y,1/2+z
1/2+x,1/4-y,3/4-z
3/4-x,y,3/4-z
1/2-x,-y,1/2-z
1/4+x,3/4+y,1/2-z
1/2-x,3/4+y,1/4+z
1/4+x,-y,1/4+z
1/2+x,1/2+y,z
3/4-x,3/4-y,z
1/2+x,3/4-y,1/4-z
3/4-x,1/2+y,1/4-z
1/2-x,1/2-y,-z
1/4+x,1/4+y,-z
1/2-x,1/4+y,3/4+z
1/4+x,1/2-y,3/4+z
loop_
_atom_site_type_symbol
_atom_site_label
_atom_site_fract_x
_atom_site_fract_y
_atom_site_fract_z
Si Si1 0.205656 0.369379 0.704258
Si Si2 0.327201 0.459903 0.721358
Si Si3 0.886412 0.260848 0.728498
Si Si4 0.691004 0.731385 0.601844
Si Si5 0.636856 0.375000 0.375000
O O1 0.267699 0.400657 0.726908
O O2 0.167241 0.468435 0.719144
O O3 0.172537 0.281639 0.741362
O O4 0.214346 0.328981 0.636550
O O5 0.375000 0.375000 0.714317
O O6 0.328843 0.540752 0.665100
O O7 0.875000 0.375000 0.708459
O O8 0.934195 0.260575 0.780416
O O9 0.899509 0.188201 0.673060
O O10 0.716488 0.625000 0.625000
O O11 0.625000 0.729341 0.625000
#
# Coordination Sequence:
#
# PCOD9514146 Si02
#       5
#    32  32  32  32  16
#     4   9  19  36  63  92 119 164 204 259 323 372
#     4  10  21  41  60  86 130 169 212 253 310 396
#     4  10  17  34  61  90 123 161 200 261 323 371
#     4   9  14  30  59  93 120 148 196 264 318 364
#     4  10  22  36  58  82 125 178 205 246 318 380
#
# _framework density 21.123909999999999
#
# number of rings (size 3 to 8) (size 9 to 14) (size 15 to 20)
#    0.000    2.444    4.444    0.667    0.000    0.000 
#    2.000   26.667    0.000   10.667    0.000    0.000 
#    0.000    0.000    0.000    0.111    0.000    0.000 
#
# Total GULP energy -200528.412070 kJ/mol
# GULP energy per Si atom -5570.233669 kJ/mol
# Density = 2.107583 g / cm^3
# Si number density = 21.123910 Si / 1000 Ang^3
#
#
#
# Elastic Constant Matrix: (Units=GPa)
#
#
# Indices 1 2 3 4 5 6 
#
# 1 49.3213 41.2953 7.1305 0.0000 0.0000 0.0000
# 2 41.2953 144.0318 64.9175 0.0000 0.0000 0.0000
# 3 7.1305 64.9175 133.9897 0.0000 0.0000 0.0000
# 4 0.0000 0.0000 0.0000 40.5499 0.0000 0.0000
# 5 0.0000 0.0000 0.0000 0.0000 9.4819 0.0000
# 6 0.0000 0.0000 0.0000 0.0000 0.0000 19.0921
#
#
#
# Elastic Compliance Matrix: (Units=1/GPa)
#
#
# Indices 1 2 3 4 5 6 
#
# 1 0.027607 -0.009279 0.003027 0.000000 0.000000 0.000000
# 2 -0.009279 0.012002 -0.005321 0.000000 0.000000 0.000000
# 3 0.003027 -0.005321 0.009880 0.000000 0.000000 0.000000
# 4 0.000000 0.000000 0.000000 0.024661 0.000000 0.000000
# 5 0.000000 0.000000 0.000000 0.000000 0.105464 0.000000
# 6 0.000000 0.000000 0.000000 0.000000 0.000000 0.052378
#
#
# Mechanical properties :
#
#
# Convention : Reuss Voigt Hill
#
# Bulk Modulus (GPa) = 37.96292 61.55883 49.76087
# Shear Modulus (GPa) = 18.94519 28.09142 23.51830
#
# Velocity S-wave (km/s) = 2.99801 3.65065 3.34031
# Velocity P-wave (km/s) = 5.47674 6.85381 6.20360
#
# Compressibility (1/GPa) = 0.02634150
#
# Stress axis : x y z
#
# Youngs Moduli (GPa) = 36.22277 83.32221 101.21307
#
# Poissons Ratio (x) = 0.77317 -0.30633
# Poissons Ratio (y) = 0.33612 0.53855
# Poissons Ratio (z) = -0.10963 0.44335
#
# Static dielectric constant tensor:
#      x y z
#    x 1.763420 0.000000 0.000000 
#    y 0.000000 1.802370 0.000000 
#    z 0.000000 0.000000 1.875520 
# 
# From -- ./inp_files/54185.got.cif
#   From: 2010.05.17/outbox.cif.g08.bks.cpg/sg70_28_cif.got.tgz:54185.got - 2010.06.03 15:57:51.
