data_PCOD9514812
_publ_section_title
;
Structure prediction by ZEFSAII (Michael W. Deem and Ramdas Pophale) SiO2 
 PCOD9514812
Probable space group: F D D D
;
_chemical_formula_sum "Si O2"
_cell_formula_units_Z 160
_cell_length_a 20.317901
_cell_length_b 23.580294
_cell_length_c 15.904152
_cell_angle_alpha 90.000000
_cell_angle_beta 90.000000
_cell_angle_gamma 90.000000
_cell_volume 7619.712289
_symmetry_space_group_name_H-M "F D D D"
_symmetry_group_IT_number 70
_space_group.IT_coordinate_system_code '2'
_symmetry_cell_setting 'orthorhombic'
loop_
_space_group_symop_operation_xyz
x,y,z
1/4-x,1/4-y,z
x,1/4-y,1/4-z
1/4-x,y,1/4-z
-x,-y,-z
3/4+x,3/4+y,-z
-x,3/4+y,3/4+z
3/4+x,-y,3/4+z
x,1/2+y,1/2+z
1/4-x,3/4-y,1/2+z
x,3/4-y,3/4-z
1/4-x,1/2+y,3/4-z
-x,1/2-y,1/2-z
3/4+x,1/4+y,1/2-z
-x,1/4+y,1/4+z
3/4+x,1/2-y,1/4+z
1/2+x,y,1/2+z
3/4-x,1/4-y,1/2+z
1/2+x,1/4-y,3/4-z
3/4-x,y,3/4-z
1/2-x,-y,1/2-z
1/4+x,3/4+y,1/2-z
1/2-x,3/4+y,1/4+z
1/4+x,-y,1/4+z
1/2+x,1/2+y,z
3/4-x,3/4-y,z
1/2+x,3/4-y,1/4-z
3/4-x,1/2+y,1/4-z
1/2-x,1/2-y,-z
1/4+x,1/4+y,-z
1/2-x,1/4+y,3/4+z
1/4+x,1/2-y,3/4+z
loop_
_atom_site_type_symbol
_atom_site_label
_atom_site_fract_x
_atom_site_fract_y
_atom_site_fract_z
Si Si1 0.552386 0.295499 0.285127
Si Si2 0.866328 0.786554 0.748416
Si Si3 0.419101 0.973087 0.670142
Si Si4 0.041427 0.325001 0.982868
Si Si5 0.013767 0.565292 0.619031
O O1 0.500000 0.250000 0.250000
O O2 0.622072 0.263707 0.276468
O O3 0.537575 0.309222 0.383707
O O4 0.555107 0.359142 0.248583
O O5 0.873313 0.804324 0.651344
O O6 0.848121 0.719612 0.761512
O O7 0.803366 0.813800 0.793174
O O8 0.930200 0.806732 0.799335
O O9 0.470864 0.938344 0.724460
O O10 0.463982 0.014295 0.613404
O O11 0.977219 0.625000 0.625000
#
# Coordination Sequence:
#
# PCOD9514812 Si02
#       5
#    32  32  32  32  32
#     4  10  22  42  63  83 116 160 206 257 311 360
#     4   9  18  36  57  85 124 152 191 235 295 361
#     4  10  21  38  60  87 116 160 204 238 311 361
#     4   9  21  41  61  86 122 155 200 260 299 366
#     4  10  20  35  58  90 122 159 190 237 297 361
#
# _framework density 20.998168
#
# number of rings (size 3 to 8) (size 9 to 14) (size 15 to 20)
#    0.000    2.400    0.000    1.800    5.600    1.600 
#   18.000    8.000    0.000    0.000    0.000    0.000 
#    0.000    0.000    0.000    0.000    0.000    0.000 
#
# Total GULP energy -222822.979731 kJ/mol
# GULP energy per Si atom -5570.574493 kJ/mol
# Density = 2.095038 g / cm^3
# Si number density = 20.998168 Si / 1000 Ang^3
#
#
#
# Elastic Constant Matrix: (Units=GPa)
#
#
# Indices 1 2 3 4 5 6 
#
# 1 54.3756 13.2533 7.8040 0.0000 0.0000 0.0000
# 2 13.2533 114.3997 18.9692 0.0000 0.0000 0.0000
# 3 7.8040 18.9692 28.4759 0.0000 0.0000 0.0000
# 4 0.0000 0.0000 0.0000 19.7404 0.0000 0.0000
# 5 0.0000 0.0000 0.0000 0.0000 25.5963 0.0000
# 6 0.0000 0.0000 0.0000 0.0000 0.0000 9.9111
#
#
#
# Elastic Compliance Matrix: (Units=1/GPa)
#
#
# Indices 1 2 3 4 5 6 
#
# 1 0.019380 -0.001534 -0.004289 0.000000 0.000000 0.000000
# 2 -0.001534 0.009948 -0.006207 0.000000 0.000000 0.000000
# 3 -0.004289 -0.006207 0.040427 0.000000 0.000000 0.000000
# 4 0.000000 0.000000 0.000000 0.050658 0.000000 0.000000
# 5 0.000000 0.000000 0.000000 0.000000 0.039068 0.000000
# 6 0.000000 0.000000 0.000000 0.000000 0.000000 0.100897
#
#
# Mechanical properties :
#
#
# Convention : Reuss Voigt Hill
#
# Bulk Modulus (GPa) = 21.88385 30.81160 26.34772
# Shear Modulus (GPa) = 16.68500 21.53119 19.10810
#
# Velocity S-wave (km/s) = 2.82191 3.20564 3.01987
# Velocity P-wave (km/s) = 4.58933 5.32980 4.97337
#
# Compressibility (1/GPa) = 0.04569580
#
# Stress axis : x y z
#
# Youngs Moduli (GPa) = 51.59928 100.52133 24.73568
#
# Poissons Ratio (x) = 0.15419 0.10610
# Poissons Ratio (y) = 0.07915 0.15352
# Poissons Ratio (z) = 0.22133 0.62389
#
# Static dielectric constant tensor:
#      x y z
#    x 1.720960 0.000000 0.000000 
#    y 0.000000 1.876780 0.000000 
#    z 0.000000 0.000000 1.809970 
# 
# From -- ./inp_files/36292.got.cif
#   From: 2010.05.17/outbox.cif.g08.bks.cpg/sg70_19_cif.got.tgz:36292.got - 2010.06.03 15:57:51.
