data_PCOD9514938
_publ_section_title
;
Structure prediction by ZEFSAII (Michael W. Deem and Ramdas Pophale) SiO2 
 PCOD9514938
Probable space group: F D D D
;
_chemical_formula_sum "Si O2"
_cell_formula_units_Z 176
_cell_length_a 10.532292
_cell_length_b 30.259049
_cell_length_c 21.429561
_cell_angle_alpha 90.000000
_cell_angle_beta 90.000000
_cell_angle_gamma 90.000000
_cell_volume 6829.539796
_symmetry_space_group_name_H-M "F D D D"
_symmetry_group_IT_number 70
_space_group.IT_coordinate_system_code '2'
_symmetry_cell_setting 'orthorhombic'
loop_
_space_group_symop_operation_xyz
x,y,z
1/4-x,1/4-y,z
x,1/4-y,1/4-z
1/4-x,y,1/4-z
-x,-y,-z
3/4+x,3/4+y,-z
-x,3/4+y,3/4+z
3/4+x,-y,3/4+z
x,1/2+y,1/2+z
1/4-x,3/4-y,1/2+z
x,3/4-y,3/4-z
1/4-x,1/2+y,3/4-z
-x,1/2-y,1/2-z
3/4+x,1/4+y,1/2-z
-x,1/4+y,1/4+z
3/4+x,1/2-y,1/4+z
1/2+x,y,1/2+z
3/4-x,1/4-y,1/2+z
1/2+x,1/4-y,3/4-z
3/4-x,y,3/4-z
1/2-x,-y,1/2-z
1/4+x,3/4+y,1/2-z
1/2-x,3/4+y,1/4+z
1/4+x,-y,1/4+z
1/2+x,1/2+y,z
3/4-x,3/4-y,z
1/2+x,3/4-y,1/4-z
3/4-x,1/2+y,1/4-z
1/2-x,1/2-y,-z
1/4+x,1/4+y,-z
1/2-x,1/4+y,3/4+z
1/4+x,1/2-y,3/4+z
loop_
_atom_site_type_symbol
_atom_site_label
_atom_site_fract_x
_atom_site_fract_y
_atom_site_fract_z
Si Si1 0.380494 0.157375 0.498589
Si Si2 0.344552 0.545156 0.628051
Si Si3 0.739599 0.989829 0.046950
Si Si4 0.237600 0.070748 0.263782
Si Si5 0.993820 0.540778 0.323051
Si Si6 0.625000 0.125000 0.308204
O O1 0.392098 0.171448 0.570789
O O2 0.388221 0.201007 0.455643
O O3 0.494261 0.123846 0.481297
O O4 0.247759 0.134649 0.483514
O O5 0.473491 0.518207 0.643233
O O6 0.287770 0.563289 0.692525
O O7 0.256055 0.505704 0.605914
O O8 0.867027 0.961591 0.024752
O O9 0.705115 0.026713 0.995830
O O10 0.349395 0.054551 0.310198
O O11 0.081527 0.581425 0.345927
#
# Coordination Sequence:
#
# PCOD9514938 Si02
#       6
#    32  32  32  32  32  16
#     4  10  22  40  62  90 124 170 211 270 328 385
#     4  10  20  37  62  92 122 161 222 253 323 395
#     4  10  21  37  61  91 125 163 205 266 322 387
#     4  10  20  38  61  91 128 163 204 264 326 385
#     4   9  20  37  59  83 120 163 201 258 321 381
#     4  10  22  44  59  80 128 164 208 271 330 372
#
# _framework density 25.770403999999999
#
# number of rings (size 3 to 8) (size 9 to 14) (size 15 to 20)
#    0.000    2.182    0.000    3.273    0.000    9.455 
#    3.273   26.364    0.000    0.000    0.000    0.000 
#    0.000    0.000    0.000    0.000    0.000    0.000 
#
# Total GULP energy -246036.577994 kJ/mol
# GULP energy per Si atom -5591.740409 kJ/mol
# Density = 2.571175 g / cm^3
# Si number density = 25.770404 Si / 1000 Ang^3
#
#
#
# Elastic Constant Matrix: (Units=GPa)
#
#
# Indices 1 2 3 4 5 6 
#
# 1 101.1333 19.9366 4.8097 0.0000 0.0000 0.0000
# 2 19.9366 114.7701 0.8930 0.0000 0.0000 0.0000
# 3 4.8097 0.8930 66.3000 0.0000 0.0000 0.0000
# 4 0.0000 0.0000 0.0000 44.3617 0.0000 0.0000
# 5 0.0000 0.0000 0.0000 0.0000 26.4985 0.0000
# 6 0.0000 0.0000 0.0000 0.0000 0.0000 37.1485
#
#
#
# Elastic Compliance Matrix: (Units=1/GPa)
#
#
# Indices 1 2 3 4 5 6 
#
# 1 0.010273 -0.001779 -0.000721 0.000000 0.000000 0.000000
# 2 -0.001779 0.009022 0.000008 0.000000 0.000000 0.000000
# 3 -0.000721 0.000008 0.015135 0.000000 0.000000 0.000000
# 4 0.000000 0.000000 0.000000 0.022542 0.000000 0.000000
# 5 0.000000 0.000000 0.000000 0.000000 0.037738 0.000000
# 6 0.000000 0.000000 0.000000 0.000000 0.000000 0.026919
#
#
# Mechanical properties :
#
#
# Convention : Reuss Voigt Hill
#
# Bulk Modulus (GPa) = 33.96180 37.05355 35.50767
# Shear Modulus (GPa) = 36.64903 38.70601 37.67752
#
# Velocity S-wave (km/s) = 3.77521 3.87971 3.82782
# Velocity P-wave (km/s) = 5.67540 5.87189 5.77448
#
# Compressibility (1/GPa) = 0.02944485
#
# Stress axis : x y z
#
# Youngs Moduli (GPa) = 97.34336 110.83987 66.07126
#
# Poissons Ratio (x) = 0.19717 0.04766
# Poissons Ratio (y) = 0.17316 -0.00050
# Poissons Ratio (z) = 0.07021 -0.00084
#
# Static dielectric constant tensor:
#      x y z
#    x 2.054950 0.000000 0.000000 
#    y 0.000000 2.006040 0.000000 
#    z 0.000000 0.000000 2.132230 
# 
# From -- ./inp_files/57756.got.cif
#   From: 2010.05.17/outbox.cif.g08.bks.cpg/sg70_29_cif.got.tgz:57756.got - 2010.06.03 15:57:51.
