data_PCOD9514431
_publ_section_title
;
Structure prediction by ZEFSAII (Michael W. Deem and Ramdas Pophale) SiO2 
 PCOD9514431
Probable space group: F D D D
;
_chemical_formula_sum "Si O2"
_cell_formula_units_Z 136
_cell_length_a 10.379713
_cell_length_b 16.175583
_cell_length_c 37.957466
_cell_angle_alpha 90.000000
_cell_angle_beta 90.000000
_cell_angle_gamma 90.000000
_cell_volume 6372.979178
_symmetry_space_group_name_H-M "F D D D"
_symmetry_group_IT_number 70
_space_group.IT_coordinate_system_code '2'
_symmetry_cell_setting 'orthorhombic'
loop_
_space_group_symop_operation_xyz
x,y,z
1/4-x,1/4-y,z
x,1/4-y,1/4-z
1/4-x,y,1/4-z
-x,-y,-z
3/4+x,3/4+y,-z
-x,3/4+y,3/4+z
3/4+x,-y,3/4+z
x,1/2+y,1/2+z
1/4-x,3/4-y,1/2+z
x,3/4-y,3/4-z
1/4-x,1/2+y,3/4-z
-x,1/2-y,1/2-z
3/4+x,1/4+y,1/2-z
-x,1/4+y,1/4+z
3/4+x,1/2-y,1/4+z
1/2+x,y,1/2+z
3/4-x,1/4-y,1/2+z
1/2+x,1/4-y,3/4-z
3/4-x,y,3/4-z
1/2-x,-y,1/2-z
1/4+x,3/4+y,1/2-z
1/2-x,3/4+y,1/4+z
1/4+x,-y,1/4+z
1/2+x,1/2+y,z
3/4-x,3/4-y,z
1/2+x,3/4-y,1/4-z
3/4-x,1/2+y,1/4-z
1/2-x,1/2-y,-z
1/4+x,1/4+y,-z
1/2-x,1/4+y,3/4+z
1/4+x,1/2-y,3/4+z
loop_
_atom_site_type_symbol
_atom_site_label
_atom_site_fract_x
_atom_site_fract_y
_atom_site_fract_z
Si Si1 0.625000 0.125000 0.125000
Si Si2 0.504187 0.062638 0.695809
Si Si3 0.331180 0.579700 0.836856
Si Si4 0.741756 0.560058 0.975756
Si Si5 0.095342 0.451477 0.830633
O O1 0.717007 0.185701 0.147543
O O2 0.625000 0.125000 0.698756
O O3 0.451698 0.048974 0.735375
O O4 0.410206 0.111625 0.670279
O O5 0.560625 0.981470 0.678311
O O6 0.375000 0.609846 0.875000
O O7 0.316856 0.649609 0.807076
O O8 0.198981 0.523711 0.840766
O O9 0.625000 0.625000 0.979855
O O10 0.686997 0.475267 0.959918
#
# Coordination Sequence:
#
# PCOD9514431 Si02
#       5
#     8  32  32  32  32
#     4  12  24  36  50  68 112 156 178 210 260 344
#     4   9  17  33  58  83 107 137 180 234 281 328
#     4  10  19  32  57  86 110 135 186 242 278 315
#     4   9  18  33  55  83 110 137 176 230 289 334
#     4  10  21  35  52  76 108 147 182 217 278 335
#
# _framework density 21.340098000000001
#
# number of rings (size 3 to 8) (size 9 to 14) (size 15 to 20)
#    0.000    2.353    0.000    2.824    1.647    8.941 
#    0.000    1.176    0.000    0.000    0.000    0.000 
#    0.000    0.000    0.000    0.000    0.000    0.000 
#
# Total GULP energy -189495.325628 kJ/mol
# GULP energy per Si atom -5573.391930 kJ/mol
# Density = 2.129153 g / cm^3
# Si number density = 21.340098 Si / 1000 Ang^3
#
#
#
# Elastic Constant Matrix: (Units=GPa)
#
#
# Indices 1 2 3 4 5 6 
#
# 1 70.0721 9.5907 35.2678 0.0000 0.0000 0.0000
# 2 9.5907 43.7560 1.9716 0.0000 0.0000 0.0000
# 3 35.2678 1.9716 114.0682 0.0000 0.0000 0.0000
# 4 0.0000 0.0000 0.0000 13.4575 0.0000 0.0000
# 5 0.0000 0.0000 0.0000 0.0000 26.5603 0.0000
# 6 0.0000 0.0000 0.0000 0.0000 0.0000 8.1549
#
#
#
# Elastic Compliance Matrix: (Units=1/GPa)
#
#
# Indices 1 2 3 4 5 6 
#
# 1 0.017445 -0.003583 -0.005332 0.000000 0.000000 0.000000
# 2 -0.003583 0.023608 0.000700 0.000000 0.000000 0.000000
# 3 -0.005332 0.000700 0.010403 0.000000 0.000000 0.000000
# 4 0.000000 0.000000 0.000000 0.074308 0.000000 0.000000
# 5 0.000000 0.000000 0.000000 0.000000 0.037650 0.000000
# 6 0.000000 0.000000 0.000000 0.000000 0.000000 0.122625
#
#
# Mechanical properties :
#
#
# Convention : Reuss Voigt Hill
#
# Bulk Modulus (GPa) = 28.55075 35.72850 32.13962
# Shear Modulus (GPa) = 15.91622 21.70563 18.81093
#
# Velocity S-wave (km/s) = 2.73396 3.19271 2.97220
# Velocity P-wave (km/s) = 4.83467 5.51089 5.18382
#
# Compressibility (1/GPa) = 0.03502536
#
# Stress axis : x y z
#
# Youngs Moduli (GPa) = 57.32309 42.35872 96.12554
#
# Poissons Ratio (x) = 0.15179 0.51252
# Poissons Ratio (y) = 0.20541 -0.06728
# Poissons Ratio (z) = 0.30563 -0.02965
#
# Static dielectric constant tensor:
#      x y z
#    x 0.697520 0.000000 0.000000 
#    y 0.000000 1.699940 0.000000 
#    z 0.000000 0.000000 1.781490 
# 
# From -- ./inp_files/22007.got.cif
#   From: 2010.05.17/outbox.cif.g08.bks.cpg/sg70_12_cif.got.tgz:22007.got - 2010.06.03 15:57:51.
