data_PCOD9514876
_publ_section_title
;
Structure prediction by ZEFSAII (Michael W. Deem and Ramdas Pophale) SiO2 
 PCOD9514876
Probable space group: F D D D
;
_chemical_formula_sum "Si O2"
_cell_formula_units_Z 192
_cell_length_a 22.985559
_cell_length_b 18.716130
_cell_length_c 22.691854
_cell_angle_alpha 90.000000
_cell_angle_beta 90.000000
_cell_angle_gamma 90.000000
_cell_volume 9762.051710
_symmetry_space_group_name_H-M "F D D D"
_symmetry_group_IT_number 70
_space_group.IT_coordinate_system_code '2'
_symmetry_cell_setting 'orthorhombic'
loop_
_space_group_symop_operation_xyz
x,y,z
1/4-x,1/4-y,z
x,1/4-y,1/4-z
1/4-x,y,1/4-z
-x,-y,-z
3/4+x,3/4+y,-z
-x,3/4+y,3/4+z
3/4+x,-y,3/4+z
x,1/2+y,1/2+z
1/4-x,3/4-y,1/2+z
x,3/4-y,3/4-z
1/4-x,1/2+y,3/4-z
-x,1/2-y,1/2-z
3/4+x,1/4+y,1/2-z
-x,1/4+y,1/4+z
3/4+x,1/2-y,1/4+z
1/2+x,y,1/2+z
3/4-x,1/4-y,1/2+z
1/2+x,1/4-y,3/4-z
3/4-x,y,3/4-z
1/2-x,-y,1/2-z
1/4+x,3/4+y,1/2-z
1/2-x,3/4+y,1/4+z
1/4+x,-y,1/4+z
1/2+x,1/2+y,z
3/4-x,3/4-y,z
1/2+x,3/4-y,1/4-z
3/4-x,1/2+y,1/4-z
1/2-x,1/2-y,-z
1/4+x,1/4+y,-z
1/2-x,1/4+y,3/4+z
1/4+x,1/2-y,3/4+z
loop_
_atom_site_type_symbol
_atom_site_label
_atom_site_fract_x
_atom_site_fract_y
_atom_site_fract_z
Si Si1 0.989878 0.144016 0.190963
Si Si2 0.863515 0.205147 0.697543
Si Si3 0.819741 0.282744 0.583032
Si Si4 0.448701 0.313786 0.049670
Si Si5 0.891465 0.792835 0.307346
Si Si6 0.759001 0.046387 0.144783
O O1 0.010866 0.125000 0.125000
O O2 0.923346 0.116785 0.197193
O O3 0.979463 0.229524 0.192525
O O4 0.025937 0.096980 0.238540
O O5 0.834485 0.253851 0.647519
O O6 0.861054 0.242532 0.760338
O O7 0.929082 0.195913 0.676048
O O8 0.800463 0.364349 0.588651
O O9 0.881195 0.287043 0.546729
O O10 0.483118 0.253913 0.087148
O O11 0.875000 0.779531 0.375000
O O12 0.875000 0.875000 0.293154
O O13 0.959903 0.774706 0.308757
O O14 0.739653 0.125000 0.125000
#
# Coordination Sequence:
#
# PCOD9514876 Si02
#       6
#    32  32  32  32  32  32
#     4  10  20  38  59  88 118 152 199 250 302 360
#     4  10  21  36  59  81 114 152 203 241 290 367
#     4   9  20  38  58  88 114 152 206 251 296 366
#     4  10  20  36  63  84 116 160 197 248 310 356
#     4  11  22  36  53  81 121 155 191 241 303 358
#     4  11  21  38  57  87 118 160 202 248 301 363
#
# _framework density 19.667997
#
# number of rings (size 3 to 8) (size 9 to 14) (size 15 to 20)
#    0.000    1.833    1.667    4.500    4.667    0.000 
#    0.000    3.333    0.000    2.000    0.000    0.000 
#    0.000    0.000    0.000    0.000    0.000    0.000 
#
# Total GULP energy -267416.884777 kJ/mol
# GULP energy per Si atom -5571.185100 kJ/mol
# Density = 1.962323 g / cm^3
# Si number density = 19.667997 Si / 1000 Ang^3
#
#
#
# Elastic Constant Matrix: (Units=GPa)
#
#
# Indices 1 2 3 4 5 6 
#
# 1 19.4937 0.5514 3.3823 0.0000 0.0000 0.0000
# 2 0.5514 81.1328 15.4925 0.0000 0.0000 0.0000
# 3 3.3823 15.4925 57.5843 0.0000 0.0000 0.0000
# 4 0.0000 0.0000 0.0000 21.9227 0.0000 0.0000
# 5 0.0000 0.0000 0.0000 0.0000 28.6489 0.0000
# 6 0.0000 0.0000 0.0000 0.0000 0.0000 25.0764
#
#
#
# Elastic Compliance Matrix: (Units=1/GPa)
#
#
# Indices 1 2 3 4 5 6 
#
# 1 0.051831 0.000242 -0.003109 0.000000 0.000000 0.000000
# 2 0.000242 0.012994 -0.003510 0.000000 0.000000 0.000000
# 3 -0.003109 -0.003510 0.018493 0.000000 0.000000 0.000000
# 4 0.000000 0.000000 0.000000 0.045615 0.000000 0.000000
# 5 0.000000 0.000000 0.000000 0.000000 0.034905 0.000000
# 6 0.000000 0.000000 0.000000 0.000000 0.000000 0.039878
#
#
# Mechanical properties :
#
#
# Convention : Reuss Voigt Hill
#
# Bulk Modulus (GPa) = 14.17189 21.89590 18.03389
# Shear Modulus (GPa) = 20.83393 24.38192 22.60793
#
# Velocity S-wave (km/s) = 3.25819 3.52472 3.39407
# Velocity P-wave (km/s) = 4.62338 5.26515 4.95466
#
# Compressibility (1/GPa) = 0.07056223
#
# Stress axis : x y z
#
# Youngs Moduli (GPa) = 19.29338 76.95801 54.07493
#
# Poissons Ratio (x) = -0.01859 0.16814
# Poissons Ratio (y) = -0.00466 0.18981
# Poissons Ratio (z) = 0.05999 0.27013
#
# Static dielectric constant tensor:
#      x y z
#    x 1.773800 0.000000 0.000000 
#    y 0.000000 1.706900 0.000000 
#    z 0.000000 0.000000 1.690930 
# 
# From -- ./inp_files/45943.got.cif
#   From: 2010.05.17/outbox.cif.g08.bks.cpg/sg70_23_cif.got.tgz:45943.got - 2010.06.03 15:57:51.
