data_PCOD9514265
_publ_section_title
;
Structure prediction by ZEFSAII (Michael W. Deem and Ramdas Pophale) SiO2 
 PCOD9514265
Probable space group: F D D D
;
_chemical_formula_sum "Si O2"
_cell_formula_units_Z 240
_cell_length_a 18.694724
_cell_length_b 21.469947
_cell_length_c 31.538961
_cell_angle_alpha 90.000000
_cell_angle_beta 90.000000
_cell_angle_gamma 90.000000
_cell_volume 12658.942065
_symmetry_space_group_name_H-M "F D D D"
_symmetry_group_IT_number 70
_space_group.IT_coordinate_system_code '2'
_symmetry_cell_setting 'orthorhombic'
loop_
_space_group_symop_operation_xyz
x,y,z
1/4-x,1/4-y,z
x,1/4-y,1/4-z
1/4-x,y,1/4-z
-x,-y,-z
3/4+x,3/4+y,-z
-x,3/4+y,3/4+z
3/4+x,-y,3/4+z
x,1/2+y,1/2+z
1/4-x,3/4-y,1/2+z
x,3/4-y,3/4-z
1/4-x,1/2+y,3/4-z
-x,1/2-y,1/2-z
3/4+x,1/4+y,1/2-z
-x,1/4+y,1/4+z
3/4+x,1/2-y,1/4+z
1/2+x,y,1/2+z
3/4-x,1/4-y,1/2+z
1/2+x,1/4-y,3/4-z
3/4-x,y,3/4-z
1/2-x,-y,1/2-z
1/4+x,3/4+y,1/2-z
1/2-x,3/4+y,1/4+z
1/4+x,-y,1/4+z
1/2+x,1/2+y,z
3/4-x,3/4-y,z
1/2+x,3/4-y,1/4-z
3/4-x,1/2+y,1/4-z
1/2-x,1/2-y,-z
1/4+x,1/4+y,-z
1/2-x,1/4+y,3/4+z
1/4+x,1/2-y,3/4+z
loop_
_atom_site_type_symbol
_atom_site_label
_atom_site_fract_x
_atom_site_fract_y
_atom_site_fract_z
Si Si1 0.047504 0.928949 0.116550
Si Si2 0.884462 0.250544 0.662817
Si Si3 0.097968 0.192910 0.326349
Si Si4 0.539669 0.288963 0.450531
Si Si5 0.977611 0.427355 0.709402
Si Si6 0.341187 0.542157 0.416409
Si Si7 0.408783 0.625000 0.625000
Si Si8 0.758934 0.710018 0.458561
O O1 0.125000 0.959344 0.125000
O O2 0.061709 0.858356 0.100556
O O3 0.987231 0.952022 0.083321
O O4 0.015893 0.931096 0.163774
O O5 0.876035 0.298968 0.624550
O O6 0.837547 0.274475 0.702269
O O7 0.864683 0.182370 0.645522
O O8 0.968373 0.250576 0.672768
O O9 0.125000 0.125000 0.311523
O O10 0.138717 0.246860 0.301119
O O11 0.523083 0.309075 0.498512
O O12 0.472628 0.246648 0.436377
O O13 0.549688 0.342918 0.414809
O O14 0.964050 0.353708 0.712657
O O15 0.375000 0.509606 0.375000
O O16 0.408725 0.552725 0.447442
O O17 0.750000 0.750000 0.500000
#
# Coordination Sequence:
#
# PCOD9514265 Si02
#       8
#    32  32  32  32  32  32  16  32
#     4  10  19  37  63  87 113 155 206 257 305 373
#     4  10  21  37  59  84 117 167 214 253 301 377
#     4  10  18  34  60  85 111 155 209 247 306 380
#     4  11  23  37  58  91 127 166 204 262 314 379
#     4  11  22  38  61  92 124 160 215 262 306 377
#     4  11  20  36  59  86 118 165 204 250 310 371
#     4  10  22  40  57  84 131 168 210 256 324 378
#     4  12  22  35  57  90 130 162 204 254 312 375
#
# _framework density 18.958931
#
# number of rings (size 3 to 8) (size 9 to 14) (size 15 to 20)
#    0.000    1.333    4.000    5.200    0.000    0.000 
#    0.000    6.333    0.000    3.200    0.000   29.867 
#    0.000    0.000    0.000    0.000    0.000    0.000 
#
# Total GULP energy -334104.747804 kJ/mol
# GULP energy per Si atom -5568.412463 kJ/mol
# Density = 1.891578 g / cm^3
# Si number density = 18.958931 Si / 1000 Ang^3
#
#
#
# Elastic Constant Matrix: (Units=GPa)
#
#
# Indices 1 2 3 4 5 6 
#
# 1 107.8037 37.2323 31.4070 0.0000 0.0000 0.0000
# 2 37.2323 87.3238 30.9500 0.0000 0.0000 0.0000
# 3 31.4070 30.9500 83.6034 0.0000 0.0000 0.0000
# 4 0.0000 0.0000 0.0000 28.7546 0.0000 0.0000
# 5 0.0000 0.0000 0.0000 0.0000 23.3140 0.0000
# 6 0.0000 0.0000 0.0000 0.0000 0.0000 21.3536
#
#
#
# Elastic Compliance Matrix: (Units=1/GPa)
#
#
# Indices 1 2 3 4 5 6 
#
# 1 0.011446 -0.003863 -0.002870 0.000000 0.000000 0.000000
# 2 -0.003863 0.014485 -0.003911 0.000000 0.000000 0.000000
# 3 -0.002870 -0.003911 0.014487 0.000000 0.000000 0.000000
# 4 0.000000 0.000000 0.000000 0.034777 0.000000 0.000000
# 5 0.000000 0.000000 0.000000 0.000000 0.042893 0.000000
# 6 0.000000 0.000000 0.000000 0.000000 0.000000 0.046830
#
#
# Mechanical properties :
#
#
# Convention : Reuss Voigt Hill
#
# Bulk Modulus (GPa) = 52.27308 53.10107 52.68708
# Shear Modulus (GPa) = 25.96270 26.62722 26.29496
#
# Velocity S-wave (km/s) = 3.70458 3.75169 3.72821
# Velocity P-wave (km/s) = 6.77718 6.84370 6.81052
#
# Compressibility (1/GPa) = 0.01913030
#
# Stress axis : x y z
#
# Youngs Moduli (GPa) = 87.36314 69.03685 69.02634
#
# Poissons Ratio (x) = 0.26671 0.19810
# Poissons Ratio (y) = 0.33751 0.26997
# Poissons Ratio (z) = 0.25072 0.27001
#
# Static dielectric constant tensor:
#      x y z
#    x 1.739410 0.000000 0.000000 
#    y 0.000000 1.678350 0.000000 
#    z 0.000000 0.000000 1.682360 
# 
# From -- ./inp_files/67403.got.cif
#   From: 2010.05.17/outbox.cif.g08.bks.cpg/sg70_34_cif.got.tgz:67403.got - 2010.06.03 15:57:51.
