data_PCOD9514713
_publ_section_title
;
Structure prediction by ZEFSAII (Michael W. Deem and Ramdas Pophale) SiO2 
 PCOD9514713
Probable space group: F D D D
;
_chemical_formula_sum "Si O2"
_cell_formula_units_Z 208
_cell_length_a 22.034665
_cell_length_b 24.122410
_cell_length_c 19.116878
_cell_angle_alpha 90.000000
_cell_angle_beta 90.000000
_cell_angle_gamma 90.000000
_cell_volume 10161.179316
_symmetry_space_group_name_H-M "F D D D"
_symmetry_group_IT_number 70
_space_group.IT_coordinate_system_code '2'
_symmetry_cell_setting 'orthorhombic'
loop_
_space_group_symop_operation_xyz
x,y,z
1/4-x,1/4-y,z
x,1/4-y,1/4-z
1/4-x,y,1/4-z
-x,-y,-z
3/4+x,3/4+y,-z
-x,3/4+y,3/4+z
3/4+x,-y,3/4+z
x,1/2+y,1/2+z
1/4-x,3/4-y,1/2+z
x,3/4-y,3/4-z
1/4-x,1/2+y,3/4-z
-x,1/2-y,1/2-z
3/4+x,1/4+y,1/2-z
-x,1/4+y,1/4+z
3/4+x,1/2-y,1/4+z
1/2+x,y,1/2+z
3/4-x,1/4-y,1/2+z
1/2+x,1/4-y,3/4-z
3/4-x,y,3/4-z
1/2-x,-y,1/2-z
1/4+x,3/4+y,1/2-z
1/2-x,3/4+y,1/4+z
1/4+x,-y,1/4+z
1/2+x,1/2+y,z
3/4-x,3/4-y,z
1/2+x,3/4-y,1/4-z
3/4-x,1/2+y,1/4-z
1/2-x,1/2-y,-z
1/4+x,1/4+y,-z
1/2-x,1/4+y,3/4+z
1/4+x,1/2-y,3/4+z
loop_
_atom_site_type_symbol
_atom_site_label
_atom_site_fract_x
_atom_site_fract_y
_atom_site_fract_z
Si Si1 0.622406 0.533222 0.043766
Si Si2 0.414650 0.319956 0.271975
Si Si3 0.778858 0.376635 0.254749
Si Si4 0.125000 0.266019 0.625000
Si Si5 0.749767 0.125000 0.125000
Si Si6 0.663593 0.794554 0.320000
Si Si7 0.930130 0.125000 0.125000
Si Si8 0.760342 0.940541 0.129606
O O1 0.625000 0.520955 0.125000
O O2 0.561953 0.564846 0.018028
O O3 0.675191 0.578680 0.031023
O O4 0.633779 0.478111 0.999852
O O5 0.375000 0.375000 0.261877
O O6 0.373871 0.270107 0.302406
O O7 0.458313 0.330416 0.337888
O O8 0.457428 0.313839 0.204916
O O9 0.720842 0.373423 0.305220
O O10 0.769617 0.361224 0.173402
O O11 0.188383 0.298644 0.618479
O O12 0.790243 0.154160 0.183949
O O13 0.611865 0.820074 0.370072
O O14 0.702793 0.743020 0.347896
#
# Coordination Sequence:
#
# PCOD9514713 Si02
#       8
#    32  32  32  16  16  32  16  32
#     4  10  19  42  67  91 132 175 223 270 333 408
#     4  12  23  42  67  95 130 179 220 274 335 406
#     4  10  21  41  63  95 127 178 217 272 339 391
#     4  12  23  44  68  94 128 182 222 271 338 394
#     4  11  21  46  59  93 130 177 217 268 344 393
#     4  10  24  39  66  93 131 169 222 274 330 403
#     4  11  22  41  65  92 134 176 207 286 338 397
#     4  11  26  40  67 100 130 169 229 276 320 407
#
# _framework density 20.470064000000001
#
# number of rings (size 3 to 8) (size 9 to 14) (size 15 to 20)
#    0.000    1.231    4.615    0.923    6.462    1.846 
#    2.769    0.000    0.000    0.000    0.000    0.000 
#    0.000    0.000    0.000    0.000    0.000    0.000 
#
# Total GULP energy -290040.432397 kJ/mol
# GULP energy per Si atom -5577.700623 kJ/mol
# Density = 2.042347 g / cm^3
# Si number density = 20.470064 Si / 1000 Ang^3
#
#
#
# Elastic Constant Matrix: (Units=GPa)
#
#
# Indices 1 2 3 4 5 6 
#
# 1 113.6485 31.2440 46.9356 0.0000 0.0000 0.0000
# 2 31.2440 59.9983 35.6397 0.0000 0.0000 0.0000
# 3 46.9356 35.6397 128.8532 0.0000 0.0000 0.0000
# 4 0.0000 0.0000 0.0000 23.2669 0.0000 0.0000
# 5 0.0000 0.0000 0.0000 0.0000 24.6814 0.0000
# 6 0.0000 0.0000 0.0000 0.0000 0.0000 3.8378
#
#
#
# Elastic Compliance Matrix: (Units=1/GPa)
#
#
# Indices 1 2 3 4 5 6 
#
# 1 0.011123 -0.004051 -0.002931 0.000000 0.000000 0.000000
# 2 -0.004051 0.021419 -0.004449 0.000000 0.000000 0.000000
# 3 -0.002931 -0.004449 0.010059 0.000000 0.000000 0.000000
# 4 0.000000 0.000000 0.000000 0.042979 0.000000 0.000000
# 5 0.000000 0.000000 0.000000 0.000000 0.040516 0.000000
# 6 0.000000 0.000000 0.000000 0.000000 0.000000 0.260568
#
#
# Mechanical properties :
#
#
# Convention : Reuss Voigt Hill
#
# Bulk Modulus (GPa) = 50.66032 58.90429 54.78231
# Shear Modulus (GPa) = 12.01612 22.93593 17.47603
#
# Velocity S-wave (km/s) = 2.42546 3.35096 2.92505
# Velocity P-wave (km/s) = 5.71367 6.61893 6.18289
#
# Compressibility (1/GPa) = 0.01973931
#
# Stress axis : x y z
#
# Youngs Moduli (GPa) = 89.90057 46.68653 99.41386
#
# Poissons Ratio (x) = 0.18914 0.29140
# Poissons Ratio (y) = 0.36422 0.44226
# Poissons Ratio (z) = 0.26352 0.20770
#
# Static dielectric constant tensor:
#      x y z
#    x 1.769670 0.000000 0.000000 
#    y 0.000000 1.728210 0.000000 
#    z 0.000000 0.000000 1.782280 
# 
# From -- ./inp_files/36753.got.cif
#   From: 2010.05.17/outbox.cif.g08.bks.cpg/sg70_19_cif.got.tgz:36753.got - 2010.06.03 15:57:51.
