data_PCOD9514604
_publ_section_title
;
Structure prediction by ZEFSAII (Michael W. Deem and Ramdas Pophale) SiO2 
 PCOD9514604
Probable space group: F D D D
;
_chemical_formula_sum "Si O2"
_cell_formula_units_Z 96
_cell_length_a 26.840136
_cell_length_b 10.974218
_cell_length_c 15.632400
_cell_angle_alpha 90.000000
_cell_angle_beta 90.000000
_cell_angle_gamma 90.000000
_cell_volume 4604.515660
_symmetry_space_group_name_H-M "F D D D"
_symmetry_group_IT_number 70
_space_group.IT_coordinate_system_code '2'
_symmetry_cell_setting 'orthorhombic'
loop_
_space_group_symop_operation_xyz
x,y,z
1/4-x,1/4-y,z
x,1/4-y,1/4-z
1/4-x,y,1/4-z
-x,-y,-z
3/4+x,3/4+y,-z
-x,3/4+y,3/4+z
3/4+x,-y,3/4+z
x,1/2+y,1/2+z
1/4-x,3/4-y,1/2+z
x,3/4-y,3/4-z
1/4-x,1/2+y,3/4-z
-x,1/2-y,1/2-z
3/4+x,1/4+y,1/2-z
-x,1/4+y,1/4+z
3/4+x,1/2-y,1/4+z
1/2+x,y,1/2+z
3/4-x,1/4-y,1/2+z
1/2+x,1/4-y,3/4-z
3/4-x,y,3/4-z
1/2-x,-y,1/2-z
1/4+x,3/4+y,1/2-z
1/2-x,3/4+y,1/4+z
1/4+x,-y,1/4+z
1/2+x,1/2+y,z
3/4-x,3/4-y,z
1/2+x,3/4-y,1/4-z
3/4-x,1/2+y,1/4-z
1/2-x,1/2-y,-z
1/4+x,1/4+y,-z
1/2-x,1/4+y,3/4+z
1/4+x,1/2-y,3/4+z
loop_
_atom_site_type_symbol
_atom_site_label
_atom_site_fract_x
_atom_site_fract_y
_atom_site_fract_z
Si Si1 0.848408 0.493648 0.528242
Si Si2 0.888364 0.007965 0.224134
Si Si3 0.999928 0.359977 0.472508
O O1 0.875000 0.375000 0.488264
O O2 0.870179 0.500820 0.624781
O O3 0.803484 0.205913 0.725533
O O4 0.790231 0.465042 0.526304
O O5 0.875000 0.875000 0.260933
O O6 0.110471 0.875782 0.237179
O O7 0.983347 0.375000 0.375000
O O8 0.000000 0.500000 0.500000
#
# Coordination Sequence:
#
# PCOD9514604 Si02
#       3
#    32  32  32
#     4  10  19  37  63  94 124 174 214 272 339 394
#     4  10  20  40  62  91 136 168 214 281 339 395
#     4  12  22  40  71 100 131 180 233 275 342 420
#
# _framework density 20.8491
#
# number of rings (size 3 to 8) (size 9 to 14) (size 15 to 20)
#    0.000    1.333    6.667    2.000    0.000    2.000 
#    0.000    0.000    0.000    2.000    0.000    0.000 
#    0.000    0.000    0.000    0.000    0.000    0.000 
#
# Total GULP energy -133841.513449 kJ/mol
# GULP energy per Si atom -5576.729727 kJ/mol
# Density = 2.080165 g / cm^3
# Si number density = 20.849100 Si / 1000 Ang^3
#
#
#
# Elastic Constant Matrix: (Units=GPa)
#
#
# Indices 1 2 3 4 5 6 
#
# 1 205.8256 77.5587 25.8284 0.0000 0.0000 0.0000
# 2 77.5587 236.5379 20.3656 0.0000 0.0000 0.0000
# 3 25.8284 20.3656 37.9481 0.0000 0.0000 0.0000
# 4 0.0000 0.0000 0.0000 6.8670 0.0000 0.0000
# 5 0.0000 0.0000 0.0000 0.0000 35.4726 0.0000
# 6 0.0000 0.0000 0.0000 0.0000 0.0000 43.1533
#
#
#
# Elastic Compliance Matrix: (Units=1/GPa)
#
#
# Indices 1 2 3 4 5 6 
#
# 1 0.005873 -0.001658 -0.003108 0.000000 0.000000 0.000000
# 2 -0.001658 0.004901 -0.001501 0.000000 0.000000 0.000000
# 3 -0.003108 -0.001501 0.029273 0.000000 0.000000 0.000000
# 4 0.000000 0.000000 0.000000 0.145624 0.000000 0.000000
# 5 0.000000 0.000000 0.000000 0.000000 0.028191 0.000000
# 6 0.000000 0.000000 0.000000 0.000000 0.000000 0.023173
#
#
# Mechanical properties :
#
#
# Convention : Reuss Voigt Hill
#
# Bulk Modulus (GPa) = 36.34755 80.86855 58.60805
# Shear Modulus (GPa) = 19.32442 40.86918 30.09680
#
# Velocity S-wave (km/s) = 3.04776 4.43226 3.80353
# Velocity P-wave (km/s) = 5.46412 8.06629 6.88918
#
# Compressibility (1/GPa) = 0.02751217
#
# Stress axis : x y z
#
# Youngs Moduli (GPa) = 170.26210 204.05480 34.16157
#
# Poissons Ratio (x) = 0.33837 0.10616
# Poissons Ratio (y) = 0.28234 0.05129
# Poissons Ratio (z) = 0.52910 0.30637
#
# Static dielectric constant tensor:
#      x y z
#    x 1.756120 0.000000 0.000000 
#    y 0.000000 1.824300 0.000000 
#    z 0.000000 0.000000 1.595580 
# 
# From -- ./inp_files/17085.got.cif
#   From: 2010.05.17/outbox.cif.g08.bks.cpg/sg70_9_cif.got.tgz:17085.got - 2010.06.03 15:57:51.
