data_PCOD9514501
_publ_section_title
;
Structure prediction by ZEFSAII (Michael W. Deem and Ramdas Pophale) SiO2 
 PCOD9514501
Probable space group: F D D D
;
_chemical_formula_sum "Si O2"
_cell_formula_units_Z 208
_cell_length_a 19.494745
_cell_length_b 27.828104
_cell_length_c 22.198684
_cell_angle_alpha 90.000000
_cell_angle_beta 90.000000
_cell_angle_gamma 90.000000
_cell_volume 12042.825835
_symmetry_space_group_name_H-M "F D D D"
_symmetry_group_IT_number 70
_space_group.IT_coordinate_system_code '2'
_symmetry_cell_setting 'orthorhombic'
loop_
_space_group_symop_operation_xyz
x,y,z
1/4-x,1/4-y,z
x,1/4-y,1/4-z
1/4-x,y,1/4-z
-x,-y,-z
3/4+x,3/4+y,-z
-x,3/4+y,3/4+z
3/4+x,-y,3/4+z
x,1/2+y,1/2+z
1/4-x,3/4-y,1/2+z
x,3/4-y,3/4-z
1/4-x,1/2+y,3/4-z
-x,1/2-y,1/2-z
3/4+x,1/4+y,1/2-z
-x,1/4+y,1/4+z
3/4+x,1/2-y,1/4+z
1/2+x,y,1/2+z
3/4-x,1/4-y,1/2+z
1/2+x,1/4-y,3/4-z
3/4-x,y,3/4-z
1/2-x,-y,1/2-z
1/4+x,3/4+y,1/2-z
1/2-x,3/4+y,1/4+z
1/4+x,-y,1/4+z
1/2+x,1/2+y,z
3/4-x,3/4-y,z
1/2+x,3/4-y,1/4-z
3/4-x,1/2+y,1/4-z
1/2-x,1/2-y,-z
1/4+x,1/4+y,-z
1/2-x,1/4+y,3/4+z
1/4+x,1/2-y,3/4+z
loop_
_atom_site_type_symbol
_atom_site_label
_atom_site_fract_x
_atom_site_fract_y
_atom_site_fract_z
Si Si1 0.677630 0.337835 0.319093
Si Si2 0.875000 0.474947 0.375000
Si Si3 0.113204 0.261329 0.992593
Si Si4 0.769752 0.597056 0.357440
Si Si5 0.344191 0.610763 0.975700
Si Si6 0.311372 0.344251 0.734827
Si Si7 0.520618 0.485895 0.900608
O O1 0.675356 0.375000 0.375000
O O2 0.615908 0.348457 0.272851
O O3 0.747677 0.344126 0.280789
O O4 0.680279 0.285576 0.349402
O O5 0.860716 0.503975 0.435616
O O6 0.800004 0.454736 0.356139
O O7 0.082768 0.210679 0.970672
O O8 0.188237 0.267909 0.963098
O O9 0.077932 0.312858 0.985357
O O10 0.836432 0.601238 0.313891
O O11 0.788190 0.616602 0.423640
O O12 0.712082 0.628015 0.324673
O O13 0.748180 0.541310 0.359161
O O14 0.375000 0.375000 0.760883
#
# Coordination Sequence:
#
# PCOD9514501 Si02
#       7
#    32  16  32  32  32  32  32
#     4  11  23  31  48  78 104 136 174 212 250 301
#     4  12  22  32  49  74 106 158 176 200 250 319
#     4  12  21  33  50  73 105 142 181 211 251 306
#     4  10  19  35  53  69 100 145 180 205 252 317
#     4  10  19  35  53  69 100 145 180 205 252 317
#     4  11  23  31  48  78 104 136 174 212 250 301
#     4  12  21  33  50  73 105 142 181 211 251 306
#
# _framework density 17.271694
#
# number of rings (size 3 to 8) (size 9 to 14) (size 15 to 20)
#    0.000    0.923    7.692    0.462    2.154    0.308 
#    0.000    0.000    0.000    0.923    0.000    0.000 
#    0.000    0.615    0.000    0.000    0.000    0.000 
#
# Total GULP energy -289539.446695 kJ/mol
# GULP energy per Si atom -5568.066283 kJ/mol
# Density = 1.723238 g / cm^3
# Si number density = 17.271694 Si / 1000 Ang^3
#
#
#
# Elastic Constant Matrix: (Units=GPa)
#
#
# Indices 1 2 3 4 5 6 
#
# 1 37.3588 12.0045 40.2178 0.0000 0.0000 0.0000
# 2 12.0045 65.8998 32.0977 0.0000 0.0000 0.0000
# 3 40.2178 32.0977 87.8141 0.0000 0.0000 0.0000
# 4 0.0000 0.0000 0.0000 30.2476 0.0000 0.0000
# 5 0.0000 0.0000 0.0000 0.0000 34.1811 0.0000
# 6 0.0000 0.0000 0.0000 0.0000 0.0000 16.1973
#
#
#
# Elastic Compliance Matrix: (Units=1/GPa)
#
#
# Indices 1 2 3 4 5 6 
#
# 1 0.053176 0.002647 -0.025322 0.000000 0.000000 0.000000
# 2 0.002647 0.018593 -0.008008 0.000000 0.000000 0.000000
# 3 -0.025322 -0.008008 0.025912 0.000000 0.000000 0.000000
# 4 0.000000 0.000000 0.000000 0.033061 0.000000 0.000000
# 5 0.000000 0.000000 0.000000 0.000000 0.029256 0.000000
# 6 0.000000 0.000000 0.000000 0.000000 0.000000 0.061739
#
#
# Mechanical properties :
#
#
# Convention : Reuss Voigt Hill
#
# Bulk Modulus (GPa) = 27.53691 39.96807 33.75249
# Shear Modulus (GPa) = 16.93723 23.24203 20.08963
#
# Velocity S-wave (km/s) = 3.13491 3.67232 3.41420
# Velocity P-wave (km/s) = 5.39273 6.41656 5.92679
#
# Compressibility (1/GPa) = 0.03631490
#
# Stress axis : x y z
#
# Youngs Moduli (GPa) = 18.80530 53.78373 38.59244
#
# Poissons Ratio (x) = -0.14234 0.97722
# Poissons Ratio (y) = -0.04977 0.30905
# Poissons Ratio (z) = 0.47618 0.43071
#
# Static dielectric constant tensor:
#      x y z
#    x 1.619040 0.000000 0.000000 
#    y 0.000000 1.645910 0.000000 
#    z 0.000000 0.000000 1.604260 
# 
# From -- ./inp_files/45231.got.cif
#   From: 2010.05.17/outbox.cif.g08.bks.cpg/sg70_23_cif.got.tgz:45231.got - 2010.06.03 15:57:51.
