data_PCOD9514474
_publ_section_title
;
Structure prediction by ZEFSAII (Michael W. Deem and Ramdas Pophale) SiO2 
 PCOD9514474
Probable space group: F D D D
;
_chemical_formula_sum "Si O2"
_cell_formula_units_Z 208
_cell_length_a 22.825166
_cell_length_b 27.006749
_cell_length_c 16.678206
_cell_angle_alpha 90.000000
_cell_angle_beta 90.000000
_cell_angle_gamma 90.000000
_cell_volume 10281.005383
_symmetry_space_group_name_H-M "F D D D"
_symmetry_group_IT_number 70
_space_group.IT_coordinate_system_code '2'
_symmetry_cell_setting 'orthorhombic'
loop_
_space_group_symop_operation_xyz
x,y,z
1/4-x,1/4-y,z
x,1/4-y,1/4-z
1/4-x,y,1/4-z
-x,-y,-z
3/4+x,3/4+y,-z
-x,3/4+y,3/4+z
3/4+x,-y,3/4+z
x,1/2+y,1/2+z
1/4-x,3/4-y,1/2+z
x,3/4-y,3/4-z
1/4-x,1/2+y,3/4-z
-x,1/2-y,1/2-z
3/4+x,1/4+y,1/2-z
-x,1/4+y,1/4+z
3/4+x,1/2-y,1/4+z
1/2+x,y,1/2+z
3/4-x,1/4-y,1/2+z
1/2+x,1/4-y,3/4-z
3/4-x,y,3/4-z
1/2-x,-y,1/2-z
1/4+x,3/4+y,1/2-z
1/2-x,3/4+y,1/4+z
1/4+x,-y,1/4+z
1/2+x,1/2+y,z
3/4-x,3/4-y,z
1/2+x,3/4-y,1/4-z
3/4-x,1/2+y,1/4-z
1/2-x,1/2-y,-z
1/4+x,1/4+y,-z
1/2-x,1/4+y,3/4+z
1/4+x,1/2-y,3/4+z
loop_
_atom_site_type_symbol
_atom_site_label
_atom_site_fract_x
_atom_site_fract_y
_atom_site_fract_z
Si Si1 0.887396 0.632522 0.462835
Si Si2 0.875000 0.875000 0.071389
Si Si3 0.232802 0.609648 0.533380
Si Si4 0.276308 0.105353 0.538201
Si Si5 0.884859 0.003088 0.464037
Si Si6 0.505812 0.991920 0.225731
Si Si7 0.288011 0.936373 0.677721
O O1 0.875000 0.610151 0.375000
O O2 0.955090 0.631971 0.487966
O O3 0.846206 0.608966 0.528981
O O4 0.860412 0.687948 0.458347
O O5 0.905621 0.834661 0.129040
O O6 0.819999 0.863016 0.013176
O O7 0.236649 0.625000 0.625000
O O8 0.223551 0.549954 0.527848
O O9 0.257220 0.125000 0.625000
O O10 0.244004 0.140249 0.471803
O O11 0.266036 0.047315 0.528974
O O12 0.875000 0.981804 0.375000
O O13 0.936005 0.975054 0.508874
O O14 0.821842 0.000414 0.506588
O O15 0.501638 0.966184 0.136973
#
# Coordination Sequence:
#
# PCOD9514474 Si02
#       7
#    32  16  32  32  32  32  32
#     4  10  21  38  61  88 122 158 195 244 300 356
#     4  10  21  38  61  82 112 154 198 250 303 346
#     4  10  21  41  66  87 113 157 206 252 301 352
#     4  12  23  37  61  93 126 159 197 242 296 362
#     4  10  19  34  57  84 118 162 203 239 289 357
#     4  10  23  39  59  88 120 157 200 246 299 356
#     4  11  22  38  59  86 123 161 198 246 301 354
#
# _framework density 20.231484999999999
#
# number of rings (size 3 to 8) (size 9 to 14) (size 15 to 20)
#    0.000    1.538    0.000    7.154    0.000    3.077 
#    0.000    4.615    0.000   21.231    0.000    0.000 
#    0.000    0.000    0.000    0.000    0.000    0.000 
#
# Total GULP energy -289886.303127 kJ/mol
# GULP energy per Si atom -5574.736599 kJ/mol
# Density = 2.018544 g / cm^3
# Si number density = 20.231485 Si / 1000 Ang^3
#
#
#
# Elastic Constant Matrix: (Units=GPa)
#
#
# Indices 1 2 3 4 5 6 
#
# 1 121.1733 49.2974 40.3732 0.0000 0.0000 0.0000
# 2 49.2974 96.0218 39.0839 0.0000 0.0000 0.0000
# 3 40.3732 39.0839 118.7852 0.0000 0.0000 0.0000
# 4 0.0000 0.0000 0.0000 25.7973 0.0000 0.0000
# 5 0.0000 0.0000 0.0000 0.0000 36.1399 0.0000
# 6 0.0000 0.0000 0.0000 0.0000 0.0000 19.7308
#
#
#
# Elastic Compliance Matrix: (Units=1/GPa)
#
#
# Indices 1 2 3 4 5 6 
#
# 1 0.010887 -0.004714 -0.002149 0.000000 0.000000 0.000000
# 2 -0.004714 0.014066 -0.003026 0.000000 0.000000 0.000000
# 3 -0.002149 -0.003026 0.010145 0.000000 0.000000 0.000000
# 4 0.000000 0.000000 0.000000 0.038764 0.000000 0.000000
# 5 0.000000 0.000000 0.000000 0.000000 0.027670 0.000000
# 6 0.000000 0.000000 0.000000 0.000000 0.000000 0.050682
#
#
# Mechanical properties :
#
#
# Convention : Reuss Voigt Hill
#
# Bulk Modulus (GPa) = 65.27897 65.94326 65.61112
# Shear Modulus (GPa) = 28.23285 30.14866 29.19075
#
# Velocity S-wave (km/s) = 3.73968 3.86448 3.80259
# Velocity P-wave (km/s) = 7.14024 7.25103 7.19585
#
# Compressibility (1/GPa) = 0.01531887
#
# Stress axis : x y z
#
# Youngs Moduli (GPa) = 91.85544 71.09174 98.57495
#
# Poissons Ratio (x) = 0.33516 0.21184
# Poissons Ratio (y) = 0.43305 0.29827
# Poissons Ratio (z) = 0.19740 0.21511
#
# Static dielectric constant tensor:
#      x y z
#    x 1.769790 0.000000 0.000000 
#    y 0.000000 1.726260 0.000000 
#    z 0.000000 0.000000 1.756410 
# 
# From -- ./inp_files/37703.got.cif
#   From: 2010.05.17/outbox.cif.g08.bks.cpg/sg70_19_cif.got.tgz:37703.got - 2010.06.03 15:57:51.
