data_PCOD9514025
_publ_section_title
;
Structure prediction by ZEFSAII (Michael W. Deem and Ramdas Pophale) SiO2 
 PCOD9514025
Probable space group: F M M M
;
_chemical_formula_sum "Si O2"
_cell_formula_units_Z 44
_cell_length_a 27.000000
_cell_length_b 18.000000
_cell_length_c 18.000000
_cell_angle_alpha 90.000000
_cell_angle_beta 90.000000
_cell_angle_gamma 90.000000
_cell_volume 8748.000000
_symmetry_space_group_name_H-M "F M M M"
_symmetry_group_IT_number 69
_symmetry_cell_setting 'orthorhombic'
loop_
_space_group_symop_operation_xyz
x,y,z
-x,-y,z
x,-y,-z
-x,y,-z
-x,-y,-z
x,y,-z
-x,y,z
x,-y,z
x,1/2+y,1/2+z
-x,1/2-y,1/2+z
x,1/2-y,1/2-z
-x,1/2+y,1/2-z
-x,1/2-y,1/2-z
x,1/2+y,1/2-z
-x,1/2+y,1/2+z
x,1/2-y,1/2+z
1/2+x,y,1/2+z
1/2-x,-y,1/2+z
1/2+x,-y,1/2-z
1/2-x,y,1/2-z
1/2-x,-y,1/2-z
1/2+x,y,1/2-z
1/2-x,y,1/2+z
1/2+x,-y,1/2+z
1/2+x,1/2+y,z
1/2-x,1/2-y,z
1/2+x,1/2-y,-z
1/2-x,1/2+y,-z
1/2-x,1/2-y,-z
1/2+x,1/2+y,-z
1/2-x,1/2+y,z
1/2+x,1/2-y,z
loop_
_atom_site_type_symbol
_atom_site_label
_atom_site_fract_x
_atom_site_fract_y
_atom_site_fract_z
Si Si1 0.850580 0.682180 0.086206
Si Si2 0.000000 0.909614 0.916026
Si Si3 0.228695 0.911111 0.331653
Si Si4 0.092362 0.911707 0.183543
Si Si5 0.820753 0.649922 0.584855
Si Si6 0.058149 0.314959 0.811563
O O1 0.821829 0.627724 0.142382
O O2 0.822031 0.760996 0.087589
O O3 0.905521 0.695626 0.118993
O O4 0.851606 0.656752 0.000000
O O5 0.951998 0.886312 0.870702
O O6 0.000000 0.000000 0.917748
O O7 0.000000 0.882331 0.000000
O O8 0.250000 0.889101 0.250000
O O9 0.268479 0.884571 0.392711
O O10 0.223533 0.000000 0.331345
O O11 0.141447 0.878214 0.147660
O O12 0.076847 0.886187 0.265190
O O13 0.096629 0.000000 0.180827
O O14 0.834890 0.627948 0.500000
O O15 0.064631 0.250000 0.750000
O O16 0.000000 0.319473 0.830352
#
# Coordination Sequence:
#
# PCOD9514025 Si02
#       6
#    32  16  32  32  32  32
#     4  11  25  43  65  96 132 172 218 269 329 394
#     4   9  18  32  51  84 129 165 195 250 325 385
#     4  11  25  43  66  96 128 170 222 273 325 383
#     4  11  21  36  60  92 124 162 212 265 321 388
#     4  11  23  40  62  93 130 169 209 258 325 395
#     4  11  23  42  66  92 124 172 219 265 323 386
#
# _framework density 5.0297210000000003
#
# number of rings (size 3 to 8) (size 9 to 14) (size 15 to 20)
#    0.000    1.182    2.727    3.273    0.000    8.000 
#    0.000    0.000    0.000    0.000    0.000    2.545 
#    0.000    0.000    0.000    0.000    0.000    0.000 
#
# Total GULP energy -245928.053090 kJ/mol
# GULP energy per Si atom -5589.273934 kJ/mol
# Density = 0.501827 g / cm^3
# Si number density = 5.029721 Si / 1000 Ang^3
#
#
#
# Elastic Constant Matrix: (Units=GPa)
#
#
# Indices 1 2 3 4 5 6 
#
# 1 108.8354 24.8325 18.7855 0.0000 0.0000 0.0000
# 2 24.8325 63.4947 33.7668 0.0000 0.0000 0.0000
# 3 18.7855 33.7668 85.4459 0.0000 0.0000 0.0000
# 4 0.0000 0.0000 0.0000 25.1086 0.0000 0.0000
# 5 0.0000 0.0000 0.0000 0.0000 21.5325 0.0000
# 6 0.0000 0.0000 0.0000 0.0000 0.0000 23.4974
#
#
#
# Elastic Compliance Matrix: (Units=1/GPa)
#
#
# Indices 1 2 3 4 5 6 
#
# 1 0.010136 -0.003518 -0.000838 0.000000 0.000000 0.000000
# 2 -0.003518 0.021161 -0.007589 0.000000 0.000000 0.000000
# 3 -0.000838 -0.007589 0.014887 0.000000 0.000000 0.000000
# 4 0.000000 0.000000 0.000000 0.039827 0.000000 0.000000
# 5 0.000000 0.000000 0.000000 0.000000 0.046442 0.000000
# 6 0.000000 0.000000 0.000000 0.000000 0.000000 0.042558
#
#
# Mechanical properties :
#
#
# Convention : Reuss Voigt Hill
#
# Bulk Modulus (GPa) = 44.85765 45.83840 45.34803
# Shear Modulus (GPa) = 24.23285 26.05377 25.14331
#
# Velocity S-wave (km/s) = 3.47433 3.60250 3.53900
# Velocity P-wave (km/s) = 6.19995 6.33540 6.26804
#
# Compressibility (1/GPa) = 0.02229274
#
# Stress axis : x y z
#
# Youngs Moduli (GPa) = 98.66226 47.25615 67.17449
#
# Poissons Ratio (x) = 0.16626 0.05629
# Poissons Ratio (y) = 0.34713 0.50979
# Poissons Ratio (z) = 0.08267 0.35863
#
# Static dielectric constant tensor:
#      x y z
#    x 1.748820 0.000000 0.000000 
#    y 0.000000 1.717270 0.000000 
#    z 0.000000 0.000000 1.693720 
# 
# From -- ./inp_files/26769.got.cif
#   From: 2010.05.17/outbox.ucp.g08.bks.cvg/sg69_14_cif.got.tgz:26769.got - 2010.06.11 16:51:34.
