data_PCOD9514570
_publ_section_title
;
Structure prediction by ZEFSAII (Michael W. Deem and Ramdas Pophale) SiO2 
 PCOD9514570
Probable space group: F D D D
;
_chemical_formula_sum "Si O2"
_cell_formula_units_Z 160
_cell_length_a 27.443569
_cell_length_b 13.572954
_cell_length_c 20.619011
_cell_angle_alpha 90.000000
_cell_angle_beta 90.000000
_cell_angle_gamma 90.000000
_cell_volume 7680.381586
_symmetry_space_group_name_H-M "F D D D"
_symmetry_group_IT_number 70
_space_group.IT_coordinate_system_code '2'
_symmetry_cell_setting 'orthorhombic'
loop_
_space_group_symop_operation_xyz
x,y,z
1/4-x,1/4-y,z
x,1/4-y,1/4-z
1/4-x,y,1/4-z
-x,-y,-z
3/4+x,3/4+y,-z
-x,3/4+y,3/4+z
3/4+x,-y,3/4+z
x,1/2+y,1/2+z
1/4-x,3/4-y,1/2+z
x,3/4-y,3/4-z
1/4-x,1/2+y,3/4-z
-x,1/2-y,1/2-z
3/4+x,1/4+y,1/2-z
-x,1/4+y,1/4+z
3/4+x,1/2-y,1/4+z
1/2+x,y,1/2+z
3/4-x,1/4-y,1/2+z
1/2+x,1/4-y,3/4-z
3/4-x,y,3/4-z
1/2-x,-y,1/2-z
1/4+x,3/4+y,1/2-z
1/2-x,3/4+y,1/4+z
1/4+x,-y,1/4+z
1/2+x,1/2+y,z
3/4-x,3/4-y,z
1/2+x,3/4-y,1/4-z
3/4-x,1/2+y,1/4-z
1/2-x,1/2-y,-z
1/4+x,1/4+y,-z
1/2-x,1/4+y,3/4+z
1/4+x,1/2-y,3/4+z
loop_
_atom_site_type_symbol
_atom_site_label
_atom_site_fract_x
_atom_site_fract_y
_atom_site_fract_z
Si Si1 0.070336 0.648972 0.900105
Si Si2 0.758248 0.230370 0.152668
Si Si3 0.926434 0.640393 0.846612
Si Si4 0.983026 0.761525 0.956109
Si Si5 0.424099 0.936414 0.497396
O O1 0.125000 0.625000 0.922250
O O2 0.071403 0.685878 0.825105
O O3 0.042188 0.544599 0.894760
O O4 0.037930 0.726273 0.940354
O O5 0.746310 0.125000 0.125000
O O6 0.711497 0.298697 0.163503
O O7 0.782218 0.219227 0.223506
O O8 0.875000 0.609072 0.875000
O O9 0.951305 0.712529 0.899634
O O10 0.920809 0.706200 0.782699
O O11 0.969169 0.876278 0.965071
O O12 0.375000 0.875000 0.481035
#
# Coordination Sequence:
#
# PCOD9514570 Si02
#       5
#    32  32  32  32  32
#     4   9  21  41  62  94 127 163 211 256 313 375
#     4  10  24  45  60  86 128 171 210 254 305 371
#     4  11  22  37  63  95 123 164 209 256 314 375
#     4  10  21  38  64  92 121 167 202 260 320 362
#     4  10  19  36  63  93 132 156 197 266 328 372
#
# _framework density 20.832298999999999
#
# number of rings (size 3 to 8) (size 9 to 14) (size 15 to 20)
#    0.000    2.000    2.000    0.600    0.000   12.400 
#    7.200    4.000    0.000    0.000    0.000    0.000 
#    0.000    0.000    0.000    0.000    0.000    0.000 
#
# Total GULP energy -223463.354160 kJ/mol
# GULP energy per Si atom -5586.583854 kJ/mol
# Density = 2.078488 g / cm^3
# Si number density = 20.832299 Si / 1000 Ang^3
#
#
#
# Elastic Constant Matrix: (Units=GPa)
#
#
# Indices 1 2 3 4 5 6 
#
# 1 117.3879 27.2531 -10.8020 0.0000 0.0000 0.0000
# 2 27.2531 100.6100 16.7772 0.0000 0.0000 0.0000
# 3 -10.8020 16.7772 28.1405 0.0000 0.0000 0.0000
# 4 0.0000 0.0000 0.0000 1.7149 0.0000 0.0000
# 5 0.0000 0.0000 0.0000 0.0000 25.7661 0.0000
# 6 0.0000 0.0000 0.0000 0.0000 0.0000 19.5222
#
#
#
# Elastic Compliance Matrix: (Units=1/GPa)
#
#
# Indices 1 2 3 4 5 6 
#
# 1 0.009929 -0.003692 0.006013 0.000000 0.000000 0.000000
# 2 -0.003692 0.012410 -0.008816 0.000000 0.000000 0.000000
# 3 0.006013 -0.008816 0.043100 0.000000 0.000000 0.000000
# 4 0.000000 0.000000 0.000000 0.583118 0.000000 0.000000
# 5 0.000000 0.000000 0.000000 0.000000 0.038811 0.000000
# 6 0.000000 0.000000 0.000000 0.000000 0.000000 0.051224
#
#
# Mechanical properties :
#
#
# Convention : Reuss Voigt Hill
#
# Bulk Modulus (GPa) = 19.06648 34.73277 26.89962
# Shear Modulus (GPa) = 6.50140 23.59467 15.04804
#
# Velocity S-wave (km/s) = 1.76850 3.36906 2.69056
# Velocity P-wave (km/s) = 3.65272 5.64295 4.75317
#
# Compressibility (1/GPa) = 0.05244807
#
# Stress axis : x y z
#
# Youngs Moduli (GPa) = 100.71238 80.58269 23.20191
#
# Poissons Ratio (x) = 0.29753 -0.13951
# Poissons Ratio (y) = 0.37186 0.20454
# Poissons Ratio (z) = -0.60556 0.71040
#
# Static dielectric constant tensor:
#      x y z
#    x 1.790780 0.000000 0.000000 
#    y 0.000000 1.718440 0.000000 
#    z 0.000000 0.000000 1.760630 
# 
# From -- ./inp_files/19471.got.cif
#   From: 2010.05.17/outbox.cif.g08.bks.cpg/sg70_10_cif.got.tgz:19471.got - 2010.06.03 15:57:51.
