data_PCOD9514341
_publ_section_title
;
Structure prediction by ZEFSAII (Michael W. Deem and Ramdas Pophale) SiO2 
 PCOD9514341
Probable space group: F D D D
;
_chemical_formula_sum "Si O2"
_cell_formula_units_Z 176
_cell_length_a 23.800021
_cell_length_b 12.917312
_cell_length_c 29.996653
_cell_angle_alpha 90.000000
_cell_angle_beta 90.000000
_cell_angle_gamma 90.000000
_cell_volume 9221.939930
_symmetry_space_group_name_H-M "F D D D"
_symmetry_group_IT_number 70
_space_group.IT_coordinate_system_code '2'
_symmetry_cell_setting 'orthorhombic'
loop_
_space_group_symop_operation_xyz
x,y,z
1/4-x,1/4-y,z
x,1/4-y,1/4-z
1/4-x,y,1/4-z
-x,-y,-z
3/4+x,3/4+y,-z
-x,3/4+y,3/4+z
3/4+x,-y,3/4+z
x,1/2+y,1/2+z
1/4-x,3/4-y,1/2+z
x,3/4-y,3/4-z
1/4-x,1/2+y,3/4-z
-x,1/2-y,1/2-z
3/4+x,1/4+y,1/2-z
-x,1/4+y,1/4+z
3/4+x,1/2-y,1/4+z
1/2+x,y,1/2+z
3/4-x,1/4-y,1/2+z
1/2+x,1/4-y,3/4-z
3/4-x,y,3/4-z
1/2-x,-y,1/2-z
1/4+x,3/4+y,1/2-z
1/2-x,3/4+y,1/4+z
1/4+x,-y,1/4+z
1/2+x,1/2+y,z
3/4-x,3/4-y,z
1/2+x,3/4-y,1/4-z
3/4-x,1/2+y,1/4-z
1/2-x,1/2-y,-z
1/4+x,1/4+y,-z
1/2-x,1/4+y,3/4+z
1/4+x,1/2-y,3/4+z
loop_
_atom_site_type_symbol
_atom_site_label
_atom_site_fract_x
_atom_site_fract_y
_atom_site_fract_z
Si Si1 0.767678 0.971058 0.435746
Si Si2 0.788220 0.020110 0.333697
Si Si3 0.618673 0.832465 0.522852
Si Si4 0.132167 0.875000 0.875000
Si Si5 0.827713 0.791261 0.557903
Si Si6 0.614524 0.003248 0.794448
O O1 0.785100 0.850038 0.432560
O O2 0.779350 0.017736 0.386624
O O3 0.808526 0.030070 0.469775
O O4 0.702405 0.984018 0.448442
O O5 0.845826 0.071320 0.317971
O O6 0.736154 0.077805 0.309477
O O7 0.654304 0.764633 0.487302
O O8 0.616808 0.945227 0.500595
O O9 0.168154 0.792670 0.902646
O O10 0.104483 0.806441 0.835849
O O11 0.875000 0.875000 0.567382
O O12 0.625000 0.125000 0.795148
#
# Coordination Sequence:
#
# PCOD9514341 Si02
#       6
#    32  32  32  16  32  32
#     4  11  21  39  61  87 122 159 198 254 308 363
#     4  11  20  38  60  90 123 154 196 257 315 357
#     4  11  24  35  59  90 121 155 199 240 314 373
#     4  10  18  38  56  87 114 157 198 244 304 352
#     4  11  20  32  58  89 118 150 194 250 307 357
#     4  11  23  41  61  84 126 160 200 254 296 353
#
# _framework density 19.084923
#
# number of rings (size 3 to 8) (size 9 to 14) (size 15 to 20)
#    0.000    1.091    5.455    3.273    2.545    2.182 
#    0.000    0.000    0.000    2.182    0.000    0.000 
#    0.000    0.000    0.000    0.000    0.000    0.000 
#
# Total GULP energy -245536.094290 kJ/mol
# GULP energy per Si atom -5580.365779 kJ/mol
# Density = 1.904148 g / cm^3
# Si number density = 19.084923 Si / 1000 Ang^3
#
#
#
# Elastic Constant Matrix: (Units=GPa)
#
#
# Indices 1 2 3 4 5 6 
#
# 1 64.7343 25.4789 17.1927 0.0000 0.0000 0.0000
# 2 25.4789 91.9620 21.9554 0.0000 0.0000 0.0000
# 3 17.1927 21.9554 73.0947 0.0000 0.0000 0.0000
# 4 0.0000 0.0000 0.0000 22.3814 0.0000 0.0000
# 5 0.0000 0.0000 0.0000 0.0000 18.9402 0.0000
# 6 0.0000 0.0000 0.0000 0.0000 0.0000 20.1043
#
#
#
# Elastic Compliance Matrix: (Units=1/GPa)
#
#
# Indices 1 2 3 4 5 6 
#
# 1 0.017903 -0.004260 -0.002931 0.000000 0.000000 0.000000
# 2 -0.004260 0.012728 -0.002821 0.000000 0.000000 0.000000
# 3 -0.002931 -0.002821 0.015218 0.000000 0.000000 0.000000
# 4 0.000000 0.000000 0.000000 0.044680 0.000000 0.000000
# 5 0.000000 0.000000 0.000000 0.000000 0.052798 0.000000
# 6 0.000000 0.000000 0.000000 0.000000 0.000000 0.049741
#
#
# Mechanical properties :
#
#
# Convention : Reuss Voigt Hill
#
# Bulk Modulus (GPa) = 38.72463 39.89389 39.30926
# Shear Modulus (GPa) = 22.55298 23.29612 22.92455
#
# Velocity S-wave (km/s) = 3.44134 3.49758 3.46957
# Velocity P-wave (km/s) = 6.01042 6.10405 6.05742
#
# Compressibility (1/GPa) = 0.02582336
#
# Stress axis : x y z
#
# Youngs Moduli (GPa) = 55.85616 78.56737 65.71294
#
# Poissons Ratio (x) = 0.33473 0.19263
# Poissons Ratio (y) = 0.23797 0.18538
# Poissons Ratio (z) = 0.16373 0.22164
#
# Static dielectric constant tensor:
#      x y z
#    x 1.684550 0.000000 0.000000 
#    y 0.000000 1.669750 0.000000 
#    z 0.000000 0.000000 1.723840 
# 
# From -- ./inp_files/50425.got.cif
#   From: 2010.05.17/outbox.cif.g08.bks.cpg/sg70_26_cif.got.tgz:50425.got - 2010.06.03 15:57:51.
