data_PCOD9514912
_publ_section_title
;
Structure prediction by ZEFSAII (Michael W. Deem and Ramdas Pophale) SiO2 
 PCOD9514912
Probable space group: F D D D
;
_chemical_formula_sum "Si O2"
_cell_formula_units_Z 208
_cell_length_a 19.433053
_cell_length_b 17.510881
_cell_length_c 31.579728
_cell_angle_alpha 90.000000
_cell_angle_beta 90.000000
_cell_angle_gamma 90.000000
_cell_volume 10746.261806
_symmetry_space_group_name_H-M "F D D D"
_symmetry_group_IT_number 70
_space_group.IT_coordinate_system_code '2'
_symmetry_cell_setting 'orthorhombic'
loop_
_space_group_symop_operation_xyz
x,y,z
1/4-x,1/4-y,z
x,1/4-y,1/4-z
1/4-x,y,1/4-z
-x,-y,-z
3/4+x,3/4+y,-z
-x,3/4+y,3/4+z
3/4+x,-y,3/4+z
x,1/2+y,1/2+z
1/4-x,3/4-y,1/2+z
x,3/4-y,3/4-z
1/4-x,1/2+y,3/4-z
-x,1/2-y,1/2-z
3/4+x,1/4+y,1/2-z
-x,1/4+y,1/4+z
3/4+x,1/2-y,1/4+z
1/2+x,y,1/2+z
3/4-x,1/4-y,1/2+z
1/2+x,1/4-y,3/4-z
3/4-x,y,3/4-z
1/2-x,-y,1/2-z
1/4+x,3/4+y,1/2-z
1/2-x,3/4+y,1/4+z
1/4+x,-y,1/4+z
1/2+x,1/2+y,z
3/4-x,3/4-y,z
1/2+x,3/4-y,1/4-z
3/4-x,1/2+y,1/4-z
1/2-x,1/2-y,-z
1/4+x,1/4+y,-z
1/2-x,1/4+y,3/4+z
1/4+x,1/2-y,3/4+z
loop_
_atom_site_type_symbol
_atom_site_label
_atom_site_fract_x
_atom_site_fract_y
_atom_site_fract_z
Si Si1 0.391336 0.268801 0.180482
Si Si2 0.260013 0.875000 0.375000
Si Si3 0.106291 0.357604 0.970965
Si Si4 0.839011 0.498444 0.418113
Si Si5 0.830269 0.262555 0.588638
Si Si6 0.036541 0.444258 0.531961
Si Si7 0.514122 0.643988 0.461791
O O1 0.393797 0.178617 0.188740
O O2 0.369672 0.286444 0.131715
O O3 0.460678 0.312254 0.194499
O O4 0.332902 0.304398 0.211483
O O5 0.304900 0.833266 0.339266
O O6 0.216468 0.808448 0.395920
O O7 0.119803 0.277914 0.945954
O O8 0.170675 0.367641 0.004277
O O9 0.034500 0.358685 0.996941
O O10 0.875000 0.520159 0.375000
O O11 0.900399 0.505483 0.450509
O O12 0.782521 0.560825 0.428473
O O13 0.774307 0.320225 0.566721
O O14 0.000000 0.500000 0.500000
#
# Coordination Sequence:
#
# PCOD9514912 Si02
#       7
#    32  16  32  32  32  32  32
#     4  11  20  38  60  80 107 154 199 240 284 344
#     4  12  19  30  60  88 112 143 200 218 290 357
#     4  10  20  37  57  82 115 151 188 241 289 340
#     4  11  19  32  53  82 113 150 184 236 281 355
#     4  11  19  35  58  86 116 149 194 240 282 359
#     4   9  20  32  50  81 122 147 181 232 288 340
#     4  10  22  36  55  81 112 145 198 237 290 337
#
# _framework density 19.355568999999999
#
# number of rings (size 3 to 8) (size 9 to 14) (size 15 to 20)
#    0.000    1.538    4.615    0.692    0.000    0.000 
#    0.000    6.154    0.000   12.923    0.000    4.308 
#    0.000    0.000    0.000    0.000    0.000    0.000 
#
# Total GULP energy -289553.412672 kJ/mol
# GULP energy per Si atom -5568.334859 kJ/mol
# Density = 1.931151 g / cm^3
# Si number density = 19.355569 Si / 1000 Ang^3
#
#
#
# Elastic Constant Matrix: (Units=GPa)
#
#
# Indices 1 2 3 4 5 6 
#
# 1 98.8413 25.7168 38.8410 0.0000 0.0000 0.0000
# 2 25.7168 58.5742 18.3672 0.0000 0.0000 0.0000
# 3 38.8410 18.3672 82.8136 0.0000 0.0000 0.0000
# 4 0.0000 0.0000 0.0000 12.4538 0.0000 0.0000
# 5 0.0000 0.0000 0.0000 0.0000 39.1546 0.0000
# 6 0.0000 0.0000 0.0000 0.0000 0.0000 -286.4022
#
#
#
# Elastic Compliance Matrix: (Units=1/GPa)
#
#
# Indices 1 2 3 4 5 6 
#
# 1 0.013288 -0.004170 -0.005307 0.000000 0.000000 0.000000
# 2 -0.004170 0.019657 -0.002404 0.000000 0.000000 0.000000
# 3 -0.005307 -0.002404 0.015098 0.000000 0.000000 0.000000
# 4 0.000000 0.000000 0.000000 0.080297 0.000000 0.000000
# 5 0.000000 0.000000 0.000000 0.000000 0.025540 0.000000
# 6 0.000000 0.000000 0.000000 0.000000 0.000000 -0.003492
#
#
# Mechanical properties :
#
#
# Convention : Reuss Voigt Hill
#
# Bulk Modulus (GPa) = 41.18592 45.11992 43.15292
# Shear Modulus (GPa) = 27.43594 -36.47182 -4.51794
#
# Velocity S-wave (km/s) = 3.76901 -4.34557 -1.52946
# Velocity P-wave (km/s) = 6.34550 1.34794 4.38454
#
# Compressibility (1/GPa) = 0.02428014
#
# Stress axis : x y z
#
# Youngs Moduli (GPa) = 75.25756 50.87276 66.23505
#
# Poissons Ratio (x) = 0.21212 0.35153
# Poissons Ratio (y) = 0.31380 0.15923
# Poissons Ratio (z) = 0.39942 0.12230
#
# Static dielectric constant tensor:
#      x y z
#    x 1.704420 0.000000 0.000000 
#    y 0.000000 1.700730 0.000000 
#    z 0.000000 0.000000 1.691620 
# 
# From -- ./inp_files/67363.got.cif
#   From: 2010.05.17/outbox.cif.g08.bks.cpg/sg70_34_cif.got.tgz:67363.got - 2010.06.03 15:57:51.
