data_PCOD9514213
_publ_section_title
;
Structure prediction by ZEFSAII (Michael W. Deem and Ramdas Pophale) SiO2 
 PCOD9514213
Probable space group: F D D D
;
_chemical_formula_sum "Si O2"
_cell_formula_units_Z 176
_cell_length_a 11.426242
_cell_length_b 34.283160
_cell_length_c 23.776256
_cell_angle_alpha 90.000000
_cell_angle_beta 90.000000
_cell_angle_gamma 90.000000
_cell_volume 9313.817666
_symmetry_space_group_name_H-M "F D D D"
_symmetry_group_IT_number 70
_space_group.IT_coordinate_system_code '2'
_symmetry_cell_setting 'orthorhombic'
loop_
_space_group_symop_operation_xyz
x,y,z
1/4-x,1/4-y,z
x,1/4-y,1/4-z
1/4-x,y,1/4-z
-x,-y,-z
3/4+x,3/4+y,-z
-x,3/4+y,3/4+z
3/4+x,-y,3/4+z
x,1/2+y,1/2+z
1/4-x,3/4-y,1/2+z
x,3/4-y,3/4-z
1/4-x,1/2+y,3/4-z
-x,1/2-y,1/2-z
3/4+x,1/4+y,1/2-z
-x,1/4+y,1/4+z
3/4+x,1/2-y,1/4+z
1/2+x,y,1/2+z
3/4-x,1/4-y,1/2+z
1/2+x,1/4-y,3/4-z
3/4-x,y,3/4-z
1/2-x,-y,1/2-z
1/4+x,3/4+y,1/2-z
1/2-x,3/4+y,1/4+z
1/4+x,-y,1/4+z
1/2+x,1/2+y,z
3/4-x,3/4-y,z
1/2+x,3/4-y,1/4-z
3/4-x,1/2+y,1/4-z
1/2-x,1/2-y,-z
1/4+x,1/4+y,-z
1/2-x,1/4+y,3/4+z
1/4+x,1/2-y,3/4+z
loop_
_atom_site_type_symbol
_atom_site_label
_atom_site_fract_x
_atom_site_fract_y
_atom_site_fract_z
Si Si1 0.948492 0.181896 0.931762
Si Si2 0.437081 0.113043 0.279602
Si Si3 0.875000 0.875000 0.626172
Si Si4 0.500632 0.162354 0.092748
Si Si5 0.071645 0.461275 0.563807
Si Si6 0.581057 0.493149 0.298339
O O1 0.875000 0.183782 0.875000
O O2 0.870037 0.155837 0.973420
O O3 0.065101 0.158064 0.914143
O O4 0.978407 0.225409 0.949072
O O5 0.524423 0.110268 0.332868
O O6 0.503058 0.101203 0.222625
O O7 0.329916 0.083659 0.293499
O O8 0.443351 0.125000 0.125000
O O9 0.625000 0.167408 0.125000
O O10 0.439582 0.204796 0.086834
O O11 0.125000 0.464215 0.625000
O O12 0.152273 0.480789 0.516171
O O13 0.949103 0.483615 0.563703
#
# Coordination Sequence:
#
# PCOD9514213 Si02
#       6
#    32  32  16  32  32  32
#     4  10  19  31  52  81 109 133 173 227 272 319
#     4  10  20  34  55  82 108 143 184 223 277 332
#     4  10  18  32  55  80 109 142 176 222 278 332
#     4  10  21  38  57  76 109 150 187 225 276 338
#     4  10  20  36  55  77 109 146 181 224 279 329
#     4  10  21  35  55  82 108 142 186 228 275 333
#
# _framework density 18.896654000000002
#
# number of rings (size 3 to 8) (size 9 to 14) (size 15 to 20)
#    0.000    2.000    0.000    5.455    0.000    1.455 
#    0.000    0.000    0.000   18.000    0.000    0.000 
#    0.000    0.000    0.000    0.000    0.000    0.000 
#
# Total GULP energy -245105.298684 kJ/mol
# GULP energy per Si atom -5570.574970 kJ/mol
# Density = 1.885364 g / cm^3
# Si number density = 18.896654 Si / 1000 Ang^3
#
#
#
# Elastic Constant Matrix: (Units=GPa)
#
#
# Indices 1 2 3 4 5 6 
#
# 1 66.6900 50.2388 25.6035 0.0000 0.0000 0.0000
# 2 50.2388 133.9965 24.3380 0.0000 0.0000 0.0000
# 3 25.6035 24.3380 77.2056 0.0000 0.0000 0.0000
# 4 0.0000 0.0000 0.0000 -150.7377 0.0000 0.0000
# 5 0.0000 0.0000 0.0000 0.0000 15.9248 0.0000
# 6 0.0000 0.0000 0.0000 0.0000 0.0000 23.2091
#
#
#
# Elastic Compliance Matrix: (Units=1/GPa)
#
#
# Indices 1 2 3 4 5 6 
#
# 1 0.022664 -0.007565 -0.005131 0.000000 0.000000 0.000000
# 2 -0.007565 0.010441 -0.000783 0.000000 0.000000 0.000000
# 3 -0.005131 -0.000783 0.014901 0.000000 0.000000 0.000000
# 4 0.000000 0.000000 0.000000 -0.006634 0.000000 0.000000
# 5 0.000000 0.000000 0.000000 0.000000 0.062795 0.000000
# 6 0.000000 0.000000 0.000000 0.000000 0.000000 0.043087
#
#
# Mechanical properties :
#
#
# Convention : Reuss Voigt Hill
#
# Bulk Modulus (GPa) = 47.51063 53.13919 50.32491
# Shear Modulus (GPa) = 27.58960 -10.47333 8.55814
#
# Velocity S-wave (km/s) = 3.82517 -2.35679 2.13043
# Velocity P-wave (km/s) = 6.68627 4.55808 5.72199
#
# Compressibility (1/GPa) = 0.02104792
#
# Stress axis : x y z
#
# Youngs Moduli (GPa) = 44.12339 95.77204 67.11067
#
# Poissons Ratio (x) = 0.72454 0.34435
# Poissons Ratio (y) = 0.33380 0.05253
# Poissons Ratio (z) = 0.22640 0.07496
#
# Static dielectric constant tensor:
#      x y z
#    x 1.698490 0.000000 0.000000 
#    y 0.000000 1.723790 0.000000 
#    z 0.000000 0.000000 1.627980 
# 
# From -- ./inp_files/50421.got.cif
#   From: 2010.05.17/outbox.cif.g08.bks.cpg/sg70_26_cif.got.tgz:50421.got - 2010.06.03 15:57:51.
