data_PCOD9514492
_publ_section_title
;
Structure prediction by ZEFSAII (Michael W. Deem and Ramdas Pophale) SiO2 
 PCOD9514492
Probable space group: F D D D
;
_chemical_formula_sum "Si O2"
_cell_formula_units_Z 160
_cell_length_a 12.735118
_cell_length_b 33.294639
_cell_length_c 15.689729
_cell_angle_alpha 90.000000
_cell_angle_beta 90.000000
_cell_angle_gamma 90.000000
_cell_volume 6652.620137
_symmetry_space_group_name_H-M "F D D D"
_symmetry_group_IT_number 70
_space_group.IT_coordinate_system_code '2'
_symmetry_cell_setting 'orthorhombic'
loop_
_space_group_symop_operation_xyz
x,y,z
1/4-x,1/4-y,z
x,1/4-y,1/4-z
1/4-x,y,1/4-z
-x,-y,-z
3/4+x,3/4+y,-z
-x,3/4+y,3/4+z
3/4+x,-y,3/4+z
x,1/2+y,1/2+z
1/4-x,3/4-y,1/2+z
x,3/4-y,3/4-z
1/4-x,1/2+y,3/4-z
-x,1/2-y,1/2-z
3/4+x,1/4+y,1/2-z
-x,1/4+y,1/4+z
3/4+x,1/2-y,1/4+z
1/2+x,y,1/2+z
3/4-x,1/4-y,1/2+z
1/2+x,1/4-y,3/4-z
3/4-x,y,3/4-z
1/2-x,-y,1/2-z
1/4+x,3/4+y,1/2-z
1/2-x,3/4+y,1/4+z
1/4+x,-y,1/4+z
1/2+x,1/2+y,z
3/4-x,3/4-y,z
1/2+x,3/4-y,1/4-z
3/4-x,1/2+y,1/4-z
1/2-x,1/2-y,-z
1/4+x,1/4+y,-z
1/2-x,1/4+y,3/4+z
1/4+x,1/2-y,3/4+z
loop_
_atom_site_type_symbol
_atom_site_label
_atom_site_fract_x
_atom_site_fract_y
_atom_site_fract_z
Si Si1 0.625000 0.625000 0.254323
Si Si2 0.657656 0.703916 0.913605
Si Si3 0.038433 0.589641 0.976341
Si Si4 0.660944 0.906966 0.945852
Si Si5 0.506491 0.757276 0.473172
Si Si6 0.125000 0.711278 0.125000
O O1 0.687799 0.590047 0.303624
O O2 0.533242 0.602851 0.206609
O O3 0.563419 0.691885 0.848101
O O4 0.741074 0.726338 0.855091
O O5 0.606470 0.728843 0.990833
O O6 0.125000 0.625000 0.972843
O O7 0.052640 0.567486 0.067201
O O8 0.917668 0.602104 0.976343
O O9 0.624367 0.875000 0.875000
O O10 0.672211 0.955330 0.940131
O O11 0.562388 0.737092 0.555301
#
# Coordination Sequence:
#
# PCOD9514492 Si02
#       6
#    16  32  32  32  32  16
#     4  10  23  44  64  89 130 176 220 264 322 391
#     4  10  21  41  64  98 129 175 218 277 335 402
#     4  11  21  36  63  98 135 162 211 268 340 398
#     4  11  23  40  64  92 125 172 220 265 325 398
#     4  10  21  37  64  92 132 170 220 273 343 399
#     4  10  19  34  60  98 132 164 200 278 346 405
#
# _framework density 24.050673
#
# number of rings (size 3 to 8) (size 9 to 14) (size 15 to 20)
#    0.000    1.600    1.000    4.200    0.000    7.200 
#    0.000    1.000    0.000   14.400    0.000    0.000 
#    0.000    0.000    0.000    0.000    0.000    0.000 
#
# Total GULP energy -223174.842478 kJ/mol
# GULP energy per Si atom -5579.371062 kJ/mol
# Density = 2.399593 g / cm^3
# Si number density = 24.050673 Si / 1000 Ang^3
#
#
#
# Elastic Constant Matrix: (Units=GPa)
#
#
# Indices 1 2 3 4 5 6 
#
# 1 56.9281 4.6086 -6.2087 0.0000 0.0000 0.0000
# 2 4.6086 118.9845 41.4733 0.0000 0.0000 0.0000
# 3 -6.2087 41.4733 58.2446 0.0000 0.0000 0.0000
# 4 0.0000 0.0000 0.0000 83.0944 0.0000 0.0000
# 5 0.0000 0.0000 0.0000 0.0000 14.5120 0.0000
# 6 0.0000 0.0000 0.0000 0.0000 0.0000 25.8127
#
#
#
# Elastic Compliance Matrix: (Units=1/GPa)
#
#
# Indices 1 2 3 4 5 6 
#
# 1 0.018065 -0.001824 0.003224 0.000000 0.000000 0.000000
# 2 -0.001824 0.011363 -0.008285 0.000000 0.000000 0.000000
# 3 0.003224 -0.008285 0.023412 0.000000 0.000000 0.000000
# 4 0.000000 0.000000 0.000000 0.012035 0.000000 0.000000
# 5 0.000000 0.000000 0.000000 0.000000 0.068908 0.000000
# 6 0.000000 0.000000 0.000000 0.000000 0.000000 0.038741
#
#
# Mechanical properties :
#
#
# Convention : Reuss Voigt Hill
#
# Bulk Modulus (GPa) = 25.59445 34.87816 30.23630
# Shear Modulus (GPa) = 25.08560 37.63611 31.36085
#
# Velocity S-wave (km/s) = 3.23310 3.96013 3.61494
# Velocity P-wave (km/s) = 4.96007 5.95345 5.47932
#
# Compressibility (1/GPa) = 0.03907098
#
# Stress axis : x y z
#
# Youngs Moduli (GPa) = 55.35484 88.00431 42.71246
#
# Poissons Ratio (x) = 0.16048 -0.13771
# Poissons Ratio (y) = 0.10094 0.35389
# Poissons Ratio (z) = -0.17847 0.72916
#
# Static dielectric constant tensor:
#      x y z
#    x 1.959240 0.000000 0.000000 
#    y 0.000000 1.982000 0.000000 
#    z 0.000000 0.000000 1.972190 
# 
# From -- ./inp_files/33999.got.cif
#   From: 2010.05.17/outbox.cif.g08.bks.cpg/sg70_17_cif.got.tgz:33999.got - 2010.06.03 15:57:51.
