data_PCOD9514900
_publ_section_title
;
Structure prediction by ZEFSAII (Michael W. Deem and Ramdas Pophale) SiO2 
 PCOD9514900
Probable space group: F D D D
;
_chemical_formula_sum "Si O2"
_cell_formula_units_Z 120
_cell_length_a 30.000918
_cell_length_b 10.405605
_cell_length_c 17.027650
_cell_angle_alpha 90.000000
_cell_angle_beta 90.000000
_cell_angle_gamma 90.000000
_cell_volume 5315.652653
_symmetry_space_group_name_H-M "F D D D"
_symmetry_group_IT_number 70
_space_group.IT_coordinate_system_code '2'
_symmetry_cell_setting 'orthorhombic'
loop_
_space_group_symop_operation_xyz
x,y,z
1/4-x,1/4-y,z
x,1/4-y,1/4-z
1/4-x,y,1/4-z
-x,-y,-z
3/4+x,3/4+y,-z
-x,3/4+y,3/4+z
3/4+x,-y,3/4+z
x,1/2+y,1/2+z
1/4-x,3/4-y,1/2+z
x,3/4-y,3/4-z
1/4-x,1/2+y,3/4-z
-x,1/2-y,1/2-z
3/4+x,1/4+y,1/2-z
-x,1/4+y,1/4+z
3/4+x,1/2-y,1/4+z
1/2+x,y,1/2+z
3/4-x,1/4-y,1/2+z
1/2+x,1/4-y,3/4-z
3/4-x,y,3/4-z
1/2-x,-y,1/2-z
1/4+x,3/4+y,1/2-z
1/2-x,3/4+y,1/4+z
1/4+x,-y,1/4+z
1/2+x,1/2+y,z
3/4-x,3/4-y,z
1/2+x,3/4-y,1/4-z
3/4-x,1/2+y,1/4-z
1/2-x,1/2-y,-z
1/4+x,1/4+y,-z
1/2-x,1/4+y,3/4+z
1/4+x,1/2-y,3/4+z
loop_
_atom_site_type_symbol
_atom_site_label
_atom_site_fract_x
_atom_site_fract_y
_atom_site_fract_z
Si Si1 0.520590 0.875000 0.875000
Si Si2 0.375000 0.375000 0.375000
Si Si3 0.428488 0.865985 0.633797
Si Si4 0.926954 0.423537 0.457659
Si Si5 0.946936 0.224375 0.973690
O O1 0.552403 0.769288 0.834002
O O2 0.488097 0.955881 0.818916
O O3 0.345252 0.288782 0.318684
O O4 0.375000 0.875000 0.637626
O O5 0.441827 0.872428 0.542451
O O6 0.447244 0.981292 0.686039
O O7 0.946620 0.375000 0.375000
O O8 0.875000 0.375000 0.455475
O O9 0.061301 0.426086 0.537656
#
# Coordination Sequence:
#
# PCOD9514900 Si02
#       5
#    16   8  32  32  32
#     4  11  28  45  70 112 150 186 244 321 372 439
#     4  10  20  36  70 100 138 188 232 290 368 446
#     4  11  25  43  77 105 145 196 253 301 372 451
#     4  10  23  41  69 106 147 194 245 301 364 443
#     4  11  23  44  71 107 148 191 244 303 375 442
#
# _framework density 22.574836999999999
#
# number of rings (size 3 to 8) (size 9 to 14) (size 15 to 20)
#    0.000    1.333    1.333    3.200    7.467    7.467 
#    0.000    0.000    0.000    0.000    0.000    0.000 
#    0.000    0.000    0.000    0.000    0.000    0.000 
#
# Total GULP energy -167508.858908 kJ/mol
# GULP energy per Si atom -5583.628630 kJ/mol
# Density = 2.252346 g / cm^3
# Si number density = 22.574837 Si / 1000 Ang^3
#
#
#
# Elastic Constant Matrix: (Units=GPa)
#
#
# Indices 1 2 3 4 5 6 
#
# 1 120.5967 79.7822 46.4681 0.0000 0.0000 0.0000
# 2 79.7822 184.9413 49.4327 0.0000 0.0000 0.0000
# 3 46.4681 49.4327 142.3579 0.0000 0.0000 0.0000
# 4 0.0000 0.0000 0.0000 42.7550 0.0000 0.0000
# 5 0.0000 0.0000 0.0000 0.0000 -156.0084 0.0000
# 6 0.0000 0.0000 0.0000 0.0000 0.0000 47.1084
#
#
#
# Elastic Compliance Matrix: (Units=1/GPa)
#
#
# Indices 1 2 3 4 5 6 
#
# 1 0.012303 -0.004667 -0.002395 0.000000 0.000000 0.000000
# 2 -0.004667 0.007731 -0.001161 0.000000 0.000000 0.000000
# 3 -0.002395 -0.001161 0.008210 0.000000 0.000000 0.000000
# 4 0.000000 0.000000 0.000000 0.023389 0.000000 0.000000
# 5 0.000000 0.000000 0.000000 0.000000 -0.006410 0.000000
# 6 0.000000 0.000000 0.000000 0.000000 0.000000 0.021228
#
#
# Mechanical properties :
#
#
# Convention : Reuss Voigt Hill
#
# Bulk Modulus (GPa) = 84.77193 88.80687 86.78940
# Shear Modulus (GPa) = 57.58492 4.91850 31.25171
#
# Velocity S-wave (km/s) = 5.05607 1.47766 3.72474
# Velocity P-wave (km/s) = 8.46866 6.50658 7.55161
#
# Compressibility (1/GPa) = 0.01179636
#
# Stress axis : x y z
#
# Youngs Moduli (GPa) = 81.28411 129.35317 121.80940
#
# Poissons Ratio (x) = 0.60369 0.29175
# Poissons Ratio (y) = 0.37935 0.14143
# Poissons Ratio (z) = 0.19469 0.15019
#
# Static dielectric constant tensor:
#      x y z
#    x 1.736740 0.000000 0.000000 
#    y 0.000000 1.938860 0.000000 
#    z 0.000000 0.000000 1.848950 
# 
# From -- ./inp_files/26276.got.cif
#   From: 2010.05.17/outbox.cif.g08.bks.cpg/sg70_14_cif.got.tgz:26276.got - 2010.06.03 15:57:51.
