data_PCOD9514161
_publ_section_title
;
Structure prediction by ZEFSAII (Michael W. Deem and Ramdas Pophale) SiO2 
 PCOD9514161
Probable space group: F D D D
;
_chemical_formula_sum "Si O2"
_cell_formula_units_Z 96
_cell_length_a 10.896556
_cell_length_b 15.959312
_cell_length_c 26.805661
_cell_angle_alpha 90.000000
_cell_angle_beta 90.000000
_cell_angle_gamma 90.000000
_cell_volume 4661.545646
_symmetry_space_group_name_H-M "F D D D"
_symmetry_group_IT_number 70
_space_group.IT_coordinate_system_code '2'
_symmetry_cell_setting 'orthorhombic'
loop_
_space_group_symop_operation_xyz
x,y,z
1/4-x,1/4-y,z
x,1/4-y,1/4-z
1/4-x,y,1/4-z
-x,-y,-z
3/4+x,3/4+y,-z
-x,3/4+y,3/4+z
3/4+x,-y,3/4+z
x,1/2+y,1/2+z
1/4-x,3/4-y,1/2+z
x,3/4-y,3/4-z
1/4-x,1/2+y,3/4-z
-x,1/2-y,1/2-z
3/4+x,1/4+y,1/2-z
-x,1/4+y,1/4+z
3/4+x,1/2-y,1/4+z
1/2+x,y,1/2+z
3/4-x,1/4-y,1/2+z
1/2+x,1/4-y,3/4-z
3/4-x,y,3/4-z
1/2-x,-y,1/2-z
1/4+x,3/4+y,1/2-z
1/2-x,3/4+y,1/4+z
1/4+x,-y,1/4+z
1/2+x,1/2+y,z
3/4-x,3/4-y,z
1/2+x,3/4-y,1/4-z
3/4-x,1/2+y,1/4-z
1/2-x,1/2-y,-z
1/4+x,1/4+y,-z
1/2-x,1/4+y,3/4+z
1/4+x,1/2-y,3/4+z
loop_
_atom_site_type_symbol
_atom_site_label
_atom_site_fract_x
_atom_site_fract_y
_atom_site_fract_z
Si Si1 0.637942 0.718417 0.760685
Si Si2 0.756399 0.222600 0.639715
Si Si3 0.006976 0.718051 0.099137
O O1 0.625000 0.625000 0.781499
O O2 0.500000 0.750000 0.750000
O O3 0.709587 0.770986 0.802074
O O4 0.711983 0.712312 0.708938
O O5 0.749357 0.125000 0.625000
O O6 0.625000 0.260708 0.625000
O O7 0.875642 0.257722 0.610825
O O8 0.001581 0.625000 0.125000
O O9 0.125000 0.760350 0.125000
#
# Coordination Sequence:
#
# PCOD9514161 Si02
#       3
#    32  32  32
#     4  12  22  39  71  99 128 179 231 275 340 407
#     4  10  22  41  63  92 134 171 212 274 338 396
#     4  10  17  37  65  93 121 165 215 276 326 383
#
# _framework density 20.594025999999999
#
# number of rings (size 3 to 8) (size 9 to 14) (size 15 to 20)
#    0.000    1.333    6.667    2.000    0.000    1.333 
#    6.000    0.000    0.000    0.000    0.000    0.000 
#    0.000    0.000    0.000    0.000    0.000    0.000 
#
# Total GULP energy -133878.097266 kJ/mol
# GULP energy per Si atom -5578.254053 kJ/mol
# Density = 2.054715 g / cm^3
# Si number density = 20.594026 Si / 1000 Ang^3
#
#
#
# Elastic Constant Matrix: (Units=GPa)
#
#
# Indices 1 2 3 4 5 6 
#
# 1 231.7743 12.7916 66.0375 0.0000 0.0000 0.0000
# 2 12.7916 56.0971 31.1978 0.0000 0.0000 0.0000
# 3 66.0375 31.1978 188.3486 0.0000 0.0000 0.0000
# 4 0.0000 0.0000 0.0000 33.9398 0.0000 0.0000
# 5 0.0000 0.0000 0.0000 0.0000 46.6833 0.0000
# 6 0.0000 0.0000 0.0000 0.0000 0.0000 1.6508
#
#
#
# Elastic Compliance Matrix: (Units=1/GPa)
#
#
# Indices 1 2 3 4 5 6 
#
# 1 0.004795 -0.000174 -0.001652 0.000000 0.000000 0.000000
# 2 -0.000174 0.019641 -0.003192 0.000000 0.000000 0.000000
# 3 -0.001652 -0.003192 0.006417 0.000000 0.000000 0.000000
# 4 0.000000 0.000000 0.000000 0.029464 0.000000 0.000000
# 5 0.000000 0.000000 0.000000 0.000000 0.021421 0.000000
# 6 0.000000 0.000000 0.000000 0.000000 0.000000 0.605770
#
#
# Mechanical properties :
#
#
# Convention : Reuss Voigt Hill
#
# Bulk Modulus (GPa) = 48.04051 77.36375 62.70213
# Shear Modulus (GPa) = 7.09738 40.86766 23.98252
#
# Velocity S-wave (km/s) = 1.85844 4.45954 3.41623
# Velocity P-wave (km/s) = 5.28991 8.01026 6.78776
#
# Compressibility (1/GPa) = 0.02081577
#
# Stress axis : x y z
#
# Youngs Moduli (GPa) = 208.55327 50.91303 155.82732
#
# Poissons Ratio (x) = 0.00888 0.25747
# Poissons Ratio (y) = 0.03639 0.49743
# Poissons Ratio (z) = 0.34459 0.16252
#
# Static dielectric constant tensor:
#      x y z
#    x 1.932860 0.000000 0.000000 
#    y 0.000000 1.713600 0.000000 
#    z 0.000000 0.000000 1.741680 
# 
# From -- ./inp_files/15804.got.cif
#   From: 2010.05.17/outbox.cif.g08.bks.cpg/sg70_8_cif.got.tgz:15804.got - 2010.06.03 15:57:51.
