data_PCOD9514845
_publ_section_title
;
Structure prediction by ZEFSAII (Michael W. Deem and Ramdas Pophale) SiO2 
 PCOD9514845
Probable space group: F D D D
;
_chemical_formula_sum "Si O2"
_cell_formula_units_Z 240
_cell_length_a 23.730920
_cell_length_b 17.274528
_cell_length_c 27.038006
_cell_angle_alpha 90.000000
_cell_angle_beta 90.000000
_cell_angle_gamma 90.000000
_cell_volume 11083.972131
_symmetry_space_group_name_H-M "F D D D"
_symmetry_group_IT_number 70
_space_group.IT_coordinate_system_code '2'
_symmetry_cell_setting 'orthorhombic'
loop_
_space_group_symop_operation_xyz
x,y,z
1/4-x,1/4-y,z
x,1/4-y,1/4-z
1/4-x,y,1/4-z
-x,-y,-z
3/4+x,3/4+y,-z
-x,3/4+y,3/4+z
3/4+x,-y,3/4+z
x,1/2+y,1/2+z
1/4-x,3/4-y,1/2+z
x,3/4-y,3/4-z
1/4-x,1/2+y,3/4-z
-x,1/2-y,1/2-z
3/4+x,1/4+y,1/2-z
-x,1/4+y,1/4+z
3/4+x,1/2-y,1/4+z
1/2+x,y,1/2+z
3/4-x,1/4-y,1/2+z
1/2+x,1/4-y,3/4-z
3/4-x,y,3/4-z
1/2-x,-y,1/2-z
1/4+x,3/4+y,1/2-z
1/2-x,3/4+y,1/4+z
1/4+x,-y,1/4+z
1/2+x,1/2+y,z
3/4-x,3/4-y,z
1/2+x,3/4-y,1/4-z
3/4-x,1/2+y,1/4-z
1/2-x,1/2-y,-z
1/4+x,1/4+y,-z
1/2-x,1/4+y,3/4+z
1/4+x,1/2-y,3/4+z
loop_
_atom_site_type_symbol
_atom_site_label
_atom_site_fract_x
_atom_site_fract_y
_atom_site_fract_z
Si Si1 0.953790 0.052823 0.233712
Si Si2 0.192754 0.619501 0.991055
Si Si3 0.288050 0.091015 0.321021
Si Si4 0.295829 0.930561 0.629398
Si Si5 0.893573 0.542670 0.631122
Si Si6 0.013986 0.580157 0.579439
Si Si7 0.625000 0.319645 0.125000
Si Si8 0.953188 0.948605 0.410517
O O1 0.934934 0.109338 0.277014
O O2 0.910891 0.039076 0.188626
O O3 0.004442 0.103696 0.210886
O O4 0.965746 0.966781 0.251480
O O5 0.125000 0.625000 0.998021
O O6 0.203921 0.641143 0.933828
O O7 0.218146 0.672832 0.034092
O O8 0.226717 0.123479 0.336706
O O9 0.324496 0.120831 0.366634
O O10 0.290434 0.999988 0.312414
O O11 0.356011 0.969378 0.618594
O O12 0.252314 0.001905 0.634791
O O13 0.862336 0.625000 0.625000
O O14 0.951640 0.553257 0.600043
O O15 0.042336 0.625000 0.625000
O O16 0.649966 0.257331 0.086110
O O17 0.941453 0.875000 0.375000
#
# Coordination Sequence:
#
# PCOD9514845 Si02
#       8
#    32  32  32  32  32  32  16  32
#     4  10  20  36  58  87 113 156 200 243 304 370
#     4  12  21  34  59  85 122 163 202 245 302 374
#     4  11  22  38  61  85 118 157 206 255 305 368
#     4  11  22  35  58  93 123 157 205 251 309 369
#     4   9  19  37  60  87 122 158 198 249 315 362
#     4   9  20  38  64  84 114 154 205 254 304 364
#     4  10  23  38  55  86 118 160 202 244 307 370
#     4  11  22  38  57  87 126 163 203 249 309 371
#
# _framework density 21.652887
#
# number of rings (size 3 to 8) (size 9 to 14) (size 15 to 20)
#    0.000    1.867    1.333    6.200    0.000    0.000 
#    0.000    0.333   11.733    0.000    0.000    0.000 
#    0.000    0.000    0.000    0.000    0.000    0.000 
#
# Total GULP energy -334462.060433 kJ/mol
# GULP energy per Si atom -5574.367674 kJ/mol
# Density = 2.160360 g / cm^3
# Si number density = 21.652887 Si / 1000 Ang^3
#
#
#
# Elastic Constant Matrix: (Units=GPa)
#
#
# Indices 1 2 3 4 5 6 
#
# 1 30.4009 13.6793 -6.4600 0.0000 0.0000 0.0000
# 2 13.6793 141.9132 3.8295 0.0000 0.0000 0.0000
# 3 -6.4600 3.8295 25.4958 0.0000 0.0000 0.0000
# 4 0.0000 0.0000 0.0000 26.9277 0.0000 0.0000
# 5 0.0000 0.0000 0.0000 0.0000 11.0668 0.0000
# 6 0.0000 0.0000 0.0000 0.0000 0.0000 22.8579
#
#
#
# Elastic Compliance Matrix: (Units=1/GPa)
#
#
# Indices 1 2 3 4 5 6 
#
# 1 0.036703 -0.003804 0.009871 0.000000 0.000000 0.000000
# 2 -0.003804 0.007470 -0.002086 0.000000 0.000000 0.000000
# 3 0.009871 -0.002086 0.042037 0.000000 0.000000 0.000000
# 4 0.000000 0.000000 0.000000 0.037137 0.000000 0.000000
# 5 0.000000 0.000000 0.000000 0.000000 0.090360 0.000000
# 6 0.000000 0.000000 0.000000 0.000000 0.000000 0.043749
#
#
# Mechanical properties :
#
#
# Convention : Reuss Voigt Hill
#
# Bulk Modulus (GPa) = 10.61895 24.43416 17.52656
# Shear Modulus (GPa) = 17.80100 24.62121 21.21110
#
# Velocity S-wave (km/s) = 2.87035 3.37573 3.13325
# Velocity P-wave (km/s) = 3.98749 5.14811 4.60451
#
# Compressibility (1/GPa) = 0.09417127
#
# Stress axis : x y z
#
# Youngs Moduli (GPa) = 27.24562 133.87693 23.78879
#
# Poissons Ratio (x) = 0.50930 -0.23482
# Poissons Ratio (y) = 0.10365 0.04962
# Poissons Ratio (z) = -0.26894 0.27925
#
# Static dielectric constant tensor:
#      x y z
#    x 1.873220 0.000000 0.000000 
#    y 0.000000 1.813500 0.000000 
#    z 0.000000 0.000000 1.890520 
# 
# From -- ./inp_files/61870.got.cif
#   From: 2010.05.17/outbox.cif.g08.bks.cpg/sg70_31_cif.got.tgz:61870.got - 2010.06.03 15:57:51.
