data_PCOD9514780
_publ_section_title
;
Structure prediction by ZEFSAII (Michael W. Deem and Ramdas Pophale) SiO2 
 PCOD9514780
Probable space group: F D D D
;
_chemical_formula_sum "Si O2"
_cell_formula_units_Z 168
_cell_length_a 20.856177
_cell_length_b 13.093640
_cell_length_c 35.170928
_cell_angle_alpha 90.000000
_cell_angle_beta 90.000000
_cell_angle_gamma 90.000000
_cell_volume 9604.592147
_symmetry_space_group_name_H-M "F D D D"
_symmetry_group_IT_number 70
_space_group.IT_coordinate_system_code '2'
_symmetry_cell_setting 'orthorhombic'
loop_
_space_group_symop_operation_xyz
x,y,z
1/4-x,1/4-y,z
x,1/4-y,1/4-z
1/4-x,y,1/4-z
-x,-y,-z
3/4+x,3/4+y,-z
-x,3/4+y,3/4+z
3/4+x,-y,3/4+z
x,1/2+y,1/2+z
1/4-x,3/4-y,1/2+z
x,3/4-y,3/4-z
1/4-x,1/2+y,3/4-z
-x,1/2-y,1/2-z
3/4+x,1/4+y,1/2-z
-x,1/4+y,1/4+z
3/4+x,1/2-y,1/4+z
1/2+x,y,1/2+z
3/4-x,1/4-y,1/2+z
1/2+x,1/4-y,3/4-z
3/4-x,y,3/4-z
1/2-x,-y,1/2-z
1/4+x,3/4+y,1/2-z
1/2-x,3/4+y,1/4+z
1/4+x,-y,1/4+z
1/2+x,1/2+y,z
3/4-x,3/4-y,z
1/2+x,3/4-y,1/4-z
3/4-x,1/2+y,1/4-z
1/2-x,1/2-y,-z
1/4+x,1/4+y,-z
1/2-x,1/4+y,3/4+z
1/4+x,1/2-y,3/4+z
loop_
_atom_site_type_symbol
_atom_site_label
_atom_site_fract_x
_atom_site_fract_y
_atom_site_fract_z
Si Si1 0.028675 0.327017 0.696334
Si Si2 0.073301 0.958305 0.678558
Si Si3 0.771984 0.647273 0.717700
Si Si4 0.638043 0.463424 0.904554
Si Si5 0.625000 0.625000 0.625000
Si Si6 0.477269 0.845092 0.132698
O O1 0.104542 0.315504 0.689865
O O2 0.022251 0.378956 0.737379
O O3 0.000115 0.211775 0.699622
O O4 0.996316 0.389647 0.661570
O O5 0.040122 0.862830 0.658204
O O6 0.079974 0.050102 0.648398
O O7 0.028286 0.011151 0.709759
O O8 0.838284 0.678476 0.696412
O O9 0.653234 0.375000 0.875000
O O10 0.565252 0.499347 0.896183
O O11 0.682863 0.558331 0.893429
#
# Coordination Sequence:
#
# PCOD9514780 Si02
#       6
#    32  32  32  32   8  32
#     4  11  19  33  54  85 110 138 185 244 283 343
#     4  11  19  33  55  82 110 144 187 232 290 343
#     4  10  21  32  51  81 120 142 173 237 313 329
#     4  10  20  36  53  78 117 153 185 231 285 353
#     4  12  16  28  60  80 106 140 176 240 294 312
#     4  10  20  34  58  82 107 150 197 226 276 359
#
# _framework density 17.491631999999999
#
# number of rings (size 3 to 8) (size 9 to 14) (size 15 to 20)
#    0.000    1.524    5.714    0.000    2.667    1.524 
#    3.429    0.952    0.000    6.857    0.000    0.000 
#    0.000    0.000    0.000    0.000    0.000    0.000 
#
# Total GULP energy -233954.833436 kJ/mol
# GULP energy per Si atom -5570.353177 kJ/mol
# Density = 1.745182 g / cm^3
# Si number density = 17.491632 Si / 1000 Ang^3
#
#
#
# Elastic Constant Matrix: (Units=GPa)
#
#
# Indices 1 2 3 4 5 6 
#
# 1 95.1789 20.8634 56.4574 0.0000 0.0000 0.0000
# 2 20.8634 30.4226 28.3365 0.0000 0.0000 0.0000
# 3 56.4574 28.3365 119.2896 0.0000 0.0000 0.0000
# 4 0.0000 0.0000 0.0000 15.9665 0.0000 0.0000
# 5 0.0000 0.0000 0.0000 0.0000 29.7661 0.0000
# 6 0.0000 0.0000 0.0000 0.0000 0.0000 25.7241
#
#
#
# Elastic Compliance Matrix: (Units=1/GPa)
#
#
# Indices 1 2 3 4 5 6 
#
# 1 0.015125 -0.004758 -0.006028 0.000000 0.000000 0.000000
# 2 -0.004758 0.043706 -0.008130 0.000000 0.000000 0.000000
# 3 -0.006028 -0.008130 0.013167 0.000000 0.000000 0.000000
# 4 0.000000 0.000000 0.000000 0.062631 0.000000 0.000000
# 5 0.000000 0.000000 0.000000 0.000000 0.033595 0.000000
# 6 0.000000 0.000000 0.000000 0.000000 0.000000 0.038874
#
#
# Mechanical properties :
#
#
# Convention : Reuss Voigt Hill
#
# Bulk Modulus (GPa) = 29.26908 50.68953 39.97930
# Shear Modulus (GPa) = 19.50686 23.57362 21.54024
#
# Velocity S-wave (km/s) = 3.34310 3.67510 3.51302
# Velocity P-wave (km/s) = 5.62772 6.85935 6.27383
#
# Compressibility (1/GPa) = 0.03416575
#
# Stress axis : x y z
#
# Youngs Moduli (GPa) = 66.11461 22.88021 75.94550
#
# Poissons Ratio (x) = 0.10886 0.45782
# Poissons Ratio (y) = 0.31456 0.61746
# Poissons Ratio (z) = 0.39856 0.18602
#
# Static dielectric constant tensor:
#      x y z
#    x 1.665890 0.000000 0.000000 
#    y 0.000000 1.602740 0.000000 
#    z 0.000000 0.000000 1.622740 
# 
# From -- ./inp_files/27795.got.cif
#   From: 2010.05.17/outbox.cif.g08.bks.cpg/sg70_14_cif.got.tgz:27795.got - 2010.06.03 15:57:51.
