data_PCOD9514490
_publ_section_title
;
Structure prediction by ZEFSAII (Michael W. Deem and Ramdas Pophale) SiO2 
 PCOD9514490
Probable space group: F D D D
;
_chemical_formula_sum "Si O2"
_cell_formula_units_Z 176
_cell_length_a 12.596889
_cell_length_b 24.955838
_cell_length_c 21.778181
_cell_angle_alpha 90.000000
_cell_angle_beta 90.000000
_cell_angle_gamma 90.000000
_cell_volume 6846.317932
_symmetry_space_group_name_H-M "F D D D"
_symmetry_group_IT_number 70
_space_group.IT_coordinate_system_code '2'
_symmetry_cell_setting 'orthorhombic'
loop_
_space_group_symop_operation_xyz
x,y,z
1/4-x,1/4-y,z
x,1/4-y,1/4-z
1/4-x,y,1/4-z
-x,-y,-z
3/4+x,3/4+y,-z
-x,3/4+y,3/4+z
3/4+x,-y,3/4+z
x,1/2+y,1/2+z
1/4-x,3/4-y,1/2+z
x,3/4-y,3/4-z
1/4-x,1/2+y,3/4-z
-x,1/2-y,1/2-z
3/4+x,1/4+y,1/2-z
-x,1/4+y,1/4+z
3/4+x,1/2-y,1/4+z
1/2+x,y,1/2+z
3/4-x,1/4-y,1/2+z
1/2+x,1/4-y,3/4-z
3/4-x,y,3/4-z
1/2-x,-y,1/2-z
1/4+x,3/4+y,1/2-z
1/2-x,3/4+y,1/4+z
1/4+x,-y,1/4+z
1/2+x,1/2+y,z
3/4-x,3/4-y,z
1/2+x,3/4-y,1/4-z
3/4-x,1/2+y,1/4-z
1/2-x,1/2-y,-z
1/4+x,1/4+y,-z
1/2-x,1/4+y,3/4+z
1/4+x,1/2-y,3/4+z
loop_
_atom_site_type_symbol
_atom_site_label
_atom_site_fract_x
_atom_site_fract_y
_atom_site_fract_z
Si Si1 0.119070 0.010760 0.690113
Si Si2 0.764151 0.900169 0.959432
Si Si3 0.291257 0.583440 0.225543
Si Si4 0.230574 0.570911 0.816187
Si Si5 0.625000 0.125000 0.323437
Si Si6 0.332595 0.241185 0.763735
O O1 0.125000 0.981460 0.625000
O O2 0.202562 0.058800 0.681386
O O3 0.156883 0.968096 0.740494
O O4 0.007388 0.030713 0.717718
O O5 0.779312 0.962544 0.945151
O O6 0.875000 0.875000 0.936561
O O7 0.641476 0.886625 0.944779
O O8 0.765596 0.878356 0.030394
O O9 0.221738 0.609067 0.279639
O O10 0.175783 0.580333 0.881421
O O11 0.160074 0.527702 0.778822
O O12 0.348639 0.548257 0.805028
#
# Coordination Sequence:
#
# PCOD9514490 Si02
#       6
#    32  32  32  32  16  32
#     4  10  21  42  64  90 132 188 216 279 350 413
#     4   9  18  38  59  90 130 174 215 282 336 393
#     4  10  24  37  63 101 138 168 230 280 339 422
#     4  10  19  34  60  94 128 179 212 277 350 391
#     4  12  22  38  61 106 136 173 222 296 344 404
#     4   9  18  35  59  92 130 172 226 263 337 431
#
# _framework density 25.707249000000001
#
# number of rings (size 3 to 8) (size 9 to 14) (size 15 to 20)
#    0.000    2.182    2.727    1.091    5.091    0.000 
#    0.000    0.455    8.000    0.000    2.364    2.545 
#    0.000    0.000    0.000    0.000    0.000    0.000 
#
# Total GULP energy -245256.135892 kJ/mol
# GULP energy per Si atom -5574.003088 kJ/mol
# Density = 2.564874 g / cm^3
# Si number density = 25.707249 Si / 1000 Ang^3
#
#
#
# Elastic Constant Matrix: (Units=GPa)
#
#
# Indices 1 2 3 4 5 6 
#
# 1 221.8229 51.2037 40.1465 0.0000 0.0000 0.0000
# 2 51.2037 67.0606 17.3731 0.0000 0.0000 0.0000
# 3 40.1465 17.3731 80.5066 0.0000 0.0000 0.0000
# 4 0.0000 0.0000 0.0000 12.7233 0.0000 0.0000
# 5 0.0000 0.0000 0.0000 0.0000 -4.4063 0.0000
# 6 0.0000 0.0000 0.0000 0.0000 0.0000 43.3501
#
#
#
# Elastic Compliance Matrix: (Units=1/GPa)
#
#
# Indices 1 2 3 4 5 6 
#
# 1 0.005773 -0.003879 -0.002042 0.000000 0.000000 0.000000
# 2 -0.003879 0.018401 -0.002037 0.000000 0.000000 0.000000
# 3 -0.002042 -0.002037 0.013879 0.000000 0.000000 0.000000
# 4 0.000000 0.000000 0.000000 0.078596 0.000000 0.000000
# 5 0.000000 0.000000 0.000000 0.000000 -0.226949 0.000000
# 6 0.000000 0.000000 0.000000 0.000000 0.000000 0.023068
#
#
# Mechanical properties :
#
#
# Convention : Reuss Voigt Hill
#
# Bulk Modulus (GPa) = 45.17003 65.20409 55.18706
# Shear Modulus (GPa) = -78.20103 27.71121 -25.24491
#
# Velocity S-wave (km/s) = -5.52140 3.28678 -3.13711
# Velocity P-wave (km/s) = 4.79987 6.31055 2.89692
#
# Compressibility (1/GPa) = 0.02213858
#
# Stress axis : x y z
#
# Youngs Moduli (GPa) = 173.21930 54.34404 72.05125
#
# Poissons Ratio (x) = 0.21080 0.14711
# Poissons Ratio (y) = 0.67192 0.14674
# Poissons Ratio (z) = 0.35368 0.11068
#
# Static dielectric constant tensor:
#      x y z
#    x 2.230570 0.000000 0.000000 
#    y 0.000000 2.165210 0.000000 
#    z 0.000000 0.000000 2.049350 
# 
# From -- ./inp_files/50416.got.cif
#   From: 2010.05.17/outbox.cif.g08.bks.cpg/sg70_26_cif.got.tgz:50416.got - 2010.06.03 15:57:51.
