data_PCOD9514435
_publ_section_title
;
Structure prediction by ZEFSAII (Michael W. Deem and Ramdas Pophale) SiO2 
 PCOD9514435
Probable space group: F D D D
;
_chemical_formula_sum "Si O2"
_cell_formula_units_Z 144
_cell_length_a 28.439291
_cell_length_b 28.281603
_cell_length_c 9.131458
_cell_angle_alpha 90.000000
_cell_angle_beta 90.000000
_cell_angle_gamma 90.000000
_cell_volume 7344.511457
_symmetry_space_group_name_H-M "F D D D"
_symmetry_group_IT_number 70
_space_group.IT_coordinate_system_code '2'
_symmetry_cell_setting 'orthorhombic'
loop_
_space_group_symop_operation_xyz
x,y,z
1/4-x,1/4-y,z
x,1/4-y,1/4-z
1/4-x,y,1/4-z
-x,-y,-z
3/4+x,3/4+y,-z
-x,3/4+y,3/4+z
3/4+x,-y,3/4+z
x,1/2+y,1/2+z
1/4-x,3/4-y,1/2+z
x,3/4-y,3/4-z
1/4-x,1/2+y,3/4-z
-x,1/2-y,1/2-z
3/4+x,1/4+y,1/2-z
-x,1/4+y,1/4+z
3/4+x,1/2-y,1/4+z
1/2+x,y,1/2+z
3/4-x,1/4-y,1/2+z
1/2+x,1/4-y,3/4-z
3/4-x,y,3/4-z
1/2-x,-y,1/2-z
1/4+x,3/4+y,1/2-z
1/2-x,3/4+y,1/4+z
1/4+x,-y,1/4+z
1/2+x,1/2+y,z
3/4-x,3/4-y,z
1/2+x,3/4-y,1/4-z
3/4-x,1/2+y,1/4-z
1/2-x,1/2-y,-z
1/4+x,1/4+y,-z
1/2-x,1/4+y,3/4+z
1/4+x,1/2-y,3/4+z
loop_
_atom_site_type_symbol
_atom_site_label
_atom_site_fract_x
_atom_site_fract_y
_atom_site_fract_z
Si Si1 0.884103 0.074926 0.157891
Si Si2 0.948372 0.195947 0.832448
Si Si3 0.993878 0.875000 0.375000
Si Si4 0.826086 0.506078 0.312124
Si Si5 0.019831 0.031320 0.782629
O O1 0.861427 0.125000 0.125000
O O2 0.923756 0.080732 0.281097
O O3 0.844607 0.040921 0.224392
O O4 0.906363 0.053930 0.014372
O O5 0.980003 0.159503 0.742461
O O6 0.969373 0.242623 0.906607
O O7 0.970661 0.916021 0.275801
O O8 0.875000 0.484521 0.375000
O O9 0.801375 0.478106 0.177635
O O10 0.784445 0.520612 0.422620
#
# Coordination Sequence:
#
# PCOD9514435 Si02
#       5
#    32  32  16  32  32
#     4  10  19  32  58  94 118 145 194 253 325 370
#     4  10  21  34  56  91 125 149 195 257 307 369
#     4  12  20  36  60  81 120 164 200 240 303 370
#     4  10  21  39  62  85 125 159 197 254 318 366
#     4  10  23  39  60  92 120 163 205 253 308 373
#
# _framework density 19.606479
#
# number of rings (size 3 to 8) (size 9 to 14) (size 15 to 20)
#    0.000    1.778    1.111    3.333    3.111    0.000 
#    0.000    0.000    0.000   28.000    0.000    0.000 
#    0.000    0.000    0.000    0.000    0.000    0.000 
#
# Total GULP energy -200486.350263 kJ/mol
# GULP energy per Si atom -5569.065285 kJ/mol
# Density = 1.956185 g / cm^3
# Si number density = 19.606479 Si / 1000 Ang^3
#
#
#
# Elastic Constant Matrix: (Units=GPa)
#
#
# Indices 1 2 3 4 5 6 
#
# 1 97.0392 38.3425 51.2136 0.0016 -0.0006 -0.0009
# 2 38.3425 112.9330 47.3570 0.0040 -0.0013 -0.0020
# 3 51.2136 47.3570 86.6120 0.0070 -0.0031 -0.0036
# 4 0.0016 0.0040 0.0070 12.8328 -0.0037 -0.0032
# 5 -0.0006 -0.0013 -0.0031 -0.0037 29.2652 0.0016
# 6 -0.0009 -0.0020 -0.0036 -0.0032 0.0016 19.5921
#
#
#
# Elastic Compliance Matrix: (Units=1/GPa)
#
#
# Indices 1 2 3 4 5 6 
#
# 1 0.015261 -0.001813 -0.008032 0.000003 -0.000001 -0.000001
# 2 -0.001813 0.011704 -0.005328 -0.000001 0.000000 0.000000
# 3 -0.008032 -0.005328 0.019208 -0.000008 0.000002 0.000003
# 4 0.000003 -0.000001 -0.000008 0.077926 0.000010 0.000013
# 5 -0.000001 0.000000 0.000002 0.000010 0.034170 -0.000003
# 6 -0.000001 0.000000 0.000003 0.000013 -0.000003 0.051041
#
#
# Mechanical properties :
#
#
# Convention : Reuss Voigt Hill
#
# Bulk Modulus (GPa) = 63.18139 63.37892 63.28016
# Shear Modulus (GPa) = 20.41386 22.98276 21.69831
#
# Velocity S-wave (km/s) = 3.23023 3.42746 3.33031
# Velocity P-wave (km/s) = 6.79759 6.93246 6.86536
#
# Compressibility (1/GPa) = 0.01582745
#
# Stress axis : x y z
#
# Youngs Moduli (GPa) = 65.52826 85.43790 52.06098
#
# Poissons Ratio (x) = 0.15490 0.41817
# Poissons Ratio (y) = 0.11880 0.27736
# Poissons Ratio (z) = 0.52634 0.45518
#
# Static dielectric constant tensor:
#      x y z
#    x 1.729730 0.000000 0.000000 
#    y 0.000000 1.656900 0.000000 
#    z 0.000000 0.000000 1.752440 
# 
# From -- ./inp_files/12240.got.cif
#   From: 2010.05.17/outbox.cif.g08.bks.cpg/sg70_7_cif.got.tgz:12240.got - 2010.06.03 15:57:51.
