data_PCOD9514358
_publ_section_title
;
Structure prediction by ZEFSAII (Michael W. Deem and Ramdas Pophale) SiO2 
 PCOD9514358
Probable space group: F D D D
;
_chemical_formula_sum "Si O2"
_cell_formula_units_Z 208
_cell_length_a 25.442533
_cell_length_b 18.401761
_cell_length_c 23.232650
_cell_angle_alpha 90.000000
_cell_angle_beta 90.000000
_cell_angle_gamma 90.000000
_cell_volume 10877.234266
_symmetry_space_group_name_H-M "F D D D"
_symmetry_group_IT_number 70
_space_group.IT_coordinate_system_code '2'
_symmetry_cell_setting 'orthorhombic'
loop_
_space_group_symop_operation_xyz
x,y,z
1/4-x,1/4-y,z
x,1/4-y,1/4-z
1/4-x,y,1/4-z
-x,-y,-z
3/4+x,3/4+y,-z
-x,3/4+y,3/4+z
3/4+x,-y,3/4+z
x,1/2+y,1/2+z
1/4-x,3/4-y,1/2+z
x,3/4-y,3/4-z
1/4-x,1/2+y,3/4-z
-x,1/2-y,1/2-z
3/4+x,1/4+y,1/2-z
-x,1/4+y,1/4+z
3/4+x,1/2-y,1/4+z
1/2+x,y,1/2+z
3/4-x,1/4-y,1/2+z
1/2+x,1/4-y,3/4-z
3/4-x,y,3/4-z
1/2-x,-y,1/2-z
1/4+x,3/4+y,1/2-z
1/2-x,3/4+y,1/4+z
1/4+x,-y,1/4+z
1/2+x,1/2+y,z
3/4-x,3/4-y,z
1/2+x,3/4-y,1/4-z
3/4-x,1/2+y,1/4-z
1/2-x,1/2-y,-z
1/4+x,1/4+y,-z
1/2-x,1/4+y,3/4+z
1/4+x,1/2-y,3/4+z
loop_
_atom_site_type_symbol
_atom_site_label
_atom_site_fract_x
_atom_site_fract_y
_atom_site_fract_z
Si Si1 0.521558 0.474880 0.313920
Si Si2 0.125000 0.950262 0.125000
Si Si3 0.471733 0.606080 0.365310
Si Si4 0.862355 0.696075 0.592607
Si Si5 0.388344 0.790940 0.487992
Si Si6 0.419246 0.438028 0.096770
Si Si7 0.281047 0.673316 0.000332
O O1 0.475761 0.527363 0.335601
O O2 0.560472 0.465443 0.368927
O O3 0.556888 0.520605 0.268921
O O4 0.508660 0.395859 0.287141
O O5 0.170753 0.900634 0.150703
O O6 0.140916 0.999752 0.071640
O O7 0.524274 0.651558 0.350288
O O8 0.468158 0.598655 0.434096
O O9 0.883376 0.625000 0.625000
O O10 0.905002 0.758582 0.600996
O O11 0.838520 0.683853 0.529610
O O12 0.375000 0.875000 0.476651
O O13 0.344159 0.770971 0.536555
O O14 0.375000 0.375000 0.099259
O O15 0.250000 0.750000 0.000000
#
# Coordination Sequence:
#
# PCOD9514358 Si02
#       7
#    32  16  32  32  32  32  32
#     4  10  19  39  64  90 126 170 214 263 322 396
#     4  12  27  40  60  97 140 166 208 274 347 398
#     4  12  23  41  63  94 132 172 216 269 334 393
#     4   9  18  33  61  93 123 157 209 267 317 377
#     4  10  19  41  67  89 121 169 217 267 328 388
#     4  10  18  38  67  90 115 164 225 264 310 387
#     4  11  20  36  64  96 127 168 213 265 335 382
#
# _framework density 19.122508
#
# number of rings (size 3 to 8) (size 9 to 14) (size 15 to 20)
#    0.000    1.538    7.692    0.231    0.000    0.615 
#    2.769    1.538    0.000    0.923    0.000    0.000 
#    0.000    0.000    0.000    0.000    0.000    0.000 
#
# Total GULP energy -289742.679248 kJ/mol
# GULP energy per Si atom -5571.974601 kJ/mol
# Density = 1.907898 g / cm^3
# Si number density = 19.122508 Si / 1000 Ang^3
#
#
#
# Elastic Constant Matrix: (Units=GPa)
#
#
# Indices 1 2 3 4 5 6 
#
# 1 52.8343 34.3044 6.6739 0.0000 0.0000 0.0000
# 2 34.3044 114.3122 18.7465 0.0000 0.0000 0.0000
# 3 6.6739 18.7465 86.6740 0.0000 0.0000 0.0000
# 4 0.0000 0.0000 0.0000 42.5374 0.0000 0.0000
# 5 0.0000 0.0000 0.0000 0.0000 14.9741 0.0000
# 6 0.0000 0.0000 0.0000 0.0000 0.0000 28.6207
#
#
#
# Elastic Compliance Matrix: (Units=1/GPa)
#
#
# Indices 1 2 3 4 5 6 
#
# 1 0.023515 -0.007008 -0.000295 0.000000 0.000000 0.000000
# 2 -0.007008 0.011158 -0.001874 0.000000 0.000000 0.000000
# 3 -0.000295 -0.001874 0.011965 0.000000 0.000000 0.000000
# 4 0.000000 0.000000 0.000000 0.023509 0.000000 0.000000
# 5 0.000000 0.000000 0.000000 0.000000 0.066782 0.000000
# 6 0.000000 0.000000 0.000000 0.000000 0.000000 0.034940
#
#
# Mechanical properties :
#
#
# Convention : Reuss Voigt Hill
#
# Bulk Modulus (GPa) = 35.35471 41.47446 38.41458
# Shear Modulus (GPa) = 25.04372 30.16617 27.60494
#
# Velocity S-wave (km/s) = 3.62283 3.97611 3.80357
# Velocity P-wave (km/s) = 6.00238 6.54333 6.27868
#
# Compressibility (1/GPa) = 0.02828477
#
# Stress axis : x y z
#
# Youngs Moduli (GPa) = 42.52669 89.61868 83.57390
#
# Poissons Ratio (x) = 0.62807 0.02464
# Poissons Ratio (y) = 0.29804 0.15660
# Poissons Ratio (z) = 0.01254 0.16793
#
# Static dielectric constant tensor:
#      x y z
#    x 1.689400 0.000000 0.000000 
#    y 0.000000 1.736310 0.000000 
#    z 0.000000 0.000000 1.698610 
# 
# From -- ./inp_files/47718.got.cif
#   From: 2010.05.17/outbox.cif.g08.bks.cpg/sg70_24_cif.got.tgz:47718.got - 2010.06.03 15:57:51.
