data_PCOD9514343
_publ_section_title
;
Structure prediction by ZEFSAII (Michael W. Deem and Ramdas Pophale) SiO2 
 PCOD9514343
Probable space group: F D D D
;
_chemical_formula_sum "Si O2"
_cell_formula_units_Z 216
_cell_length_a 12.424446
_cell_length_b 26.363465
_cell_length_c 30.251622
_cell_angle_alpha 90.000000
_cell_angle_beta 90.000000
_cell_angle_gamma 90.000000
_cell_volume 9908.962568
_symmetry_space_group_name_H-M "F D D D"
_symmetry_group_IT_number 70
_space_group.IT_coordinate_system_code '2'
_symmetry_cell_setting 'orthorhombic'
loop_
_space_group_symop_operation_xyz
x,y,z
1/4-x,1/4-y,z
x,1/4-y,1/4-z
1/4-x,y,1/4-z
-x,-y,-z
3/4+x,3/4+y,-z
-x,3/4+y,3/4+z
3/4+x,-y,3/4+z
x,1/2+y,1/2+z
1/4-x,3/4-y,1/2+z
x,3/4-y,3/4-z
1/4-x,1/2+y,3/4-z
-x,1/2-y,1/2-z
3/4+x,1/4+y,1/2-z
-x,1/4+y,1/4+z
3/4+x,1/2-y,1/4+z
1/2+x,y,1/2+z
3/4-x,1/4-y,1/2+z
1/2+x,1/4-y,3/4-z
3/4-x,y,3/4-z
1/2-x,-y,1/2-z
1/4+x,3/4+y,1/2-z
1/2-x,3/4+y,1/4+z
1/4+x,-y,1/4+z
1/2+x,1/2+y,z
3/4-x,3/4-y,z
1/2+x,3/4-y,1/4-z
3/4-x,1/2+y,1/4-z
1/2-x,1/2-y,-z
1/4+x,1/4+y,-z
1/2-x,1/4+y,3/4+z
1/4+x,1/2-y,3/4+z
loop_
_atom_site_type_symbol
_atom_site_label
_atom_site_fract_x
_atom_site_fract_y
_atom_site_fract_z
Si Si1 0.375000 0.704166 0.875000
Si Si2 0.485648 0.384874 0.090359
Si Si3 0.157062 0.847718 0.733299
Si Si4 0.572728 0.788318 0.721937
Si Si5 0.244635 0.236762 0.872074
Si Si6 0.730116 0.237522 0.722844
Si Si7 0.625000 0.125000 0.625000
Si Si8 0.995926 0.306980 0.304372
O O1 0.470455 0.666605 0.889564
O O2 0.415627 0.728740 0.829304
O O3 0.375000 0.375000 0.065444
O O4 0.577634 0.405776 0.058713
O O5 0.465289 0.427689 0.127219
O O6 0.211925 0.902682 0.728170
O O7 0.229113 0.797588 0.732617
O O8 0.078101 0.838583 0.774935
O O9 0.500000 0.750000 0.750000
O O10 0.692927 0.788965 0.742500
O O11 0.375000 0.239352 0.875000
O O12 0.220598 0.265783 0.826745
O O13 0.200237 0.261718 0.917029
O O14 0.607595 0.216255 0.721702
O O15 0.697340 0.092014 0.657436
#
# Coordination Sequence:
#
# PCOD9514343 Si02
#       8
#    16  32  32  32  32  32   8  32
#     4  10  24  47  62  97 132 165 235 290 320 398
#     4  11  22  36  66  97 128 169 213 279 337 393
#     4  11  24  41  65  99 135 167 225 274 338 404
#     4  11  27  47  68  96 129 178 235 284 335 395
#     4  10  18  38  57  90 132 163 206 249 316 401
#     4  11  22  43  67  91 134 173 213 276 329 401
#     4  12  20  34  52  88 144 178 190 248 320 410
#     4  11  22  35  61  97 136 173 201 254 331 408
#
# _framework density 21.798446999999999
#
# number of rings (size 3 to 8) (size 9 to 14) (size 15 to 20)
#    0.000    1.185    5.926    2.222    7.259    0.593 
#    0.000    0.000    0.000    0.889    0.000    0.000 
#    0.000    0.000    0.000    0.000    0.000    0.000 
#
# Total GULP energy -301598.928718 kJ/mol
# GULP energy per Si atom -5585.165347 kJ/mol
# Density = 2.174883 g / cm^3
# Si number density = 21.798447 Si / 1000 Ang^3
#
#
#
# Elastic Constant Matrix: (Units=GPa)
#
#
# Indices 1 2 3 4 5 6 
#
# 1 31.6016 7.1657 11.7099 0.0000 0.0000 0.0000
# 2 7.1657 82.2926 17.1287 0.0000 0.0000 0.0000
# 3 11.7099 17.1287 124.8216 0.0000 0.0000 0.0000
# 4 0.0000 0.0000 0.0000 31.4694 0.0000 0.0000
# 5 0.0000 0.0000 0.0000 0.0000 22.9452 0.0000
# 6 0.0000 0.0000 0.0000 0.0000 0.0000 7.9772
#
#
#
# Elastic Compliance Matrix: (Units=1/GPa)
#
#
# Indices 1 2 3 4 5 6 
#
# 1 0.033204 -0.002309 -0.002798 0.000000 0.000000 0.000000
# 2 -0.002309 0.012670 -0.001522 0.000000 0.000000 0.000000
# 3 -0.002798 -0.001522 0.008483 0.000000 0.000000 0.000000
# 4 0.000000 0.000000 0.000000 0.031777 0.000000 0.000000
# 5 0.000000 0.000000 0.000000 0.000000 0.043582 0.000000
# 6 0.000000 0.000000 0.000000 0.000000 0.000000 0.125357
#
#
# Mechanical properties :
#
#
# Convention : Reuss Voigt Hill
#
# Bulk Modulus (GPa) = 24.33167 34.52494 29.42831
# Shear Modulus (GPa) = 17.72859 25.99246 21.86053
#
# Velocity S-wave (km/s) = 2.85493 3.45686 3.17021
# Velocity P-wave (km/s) = 4.69615 5.63966 5.18940
#
# Compressibility (1/GPa) = 0.04109869
#
# Stress axis : x y z
#
# Youngs Moduli (GPa) = 30.11647 78.92908 117.88568
#
# Poissons Ratio (x) = 0.18224 0.32987
# Poissons Ratio (y) = 0.06954 0.17942
# Poissons Ratio (z) = 0.08427 0.12013
#
# Static dielectric constant tensor:
#      x y z
#    x 1.809750 0.000000 0.000000 
#    y 0.000000 1.877250 0.000000 
#    z 0.000000 0.000000 1.851780 
# 
# From -- ./inp_files/66061.got.cif
#   From: 2010.05.17/outbox.cif.g08.bks.cpg/sg70_34_cif.got.tgz:66061.got - 2010.06.03 15:57:51.
