data_PCOD9514551
_publ_section_title
;
Structure prediction by ZEFSAII (Michael W. Deem and Ramdas Pophale) SiO2 
 PCOD9514551
Probable space group: F D D D
;
_chemical_formula_sum "Si O2"
_cell_formula_units_Z 240
_cell_length_a 23.579371
_cell_length_b 15.653488
_cell_length_c 26.432301
_cell_angle_alpha 90.000000
_cell_angle_beta 90.000000
_cell_angle_gamma 90.000000
_cell_volume 9756.146466
_symmetry_space_group_name_H-M "F D D D"
_symmetry_group_IT_number 70
_space_group.IT_coordinate_system_code '2'
_symmetry_cell_setting 'orthorhombic'
loop_
_space_group_symop_operation_xyz
x,y,z
1/4-x,1/4-y,z
x,1/4-y,1/4-z
1/4-x,y,1/4-z
-x,-y,-z
3/4+x,3/4+y,-z
-x,3/4+y,3/4+z
3/4+x,-y,3/4+z
x,1/2+y,1/2+z
1/4-x,3/4-y,1/2+z
x,3/4-y,3/4-z
1/4-x,1/2+y,3/4-z
-x,1/2-y,1/2-z
3/4+x,1/4+y,1/2-z
-x,1/4+y,1/4+z
3/4+x,1/2-y,1/4+z
1/2+x,y,1/2+z
3/4-x,1/4-y,1/2+z
1/2+x,1/4-y,3/4-z
3/4-x,y,3/4-z
1/2-x,-y,1/2-z
1/4+x,3/4+y,1/2-z
1/2-x,3/4+y,1/4+z
1/4+x,-y,1/4+z
1/2+x,1/2+y,z
3/4-x,3/4-y,z
1/2+x,3/4-y,1/4-z
3/4-x,1/2+y,1/4-z
1/2-x,1/2-y,-z
1/4+x,1/4+y,-z
1/2-x,1/4+y,3/4+z
1/4+x,1/2-y,3/4+z
loop_
_atom_site_type_symbol
_atom_site_label
_atom_site_fract_x
_atom_site_fract_y
_atom_site_fract_z
Si Si1 0.698653 0.855307 0.015163
Si Si2 0.434399 0.039853 0.371956
Si Si3 0.476782 0.734640 0.540284
Si Si4 0.031416 0.912595 0.542808
Si Si5 0.898744 0.793355 0.706180
Si Si6 0.646878 0.778461 0.463024
Si Si7 0.283546 0.125000 0.625000
Si Si8 0.802477 0.319546 0.653275
O O1 0.694620 0.822442 0.072053
O O2 0.806078 0.730892 0.018406
O O3 0.747550 0.927372 0.019194
O O4 0.645337 0.906966 0.992723
O O5 0.375000 0.989607 0.375000
O O6 0.324108 0.120654 0.416073
O O7 0.496029 0.008249 0.351555
O O8 0.480889 0.662522 0.497623
O O9 0.410593 0.746173 0.552956
O O10 0.502011 0.693500 0.591705
O O11 0.058331 0.988190 0.509418
O O12 0.973612 0.908719 0.576024
O O13 0.875000 0.875000 0.737232
O O14 0.924167 0.824331 0.653148
O O15 0.678113 0.825525 0.416347
O O16 0.601965 0.712863 0.439299
#
# Coordination Sequence:
#
# PCOD9514551 Si02
#       8
#    32  32  32  32  32  32  16  32
#     4  12  21  37  68  99 136 196 245 302 386 454
#     4  10  19  36  58  93 137 175 232 300 369 444
#     4  11  21  38  65  97 133 180 247 311 366 456
#     4   9  20  36  60  97 128 171 243 303 364 447
#     4  12  25  41  61  98 147 197 251 309 374 458
#     4  11  17  37  65  93 125 181 242 307 368 450
#     4  10  20  38  64  94 134 172 246 314 352 440
#     4  10  21  38  62  95 136 184 245 304 379 434
#
# _framework density 24.599875999999998
#
# number of rings (size 3 to 8) (size 9 to 14) (size 15 to 20)
#    0.800    0.533    6.667    0.800    0.000    2.133 
#    0.000    0.000    0.000   10.000    0.000    0.467 
#    0.000    0.000    0.000    0.000    0.000    1.600 
#
# Total GULP energy -334248.928946 kJ/mol
# GULP energy per Si atom -5570.815482 kJ/mol
# Density = 2.454389 g / cm^3
# Si number density = 24.599876 Si / 1000 Ang^3
#
#
#
# Elastic Constant Matrix: (Units=GPa)
#
#
# Indices 1 2 3 4 5 6 
#
# 1 154.7589 38.4997 36.8278 0.0000 0.0000 0.0000
# 2 38.4997 106.6415 52.0330 0.0000 0.0000 0.0000
# 3 36.8278 52.0330 174.2416 0.0000 0.0000 0.0000
# 4 0.0000 0.0000 0.0000 18.6876 0.0000 0.0000
# 5 0.0000 0.0000 0.0000 0.0000 45.3143 0.0000
# 6 0.0000 0.0000 0.0000 0.0000 0.0000 32.6658
#
#
#
# Elastic Compliance Matrix: (Units=1/GPa)
#
#
# Indices 1 2 3 4 5 6 
#
# 1 0.007211 -0.002177 -0.000874 0.000000 0.000000 0.000000
# 2 -0.002177 0.011634 -0.003014 0.000000 0.000000 0.000000
# 3 -0.000874 -0.003014 0.006824 0.000000 0.000000 0.000000
# 4 0.000000 0.000000 0.000000 0.053511 0.000000 0.000000
# 5 0.000000 0.000000 0.000000 0.000000 0.022068 0.000000
# 6 0.000000 0.000000 0.000000 0.000000 0.000000 0.030613
#
#
# Mechanical properties :
#
#
# Convention : Reuss Voigt Hill
#
# Bulk Modulus (GPa) = 73.86126 76.70700 75.28413
# Shear Modulus (GPa) = 33.66902 39.88564 36.77733
#
# Velocity S-wave (km/s) = 3.70356 4.03100 3.87074
# Velocity P-wave (km/s) = 6.95548 7.27426 7.11666
#
# Compressibility (1/GPa) = 0.01353890
#
# Stress axis : x y z
#
# Youngs Moduli (GPa) = 138.67270 85.95697 146.54236
#
# Poissons Ratio (x) = 0.18712 0.12809
# Poissons Ratio (y) = 0.30188 0.44168
# Poissons Ratio (z) = 0.12121 0.25908
#
# Static dielectric constant tensor:
#      x y z
#    x 2.178880 0.000000 0.000000 
#    y 0.000000 2.117530 0.000000 
#    z 0.000000 0.000000 1.948280 
# 
# From -- ./inp_files/61348.got.cif
#   From: 2010.05.17/outbox.cif.g08.bks.cpg/sg70_31_cif.got.tgz:61348.got - 2010.06.03 15:57:51.
