data_PCOD9514328
_publ_section_title
;
Structure prediction by ZEFSAII (Michael W. Deem and Ramdas Pophale) SiO2 
 PCOD9514328
Probable space group: F D D D
;
_chemical_formula_sum "Si O2"
_cell_formula_units_Z 160
_cell_length_a 29.752480
_cell_length_b 13.446690
_cell_length_c 16.002196
_cell_angle_alpha 90.000000
_cell_angle_beta 90.000000
_cell_angle_gamma 90.000000
_cell_volume 6402.036564
_symmetry_space_group_name_H-M "F D D D"
_symmetry_group_IT_number 70
_space_group.IT_coordinate_system_code '2'
_symmetry_cell_setting 'orthorhombic'
loop_
_space_group_symop_operation_xyz
x,y,z
1/4-x,1/4-y,z
x,1/4-y,1/4-z
1/4-x,y,1/4-z
-x,-y,-z
3/4+x,3/4+y,-z
-x,3/4+y,3/4+z
3/4+x,-y,3/4+z
x,1/2+y,1/2+z
1/4-x,3/4-y,1/2+z
x,3/4-y,3/4-z
1/4-x,1/2+y,3/4-z
-x,1/2-y,1/2-z
3/4+x,1/4+y,1/2-z
-x,1/4+y,1/4+z
3/4+x,1/2-y,1/4+z
1/2+x,y,1/2+z
3/4-x,1/4-y,1/2+z
1/2+x,1/4-y,3/4-z
3/4-x,y,3/4-z
1/2-x,-y,1/2-z
1/4+x,3/4+y,1/2-z
1/2-x,3/4+y,1/4+z
1/4+x,-y,1/4+z
1/2+x,1/2+y,z
3/4-x,3/4-y,z
1/2+x,3/4-y,1/4-z
3/4-x,1/2+y,1/4-z
1/2-x,1/2-y,-z
1/4+x,1/4+y,-z
1/2-x,1/4+y,3/4+z
1/4+x,1/2-y,3/4+z
loop_
_atom_site_type_symbol
_atom_site_label
_atom_site_fract_x
_atom_site_fract_y
_atom_site_fract_z
Si Si1 0.264592 0.238224 0.597434
Si Si2 0.349006 0.729962 0.013646
Si Si3 0.125000 0.625000 0.125000
Si Si4 0.004576 0.875000 0.875000
Si Si5 0.315848 0.033687 0.428885
Si Si6 0.944073 0.095034 0.276646
Si Si7 0.625000 0.125000 0.625000
O O1 0.259988 0.125000 0.625000
O O2 0.250000 0.250000 0.500000
O O3 0.317866 0.266996 0.590060
O O4 0.232615 0.296442 0.663025
O O5 0.345120 0.804673 0.934400
O O6 0.326746 0.622119 0.992449
O O7 0.403393 0.718682 0.015299
O O8 0.033461 0.843301 0.796298
O O9 0.981197 0.773280 0.910626
O O10 0.329612 0.081832 0.340785
O O11 0.404580 0.937639 0.311806
#
# Coordination Sequence:
#
# PCOD9514328 Si02
#       7
#    32  32   8  16  32  32   8
#     4  12  28  47  82 117 161 210 270 341 415 486
#     4  12  25  45  80 113 161 210 267 326 419 478
#     4  12  22  44  80 118 156 212 258 346 400 500
#     4  11  28  43  76 105 158 198 268 324 408 475
#     4  11  21  45  69 104 145 203 253 322 387 485
#     4  12  25  47  73 112 159 206 267 330 401 488
#     4  10  18  36  72 104 136 202 250 306 404 446
#
# _framework density 24.992046999999999
#
# number of rings (size 3 to 8) (size 9 to 14) (size 15 to 20)
#    0.000    0.400    6.000    1.800    7.000    0.000 
#    0.000    0.000    0.000    0.000    0.000    0.000 
#    0.000    0.000    0.000    0.000    0.000    0.000 
#
# Total GULP energy -222888.845655 kJ/mol
# GULP energy per Si atom -5572.221141 kJ/mol
# Density = 2.493516 g / cm^3
# Si number density = 24.992047 Si / 1000 Ang^3
#
#
#
# Elastic Constant Matrix: (Units=GPa)
#
#
# Indices 1 2 3 4 5 6 
#
# 1 148.3244 33.3173 67.9639 0.0000 0.0000 0.0000
# 2 33.3173 94.7344 31.4289 0.0000 0.0000 0.0000
# 3 67.9639 31.4289 115.5340 0.0000 0.0000 0.0000
# 4 0.0000 0.0000 0.0000 21.0289 0.0000 0.0000
# 5 0.0000 0.0000 0.0000 0.0000 15.3185 0.0000
# 6 0.0000 0.0000 0.0000 0.0000 0.0000 13.6817
#
#
#
# Elastic Compliance Matrix: (Units=1/GPa)
#
#
# Indices 1 2 3 4 5 6 
#
# 1 0.009452 -0.001626 -0.005118 0.000000 0.000000 0.000000
# 2 -0.001626 0.011883 -0.002276 0.000000 0.000000 0.000000
# 3 -0.005118 -0.002276 0.012285 0.000000 0.000000 0.000000
# 4 0.000000 0.000000 0.000000 0.047554 0.000000 0.000000
# 5 0.000000 0.000000 0.000000 0.000000 0.065281 0.000000
# 6 0.000000 0.000000 0.000000 0.000000 0.000000 0.073091
#
#
# Mechanical properties :
#
#
# Convention : Reuss Voigt Hill
#
# Bulk Modulus (GPa) = 64.18432 69.33478 66.75955
# Shear Modulus (GPa) = 20.59484 25.06466 22.82975
#
# Velocity S-wave (km/s) = 2.87375 3.17030 3.02566
# Velocity P-wave (km/s) = 6.06209 6.41904 6.24312
#
# Compressibility (1/GPa) = 0.01558013
#
# Stress axis : x y z
#
# Youngs Moduli (GPa) = 105.79262 84.15514 81.39828
#
# Poissons Ratio (x) = 0.13687 0.41660
# Poissons Ratio (y) = 0.17206 0.18524
# Poissons Ratio (z) = 0.54145 0.19152
#
# Static dielectric constant tensor:
#      x y z
#    x 2.205240 0.000000 0.000000 
#    y 0.000000 2.097190 0.000000 
#    z 0.000000 0.000000 1.854160 
# 
# From -- ./inp_files/39565.got.cif
#   From: 2010.05.17/outbox.cif.g08.bks.cpg/sg70_20_cif.got.tgz:39565.got - 2010.06.03 15:57:51.
