data_PCOD9514999
_publ_section_title
;
Structure prediction by ZEFSAII (Michael W. Deem and Ramdas Pophale) SiO2 
 PCOD9514999
Probable space group: F D D D
;
_chemical_formula_sum "Si O2"
_cell_formula_units_Z 160
_cell_length_a 21.286679
_cell_length_b 13.732387
_cell_length_c 20.812396
_cell_angle_alpha 90.000000
_cell_angle_beta 90.000000
_cell_angle_gamma 90.000000
_cell_volume 6083.815371
_symmetry_space_group_name_H-M "F D D D"
_symmetry_group_IT_number 70
_space_group.IT_coordinate_system_code '2'
_symmetry_cell_setting 'orthorhombic'
loop_
_space_group_symop_operation_xyz
x,y,z
1/4-x,1/4-y,z
x,1/4-y,1/4-z
1/4-x,y,1/4-z
-x,-y,-z
3/4+x,3/4+y,-z
-x,3/4+y,3/4+z
3/4+x,-y,3/4+z
x,1/2+y,1/2+z
1/4-x,3/4-y,1/2+z
x,3/4-y,3/4-z
1/4-x,1/2+y,3/4-z
-x,1/2-y,1/2-z
3/4+x,1/4+y,1/2-z
-x,1/4+y,1/4+z
3/4+x,1/2-y,1/4+z
1/2+x,y,1/2+z
3/4-x,1/4-y,1/2+z
1/2+x,1/4-y,3/4-z
3/4-x,y,3/4-z
1/2-x,-y,1/2-z
1/4+x,3/4+y,1/2-z
1/2-x,3/4+y,1/4+z
1/4+x,-y,1/4+z
1/2+x,1/2+y,z
3/4-x,3/4-y,z
1/2+x,3/4-y,1/4-z
3/4-x,1/2+y,1/4-z
1/2-x,1/2-y,-z
1/4+x,1/4+y,-z
1/2-x,1/4+y,3/4+z
1/4+x,1/2-y,3/4+z
loop_
_atom_site_type_symbol
_atom_site_label
_atom_site_fract_x
_atom_site_fract_y
_atom_site_fract_z
Si Si1 0.403314 0.277915 0.613244
Si Si2 0.509168 0.625000 0.125000
Si Si3 0.138321 0.914904 0.198991
Si Si4 0.125000 0.125000 0.218030
Si Si5 0.181287 0.200560 0.715941
Si Si6 0.209673 0.325725 0.458009
O O1 0.375000 0.375000 0.647320
O O2 0.460054 0.212361 0.640966
O O3 0.431266 0.308108 0.543408
O O4 0.341181 0.218317 0.591127
O O5 0.559037 0.596942 0.180541
O O6 0.125000 0.937257 0.125000
O O7 0.179677 0.815777 0.200061
O O8 0.079581 0.874634 0.236022
O O9 0.149739 0.016235 0.236311
O O10 0.125000 0.125000 0.696814
O O11 0.243077 0.157806 0.685471
O O12 0.250000 0.250000 0.500000
#
# Coordination Sequence:
#
# PCOD9514999 Si02
#       6
#    32  16  32  16  32  32
#     4  10  21  38  65  88 130 175 209 271 326 415
#     4  11  22  42  62  96 121 176 234 246 347 386
#     4  11  22  40  66  96 124 174 229 273 318 401
#     4  11  24  42  70  88 130 180 220 280 318 416
#     4  10  20  38  63  95 127 169 220 271 337 390
#     4  11  20  41  63  93 133 172 213 268 352 384
#
# _framework density 26.299287
#
# number of rings (size 3 to 8) (size 9 to 14) (size 15 to 20)
#    0.000    1.400    8.000    1.200    0.000    0.400 
#    7.200    9.000    2.200    0.000    0.000    0.000 
#    0.000    0.000    0.000    0.000    0.000    0.000 
#
# Total GULP energy -222915.889288 kJ/mol
# GULP energy per Si atom -5572.897232 kJ/mol
# Density = 2.623943 g / cm^3
# Si number density = 26.299287 Si / 1000 Ang^3
#
#
#
# Elastic Constant Matrix: (Units=GPa)
#
#
# Indices 1 2 3 4 5 6 
#
# 1 176.5484 80.0453 3.7722 0.0000 0.0000 0.0000
# 2 80.0453 233.2359 26.3928 0.0000 0.0000 0.0000
# 3 3.7722 26.3928 14.8023 0.0000 0.0000 0.0000
# 4 0.0000 0.0000 0.0000 28.0348 0.0000 0.0000
# 5 0.0000 0.0000 0.0000 0.0000 20.6930 0.0000
# 6 0.0000 0.0000 0.0000 0.0000 0.0000 55.2336
#
#
#
# Elastic Compliance Matrix: (Units=1/GPa)
#
#
# Indices 1 2 3 4 5 6 
#
# 1 0.006816 -0.002684 0.003049 0.000000 0.000000 0.000000
# 2 -0.002684 0.006428 -0.010778 0.000000 0.000000 0.000000
# 3 0.003049 -0.010778 0.085997 0.000000 0.000000 0.000000
# 4 0.000000 0.000000 0.000000 0.035670 0.000000 0.000000
# 5 0.000000 0.000000 0.000000 0.000000 0.048326 0.000000
# 6 0.000000 0.000000 0.000000 0.000000 0.000000 0.018105
#
#
# Mechanical properties :
#
#
# Convention : Reuss Voigt Hill
#
# Bulk Modulus (GPa) = 12.75257 71.66745 42.21001
# Shear Modulus (GPa) = 20.13642 41.75069 30.94356
#
# Velocity S-wave (km/s) = 2.77007 3.98869 3.43387
# Velocity P-wave (km/s) = 3.88466 6.96583 5.63974
#
# Compressibility (1/GPa) = 0.07841554
#
# Stress axis : x y z
#
# Youngs Moduli (GPa) = 146.71273 155.56127 11.62831
#
# Poissons Ratio (x) = 0.41757 -0.03546
# Poissons Ratio (y) = 0.39382 0.12533
# Poissons Ratio (z) = -0.44734 1.67661
#
# Static dielectric constant tensor:
#      x y z
#    x 1.933560 0.000000 0.000000 
#    y 0.000000 2.069080 0.000000 
#    z 0.000000 0.000000 2.462500 
# 
# From -- ./inp_files/61067.got.cif
#   From: 2010.05.17/outbox.cif.g08.bks.cpg/sg70_31_cif.got.tgz:61067.got - 2010.06.03 15:57:51.
