data_PCOD9514497
_publ_section_title
;
Structure prediction by ZEFSAII (Michael W. Deem and Ramdas Pophale) SiO2 
 PCOD9514497
Probable space group: F D D D
;
_chemical_formula_sum "Si O2"
_cell_formula_units_Z 104
_cell_length_a 9.998580
_cell_length_b 23.767444
_cell_length_c 15.928096
_cell_angle_alpha 90.000000
_cell_angle_beta 90.000000
_cell_angle_gamma 90.000000
_cell_volume 3785.163727
_symmetry_space_group_name_H-M "F D D D"
_symmetry_group_IT_number 70
_space_group.IT_coordinate_system_code '2'
_symmetry_cell_setting 'orthorhombic'
loop_
_space_group_symop_operation_xyz
x,y,z
1/4-x,1/4-y,z
x,1/4-y,1/4-z
1/4-x,y,1/4-z
-x,-y,-z
3/4+x,3/4+y,-z
-x,3/4+y,3/4+z
3/4+x,-y,3/4+z
x,1/2+y,1/2+z
1/4-x,3/4-y,1/2+z
x,3/4-y,3/4-z
1/4-x,1/2+y,3/4-z
-x,1/2-y,1/2-z
3/4+x,1/4+y,1/2-z
-x,1/4+y,1/4+z
3/4+x,1/2-y,1/4+z
1/2+x,y,1/2+z
3/4-x,1/4-y,1/2+z
1/2+x,1/4-y,3/4-z
3/4-x,y,3/4-z
1/2-x,-y,1/2-z
1/4+x,3/4+y,1/2-z
1/2-x,3/4+y,1/4+z
1/4+x,-y,1/4+z
1/2+x,1/2+y,z
3/4-x,3/4-y,z
1/2+x,3/4-y,1/4-z
3/4-x,1/2+y,1/4-z
1/2-x,1/2-y,-z
1/4+x,1/4+y,-z
1/2-x,1/4+y,3/4+z
1/4+x,1/2-y,3/4+z
loop_
_atom_site_type_symbol
_atom_site_label
_atom_site_fract_x
_atom_site_fract_y
_atom_site_fract_z
Si Si1 0.913752 0.939402 0.093609
Si Si2 0.875000 0.375000 0.875000
Si Si3 0.381788 0.588951 0.720747
Si Si4 0.047188 0.457755 0.300590
O O1 0.875000 0.875000 0.113090
O O2 0.902504 0.981146 0.171929
O O3 0.817817 0.961447 0.018843
O O4 0.060369 0.937234 0.050819
O O5 0.777431 0.334739 0.820848
O O6 0.281762 0.568834 0.645004
O O7 0.382308 0.656419 0.737743
#
# Coordination Sequence:
#
# PCOD9514497 Si02
#       4
#    32   8  32  32
#     4  10  19  34  63 101 126 161 221 276 329 391
#     4   8  16  32  54  84 116 160 204 242 322 398
#     4   9  18  33  59  92 119 165 214 256 331 397
#     4   9  18  33  59  97 125 158 215 277 332 382
#
# _framework density 27.475693
#
# number of rings (size 3 to 8) (size 9 to 14) (size 15 to 20)
#    0.000    3.077    0.000    1.846    0.000    6.154 
#    0.000    0.000   13.538   90.462   76.000    0.000 
#    0.000    0.000    0.000    0.000    0.000    0.000 
#
# Total GULP energy -144911.841759 kJ/mol
# GULP energy per Si atom -5573.532375 kJ/mol
# Density = 2.741316 g / cm^3
# Si number density = 27.475693 Si / 1000 Ang^3
#
#
#
# Elastic Constant Matrix: (Units=GPa)
#
#
# Indices 1 2 3 4 5 6 
#
# 1 132.4297 41.8767 78.2246 0.0000 0.0000 0.0000
# 2 41.8767 220.4762 61.8744 0.0000 0.0000 0.0000
# 3 78.2246 61.8744 152.2903 0.0000 0.0000 0.0000
# 4 0.0000 0.0000 0.0000 25.2085 0.0000 0.0000
# 5 0.0000 0.0000 0.0000 0.0000 30.7663 0.0000
# 6 0.0000 0.0000 0.0000 0.0000 0.0000 37.1565
#
#
#
# Elastic Compliance Matrix: (Units=1/GPa)
#
#
# Indices 1 2 3 4 5 6 
#
# 1 0.010902 -0.000563 -0.005371 0.000000 0.000000 0.000000
# 2 -0.000563 0.005148 -0.001802 0.000000 0.000000 0.000000
# 3 -0.005371 -0.001802 0.010057 0.000000 0.000000 0.000000
# 4 0.000000 0.000000 0.000000 0.039669 0.000000 0.000000
# 5 0.000000 0.000000 0.000000 0.000000 0.032503 0.000000
# 6 0.000000 0.000000 0.000000 0.000000 0.000000 0.026913
#
#
# Mechanical properties :
#
#
# Convention : Reuss Voigt Hill
#
# Bulk Modulus (GPa) = 94.03388 96.57196 95.30292
# Shear Modulus (GPa) = 34.67133 40.17429 37.42281
#
# Velocity S-wave (km/s) = 3.55616 3.82799 3.69458
# Velocity P-wave (km/s) = 7.15265 7.40017 7.27746
#
# Compressibility (1/GPa) = 0.01063446
#
# Stress axis : x y z
#
# Youngs Moduli (GPa) = 91.72765 194.23248 99.42844
#
# Poissons Ratio (x) = 0.10943 0.53402
# Poissons Ratio (y) = 0.05168 0.17921
# Poissons Ratio (z) = 0.49266 0.35008
#
# Static dielectric constant tensor:
#      x y z
#    x 2.199330 0.000000 0.000000 
#    y 0.000000 2.254930 0.000000 
#    z 0.000000 0.000000 2.281670 
# 
# From -- ./inp_files/33008.got.cif
#   From: 2010.05.17/outbox.cif.g08.bks.cpg/sg70_17_cif.got.tgz:33008.got - 2010.06.03 15:57:51.
