data_PCOD9514424
_publ_section_title
;
Structure prediction by ZEFSAII (Michael W. Deem and Ramdas Pophale) SiO2 
 PCOD9514424
Probable space group: F D D D
;
_chemical_formula_sum "Si O2"
_cell_formula_units_Z 168
_cell_length_a 25.129158
_cell_length_b 14.097243
_cell_length_c 31.562122
_cell_angle_alpha 90.000000
_cell_angle_beta 90.000000
_cell_angle_gamma 90.000000
_cell_volume 11180.940005
_symmetry_space_group_name_H-M "F D D D"
_symmetry_group_IT_number 70
_space_group.IT_coordinate_system_code '2'
_symmetry_cell_setting 'orthorhombic'
loop_
_space_group_symop_operation_xyz
x,y,z
1/4-x,1/4-y,z
x,1/4-y,1/4-z
1/4-x,y,1/4-z
-x,-y,-z
3/4+x,3/4+y,-z
-x,3/4+y,3/4+z
3/4+x,-y,3/4+z
x,1/2+y,1/2+z
1/4-x,3/4-y,1/2+z
x,3/4-y,3/4-z
1/4-x,1/2+y,3/4-z
-x,1/2-y,1/2-z
3/4+x,1/4+y,1/2-z
-x,1/4+y,1/4+z
3/4+x,1/2-y,1/4+z
1/2+x,y,1/2+z
3/4-x,1/4-y,1/2+z
1/2+x,1/4-y,3/4-z
3/4-x,y,3/4-z
1/2-x,-y,1/2-z
1/4+x,3/4+y,1/2-z
1/2-x,3/4+y,1/4+z
1/4+x,-y,1/4+z
1/2+x,1/2+y,z
3/4-x,3/4-y,z
1/2+x,3/4-y,1/4-z
3/4-x,1/2+y,1/4-z
1/2-x,1/2-y,-z
1/4+x,1/4+y,-z
1/2-x,1/4+y,3/4+z
1/4+x,1/2-y,3/4+z
loop_
_atom_site_type_symbol
_atom_site_label
_atom_site_fract_x
_atom_site_fract_y
_atom_site_fract_z
Si Si1 0.779237 0.037257 0.709127
Si Si2 0.625000 0.125000 0.625000
Si Si3 0.460002 0.779365 0.436150
Si Si4 0.706677 0.181150 0.372609
Si Si5 0.160274 0.984791 0.884511
Si Si6 0.856446 0.764860 0.731002
O O1 0.748547 0.131240 0.695211
O O2 0.750000 0.000000 0.750000
O O3 0.776401 0.962608 0.670247
O O4 0.840109 0.047336 0.724859
O O5 0.587265 0.186889 0.594769
O O6 0.498364 0.710140 0.410404
O O7 0.432227 0.744642 0.479666
O O8 0.650553 0.239682 0.370277
O O9 0.694569 0.070549 0.365655
O O10 0.171326 0.875000 0.875000
O O11 0.168263 0.002965 0.934672
O O12 0.875000 0.875000 0.736045
#
# Coordination Sequence:
#
# PCOD9514424 Si02
#       6
#    32   8  32  32  32  32
#     4  11  17  30  48  69 107 145 164 204 259 323
#     4  12  20  28  48  84 118 140 164 208 280 326
#     4  12  21  32  49  81 117 138 168 219 271 328
#     4  10  19  32  51  77 103 135 177 216 272 308
#     4  10  19  36  56  74  98 141 189 224 255 317
#     4  11  19  32  49  76 108 137 175 211 262 328
#
# _framework density 15.025570999999999
#
# number of rings (size 3 to 8) (size 9 to 14) (size 15 to 20)
#    0.000    1.143    8.571    2.286    0.000    0.000 
#    0.000    0.952    0.000    0.000    0.000    0.667 
#    0.000    0.000    0.000    0.000    0.000    0.000 
#
# Total GULP energy -233823.233944 kJ/mol
# GULP energy per Si atom -5567.219856 kJ/mol
# Density = 1.499137 g / cm^3
# Si number density = 15.025571 Si / 1000 Ang^3
#
#
#
# Elastic Constant Matrix: (Units=GPa)
#
#
# Indices 1 2 3 4 5 6 
#
# 1 92.7022 54.8477 59.3850 0.0000 0.0000 0.0000
# 2 54.8477 98.8792 40.9279 0.0000 0.0000 0.0000
# 3 59.3850 40.9279 89.3810 0.0000 0.0000 0.0000
# 4 0.0000 0.0000 0.0000 17.5882 0.0000 0.0000
# 5 0.0000 0.0000 0.0000 0.0000 32.2775 0.0000
# 6 0.0000 0.0000 0.0000 0.0000 0.0000 22.3669
#
#
#
# Elastic Compliance Matrix: (Units=1/GPa)
#
#
# Indices 1 2 3 4 5 6 
#
# 1 0.022882 -0.007896 -0.011587 0.000000 0.000000 0.000000
# 2 -0.007896 0.015203 -0.001715 0.000000 0.000000 0.000000
# 3 -0.011587 -0.001715 0.019672 0.000000 0.000000 0.000000
# 4 0.000000 0.000000 0.000000 0.056856 0.000000 0.000000
# 5 0.000000 0.000000 0.000000 0.000000 0.030981 0.000000
# 6 0.000000 0.000000 0.000000 0.000000 0.000000 0.044709
#
#
# Mechanical properties :
#
#
# Convention : Reuss Voigt Hill
#
# Bulk Modulus (GPa) = 65.10486 65.69816 65.40151
# Shear Modulus (GPa) = 21.02423 22.83330 21.92877
#
# Velocity S-wave (km/s) = 3.74469 3.90247 3.82439
# Velocity P-wave (km/s) = 7.88165 8.00780 7.94497
#
# Compressibility (1/GPa) = 0.01535984
#
# Stress axis : x y z
#
# Youngs Moduli (GPa) = 43.70305 65.77476 50.83385
#
# Poissons Ratio (x) = 0.51938 0.58901
# Poissons Ratio (y) = 0.34509 0.08720
# Poissons Ratio (z) = 0.50638 0.11283
#
# Static dielectric constant tensor:
#      x y z
#    x 1.390970 0.000000 0.000000 
#    y 0.000000 1.488450 0.000000 
#    z 0.000000 0.000000 1.523500 
# 
# From -- ./inp_files/29062.got.cif
#   From: 2010.05.17/outbox.cif.g08.bks.cpg/sg70_15_cif.got.tgz:29062.got - 2010.06.03 15:57:51.
