data_PCOD9514582
_publ_section_title
;
Structure prediction by ZEFSAII (Michael W. Deem and Ramdas Pophale) SiO2 
 PCOD9514582
Probable space group: F D D D
;
_chemical_formula_sum "Si O2"
_cell_formula_units_Z 144
_cell_length_a 30.096814
_cell_length_b 11.516143
_cell_length_c 20.319273
_cell_angle_alpha 90.000000
_cell_angle_beta 90.000000
_cell_angle_gamma 90.000000
_cell_volume 7042.644048
_symmetry_space_group_name_H-M "F D D D"
_symmetry_group_IT_number 70
_space_group.IT_coordinate_system_code '2'
_symmetry_cell_setting 'orthorhombic'
loop_
_space_group_symop_operation_xyz
x,y,z
1/4-x,1/4-y,z
x,1/4-y,1/4-z
1/4-x,y,1/4-z
-x,-y,-z
3/4+x,3/4+y,-z
-x,3/4+y,3/4+z
3/4+x,-y,3/4+z
x,1/2+y,1/2+z
1/4-x,3/4-y,1/2+z
x,3/4-y,3/4-z
1/4-x,1/2+y,3/4-z
-x,1/2-y,1/2-z
3/4+x,1/4+y,1/2-z
-x,1/4+y,1/4+z
3/4+x,1/2-y,1/4+z
1/2+x,y,1/2+z
3/4-x,1/4-y,1/2+z
1/2+x,1/4-y,3/4-z
3/4-x,y,3/4-z
1/2-x,-y,1/2-z
1/4+x,3/4+y,1/2-z
1/2-x,3/4+y,1/4+z
1/4+x,-y,1/4+z
1/2+x,1/2+y,z
3/4-x,3/4-y,z
1/2+x,3/4-y,1/4-z
3/4-x,1/2+y,1/4-z
1/2-x,1/2-y,-z
1/4+x,1/4+y,-z
1/2-x,1/4+y,3/4+z
1/4+x,1/2-y,3/4+z
loop_
_atom_site_type_symbol
_atom_site_label
_atom_site_fract_x
_atom_site_fract_y
_atom_site_fract_z
Si Si1 0.917933 0.995124 0.336932
Si Si2 0.630778 0.948666 0.954553
Si Si3 0.211919 0.375000 0.875000
Si Si4 0.658604 0.720856 0.313998
Si Si5 0.249972 0.165895 0.935467
O O1 0.930189 0.875000 0.375000
O O2 0.875000 0.044198 0.375000
O O3 0.898659 0.975069 0.263790
O O4 0.957573 0.086881 0.329725
O O5 0.676398 0.883411 0.933553
O O6 0.597325 0.844024 0.972014
O O7 0.608552 0.006539 0.889804
O O8 0.240485 0.259467 0.878102
O O9 0.625000 0.625000 0.285987
O O10 0.707504 0.669057 0.311654
O O11 0.250000 0.250000 0.000000
#
# Coordination Sequence:
#
# PCOD9514582 Si02
#       5
#    32  32  16  32  32
#     4  11  27  45  63  96 150 186 220 291 361 417
#     4  10  21  42  63  98 135 175 236 280 342 416
#     4  10  20  40  69  98 136 176 225 300 338 404
#     4  10  19  36  72  96 124 178 235 284 335 401
#     4  12  23  42  69 102 139 174 236 292 349 414
#
# _framework density 20.446866
#
# number of rings (size 3 to 8) (size 9 to 14) (size 15 to 20)
#    0.000    1.556    6.667    0.000    6.222    1.778 
#    0.000    5.000    0.000    0.000    0.000    0.000 
#    0.000    0.000    0.000    0.000    0.000    0.000 
#
# Total GULP energy -200450.799438 kJ/mol
# GULP energy per Si atom -5568.077762 kJ/mol
# Density = 2.040033 g / cm^3
# Si number density = 20.446866 Si / 1000 Ang^3
#
#
#
# Elastic Constant Matrix: (Units=GPa)
#
#
# Indices 1 2 3 4 5 6 
#
# 1 174.4593 87.8578 23.6818 0.0000 0.0000 0.0000
# 2 87.8578 152.1994 19.8884 0.0000 0.0000 0.0000
# 3 23.6818 19.8884 50.7874 0.0000 0.0000 0.0000
# 4 0.0000 0.0000 0.0000 31.9062 0.0000 0.0000
# 5 0.0000 0.0000 0.0000 0.0000 8.3258 0.0000
# 6 0.0000 0.0000 0.0000 0.0000 0.0000 47.8224
#
#
#
# Elastic Compliance Matrix: (Units=1/GPa)
#
#
# Indices 1 2 3 4 5 6 
#
# 1 0.008288 -0.004510 -0.002099 0.000000 0.000000 0.000000
# 2 -0.004510 0.009379 -0.001570 0.000000 0.000000 0.000000
# 3 -0.002099 -0.001570 0.021283 0.000000 0.000000 0.000000
# 4 0.000000 0.000000 0.000000 0.031342 0.000000 0.000000
# 5 0.000000 0.000000 0.000000 0.000000 0.120108 0.000000
# 6 0.000000 0.000000 0.000000 0.000000 0.000000 0.020911
#
#
# Mechanical properties :
#
#
# Convention : Reuss Voigt Hill
#
# Bulk Modulus (GPa) = 44.26069 71.14468 57.70268
# Shear Modulus (GPa) = 21.25857 34.01209 27.63533
#
# Velocity S-wave (km/s) = 3.22793 4.08295 3.68036
# Velocity P-wave (km/s) = 5.96543 7.55631 6.80750
#
# Compressibility (1/GPa) = 0.02259341
#
# Stress axis : x y z
#
# Youngs Moduli (GPa) = 120.65367 106.62150 46.98545
#
# Poissons Ratio (x) = 0.48088 0.09860
# Poissons Ratio (y) = 0.54417 0.07376
# Poissons Ratio (z) = 0.25319 0.16737
#
# Static dielectric constant tensor:
#      x y z
#    x 1.731770 0.000000 0.000000 
#    y 0.000000 1.799520 0.000000 
#    z 0.000000 0.000000 1.922990 
# 
# From -- ./inp_files/54190.got.cif
#   From: 2010.05.17/outbox.cif.g08.bks.cpg/sg70_28_cif.got.tgz:54190.got - 2010.06.03 15:57:51.
