data_PCOD9514006
_publ_section_title
;
Structure prediction by ZEFSAII (Michael W. Deem and Ramdas Pophale) SiO2 
 PCOD9514006
Probable space group: F M M M
;
_chemical_formula_sum "Si O2"
_cell_formula_units_Z 52
_cell_length_a 21.000000
_cell_length_b 18.000000
_cell_length_c 27.000000
_cell_angle_alpha 90.000000
_cell_angle_beta 90.000000
_cell_angle_gamma 90.000000
_cell_volume 10206.000000
_symmetry_space_group_name_H-M "F M M M"
_symmetry_group_IT_number 69
_symmetry_cell_setting 'orthorhombic'
loop_
_space_group_symop_operation_xyz
x,y,z
-x,-y,z
x,-y,-z
-x,y,-z
-x,-y,-z
x,y,-z
-x,y,z
x,-y,z
x,1/2+y,1/2+z
-x,1/2-y,1/2+z
x,1/2-y,1/2-z
-x,1/2+y,1/2-z
-x,1/2-y,1/2-z
x,1/2+y,1/2-z
-x,1/2+y,1/2+z
x,1/2-y,1/2+z
1/2+x,y,1/2+z
1/2-x,-y,1/2+z
1/2+x,-y,1/2-z
1/2-x,y,1/2-z
1/2-x,-y,1/2-z
1/2+x,y,1/2-z
1/2-x,y,1/2+z
1/2+x,-y,1/2+z
1/2+x,1/2+y,z
1/2-x,1/2-y,z
1/2+x,1/2-y,-z
1/2-x,1/2+y,-z
1/2-x,1/2-y,-z
1/2+x,1/2+y,-z
1/2-x,1/2+y,z
1/2+x,1/2-y,z
loop_
_atom_site_type_symbol
_atom_site_label
_atom_site_fract_x
_atom_site_fract_y
_atom_site_fract_z
Si Si1 0.237837 0.087112 0.338255
Si Si2 0.687489 0.912037 0.943129
Si Si3 0.370831 0.672243 0.718881
Si Si4 0.921769 0.583593 0.500000
Si Si5 0.424619 0.175233 0.407533
Si Si6 0.386564 0.584645 0.813104
Si Si7 0.925045 0.337461 0.109838
O O1 0.231411 0.112220 0.395980
O O2 0.195656 0.139689 0.302888
O O3 0.310471 0.088249 0.321177
O O4 0.215920 0.000000 0.334551
O O5 0.617696 0.896532 0.919370
O O6 0.697689 0.000000 0.946966
O O7 0.694220 0.882407 0.000000
O O8 0.365196 0.750000 0.750000
O O9 0.399208 0.614805 0.758546
O O10 0.412996 0.671064 0.668905
O O11 0.899325 0.500000 0.500000
O O12 0.898670 0.624159 0.450953
O O13 0.000000 0.582546 0.500000
O O14 0.500000 0.181471 0.415607
O O15 0.414877 0.137834 0.354700
O O16 0.399997 0.258365 0.410333
O O17 0.407939 0.500000 0.820170
O O18 0.000000 0.347802 0.101109
#
# Coordination Sequence:
#
# PCOD9514006 Si02
#       7
#    32  32  32  16  32  32  32
#     4   9  20  38  58  83 116 148 185 234 287 340
#     4   9  19  38  62  87 117 151 187 231 283 338
#     4  11  21  37  56  82 111 152 189 236 285 338
#     4   9  18  34  56  78 104 143 187 233 282 333
#     4  10  21  38  57  81 115 151 188 235 288 339
#     4  11  22  37  58  85 111 146 194 237 285 346
#     4  10  22  38  57  83 118 154 190 235 286 341
#
# _framework density 5.0950420000000003
#
# number of rings (size 3 to 8) (size 9 to 14) (size 15 to 20)
#    0.000    2.077    1.538    1.385    1.077    5.538 
#    1.385    0.769    0.000    0.923    0.000    0.000 
#    0.000    0.000    0.000    0.000    0.000    0.000 
#
# Total GULP energy -289946.489982 kJ/mol
# GULP energy per Si atom -5575.894038 kJ/mol
# Density = 0.508345 g / cm^3
# Si number density = 5.095042 Si / 1000 Ang^3
#
#
#
# Elastic Constant Matrix: (Units=GPa)
#
#
# Indices 1 2 3 4 5 6 
#
# 1 0.7399 -0.2288 -14.0051 0.0000 0.0000 0.0000
# 2 -0.2288 14.4023 -5.1250 0.0000 0.0000 0.0000
# 3 -14.0051 -5.1250 107.2557 0.0000 0.0000 0.0000
# 4 0.0000 0.0000 0.0000 40.2411 0.0000 0.0000
# 5 0.0000 0.0000 0.0000 0.0000 20.7581 0.0000
# 6 0.0000 0.0000 0.0000 0.0000 0.0000 16.3219
#
#
#
# Elastic Compliance Matrix: (Units=1/GPa)
#
#
# Indices 1 2 3 4 5 6 
#
# 1 -0.872730 -0.055356 -0.116603 0.000000 0.000000 0.000000
# 2 -0.055356 0.067123 -0.004021 0.000000 0.000000 0.000000
# 3 -0.116603 -0.004021 -0.006094 0.000000 0.000000 0.000000
# 4 0.000000 0.000000 0.000000 0.024850 0.000000 0.000000
# 5 0.000000 0.000000 0.000000 0.000000 0.048174 0.000000
# 6 0.000000 0.000000 0.000000 0.000000 0.000000 0.061267
#
#
# Mechanical properties :
#
#
# Convention : Reuss Voigt Hill
#
# Bulk Modulus (GPa) = -0.85936 9.29780 4.21922
# Shear Modulus (GPa) = -7.00932 24.91466 8.95267
#
# Velocity S-wave (km/s) = -1.85654 3.50021 2.09818
# Velocity P-wave (km/s) = 2.24014 4.57246 2.81861
#
# Compressibility (1/GPa) = -1.16366043
#
# Stress axis : x y z
#
# Youngs Moduli (GPa) = -1.14583 14.89793 -164.09000
#
# Poissons Ratio (x) = 0.82469 -19.13339
# Poissons Ratio (y) = -0.06343 -0.65978
# Poissons Ratio (z) = -0.13361 0.05990
#
# Static dielectric constant tensor:
#      x y z
#    x 1.726050 0.000000 0.000000 
#    y 0.000000 1.749140 0.000000 
#    z 0.000000 0.000000 1.733480 
# 
# From -- ./inp_files/42703.got.cif
#   From: 2010.05.17/outbox.ucp.g08.bks.cvg/sg69_22_cif.got.tgz:42703.got - 2010.06.11 16:51:34.
