data_PCOD9514824
_publ_section_title
;
Structure prediction by ZEFSAII (Michael W. Deem and Ramdas Pophale) SiO2 
 PCOD9514824
Probable space group: F D D D
;
_chemical_formula_sum "Si O2"
_cell_formula_units_Z 192
_cell_length_a 11.891539
_cell_length_b 23.750352
_cell_length_c 26.569646
_cell_angle_alpha 90.000000
_cell_angle_beta 90.000000
_cell_angle_gamma 90.000000
_cell_volume 7504.018279
_symmetry_space_group_name_H-M "F D D D"
_symmetry_group_IT_number 70
_space_group.IT_coordinate_system_code '2'
_symmetry_cell_setting 'orthorhombic'
loop_
_space_group_symop_operation_xyz
x,y,z
1/4-x,1/4-y,z
x,1/4-y,1/4-z
1/4-x,y,1/4-z
-x,-y,-z
3/4+x,3/4+y,-z
-x,3/4+y,3/4+z
3/4+x,-y,3/4+z
x,1/2+y,1/2+z
1/4-x,3/4-y,1/2+z
x,3/4-y,3/4-z
1/4-x,1/2+y,3/4-z
-x,1/2-y,1/2-z
3/4+x,1/4+y,1/2-z
-x,1/4+y,1/4+z
3/4+x,1/2-y,1/4+z
1/2+x,y,1/2+z
3/4-x,1/4-y,1/2+z
1/2+x,1/4-y,3/4-z
3/4-x,y,3/4-z
1/2-x,-y,1/2-z
1/4+x,3/4+y,1/2-z
1/2-x,3/4+y,1/4+z
1/4+x,-y,1/4+z
1/2+x,1/2+y,z
3/4-x,3/4-y,z
1/2+x,3/4-y,1/4-z
3/4-x,1/2+y,1/4-z
1/2-x,1/2-y,-z
1/4+x,1/4+y,-z
1/2-x,1/4+y,3/4+z
1/4+x,1/2-y,3/4+z
loop_
_atom_site_type_symbol
_atom_site_label
_atom_site_fract_x
_atom_site_fract_y
_atom_site_fract_z
Si Si1 0.027119 0.826551 0.702582
Si Si2 0.875000 0.875000 0.875000
Si Si3 0.971317 0.809109 0.283352
Si Si4 0.375000 0.168680 0.375000
Si Si5 0.366001 0.942533 0.634448
Si Si6 0.524020 0.906559 0.282884
Si Si7 0.375000 0.875000 0.875000
Si Si8 0.740926 0.024562 0.980014
O O1 0.081396 0.877043 0.668720
O O2 0.982784 0.851523 0.754140
O O3 0.133200 0.790778 0.717895
O O4 0.931697 0.800314 0.667552
O O5 0.788956 0.907329 0.913215
O O6 0.944965 0.831250 0.340049
O O7 0.842936 0.814623 0.260880
O O8 0.000000 0.750000 0.250000
O O9 0.089416 0.842977 0.278241
O O10 0.484267 0.204603 0.362177
O O11 0.375000 0.875000 0.646687
O O12 0.429959 0.977890 0.675817
O O13 0.500761 0.961934 0.249854
#
# Coordination Sequence:
#
# PCOD9514824 Si02
#       8
#    32   8  32  16  32  32   8  32
#     4  11  21  41  74 108 146 192 254 313 401 474
#     4  12  30  50  72  92 162 220 266 306 394 494
#     4  10  24  45  76 118 155 204 290 341 418 533
#     4  10  20  35  67 100 148 180 240 311 375 456
#     4  10  20  36  68 109 141 195 239 315 391 469
#     4  11  27  46  70 105 153 204 260 332 389 484
#     4  12  22  44  90 104 166 244 242 348 474 454
#     4  11  22  45  75 109 149 193 256 333 400 478
#
# _framework density 25.586293000000001
#
# number of rings (size 3 to 8) (size 9 to 14) (size 15 to 20)
#    0.000    1.333    3.333    2.500    7.000    0.000 
#    0.000   24.167    0.000    0.000    0.000    0.000 
#    0.000    0.000    0.000    0.000    0.000    0.000 
#
# Total GULP energy -267452.336934 kJ/mol
# GULP energy per Si atom -5571.923686 kJ/mol
# Density = 2.552806 g / cm^3
# Si number density = 25.586293 Si / 1000 Ang^3
#
#
#
# Elastic Constant Matrix: (Units=GPa)
#
#
# Indices 1 2 3 4 5 6 
#
# 1 200.4848 31.5968 44.8624 0.0000 0.0000 0.0000
# 2 31.5968 60.3270 19.4532 0.0000 0.0000 0.0000
# 3 44.8624 19.4532 120.9824 0.0000 0.0000 0.0000
# 4 0.0000 0.0000 0.0000 84.3017 0.0000 0.0000
# 5 0.0000 0.0000 0.0000 0.0000 11.4204 0.0000
# 6 0.0000 0.0000 0.0000 0.0000 0.0000 -49.7641
#
#
#
# Elastic Compliance Matrix: (Units=1/GPa)
#
#
# Indices 1 2 3 4 5 6 
#
# 1 0.005765 -0.002458 -0.001743 0.000000 0.000000 0.000000
# 2 -0.002458 0.018530 -0.002068 0.000000 0.000000 0.000000
# 3 -0.001743 -0.002068 0.009244 0.000000 0.000000 0.000000
# 4 0.000000 0.000000 0.000000 0.011862 0.000000 0.000000
# 5 0.000000 0.000000 0.000000 0.000000 0.087563 0.000000
# 6 0.000000 0.000000 0.000000 0.000000 0.000000 -0.020095
#
#
# Mechanical properties :
#
#
# Convention : Reuss Voigt Hill
#
# Bulk Modulus (GPa) = 47.61222 63.73546 55.67384
# Shear Modulus (GPa) = 37.76204 28.25039 33.00621
#
# Velocity S-wave (km/s) = 3.84587 3.32644 3.59555
# Velocity P-wave (km/s) = 6.19434 6.30220 6.24850
#
# Compressibility (1/GPa) = 0.02100301
#
# Stress axis : x y z
#
# Youngs Moduli (GPa) = 173.45481 53.96517 108.17317
#
# Poissons Ratio (x) = 0.13263 0.18851
# Poissons Ratio (y) = 0.42629 0.22373
# Poissons Ratio (z) = 0.30227 0.11161
#
# Static dielectric constant tensor:
#      x y z
#    x 2.174390 0.000000 0.000000 
#    y 0.000000 2.141710 0.000000 
#    z 0.000000 0.000000 2.023880 
# 
# From -- ./inp_files/65013.got.cif
#   From: 2010.05.17/outbox.cif.g08.bks.cpg/sg70_33_cif.got.tgz:65013.got - 2010.06.03 15:57:51.
