data_PCOD9514838
_publ_section_title
;
Structure prediction by ZEFSAII (Michael W. Deem and Ramdas Pophale) SiO2 
 PCOD9514838
Probable space group: F D D D
;
_chemical_formula_sum "Si O2"
_cell_formula_units_Z 176
_cell_length_a 24.706286
_cell_length_b 20.297863
_cell_length_c 16.945001
_cell_angle_alpha 90.000000
_cell_angle_beta 90.000000
_cell_angle_gamma 90.000000
_cell_volume 8497.660581
_symmetry_space_group_name_H-M "F D D D"
_symmetry_group_IT_number 70
_space_group.IT_coordinate_system_code '2'
_symmetry_cell_setting 'orthorhombic'
loop_
_space_group_symop_operation_xyz
x,y,z
1/4-x,1/4-y,z
x,1/4-y,1/4-z
1/4-x,y,1/4-z
-x,-y,-z
3/4+x,3/4+y,-z
-x,3/4+y,3/4+z
3/4+x,-y,3/4+z
x,1/2+y,1/2+z
1/4-x,3/4-y,1/2+z
x,3/4-y,3/4-z
1/4-x,1/2+y,3/4-z
-x,1/2-y,1/2-z
3/4+x,1/4+y,1/2-z
-x,1/4+y,1/4+z
3/4+x,1/2-y,1/4+z
1/2+x,y,1/2+z
3/4-x,1/4-y,1/2+z
1/2+x,1/4-y,3/4-z
3/4-x,y,3/4-z
1/2-x,-y,1/2-z
1/4+x,3/4+y,1/2-z
1/2-x,3/4+y,1/4+z
1/4+x,-y,1/4+z
1/2+x,1/2+y,z
3/4-x,3/4-y,z
1/2+x,3/4-y,1/4-z
3/4-x,1/2+y,1/4-z
1/2-x,1/2-y,-z
1/4+x,1/4+y,-z
1/2-x,1/4+y,3/4+z
1/4+x,1/2-y,3/4+z
loop_
_atom_site_type_symbol
_atom_site_label
_atom_site_fract_x
_atom_site_fract_y
_atom_site_fract_z
Si Si1 0.062025 0.368703 0.121013
Si Si2 0.214797 0.034065 0.153702
Si Si3 0.306290 0.583336 0.046609
Si Si4 0.477337 0.309504 0.022773
Si Si5 0.084823 0.502008 0.441097
Si Si6 0.125000 0.625000 0.393563
O O1 0.125000 0.384155 0.125000
O O2 0.052270 0.290963 0.133005
O O3 0.028315 0.405538 0.187814
O O4 0.046127 0.378757 0.029709
O O5 0.174927 0.044890 0.228188
O O6 0.215742 0.070666 0.069890
O O7 0.277366 0.033404 0.180133
O O8 0.298793 0.625000 0.125000
O O9 0.367109 0.550596 0.047445
O O10 0.269318 0.518494 0.039020
O O11 0.425160 0.337064 0.067396
O O12 0.094331 0.555412 0.370464
#
# Coordination Sequence:
#
# PCOD9514838 Si02
#       6
#    32  32  32  32  32  16
#     4  11  21  40  59  86 126 160 203 256 305 364
#     4  10  21  36  56  89 126 156 201 240 308 370
#     4  10  23  39  63  89 121 161 211 256 314 372
#     4  10  23  38  61  85 120 168 199 256 311 365
#     4  10  20  36  57  88 123 156 194 252 295 384
#     4  10  20  37  54  84 117 156 198 230 317 360
#
# _framework density 20.711582
#
# number of rings (size 3 to 8) (size 9 to 14) (size 15 to 20)
#    0.000    1.818    3.636    0.000    2.545    2.182 
#    0.000    0.000    0.000    0.545    0.000    0.000 
#    0.000    0.000    0.000    0.000    0.000    0.000 
#
# Total GULP energy -245004.878956 kJ/mol
# GULP energy per Si atom -5568.292704 kJ/mol
# Density = 2.066444 g / cm^3
# Si number density = 20.711582 Si / 1000 Ang^3
#
#
#
# Elastic Constant Matrix: (Units=GPa)
#
#
# Indices 1 2 3 4 5 6 
#
# 1 75.6728 1.6448 -7.1256 0.0000 0.0000 0.0000
# 2 1.6448 50.1131 19.1382 0.0000 0.0000 0.0000
# 3 -7.1256 19.1382 64.8403 0.0000 0.0000 0.0000
# 4 0.0000 0.0000 0.0000 32.8912 0.0000 0.0000
# 5 0.0000 0.0000 0.0000 0.0000 15.4758 0.0000
# 6 0.0000 0.0000 0.0000 0.0000 0.0000 16.8844
#
#
#
# Elastic Compliance Matrix: (Units=1/GPa)
#
#
# Indices 1 2 3 4 5 6 
#
# 1 0.013410 -0.001130 0.001807 0.000000 0.000000 0.000000
# 2 -0.001130 0.022585 -0.006790 0.000000 0.000000 0.000000
# 3 0.001807 -0.006790 0.017625 0.000000 0.000000 0.000000
# 4 0.000000 0.000000 0.000000 0.030403 0.000000 0.000000
# 5 0.000000 0.000000 0.000000 0.000000 0.064617 0.000000
# 6 0.000000 0.000000 0.000000 0.000000 0.000000 0.059226
#
#
# Mechanical properties :
#
#
# Convention : Reuss Voigt Hill
#
# Bulk Modulus (GPa) = 24.15860 24.21567 24.18714
# Shear Modulus (GPa) = 21.37744 24.84819 23.11281
#
# Velocity S-wave (km/s) = 3.21619 3.46746 3.34419
# Velocity P-wave (km/s) = 5.04792 5.26766 5.15896
#
# Compressibility (1/GPa) = 0.04139312
#
# Stress axis : x y z
#
# Youngs Moduli (GPa) = 74.57378 44.27672 56.73637
#
# Poissons Ratio (x) = 0.05005 -0.10254
# Poissons Ratio (y) = 0.08429 0.38527
# Poissons Ratio (z) = -0.13477 0.30066
#
# Static dielectric constant tensor:
#      x y z
#    x 1.790780 0.000000 0.000000 
#    y 0.000000 1.844410 0.000000 
#    z 0.000000 0.000000 1.819330 
# 
# From -- ./inp_files/38568.got.cif
#   From: 2010.05.17/outbox.cif.g08.bks.cpg/sg70_20_cif.got.tgz:38568.got - 2010.06.03 15:57:51.
