data_PCOD9514058
_publ_section_title
;
Structure prediction by ZEFSAII (Michael W. Deem and Ramdas Pophale) SiO2 
 PCOD9514058
Probable space group: F D D D
;
_chemical_formula_sum "Si O2"
_cell_formula_units_Z 120
_cell_length_a 12.585699
_cell_length_b 14.591167
_cell_length_c 24.559248
_cell_angle_alpha 90.000000
_cell_angle_beta 90.000000
_cell_angle_gamma 90.000000
_cell_volume 4510.061185
_symmetry_space_group_name_H-M "F D D D"
_symmetry_group_IT_number 70
_space_group.IT_coordinate_system_code '2'
_symmetry_cell_setting 'orthorhombic'
loop_
_space_group_symop_operation_xyz
x,y,z
1/4-x,1/4-y,z
x,1/4-y,1/4-z
1/4-x,y,1/4-z
-x,-y,-z
3/4+x,3/4+y,-z
-x,3/4+y,3/4+z
3/4+x,-y,3/4+z
x,1/2+y,1/2+z
1/4-x,3/4-y,1/2+z
x,3/4-y,3/4-z
1/4-x,1/2+y,3/4-z
-x,1/2-y,1/2-z
3/4+x,1/4+y,1/2-z
-x,1/4+y,1/4+z
3/4+x,1/2-y,1/4+z
1/2+x,y,1/2+z
3/4-x,1/4-y,1/2+z
1/2+x,1/4-y,3/4-z
3/4-x,y,3/4-z
1/2-x,-y,1/2-z
1/4+x,3/4+y,1/2-z
1/2-x,3/4+y,1/4+z
1/4+x,-y,1/4+z
1/2+x,1/2+y,z
3/4-x,3/4-y,z
1/2+x,3/4-y,1/4-z
3/4-x,1/2+y,1/4-z
1/2-x,1/2-y,-z
1/4+x,1/4+y,-z
1/2-x,1/4+y,3/4+z
1/4+x,1/2-y,3/4+z
loop_
_atom_site_type_symbol
_atom_site_label
_atom_site_fract_x
_atom_site_fract_y
_atom_site_fract_z
Si Si1 0.362073 0.017651 0.220318
Si Si2 0.536476 0.025393 0.352225
Si Si3 0.125000 0.938197 0.625000
Si Si4 0.589182 0.966012 0.242252
Si Si5 0.625000 0.125000 0.625000
O O1 0.287576 0.794918 0.233103
O O2 0.250000 0.000000 0.250000
O O3 0.345912 0.010408 0.155729
O O4 0.391008 0.119112 0.241731
O O5 0.600918 0.027046 0.296148
O O6 0.448868 0.945225 0.342817
O O7 0.474677 0.117412 0.369300
O O8 0.125256 0.993289 0.681605
#
# Coordination Sequence:
#
# PCOD9514058 Si02
#       5
#    32  32  16  32   8
#     4  12  22  35  64  96 137 180 228 297 359 416
#     4  11  21  34  58  90 135 177 221 287 346 414
#     4  11  24  37  60  96 133 180 233 288 350 425
#     4  12  23  40  61  98 136 184 236 290 357 417
#     4  10  16  28  56  88 124 170 218 268 348 402
#
# _framework density 26.607178000000001
#
# number of rings (size 3 to 8) (size 9 to 14) (size 15 to 20)
#    0.000    0.533    8.000    2.400    0.000    0.000 
#    0.000    1.333    0.000    0.000    0.000    0.000 
#    0.000    0.000    0.000    0.000    0.000    0.000 
#
# Total GULP energy -167864.347502 kJ/mol
# GULP energy per Si atom -5595.478250 kJ/mol
# Density = 2.654662 g / cm^3
# Si number density = 26.607178 Si / 1000 Ang^3
#
#
#
# Elastic Constant Matrix: (Units=GPa)
#
#
# Indices 1 2 3 4 5 6 
#
# 1 49.7225 16.5922 24.1510 0.0000 0.0000 0.0000
# 2 16.5922 73.0829 19.0434 0.0000 0.0000 0.0000
# 3 24.1510 19.0434 308.5659 0.0000 0.0000 0.0000
# 4 0.0000 0.0000 0.0000 22.0113 0.0000 0.0000
# 5 0.0000 0.0000 0.0000 0.0000 14.4946 0.0000
# 6 0.0000 0.0000 0.0000 0.0000 0.0000 38.3201
#
#
#
# Elastic Compliance Matrix: (Units=1/GPa)
#
#
# Indices 1 2 3 4 5 6 
#
# 1 0.022391 -0.004702 -0.001462 0.000000 0.000000 0.000000
# 2 -0.004702 0.014894 -0.000551 0.000000 0.000000 0.000000
# 3 -0.001462 -0.000551 0.003389 0.000000 0.000000 0.000000
# 4 0.000000 0.000000 0.000000 0.045431 0.000000 0.000000
# 5 0.000000 0.000000 0.000000 0.000000 0.068991 0.000000
# 6 0.000000 0.000000 0.000000 0.000000 0.000000 0.026096
#
#
# Mechanical properties :
#
#
# Convention : Reuss Voigt Hill
#
# Bulk Modulus (GPa) = 36.70690 61.21604 48.96147
# Shear Modulus (GPa) = 24.54519 39.73751 32.14135
#
# Velocity S-wave (km/s) = 3.04057 3.86876 3.47939
# Velocity P-wave (km/s) = 5.11396 6.55848 5.88074
#
# Compressibility (1/GPa) = 0.02724284
#
# Stress axis : x y z
#
# Youngs Moduli (GPa) = 44.66063 67.13966 295.04913
#
# Poissons Ratio (x) = 0.31572 0.43145
# Poissons Ratio (y) = 0.21001 0.16262
# Poissons Ratio (z) = 0.06531 0.03700
#
# Static dielectric constant tensor:
#      x y z
#    x 2.152670 0.000000 0.000000 
#    y 0.000000 2.024530 0.000000 
#    z 0.000000 0.000000 2.105970 
# 
# From -- ./inp_files/27389.got.cif
#   From: 2010.05.17/outbox.cif.g08.bks.cpg/sg70_14_cif.got.tgz:27389.got - 2010.06.03 15:57:51.
