data_PCOD9514419
_publ_section_title
;
Structure prediction by ZEFSAII (Michael W. Deem and Ramdas Pophale) SiO2 
 PCOD9514419
Probable space group: F D D D
;
_chemical_formula_sum "Si O2"
_cell_formula_units_Z 112
_cell_length_a 22.367884
_cell_length_b 9.935589
_cell_length_c 24.789346
_cell_angle_alpha 90.000000
_cell_angle_beta 90.000000
_cell_angle_gamma 90.000000
_cell_volume 5509.137210
_symmetry_space_group_name_H-M "F D D D"
_symmetry_group_IT_number 70
_space_group.IT_coordinate_system_code '2'
_symmetry_cell_setting 'orthorhombic'
loop_
_space_group_symop_operation_xyz
x,y,z
1/4-x,1/4-y,z
x,1/4-y,1/4-z
1/4-x,y,1/4-z
-x,-y,-z
3/4+x,3/4+y,-z
-x,3/4+y,3/4+z
3/4+x,-y,3/4+z
x,1/2+y,1/2+z
1/4-x,3/4-y,1/2+z
x,3/4-y,3/4-z
1/4-x,1/2+y,3/4-z
-x,1/2-y,1/2-z
3/4+x,1/4+y,1/2-z
-x,1/4+y,1/4+z
3/4+x,1/2-y,1/4+z
1/2+x,y,1/2+z
3/4-x,1/4-y,1/2+z
1/2+x,1/4-y,3/4-z
3/4-x,y,3/4-z
1/2-x,-y,1/2-z
1/4+x,3/4+y,1/2-z
1/2-x,3/4+y,1/4+z
1/4+x,-y,1/4+z
1/2+x,1/2+y,z
3/4-x,3/4-y,z
1/2+x,3/4-y,1/4-z
3/4-x,1/2+y,1/4-z
1/2-x,1/2-y,-z
1/4+x,1/4+y,-z
1/2-x,1/4+y,3/4+z
1/4+x,1/2-y,3/4+z
loop_
_atom_site_type_symbol
_atom_site_label
_atom_site_fract_x
_atom_site_fract_y
_atom_site_fract_z
Si Si1 0.375000 0.875000 0.477164
Si Si2 0.482111 0.718550 0.530470
Si Si3 0.677316 0.705748 0.465314
Si Si4 0.853337 0.665837 0.316374
O O1 0.431616 0.822494 0.511699
O O2 0.358029 0.743745 0.443025
O O3 0.518453 0.643720 0.481184
O O4 0.452608 0.591207 0.560298
O O5 0.534971 0.791094 0.561118
O O6 0.625000 0.625000 0.435346
O O7 0.643469 0.762464 0.519759
O O8 0.875000 0.704588 0.375000
#
# Coordination Sequence:
#
# PCOD9514419 Si02
#       4
#    16  32  32  32
#     4  10  19  32  50  78 110 144 174 214 270 332
#     4   9  17  30  49  77 106 135 181 216 259 324
#     4   8  16  30  49  76 105 134 179 219 258 310
#     4  10  19  31  51  82 106 138 179 228 268 306
#
# _framework density 20.329861000000001
#
# number of rings (size 3 to 8) (size 9 to 14) (size 15 to 20)
#    0.000    2.857    0.000    1.286    0.000    5.143 
#    0.000    0.000    0.000    0.000  163.429    0.000 
#    0.000    0.000    0.000    0.000    0.000    0.000 
#
# Total GULP energy -156106.537143 kJ/mol
# GULP energy per Si atom -5575.233469 kJ/mol
# Density = 2.028359 g / cm^3
# Si number density = 20.329861 Si / 1000 Ang^3
#
#
#
# Elastic Constant Matrix: (Units=GPa)
#
#
# Indices 1 2 3 4 5 6 
#
# 1 169.2586 57.4247 34.9286 0.0000 0.0000 0.0000
# 2 57.4247 119.5116 20.0964 0.0000 0.0000 0.0000
# 3 34.9286 20.0964 44.4756 0.0000 0.0000 0.0000
# 4 0.0000 0.0000 0.0000 -14.4864 0.0000 0.0000
# 5 0.0000 0.0000 0.0000 0.0000 -7.0986 0.0000
# 6 0.0000 0.0000 0.0000 0.0000 0.0000 62.2174
#
#
#
# Elastic Compliance Matrix: (Units=1/GPa)
#
#
# Indices 1 2 3 4 5 6 
#
# 1 0.007929 -0.002990 -0.004876 0.000000 0.000000 0.000000
# 2 -0.002990 0.010183 -0.002253 0.000000 0.000000 0.000000
# 3 -0.004876 -0.002253 0.027331 0.000000 0.000000 0.000000
# 4 0.000000 0.000000 0.000000 -0.069030 0.000000 0.000000
# 5 0.000000 0.000000 0.000000 0.000000 -0.140873 0.000000
# 6 0.000000 0.000000 0.000000 0.000000 0.000000 0.016073
#
#
# Mechanical properties :
#
#
# Convention : Reuss Voigt Hill
#
# Bulk Modulus (GPa) = 39.67371 62.01612 50.84491
# Shear Modulus (GPa) = -41.75433 22.84623 -9.45405
#
# Velocity S-wave (km/s) = -4.53685 3.35591 -2.15880
# Velocity P-wave (km/s) = 2.80832 6.75184 4.34170
#
# Compressibility (1/GPa) = 0.02520561
#
# Stress axis : x y z
#
# Youngs Moduli (GPa) = 126.12498 98.20448 36.58784
#
# Poissons Ratio (x) = 0.29361 0.17839
# Poissons Ratio (y) = 0.37709 0.08244
# Poissons Ratio (z) = 0.61496 0.22127
#
# Static dielectric constant tensor:
#      x y z
#    x 1.750560 0.000000 0.000000 
#    y 0.000000 1.756940 0.000000 
#    z 0.000000 0.000000 1.711200 
# 
# From -- ./inp_files/17538.got.cif
#   From: 2010.05.17/outbox.cif.g08.bks.cpg/sg70_9_cif.got.tgz:17538.got - 2010.06.03 15:57:51.
