data_PCOD9514694
_publ_section_title
;
Structure prediction by ZEFSAII (Michael W. Deem and Ramdas Pophale) SiO2 
 PCOD9514694
Probable space group: F D D D
;
_chemical_formula_sum "Si O2"
_cell_formula_units_Z 208
_cell_length_a 23.409445
_cell_length_b 16.910382
_cell_length_c 27.159247
_cell_angle_alpha 90.000000
_cell_angle_beta 90.000000
_cell_angle_gamma 90.000000
_cell_volume 10751.331689
_symmetry_space_group_name_H-M "F D D D"
_symmetry_group_IT_number 70
_space_group.IT_coordinate_system_code '2'
_symmetry_cell_setting 'orthorhombic'
loop_
_space_group_symop_operation_xyz
x,y,z
1/4-x,1/4-y,z
x,1/4-y,1/4-z
1/4-x,y,1/4-z
-x,-y,-z
3/4+x,3/4+y,-z
-x,3/4+y,3/4+z
3/4+x,-y,3/4+z
x,1/2+y,1/2+z
1/4-x,3/4-y,1/2+z
x,3/4-y,3/4-z
1/4-x,1/2+y,3/4-z
-x,1/2-y,1/2-z
3/4+x,1/4+y,1/2-z
-x,1/4+y,1/4+z
3/4+x,1/2-y,1/4+z
1/2+x,y,1/2+z
3/4-x,1/4-y,1/2+z
1/2+x,1/4-y,3/4-z
3/4-x,y,3/4-z
1/2-x,-y,1/2-z
1/4+x,3/4+y,1/2-z
1/2-x,3/4+y,1/4+z
1/4+x,-y,1/4+z
1/2+x,1/2+y,z
3/4-x,3/4-y,z
1/2+x,3/4-y,1/4-z
3/4-x,1/2+y,1/4-z
1/2-x,1/2-y,-z
1/4+x,1/4+y,-z
1/2-x,1/4+y,3/4+z
1/4+x,1/2-y,3/4+z
loop_
_atom_site_type_symbol
_atom_site_label
_atom_site_fract_x
_atom_site_fract_y
_atom_site_fract_z
Si Si1 0.703807 0.449250 0.962433
Si Si2 0.144441 0.486737 0.560811
Si Si3 0.189220 0.264009 0.473465
Si Si4 0.170225 0.241728 0.704837
Si Si5 0.125000 0.125000 0.625000
Si Si6 0.932643 0.422773 0.128736
Si Si7 0.625000 0.125000 0.625000
Si Si8 0.200240 0.348163 0.101933
O O1 0.690893 0.356202 0.957132
O O2 0.769653 0.465555 0.978750
O O3 0.691869 0.501652 0.914299
O O4 0.663794 0.481362 0.005783
O O5 0.159480 0.567736 0.588475
O O6 0.076898 0.472311 0.569479
O O7 0.174383 0.418141 0.593713
O O8 0.250000 0.250000 0.500000
O O9 0.134777 0.247479 0.509418
O O10 0.185455 0.206419 0.426615
O O11 0.161070 0.179079 0.661302
O O12 0.179095 0.324201 0.676687
O O13 0.875000 0.375000 0.137177
O O14 0.983440 0.361558 0.140525
#
# Coordination Sequence:
#
# PCOD9514694 Si02
#       8
#    32  32  32  32   8  32   8  32
#     4  11  25  43  67  94 138 176 219 281 329 411
#     4  10  19  40  70  91 127 163 225 266 329 382
#     4  12  26  42  69  97 135 182 223 276 343 411
#     4  11  25  39  63  99 128 171 222 263 335 398
#     4  12  24  34  60  94 134 158 220 268 306 404
#     4  11  27  44  65  96 139 174 222 281 348 403
#     4   8  20  34  68  98 114 158 220 276 312 390
#     4   9  20  40  65  90 121 172 212 272 321 398
#
# _framework density 19.346440000000001
#
# number of rings (size 3 to 8) (size 9 to 14) (size 15 to 20)
#    0.000    1.538    1.538    3.231   17.231    0.000 
#    0.000    3.846    0.000    0.000    0.000    0.000 
#    0.000    0.000    0.000    0.000    0.000    0.000 
#
# Total GULP energy -290050.181373 kJ/mol
# GULP energy per Si atom -5577.888103 kJ/mol
# Density = 1.930241 g / cm^3
# Si number density = 19.346440 Si / 1000 Ang^3
#
#
#
# Elastic Constant Matrix: (Units=GPa)
#
#
# Indices 1 2 3 4 5 6 
#
# 1 155.8095 45.1011 56.3605 0.0000 0.0000 0.0000
# 2 45.1011 73.7070 14.4078 0.0000 0.0000 0.0000
# 3 56.3605 14.4078 89.0682 0.0000 0.0000 0.0000
# 4 0.0000 0.0000 0.0000 28.5708 0.0000 0.0000
# 5 0.0000 0.0000 0.0000 0.0000 23.9858 0.0000
# 6 0.0000 0.0000 0.0000 0.0000 0.0000 9.5722
#
#
#
# Elastic Compliance Matrix: (Units=1/GPa)
#
#
# Indices 1 2 3 4 5 6 
#
# 1 0.009803 -0.004942 -0.005404 0.000000 0.000000 0.000000
# 2 -0.004942 0.016502 0.000458 0.000000 0.000000 0.000000
# 3 -0.005404 0.000458 0.014573 0.000000 0.000000 0.000000
# 4 0.000000 0.000000 0.000000 0.035001 0.000000 0.000000
# 5 0.000000 0.000000 0.000000 0.000000 0.041691 0.000000
# 6 0.000000 0.000000 0.000000 0.000000 0.000000 0.104469
#
#
# Mechanical properties :
#
#
# Convention : Reuss Voigt Hill
#
# Bulk Modulus (GPa) = 47.38975 61.14707 54.26841
# Shear Modulus (GPa) = 20.09248 25.94014 23.01631
#
# Velocity S-wave (km/s) = 3.22617 3.66570 3.45293
# Velocity P-wave (km/s) = 6.19888 7.04212 6.63391
#
# Compressibility (1/GPa) = 0.02110161
#
# Stress axis : x y z
#
# Youngs Moduli (GPa) = 102.00452 60.59901 68.62117
#
# Poissons Ratio (x) = 0.29950 0.37083
# Poissons Ratio (y) = 0.50415 -0.03143
# Poissons Ratio (z) = 0.55123 -0.02776
#
# Static dielectric constant tensor:
#      x y z
#    x 1.732520 0.000000 0.000000 
#    y 0.000000 1.746810 0.000000 
#    z 0.000000 0.000000 1.625700 
# 
# From -- ./inp_files/61280.got.cif
#   From: 2010.05.17/outbox.cif.g08.bks.cpg/sg70_31_cif.got.tgz:61280.got - 2010.06.03 15:57:51.
