data_PCOD9514606
_publ_section_title
;
Structure prediction by ZEFSAII (Michael W. Deem and Ramdas Pophale) SiO2 
 PCOD9514606
Probable space group: F D D D
;
_chemical_formula_sum "Si O2"
_cell_formula_units_Z 144
_cell_length_a 16.507353
_cell_length_b 14.236661
_cell_length_c 26.459397
_cell_angle_alpha 90.000000
_cell_angle_beta 90.000000
_cell_angle_gamma 90.000000
_cell_volume 6218.212005
_symmetry_space_group_name_H-M "F D D D"
_symmetry_group_IT_number 70
_space_group.IT_coordinate_system_code '2'
_symmetry_cell_setting 'orthorhombic'
loop_
_space_group_symop_operation_xyz
x,y,z
1/4-x,1/4-y,z
x,1/4-y,1/4-z
1/4-x,y,1/4-z
-x,-y,-z
3/4+x,3/4+y,-z
-x,3/4+y,3/4+z
3/4+x,-y,3/4+z
x,1/2+y,1/2+z
1/4-x,3/4-y,1/2+z
x,3/4-y,3/4-z
1/4-x,1/2+y,3/4-z
-x,1/2-y,1/2-z
3/4+x,1/4+y,1/2-z
-x,1/4+y,1/4+z
3/4+x,1/2-y,1/4+z
1/2+x,y,1/2+z
3/4-x,1/4-y,1/2+z
1/2+x,1/4-y,3/4-z
3/4-x,y,3/4-z
1/2-x,-y,1/2-z
1/4+x,3/4+y,1/2-z
1/2-x,3/4+y,1/4+z
1/4+x,-y,1/4+z
1/2+x,1/2+y,z
3/4-x,3/4-y,z
1/2+x,3/4-y,1/4-z
3/4-x,1/2+y,1/4-z
1/2-x,1/2-y,-z
1/4+x,1/4+y,-z
1/2-x,1/4+y,3/4+z
1/4+x,1/2-y,3/4+z
loop_
_atom_site_type_symbol
_atom_site_label
_atom_site_fract_x
_atom_site_fract_y
_atom_site_fract_z
Si Si1 0.715022 0.098228 0.345594
Si Si2 0.037285 0.159275 0.683829
Si Si3 0.875000 0.375000 0.464678
Si Si4 0.328669 0.249818 0.702044
Si Si5 0.245123 0.279258 0.902126
O O1 0.625000 0.125000 0.325577
O O2 0.754285 0.196728 0.361331
O O3 0.765812 0.020027 0.315186
O O4 0.700983 0.047888 0.400146
O O5 0.125000 0.125000 0.703078
O O6 0.036415 0.125000 0.625000
O O7 0.966178 0.098450 0.708879
O O8 0.934927 0.317359 0.500866
O O9 0.922956 0.447486 0.430478
O O10 0.424548 0.241960 0.692355
O O11 0.217732 0.375000 0.875000
#
# Coordination Sequence:
#
# PCOD9514606 Si02
#       5
#    32  32  16  32  32
#     4   9  17  35  63  90 121 164 210 266 328 383
#     4   9  18  35  61  97 115 160 221 266 315 391
#     4  12  23  38  58 100 126 170 208 272 338 376
#     4  10  19  37  65  87 123 165 211 257 330 394
#     4  11  22  39  59  94 129 167 215 266 325 397
#
# _framework density 23.157782000000001
#
# number of rings (size 3 to 8) (size 9 to 14) (size 15 to 20)
#    0.000    2.000    3.333    4.333    0.000    0.000 
#   16.000    0.000    0.000    9.333    5.778    0.000 
#    0.000    0.000    0.000    0.000    0.000    0.000 
#
# Total GULP energy -201143.640296 kJ/mol
# GULP energy per Si atom -5587.323342 kJ/mol
# Density = 2.310507 g / cm^3
# Si number density = 23.157782 Si / 1000 Ang^3
#
#
#
# Elastic Constant Matrix: (Units=GPa)
#
#
# Indices 1 2 3 4 5 6 
#
# 1 97.3912 74.0438 22.1398 0.0000 0.0000 0.0000
# 2 74.0438 191.7309 29.9520 0.0000 0.0000 0.0000
# 3 22.1398 29.9520 53.5658 0.0000 0.0000 0.0000
# 4 0.0000 0.0000 0.0000 10.4427 0.0000 0.0000
# 5 0.0000 0.0000 0.0000 0.0000 10.7572 0.0000
# 6 0.0000 0.0000 0.0000 0.0000 0.0000 35.8800
#
#
#
# Elastic Compliance Matrix: (Units=1/GPa)
#
#
# Indices 1 2 3 4 5 6 
#
# 1 0.015035 -0.005298 -0.003252 0.000000 0.000000 0.000000
# 2 -0.005298 0.007582 -0.002050 0.000000 0.000000 0.000000
# 3 -0.003252 -0.002050 0.021159 0.000000 0.000000 0.000000
# 4 0.000000 0.000000 0.000000 0.095761 0.000000 0.000000
# 5 0.000000 0.000000 0.000000 0.000000 0.092961 0.000000
# 6 0.000000 0.000000 0.000000 0.000000 0.000000 0.027871
#
#
# Mechanical properties :
#
#
# Convention : Reuss Voigt Hill
#
# Bulk Modulus (GPa) = 44.29387 66.10657 55.20022
# Shear Modulus (GPa) = 17.29541 25.85279 21.57410
#
# Velocity S-wave (km/s) = 2.73582 3.34485 3.05555
# Velocity P-wave (km/s) = 5.39890 6.59738 6.02800
#
# Compressibility (1/GPa) = 0.02257649
#
# Stress axis : x y z
#
# Youngs Moduli (GPa) = 66.50995 131.89079 47.26189
#
# Poissons Ratio (x) = 0.69882 0.15368
# Poissons Ratio (y) = 0.35240 0.09687
# Poissons Ratio (z) = 0.21627 0.27033
#
# Static dielectric constant tensor:
#      x y z
#    x 2.398660 0.000000 0.000000 
#    y 0.000000 1.878820 0.000000 
#    z 0.000000 0.000000 1.880370 
# 
# From -- ./inp_files/66490.got.cif
#   From: 2010.05.17/outbox.cif.g08.bks.cpg/sg70_34_cif.got.tgz:66490.got - 2010.06.03 15:57:51.
