data_PCOD9514771
_publ_section_title
;
Structure prediction by ZEFSAII (Michael W. Deem and Ramdas Pophale) SiO2 
 PCOD9514771
Probable space group: F D D D
;
_chemical_formula_sum "Si O2"
_cell_formula_units_Z 128
_cell_length_a 13.416386
_cell_length_b 22.215275
_cell_length_c 17.616385
_cell_angle_alpha 90.000000
_cell_angle_beta 90.000000
_cell_angle_gamma 90.000000
_cell_volume 5250.540727
_symmetry_space_group_name_H-M "F D D D"
_symmetry_group_IT_number 70
_space_group.IT_coordinate_system_code '2'
_symmetry_cell_setting 'orthorhombic'
loop_
_space_group_symop_operation_xyz
x,y,z
1/4-x,1/4-y,z
x,1/4-y,1/4-z
1/4-x,y,1/4-z
-x,-y,-z
3/4+x,3/4+y,-z
-x,3/4+y,3/4+z
3/4+x,-y,3/4+z
x,1/2+y,1/2+z
1/4-x,3/4-y,1/2+z
x,3/4-y,3/4-z
1/4-x,1/2+y,3/4-z
-x,1/2-y,1/2-z
3/4+x,1/4+y,1/2-z
-x,1/4+y,1/4+z
3/4+x,1/2-y,1/4+z
1/2+x,y,1/2+z
3/4-x,1/4-y,1/2+z
1/2+x,1/4-y,3/4-z
3/4-x,y,3/4-z
1/2-x,-y,1/2-z
1/4+x,3/4+y,1/2-z
1/2-x,3/4+y,1/4+z
1/4+x,-y,1/4+z
1/2+x,1/2+y,z
3/4-x,3/4-y,z
1/2+x,3/4-y,1/4-z
3/4-x,1/2+y,1/4-z
1/2-x,1/2-y,-z
1/4+x,1/4+y,-z
1/2-x,1/4+y,3/4+z
1/4+x,1/2-y,3/4+z
loop_
_atom_site_type_symbol
_atom_site_label
_atom_site_fract_x
_atom_site_fract_y
_atom_site_fract_z
Si Si1 0.125000 0.523464 0.625000
Si Si2 0.721908 0.463591 0.672796
Si Si3 0.594778 0.874937 0.251062
Si Si4 0.875000 0.875000 0.004082
Si Si5 0.409862 0.228049 0.633600
O O1 0.129118 0.567602 0.697494
O O2 0.231569 0.492305 0.627147
O O3 0.625000 0.487452 0.625000
O O4 0.750000 0.500000 0.750000
O O5 0.684792 0.398283 0.699894
O O6 0.822075 0.474864 0.626154
O O7 0.486117 0.876311 0.212453
O O8 0.607602 0.810491 0.290155
O O9 0.591067 0.926055 0.318077
#
# Coordination Sequence:
#
# PCOD9514771 Si02
#       5
#    16  32  32  16  32
#     4   7  10  20  44  76 102 132 194 248 304 368
#     4  10  20  34  55  83 123 164 211 267 337 409
#     4   8  14  27  50  78 111 150 207 261 318 391
#     4   7  10  20  44  72 100 136 195 254 296 356
#     4   8  14  27  50  82 110 151 203 259 327 397
#
# _framework density 24.378442
#
# number of rings (size 3 to 8) (size 9 to 14) (size 15 to 20)
#    0.000    3.750    0.000    3.000    0.000    0.000 
#    0.000   10.000    5.500   24.000    0.000    3.500 
#    0.000    0.000    0.000    0.000    0.000    0.000 
#
# Total GULP energy -178535.407031 kJ/mol
# GULP energy per Si atom -5579.231470 kJ/mol
# Density = 2.432296 g / cm^3
# Si number density = 24.378442 Si / 1000 Ang^3
#
#
#
# Elastic Constant Matrix: (Units=GPa)
#
#
# Indices 1 2 3 4 5 6 
#
# 1 284.4509 85.3418 56.1796 0.0000 0.0000 0.0000
# 2 85.3418 99.7271 52.0124 0.0000 0.0000 0.0000
# 3 56.1796 52.0124 94.1890 0.0000 0.0000 0.0000
# 4 0.0000 0.0000 0.0000 23.4770 0.0000 0.0000
# 5 0.0000 0.0000 0.0000 0.0000 39.8082 0.0000
# 6 0.0000 0.0000 0.0000 0.0000 0.0000 17.7490
#
#
#
# Elastic Compliance Matrix: (Units=1/GPa)
#
#
# Indices 1 2 3 4 5 6 
#
# 1 0.004776 -0.003653 -0.000831 0.000000 0.000000 0.000000
# 2 -0.003653 0.016878 -0.007141 0.000000 0.000000 0.000000
# 3 -0.000831 -0.007141 0.015056 0.000000 0.000000 0.000000
# 4 0.000000 0.000000 0.000000 0.042595 0.000000 0.000000
# 5 0.000000 0.000000 0.000000 0.000000 0.025120 0.000000
# 6 0.000000 0.000000 0.000000 0.000000 0.000000 0.056341
#
#
# Mechanical properties :
#
#
# Convention : Reuss Voigt Hill
#
# Bulk Modulus (GPa) = 74.30175 96.15940 85.23057
# Shear Modulus (GPa) = 26.52451 35.19572 30.86011
#
# Velocity S-wave (km/s) = 3.30211 3.80376 3.56178
# Velocity P-wave (km/s) = 6.71440 7.66952 7.20780
#
# Compressibility (1/GPa) = 0.01345863
#
# Stress axis : x y z
#
# Youngs Moduli (GPa) = 209.38869 59.24742 66.41792
#
# Poissons Ratio (x) = 0.21646 0.05520
# Poissons Ratio (y) = 0.76500 0.47431
# Poissons Ratio (z) = 0.17401 0.42311
#
# Static dielectric constant tensor:
#      x y z
#    x 1.921640 0.000000 0.000000 
#    y 0.000000 1.893100 0.000000 
#    z 0.000000 0.000000 2.104410 
# 
# From -- ./inp_files/50110.got.cif
#   From: 2010.05.17/outbox.cif.g08.bks.cpg/sg70_26_cif.got.tgz:50110.got - 2010.06.03 15:57:51.
