data_PCOD9514521
_publ_section_title
;
Structure prediction by ZEFSAII (Michael W. Deem and Ramdas Pophale) SiO2 
 PCOD9514521
Probable space group: F D D D
;
_chemical_formula_sum "Si O2"
_cell_formula_units_Z 240
_cell_length_a 27.745056
_cell_length_b 22.087826
_cell_length_c 21.784784
_cell_angle_alpha 90.000000
_cell_angle_beta 90.000000
_cell_angle_gamma 90.000000
_cell_volume 13350.324940
_symmetry_space_group_name_H-M "F D D D"
_symmetry_group_IT_number 70
_space_group.IT_coordinate_system_code '2'
_symmetry_cell_setting 'orthorhombic'
loop_
_space_group_symop_operation_xyz
x,y,z
1/4-x,1/4-y,z
x,1/4-y,1/4-z
1/4-x,y,1/4-z
-x,-y,-z
3/4+x,3/4+y,-z
-x,3/4+y,3/4+z
3/4+x,-y,3/4+z
x,1/2+y,1/2+z
1/4-x,3/4-y,1/2+z
x,3/4-y,3/4-z
1/4-x,1/2+y,3/4-z
-x,1/2-y,1/2-z
3/4+x,1/4+y,1/2-z
-x,1/4+y,1/4+z
3/4+x,1/2-y,1/4+z
1/2+x,y,1/2+z
3/4-x,1/4-y,1/2+z
1/2+x,1/4-y,3/4-z
3/4-x,y,3/4-z
1/2-x,-y,1/2-z
1/4+x,3/4+y,1/2-z
1/2-x,3/4+y,1/4+z
1/4+x,-y,1/4+z
1/2+x,1/2+y,z
3/4-x,3/4-y,z
1/2+x,3/4-y,1/4-z
3/4-x,1/2+y,1/4-z
1/2-x,1/2-y,-z
1/4+x,1/4+y,-z
1/2-x,1/4+y,3/4+z
1/4+x,1/2-y,3/4+z
loop_
_atom_site_type_symbol
_atom_site_label
_atom_site_fract_x
_atom_site_fract_y
_atom_site_fract_z
Si Si1 0.388021 0.804597 0.632477
Si Si2 0.755766 0.294586 0.058957
Si Si3 0.026582 0.933015 0.206462
Si Si4 0.625536 0.788900 0.278459
Si Si5 0.077147 0.802088 0.658689
Si Si6 0.692199 0.767714 0.791017
Si Si7 0.425187 0.125000 0.625000
Si Si8 0.576786 0.301951 0.094154
O O1 0.375000 0.875000 0.626873
O O2 0.439671 0.794726 0.665296
O O3 0.387678 0.771109 0.566672
O O4 0.345947 0.772959 0.672112
O O5 0.741412 0.363912 0.041718
O O6 0.718808 0.280266 0.115298
O O7 0.750000 0.250000 0.000000
O O8 0.077475 0.938463 0.241303
O O9 0.032910 0.958964 0.136626
O O10 0.986964 0.978021 0.231545
O O11 0.582640 0.781560 0.228489
O O12 0.608276 0.838478 0.327433
O O13 0.125000 0.777646 0.625000
O O14 0.078236 0.874977 0.654812
O O15 0.703522 0.825310 0.834586
O O16 0.670139 0.788743 0.727311
O O17 0.625000 0.277560 0.125000
#
# Coordination Sequence:
#
# PCOD9514521 Si02
#       8
#    32  32  32  32  32  32  16  32
#     4  11  23  40  56  83 125 162 193 244 316 367
#     4  11  23  38  60  87 119 162 203 241 305 372
#     4  10  21  37  60  85 118 153 197 254 298 360
#     4  10  20  37  61  86 109 153 201 246 292 365
#     4   8  16  33  57  83 108 138 191 237 293 340
#     4  11  21  39  58  85 122 153 198 247 306 350
#     4  10  22  34  62  88 115 149 198 254 286 356
#     4  10  19  35  60  86 112 151 196 250 291 346
#
# _framework density 17.97709
#
# number of rings (size 3 to 8) (size 9 to 14) (size 15 to 20)
#    0.000    1.867    2.667    2.400    3.733    0.000 
#    0.000    5.333    0.000    2.800    0.000    0.000 
#    0.000    0.000    0.000    0.000    0.000    0.000 
#
# Total GULP energy -334106.426559 kJ/mol
# GULP energy per Si atom -5568.440443 kJ/mol
# Density = 1.793617 g / cm^3
# Si number density = 17.977090 Si / 1000 Ang^3
#
#
#
# Elastic Constant Matrix: (Units=GPa)
#
#
# Indices 1 2 3 4 5 6 
#
# 1 20.9587 6.2919 -5.1688 0.0000 0.0000 0.0000
# 2 6.2919 72.5606 25.0479 0.0000 0.0000 0.0000
# 3 -5.1688 25.0479 96.1563 0.0000 0.0000 0.0000
# 4 0.0000 0.0000 0.0000 29.5746 0.0000 0.0000
# 5 0.0000 0.0000 0.0000 0.0000 27.1574 0.0000
# 6 0.0000 0.0000 0.0000 0.0000 0.0000 10.3653
#
#
#
# Elastic Compliance Matrix: (Units=1/GPa)
#
#
# Indices 1 2 3 4 5 6 
#
# 1 0.050512 -0.005843 0.004237 0.000000 0.000000 0.000000
# 2 -0.005843 0.015819 -0.004435 0.000000 0.000000 0.000000
# 3 0.004237 -0.004435 0.011783 0.000000 0.000000 0.000000
# 4 0.000000 0.000000 0.000000 0.033813 0.000000 0.000000
# 5 0.000000 0.000000 0.000000 0.000000 0.036822 0.000000
# 6 0.000000 0.000000 0.000000 0.000000 0.000000 0.096476
#
#
# Mechanical properties :
#
#
# Convention : Reuss Voigt Hill
#
# Bulk Modulus (GPa) = 15.14394 26.89084 21.01739
# Shear Modulus (GPa) = 17.90085 24.31976 21.11031
#
# Velocity S-wave (km/s) = 3.15899 3.68206 3.43051
# Velocity P-wave (km/s) = 4.66347 5.75045 5.23524
#
# Compressibility (1/GPa) = 0.06603300
#
# Stress axis : x y z
#
# Youngs Moduli (GPa) = 19.79737 63.21466 84.86997
#
# Poissons Ratio (x) = 0.36934 -0.35961
# Poissons Ratio (y) = 0.11567 0.37638
# Poissons Ratio (z) = -0.08389 0.28034
#
# Static dielectric constant tensor:
#      x y z
#    x 1.618900 0.000000 0.000000 
#    y 0.000000 1.604650 0.000000 
#    z 0.000000 0.000000 1.654650 
# 
# From -- ./inp_files/47819.got.cif
#   From: 2010.05.17/outbox.cif.g08.bks.cpg/sg70_24_cif.got.tgz:47819.got - 2010.06.03 15:57:51.
