data_PCOD9514410
_publ_section_title
;
Structure prediction by ZEFSAII (Michael W. Deem and Ramdas Pophale) SiO2 
 PCOD9514410
Probable space group: F D D D
;
_chemical_formula_sum "Si O2"
_cell_formula_units_Z 136
_cell_length_a 9.920592
_cell_length_b 26.192626
_cell_length_c 25.292031
_cell_angle_alpha 90.000000
_cell_angle_beta 90.000000
_cell_angle_gamma 90.000000
_cell_volume 6572.042090
_symmetry_space_group_name_H-M "F D D D"
_symmetry_group_IT_number 70
_space_group.IT_coordinate_system_code '2'
_symmetry_cell_setting 'orthorhombic'
loop_
_space_group_symop_operation_xyz
x,y,z
1/4-x,1/4-y,z
x,1/4-y,1/4-z
1/4-x,y,1/4-z
-x,-y,-z
3/4+x,3/4+y,-z
-x,3/4+y,3/4+z
3/4+x,-y,3/4+z
x,1/2+y,1/2+z
1/4-x,3/4-y,1/2+z
x,3/4-y,3/4-z
1/4-x,1/2+y,3/4-z
-x,1/2-y,1/2-z
3/4+x,1/4+y,1/2-z
-x,1/4+y,1/4+z
3/4+x,1/2-y,1/4+z
1/2+x,y,1/2+z
3/4-x,1/4-y,1/2+z
1/2+x,1/4-y,3/4-z
3/4-x,y,3/4-z
1/2-x,-y,1/2-z
1/4+x,3/4+y,1/2-z
1/2-x,3/4+y,1/4+z
1/4+x,-y,1/4+z
1/2+x,1/2+y,z
3/4-x,3/4-y,z
1/2+x,3/4-y,1/4-z
3/4-x,1/2+y,1/4-z
1/2-x,1/2-y,-z
1/4+x,1/4+y,-z
1/2-x,1/4+y,3/4+z
1/4+x,1/2-y,3/4+z
loop_
_atom_site_type_symbol
_atom_site_label
_atom_site_fract_x
_atom_site_fract_y
_atom_site_fract_z
Si Si1 0.125000 0.625000 0.125000
Si Si2 0.688337 0.532059 0.550520
Si Si3 0.140722 0.049256 0.322424
Si Si4 0.097261 0.373724 0.187639
Si Si5 0.556650 0.548642 0.441528
O O1 0.190357 0.584222 0.083920
O O2 0.831577 0.505339 0.559421
O O3 0.656526 0.535580 0.488509
O O4 0.560863 0.494633 0.567878
O O5 0.284753 0.068390 0.302110
O O6 0.025175 0.087396 0.300736
O O7 0.132566 0.055784 0.386145
O O8 0.125000 0.377494 0.125000
O O9 0.228635 0.400198 0.210743
#
# Coordination Sequence:
#
# PCOD9514410 Si02
#       5
#     8  32  32  32  32
#     4  12  20  32  48  80 114 144 184 236 296 342
#     4  10  19  30  50  77 113 144 188 238 299 346
#     4   9  15  30  49  75 110 142 181 240 290 337
#     4   8  15  26  50  76 102 137 181 235 288 335
#     4   9  17  32  50  77 109 147 183 238 304 345
#
# _framework density 20.693721
#
# number of rings (size 3 to 8) (size 9 to 14) (size 15 to 20)
#    0.000    2.824    2.353    1.412    0.000    3.765 
#    0.000    0.000    0.000    5.647    0.000    0.824 
#    0.000    0.000    0.000    0.000    0.000    0.000 
#
# Total GULP energy -189288.000732 kJ/mol
# GULP energy per Si atom -5567.294139 kJ/mol
# Density = 2.064662 g / cm^3
# Si number density = 20.693721 Si / 1000 Ang^3
#
#
#
# Elastic Constant Matrix: (Units=GPa)
#
#
# Indices 1 2 3 4 5 6 
#
# 1 65.4746 45.8330 18.0110 0.0000 0.0000 0.0000
# 2 45.8330 128.8363 19.7803 0.0000 0.0000 0.0000
# 3 18.0110 19.7803 65.5780 0.0000 0.0000 0.0000
# 4 0.0000 0.0000 0.0000 11.9132 0.0000 0.0000
# 5 0.0000 0.0000 0.0000 0.0000 12.2782 0.0000
# 6 0.0000 0.0000 0.0000 0.0000 0.0000 39.0604
#
#
#
# Elastic Compliance Matrix: (Units=1/GPa)
#
#
# Indices 1 2 3 4 5 6 
#
# 1 0.021167 -0.006960 -0.003714 0.000000 0.000000 0.000000
# 2 -0.006960 0.010427 -0.001234 0.000000 0.000000 0.000000
# 3 -0.003714 -0.001234 0.016641 0.000000 0.000000 0.000000
# 4 0.000000 0.000000 0.000000 0.083940 0.000000 0.000000
# 5 0.000000 0.000000 0.000000 0.000000 0.081445 0.000000
# 6 0.000000 0.000000 0.000000 0.000000 0.000000 0.025601
#
#
# Mechanical properties :
#
#
# Convention : Reuss Voigt Hill
#
# Bulk Modulus (GPa) = 40.95015 47.45972 44.20493
# Shear Modulus (GPa) = 18.43817 24.40134 21.41976
#
# Velocity S-wave (km/s) = 2.98821 3.43762 3.22076
# Velocity P-wave (km/s) = 5.63360 6.22419 5.93624
#
# Compressibility (1/GPa) = 0.02441994
#
# Stress axis : x y z
#
# Youngs Moduli (GPa) = 47.24401 95.90407 60.09172
#
# Poissons Ratio (x) = 0.66747 0.22319
# Poissons Ratio (y) = 0.32881 0.07413
# Poissons Ratio (z) = 0.17547 0.11831
#
# Static dielectric constant tensor:
#      x y z
#    x 1.787020 0.000000 0.000000 
#    y 0.000000 1.857720 0.000000 
#    z 0.000000 0.000000 1.743510 
# 
# From -- ./inp_files/20749.got.cif
#   From: 2010.05.17/outbox.cif.g08.bks.cpg/sg70_11_cif.got.tgz:20749.got - 2010.06.03 15:57:51.
