data_PCOD9514072
_publ_section_title
;
Structure prediction by ZEFSAII (Michael W. Deem and Ramdas Pophale) SiO2 
 PCOD9514072
Probable space group: F D D D
;
_chemical_formula_sum "Si O2"
_cell_formula_units_Z 144
_cell_length_a 27.027978
_cell_length_b 25.404021
_cell_length_c 11.798273
_cell_angle_alpha 90.000000
_cell_angle_beta 90.000000
_cell_angle_gamma 90.000000
_cell_volume 8100.922193
_symmetry_space_group_name_H-M "F D D D"
_symmetry_group_IT_number 70
_space_group.IT_coordinate_system_code '2'
_symmetry_cell_setting 'orthorhombic'
loop_
_space_group_symop_operation_xyz
x,y,z
1/4-x,1/4-y,z
x,1/4-y,1/4-z
1/4-x,y,1/4-z
-x,-y,-z
3/4+x,3/4+y,-z
-x,3/4+y,3/4+z
3/4+x,-y,3/4+z
x,1/2+y,1/2+z
1/4-x,3/4-y,1/2+z
x,3/4-y,3/4-z
1/4-x,1/2+y,3/4-z
-x,1/2-y,1/2-z
3/4+x,1/4+y,1/2-z
-x,1/4+y,1/4+z
3/4+x,1/2-y,1/4+z
1/2+x,y,1/2+z
3/4-x,1/4-y,1/2+z
1/2+x,1/4-y,3/4-z
3/4-x,y,3/4-z
1/2-x,-y,1/2-z
1/4+x,3/4+y,1/2-z
1/2-x,3/4+y,1/4+z
1/4+x,-y,1/4+z
1/2+x,1/2+y,z
3/4-x,3/4-y,z
1/2+x,3/4-y,1/4-z
3/4-x,1/2+y,1/4-z
1/2-x,1/2-y,-z
1/4+x,1/4+y,-z
1/2-x,1/4+y,3/4+z
1/4+x,1/2-y,3/4+z
loop_
_atom_site_type_symbol
_atom_site_label
_atom_site_fract_x
_atom_site_fract_y
_atom_site_fract_z
Si Si1 0.079483 0.785004 0.815725
Si Si2 0.754575 0.923140 0.961442
Si Si3 0.613074 0.683496 0.991652
Si Si4 0.157535 0.875000 0.875000
Si Si5 0.431797 0.114516 0.370384
O O1 0.103129 0.728027 0.812419
O O2 0.119196 0.825577 0.871388
O O3 0.070329 0.809085 0.689238
O O4 0.028869 0.788282 0.885927
O O5 0.767746 0.875000 0.875000
O O6 0.804707 0.944827 0.014171
O O7 0.719539 0.899312 0.058403
O O8 0.625000 0.625000 0.948007
O O9 0.625000 0.684079 0.125000
O O10 0.190563 0.866050 0.763441
O O11 0.375000 0.134595 0.375000
#
# Coordination Sequence:
#
# PCOD9514072 Si02
#       5
#    32  32  32  16  32
#     4  10  19  34  58  85 115 144 188 237 281 341
#     4  10  18  37  57  82 115 148 183 231 294 329
#     4  11  22  36  51  85 125 149 179 231 293 349
#     4  10  16  32  58  84 110 132 200 242 264 318
#     4   9  16  32  58  83 108 141 188 238 274 325
#
# _framework density 17.775755
#
# number of rings (size 3 to 8) (size 9 to 14) (size 15 to 20)
#    0.000    2.000    7.778    2.000    0.000    0.889 
#    8.000    1.111    0.000    0.000    0.000    0.000 
#    0.000    0.000    0.000    0.000    0.000    0.000 
#
# Total GULP energy -200630.078524 kJ/mol
# GULP energy per Si atom -5573.057737 kJ/mol
# Density = 1.773530 g / cm^3
# Si number density = 17.775755 Si / 1000 Ang^3
#
#
#
# Elastic Constant Matrix: (Units=GPa)
#
#
# Indices 1 2 3 4 5 6 
#
# 1 103.5226 42.7860 29.3470 0.0000 0.0000 0.0000
# 2 42.7860 123.7065 24.6607 0.0000 0.0000 0.0000
# 3 29.3470 24.6607 92.3837 0.0000 0.0000 0.0001
# 4 0.0000 0.0000 0.0000 10.6477 0.0000 0.0001
# 5 0.0000 0.0000 0.0000 0.0000 8.2913 -0.0001
# 6 0.0000 0.0000 0.0001 0.0001 -0.0001 31.9985
#
#
#
# Elastic Compliance Matrix: (Units=1/GPa)
#
#
# Indices 1 2 3 4 5 6 
#
# 1 0.011938 -0.003562 -0.002841 0.000000 0.000000 0.000000
# 2 -0.003562 0.009601 -0.001431 0.000000 0.000000 0.000000
# 3 -0.002841 -0.001431 0.012109 0.000000 0.000000 0.000000
# 4 0.000000 0.000000 0.000000 0.093917 0.000000 0.000000
# 5 0.000000 0.000000 0.000000 0.000000 0.120608 0.000000
# 6 0.000000 0.000000 0.000000 0.000000 0.000000 0.031251
#
#
# Mechanical properties :
#
#
# Convention : Reuss Voigt Hill
#
# Bulk Modulus (GPa) = 55.62371 57.02225 56.32298
# Shear Modulus (GPa) = 16.60652 25.04210 20.82431
#
# Velocity S-wave (km/s) = 3.05982 3.75744 3.42643
# Velocity P-wave (km/s) = 6.62142 7.13952 6.88535
#
# Compressibility (1/GPa) = 0.01797795
#
# Stress axis : x y z
#
# Youngs Moduli (GPa) = 83.76959 104.15491 82.58315
#
# Poissons Ratio (x) = 0.37104 0.23463
# Poissons Ratio (y) = 0.29842 0.11820
# Poissons Ratio (z) = 0.23800 0.14907
#
# Static dielectric constant tensor:
#      x y z
#    x 1.625380 0.000000 0.000000 
#    y 0.000000 1.635100 0.000000 
#    z 0.000000 0.000000 1.647850 
# 
# From -- ./inp_files/20641.got.cif
#   From: 2010.05.17/outbox.cif.g08.bks.cpg/sg70_11_cif.got.tgz:20641.got - 2010.06.03 15:57:51.
