data_PCOD9514476
_publ_section_title
;
Structure prediction by ZEFSAII (Michael W. Deem and Ramdas Pophale) SiO2 
 PCOD9514476
Probable space group: F D D D
;
_chemical_formula_sum "Si O2"
_cell_formula_units_Z 168
_cell_length_a 15.686864
_cell_length_b 18.607030
_cell_length_c 27.944874
_cell_angle_alpha 90.000000
_cell_angle_beta 90.000000
_cell_angle_gamma 90.000000
_cell_volume 8156.716069
_symmetry_space_group_name_H-M "F D D D"
_symmetry_group_IT_number 70
_space_group.IT_coordinate_system_code '2'
_symmetry_cell_setting 'orthorhombic'
loop_
_space_group_symop_operation_xyz
x,y,z
1/4-x,1/4-y,z
x,1/4-y,1/4-z
1/4-x,y,1/4-z
-x,-y,-z
3/4+x,3/4+y,-z
-x,3/4+y,3/4+z
3/4+x,-y,3/4+z
x,1/2+y,1/2+z
1/4-x,3/4-y,1/2+z
x,3/4-y,3/4-z
1/4-x,1/2+y,3/4-z
-x,1/2-y,1/2-z
3/4+x,1/4+y,1/2-z
-x,1/4+y,1/4+z
3/4+x,1/2-y,1/4+z
1/2+x,y,1/2+z
3/4-x,1/4-y,1/2+z
1/2+x,1/4-y,3/4-z
3/4-x,y,3/4-z
1/2-x,-y,1/2-z
1/4+x,3/4+y,1/2-z
1/2-x,3/4+y,1/4+z
1/4+x,-y,1/4+z
1/2+x,1/2+y,z
3/4-x,3/4-y,z
1/2+x,3/4-y,1/4-z
3/4-x,1/2+y,1/4-z
1/2-x,1/2-y,-z
1/4+x,1/4+y,-z
1/2-x,1/4+y,3/4+z
1/4+x,1/2-y,3/4+z
loop_
_atom_site_type_symbol
_atom_site_label
_atom_site_fract_x
_atom_site_fract_y
_atom_site_fract_z
Si Si1 0.765012 0.022809 0.669042
Si Si2 0.951528 0.986718 0.341961
Si Si3 0.602539 0.953389 0.902452
Si Si4 0.125000 0.125000 0.125000
Si Si5 0.826766 0.654199 0.724113
Si Si6 0.848908 0.104100 0.820803
O O1 0.809728 0.015000 0.616776
O O2 0.686768 0.076857 0.658620
O O3 0.839526 0.054038 0.703066
O O4 0.730392 0.948268 0.688832
O O5 0.875000 0.957535 0.375000
O O6 0.027022 0.999632 0.380503
O O7 0.992818 0.936331 0.301338
O O8 0.924749 0.062312 0.319832
O O9 0.595947 0.875000 0.875000
O O10 0.590205 0.928054 0.956330
O O11 0.830416 0.660463 0.780772
O O12 0.875000 0.087213 0.875000
#
# Coordination Sequence:
#
# PCOD9514476 Si02
#       6
#    32  32  32   8  32  32
#     4  10  19  34  57  87 123 164 200 246 304 374
#     4   9  20  39  62  85 117 160 207 262 313 362
#     4   8  17  35  58  83 113 150 212 256 285 364
#     4  12  16  32  60  88 122 160 198 228 308 372
#     4  10  21  38  60  90 120 162 211 254 297 384
#     4  11  23  36  55  90 130 159 196 260 313 357
#
# _framework density 20.596525
#
# number of rings (size 3 to 8) (size 9 to 14) (size 15 to 20)
#    0.000    2.667    3.810    0.571    0.000    9.524 
#    0.000    3.810    0.000    9.143    0.000    0.000 
#    0.000    0.000    0.000    0.000    0.000    0.000 
#
# Total GULP energy -233867.397647 kJ/mol
# GULP energy per Si atom -5568.271373 kJ/mol
# Density = 2.054965 g / cm^3
# Si number density = 20.596525 Si / 1000 Ang^3
#
#
#
# Elastic Constant Matrix: (Units=GPa)
#
#
# Indices 1 2 3 4 5 6 
#
# 1 106.2053 22.8893 42.2295 0.0000 0.0000 0.0000
# 2 22.8893 53.4138 27.5708 0.0000 0.0000 0.0000
# 3 42.2295 27.5708 125.2396 0.0000 0.0000 0.0000
# 4 0.0000 0.0000 0.0000 13.7124 0.0000 0.0000
# 5 0.0000 0.0000 0.0000 0.0000 10.8042 0.0000
# 6 0.0000 0.0000 0.0000 0.0000 0.0000 11.0916
#
#
#
# Elastic Compliance Matrix: (Units=1/GPa)
#
#
# Indices 1 2 3 4 5 6 
#
# 1 0.011355 -0.003260 -0.003111 0.000000 0.000000 0.000000
# 2 -0.003260 0.022058 -0.003757 0.000000 0.000000 0.000000
# 3 -0.003111 -0.003757 0.009861 0.000000 0.000000 0.000000
# 4 0.000000 0.000000 0.000000 0.072926 0.000000 0.000000
# 5 0.000000 0.000000 0.000000 0.000000 0.092557 0.000000
# 6 0.000000 0.000000 0.000000 0.000000 0.000000 0.090159
#
#
# Mechanical properties :
#
#
# Convention : Reuss Voigt Hill
#
# Bulk Modulus (GPa) = 43.44418 52.24866 47.84642
# Shear Modulus (GPa) = 15.29777 19.93291 17.61534
#
# Velocity S-wave (km/s) = 2.72827 3.11429 2.92765
# Velocity P-wave (km/s) = 5.57345 6.19310 5.89143
#
# Compressibility (1/GPa) = 0.02301804
#
# Stress axis : x y z
#
# Youngs Moduli (GPa) = 88.06344 45.33517 101.41207
#
# Poissons Ratio (x) = 0.14780 0.31552
# Poissons Ratio (y) = 0.28711 0.38097
# Poissons Ratio (z) = 0.27398 0.17031
#
# Static dielectric constant tensor:
#      x y z
#    x 1.767820 0.000000 0.000000 
#    y 0.000000 1.765520 0.000000 
#    z 0.000000 0.000000 1.851750 
# 
# From -- ./inp_files/58466.got.cif
#   From: 2010.05.17/outbox.cif.g08.bks.cpg/sg70_30_cif.got.tgz:58466.got - 2010.06.03 15:57:51.
