data_PCOD9514934
_publ_section_title
;
Structure prediction by ZEFSAII (Michael W. Deem and Ramdas Pophale) SiO2 
 PCOD9514934
Probable space group: F D D D
;
_chemical_formula_sum "Si O2"
_cell_formula_units_Z 208
_cell_length_a 20.456618
_cell_length_b 28.337680
_cell_length_c 18.079865
_cell_angle_alpha 90.000000
_cell_angle_beta 90.000000
_cell_angle_gamma 90.000000
_cell_volume 10480.772895
_symmetry_space_group_name_H-M "F D D D"
_symmetry_group_IT_number 70
_space_group.IT_coordinate_system_code '2'
_symmetry_cell_setting 'orthorhombic'
loop_
_space_group_symop_operation_xyz
x,y,z
1/4-x,1/4-y,z
x,1/4-y,1/4-z
1/4-x,y,1/4-z
-x,-y,-z
3/4+x,3/4+y,-z
-x,3/4+y,3/4+z
3/4+x,-y,3/4+z
x,1/2+y,1/2+z
1/4-x,3/4-y,1/2+z
x,3/4-y,3/4-z
1/4-x,1/2+y,3/4-z
-x,1/2-y,1/2-z
3/4+x,1/4+y,1/2-z
-x,1/4+y,1/4+z
3/4+x,1/2-y,1/4+z
1/2+x,y,1/2+z
3/4-x,1/4-y,1/2+z
1/2+x,1/4-y,3/4-z
3/4-x,y,3/4-z
1/2-x,-y,1/2-z
1/4+x,3/4+y,1/2-z
1/2-x,3/4+y,1/4+z
1/4+x,-y,1/4+z
1/2+x,1/2+y,z
3/4-x,3/4-y,z
1/2+x,3/4-y,1/4-z
3/4-x,1/2+y,1/4-z
1/2-x,1/2-y,-z
1/4+x,1/4+y,-z
1/2-x,1/4+y,3/4+z
1/4+x,1/2-y,3/4+z
loop_
_atom_site_type_symbol
_atom_site_label
_atom_site_fract_x
_atom_site_fract_y
_atom_site_fract_z
Si Si1 0.786949 0.718697 0.225406
Si Si2 0.897267 0.784279 0.641066
Si Si3 0.403437 0.586679 0.449123
Si Si4 0.263292 0.346613 0.449921
Si Si5 0.997001 0.744935 0.368787
Si Si6 0.608097 0.680446 0.041411
Si Si7 0.625000 0.125000 0.942609
O O1 0.808030 0.746831 0.152072
O O2 0.845141 0.684438 0.251731
O O3 0.776780 0.752891 0.296630
O O4 0.719151 0.690430 0.218503
O O5 0.821462 0.772701 0.621918
O O6 0.897267 0.789705 0.729588
O O7 0.909986 0.836061 0.607567
O O8 0.375000 0.610726 0.375000
O O9 0.450773 0.614706 0.503810
O O10 0.448579 0.544057 0.416196
O O11 0.273237 0.375000 0.375000
O O12 0.254303 0.292487 0.427212
O O13 0.324039 0.350323 0.503782
O O14 0.625000 0.625000 0.031501
O O15 0.625000 0.693803 0.125000
#
# Coordination Sequence:
#
# PCOD9514934 Si02
#       7
#    32  32  32  32  32  32  16
#     4  10  21  36  65  94 116 167 217 249 321 386
#     4  11  20  38  67  93 126 164 214 256 313 387
#     4  10  20  37  62  85 123 171 214 239 302 388
#     4  12  23  36  55  94 138 161 200 257 314 374
#     4  10  20  39  60  90 130 170 192 246 315 395
#     4  10  23  44  65  90 122 164 225 279 323 375
#     4  12  23  34  61  96 130 176 204 246 313 392
#
# _framework density 19.845865
#
# number of rings (size 3 to 8) (size 9 to 14) (size 15 to 20)
#    0.000    1.385    3.846    2.538    0.000    3.077 
#    2.769    0.000    0.000    6.462    0.000    0.000 
#    0.000    0.000    0.000    0.000    0.000    0.000 
#
# Total GULP energy -290330.824365 kJ/mol
# GULP energy per Si atom -5583.285084 kJ/mol
# Density = 1.980069 g / cm^3
# Si number density = 19.845865 Si / 1000 Ang^3
#
#
#
# Elastic Constant Matrix: (Units=GPa)
#
#
# Indices 1 2 3 4 5 6 
#
# 1 63.9818 5.2055 36.7593 0.0000 0.0000 0.0000
# 2 5.2055 24.9789 26.1798 0.0000 0.0000 0.0000
# 3 36.7593 26.1798 155.7498 0.0000 0.0000 0.0000
# 4 0.0000 0.0000 0.0000 16.6256 0.0000 0.0000
# 5 0.0000 0.0000 0.0000 0.0000 25.8201 0.0000
# 6 0.0000 0.0000 0.0000 0.0000 0.0000 27.0734
#
#
#
# Elastic Compliance Matrix: (Units=1/GPa)
#
#
# Indices 1 2 3 4 5 6 
#
# 1 0.018096 0.000856 -0.004415 0.000000 0.000000 0.000000
# 2 0.000856 0.048635 -0.008377 0.000000 0.000000 0.000000
# 3 -0.004415 -0.008377 0.008871 0.000000 0.000000 0.000000
# 4 0.000000 0.000000 0.000000 0.060148 0.000000 0.000000
# 5 0.000000 0.000000 0.000000 0.000000 0.038730 0.000000
# 6 0.000000 0.000000 0.000000 0.000000 0.000000 0.036937
#
#
# Mechanical properties :
#
#
# Convention : Reuss Voigt Hill
#
# Bulk Modulus (GPa) = 19.33110 42.33330 30.83220
# Shear Modulus (GPa) = 19.79949 25.67487 22.73718
#
# Velocity S-wave (km/s) = 3.16201 3.60073 3.38847
# Velocity P-wave (km/s) = 4.80550 6.21806 5.55685
#
# Compressibility (1/GPa) = 0.05173011
#
# Stress axis : x y z
#
# Youngs Moduli (GPa) = 55.26003 20.56127 112.73170
#
# Poissons Ratio (x) = -0.01760 0.49770
# Poissons Ratio (y) = -0.04730 0.94436
# Poissons Ratio (z) = 0.24397 0.17224
#
# Static dielectric constant tensor:
#      x y z
#    x 1.734180 0.000000 0.000000 
#    y 0.000000 1.667770 0.000000 
#    z 0.000000 0.000000 1.745230 
# 
# From -- ./inp_files/36866.got.cif
#   From: 2010.05.17/outbox.cif.g08.bks.cpg/sg70_19_cif.got.tgz:36866.got - 2010.06.03 15:57:51.
