data_PCOD9514695
_publ_section_title
;
Structure prediction by ZEFSAII (Michael W. Deem and Ramdas Pophale) SiO2 
 PCOD9514695
Probable space group: F D D D
;
_chemical_formula_sum "Si O2"
_cell_formula_units_Z 160
_cell_length_a 28.211075
_cell_length_b 12.169240
_cell_length_c 23.704634
_cell_angle_alpha 90.000000
_cell_angle_beta 90.000000
_cell_angle_gamma 90.000000
_cell_volume 8137.974900
_symmetry_space_group_name_H-M "F D D D"
_symmetry_group_IT_number 70
_space_group.IT_coordinate_system_code '2'
_symmetry_cell_setting 'orthorhombic'
loop_
_space_group_symop_operation_xyz
x,y,z
1/4-x,1/4-y,z
x,1/4-y,1/4-z
1/4-x,y,1/4-z
-x,-y,-z
3/4+x,3/4+y,-z
-x,3/4+y,3/4+z
3/4+x,-y,3/4+z
x,1/2+y,1/2+z
1/4-x,3/4-y,1/2+z
x,3/4-y,3/4-z
1/4-x,1/2+y,3/4-z
-x,1/2-y,1/2-z
3/4+x,1/4+y,1/2-z
-x,1/4+y,1/4+z
3/4+x,1/2-y,1/4+z
1/2+x,y,1/2+z
3/4-x,1/4-y,1/2+z
1/2+x,1/4-y,3/4-z
3/4-x,y,3/4-z
1/2-x,-y,1/2-z
1/4+x,3/4+y,1/2-z
1/2-x,3/4+y,1/4+z
1/4+x,-y,1/4+z
1/2+x,1/2+y,z
3/4-x,3/4-y,z
1/2+x,3/4-y,1/4-z
3/4-x,1/2+y,1/4-z
1/2-x,1/2-y,-z
1/4+x,1/4+y,-z
1/2-x,1/4+y,3/4+z
1/4+x,1/2-y,3/4+z
loop_
_atom_site_type_symbol
_atom_site_label
_atom_site_fract_x
_atom_site_fract_y
_atom_site_fract_z
Si Si1 0.520188 0.625000 0.125000
Si Si2 0.270958 0.476233 0.339420
Si Si3 0.875000 0.375000 0.665168
Si Si4 0.673501 0.191050 0.733274
Si Si5 0.925958 0.061831 0.518736
Si Si6 0.719257 0.659344 0.908988
O O1 0.551550 0.564480 0.172525
O O2 0.488606 0.532237 0.095030
O O3 0.290195 0.375000 0.375000
O O4 0.305873 0.510907 0.289815
O O5 0.221737 0.437470 0.309982
O O6 0.256697 0.577716 0.379108
O O7 0.887715 0.268428 0.702859
O O8 0.829464 0.350496 0.626605
O O9 0.625000 0.125000 0.730298
O O10 0.662469 0.313213 0.755868
O O11 0.707775 0.133395 0.778797
#
# Coordination Sequence:
#
# PCOD9514695 Si02
#       6
#    16  32  16  32  32  32
#     4  12  27  46  62  98 136 180 226 268 331 406
#     4  10  19  40  70  92 125 165 217 272 330 390
#     4  10  24  40  67 105 124 166 220 282 328 390
#     4  12  25  45  67  95 135 180 220 276 333 394
#     4  10  22  41  64  97 131 165 217 278 329 382
#     4  11  23  41  70  97 128 172 223 268 327 398
#
# _framework density 19.660910999999999
#
# number of rings (size 3 to 8) (size 9 to 14) (size 15 to 20)
#    0.000    1.200    5.000    0.900    2.800    0.000 
#    3.600    0.500    0.000    0.000    0.000    0.000 
#    0.000    0.000    0.000    0.000    0.000    0.000 
#
# Total GULP energy -223623.360276 kJ/mol
# GULP energy per Si atom -5590.584007 kJ/mol
# Density = 1.961616 g / cm^3
# Si number density = 19.660911 Si / 1000 Ang^3
#
#
#
# Elastic Constant Matrix: (Units=GPa)
#
#
# Indices 1 2 3 4 5 6 
#
# 1 17.0220 21.7875 18.1026 0.0000 0.0000 0.0000
# 2 21.7875 131.7105 23.2968 0.0000 0.0000 0.0000
# 3 18.1026 23.2968 97.6024 0.0000 0.0000 0.0000
# 4 0.0000 0.0000 0.0000 33.4733 0.0000 0.0000
# 5 0.0000 0.0000 0.0000 0.0000 9.3607 0.0000
# 6 0.0000 0.0000 0.0000 0.0000 0.0000 22.9136
#
#
#
# Elastic Compliance Matrix: (Units=1/GPa)
#
#
# Indices 1 2 3 4 5 6 
#
# 1 0.088920 -0.012312 -0.013554 0.000000 0.000000 0.000000
# 2 -0.012312 0.009632 -0.000016 0.000000 0.000000 0.000000
# 3 -0.013554 -0.000016 0.012763 0.000000 0.000000 0.000000
# 4 0.000000 0.000000 0.000000 0.029875 0.000000 0.000000
# 5 0.000000 0.000000 0.000000 0.000000 0.106830 0.000000
# 6 0.000000 0.000000 0.000000 0.000000 0.000000 0.043642
#
#
# Mechanical properties :
#
#
# Convention : Reuss Voigt Hill
#
# Bulk Modulus (GPa) = 16.79172 41.41207 29.10189
# Shear Modulus (GPa) = 13.76371 25.35939 19.56155
#
# Velocity S-wave (km/s) = 2.64873 3.59533 3.15770
# Velocity P-wave (km/s) = 4.23244 6.19226 5.30366
#
# Compressibility (1/GPa) = 0.05955316
#
# Stress axis : x y z
#
# Youngs Moduli (GPa) = 11.24609 103.82334 78.35042
#
# Poissons Ratio (x) = 1.27824 1.06193
# Poissons Ratio (y) = 0.13846 0.00122
# Poissons Ratio (z) = 0.15242 0.00161
#
# Static dielectric constant tensor:
#      x y z
#    x 1.657120 0.000000 0.000000 
#    y 0.000000 1.679100 0.000000 
#    z 0.000000 0.000000 1.687030 
# 
# From -- ./inp_files/19537.got.cif
#   From: 2010.05.17/outbox.cif.g08.bks.cpg/sg70_10_cif.got.tgz:19537.got - 2010.06.03 15:57:51.
