data_PCOD9514799
_publ_section_title
;
Structure prediction by ZEFSAII (Michael W. Deem and Ramdas Pophale) SiO2 
 PCOD9514799
Probable space group: F D D D
;
_chemical_formula_sum "Si O2"
_cell_formula_units_Z 144
_cell_length_a 28.003488
_cell_length_b 22.862418
_cell_length_c 9.209390
_cell_angle_alpha 90.000000
_cell_angle_beta 90.000000
_cell_angle_gamma 90.000000
_cell_volume 5896.104258
_symmetry_space_group_name_H-M "F D D D"
_symmetry_group_IT_number 70
_space_group.IT_coordinate_system_code '2'
_symmetry_cell_setting 'orthorhombic'
loop_
_space_group_symop_operation_xyz
x,y,z
1/4-x,1/4-y,z
x,1/4-y,1/4-z
1/4-x,y,1/4-z
-x,-y,-z
3/4+x,3/4+y,-z
-x,3/4+y,3/4+z
3/4+x,-y,3/4+z
x,1/2+y,1/2+z
1/4-x,3/4-y,1/2+z
x,3/4-y,3/4-z
1/4-x,1/2+y,3/4-z
-x,1/2-y,1/2-z
3/4+x,1/4+y,1/2-z
-x,1/4+y,1/4+z
3/4+x,1/2-y,1/4+z
1/2+x,y,1/2+z
3/4-x,1/4-y,1/2+z
1/2+x,1/4-y,3/4-z
3/4-x,y,3/4-z
1/2-x,-y,1/2-z
1/4+x,3/4+y,1/2-z
1/2-x,3/4+y,1/4+z
1/4+x,-y,1/4+z
1/2+x,1/2+y,z
3/4-x,3/4-y,z
1/2+x,3/4-y,1/4-z
3/4-x,1/2+y,1/4-z
1/2-x,1/2-y,-z
1/4+x,1/4+y,-z
1/2-x,1/4+y,3/4+z
1/4+x,1/2-y,3/4+z
loop_
_atom_site_type_symbol
_atom_site_label
_atom_site_fract_x
_atom_site_fract_y
_atom_site_fract_z
Si Si1 0.195325 0.684561 0.548403
Si Si2 0.875000 0.576158 0.375000
Si Si3 0.374576 0.486170 0.137684
Si Si4 0.443777 0.306022 0.365480
Si Si5 0.527893 0.944495 0.689468
O O1 0.202888 0.625000 0.625000
O O2 0.144318 0.687557 0.471250
O O3 0.235945 0.686573 0.425991
O O4 0.201069 0.741429 0.650318
O O5 0.871289 0.542913 0.215967
O O6 0.928600 0.600200 0.346854
O O7 0.414035 0.482504 0.266727
O O8 0.325186 0.469094 0.213553
O O9 0.429812 0.375000 0.375000
O O10 0.499572 0.305725 0.408673
#
# Coordination Sequence:
#
# PCOD9514799 Si02
#       5
#    32  16  32  32  32
#     4   9  18  36  60  83 113 152 196 241 290 346
#     4  10  20  36  57  80 112 154 206 244 275 338
#     4   9  19  33  55  85 113 143 186 245 304 352
#     4  10  20  35  54  83 123 151 179 237 310 360
#     4   9  20  36  54  82 117 152 192 242 289 342
#
# _framework density 24.422906000000001
#
# number of rings (size 3 to 8) (size 9 to 14) (size 15 to 20)
#    0.000    2.667    0.000    2.667    0.000   11.556 
#    0.000    6.111    0.000    8.000    0.000    0.000 
#    0.000    0.000    0.000    0.000    0.000    0.000 
#
# Total GULP energy -200562.027982 kJ/mol
# GULP energy per Si atom -5571.167444 kJ/mol
# Density = 2.436732 g / cm^3
# Si number density = 24.422906 Si / 1000 Ang^3
#
#
#
# Elastic Constant Matrix: (Units=GPa)
#
#
# Indices 1 2 3 4 5 6 
#
# 1 158.7654 -5.9731 59.2289 0.0002 -0.0003 0.0010
# 2 -5.9731 23.8865 17.6725 -0.0003 -0.0004 0.0010
# 3 59.2289 17.6725 131.6183 -0.0024 0.0008 -0.0050
# 4 0.0002 -0.0003 -0.0024 9.3834 0.0004 -0.0023
# 5 -0.0003 -0.0004 0.0008 0.0004 65.4519 0.0024
# 6 0.0010 0.0010 -0.0050 -0.0023 0.0024 27.7107
#
#
#
# Elastic Compliance Matrix: (Units=1/GPa)
#
#
# Indices 1 2 3 4 5 6 
#
# 1 0.008124 0.005258 -0.004362 -0.000001 0.000000 -0.000001
# 2 0.005258 0.049886 -0.009065 -0.000001 0.000000 -0.000004
# 3 -0.004362 -0.009065 0.010778 0.000003 0.000000 0.000002
# 4 -0.000001 -0.000001 0.000003 0.106571 -0.000001 0.000009
# 5 0.000000 0.000000 0.000000 -0.000001 0.015278 -0.000001
# 6 -0.000001 -0.000004 0.000002 0.000009 -0.000001 0.036087
#
#
# Mechanical properties :
#
#
# Convention : Reuss Voigt Hill
#
# Bulk Modulus (GPa) = 19.06521 50.68075 34.87298
# Shear Modulus (GPa) = 19.19064 36.73199 27.96132
#
# Velocity S-wave (km/s) = 2.80619 3.88235 3.38728
# Velocity P-wave (km/s) = 4.28052 6.39478 5.44132
#
# Compressibility (1/GPa) = 0.05245156
#
# Stress axis : x y z
#
# Youngs Moduli (GPa) = 123.09784 20.04571 92.78482
#
# Poissons Ratio (x) = -0.10541 0.40470
# Poissons Ratio (y) = -0.64730 0.84105
# Poissons Ratio (z) = 0.53692 0.18171
#
# Static dielectric constant tensor:
#      x y z
#    x 2.033370 0.000000 0.000000 
#    y 0.000000 1.939020 0.000000 
#    z 0.000000 0.000000 1.993820 
# 
# From -- ./inp_files/12244.got.cif
#   From: 2010.05.17/outbox.cif.g08.bks.cpg/sg70_7_cif.got.tgz:12244.got - 2010.06.03 15:57:51.
