data_PCOD9514712
_publ_section_title
;
Structure prediction by ZEFSAII (Michael W. Deem and Ramdas Pophale) SiO2 
 PCOD9514712
Probable space group: F D D D
;
_chemical_formula_sum "Si O2"
_cell_formula_units_Z 160
_cell_length_a 25.811739
_cell_length_b 12.190240
_cell_length_c 23.994087
_cell_angle_alpha 90.000000
_cell_angle_beta 90.000000
_cell_angle_gamma 90.000000
_cell_volume 7549.770504
_symmetry_space_group_name_H-M "F D D D"
_symmetry_group_IT_number 70
_space_group.IT_coordinate_system_code '2'
_symmetry_cell_setting 'orthorhombic'
loop_
_space_group_symop_operation_xyz
x,y,z
1/4-x,1/4-y,z
x,1/4-y,1/4-z
1/4-x,y,1/4-z
-x,-y,-z
3/4+x,3/4+y,-z
-x,3/4+y,3/4+z
3/4+x,-y,3/4+z
x,1/2+y,1/2+z
1/4-x,3/4-y,1/2+z
x,3/4-y,3/4-z
1/4-x,1/2+y,3/4-z
-x,1/2-y,1/2-z
3/4+x,1/4+y,1/2-z
-x,1/4+y,1/4+z
3/4+x,1/2-y,1/4+z
1/2+x,y,1/2+z
3/4-x,1/4-y,1/2+z
1/2+x,1/4-y,3/4-z
3/4-x,y,3/4-z
1/2-x,-y,1/2-z
1/4+x,3/4+y,1/2-z
1/2-x,3/4+y,1/4+z
1/4+x,-y,1/4+z
1/2+x,1/2+y,z
3/4-x,3/4-y,z
1/2+x,3/4-y,1/4-z
3/4-x,1/2+y,1/4-z
1/2-x,1/2-y,-z
1/4+x,1/4+y,-z
1/2-x,1/4+y,3/4+z
1/4+x,1/2-y,3/4+z
loop_
_atom_site_type_symbol
_atom_site_label
_atom_site_fract_x
_atom_site_fract_y
_atom_site_fract_z
Si Si1 0.375000 0.875000 0.000011
Si Si2 0.375336 0.597801 0.560355
Si Si3 0.039714 0.719035 0.085479
Si Si4 0.875000 0.623346 0.375000
Si Si5 0.510009 0.877636 0.260794
Si Si6 0.407890 0.269568 0.976262
O O1 0.359968 0.773440 0.039424
O O2 0.421771 0.839702 0.959114
O O3 0.378795 0.625000 0.625000
O O4 0.315529 0.611288 0.540079
O O5 0.409911 0.683600 0.526231
O O6 0.015588 0.625000 0.125000
O O7 0.075915 0.796521 0.123575
O O8 0.008939 0.805328 0.047568
O O9 0.872068 0.545752 0.428200
O O10 0.500000 0.750000 0.250000
O O11 0.463157 0.935147 0.294024
O O12 0.375000 0.375000 0.994099
#
# Coordination Sequence:
#
# PCOD9514712 Si02
#       6
#    16  32  32  16  32  32
#     4  10  19  42  66  94 132 173 222 268 342 396
#     4  11  25  43  68  95 138 185 218 282 343 411
#     4  11  19  39  72  98 133 172 225 288 339 402
#     4  12  20  40  72  98 128 171 229 280 344 398
#     4  11  24  43  64  99 140 176 234 284 345 421
#     4  12  24  43  66  96 134 179 227 281 345 408
#
# _framework density 21.192698
#
# number of rings (size 3 to 8) (size 9 to 14) (size 15 to 20)
#    0.000    0.800    8.000    0.300    1.400    4.000 
#    0.000    9.000    0.000    0.000    0.000    0.000 
#    0.000    0.000    0.000    0.000    0.000    0.000 
#
# Total GULP energy -223459.779197 kJ/mol
# GULP energy per Si atom -5586.494480 kJ/mol
# Density = 2.114446 g / cm^3
# Si number density = 21.192698 Si / 1000 Ang^3
#
#
#
# Elastic Constant Matrix: (Units=GPa)
#
#
# Indices 1 2 3 4 5 6 
#
# 1 44.3899 17.1035 -19.9661 0.0000 0.0000 0.0000
# 2 17.1035 184.6481 61.0820 0.0000 0.0000 0.0000
# 3 -19.9661 61.0820 109.0124 0.0000 0.0000 0.0000
# 4 0.0000 0.0000 0.0000 27.9072 0.0000 0.0000
# 5 0.0000 0.0000 0.0000 0.0000 15.1211 0.0000
# 6 0.0000 0.0000 0.0000 0.0000 0.0000 4.5658
#
#
#
# Elastic Compliance Matrix: (Units=1/GPa)
#
#
# Indices 1 2 3 4 5 6 
#
# 1 0.028239 -0.005311 0.008148 0.000000 0.000000 0.000000
# 2 -0.005311 0.007647 -0.005257 0.000000 0.000000 0.000000
# 3 0.008148 -0.005257 0.013611 0.000000 0.000000 0.000000
# 4 0.000000 0.000000 0.000000 0.035833 0.000000 0.000000
# 5 0.000000 0.000000 0.000000 0.000000 0.066133 0.000000
# 6 0.000000 0.000000 0.000000 0.000000 0.000000 0.219017
#
#
# Mechanical properties :
#
#
# Convention : Reuss Voigt Hill
#
# Bulk Modulus (GPa) = 22.39338 50.49881 36.44609
# Shear Modulus (GPa) = 12.81372 28.17423 20.49398
#
# Velocity S-wave (km/s) = 2.46159 3.65009 3.11308
# Velocity P-wave (km/s) = 4.32073 6.45324 5.49150
#
# Compressibility (1/GPa) = 0.04465606
#
# Stress axis : x y z
#
# Youngs Moduli (GPa) = 35.41224 130.77332 73.46759
#
# Poissons Ratio (x) = 0.69454 -0.59861
# Poissons Ratio (y) = 0.18808 0.38625
# Poissons Ratio (z) = -0.28854 0.68753
#
# Static dielectric constant tensor:
#      x y z
#    x 1.842400 0.000000 0.000000 
#    y 0.000000 1.692090 0.000000 
#    z 0.000000 0.000000 1.781280 
# 
# From -- ./inp_files/57565.got.cif
#   From: 2010.05.17/outbox.cif.g08.bks.cpg/sg70_29_cif.got.tgz:57565.got - 2010.06.03 15:57:51.
