data_PCOD9514687
_publ_section_title
;
Structure prediction by ZEFSAII (Michael W. Deem and Ramdas Pophale) SiO2 
 PCOD9514687
Probable space group: F D D D
;
_chemical_formula_sum "Si O2"
_cell_formula_units_Z 240
_cell_length_a 27.261168
_cell_length_b 20.185693
_cell_length_c 21.374824
_cell_angle_alpha 90.000000
_cell_angle_beta 90.000000
_cell_angle_gamma 90.000000
_cell_volume 11762.257167
_symmetry_space_group_name_H-M "F D D D"
_symmetry_group_IT_number 70
_space_group.IT_coordinate_system_code '2'
_symmetry_cell_setting 'orthorhombic'
loop_
_space_group_symop_operation_xyz
x,y,z
1/4-x,1/4-y,z
x,1/4-y,1/4-z
1/4-x,y,1/4-z
-x,-y,-z
3/4+x,3/4+y,-z
-x,3/4+y,3/4+z
3/4+x,-y,3/4+z
x,1/2+y,1/2+z
1/4-x,3/4-y,1/2+z
x,3/4-y,3/4-z
1/4-x,1/2+y,3/4-z
-x,1/2-y,1/2-z
3/4+x,1/4+y,1/2-z
-x,1/4+y,1/4+z
3/4+x,1/2-y,1/4+z
1/2+x,y,1/2+z
3/4-x,1/4-y,1/2+z
1/2+x,1/4-y,3/4-z
3/4-x,y,3/4-z
1/2-x,-y,1/2-z
1/4+x,3/4+y,1/2-z
1/2-x,3/4+y,1/4+z
1/4+x,-y,1/4+z
1/2+x,1/2+y,z
3/4-x,3/4-y,z
1/2+x,3/4-y,1/4-z
3/4-x,1/2+y,1/4-z
1/2-x,1/2-y,-z
1/4+x,1/4+y,-z
1/2-x,1/4+y,3/4+z
1/4+x,1/2-y,3/4+z
loop_
_atom_site_type_symbol
_atom_site_label
_atom_site_fract_x
_atom_site_fract_y
_atom_site_fract_z
Si Si1 0.356592 0.025899 0.591714
Si Si2 0.978831 0.525005 0.748862
Si Si3 0.334627 0.434123 0.973357
Si Si4 0.625000 0.467990 0.125000
Si Si5 0.250402 0.797393 0.879485
Si Si6 0.389505 0.125421 0.763094
Si Si7 0.348032 0.943175 0.054736
Si Si8 0.906608 0.246476 0.810421
O O1 0.308125 0.040502 0.632692
O O2 0.374731 0.087315 0.550146
O O3 0.347238 0.970842 0.538327
O O4 0.393991 0.995719 0.640268
O O5 0.934088 0.576029 0.752149
O O6 0.959008 0.458901 0.712109
O O7 0.025404 0.568854 0.727179
O O8 0.988382 0.494504 0.817059
O O9 0.375000 0.375000 0.966118
O O10 0.341230 0.484060 0.915550
O O11 0.599442 0.424100 0.071231
O O12 0.262068 0.875000 0.875000
O O13 0.287834 0.769081 0.930217
O O14 0.345483 0.079324 0.787925
O O15 0.375000 0.875000 0.075342
O O16 0.378634 0.961066 0.992022
O O17 0.875000 0.252195 0.875000
#
# Coordination Sequence:
#
# PCOD9514687 Si02
#       8
#    32  32  32  16  32  32  32  32
#     4  10  25  42  62  93 134 176 211 274 340 400
#     4  10  22  42  66  96 127 182 220 264 348 403
#     4  10  22  45  65  92 133 164 223 289 335 401
#     4  10  19  40  66  96 119 168 214 288 334 384
#     4  11  22  38  60  95 134 169 215 269 331 398
#     4  10  20  43  67  89 134 168 226 274 327 407
#     4  11  23  42  64  97 135 174 223 268 335 407
#     4  11  21  37  64  94 127 173 219 271 319 389
#
# _framework density 20.404247000000002
#
# number of rings (size 3 to 8) (size 9 to 14) (size 15 to 20)
#    0.000    1.600    3.333    1.400    3.733    0.533 
#   19.200    1.333    0.000    0.000    0.000    0.000 
#    0.000    0.000    0.000    0.000    0.000    0.000 
#
# Total GULP energy -334164.081490 kJ/mol
# GULP energy per Si atom -5569.401358 kJ/mol
# Density = 2.035781 g / cm^3
# Si number density = 20.404247 Si / 1000 Ang^3
#
#
#
# Elastic Constant Matrix: (Units=GPa)
#
#
# Indices 1 2 3 4 5 6 
#
# 1 83.0925 34.0725 10.0349 0.0000 0.0000 0.0000
# 2 34.0725 96.8416 10.1975 0.0000 0.0000 0.0000
# 3 10.0349 10.1975 75.0427 0.0000 0.0000 0.0000
# 4 0.0000 0.0000 0.0000 22.1385 0.0000 0.0000
# 5 0.0000 0.0000 0.0000 0.0000 4.7320 0.0000
# 6 0.0000 0.0000 0.0000 0.0000 0.0000 22.2880
#
#
#
# Elastic Compliance Matrix: (Units=1/GPa)
#
#
# Indices 1 2 3 4 5 6 
#
# 1 0.014176 -0.004857 -0.001236 0.000000 0.000000 0.000000
# 2 -0.004857 0.012141 -0.001000 0.000000 0.000000 0.000000
# 3 -0.001236 -0.001000 0.013627 0.000000 0.000000 0.000000
# 4 0.000000 0.000000 0.000000 0.045170 0.000000 0.000000
# 5 0.000000 0.000000 0.000000 0.000000 0.211326 0.000000
# 6 0.000000 0.000000 0.000000 0.000000 0.000000 0.044867
#
#
# Mechanical properties :
#
#
# Convention : Reuss Voigt Hill
#
# Bulk Modulus (GPa) = 38.82477 40.39849 39.61163
# Shear Modulus (GPa) = 13.73331 23.20982 18.47157
#
# Velocity S-wave (km/s) = 2.59716 3.37634 3.01205
# Velocity P-wave (km/s) = 5.29743 5.91960 5.61713
#
# Compressibility (1/GPa) = 0.02575675
#
# Stress axis : x y z
#
# Youngs Moduli (GPa) = 70.54267 82.36889 73.38431
#
# Poissons Ratio (x) = 0.40010 0.09067
# Poissons Ratio (y) = 0.34266 0.07340
# Poissons Ratio (z) = 0.08716 0.08239
#
# Static dielectric constant tensor:
#      x y z
#    x 1.802030 0.000000 0.000000 
#    y 0.000000 1.787810 0.000000 
#    z 0.000000 0.000000 1.747040 
# 
# From -- ./inp_files/54494.got.cif
#   From: 2010.05.17/outbox.cif.g08.bks.cpg/sg70_28_cif.got.tgz:54494.got - 2010.06.03 15:57:51.
