data_PCOD9514047
_publ_section_title
;
Structure prediction by ZEFSAII (Michael W. Deem and Ramdas Pophale) SiO2 
 PCOD9514047
Probable space group: F D D D
;
_chemical_formula_sum "Si O2"
_cell_formula_units_Z 160
_cell_length_a 28.404014
_cell_length_b 31.488230
_cell_length_c 7.321623
_cell_angle_alpha 90.000000
_cell_angle_beta 90.000000
_cell_angle_gamma 90.000000
_cell_volume 6548.401959
_symmetry_space_group_name_H-M "F D D D"
_symmetry_group_IT_number 70
_space_group.IT_coordinate_system_code '2'
_symmetry_cell_setting 'orthorhombic'
loop_
_space_group_symop_operation_xyz
x,y,z
1/4-x,1/4-y,z
x,1/4-y,1/4-z
1/4-x,y,1/4-z
-x,-y,-z
3/4+x,3/4+y,-z
-x,3/4+y,3/4+z
3/4+x,-y,3/4+z
x,1/2+y,1/2+z
1/4-x,3/4-y,1/2+z
x,3/4-y,3/4-z
1/4-x,1/2+y,3/4-z
-x,1/2-y,1/2-z
3/4+x,1/4+y,1/2-z
-x,1/4+y,1/4+z
3/4+x,1/2-y,1/4+z
1/2+x,y,1/2+z
3/4-x,1/4-y,1/2+z
1/2+x,1/4-y,3/4-z
3/4-x,y,3/4-z
1/2-x,-y,1/2-z
1/4+x,3/4+y,1/2-z
1/2-x,3/4+y,1/4+z
1/4+x,-y,1/4+z
1/2+x,1/2+y,z
3/4-x,3/4-y,z
1/2+x,3/4-y,1/4-z
3/4-x,1/2+y,1/4-z
1/2-x,1/2-y,-z
1/4+x,1/4+y,-z
1/2-x,1/4+y,3/4+z
1/4+x,1/2-y,3/4+z
loop_
_atom_site_type_symbol
_atom_site_label
_atom_site_fract_x
_atom_site_fract_y
_atom_site_fract_z
Si Si1 0.992188 0.595231 0.391679
Si Si2 0.525955 0.312592 0.042493
Si Si3 0.400300 0.743699 0.101015
Si Si4 0.201133 0.761367 0.735306
Si Si5 0.351265 0.915796 0.173072
O O1 0.047059 0.595759 0.435712
O O2 0.977554 0.643569 0.344078
O O3 0.970667 0.581025 0.585957
O O4 0.980116 0.555400 0.261292
O O5 0.573097 0.284181 0.048802
O O6 0.482126 0.278983 0.054826
O O7 0.349411 0.729791 0.173134
O O8 0.436512 0.747689 0.274660
O O9 0.393557 0.792556 0.055621
O O10 0.375000 0.922810 0.375000
O O11 0.375000 0.875000 0.090619
#
# Coordination Sequence:
#
# PCOD9514047 Si02
#       5
#    32  32  32  32  32
#     4  10  17  24  34  50  75 108 141 170 195 243
#     4  10  16  25  35  51  75 109 142 164 203 243
#     4  10  16  24  35  49  73 110 140 167 197 242
#     4  10  16  26  35  50  76 110 142 164 202 243
#     4  11  16  21  33  51  72 103 139 158 192 236
#
# _framework density 24.433443
#
# number of rings (size 3 to 8) (size 9 to 14) (size 15 to 20)
#    0.000    1.800    6.000    4.800    0.000    0.000 
#    0.000    0.000    0.000    0.000    0.000    0.000 
#    0.000    0.000   13.600  116.200    0.000    0.200 
#
# Total GULP energy -223336.580777 kJ/mol
# GULP energy per Si atom -5583.414519 kJ/mol
# Density = 2.437783 g / cm^3
# Si number density = 24.433443 Si / 1000 Ang^3
#
#
#
# Elastic Constant Matrix: (Units=GPa)
#
#
# Indices 1 2 3 4 5 6 
#
# 1 120.7713 83.5688 2.1072 -0.1745 -0.0290 -0.1308
# 2 83.5688 247.2959 31.8876 -0.0643 -0.0057 -0.1138
# 3 2.1072 31.8876 56.5037 0.0624 -0.0485 -0.1242
# 4 -0.1745 -0.0643 0.0624 -37.0931 -0.1277 -0.0376
# 5 -0.0290 -0.0057 -0.0485 -0.1277 -10.7206 0.0688
# 6 -0.1308 -0.1138 -0.1242 -0.0376 0.0688 86.3835
#
#
#
# Elastic Compliance Matrix: (Units=1/GPa)
#
#
# Indices 1 2 3 4 5 6 
#
# 1 0.010977 -0.003944 0.001816 -0.000042 -0.000035 0.000014
# 2 -0.003944 0.005778 -0.003114 0.000003 0.000022 -0.000003
# 3 0.001816 -0.003114 0.019387 0.000030 -0.000091 0.000027
# 4 -0.000042 0.000003 0.000030 -0.026960 0.000321 -0.000012
# 5 -0.000035 0.000022 -0.000091 0.000321 -0.093281 0.000074
# 6 0.000014 -0.000003 0.000027 -0.000012 0.000074 0.011576
#
#
# Mechanical properties :
#
#
# Convention : Reuss Voigt Hill
#
# Bulk Modulus (GPa) = 38.97063 73.29978 56.13521
# Shear Modulus (GPa) = -93.48078 28.18112 -32.64983
#
# Velocity S-wave (km/s) = -6.19213 3.39983 -3.65948
# Velocity P-wave (km/s) = 5.92781 6.74364 2.27353
#
# Compressibility (1/GPa) = 0.02566035
#
# Stress axis : x y z
#
# Youngs Moduli (GPa) = 91.09715 173.07172 51.58002
#
# Poissons Ratio (x) = 0.68256 -0.09369
# Poissons Ratio (y) = 0.35927 0.16060
# Poissons Ratio (z) = -0.16546 0.53889
#
# Static dielectric constant tensor:
#      x y z
#    x 2.052320 0.000320 -0.000440 
#    y 0.000320 1.996950 0.000220 
#    z -0.000440 0.000220 2.045030 
# 
# From -- ./inp_files/22372.got.cif
#   From: 2010.05.17/outbox.cif.g08.bks.cpg/sg70_12_cif.got.tgz:22372.got - 2010.06.03 15:57:51.
