data_PCOD9514417
_publ_section_title
;
Structure prediction by ZEFSAII (Michael W. Deem and Ramdas Pophale) SiO2 
 PCOD9514417
Probable space group: F D D D
;
_chemical_formula_sum "Si O2"
_cell_formula_units_Z 136
_cell_length_a 16.606279
_cell_length_b 22.732874
_cell_length_c 14.149396
_cell_angle_alpha 90.000000
_cell_angle_beta 90.000000
_cell_angle_gamma 90.000000
_cell_volume 5341.516526
_symmetry_space_group_name_H-M "F D D D"
_symmetry_group_IT_number 70
_space_group.IT_coordinate_system_code '2'
_symmetry_cell_setting 'orthorhombic'
loop_
_space_group_symop_operation_xyz
x,y,z
1/4-x,1/4-y,z
x,1/4-y,1/4-z
1/4-x,y,1/4-z
-x,-y,-z
3/4+x,3/4+y,-z
-x,3/4+y,3/4+z
3/4+x,-y,3/4+z
x,1/2+y,1/2+z
1/4-x,3/4-y,1/2+z
x,3/4-y,3/4-z
1/4-x,1/2+y,3/4-z
-x,1/2-y,1/2-z
3/4+x,1/4+y,1/2-z
-x,1/4+y,1/4+z
3/4+x,1/2-y,1/4+z
1/2+x,y,1/2+z
3/4-x,1/4-y,1/2+z
1/2+x,1/4-y,3/4-z
3/4-x,y,3/4-z
1/2-x,-y,1/2-z
1/4+x,3/4+y,1/2-z
1/2-x,3/4+y,1/4+z
1/4+x,-y,1/4+z
1/2+x,1/2+y,z
3/4-x,3/4-y,z
1/2+x,3/4-y,1/4-z
3/4-x,1/2+y,1/4-z
1/2-x,1/2-y,-z
1/4+x,1/4+y,-z
1/2-x,1/4+y,3/4+z
1/4+x,1/2-y,3/4+z
loop_
_atom_site_type_symbol
_atom_site_label
_atom_site_fract_x
_atom_site_fract_y
_atom_site_fract_z
Si Si1 0.973252 0.938608 0.220694
Si Si2 0.431334 0.010375 0.080332
Si Si3 0.377755 0.622955 0.485081
Si Si4 0.625000 0.125000 0.125000
Si Si5 0.456528 0.350444 0.047640
O O1 0.911701 0.988239 0.185413
O O2 0.931843 0.917602 0.316122
O O3 0.959552 0.885313 0.147029
O O4 0.070374 0.932982 0.229747
O O5 0.458472 0.968146 0.168931
O O6 0.500000 0.000000 0.000000
O O7 0.418579 0.079102 0.058705
O O8 0.375000 0.599403 0.375000
O O9 0.283767 0.623964 0.507718
O O10 0.375000 0.375000 0.001764
#
# Coordination Sequence:
#
# PCOD9514417 Si02
#       5
#    32  32  32   8  32
#     4  10  20  28  42  74 106 141 166 208 275 322
#     4  11  17  27  45  74 102 132 176 213 270 321
#     4  10  19  31  49  71 106 143 179 220 271 330
#     4  12  16  28  44  64 122 132 152 210 268 320
#     4   9  18  35  49  72 104 141 183 216 268 330
#
# _framework density 25.460933000000001
#
# number of rings (size 3 to 8) (size 9 to 14) (size 15 to 20)
#    0.000    1.882    8.235    0.000    1.647    1.882 
#    0.000    0.000    0.000    1.412    0.000   14.000 
#    0.000    0.000    0.000    0.000    0.000    0.000 
#
# Total GULP energy -189311.501562 kJ/mol
# GULP energy per Si atom -5567.985340 kJ/mol
# Density = 2.540298 g / cm^3
# Si number density = 25.460933 Si / 1000 Ang^3
#
#
#
# Elastic Constant Matrix: (Units=GPa)
#
#
# Indices 1 2 3 4 5 6 
#
# 1 240.6785 36.1594 15.1428 0.0000 0.0000 0.0000
# 2 36.1594 123.7084 22.0235 0.0000 0.0000 0.0000
# 3 15.1428 22.0235 54.5079 0.0000 0.0000 0.0000
# 4 0.0000 0.0000 0.0000 11.2929 0.0000 0.0000
# 5 0.0000 0.0000 0.0000 0.0000 35.0411 0.0000
# 6 0.0000 0.0000 0.0000 0.0000 0.0000 9.6296
#
#
#
# Elastic Compliance Matrix: (Units=1/GPa)
#
#
# Indices 1 2 3 4 5 6 
#
# 1 0.004374 -0.001145 -0.000753 0.000000 0.000000 0.000000
# 2 -0.001145 0.009010 -0.003322 0.000000 0.000000 0.000000
# 3 -0.000753 -0.003322 0.019897 0.000000 0.000000 0.000000
# 4 0.000000 0.000000 0.000000 0.088551 0.000000 0.000000
# 5 0.000000 0.000000 0.000000 0.000000 0.028538 0.000000
# 6 0.000000 0.000000 0.000000 0.000000 0.000000 0.103846
#
#
# Mechanical properties :
#
#
# Convention : Reuss Voigt Hill
#
# Bulk Modulus (GPa) = 43.77891 62.83846 53.30869
# Shear Modulus (GPa) = 18.36412 34.23065 26.29739
#
# Velocity S-wave (km/s) = 2.68855 3.67064 3.21729
# Velocity P-wave (km/s) = 5.18359 6.53442 5.89781
#
# Compressibility (1/GPa) = 0.02284205
#
# Stress axis : x y z
#
# Youngs Moduli (GPa) = 228.61122 110.99357 50.25772
#
# Poissons Ratio (x) = 0.12704 0.03783
# Poissons Ratio (y) = 0.26166 0.16697
# Poissons Ratio (z) = 0.17209 0.36875
#
# Static dielectric constant tensor:
#      x y z
#    x 2.200170 0.000000 0.000000 
#    y 0.000000 2.111440 0.000000 
#    z 0.000000 0.000000 2.097850 
# 
# From -- ./inp_files/33818.got.cif
#   From: 2010.05.17/outbox.cif.g08.bks.cpg/sg70_17_cif.got.tgz:33818.got - 2010.06.03 15:57:51.
