data_PCOD9514368
_publ_section_title
;
Structure prediction by ZEFSAII (Michael W. Deem and Ramdas Pophale) SiO2 
 PCOD9514368
Probable space group: F D D D
;
_chemical_formula_sum "Si O2"
_cell_formula_units_Z 168
_cell_length_a 15.704249
_cell_length_b 16.930274
_cell_length_c 28.462464
_cell_angle_alpha 90.000000
_cell_angle_beta 90.000000
_cell_angle_gamma 90.000000
_cell_volume 7567.521330
_symmetry_space_group_name_H-M "F D D D"
_symmetry_group_IT_number 70
_space_group.IT_coordinate_system_code '2'
_symmetry_cell_setting 'orthorhombic'
loop_
_space_group_symop_operation_xyz
x,y,z
1/4-x,1/4-y,z
x,1/4-y,1/4-z
1/4-x,y,1/4-z
-x,-y,-z
3/4+x,3/4+y,-z
-x,3/4+y,3/4+z
3/4+x,-y,3/4+z
x,1/2+y,1/2+z
1/4-x,3/4-y,1/2+z
x,3/4-y,3/4-z
1/4-x,1/2+y,3/4-z
-x,1/2-y,1/2-z
3/4+x,1/4+y,1/2-z
-x,1/4+y,1/4+z
3/4+x,1/2-y,1/4+z
1/2+x,y,1/2+z
3/4-x,1/4-y,1/2+z
1/2+x,1/4-y,3/4-z
3/4-x,y,3/4-z
1/2-x,-y,1/2-z
1/4+x,3/4+y,1/2-z
1/2-x,3/4+y,1/4+z
1/4+x,-y,1/4+z
1/2+x,1/2+y,z
3/4-x,3/4-y,z
1/2+x,3/4-y,1/4-z
3/4-x,1/2+y,1/4-z
1/2-x,1/2-y,-z
1/4+x,1/4+y,-z
1/2-x,1/4+y,3/4+z
1/4+x,1/2-y,3/4+z
loop_
_atom_site_type_symbol
_atom_site_label
_atom_site_fract_x
_atom_site_fract_y
_atom_site_fract_z
Si Si1 0.233792 0.986785 0.668447
Si Si2 0.886377 0.146070 0.474506
Si Si3 0.723667 0.134996 0.413817
Si Si4 0.875000 0.375000 0.875000
Si Si5 0.290851 0.270358 0.846882
Si Si6 0.123701 0.347477 0.426229
O O1 0.180326 0.065506 0.657004
O O2 0.326610 0.015477 0.685107
O O3 0.185700 0.931380 0.705395
O O4 0.245466 0.935540 0.620878
O O5 0.788880 0.138894 0.457056
O O6 0.928111 0.217871 0.446643
O O7 0.893765 0.153067 0.530192
O O8 0.625000 0.125000 0.425898
O O9 0.737756 0.213882 0.382507
O O10 0.375000 0.293185 0.875000
O O11 0.227079 0.335482 0.827820
O O12 0.152384 0.375000 0.375000
#
# Coordination Sequence:
#
# PCOD9514368 Si02
#       6
#    32  32  32   8  32  32
#     4  11  21  38  64  96 133 173 209 272 343 393
#     4  10  23  41  63  96 125 175 226 259 334 401
#     4  10  18  39  68  87 120 175 223 256 316 405
#     4  12  20  36  64 100 142 160 202 284 336 400
#     4   9  21  43  65  86 126 171 213 272 322 388
#     4  12  25  40  62  96 133 168 221 276 331 390
#
# _framework density 22.200135
#
# number of rings (size 3 to 8) (size 9 to 14) (size 15 to 20)
#    0.000    1.524    4.762    1.714    0.000    3.429 
#    3.429    1.905    0.000    0.000    0.000    0.000 
#    0.000    0.000    0.000    0.000    0.000    0.000 
#
# Total GULP energy -234883.708894 kJ/mol
# GULP energy per Si atom -5592.469259 kJ/mol
# Density = 2.214961 g / cm^3
# Si number density = 22.200135 Si / 1000 Ang^3
#
#
#
# Elastic Constant Matrix: (Units=GPa)
#
#
# Indices 1 2 3 4 5 6 
#
# 1 116.4040 3.9190 28.7701 0.0000 0.0000 0.0000
# 2 3.9190 56.8653 18.7438 0.0000 0.0000 0.0000
# 3 28.7701 18.7438 146.9696 0.0000 0.0000 0.0000
# 4 0.0000 0.0000 0.0000 1.8564 0.0000 0.0000
# 5 0.0000 0.0000 0.0000 0.0000 10.0643 0.0000
# 6 0.0000 0.0000 0.0000 0.0000 0.0000 4.7551
#
#
#
# Elastic Compliance Matrix: (Units=1/GPa)
#
#
# Indices 1 2 3 4 5 6 
#
# 1 0.009028 -0.000041 -0.001762 0.000000 0.000000 0.000000
# 2 -0.000041 0.018357 -0.002333 0.000000 0.000000 0.000000
# 3 -0.001762 -0.002333 0.007447 0.000000 0.000000 0.000000
# 4 0.000000 0.000000 0.000000 0.538679 0.000000 0.000000
# 5 0.000000 0.000000 0.000000 0.000000 0.099361 0.000000
# 6 0.000000 0.000000 0.000000 0.000000 0.000000 0.210299
#
#
# Mechanical properties :
#
#
# Convention : Reuss Voigt Hill
#
# Bulk Modulus (GPa) = 37.65250 47.01164 42.33207
# Shear Modulus (GPa) = 5.55373 21.25556 13.40465
#
# Velocity S-wave (km/s) = 1.58338 3.09763 2.45992
# Velocity P-wave (km/s) = 4.51000 5.83232 5.21326
#
# Compressibility (1/GPa) = 0.02655866
#
# Stress axis : x y z
#
# Youngs Moduli (GPa) = 110.77096 54.47427 134.28975
#
# Poissons Ratio (x) = 0.00226 0.23661
# Poissons Ratio (y) = 0.00459 0.31331
# Poissons Ratio (z) = 0.19517 0.12709
#
# Static dielectric constant tensor:
#      x y z
#    x 1.833070 0.000000 0.000000 
#    y 0.000000 1.827170 0.000000 
#    z 0.000000 0.000000 1.800020 
# 
# From -- ./inp_files/27793.got.cif
#   From: 2010.05.17/outbox.cif.g08.bks.cpg/sg70_14_cif.got.tgz:27793.got - 2010.06.03 15:57:51.
