data_PCOD9514740
_publ_section_title
;
Structure prediction by ZEFSAII (Michael W. Deem and Ramdas Pophale) SiO2 
 PCOD9514740
Probable space group: F D D D
;
_chemical_formula_sum "Si O2"
_cell_formula_units_Z 216
_cell_length_a 13.941479
_cell_length_b 30.674923
_cell_length_c 23.474384
_cell_angle_alpha 90.000000
_cell_angle_beta 90.000000
_cell_angle_gamma 90.000000
_cell_volume 10038.909399
_symmetry_space_group_name_H-M "F D D D"
_symmetry_group_IT_number 70
_space_group.IT_coordinate_system_code '2'
_symmetry_cell_setting 'orthorhombic'
loop_
_space_group_symop_operation_xyz
x,y,z
1/4-x,1/4-y,z
x,1/4-y,1/4-z
1/4-x,y,1/4-z
-x,-y,-z
3/4+x,3/4+y,-z
-x,3/4+y,3/4+z
3/4+x,-y,3/4+z
x,1/2+y,1/2+z
1/4-x,3/4-y,1/2+z
x,3/4-y,3/4-z
1/4-x,1/2+y,3/4-z
-x,1/2-y,1/2-z
3/4+x,1/4+y,1/2-z
-x,1/4+y,1/4+z
3/4+x,1/2-y,1/4+z
1/2+x,y,1/2+z
3/4-x,1/4-y,1/2+z
1/2+x,1/4-y,3/4-z
3/4-x,y,3/4-z
1/2-x,-y,1/2-z
1/4+x,3/4+y,1/2-z
1/2-x,3/4+y,1/4+z
1/4+x,-y,1/4+z
1/2+x,1/2+y,z
3/4-x,3/4-y,z
1/2+x,3/4-y,1/4-z
3/4-x,1/2+y,1/4-z
1/2-x,1/2-y,-z
1/4+x,1/4+y,-z
1/2-x,1/4+y,3/4+z
1/4+x,1/2-y,3/4+z
loop_
_atom_site_type_symbol
_atom_site_label
_atom_site_fract_x
_atom_site_fract_y
_atom_site_fract_z
Si Si1 0.765553 0.055461 0.875077
Si Si2 0.762800 0.758389 0.244994
Si Si3 0.125000 0.625000 0.430768
Si Si4 0.636063 0.812778 0.434053
Si Si5 0.875000 0.375000 0.375000
Si Si6 0.106122 0.576786 0.057890
Si Si7 0.764670 0.143119 0.531046
Si Si8 0.333968 0.519756 0.687129
O O1 0.875000 0.073636 0.875000
O O2 0.756368 0.035686 0.937951
O O3 0.677896 0.088645 0.859043
O O4 0.747211 0.013514 0.833956
O O5 0.824846 0.717571 0.225517
O O6 0.823789 0.790759 0.283718
O O7 0.668470 0.744854 0.279891
O O8 0.212237 0.620501 0.477522
O O9 0.746478 0.813629 0.450702
O O10 0.592804 0.860859 0.442458
O O11 0.622816 0.793631 0.370329
O O12 0.810863 0.347745 0.417954
O O13 0.125000 0.625000 0.033280
O O14 0.125000 0.579370 0.125000
O O15 0.805232 0.190915 0.520735
#
# Coordination Sequence:
#
# PCOD9514740 Si02
#       8
#    32  32  16  32   8  32  32  32
#     4  11  27  46  70 102 138 189 237 287 354 431
#     4  11  24  42  67  96 140 188 222 290 356 420
#     4  11  26  47  64  98 143 182 239 278 340 434
#     4  11  22  40  64 102 139 174 226 280 352 419
#     4  10  20  32  60 100 130 172 202 280 350 412
#     4  11  23  39  68  99 132 181 242 293 344 409
#     4  11  22  38  69 100 140 172 221 290 353 405
#     4  11  22  41  71 104 136 171 233 288 349 416
#
# _framework density 21.516280999999999
#
# number of rings (size 3 to 8) (size 9 to 14) (size 15 to 20)
#    0.000    1.037    2.963    3.111    4.148    3.556 
#    0.000    0.000    3.259    0.000    0.000    0.000 
#    0.000    0.000    0.000    0.000    0.000    0.000 
#
# Total GULP energy -301477.375102 kJ/mol
# GULP energy per Si atom -5582.914354 kJ/mol
# Density = 2.146731 g / cm^3
# Si number density = 21.516281 Si / 1000 Ang^3
#
#
#
# Elastic Constant Matrix: (Units=GPa)
#
#
# Indices 1 2 3 4 5 6 
#
# 1 98.1179 25.1383 30.1576 0.0000 0.0000 0.0000
# 2 25.1383 78.1334 25.8399 0.0000 0.0000 0.0000
# 3 30.1576 25.8399 88.4075 0.0000 0.0000 0.0000
# 4 0.0000 0.0000 0.0000 -11.1823 0.0000 0.0000
# 5 0.0000 0.0000 0.0000 0.0000 83.0551 0.0000
# 6 0.0000 0.0000 0.0000 0.0000 0.0000 15.5557
#
#
#
# Elastic Compliance Matrix: (Units=1/GPa)
#
#
# Indices 1 2 3 4 5 6 
#
# 1 0.011897 -0.002751 -0.003254 0.000000 0.000000 0.000000
# 2 -0.002751 0.014805 -0.003388 0.000000 0.000000 0.000000
# 3 -0.003254 -0.003388 0.013412 0.000000 0.000000 0.000000
# 4 0.000000 0.000000 0.000000 -0.089427 0.000000 0.000000
# 5 0.000000 0.000000 0.000000 0.000000 0.012040 0.000000
# 6 0.000000 0.000000 0.000000 0.000000 0.000000 0.064285
#
#
# Mechanical properties :
#
#
# Convention : Reuss Voigt Hill
#
# Bulk Modulus (GPa) = 46.89332 47.43670 47.16501
# Shear Modulus (GPa) = 94.50367 29.72056 62.11211
#
# Velocity S-wave (km/s) = 6.63455 3.72062 5.37868
# Velocity P-wave (km/s) = 8.97393 6.36806 7.78086
#
# Compressibility (1/GPa) = 0.02132500
#
# Stress axis : x y z
#
# Youngs Moduli (GPa) = 84.05516 67.54699 74.56186
#
# Poissons Ratio (x) = 0.18586 0.24263
# Poissons Ratio (y) = 0.23128 0.25265
# Poissons Ratio (z) = 0.27352 0.22888
#
# Static dielectric constant tensor:
#      x y z
#    x 1.791310 0.000000 0.000000 
#    y 0.000000 1.813610 0.000000 
#    z 0.000000 0.000000 1.785550 
# 
# From -- ./inp_files/51603.got.cif
#   From: 2010.05.17/outbox.cif.g08.bks.cpg/sg70_26_cif.got.tgz:51603.got - 2010.06.03 15:57:51.
