data_PCOD9514805
_publ_section_title
;
Structure prediction by ZEFSAII (Michael W. Deem and Ramdas Pophale) SiO2 
 PCOD9514805
Probable space group: F D D D
;
_chemical_formula_sum "Si O2"
_cell_formula_units_Z 208
_cell_length_a 21.017255
_cell_length_b 28.003972
_cell_length_c 18.926906
_cell_angle_alpha 90.000000
_cell_angle_beta 90.000000
_cell_angle_gamma 90.000000
_cell_volume 11139.745102
_symmetry_space_group_name_H-M "F D D D"
_symmetry_group_IT_number 70
_space_group.IT_coordinate_system_code '2'
_symmetry_cell_setting 'orthorhombic'
loop_
_space_group_symop_operation_xyz
x,y,z
1/4-x,1/4-y,z
x,1/4-y,1/4-z
1/4-x,y,1/4-z
-x,-y,-z
3/4+x,3/4+y,-z
-x,3/4+y,3/4+z
3/4+x,-y,3/4+z
x,1/2+y,1/2+z
1/4-x,3/4-y,1/2+z
x,3/4-y,3/4-z
1/4-x,1/2+y,3/4-z
-x,1/2-y,1/2-z
3/4+x,1/4+y,1/2-z
-x,1/4+y,1/4+z
3/4+x,1/2-y,1/4+z
1/2+x,y,1/2+z
3/4-x,1/4-y,1/2+z
1/2+x,1/4-y,3/4-z
3/4-x,y,3/4-z
1/2-x,-y,1/2-z
1/4+x,3/4+y,1/2-z
1/2-x,3/4+y,1/4+z
1/4+x,-y,1/4+z
1/2+x,1/2+y,z
3/4-x,3/4-y,z
1/2+x,3/4-y,1/4-z
3/4-x,1/2+y,1/4-z
1/2-x,1/2-y,-z
1/4+x,1/4+y,-z
1/2-x,1/4+y,3/4+z
1/4+x,1/2-y,3/4+z
loop_
_atom_site_type_symbol
_atom_site_label
_atom_site_fract_x
_atom_site_fract_y
_atom_site_fract_z
Si Si1 0.808439 0.710328 0.231960
Si Si2 0.203641 0.891833 0.050038
Si Si3 0.274964 0.447567 0.432615
Si Si4 0.125000 0.125000 0.625000
Si Si5 0.448302 0.144357 0.792124
Si Si6 0.460394 0.705739 0.719441
Si Si7 0.625000 0.125000 0.625000
Si Si8 0.749462 0.925278 0.845750
O O1 0.796764 0.750755 0.290598
O O2 0.788309 0.659772 0.266452
O O3 0.884005 0.711949 0.215970
O O4 0.769328 0.712276 0.157431
O O5 0.225877 0.900673 0.129836
O O6 0.127633 0.896499 0.047711
O O7 0.231599 0.928568 0.995101
O O8 0.220972 0.839453 0.020747
O O9 0.332385 0.410348 0.421904
O O10 0.237429 0.447039 0.358838
O O11 0.472134 0.180895 0.732392
O O12 0.500000 0.750000 0.750000
O O13 0.574038 0.089168 0.588676
O O14 0.719187 0.875000 0.875000
#
# Coordination Sequence:
#
# PCOD9514805 Si02
#       8
#    32  32  32   8  32  32   8  32
#     4  10  21  36  61  88 116 154 204 246 286 364
#     4  10  20  35  57  85 115 156 189 236 300 354
#     4  12  23  39  57  86 122 155 195 241 305 351
#     4  12  24  40  56  80 124 174 186 254 304 348
#     4   9  18  37  62  85 114 152 202 242 290 357
#     4  11  21  37  59  83 114 156 204 244 288 358
#     4   8  16  32  60  84 116 150 198 246 316 352
#     4   8  16  34  59  85 113 151 196 244 300 348
#
# _framework density 18.671880999999999
#
# number of rings (size 3 to 8) (size 9 to 14) (size 15 to 20)
#    0.462    1.538    1.538    2.769    0.000    4.923 
#    0.000    4.615    0.000    0.000    0.000    0.000 
#    0.000    0.000    0.000    0.000    0.000    0.000 
#
# Total GULP energy -289595.658457 kJ/mol
# GULP energy per Si atom -5569.147278 kJ/mol
# Density = 1.862938 g / cm^3
# Si number density = 18.671881 Si / 1000 Ang^3
#
#
#
# Elastic Constant Matrix: (Units=GPa)
#
#
# Indices 1 2 3 4 5 6 
#
# 1 42.1646 3.6603 33.3334 0.0000 0.0000 0.0000
# 2 3.6603 9.2430 1.9678 0.0000 0.0000 0.0000
# 3 33.3334 1.9678 149.6851 0.0000 0.0000 0.0000
# 4 0.0000 0.0000 0.0000 17.7377 0.0000 0.0000
# 5 0.0000 0.0000 0.0000 0.0000 29.4988 0.0000
# 6 0.0000 0.0000 0.0000 0.0000 0.0000 22.6521
#
#
#
# Elastic Compliance Matrix: (Units=1/GPa)
#
#
# Indices 1 2 3 4 5 6 
#
# 1 0.029748 -0.010399 -0.006488 0.000000 0.000000 0.000000
# 2 -0.010399 0.112129 0.000842 0.000000 0.000000 0.000000
# 3 -0.006488 0.000842 0.008114 0.000000 0.000000 0.000000
# 4 0.000000 0.000000 0.000000 0.056377 0.000000 0.000000
# 5 0.000000 0.000000 0.000000 0.000000 0.033900 0.000000
# 6 0.000000 0.000000 0.000000 0.000000 0.000000 0.044146
#
#
# Mechanical properties :
#
#
# Convention : Reuss Voigt Hill
#
# Bulk Modulus (GPa) = 8.48169 31.00174 19.74171
# Shear Modulus (GPa) = 14.05259 24.78646 19.41953
#
# Velocity S-wave (km/s) = 2.74634 3.64741 3.22847
# Velocity P-wave (km/s) = 3.82216 5.86324 4.94906
#
# Compressibility (1/GPa) = 0.11790103
#
# Stress axis : x y z
#
# Youngs Moduli (GPa) = 33.61519 8.91829 123.23709
#
# Poissons Ratio (x) = 0.09274 0.79956
# Poissons Ratio (y) = 0.34957 -0.10374
# Poissons Ratio (z) = 0.21809 -0.00751
#
# Static dielectric constant tensor:
#      x y z
#    x 1.608920 0.000000 0.000000 
#    y 0.000000 1.748280 0.000000 
#    z 0.000000 0.000000 1.657000 
# 
# From -- ./inp_files/37747.got.cif
#   From: 2010.05.17/outbox.cif.g08.bks.cpg/sg70_19_cif.got.tgz:37747.got - 2010.06.03 15:57:51.
