data_PCOD9514682
_publ_section_title
;
Structure prediction by ZEFSAII (Michael W. Deem and Ramdas Pophale) SiO2 
 PCOD9514682
Probable space group: F D D D
;
_chemical_formula_sum "Si O2"
_cell_formula_units_Z 168
_cell_length_a 26.525007
_cell_length_b 18.560951
_cell_length_c 16.291199
_cell_angle_alpha 90.000000
_cell_angle_beta 90.000000
_cell_angle_gamma 90.000000
_cell_volume 8020.635499
_symmetry_space_group_name_H-M "F D D D"
_symmetry_group_IT_number 70
_space_group.IT_coordinate_system_code '2'
_symmetry_cell_setting 'orthorhombic'
loop_
_space_group_symop_operation_xyz
x,y,z
1/4-x,1/4-y,z
x,1/4-y,1/4-z
1/4-x,y,1/4-z
-x,-y,-z
3/4+x,3/4+y,-z
-x,3/4+y,3/4+z
3/4+x,-y,3/4+z
x,1/2+y,1/2+z
1/4-x,3/4-y,1/2+z
x,3/4-y,3/4-z
1/4-x,1/2+y,3/4-z
-x,1/2-y,1/2-z
3/4+x,1/4+y,1/2-z
-x,1/4+y,1/4+z
3/4+x,1/2-y,1/4+z
1/2+x,y,1/2+z
3/4-x,1/4-y,1/2+z
1/2+x,1/4-y,3/4-z
3/4-x,y,3/4-z
1/2-x,-y,1/2-z
1/4+x,3/4+y,1/2-z
1/2-x,3/4+y,1/4+z
1/4+x,-y,1/4+z
1/2+x,1/2+y,z
3/4-x,3/4-y,z
1/2+x,3/4-y,1/4-z
3/4-x,1/2+y,1/4-z
1/2-x,1/2-y,-z
1/4+x,1/4+y,-z
1/2-x,1/4+y,3/4+z
1/4+x,1/2-y,3/4+z
loop_
_atom_site_type_symbol
_atom_site_label
_atom_site_fract_x
_atom_site_fract_y
_atom_site_fract_z
Si Si1 0.375000 0.875000 0.375000
Si Si2 0.188585 0.290277 0.933532
Si Si3 0.293091 0.889831 0.256095
Si Si4 0.518158 0.440737 0.619721
Si Si5 0.901101 0.064800 0.242306
Si Si6 0.542106 0.322749 0.299745
O O1 0.332521 0.845359 0.311529
O O2 0.181137 0.212727 0.973176
O O3 0.181304 0.285060 0.836251
O O4 0.151395 0.348817 0.974698
O O5 0.243588 0.325421 0.950252
O O6 0.271925 0.843324 0.181678
O O7 0.569167 0.447382 0.673404
O O8 0.523344 0.393684 0.536476
O O9 0.497741 0.516285 0.585990
O O10 0.844506 0.037104 0.230856
O O11 0.553128 0.375000 0.375000
#
# Coordination Sequence:
#
# PCOD9514682 Si02
#       6
#     8  32  32  32  32  32
#     4  12  24  36  60  96 130 152 200 244 306 384
#     4   9  19  39  59  89 124 158 198 243 311 364
#     4  10  22  39  57  92 128 163 189 250 316 370
#     4  10  24  41  63  91 129 162 210 260 314 366
#     4  10  19  40  65  89 119 163 208 260 299 376
#     4  11  23  41  65  93 120 167 216 260 305 372
#
# _framework density 20.945972000000001
#
# number of rings (size 3 to 8) (size 9 to 14) (size 15 to 20)
#    0.000    1.905    1.905    2.857    5.333    0.000 
#   13.714    0.000    0.000    1.143    0.000    0.000 
#    0.000    0.000    0.000    0.000    0.000    0.000 
#
# Total GULP energy -233805.458383 kJ/mol
# GULP energy per Si atom -5566.796628 kJ/mol
# Density = 2.089830 g / cm^3
# Si number density = 20.945972 Si / 1000 Ang^3
#
#
#
# Elastic Constant Matrix: (Units=GPa)
#
#
# Indices 1 2 3 4 5 6 
#
# 1 88.6735 7.4743 60.0861 0.0000 0.0000 0.0000
# 2 7.4743 23.6210 17.8425 0.0000 0.0000 0.0000
# 3 60.0861 17.8425 175.0373 0.0000 0.0000 0.0000
# 4 0.0000 0.0000 0.0000 14.7891 0.0000 0.0000
# 5 0.0000 0.0000 0.0000 0.0000 38.7190 0.0000
# 6 0.0000 0.0000 0.0000 0.0000 0.0000 17.8580
#
#
#
# Elastic Compliance Matrix: (Units=1/GPa)
#
#
# Indices 1 2 3 4 5 6 
#
# 1 0.014714 -0.000911 -0.004958 0.000000 0.000000 0.000000
# 2 -0.000911 0.045923 -0.004369 0.000000 0.000000 0.000000
# 3 -0.004958 -0.004369 0.007860 0.000000 0.000000 0.000000
# 4 0.000000 0.000000 0.000000 0.067618 0.000000 0.000000
# 5 0.000000 0.000000 0.000000 0.000000 0.025827 0.000000
# 6 0.000000 0.000000 0.000000 0.000000 0.000000 0.055997
#
#
# Mechanical properties :
#
#
# Convention : Reuss Voigt Hill
#
# Bulk Modulus (GPa) = 20.82348 50.90418 35.86383
# Shear Modulus (GPa) = 19.65243 27.73512 23.69377
#
# Velocity S-wave (km/s) = 3.06640 3.64280 3.36696
# Velocity P-wave (km/s) = 4.74344 6.48450 5.68106
#
# Compressibility (1/GPa) = 0.04802271
#
# Stress axis : x y z
#
# Youngs Moduli (GPa) = 67.96386 21.77546 127.22063
#
# Poissons Ratio (x) = 0.01983 0.63076
# Poissons Ratio (y) = 0.06189 0.55578
# Poissons Ratio (z) = 0.33697 0.09513
#
# Static dielectric constant tensor:
#      x y z
#    x 1.820700 0.000000 0.000000 
#    y 0.000000 1.770210 0.000000 
#    z 0.000000 0.000000 1.801020 
# 
# From -- ./inp_files/29855.got.cif
#   From: 2010.05.17/outbox.cif.g08.bks.cpg/sg70_15_cif.got.tgz:29855.got - 2010.06.03 15:57:51.
