data_PCOD9514119
_publ_section_title
;
Structure prediction by ZEFSAII (Michael W. Deem and Ramdas Pophale) SiO2 
 PCOD9514119
Probable space group: F D D D
;
_chemical_formula_sum "Si O2"
_cell_formula_units_Z 144
_cell_length_a 27.292323
_cell_length_b 8.059202
_cell_length_c 37.491693
_cell_angle_alpha 90.000000
_cell_angle_beta 90.000000
_cell_angle_gamma 90.000000
_cell_volume 8246.460743
_symmetry_space_group_name_H-M "F D D D"
_symmetry_group_IT_number 70
_space_group.IT_coordinate_system_code '2'
_symmetry_cell_setting 'orthorhombic'
loop_
_space_group_symop_operation_xyz
x,y,z
1/4-x,1/4-y,z
x,1/4-y,1/4-z
1/4-x,y,1/4-z
-x,-y,-z
3/4+x,3/4+y,-z
-x,3/4+y,3/4+z
3/4+x,-y,3/4+z
x,1/2+y,1/2+z
1/4-x,3/4-y,1/2+z
x,3/4-y,3/4-z
1/4-x,1/2+y,3/4-z
-x,1/2-y,1/2-z
3/4+x,1/4+y,1/2-z
-x,1/4+y,1/4+z
3/4+x,1/2-y,1/4+z
1/2+x,y,1/2+z
3/4-x,1/4-y,1/2+z
1/2+x,1/4-y,3/4-z
3/4-x,y,3/4-z
1/2-x,-y,1/2-z
1/4+x,3/4+y,1/2-z
1/2-x,3/4+y,1/4+z
1/4+x,-y,1/4+z
1/2+x,1/2+y,z
3/4-x,3/4-y,z
1/2+x,3/4-y,1/4-z
3/4-x,1/2+y,1/4-z
1/2-x,1/2-y,-z
1/4+x,1/4+y,-z
1/2-x,1/4+y,3/4+z
1/4+x,1/2-y,3/4+z
loop_
_atom_site_type_symbol
_atom_site_label
_atom_site_fract_x
_atom_site_fract_y
_atom_site_fract_z
Si Si1 0.875000 0.875000 0.081105
Si Si2 0.806111 0.625000 0.625000
Si Si3 0.375000 0.375000 0.521847
Si Si4 0.474992 0.261253 0.989287
Si Si5 0.476552 0.743757 0.697380
Si Si6 0.172302 0.303164 0.985413
O O1 0.910022 0.762961 0.105635
O O2 0.846426 0.753978 0.053537
O O3 0.773639 0.547019 0.656168
O O4 0.423570 0.421002 0.544280
O O5 0.361539 0.544932 0.501502
O O6 0.480179 0.113152 0.960998
O O7 0.430006 0.387847 0.991216
O O8 0.523725 0.368525 0.982717
O O9 0.477952 0.169634 0.027694
#
# Coordination Sequence:
#
# PCOD9514119 Si02
#       6
#    16  16  16  32  32  32
#     4  12  23  32  52  82 112 147 173 212 276 342
#     4  12  22  32  50  80 116 149 172 213 278 352
#     4  10  17  30  50  74 102 137 181 223 266 326
#     4   9  19  33  49  67 106 153 182 220 259 310
#     4  10  19  33  49  75 108 151 178 216 262 337
#     4  10  18  33  50  71 105 145 184 224 256 322
#
# _framework density 17.462036999999999
#
# number of rings (size 3 to 8) (size 9 to 14) (size 15 to 20)
#    0.000    1.778    4.444    0.667    3.111    0.000 
#    0.000    0.000    0.000    0.000    0.000    0.000 
#    0.000  120.000    0.000    0.000    0.000    0.000 
#
# Total GULP energy -200500.029369 kJ/mol
# GULP energy per Si atom -5569.445260 kJ/mol
# Density = 1.742229 g / cm^3
# Si number density = 17.462037 Si / 1000 Ang^3
#
#
#
# Elastic Constant Matrix: (Units=GPa)
#
#
# Indices 1 2 3 4 5 6 
#
# 1 52.9489 39.3267 43.5730 0.0004 -0.0005 -0.0027
# 2 39.3267 131.4140 48.3271 0.0001 -0.0003 -0.0010
# 3 43.5730 48.3271 104.1746 0.0000 0.0001 -0.0007
# 4 0.0004 0.0001 0.0000 16.5886 0.0001 -0.0003
# 5 -0.0005 -0.0003 0.0001 0.0001 30.5467 0.0005
# 6 -0.0027 -0.0010 -0.0007 -0.0003 0.0005 55.3122
#
#
#
# Elastic Compliance Matrix: (Units=1/GPa)
#
#
# Indices 1 2 3 4 5 6 
#
# 1 0.031875 -0.005590 -0.010739 -0.000001 0.000000 0.000001
# 2 -0.005590 0.010155 -0.002373 0.000000 0.000000 0.000000
# 3 -0.010739 -0.002373 0.015192 0.000000 0.000000 0.000000
# 4 -0.000001 0.000000 0.000000 0.060282 0.000000 0.000000
# 5 0.000000 0.000000 0.000000 0.000000 0.032737 0.000000
# 6 0.000001 0.000000 0.000000 0.000000 0.000000 0.018079
#
#
# Mechanical properties :
#
#
# Convention : Reuss Voigt Hill
#
# Bulk Modulus (GPa) = 50.45813 61.22124 55.83969
# Shear Modulus (GPa) = 23.54814 30.97689 27.26251
#
# Velocity S-wave (km/s) = 3.67622 4.21641 3.95555
# Velocity P-wave (km/s) = 6.85406 7.67071 7.27386
#
# Compressibility (1/GPa) = 0.01981841
#
# Stress axis : x y z
#
# Youngs Moduli (GPa) = 31.37211 98.47446 65.82370
#
# Poissons Ratio (x) = 0.55043 0.70691
# Poissons Ratio (y) = 0.17536 0.15620
# Poissons Ratio (z) = 0.33692 0.23368
#
# Static dielectric constant tensor:
#      x y z
#    x 1.626310 0.000000 0.000000 
#    y 0.000000 1.705690 0.000000 
#    z 0.000000 0.000000 1.557880 
# 
# From -- ./inp_files/12270.got.cif
#   From: 2010.05.17/outbox.cif.g08.bks.cpg/sg70_7_cif.got.tgz:12270.got - 2010.06.03 15:57:51.
