data_PCOD9514684
_publ_section_title
;
Structure prediction by ZEFSAII (Michael W. Deem and Ramdas Pophale) SiO2 
 PCOD9514684
Probable space group: F D D D
;
_chemical_formula_sum "Si O2"
_cell_formula_units_Z 216
_cell_length_a 20.069903
_cell_length_b 23.148728
_cell_length_c 19.551567
_cell_angle_alpha 90.000000
_cell_angle_beta 90.000000
_cell_angle_gamma 90.000000
_cell_volume 9083.515801
_symmetry_space_group_name_H-M "F D D D"
_symmetry_group_IT_number 70
_space_group.IT_coordinate_system_code '2'
_symmetry_cell_setting 'orthorhombic'
loop_
_space_group_symop_operation_xyz
x,y,z
1/4-x,1/4-y,z
x,1/4-y,1/4-z
1/4-x,y,1/4-z
-x,-y,-z
3/4+x,3/4+y,-z
-x,3/4+y,3/4+z
3/4+x,-y,3/4+z
x,1/2+y,1/2+z
1/4-x,3/4-y,1/2+z
x,3/4-y,3/4-z
1/4-x,1/2+y,3/4-z
-x,1/2-y,1/2-z
3/4+x,1/4+y,1/2-z
-x,1/4+y,1/4+z
3/4+x,1/2-y,1/4+z
1/2+x,y,1/2+z
3/4-x,1/4-y,1/2+z
1/2+x,1/4-y,3/4-z
3/4-x,y,3/4-z
1/2-x,-y,1/2-z
1/4+x,3/4+y,1/2-z
1/2-x,3/4+y,1/4+z
1/4+x,-y,1/4+z
1/2+x,1/2+y,z
3/4-x,3/4-y,z
1/2+x,3/4-y,1/4-z
3/4-x,1/2+y,1/4-z
1/2-x,1/2-y,-z
1/4+x,1/4+y,-z
1/2-x,1/4+y,3/4+z
1/4+x,1/2-y,3/4+z
loop_
_atom_site_type_symbol
_atom_site_label
_atom_site_fract_x
_atom_site_fract_y
_atom_site_fract_z
Si Si1 0.702845 0.140217 0.862979
Si Si2 0.477436 0.027045 0.142159
Si Si3 0.525950 0.885411 0.478703
Si Si4 0.875503 0.710608 0.230593
Si Si5 0.748876 0.051046 0.959821
Si Si6 0.777133 0.292248 0.382497
Si Si7 0.625000 0.125000 0.625000
Si Si8 0.125000 0.734242 0.125000
O O1 0.625000 0.125000 0.858997
O O2 0.721474 0.207234 0.855393
O O3 0.739524 0.109424 0.799993
O O4 0.728650 0.113847 0.934313
O O5 0.431266 0.042068 0.077921
O O6 0.462613 0.047939 0.219060
O O7 0.554637 0.047381 0.135580
O O8 0.594858 0.852781 0.486712
O O9 0.531106 0.944889 0.436313
O O10 0.488231 0.836451 0.430743
O O11 0.818436 0.759675 0.212036
O O12 0.892486 0.729081 0.307411
O O13 0.788701 0.018962 0.899106
O O14 0.837377 0.325888 0.419695
#
# Coordination Sequence:
#
# PCOD9514684 Si02
#       8
#    32  32  32  32  32  32   8  16
#     4  12  22  37  68  94 133 188 232 290 364 418
#     4  11  22  41  65  99 132 179 231 294 358 420
#     4   9  19  35  62  89 126 170 225 283 339 427
#     4  10  19  40  65  94 129 172 227 284 356 424
#     4  10  22  39  59  98 133 169 238 284 339 442
#     4   9  18  34  57  87 128 166 221 277 338 412
#     4   8  16  28  58  76 120 168 206 248 336 408
#     4  10  20  38  69  95 126 168 229 283 354 424
#
# _framework density 23.779337999999999
#
# number of rings (size 3 to 8) (size 9 to 14) (size 15 to 20)
#    0.000    2.074    5.926    0.444    4.148    0.593 
#    0.000    8.148    0.000   10.667    0.000    0.000 
#    0.000    0.000    0.000    0.000    0.000    0.000 
#
# Total GULP energy -300709.042639 kJ/mol
# GULP energy per Si atom -5568.685975 kJ/mol
# Density = 2.372522 g / cm^3
# Si number density = 23.779338 Si / 1000 Ang^3
#
#
#
# Elastic Constant Matrix: (Units=GPa)
#
#
# Indices 1 2 3 4 5 6 
#
# 1 51.8421 7.8940 26.0705 0.0000 0.0000 0.0000
# 2 7.8940 41.2966 38.9743 0.0000 0.0000 0.0000
# 3 26.0705 38.9743 149.8212 0.0000 0.0000 0.0000
# 4 0.0000 0.0000 0.0000 1.1962 0.0000 0.0000
# 5 0.0000 0.0000 0.0000 0.0000 40.7255 0.0000
# 6 0.0000 0.0000 0.0000 0.0000 0.0000 4.9624
#
#
#
# Elastic Compliance Matrix: (Units=1/GPa)
#
#
# Indices 1 2 3 4 5 6 
#
# 1 0.021157 -0.000755 -0.003485 0.000000 0.000000 0.000000
# 2 -0.000755 0.032122 -0.008225 0.000000 0.000000 0.000000
# 3 -0.003485 -0.008225 0.009421 0.000000 0.000000 0.000000
# 4 0.000000 0.000000 0.000000 0.835984 0.000000 0.000000
# 5 0.000000 0.000000 0.000000 0.000000 0.024555 0.000000
# 6 0.000000 0.000000 0.000000 0.000000 0.000000 0.201517
#
#
# Mechanical properties :
#
#
# Convention : Reuss Voigt Hill
#
# Bulk Modulus (GPa) = 26.47648 43.20417 34.84033
# Shear Modulus (GPa) = 4.30191 20.71155 12.50673
#
# Velocity S-wave (km/s) = 1.34649 2.95445 2.29585
# Velocity P-wave (km/s) = 3.68453 5.46321 4.65953
#
# Compressibility (1/GPa) = 0.03776937
#
# Stress axis : x y z
#
# Youngs Moduli (GPa) = 47.26589 31.13176 106.15002
#
# Poissons Ratio (x) = 0.02351 0.36994
# Poissons Ratio (y) = 0.03569 0.87305
# Poissons Ratio (z) = 0.16473 0.25605
#
# Static dielectric constant tensor:
#      x y z
#    x 2.588990 0.000000 0.000000 
#    y 0.000000 1.911040 0.000000 
#    z 0.000000 0.000000 1.995040 
# 
# From -- ./inp_files/45153.got.cif
#   From: 2010.05.17/outbox.cif.g08.bks.cpg/sg70_23_cif.got.tgz:45153.got - 2010.06.03 15:57:51.
