data_PCOD9514367
_publ_section_title
;
Structure prediction by ZEFSAII (Michael W. Deem and Ramdas Pophale) SiO2 
 PCOD9514367
Probable space group: F D D D
;
_chemical_formula_sum "Si O2"
_cell_formula_units_Z 176
_cell_length_a 13.712604
_cell_length_b 17.495821
_cell_length_c 29.004916
_cell_angle_alpha 90.000000
_cell_angle_beta 90.000000
_cell_angle_gamma 90.000000
_cell_volume 6958.664099
_symmetry_space_group_name_H-M "F D D D"
_symmetry_group_IT_number 70
_space_group.IT_coordinate_system_code '2'
_symmetry_cell_setting 'orthorhombic'
loop_
_space_group_symop_operation_xyz
x,y,z
1/4-x,1/4-y,z
x,1/4-y,1/4-z
1/4-x,y,1/4-z
-x,-y,-z
3/4+x,3/4+y,-z
-x,3/4+y,3/4+z
3/4+x,-y,3/4+z
x,1/2+y,1/2+z
1/4-x,3/4-y,1/2+z
x,3/4-y,3/4-z
1/4-x,1/2+y,3/4-z
-x,1/2-y,1/2-z
3/4+x,1/4+y,1/2-z
-x,1/4+y,1/4+z
3/4+x,1/2-y,1/4+z
1/2+x,y,1/2+z
3/4-x,1/4-y,1/2+z
1/2+x,1/4-y,3/4-z
3/4-x,y,3/4-z
1/2-x,-y,1/2-z
1/4+x,3/4+y,1/2-z
1/2-x,3/4+y,1/4+z
1/4+x,-y,1/4+z
1/2+x,1/2+y,z
3/4-x,3/4-y,z
1/2+x,3/4-y,1/4-z
3/4-x,1/2+y,1/4-z
1/2-x,1/2-y,-z
1/4+x,1/4+y,-z
1/2-x,1/4+y,3/4+z
1/4+x,1/2-y,3/4+z
loop_
_atom_site_type_symbol
_atom_site_label
_atom_site_fract_x
_atom_site_fract_y
_atom_site_fract_z
Si Si1 0.798530 0.609320 0.453517
Si Si2 0.375000 0.375000 0.257633
Si Si3 0.784866 0.974848 0.338527
Si Si4 0.715612 0.413366 0.264930
Si Si5 0.375000 0.375000 0.699468
Si Si6 0.333251 0.721812 0.609588
Si Si7 0.625000 0.268904 0.625000
O O1 0.695632 0.578714 0.472618
O O2 0.776607 0.687487 0.427431
O O3 0.859989 0.612487 0.499602
O O4 0.878479 0.568753 0.420888
O O5 0.434817 0.321394 0.292695
O O6 0.875000 0.967049 0.375000
O O7 0.681706 0.954416 0.362484
O O8 0.750000 0.500000 0.250000
O O9 0.788330 0.360174 0.236066
O O10 0.704808 0.415217 0.319541
O O11 0.358217 0.448052 0.666931
O O12 0.229964 0.732570 0.634961
#
# Coordination Sequence:
#
# PCOD9514367 Si02
#       7
#    32  16  32  32  16  32  16
#     4  12  23  45  70 106 139 187 254 289 360 428
#     4  12  29  47  72 110 151 193 234 314 374 444
#     4  12  25  47  75 106 144 195 243 306 370 437
#     4  10  21  40  67 101 140 182 230 301 352 420
#     4  10  18  39  68 103 139 189 250 291 355 408
#     4  11  23  43  70 109 147 189 245 298 363 432
#     4  12  22  42  72 110 140 190 250 304 346 436
#
# _framework density 25.292211000000002
#
# number of rings (size 3 to 8) (size 9 to 14) (size 15 to 20)
#    0.000    0.727    4.545    5.182    0.000    1.455 
#    3.273    0.000    0.000    0.000    0.000    0.000 
#    0.000    0.000    0.000    0.000    0.000    0.000 
#
# Total GULP energy -245528.860427 kJ/mol
# GULP energy per Si atom -5580.201373 kJ/mol
# Density = 2.523464 g / cm^3
# Si number density = 25.292211 Si / 1000 Ang^3
#
#
#
# Elastic Constant Matrix: (Units=GPa)
#
#
# Indices 1 2 3 4 5 6 
#
# 1 193.5357 32.9582 35.3920 0.0000 0.0000 0.0000
# 2 32.9582 74.0318 35.2058 0.0000 0.0000 0.0000
# 3 35.3920 35.2058 65.4340 0.0000 0.0000 0.0000
# 4 0.0000 0.0000 0.0000 -65.5758 0.0000 0.0000
# 5 0.0000 0.0000 0.0000 0.0000 297.3755 0.0000
# 6 0.0000 0.0000 0.0000 0.0000 0.0000 0.3522
#
#
#
# Elastic Compliance Matrix: (Units=1/GPa)
#
#
# Indices 1 2 3 4 5 6 
#
# 1 0.005852 -0.001478 -0.002370 0.000000 0.000000 0.000000
# 2 -0.001478 0.018526 -0.009168 0.000000 0.000000 0.000000
# 3 -0.002370 -0.009168 0.021497 0.000000 0.000000 0.000000
# 4 0.000000 0.000000 0.000000 -0.015250 0.000000 0.000000
# 5 0.000000 0.000000 0.000000 0.000000 0.003363 0.000000
# 6 0.000000 0.000000 0.000000 0.000000 0.000000 2.839365
#
#
# Mechanical properties :
#
#
# Convention : Reuss Voigt Hill
#
# Bulk Modulus (GPa) = 50.39651 60.01260 55.20455
# Shear Modulus (GPa) = 1.72058 61.72674 31.72366
#
# Velocity S-wave (km/s) = 0.82569 4.94555 3.54543
# Velocity P-wave (km/s) = 4.56924 7.50936 6.21564
#
# Compressibility (1/GPa) = 0.01984264
#
# Stress axis : x y z
#
# Youngs Moduli (GPa) = 170.87760 53.97941 46.51808
#
# Poissons Ratio (x) = 0.07980 0.11024
# Poissons Ratio (y) = 0.25261 0.42647
# Poissons Ratio (z) = 0.40497 0.49487
#
# Static dielectric constant tensor:
#      x y z
#    x 2.297110 0.000000 0.000000 
#    y 0.000000 2.148720 0.000000 
#    z 0.000000 0.000000 2.056720 
# 
# From -- ./inp_files/58607.got.cif
#   From: 2010.05.17/outbox.cif.g08.bks.cpg/sg70_30_cif.got.tgz:58607.got - 2010.06.03 15:57:51.
