data_PCOD9514519
_publ_section_title
;
Structure prediction by ZEFSAII (Michael W. Deem and Ramdas Pophale) SiO2 
 PCOD9514519
Probable space group: F D D D
;
_chemical_formula_sum "Si O2"
_cell_formula_units_Z 144
_cell_length_a 17.265656
_cell_length_b 14.635939
_cell_length_c 30.386821
_cell_angle_alpha 90.000000
_cell_angle_beta 90.000000
_cell_angle_gamma 90.000000
_cell_volume 7678.721954
_symmetry_space_group_name_H-M "F D D D"
_symmetry_group_IT_number 70
_space_group.IT_coordinate_system_code '2'
_symmetry_cell_setting 'orthorhombic'
loop_
_space_group_symop_operation_xyz
x,y,z
1/4-x,1/4-y,z
x,1/4-y,1/4-z
1/4-x,y,1/4-z
-x,-y,-z
3/4+x,3/4+y,-z
-x,3/4+y,3/4+z
3/4+x,-y,3/4+z
x,1/2+y,1/2+z
1/4-x,3/4-y,1/2+z
x,3/4-y,3/4-z
1/4-x,1/2+y,3/4-z
-x,1/2-y,1/2-z
3/4+x,1/4+y,1/2-z
-x,1/4+y,1/4+z
3/4+x,1/2-y,1/4+z
1/2+x,y,1/2+z
3/4-x,1/4-y,1/2+z
1/2+x,1/4-y,3/4-z
3/4-x,y,3/4-z
1/2-x,-y,1/2-z
1/4+x,3/4+y,1/2-z
1/2-x,3/4+y,1/4+z
1/4+x,-y,1/4+z
1/2+x,1/2+y,z
3/4-x,3/4-y,z
1/2+x,3/4-y,1/4-z
3/4-x,1/2+y,1/4-z
1/2-x,1/2-y,-z
1/4+x,1/4+y,-z
1/2-x,1/4+y,3/4+z
1/4+x,1/2-y,3/4+z
loop_
_atom_site_type_symbol
_atom_site_label
_atom_site_fract_x
_atom_site_fract_y
_atom_site_fract_z
Si Si1 0.853211 0.522352 0.802289
Si Si2 0.375000 0.085419 0.375000
Si Si3 0.497149 0.355148 0.426199
Si Si4 0.148361 0.837404 0.479510
Si Si5 0.189182 0.548934 0.691435
O O1 0.835882 0.600644 0.838181
O O2 0.785212 0.447819 0.800913
O O3 0.928292 0.467826 0.819620
O O4 0.878247 0.571824 0.757430
O O5 0.314278 0.022056 0.348926
O O6 0.510277 0.375000 0.375000
O O7 0.574189 0.319753 0.449388
O O8 0.162816 0.757718 0.515285
O O9 0.227073 0.841453 0.451346
O O10 0.125000 0.625000 0.682866
#
# Coordination Sequence:
#
# PCOD9514519 Si02
#       5
#    32  16  32  32  32
#     4  10  19  38  59  85 115 155 187 232 304 346
#     4  10  19  35  60  78 110 158 196 223 283 356
#     4  11  20  35  61  88 116 149 189 248 291 347
#     4  10  22  36  59  85 115 147 199 243 282 346
#     4  10  21  38  57  81 113 159 193 235 288 345
#
# _framework density 18.753119999999999
#
# number of rings (size 3 to 8) (size 9 to 14) (size 15 to 20)
#    0.000    1.778    2.222    3.000    0.000    1.778 
#    0.000    0.000    4.889    0.000    0.000    0.000 
#    0.000    0.000    0.000    0.000    0.000    0.000 
#
# Total GULP energy -200933.618664 kJ/mol
# GULP energy per Si atom -5581.489407 kJ/mol
# Density = 1.871044 g / cm^3
# Si number density = 18.753120 Si / 1000 Ang^3
#
#
#
# Elastic Constant Matrix: (Units=GPa)
#
#
# Indices 1 2 3 4 5 6 
#
# 1 125.7889 35.5969 47.8908 0.0000 0.0000 0.0000
# 2 35.5969 76.8717 26.6441 0.0000 0.0000 0.0000
# 3 47.8908 26.6441 74.6452 0.0000 0.0000 0.0000
# 4 0.0000 0.0000 0.0000 20.7423 0.0000 0.0000
# 5 0.0000 0.0000 0.0000 0.0000 -7.2229 0.0000
# 6 0.0000 0.0000 0.0000 0.0000 0.0000 15.3573
#
#
#
# Elastic Compliance Matrix: (Units=1/GPa)
#
#
# Indices 1 2 3 4 5 6 
#
# 1 0.011113 -0.003053 -0.006041 0.000000 0.000000 0.000000
# 2 -0.003053 0.015684 -0.003640 0.000000 0.000000 0.000000
# 3 -0.006041 -0.003640 0.018571 0.000000 0.000000 0.000000
# 4 0.000000 0.000000 0.000000 0.048211 0.000000 0.000000
# 5 0.000000 0.000000 0.000000 0.000000 -0.138448 0.000000
# 6 0.000000 0.000000 0.000000 0.000000 0.000000 0.065116
#
#
# Mechanical properties :
#
#
# Convention : Reuss Voigt Hill
#
# Bulk Modulus (GPa) = 50.24407 55.28549 52.76478
# Shear Modulus (GPa) = 95.51591 16.92026 56.21809
#
# Velocity S-wave (km/s) = 7.14450 3.00703 5.48116
# Velocity P-wave (km/s) = 9.74213 6.44988 8.26166
#
# Compressibility (1/GPa) = 0.01990285
#
# Stress axis : x y z
#
# Youngs Moduli (GPa) = 89.98082 63.76006 53.84624
#
# Poissons Ratio (x) = 0.19464 0.32526
# Poissons Ratio (y) = 0.27468 0.19599
# Poissons Ratio (z) = 0.54354 0.23207
#
# Static dielectric constant tensor:
#      x y z
#    x 1.601060 0.000000 0.000000 
#    y 0.000000 1.664060 0.000000 
#    z 0.000000 0.000000 1.660130 
# 
# From -- ./inp_files/26573.got.cif
#   From: 2010.05.17/outbox.cif.g08.bks.cpg/sg70_14_cif.got.tgz:26573.got - 2010.06.03 15:57:51.
