data_PCOD9514444
_publ_section_title
;
Structure prediction by ZEFSAII (Michael W. Deem and Ramdas Pophale) SiO2 
 PCOD9514444
Probable space group: F D D D
;
_chemical_formula_sum "Si O2"
_cell_formula_units_Z 160
_cell_length_a 21.500497
_cell_length_b 19.931655
_cell_length_c 16.638140
_cell_angle_alpha 90.000000
_cell_angle_beta 90.000000
_cell_angle_gamma 90.000000
_cell_volume 7130.116644
_symmetry_space_group_name_H-M "F D D D"
_symmetry_group_IT_number 70
_space_group.IT_coordinate_system_code '2'
_symmetry_cell_setting 'orthorhombic'
loop_
_space_group_symop_operation_xyz
x,y,z
1/4-x,1/4-y,z
x,1/4-y,1/4-z
1/4-x,y,1/4-z
-x,-y,-z
3/4+x,3/4+y,-z
-x,3/4+y,3/4+z
3/4+x,-y,3/4+z
x,1/2+y,1/2+z
1/4-x,3/4-y,1/2+z
x,3/4-y,3/4-z
1/4-x,1/2+y,3/4-z
-x,1/2-y,1/2-z
3/4+x,1/4+y,1/2-z
-x,1/4+y,1/4+z
3/4+x,1/2-y,1/4+z
1/2+x,y,1/2+z
3/4-x,1/4-y,1/2+z
1/2+x,1/4-y,3/4-z
3/4-x,y,3/4-z
1/2-x,-y,1/2-z
1/4+x,3/4+y,1/2-z
1/2-x,3/4+y,1/4+z
1/4+x,-y,1/4+z
1/2+x,1/2+y,z
3/4-x,3/4-y,z
1/2+x,3/4-y,1/4-z
3/4-x,1/2+y,1/4-z
1/2-x,1/2-y,-z
1/4+x,1/4+y,-z
1/2-x,1/4+y,3/4+z
1/4+x,1/2-y,3/4+z
loop_
_atom_site_type_symbol
_atom_site_label
_atom_site_fract_x
_atom_site_fract_y
_atom_site_fract_z
Si Si1 0.398061 0.798808 0.219144
Si Si2 0.588659 0.563867 0.709815
Si Si3 0.780735 0.544525 0.339321
Si Si4 0.304242 0.564687 0.026232
Si Si5 0.104389 0.335568 0.530619
O O1 0.375000 0.875000 0.228810
O O2 0.431876 0.766684 0.298425
O O3 0.456592 0.792087 0.159895
O O4 0.341708 0.749965 0.192787
O O5 0.625000 0.625000 0.753498
O O6 0.625000 0.559007 0.625000
O O7 0.515755 0.576036 0.696171
O O8 0.591226 0.489511 0.745686
O O9 0.801749 0.551578 0.430187
O O10 0.799008 0.610242 0.286482
O O11 0.344863 0.632002 0.028178
O O12 0.125000 0.332320 0.625000
#
# Coordination Sequence:
#
# PCOD9514444 Si02
#       5
#    32  32  32  32  32
#     4  10  19  33  56  83 111 139 170 217 269 320
#     4  10  21  37  55  76 103 138 184 232 266 300
#     4   9  19  34  54  83 110 137 173 208 264 338
#     4  10  20  35  54  77 106 142 178 213 266 325
#     4   8  16  34  55  73 102 136 166 212 267 321
#
# _framework density 22.440026
#
# number of rings (size 3 to 8) (size 9 to 14) (size 15 to 20)
#    0.000    2.600    0.000    3.000    0.000    3.200 
#    0.000    4.000    0.000    0.000    0.000    0.000 
#    0.000    0.000    0.000    0.000    0.000    0.000 
#
# Total GULP energy -223110.409972 kJ/mol
# GULP energy per Si atom -5577.760249 kJ/mol
# Density = 2.238895 g / cm^3
# Si number density = 22.440026 Si / 1000 Ang^3
#
#
#
# Elastic Constant Matrix: (Units=GPa)
#
#
# Indices 1 2 3 4 5 6 
#
# 1 184.1832 87.4734 9.7964 0.0000 0.0000 0.0000
# 2 87.4734 188.3563 24.7110 0.0000 0.0000 0.0000
# 3 9.7964 24.7110 32.8388 0.0000 0.0000 0.0000
# 4 0.0000 0.0000 0.0000 6.8681 0.0000 0.0000
# 5 0.0000 0.0000 0.0000 0.0000 30.4062 0.0000
# 6 0.0000 0.0000 0.0000 0.0000 0.0000 3.0773
#
#
#
# Elastic Compliance Matrix: (Units=1/GPa)
#
#
# Indices 1 2 3 4 5 6 
#
# 1 0.006970 -0.003289 0.000396 0.000000 0.000000 0.000000
# 2 -0.003289 0.007443 -0.004619 0.000000 0.000000 0.000000
# 3 0.000396 -0.004619 0.033810 0.000000 0.000000 0.000000
# 4 0.000000 0.000000 0.000000 0.145601 0.000000 0.000000
# 5 0.000000 0.000000 0.000000 0.000000 0.032888 0.000000
# 6 0.000000 0.000000 0.000000 0.000000 0.000000 0.324962
#
#
# Mechanical properties :
#
#
# Convention : Reuss Voigt Hill
#
# Bulk Modulus (GPa) = 30.12303 72.14887 51.13595
# Shear Modulus (GPa) = 8.65403 26.96348 17.80876
#
# Velocity S-wave (km/s) = 1.96593 3.47014 2.82017
# Velocity P-wave (km/s) = 4.31348 6.94820 5.78289
#
# Compressibility (1/GPa) = 0.03319719
#
# Stress axis : x y z
#
# Youngs Moduli (GPa) = 143.46495 134.36341 29.57729
#
# Poissons Ratio (x) = 0.44191 -0.01170
# Poissons Ratio (y) = 0.47185 0.13663
# Poissons Ratio (z) = -0.05675 0.62066
#
# Static dielectric constant tensor:
#      x y z
#    x 1.864150 0.000000 0.000000 
#    y 0.000000 1.879680 0.000000 
#    z 0.000000 0.000000 1.865390 
# 
# From -- ./inp_files/43671.got.cif
#   From: 2010.05.17/outbox.cif.g08.bks.cpg/sg70_22_cif.got.tgz:43671.got - 2010.06.03 15:57:51.
