data_PCOD9514395
_publ_section_title
;
Structure prediction by ZEFSAII (Michael W. Deem and Ramdas Pophale) SiO2 
 PCOD9514395
Probable space group: F D D D
;
_chemical_formula_sum "Si O2"
_cell_formula_units_Z 208
_cell_length_a 16.392192
_cell_length_b 25.633600
_cell_length_c 17.221151
_cell_angle_alpha 90.000000
_cell_angle_beta 90.000000
_cell_angle_gamma 90.000000
_cell_volume 7236.170815
_symmetry_space_group_name_H-M "F D D D"
_symmetry_group_IT_number 70
_space_group.IT_coordinate_system_code '2'
_symmetry_cell_setting 'orthorhombic'
loop_
_space_group_symop_operation_xyz
x,y,z
1/4-x,1/4-y,z
x,1/4-y,1/4-z
1/4-x,y,1/4-z
-x,-y,-z
3/4+x,3/4+y,-z
-x,3/4+y,3/4+z
3/4+x,-y,3/4+z
x,1/2+y,1/2+z
1/4-x,3/4-y,1/2+z
x,3/4-y,3/4-z
1/4-x,1/2+y,3/4-z
-x,1/2-y,1/2-z
3/4+x,1/4+y,1/2-z
-x,1/4+y,1/4+z
3/4+x,1/2-y,1/4+z
1/2+x,y,1/2+z
3/4-x,1/4-y,1/2+z
1/2+x,1/4-y,3/4-z
3/4-x,y,3/4-z
1/2-x,-y,1/2-z
1/4+x,3/4+y,1/2-z
1/2-x,3/4+y,1/4+z
1/4+x,-y,1/4+z
1/2+x,1/2+y,z
3/4-x,3/4-y,z
1/2+x,3/4-y,1/4-z
3/4-x,1/2+y,1/4-z
1/2-x,1/2-y,-z
1/4+x,1/4+y,-z
1/2-x,1/4+y,3/4+z
1/4+x,1/2-y,3/4+z
loop_
_atom_site_type_symbol
_atom_site_label
_atom_site_fract_x
_atom_site_fract_y
_atom_site_fract_z
Si Si1 0.455483 0.412699 0.465503
Si Si2 0.029719 0.929831 0.204319
Si Si3 0.941034 0.060188 0.222746
Si Si4 0.628539 0.187461 0.735492
Si Si5 0.639884 0.523632 0.842489
Si Si6 0.953107 0.678151 0.769160
Si Si7 0.625000 0.000161 0.125000
O O1 0.375000 0.375000 0.461050
O O2 0.521044 0.368978 0.487167
O O3 0.457939 0.449474 0.541360
O O4 0.444759 0.457484 0.400627
O O5 0.033602 0.917117 0.111837
O O6 0.115151 0.956383 0.228811
O O7 0.943296 0.959092 0.203457
O O8 0.034969 0.047197 0.197286
O O9 0.942568 0.121806 0.231430
O O10 0.875637 0.037754 0.161250
O O11 0.910006 0.035611 0.305508
O O12 0.625000 0.125000 0.723729
O O13 0.644351 0.199813 0.825572
O O14 0.532739 0.202808 0.728300
#
# Coordination Sequence:
#
# PCOD9514395 Si02
#       7
#    32  32  32  32  32  32  16
#     4   9  16  27  41  60  91 129 156 175 217 287
#     4   9  16  29  47  66  87 119 161 193 229 289
#     4  10  19  29  42  67  94 118 155 198 235 280
#     4   9  17  32  49  64  91 127 156 191 241 289
#     4   9  17  28  44  65  91 120 150 189 236 278
#     4   9  17  30  48  65  84 116 157 202 241 277
#     4  10  19  26  38  64  98 128 152 184 228 282
#
# _framework density 28.744485000000001
#
# number of rings (size 3 to 8) (size 9 to 14) (size 15 to 20)
#    0.000    2.769    0.000    4.385    0.000    1.231 
#    0.000    4.615    0.000    0.000    0.000    0.000 
#    0.000    0.000    0.000    0.000    0.000    0.000 
#
# Total GULP energy -290437.235728 kJ/mol
# GULP energy per Si atom -5585.331456 kJ/mol
# Density = 2.867906 g / cm^3
# Si number density = 28.744485 Si / 1000 Ang^3
#
#
#
# Elastic Constant Matrix: (Units=GPa)
#
#
# Indices 1 2 3 4 5 6 
#
# 1 188.0671 27.3414 9.0221 0.0000 0.0000 0.0000
# 2 27.3414 78.5175 11.7382 0.0000 0.0000 0.0000
# 3 9.0221 11.7382 107.0517 0.0000 0.0000 0.0000
# 4 0.0000 0.0000 0.0000 22.0018 0.0000 0.0000
# 5 0.0000 0.0000 0.0000 0.0000 21.4868 0.0000
# 6 0.0000 0.0000 0.0000 0.0000 0.0000 58.0240
#
#
#
# Elastic Compliance Matrix: (Units=1/GPa)
#
#
# Indices 1 2 3 4 5 6 
#
# 1 0.005608 -0.001914 -0.000263 0.000000 0.000000 0.000000
# 2 -0.001914 0.013601 -0.001330 0.000000 0.000000 0.000000
# 3 -0.000263 -0.001330 0.009509 0.000000 0.000000 0.000000
# 4 0.000000 0.000000 0.000000 0.045451 0.000000 0.000000
# 5 0.000000 0.000000 0.000000 0.000000 0.046540 0.000000
# 6 0.000000 0.000000 0.000000 0.000000 0.000000 0.017234
#
#
# Mechanical properties :
#
#
# Convention : Reuss Voigt Hill
#
# Bulk Modulus (GPa) = 46.07106 52.20442 49.13774
# Shear Modulus (GPa) = 32.85325 42.00482 37.42904
#
# Velocity S-wave (km/s) = 3.38441 3.82687 3.61242
# Velocity P-wave (km/s) = 5.59776 6.14227 5.87632
#
# Compressibility (1/GPa) = 0.02170560
#
# Stress axis : x y z
#
# Youngs Moduli (GPa) = 178.31500 73.52292 105.16049
#
# Poissons Ratio (x) = 0.14069 0.02764
# Poissons Ratio (y) = 0.34122 0.13987
# Poissons Ratio (z) = 0.04686 0.09779
#
# Static dielectric constant tensor:
#      x y z
#    x 2.326410 0.000000 0.000000 
#    y 0.000000 2.330380 0.000000 
#    z 0.000000 0.000000 2.193050 
# 
# From -- ./inp_files/52344.got.cif
#   From: 2010.05.17/outbox.cif.g08.bks.cpg/sg70_27_cif.got.tgz:52344.got - 2010.06.03 15:57:51.
