data_PCOD9514093
_publ_section_title
;
Structure prediction by ZEFSAII (Michael W. Deem and Ramdas Pophale) SiO2 
 PCOD9514093
Probable space group: F D D D
;
_chemical_formula_sum "Si O2"
_cell_formula_units_Z 176
_cell_length_a 10.616656
_cell_length_b 28.098434
_cell_length_c 27.705350
_cell_angle_alpha 90.000000
_cell_angle_beta 90.000000
_cell_angle_gamma 90.000000
_cell_volume 8264.821965
_symmetry_space_group_name_H-M "F D D D"
_symmetry_group_IT_number 70
_space_group.IT_coordinate_system_code '2'
_symmetry_cell_setting 'orthorhombic'
loop_
_space_group_symop_operation_xyz
x,y,z
1/4-x,1/4-y,z
x,1/4-y,1/4-z
1/4-x,y,1/4-z
-x,-y,-z
3/4+x,3/4+y,-z
-x,3/4+y,3/4+z
3/4+x,-y,3/4+z
x,1/2+y,1/2+z
1/4-x,3/4-y,1/2+z
x,3/4-y,3/4-z
1/4-x,1/2+y,3/4-z
-x,1/2-y,1/2-z
3/4+x,1/4+y,1/2-z
-x,1/4+y,1/4+z
3/4+x,1/2-y,1/4+z
1/2+x,y,1/2+z
3/4-x,1/4-y,1/2+z
1/2+x,1/4-y,3/4-z
3/4-x,y,3/4-z
1/2-x,-y,1/2-z
1/4+x,3/4+y,1/2-z
1/2-x,3/4+y,1/4+z
1/4+x,-y,1/4+z
1/2+x,1/2+y,z
3/4-x,3/4-y,z
1/2+x,3/4-y,1/4-z
3/4-x,1/2+y,1/4-z
1/2-x,1/2-y,-z
1/4+x,1/4+y,-z
1/2-x,1/4+y,3/4+z
1/4+x,1/2-y,3/4+z
loop_
_atom_site_type_symbol
_atom_site_label
_atom_site_fract_x
_atom_site_fract_y
_atom_site_fract_z
Si Si1 0.084110 0.222628 0.880528
Si Si2 0.125000 0.625000 0.199262
Si Si3 0.848985 0.105247 0.701818
Si Si4 0.875000 0.605455 0.875000
Si Si5 0.482792 0.194158 0.604546
Si Si6 0.125000 0.705601 0.125000
Si Si7 0.015027 0.086107 0.952851
O O1 0.169142 0.254565 0.844432
O O2 0.177171 0.206927 0.922752
O O3 0.999304 0.177232 0.864545
O O4 0.976581 0.258987 0.897176
O O5 0.258248 0.639298 0.221263
O O6 0.081835 0.669650 0.166290
O O7 0.841094 0.078722 0.650531
O O8 0.784843 0.156512 0.689034
O O9 0.777190 0.076770 0.743063
O O10 0.841958 0.638615 0.920393
O O11 0.625000 0.197500 0.625000
O O12 0.125000 0.125000 0.956078
#
# Coordination Sequence:
#
# PCOD9514093 Si02
#       7
#    32  16  32  16  32  16  32
#     4  10  20  37  66  87 118 162 215 263 306 373
#     4  11  18  34  60  92 128 170 196 256 322 377
#     4  11  21  39  61  92 130 166 203 249 328 381
#     4   9  22  43  66  79 114 171 218 257 322 375
#     4  11  21  35  61  97 127 162 200 256 317 383
#     4  10  16  37  62  88 126 164 212 251 314 376
#     4  10  22  42  62  85 122 173 210 258 320 378
#
# _framework density 21.295075000000001
#
# number of rings (size 3 to 8) (size 9 to 14) (size 15 to 20)
#    0.000    1.636    3.636    3.273    1.273    0.727 
#    4.909    0.909    0.000    0.000    0.000    0.000 
#    0.000    0.000    0.000    0.000    0.000    0.000 
#
# Total GULP energy -245079.315881 kJ/mol
# GULP energy per Si atom -5569.984452 kJ/mol
# Density = 2.124661 g / cm^3
# Si number density = 21.295075 Si / 1000 Ang^3
#
#
#
# Elastic Constant Matrix: (Units=GPa)
#
#
# Indices 1 2 3 4 5 6 
#
# 1 106.2730 26.7918 19.9757 0.0000 0.0000 0.0000
# 2 26.7918 83.3143 22.8484 0.0000 0.0000 0.0000
# 3 19.9757 22.8484 60.3074 0.0000 0.0000 0.0000
# 4 0.0000 0.0000 0.0000 33.8633 0.0000 0.0000
# 5 0.0000 0.0000 0.0000 0.0000 25.0814 0.0000
# 6 0.0000 0.0000 0.0000 0.0000 0.0000 16.6077
#
#
#
# Elastic Compliance Matrix: (Units=1/GPa)
#
#
# Indices 1 2 3 4 5 6 
#
# 1 0.010559 -0.002719 -0.002467 0.000000 0.000000 0.000000
# 2 -0.002719 0.014094 -0.004439 0.000000 0.000000 0.000000
# 3 -0.002467 -0.004439 0.019081 0.000000 0.000000 0.000000
# 4 0.000000 0.000000 0.000000 0.029530 0.000000 0.000000
# 5 0.000000 0.000000 0.000000 0.000000 0.039870 0.000000
# 6 0.000000 0.000000 0.000000 0.000000 0.000000 0.060213
#
#
# Mechanical properties :
#
#
# Convention : Reuss Voigt Hill
#
# Bulk Modulus (GPa) = 40.84430 43.23626 42.04028
# Shear Modulus (GPa) = 24.90531 27.12907 26.01719
#
# Velocity S-wave (km/s) = 3.42355 3.57313 3.49914
# Velocity P-wave (km/s) = 5.90334 6.11314 6.00916
#
# Compressibility (1/GPa) = 0.02448322
#
# Stress axis : x y z
#
# Youngs Moduli (GPa) = 94.70648 70.94966 52.40842
#
# Poissons Ratio (x) = 0.19290 0.12931
# Poissons Ratio (y) = 0.25749 0.23266
# Poissons Ratio (z) = 0.23368 0.31497
#
# Static dielectric constant tensor:
#      x y z
#    x 1.877730 0.000000 0.000000 
#    y 0.000000 1.802050 0.000000 
#    z 0.000000 0.000000 1.728440 
# 
# From -- ./inp_files/57795.got.cif
#   From: 2010.05.17/outbox.cif.g08.bks.cpg/sg70_29_cif.got.tgz:57795.got - 2010.06.03 15:57:51.
