data_PCOD9514111
_publ_section_title
;
Structure prediction by ZEFSAII (Michael W. Deem and Ramdas Pophale) SiO2 
 PCOD9514111
Probable space group: F D D D
;
_chemical_formula_sum "Si O2"
_cell_formula_units_Z 144
_cell_length_a 14.473266
_cell_length_b 24.955675
_cell_length_c 15.140460
_cell_angle_alpha 90.000000
_cell_angle_beta 90.000000
_cell_angle_gamma 90.000000
_cell_volume 5468.584602
_symmetry_space_group_name_H-M "F D D D"
_symmetry_group_IT_number 70
_space_group.IT_coordinate_system_code '2'
_symmetry_cell_setting 'orthorhombic'
loop_
_space_group_symop_operation_xyz
x,y,z
1/4-x,1/4-y,z
x,1/4-y,1/4-z
1/4-x,y,1/4-z
-x,-y,-z
3/4+x,3/4+y,-z
-x,3/4+y,3/4+z
3/4+x,-y,3/4+z
x,1/2+y,1/2+z
1/4-x,3/4-y,1/2+z
x,3/4-y,3/4-z
1/4-x,1/2+y,3/4-z
-x,1/2-y,1/2-z
3/4+x,1/4+y,1/2-z
-x,1/4+y,1/4+z
3/4+x,1/2-y,1/4+z
1/2+x,y,1/2+z
3/4-x,1/4-y,1/2+z
1/2+x,1/4-y,3/4-z
3/4-x,y,3/4-z
1/2-x,-y,1/2-z
1/4+x,3/4+y,1/2-z
1/2-x,3/4+y,1/4+z
1/4+x,-y,1/4+z
1/2+x,1/2+y,z
3/4-x,3/4-y,z
1/2+x,3/4-y,1/4-z
3/4-x,1/2+y,1/4-z
1/2-x,1/2-y,-z
1/4+x,1/4+y,-z
1/2-x,1/4+y,3/4+z
1/4+x,1/2-y,3/4+z
loop_
_atom_site_type_symbol
_atom_site_label
_atom_site_fract_x
_atom_site_fract_y
_atom_site_fract_z
Si Si1 0.811767 0.003298 0.635147
Si Si2 0.375000 0.488841 0.375000
Si Si3 0.283209 0.077190 0.695207
Si Si4 0.785021 0.452914 0.504797
Si Si5 0.478507 0.365562 0.608326
O O1 0.736251 0.045229 0.598990
O O2 0.896631 0.030951 0.582489
O O3 0.761687 0.947783 0.607882
O O4 0.868270 0.983009 0.721218
O O5 0.315691 0.450758 0.311524
O O6 0.295641 0.517492 0.434838
O O7 0.289820 0.125000 0.625000
O O8 0.295398 0.103514 0.791273
O O9 0.776339 0.393840 0.546632
O O10 0.375000 0.375000 0.572798
#
# Coordination Sequence:
#
# PCOD9514111 Si02
#       5
#    32  16  32  32  32
#     4  10  21  35  52  82 121 160 212 268 322 391
#     4  10  17  28  46  76 116 152 195 248 306 376
#     4  11  20  31  52  79 117 161 206 255 318 384
#     4  10  19  32  52  79 120 168 207 256 327 395
#     4  10  19  30  47  75 112 156 196 244 311 377
#
# _framework density 26.332222999999999
#
# number of rings (size 3 to 8) (size 9 to 14) (size 15 to 20)
#    0.000    1.778    0.000    8.333    0.000    6.222 
#    0.000    0.000    0.000    1.333    0.000    9.333 
#    0.000    5.333    0.000    0.000    0.000    0.000 
#
# Total GULP energy -200526.506739 kJ/mol
# GULP energy per Si atom -5570.180743 kJ/mol
# Density = 2.627229 g / cm^3
# Si number density = 26.332223 Si / 1000 Ang^3
#
#
#
# Elastic Constant Matrix: (Units=GPa)
#
#
# Indices 1 2 3 4 5 6 
#
# 1 58.2652 7.6780 27.8879 0.0000 0.0000 0.0000
# 2 7.6780 119.6689 39.1825 0.0000 0.0000 0.0000
# 3 27.8879 39.1825 65.4380 0.0000 0.0000 0.0000
# 4 0.0000 0.0000 0.0000 37.2613 0.0000 0.0000
# 5 0.0000 0.0000 0.0000 0.0000 35.0429 0.0000
# 6 0.0000 0.0000 0.0000 0.0000 0.0000 -0.1412
#
#
#
# Elastic Compliance Matrix: (Units=1/GPa)
#
#
# Indices 1 2 3 4 5 6 
#
# 1 0.021961 0.002059 -0.010592 0.000000 0.000000 0.000000
# 2 0.002059 0.010587 -0.007217 0.000000 0.000000 0.000000
# 3 -0.010592 -0.007217 0.024117 0.000000 0.000000 0.000000
# 4 0.000000 0.000000 0.000000 0.026837 0.000000 0.000000
# 5 0.000000 0.000000 0.000000 0.000000 0.028536 0.000000
# 6 0.000000 0.000000 0.000000 0.000000 0.000000 -7.083398
#
#
# Mechanical properties :
#
#
# Convention : Reuss Voigt Hill
#
# Bulk Modulus (GPa) = 39.73682 43.65211 41.69447
# Shear Modulus (GPa) = -0.72135 25.67418 12.47641
#
# Velocity S-wave (km/s) = -0.52396 3.12590 2.17907
# Velocity P-wave (km/s) = 3.84152 5.44443 4.71164
#
# Compressibility (1/GPa) = 0.02516558
#
# Stress axis : x y z
#
# Youngs Moduli (GPa) = 45.53436 94.45307 41.46436
#
# Poissons Ratio (x) = -0.19449 0.43920
# Poissons Ratio (y) = -0.09376 0.29924
# Poissons Ratio (z) = 0.48231 0.68166
#
# Static dielectric constant tensor:
#      x y z
#    x 2.174400 0.000000 0.000000 
#    y 0.000000 2.009310 0.000000 
#    z 0.000000 0.000000 2.256510 
# 
# From -- ./inp_files/43831.got.cif
#   From: 2010.05.17/outbox.cif.g08.bks.cpg/sg70_22_cif.got.tgz:43831.got - 2010.06.03 15:57:51.
