data_PCOD9514764
_publ_section_title
;
Structure prediction by ZEFSAII (Michael W. Deem and Ramdas Pophale) SiO2 
 PCOD9514764
Probable space group: F D D D
;
_chemical_formula_sum "Si O2"
_cell_formula_units_Z 208
_cell_length_a 23.109619
_cell_length_b 32.090333
_cell_length_c 17.770879
_cell_angle_alpha 90.000000
_cell_angle_beta 90.000000
_cell_angle_gamma 90.000000
_cell_volume 13178.801573
_symmetry_space_group_name_H-M "F D D D"
_symmetry_group_IT_number 70
_space_group.IT_coordinate_system_code '2'
_symmetry_cell_setting 'orthorhombic'
loop_
_space_group_symop_operation_xyz
x,y,z
1/4-x,1/4-y,z
x,1/4-y,1/4-z
1/4-x,y,1/4-z
-x,-y,-z
3/4+x,3/4+y,-z
-x,3/4+y,3/4+z
3/4+x,-y,3/4+z
x,1/2+y,1/2+z
1/4-x,3/4-y,1/2+z
x,3/4-y,3/4-z
1/4-x,1/2+y,3/4-z
-x,1/2-y,1/2-z
3/4+x,1/4+y,1/2-z
-x,1/4+y,1/4+z
3/4+x,1/2-y,1/4+z
1/2+x,y,1/2+z
3/4-x,1/4-y,1/2+z
1/2+x,1/4-y,3/4-z
3/4-x,y,3/4-z
1/2-x,-y,1/2-z
1/4+x,3/4+y,1/2-z
1/2-x,3/4+y,1/4+z
1/4+x,-y,1/4+z
1/2+x,1/2+y,z
3/4-x,3/4-y,z
1/2+x,3/4-y,1/4-z
3/4-x,1/2+y,1/4-z
1/2-x,1/2-y,-z
1/4+x,1/4+y,-z
1/2-x,1/4+y,3/4+z
1/4+x,1/2-y,3/4+z
loop_
_atom_site_type_symbol
_atom_site_label
_atom_site_fract_x
_atom_site_fract_y
_atom_site_fract_z
Si Si1 0.199306 0.503630 0.812129
Si Si2 0.731238 0.234872 0.712185
Si Si3 0.407847 0.694194 0.518725
Si Si4 0.631597 0.875000 0.875000
Si Si5 0.962109 0.151622 0.985382
Si Si6 0.425717 0.844969 0.230819
Si Si7 0.125000 0.861290 0.625000
Si Si8 0.375000 0.944097 0.375000
O O1 0.250000 0.500000 0.750000
O O2 0.225497 0.493448 0.893275
O O3 0.148405 0.472703 0.786682
O O4 0.178209 0.551215 0.811579
O O5 0.712676 0.275448 0.759260
O O6 0.758335 0.196882 0.759312
O O7 0.671090 0.220354 0.672731
O O8 0.406985 0.660245 0.585111
O O9 0.399010 0.668900 0.440787
O O10 0.673255 0.856264 0.809947
O O11 0.922351 0.140749 0.914222
O O12 0.013674 0.118234 0.982117
O O13 0.375000 0.875000 0.202335
O O14 0.410533 0.833180 0.316461
#
# Coordination Sequence:
#
# PCOD9514764 Si02
#       8
#    32  32  32  16  32  32  16  16
#     4  12  20  31  50  75 109 146 178 206 264 330
#     4  12  21  33  53  79 110 143 182 218 271 327
#     4  11  20  35  50  78 106 142 179 226 262 325
#     4  10  20  34  53  72 106 147 190 214 264 320
#     4  11  21  36  51  76 107 151 186 224 265 321
#     4  12  22  30  47  77 114 144 171 214 265 327
#     4  10  23  36  53  74 113 147 194 222 265 318
#     4  12  20  28  47  78 116 144 170 200 261 346
#
# _framework density 15.782921999999999
#
# number of rings (size 3 to 8) (size 9 to 14) (size 15 to 20)
#    0.000    0.615    6.154    5.308    0.000    0.000 
#    0.000    0.000    0.000    3.692    4.000    0.000 
#    0.000    0.000    0.000    0.000    0.000    0.000 
#
# Total GULP energy -290390.580610 kJ/mol
# GULP energy per Si atom -5584.434242 kJ/mol
# Density = 1.574700 g / cm^3
# Si number density = 15.782922 Si / 1000 Ang^3
#
#
#
# Elastic Constant Matrix: (Units=GPa)
#
#
# Indices 1 2 3 4 5 6 
#
# 1 68.6219 46.7122 49.8626 0.0000 0.0000 0.0000
# 2 46.7122 129.1600 57.1809 0.0000 0.0000 0.0000
# 3 49.8626 57.1809 79.4563 0.0000 0.0000 0.0000
# 4 0.0000 0.0000 0.0000 28.6648 0.0000 0.0000
# 5 0.0000 0.0000 0.0000 0.0000 27.2385 0.0000
# 6 0.0000 0.0000 0.0000 0.0000 0.0000 27.2292
#
#
#
# Elastic Compliance Matrix: (Units=1/GPa)
#
#
# Indices 1 2 3 4 5 6 
#
# 1 0.027779 -0.003418 -0.014973 0.000000 0.000000 0.000000
# 2 -0.003418 0.011783 -0.006335 0.000000 0.000000 0.000000
# 3 -0.014973 -0.006335 0.026541 0.000000 0.000000 0.000000
# 4 0.000000 0.000000 0.000000 0.034886 0.000000 0.000000
# 5 0.000000 0.000000 0.000000 0.000000 0.036713 0.000000
# 6 0.000000 0.000000 0.000000 0.000000 0.000000 0.036725
#
#
# Mechanical properties :
#
#
# Convention : Reuss Voigt Hill
#
# Bulk Modulus (GPa) = 60.05507 64.97216 62.51361
# Shear Modulus (GPa) = 21.79333 24.85867 23.32600
#
# Velocity S-wave (km/s) = 3.71997 3.97298 3.84855
# Velocity P-wave (km/s) = 7.52224 7.89313 7.70992
#
# Compressibility (1/GPa) = 0.01665138
#
# Stress axis : x y z
#
# Youngs Moduli (GPa) = 35.99846 84.86866 37.67816
#
# Poissons Ratio (x) = 0.29007 0.56415
# Poissons Ratio (y) = 0.12304 0.23868
# Poissons Ratio (z) = 0.53900 0.53762
#
# Static dielectric constant tensor:
#      x y z
#    x 1.515780 0.000000 0.000000 
#    y 0.000000 1.572410 0.000000 
#    z 0.000000 0.000000 1.531890 
# 
# From -- ./inp_files/37842.got.cif
#   From: 2010.05.17/outbox.cif.g08.bks.cpg/sg70_19_cif.got.tgz:37842.got - 2010.06.03 15:57:51.
