data_PCOD9514309
_publ_section_title
;
Structure prediction by ZEFSAII (Michael W. Deem and Ramdas Pophale) SiO2 
 PCOD9514309
Probable space group: F D D D
;
_chemical_formula_sum "Si O2"
_cell_formula_units_Z 168
_cell_length_a 23.508563
_cell_length_b 17.680623
_cell_length_c 15.495880
_cell_angle_alpha 90.000000
_cell_angle_beta 90.000000
_cell_angle_gamma 90.000000
_cell_volume 6440.801153
_symmetry_space_group_name_H-M "F D D D"
_symmetry_group_IT_number 70
_space_group.IT_coordinate_system_code '2'
_symmetry_cell_setting 'orthorhombic'
loop_
_space_group_symop_operation_xyz
x,y,z
1/4-x,1/4-y,z
x,1/4-y,1/4-z
1/4-x,y,1/4-z
-x,-y,-z
3/4+x,3/4+y,-z
-x,3/4+y,3/4+z
3/4+x,-y,3/4+z
x,1/2+y,1/2+z
1/4-x,3/4-y,1/2+z
x,3/4-y,3/4-z
1/4-x,1/2+y,3/4-z
-x,1/2-y,1/2-z
3/4+x,1/4+y,1/2-z
-x,1/4+y,1/4+z
3/4+x,1/2-y,1/4+z
1/2+x,y,1/2+z
3/4-x,1/4-y,1/2+z
1/2+x,1/4-y,3/4-z
3/4-x,y,3/4-z
1/2-x,-y,1/2-z
1/4+x,3/4+y,1/2-z
1/2-x,3/4+y,1/4+z
1/4+x,-y,1/4+z
1/2+x,1/2+y,z
3/4-x,3/4-y,z
1/2+x,3/4-y,1/4-z
3/4-x,1/2+y,1/4-z
1/2-x,1/2-y,-z
1/4+x,1/4+y,-z
1/2-x,1/4+y,3/4+z
1/4+x,1/2-y,3/4+z
loop_
_atom_site_type_symbol
_atom_site_label
_atom_site_fract_x
_atom_site_fract_y
_atom_site_fract_z
Si Si1 0.330221 0.776068 0.534172
Si Si2 0.549767 0.754637 0.953875
Si Si3 0.875000 0.375000 0.375000
Si Si4 0.941731 0.596963 0.947395
Si Si5 0.042556 0.188509 0.685649
Si Si6 0.772351 0.621200 0.268898
O O1 0.391589 0.783037 0.577611
O O2 0.341450 0.816666 0.439304
O O3 0.277537 0.824407 0.566687
O O4 0.305337 0.690500 0.537019
O O5 0.508448 0.782379 0.878693
O O6 0.511315 0.696569 0.010387
O O7 0.574970 0.826048 0.005901
O O8 0.936095 0.605800 0.845540
O O9 0.921120 0.511161 0.963789
O O10 0.007438 0.592291 0.983081
O O11 0.068665 0.125000 0.625000
#
# Coordination Sequence:
#
# PCOD9514309 Si02
#       6
#    32  32   8  32  32  32
#     4  11  22  35  55  81 113 158 194 239 299 365
#     4  10  18  36  56  83 117 148 193 243 294 363
#     4  12  20  36  60  76 112 168 188 236 304 380
#     4   9  17  32  55  80 107 147 185 237 291 351
#     4   8  16  31  57  83 108 142 189 234 292 350
#     4  10  21  35  53  82 113 149 198 237 291 361
#
# _framework density 26.083711999999998
#
# number of rings (size 3 to 8) (size 9 to 14) (size 15 to 20)
#    0.000    2.286    1.905    1.143    0.000    0.000 
#    0.000    5.714    0.000    4.571    0.000   29.333 
#    0.000    0.000    0.000    0.000    0.000    0.000 
#
# Total GULP energy -233915.871119 kJ/mol
# GULP energy per Si atom -5569.425503 kJ/mol
# Density = 2.602434 g / cm^3
# Si number density = 26.083712 Si / 1000 Ang^3
#
#
#
# Elastic Constant Matrix: (Units=GPa)
#
#
# Indices 1 2 3 4 5 6 
#
# 1 128.9575 31.5042 -1.8319 0.0000 0.0000 0.0000
# 2 31.5042 142.8451 21.6783 0.0000 0.0000 0.0000
# 3 -1.8319 21.6783 48.3292 0.0000 0.0000 0.0000
# 4 0.0000 0.0000 0.0000 45.5657 0.0000 0.0000
# 5 0.0000 0.0000 0.0000 0.0000 -4.2287 0.0000
# 6 0.0000 0.0000 0.0000 0.0000 0.0000 14.5994
#
#
#
# Elastic Compliance Matrix: (Units=1/GPa)
#
#
# Indices 1 2 3 4 5 6 
#
# 1 0.008262 -0.002006 0.001213 0.000000 0.000000 0.000000
# 2 -0.002006 0.007999 -0.003664 0.000000 0.000000 0.000000
# 3 0.001213 -0.003664 0.022381 0.000000 0.000000 0.000000
# 4 0.000000 0.000000 0.000000 0.021946 0.000000 0.000000
# 5 0.000000 0.000000 0.000000 0.000000 -0.236479 0.000000
# 6 0.000000 0.000000 0.000000 0.000000 0.000000 0.068496
#
#
# Mechanical properties :
#
#
# Convention : Reuss Voigt Hill
#
# Bulk Modulus (GPa) = 33.63898 46.98144 40.31021
# Shear Modulus (GPa) = -56.45157 29.10603 -13.67277
#
# Velocity S-wave (km/s) = -4.65719 3.34409 -2.29200
# Velocity P-wave (km/s) = 3.99934 5.74121 2.91262
#
# Compressibility (1/GPa) = 0.02972742
#
# Stress axis : x y z
#
# Youngs Moduli (GPa) = 121.03834 125.01368 44.68083
#
# Poissons Ratio (x) = 0.25081 -0.05420
# Poissons Ratio (y) = 0.24283 0.16371
# Poissons Ratio (z) = -0.14683 0.45806
#
# Static dielectric constant tensor:
#      x y z
#    x 2.057730 0.000000 0.000000 
#    y 0.000000 2.202550 0.000000 
#    z 0.000000 0.000000 2.060980 
# 
# From -- ./inp_files/44904.got.cif
#   From: 2010.05.17/outbox.cif.g08.bks.cpg/sg70_23_cif.got.tgz:44904.got - 2010.06.03 15:57:51.
