data_PCOD9514971
_publ_section_title
;
Structure prediction by ZEFSAII (Michael W. Deem and Ramdas Pophale) SiO2 
 PCOD9514971
Probable space group: F D D D
;
_chemical_formula_sum "Si O2"
_cell_formula_units_Z 112
_cell_length_a 28.380947
_cell_length_b 34.501455
_cell_length_c 6.315661
_cell_angle_alpha 90.000000
_cell_angle_beta 90.000000
_cell_angle_gamma 90.000000
_cell_volume 6184.193984
_symmetry_space_group_name_H-M "F D D D"
_symmetry_group_IT_number 70
_space_group.IT_coordinate_system_code '2'
_symmetry_cell_setting 'orthorhombic'
loop_
_space_group_symop_operation_xyz
x,y,z
1/4-x,1/4-y,z
x,1/4-y,1/4-z
1/4-x,y,1/4-z
-x,-y,-z
3/4+x,3/4+y,-z
-x,3/4+y,3/4+z
3/4+x,-y,3/4+z
x,1/2+y,1/2+z
1/4-x,3/4-y,1/2+z
x,3/4-y,3/4-z
1/4-x,1/2+y,3/4-z
-x,1/2-y,1/2-z
3/4+x,1/4+y,1/2-z
-x,1/4+y,1/4+z
3/4+x,1/2-y,1/4+z
1/2+x,y,1/2+z
3/4-x,1/4-y,1/2+z
1/2+x,1/4-y,3/4-z
3/4-x,y,3/4-z
1/2-x,-y,1/2-z
1/4+x,3/4+y,1/2-z
1/2-x,3/4+y,1/4+z
1/4+x,-y,1/4+z
1/2+x,1/2+y,z
3/4-x,3/4-y,z
1/2+x,3/4-y,1/4-z
3/4-x,1/2+y,1/4-z
1/2-x,1/2-y,-z
1/4+x,1/4+y,-z
1/2-x,1/4+y,3/4+z
1/4+x,1/2-y,3/4+z
loop_
_atom_site_type_symbol
_atom_site_label
_atom_site_fract_x
_atom_site_fract_y
_atom_site_fract_z
Si Si1 0.041276 0.125000 0.125000
Si Si2 0.822203 0.251236 0.343532
Si Si3 0.763732 0.805872 0.146592
Si Si4 0.671215 0.571632 0.770216
O O1 0.010687 0.158917 0.231165
O O2 0.073069 0.105074 0.305502
O O3 0.875000 0.236310 0.375000
O O4 0.802272 0.276534 0.541687
O O5 0.783813 0.217792 0.315211
O O6 0.826151 0.281331 0.148944
O O7 0.784660 0.822122 0.362895
O O8 0.625000 0.574854 0.625000
#
# Coordination Sequence:
#
# PCOD9514971 Si02
#       4
#    16  32  32  32
#     4  10  24  37  54  86 122 156 192 236 297 358
#     4  10  20  38  60  88 112 149 197 244 286 344
#     4  10  21  37  59  83 119 152 194 238 289 350
#     4  11  21  37  59  87 122 152 190 240 304 348
#
# _framework density 18.110688
#
# number of rings (size 3 to 8) (size 9 to 14) (size 15 to 20)
#    0.000    1.714    2.857    1.714    0.000    3.429 
#    0.000    0.000    6.286    0.000    0.000    0.000 
#    0.000    0.000    0.000    0.000    0.000    0.000 
#
# Total GULP energy -156382.676258 kJ/mol
# GULP energy per Si atom -5585.095581 kJ/mol
# Density = 1.806947 g / cm^3
# Si number density = 18.110688 Si / 1000 Ang^3
#
#
#
# Elastic Constant Matrix: (Units=GPa)
#
#
# Indices 1 2 3 4 5 6 
#
# 1 132.6505 69.7197 54.9798 0.0426 -0.0656 -0.0091
# 2 69.7197 108.6792 53.5410 -0.0093 -0.0480 0.0149
# 3 54.9798 53.5410 113.4986 0.0977 -0.0994 -0.0267
# 4 0.0426 -0.0093 0.0977 27.3937 -0.0856 0.0077
# 5 -0.0656 -0.0480 -0.0994 -0.0856 13.1838 0.0495
# 6 -0.0091 0.0149 -0.0267 0.0077 0.0495 13.6615
#
#
#
# Elastic Compliance Matrix: (Units=1/GPa)
#
#
# Indices 1 2 3 4 5 6 
#
# 1 0.012043 -0.006321 -0.002852 -0.000011 0.000015 0.000009
# 2 -0.006321 0.015305 -0.004158 0.000030 -0.000007 -0.000029
# 3 -0.002852 -0.004158 0.012154 -0.000040 0.000062 0.000026
# 4 -0.000011 0.000030 -0.000040 0.036506 0.000237 -0.000021
# 5 0.000015 -0.000007 0.000062 0.000237 0.075854 -0.000275
# 6 0.000009 -0.000029 0.000026 -0.000021 -0.000275 0.073199
#
#
# Mechanical properties :
#
#
# Convention : Reuss Voigt Hill
#
# Bulk Modulus (GPa) = 77.88143 79.03439 78.45791
# Shear Modulus (GPa) = 19.53119 22.62033 21.07576
#
# Velocity S-wave (km/s) = 3.28752 3.53796 3.41503
# Velocity P-wave (km/s) = 7.58332 7.77328 7.67889
#
# Compressibility (1/GPa) = 0.01284003
#
# Stress axis : x y z
#
# Youngs Moduli (GPa) = 83.03778 65.33976 82.27923
#
# Poissons Ratio (x) = 0.41299 0.23466
# Poissons Ratio (y) = 0.52485 0.34211
# Poissons Ratio (z) = 0.23682 0.27168
#
# Static dielectric constant tensor:
#      x y z
#    x 1.590430 0.000010 0.000040 
#    y 0.000010 1.637980 -0.000010 
#    z 0.000040 -0.000010 1.645410 
# 
# From -- ./inp_files/4024.got.cif
#   From: 2010.05.17/outbox.cif.g08.bks.cpg/sg70_3_cif.got.tgz:4024.got - 2010.06.03 15:57:51.
