data_PCOD9514968
_publ_section_title
;
Structure prediction by ZEFSAII (Michael W. Deem and Ramdas Pophale) SiO2 
 PCOD9514968
Probable space group: F D D D
;
_chemical_formula_sum "Si O2"
_cell_formula_units_Z 176
_cell_length_a 25.620741
_cell_length_b 33.287041
_cell_length_c 10.744426
_cell_angle_alpha 90.000000
_cell_angle_beta 90.000000
_cell_angle_gamma 90.000000
_cell_volume 9163.261831
_symmetry_space_group_name_H-M "F D D D"
_symmetry_group_IT_number 70
_space_group.IT_coordinate_system_code '2'
_symmetry_cell_setting 'orthorhombic'
loop_
_space_group_symop_operation_xyz
x,y,z
1/4-x,1/4-y,z
x,1/4-y,1/4-z
1/4-x,y,1/4-z
-x,-y,-z
3/4+x,3/4+y,-z
-x,3/4+y,3/4+z
3/4+x,-y,3/4+z
x,1/2+y,1/2+z
1/4-x,3/4-y,1/2+z
x,3/4-y,3/4-z
1/4-x,1/2+y,3/4-z
-x,1/2-y,1/2-z
3/4+x,1/4+y,1/2-z
-x,1/4+y,1/4+z
3/4+x,1/2-y,1/4+z
1/2+x,y,1/2+z
3/4-x,1/4-y,1/2+z
1/2+x,1/4-y,3/4-z
3/4-x,y,3/4-z
1/2-x,-y,1/2-z
1/4+x,3/4+y,1/2-z
1/2-x,3/4+y,1/4+z
1/4+x,-y,1/4+z
1/2+x,1/2+y,z
3/4-x,3/4-y,z
1/2+x,3/4-y,1/4-z
3/4-x,1/2+y,1/4-z
1/2-x,1/2-y,-z
1/4+x,1/4+y,-z
1/2-x,1/4+y,3/4+z
1/4+x,1/2-y,3/4+z
loop_
_atom_site_type_symbol
_atom_site_label
_atom_site_fract_x
_atom_site_fract_y
_atom_site_fract_z
Si Si1 0.740274 0.827931 0.388979
Si Si2 0.579070 0.594687 0.785681
Si Si3 0.886965 0.697234 0.019073
Si Si4 0.139109 0.540665 0.481629
Si Si5 0.567061 0.375000 0.875000
Si Si6 0.508432 0.661953 0.912723
O O1 0.727990 0.875000 0.375000
O O2 0.797967 0.824231 0.328494
O O3 0.697452 0.806719 0.305583
O O4 0.735721 0.818405 0.535370
O O5 0.625000 0.625000 0.749162
O O6 0.538502 0.622908 0.859402
O O7 0.604128 0.564642 0.883649
O O8 0.853423 0.662657 0.085985
O O9 0.875000 0.690543 0.875000
O O10 0.876618 0.744064 0.044166
O O11 0.125000 0.549302 0.625000
O O12 0.198483 0.556741 0.464218
O O13 0.531212 0.394085 0.764741
#
# Coordination Sequence:
#
# PCOD9514968 Si02
#       6
#    32  32  32  32  16  32
#     4  10  20  38  60  85 119 156 205 251 302 367
#     4   9  19  37  62  89 120 158 200 249 308 365
#     4  11  24  40  61  87 120 164 203 253 311 366
#     4  10  22  39  59  90 126 156 203 256 307 367
#     4  12  24  40  65  88 121 164 212 244 310 376
#     4  10  22  38  62  90 119 164 204 251 306 366
#
# _framework density 19.207132999999999
#
# number of rings (size 3 to 8) (size 9 to 14) (size 15 to 20)
#    0.000    1.818    0.909    3.273    0.000   13.091 
#    0.000    6.364    0.000    0.000    0.000    0.000 
#    0.000    0.000    0.000    0.000    0.000    0.000 
#
# Total GULP energy -245238.419549 kJ/mol
# GULP energy per Si atom -5573.600444 kJ/mol
# Density = 1.916342 g / cm^3
# Si number density = 19.207133 Si / 1000 Ang^3
#
#
#
# Elastic Constant Matrix: (Units=GPa)
#
#
# Indices 1 2 3 4 5 6 
#
# 1 105.4014 35.8165 69.0742 -0.0002 -0.0155 -0.0001
# 2 35.8165 68.2425 74.8825 -0.0002 0.0009 -0.0001
# 3 69.0742 74.8825 122.8266 -0.0014 -0.0798 -0.0002
# 4 -0.0002 -0.0002 -0.0014 10.0230 -0.0558 -0.0003
# 5 -0.0155 0.0009 -0.0798 -0.0558 1317.5484 -0.0190
# 6 -0.0001 -0.0001 -0.0002 -0.0003 -0.0190 12.0240
#
#
#
# Elastic Compliance Matrix: (Units=1/GPa)
#
#
# Indices 1 2 3 4 5 6 
#
# 1 0.015432 0.004301 -0.011300 -0.000001 -0.000001 0.000000
# 2 0.004301 0.045467 -0.030138 -0.000003 -0.000002 0.000000
# 3 -0.011300 -0.030138 0.032870 0.000004 0.000002 0.000000
# 4 -0.000001 -0.000003 0.000004 0.099770 0.000004 0.000003
# 5 -0.000001 -0.000002 0.000002 0.000004 0.000759 0.000001
# 6 0.000000 0.000000 0.000000 0.000003 0.000001 0.083167
#
#
# Mechanical properties :
#
#
# Convention : Reuss Voigt Hill
#
# Bulk Modulus (GPa) = 51.29826 72.89075 62.09451
# Shear Modulus (GPa) = 13.95720 275.69892 144.82806
#
# Velocity S-wave (km/s) = 2.69860 11.99381 8.69293
# Velocity P-wave (km/s) = 6.03952 15.16028 11.53928
#
# Compressibility (1/GPa) = 0.01949384
#
# Stress axis : x y z
#
# Youngs Moduli (GPa) = 64.80167 21.99406 30.42254
#
# Poissons Ratio (x) = -0.09459 0.34378
# Poissons Ratio (y) = -0.27868 0.91687
# Poissons Ratio (z) = 0.73227 0.66285
#
# Static dielectric constant tensor:
#      x y z
#    x 1.720250 0.000000 0.000000 
#    y 0.000000 1.658950 0.000000 
#    z 0.000000 0.000000 1.702450 
# 
# From -- ./inp_files/19637.got.cif
#   From: 2010.05.17/outbox.cif.g08.bks.cpg/sg70_10_cif.got.tgz:19637.got - 2010.06.03 15:57:51.
