data_PCOD9514249
_publ_section_title
;
Structure prediction by ZEFSAII (Michael W. Deem and Ramdas Pophale) SiO2 
 PCOD9514249
Probable space group: F D D D
;
_chemical_formula_sum "Si O2"
_cell_formula_units_Z 176
_cell_length_a 27.625038
_cell_length_b 13.587899
_cell_length_c 20.551554
_cell_angle_alpha 90.000000
_cell_angle_beta 90.000000
_cell_angle_gamma 90.000000
_cell_volume 7714.359268
_symmetry_space_group_name_H-M "F D D D"
_symmetry_group_IT_number 70
_space_group.IT_coordinate_system_code '2'
_symmetry_cell_setting 'orthorhombic'
loop_
_space_group_symop_operation_xyz
x,y,z
1/4-x,1/4-y,z
x,1/4-y,1/4-z
1/4-x,y,1/4-z
-x,-y,-z
3/4+x,3/4+y,-z
-x,3/4+y,3/4+z
3/4+x,-y,3/4+z
x,1/2+y,1/2+z
1/4-x,3/4-y,1/2+z
x,3/4-y,3/4-z
1/4-x,1/2+y,3/4-z
-x,1/2-y,1/2-z
3/4+x,1/4+y,1/2-z
-x,1/4+y,1/4+z
3/4+x,1/2-y,1/4+z
1/2+x,y,1/2+z
3/4-x,1/4-y,1/2+z
1/2+x,1/4-y,3/4-z
3/4-x,y,3/4-z
1/2-x,-y,1/2-z
1/4+x,3/4+y,1/2-z
1/2-x,3/4+y,1/4+z
1/4+x,-y,1/4+z
1/2+x,1/2+y,z
3/4-x,3/4-y,z
1/2+x,3/4-y,1/4-z
3/4-x,1/2+y,1/4-z
1/2-x,1/2-y,-z
1/4+x,1/4+y,-z
1/2-x,1/4+y,3/4+z
1/4+x,1/2-y,3/4+z
loop_
_atom_site_type_symbol
_atom_site_label
_atom_site_fract_x
_atom_site_fract_y
_atom_site_fract_z
Si Si1 0.728498 0.396630 0.512550
Si Si2 0.525486 0.923592 0.086974
Si Si3 0.252318 0.875000 0.875000
Si Si4 0.322180 0.338885 0.204849
Si Si5 0.087020 0.469317 0.421296
Si Si6 0.063261 0.472423 0.762473
O O1 0.725461 0.380771 0.589697
O O2 0.696057 0.494178 0.495215
O O3 0.707336 0.311736 0.467112
O O4 0.782433 0.431500 0.493487
O O5 0.472702 0.913756 0.052090
O O6 0.534510 0.039269 0.094028
O O7 0.561109 0.859158 0.043701
O O8 0.217403 0.822881 0.822812
O O9 0.375000 0.375000 0.226242
O O10 0.327503 0.303960 0.130088
O O11 0.098251 0.375000 0.375000
O O12 0.133131 0.491942 0.464757
#
# Coordination Sequence:
#
# PCOD9514249 Si02
#       6
#    32  32  16  32  32  32
#     4   9  21  36  54  86 118 145 191 247 305 357
#     4  10  21  35  54  84 120 153 193 243 310 363
#     4  10  18  34  54  83 110 156 196 240 287 362
#     4  10  20  36  61  87 111 153 207 249 288 366
#     4  10  20  37  60  83 112 153 203 254 292 354
#     4  10  19  35  60  81 115 158 195 245 300 367
#
# _framework density 22.814596000000002
#
# number of rings (size 3 to 8) (size 9 to 14) (size 15 to 20)
#    0.000    2.182    0.909    2.727    2.545    1.455 
#    0.000    0.000    0.000    0.000    0.000    3.818 
#    0.000    0.000    0.000    0.000    0.000    0.000 
#
# Total GULP energy -246134.804969 kJ/mol
# GULP energy per Si atom -5593.972840 kJ/mol
# Density = 2.276267 g / cm^3
# Si number density = 22.814596 Si / 1000 Ang^3
#
#
#
# Elastic Constant Matrix: (Units=GPa)
#
#
# Indices 1 2 3 4 5 6 
#
# 1 110.3584 18.0568 32.2174 0.0000 0.0000 0.0000
# 2 18.0568 50.0388 16.0597 0.0000 0.0000 0.0000
# 3 32.2174 16.0597 98.9140 0.0000 0.0000 0.0000
# 4 0.0000 0.0000 0.0000 31.4681 0.0000 0.0000
# 5 0.0000 0.0000 0.0000 0.0000 34.5935 0.0000
# 6 0.0000 0.0000 0.0000 0.0000 0.0000 12.7079
#
#
#
# Elastic Compliance Matrix: (Units=1/GPa)
#
#
# Indices 1 2 3 4 5 6 
#
# 1 0.010374 -0.002805 -0.002923 0.000000 0.000000 0.000000
# 2 -0.002805 0.021842 -0.002633 0.000000 0.000000 0.000000
# 3 -0.002923 -0.002633 0.011489 0.000000 0.000000 0.000000
# 4 0.000000 0.000000 0.000000 0.031778 0.000000 0.000000
# 5 0.000000 0.000000 0.000000 0.000000 0.028907 0.000000
# 6 0.000000 0.000000 0.000000 0.000000 0.000000 0.078691
#
#
# Mechanical properties :
#
#
# Convention : Reuss Voigt Hill
#
# Bulk Modulus (GPa) = 37.06096 43.55324 40.30710
# Shear Modulus (GPa) = 23.94663 28.61907 26.28285
#
# Velocity S-wave (km/s) = 3.24330 3.54562 3.39782
# Velocity P-wave (km/s) = 5.50500 5.99111 5.75319
#
# Compressibility (1/GPa) = 0.02698257
#
# Stress axis : x y z
#
# Youngs Moduli (GPa) = 96.39654 45.78407 87.03670
#
# Poissons Ratio (x) = 0.12843 0.25444
# Poissons Ratio (y) = 0.27041 0.22913
# Poissons Ratio (z) = 0.28181 0.12053
#
# Static dielectric constant tensor:
#      x y z
#    x 1.817730 0.000000 0.000000 
#    y 0.000000 1.907320 0.000000 
#    z 0.000000 0.000000 1.854620 
# 
# From -- ./inp_files/54326.got.cif
#   From: 2010.05.17/outbox.cif.g08.bks.cpg/sg70_28_cif.got.tgz:54326.got - 2010.06.03 15:57:51.
