data_PCOD9514065
_publ_section_title
;
Structure prediction by ZEFSAII (Michael W. Deem and Ramdas Pophale) SiO2 
 PCOD9514065
Probable space group: F D D D
;
_chemical_formula_sum "Si O2"
_cell_formula_units_Z 176
_cell_length_a 29.202186
_cell_length_b 30.717214
_cell_length_c 7.487701
_cell_angle_alpha 90.000000
_cell_angle_beta 90.000000
_cell_angle_gamma 90.000000
_cell_volume 6716.541151
_symmetry_space_group_name_H-M "F D D D"
_symmetry_group_IT_number 70
_space_group.IT_coordinate_system_code '2'
_symmetry_cell_setting 'orthorhombic'
loop_
_space_group_symop_operation_xyz
x,y,z
1/4-x,1/4-y,z
x,1/4-y,1/4-z
1/4-x,y,1/4-z
-x,-y,-z
3/4+x,3/4+y,-z
-x,3/4+y,3/4+z
3/4+x,-y,3/4+z
x,1/2+y,1/2+z
1/4-x,3/4-y,1/2+z
x,3/4-y,3/4-z
1/4-x,1/2+y,3/4-z
-x,1/2-y,1/2-z
3/4+x,1/4+y,1/2-z
-x,1/4+y,1/4+z
3/4+x,1/2-y,1/4+z
1/2+x,y,1/2+z
3/4-x,1/4-y,1/2+z
1/2+x,1/4-y,3/4-z
3/4-x,y,3/4-z
1/2-x,-y,1/2-z
1/4+x,3/4+y,1/2-z
1/2-x,3/4+y,1/4+z
1/4+x,-y,1/4+z
1/2+x,1/2+y,z
3/4-x,3/4-y,z
1/2+x,3/4-y,1/4-z
3/4-x,1/2+y,1/4-z
1/2-x,1/2-y,-z
1/4+x,1/4+y,-z
1/2-x,1/4+y,3/4+z
1/4+x,1/2-y,3/4+z
loop_
_atom_site_type_symbol
_atom_site_label
_atom_site_fract_x
_atom_site_fract_y
_atom_site_fract_z
Si Si1 0.022512 0.223068 0.467123
Si Si2 0.175961 0.299890 0.294506
Si Si3 0.633264 0.375000 0.375000
Si Si4 0.298491 0.410777 0.221477
Si Si5 0.789110 0.569625 0.940571
Si Si6 0.127952 0.533130 0.907406
O O1 0.032555 0.203528 0.665624
O O2 0.022137 0.275011 0.471066
O O3 0.068663 0.209570 0.363211
O O4 0.971419 0.206850 0.427563
O O5 0.151665 0.345502 0.259909
O O6 0.191524 0.443836 0.251489
O O7 0.143087 0.258161 0.305581
O O8 0.668150 0.409444 0.460264
O O9 0.305558 0.375000 0.375000
O O10 0.255503 0.400427 0.095262
O O11 0.345121 0.425493 0.128421
O O12 0.125000 0.524902 0.125000
#
# Coordination Sequence:
#
# PCOD9514065 Si02
#       6
#    32  32  16  32  32  32
#     4  10  19  32  56  81 126 159 193 245 327 371
#     4  11  19  35  53  88 123 161 196 257 317 362
#     4  12  24  32  60  90 123 163 210 256 306 386
#     4  10  20  33  55  87 120 153 199 257 308 364
#     4  11  20  37  54  84 121 164 200 250 321 372
#     4  10  16  30  53  81 119 155 191 243 320 368
#
# _framework density 26.203963999999999
#
# number of rings (size 3 to 8) (size 9 to 14) (size 15 to 20)
#    0.000    1.455    7.273    1.636    5.091    3.273 
#    0.000    0.000    0.000    1.091    0.000    0.000 
#    0.000   31.091    3.091    0.000    0.000    0.000 
#
# Total GULP energy -246156.905366 kJ/mol
# GULP energy per Si atom -5594.475122 kJ/mol
# Density = 2.614432 g / cm^3
# Si number density = 26.203964 Si / 1000 Ang^3
#
#
#
# Elastic Constant Matrix: (Units=GPa)
#
#
# Indices 1 2 3 4 5 6 
#
# 1 249.8337 80.5740 22.0066 -0.0236 0.0273 -0.0124
# 2 80.5740 132.7280 10.1997 0.0126 0.0165 -0.0044
# 3 22.0066 10.1997 44.4252 -0.0190 0.0851 0.0066
# 4 -0.0236 0.0126 -0.0190 6.0164 0.0184 -0.0053
# 5 0.0273 0.0165 0.0851 0.0184 8.5199 0.0157
# 6 -0.0124 -0.0044 0.0066 -0.0053 0.0157 39.3018
#
#
#
# Elastic Compliance Matrix: (Units=1/GPa)
#
#
# Indices 1 2 3 4 5 6 
#
# 1 0.005123 -0.002967 -0.001857 0.000020 0.000008 0.000002
# 2 -0.002967 0.009388 -0.000686 -0.000033 -0.000002 0.000000
# 3 -0.001857 -0.000686 0.023587 0.000069 -0.000228 -0.000005
# 4 0.000020 -0.000033 0.000069 0.166213 -0.000360 0.000023
# 5 0.000008 -0.000002 -0.000228 -0.000360 0.117375 -0.000047
# 6 0.000002 0.000000 -0.000005 0.000023 -0.000047 0.025444
#
#
# Mechanical properties :
#
#
# Convention : Reuss Voigt Hill
#
# Bulk Modulus (GPa) = 36.92797 72.50529 54.71663
# Shear Modulus (GPa) = 13.61745 31.71474 22.66610
#
# Velocity S-wave (km/s) = 2.28210 3.48272 2.94426
# Velocity P-wave (km/s) = 4.58989 6.62586 5.69952
#
# Compressibility (1/GPa) = 0.02707975
#
# Stress axis : x y z
#
# Youngs Moduli (GPa) = 195.18933 106.51542 42.39569
#
# Poissons Ratio (x) = 0.31608 0.07871
# Poissons Ratio (y) = 0.57921 0.02906
# Poissons Ratio (z) = 0.36238 0.07302
#
# Static dielectric constant tensor:
#      x y z
#    x 2.106180 0.000030 0.000090 
#    y 0.000030 2.056990 -0.000100 
#    z 0.000090 -0.000100 2.354980 
# 
# From -- ./inp_files/21194.got.cif
#   From: 2010.05.17/outbox.cif.g08.bks.cpg/sg70_11_cif.got.tgz:21194.got - 2010.06.03 15:57:51.
