data_PCOD9514294
_publ_section_title
;
Structure prediction by ZEFSAII (Michael W. Deem and Ramdas Pophale) SiO2 
 PCOD9514294
Probable space group: F D D D
;
_chemical_formula_sum "Si O2"
_cell_formula_units_Z 112
_cell_length_a 21.706617
_cell_length_b 27.317000
_cell_length_c 7.447034
_cell_angle_alpha 90.000000
_cell_angle_beta 90.000000
_cell_angle_gamma 90.000000
_cell_volume 4415.790723
_symmetry_space_group_name_H-M "F D D D"
_symmetry_group_IT_number 70
_space_group.IT_coordinate_system_code '2'
_symmetry_cell_setting 'orthorhombic'
loop_
_space_group_symop_operation_xyz
x,y,z
1/4-x,1/4-y,z
x,1/4-y,1/4-z
1/4-x,y,1/4-z
-x,-y,-z
3/4+x,3/4+y,-z
-x,3/4+y,3/4+z
3/4+x,-y,3/4+z
x,1/2+y,1/2+z
1/4-x,3/4-y,1/2+z
x,3/4-y,3/4-z
1/4-x,1/2+y,3/4-z
-x,1/2-y,1/2-z
3/4+x,1/4+y,1/2-z
-x,1/4+y,1/4+z
3/4+x,1/2-y,1/4+z
1/2+x,y,1/2+z
3/4-x,1/4-y,1/2+z
1/2+x,1/4-y,3/4-z
3/4-x,y,3/4-z
1/2-x,-y,1/2-z
1/4+x,3/4+y,1/2-z
1/2-x,3/4+y,1/4+z
1/4+x,-y,1/4+z
1/2+x,1/2+y,z
3/4-x,3/4-y,z
1/2+x,3/4-y,1/4-z
3/4-x,1/2+y,1/4-z
1/2-x,1/2-y,-z
1/4+x,1/4+y,-z
1/2-x,1/4+y,3/4+z
1/4+x,1/2-y,3/4+z
loop_
_atom_site_type_symbol
_atom_site_label
_atom_site_fract_x
_atom_site_fract_y
_atom_site_fract_z
Si Si1 0.030537 0.167627 0.272609
Si Si2 0.311525 0.702078 0.939282
Si Si3 0.291072 0.745814 0.287776
Si Si4 0.969368 0.875000 0.375000
O O1 0.062210 0.211478 0.166861
O O2 0.970132 0.195647 0.352702
O O3 0.063375 0.150202 0.455658
O O4 0.020074 0.125000 0.125000
O O5 0.375000 0.679028 0.875000
O O6 0.274494 0.733938 0.793153
O O7 0.328659 0.736103 0.108418
O O8 0.263163 0.663438 0.019789
#
# Coordination Sequence:
#
# PCOD9514294 Si02
#       4
#    32  32  32  16
#     4  10  18  35  60  85 116 153 200 251 293 371
#     4  10  20  36  57  87 124 155 196 249 304 372
#     4   9  20  36  56  86 118 160 198 238 312 359
#     4  10  20  32  58  94 113 154 198 252 319 362
#
# _framework density 25.363520000000001
#
# number of rings (size 3 to 8) (size 9 to 14) (size 15 to 20)
#    0.000    2.286    2.857    0.000    0.000    2.286 
#    0.000   11.429    0.000    5.143    0.000    0.000 
#    0.000    0.000    0.000    0.000    0.000    0.000 
#
# Total GULP energy -156259.224576 kJ/mol
# GULP energy per Si atom -5580.686592 kJ/mol
# Density = 2.530579 g / cm^3
# Si number density = 25.363520 Si / 1000 Ang^3
#
#
#
# Elastic Constant Matrix: (Units=GPa)
#
#
# Indices 1 2 3 4 5 6 
#
# 1 64.0966 6.9665 15.1346 0.0030 -0.0038 -0.0011
# 2 6.9665 122.1196 54.2114 0.0023 -0.0018 -0.0012
# 3 15.1346 54.2114 200.1128 0.0093 -0.0150 -0.0048
# 4 0.0030 0.0023 0.0093 71.1570 -0.0064 -0.0034
# 5 -0.0038 -0.0018 -0.0150 -0.0064 3.4779 0.0034
# 6 -0.0011 -0.0012 -0.0048 -0.0034 0.0034 4.8215
#
#
#
# Elastic Compliance Matrix: (Units=1/GPa)
#
#
# Indices 1 2 3 4 5 6 
#
# 1 0.015904 -0.000424 -0.001088 -0.000001 0.000013 0.000002
# 2 -0.000424 0.009319 -0.002493 0.000000 -0.000006 0.000000
# 3 -0.001088 -0.002493 0.005755 -0.000001 0.000022 0.000005
# 4 -0.000001 0.000000 -0.000001 0.014053 0.000026 0.000010
# 5 0.000013 -0.000006 0.000022 0.000026 0.287526 -0.000200
# 6 0.000002 0.000000 0.000005 0.000010 -0.000200 0.207405
#
#
# Mechanical properties :
#
#
# Convention : Reuss Voigt Hill
#
# Bulk Modulus (GPa) = 43.53708 59.88377 51.71043
# Shear Modulus (GPa) = 8.99880 36.55905 22.77893
#
# Velocity S-wave (km/s) = 1.88564 3.80070 3.00008
# Velocity P-wave (km/s) = 4.68437 6.55148 5.69496
#
# Compressibility (1/GPa) = 0.02296893
#
# Stress axis : x y z
#
# Youngs Moduli (GPa) = 62.87548 107.30294 173.77073
#
# Poissons Ratio (x) = 0.04553 0.18904
# Poissons Ratio (y) = 0.02668 0.43314
# Poissons Ratio (z) = 0.06840 0.26746
#
# Static dielectric constant tensor:
#      x y z
#    x 2.014980 0.000000 0.000000 
#    y 0.000000 2.081360 0.000000 
#    z 0.000000 0.000000 2.057520 
# 
# From -- ./inp_files/12123.got.cif
#   From: 2010.05.17/outbox.cif.g08.bks.cpg/sg70_7_cif.got.tgz:12123.got - 2010.06.03 15:57:51.
