data_PCOD9514985
_publ_section_title
;
Structure prediction by ZEFSAII (Michael W. Deem and Ramdas Pophale) SiO2 
 PCOD9514985
Probable space group: F D D D
;
_chemical_formula_sum "Si O2"
_cell_formula_units_Z 176
_cell_length_a 10.961570
_cell_length_b 32.549059
_cell_length_c 23.422528
_cell_angle_alpha 90.000000
_cell_angle_beta 90.000000
_cell_angle_gamma 90.000000
_cell_volume 8356.895393
_symmetry_space_group_name_H-M "F D D D"
_symmetry_group_IT_number 70
_space_group.IT_coordinate_system_code '2'
_symmetry_cell_setting 'orthorhombic'
loop_
_space_group_symop_operation_xyz
x,y,z
1/4-x,1/4-y,z
x,1/4-y,1/4-z
1/4-x,y,1/4-z
-x,-y,-z
3/4+x,3/4+y,-z
-x,3/4+y,3/4+z
3/4+x,-y,3/4+z
x,1/2+y,1/2+z
1/4-x,3/4-y,1/2+z
x,3/4-y,3/4-z
1/4-x,1/2+y,3/4-z
-x,1/2-y,1/2-z
3/4+x,1/4+y,1/2-z
-x,1/4+y,1/4+z
3/4+x,1/2-y,1/4+z
1/2+x,y,1/2+z
3/4-x,1/4-y,1/2+z
1/2+x,1/4-y,3/4-z
3/4-x,y,3/4-z
1/2-x,-y,1/2-z
1/4+x,3/4+y,1/2-z
1/2-x,3/4+y,1/4+z
1/4+x,-y,1/4+z
1/2+x,1/2+y,z
3/4-x,3/4-y,z
1/2+x,3/4-y,1/4-z
3/4-x,1/2+y,1/4-z
1/2-x,1/2-y,-z
1/4+x,1/4+y,-z
1/2-x,1/4+y,3/4+z
1/4+x,1/2-y,3/4+z
loop_
_atom_site_type_symbol
_atom_site_label
_atom_site_fract_x
_atom_site_fract_y
_atom_site_fract_z
Si Si1 0.625000 0.625000 0.493730
Si Si2 0.129030 0.773888 0.254051
Si Si3 0.851231 0.982855 0.060656
Si Si4 0.720002 0.549684 0.426827
Si Si5 0.378424 0.113310 0.058920
Si Si6 0.304941 0.689002 0.502097
O O1 0.633573 0.584877 0.453905
O O2 0.509469 0.626978 0.534592
O O3 0.207487 0.777003 0.195616
O O4 0.210663 0.742424 0.289076
O O5 0.126992 0.816277 0.288667
O O6 0.000000 0.750000 0.250000
O O7 0.914425 0.963609 0.116405
O O8 0.926847 0.959914 0.011099
O O9 0.879671 0.031349 0.049626
O O10 0.857786 0.563171 0.445187
O O11 0.368442 0.125000 0.125000
O O12 0.287681 0.143363 0.025278
#
# Coordination Sequence:
#
# PCOD9514985 Si02
#       6
#    16  32  32  32  32  32
#     4  10  21  38  58  90 124 156 215 258 312 400
#     4  11  23  40  59  93 133 157 216 267 317 390
#     4  10  21  40  62  87 127 169 203 260 322 377
#     4  10  20  38  62  89 122 165 204 263 320 378
#     4  11  22  40  63  90 124 168 209 267 327 380
#     4   9  21  39  62  91 121 163 220 253 307 396
#
# _framework density 21.060452000000002
#
# number of rings (size 3 to 8) (size 9 to 14) (size 15 to 20)
#    0.000    1.818    1.818    1.909    0.000    2.909 
#    3.273    5.455    0.000    0.000    0.000    0.000 
#    0.000    0.000    0.000    0.000    0.000    0.000 
#
# Total GULP energy -244995.136216 kJ/mol
# GULP energy per Si atom -5568.071278 kJ/mol
# Density = 2.101252 g / cm^3
# Si number density = 21.060452 Si / 1000 Ang^3
#
#
#
# Elastic Constant Matrix: (Units=GPa)
#
#
# Indices 1 2 3 4 5 6 
#
# 1 78.8407 13.1635 29.2836 0.0000 0.0000 0.0000
# 2 13.1635 152.1619 40.7841 0.0000 0.0000 0.0000
# 3 29.2836 40.7841 88.5965 0.0000 0.0000 0.0000
# 4 0.0000 0.0000 0.0000 23.7358 0.0000 0.0000
# 5 0.0000 0.0000 0.0000 0.0000 10.2337 0.0000
# 6 0.0000 0.0000 0.0000 0.0000 0.0000 29.0550
#
#
#
# Elastic Compliance Matrix: (Units=1/GPa)
#
#
# Indices 1 2 3 4 5 6 
#
# 1 0.014459 0.000034 -0.004795 0.000000 0.000000 0.000000
# 2 0.000034 0.007497 -0.003462 0.000000 0.000000 0.000000
# 3 -0.004795 -0.003462 0.014466 0.000000 0.000000 0.000000
# 4 0.000000 0.000000 0.000000 0.042130 0.000000 0.000000
# 5 0.000000 0.000000 0.000000 0.000000 0.097717 0.000000
# 6 0.000000 0.000000 0.000000 0.000000 0.000000 0.034417
#
#
# Mechanical properties :
#
#
# Convention : Reuss Voigt Hill
#
# Bulk Modulus (GPa) = 50.06059 54.00684 52.03372
# Shear Modulus (GPa) = 21.38660 28.36276 24.87468
#
# Velocity S-wave (km/s) = 3.19013 3.67376 3.44045
# Velocity P-wave (km/s) = 6.11480 6.61020 6.36732
#
# Compressibility (1/GPa) = 0.01997579
#
# Stress axis : x y z
#
# Youngs Moduli (GPa) = 69.16089 133.38613 69.12813
#
# Poissons Ratio (x) = -0.00458 0.33146
# Poissons Ratio (y) = -0.00237 0.23936
# Poissons Ratio (z) = 0.33162 0.46185
#
# Static dielectric constant tensor:
#      x y z
#    x 1.813660 0.000000 0.000000 
#    y 0.000000 1.798860 0.000000 
#    z 0.000000 0.000000 1.847610 
# 
# From -- ./inp_files/50381.got.cif
#   From: 2010.05.17/outbox.cif.g08.bks.cpg/sg70_26_cif.got.tgz:50381.got - 2010.06.03 15:57:51.
