data_PCOD9514162
_publ_section_title
;
Structure prediction by ZEFSAII (Michael W. Deem and Ramdas Pophale) SiO2 
 PCOD9514162
Probable space group: F D D D
;
_chemical_formula_sum "Si O2"
_cell_formula_units_Z 192
_cell_length_a 27.372495
_cell_length_b 32.622089
_cell_length_c 10.683731
_cell_angle_alpha 90.000000
_cell_angle_beta 90.000000
_cell_angle_gamma 90.000000
_cell_volume 9540.015888
_symmetry_space_group_name_H-M "F D D D"
_symmetry_group_IT_number 70
_space_group.IT_coordinate_system_code '2'
_symmetry_cell_setting 'orthorhombic'
loop_
_space_group_symop_operation_xyz
x,y,z
1/4-x,1/4-y,z
x,1/4-y,1/4-z
1/4-x,y,1/4-z
-x,-y,-z
3/4+x,3/4+y,-z
-x,3/4+y,3/4+z
3/4+x,-y,3/4+z
x,1/2+y,1/2+z
1/4-x,3/4-y,1/2+z
x,3/4-y,3/4-z
1/4-x,1/2+y,3/4-z
-x,1/2-y,1/2-z
3/4+x,1/4+y,1/2-z
-x,1/4+y,1/4+z
3/4+x,1/2-y,1/4+z
1/2+x,y,1/2+z
3/4-x,1/4-y,1/2+z
1/2+x,1/4-y,3/4-z
3/4-x,y,3/4-z
1/2-x,-y,1/2-z
1/4+x,3/4+y,1/2-z
1/2-x,3/4+y,1/4+z
1/4+x,-y,1/4+z
1/2+x,1/2+y,z
3/4-x,3/4-y,z
1/2+x,3/4-y,1/4-z
3/4-x,1/2+y,1/4-z
1/2-x,1/2-y,-z
1/4+x,1/4+y,-z
1/2-x,1/4+y,3/4+z
1/4+x,1/2-y,3/4+z
loop_
_atom_site_type_symbol
_atom_site_label
_atom_site_fract_x
_atom_site_fract_y
_atom_site_fract_z
Si Si1 0.228223 0.585077 0.571918
Si Si2 0.481367 0.249928 0.603571
Si Si3 0.827522 0.852353 0.577856
Si Si4 0.260820 0.375000 0.375000
Si Si5 0.125000 0.696055 0.625000
Si Si6 0.618545 0.518272 0.398447
Si Si7 0.277049 0.717542 0.097821
O O1 0.252612 0.625000 0.625000
O O2 0.263782 0.547658 0.575393
O O3 0.210902 0.592008 0.432800
O O4 0.176512 0.577385 0.645089
O O5 0.500000 0.250000 0.750000
O O6 0.425901 0.263539 0.583892
O O7 0.512709 0.271320 0.492604
O O8 0.875000 0.875000 0.629981
O O9 0.799318 0.882318 0.486298
O O10 0.846767 0.808225 0.529954
O O11 0.234320 0.331693 0.410510
O O12 0.135673 0.721323 0.750062
O O13 0.583799 0.479613 0.423005
O O14 0.250000 0.750000 0.000000
#
# Coordination Sequence:
#
# PCOD9514162 Si02
#       7
#    32  32  32  16  16  32  32
#     4  11  21  36  60  97 135 163 218 276 345 398
#     4  12  24  41  70  97 132 183 224 281 346 411
#     4  11  22  39  64  99 126 170 226 286 345 396
#     4  12  25  42  72  96 132 184 236 277 348 424
#     4  10  17  38  64  94 126 176 212 282 354 393
#     4  11  21  41  65  95 138 174 226 280 347 403
#     4  12  25  48  68  98 142 180 228 288 350 417
#
# _framework density 20.125753
#
# number of rings (size 3 to 8) (size 9 to 14) (size 15 to 20)
#    0.000    0.667    6.667    3.500    2.333    0.667 
#    1.500    0.000    0.000    2.000    0.000    0.000 
#    0.000    0.000    0.000    0.000    0.000    0.000 
#
# Total GULP energy -267298.671917 kJ/mol
# GULP energy per Si atom -5568.722332 kJ/mol
# Density = 2.007995 g / cm^3
# Si number density = 20.125753 Si / 1000 Ang^3
#
#
#
# Elastic Constant Matrix: (Units=GPa)
#
#
# Indices 1 2 3 4 5 6 
#
# 1 66.2211 19.6537 5.1153 -0.0009 0.0010 0.0005
# 2 19.6537 119.3222 5.6071 -0.0001 -0.0001 0.0000
# 3 5.1153 5.6071 59.4134 -0.0023 0.0029 0.0016
# 4 -0.0009 -0.0001 -0.0023 27.1420 0.0010 0.0008
# 5 0.0010 -0.0001 0.0029 0.0010 42.8225 -0.0008
# 6 0.0005 0.0000 0.0016 0.0008 -0.0008 42.4889
#
#
#
# Elastic Compliance Matrix: (Units=1/GPa)
#
#
# Indices 1 2 3 4 5 6 
#
# 1 0.015952 -0.002574 -0.001130 0.000000 0.000000 0.000000
# 2 -0.002574 0.008833 -0.000612 0.000000 0.000000 0.000000
# 3 -0.001130 -0.000612 0.016986 0.000001 -0.000001 -0.000001
# 4 0.000000 0.000000 0.000001 0.036843 -0.000001 -0.000001
# 5 0.000000 0.000000 -0.000001 -0.000001 0.023352 0.000000
# 6 0.000000 0.000000 -0.000001 -0.000001 0.000000 0.023536
#
#
# Mechanical properties :
#
#
# Convention : Reuss Voigt Hill
#
# Bulk Modulus (GPa) = 30.17655 33.96764 32.07210
# Shear Modulus (GPa) = 34.43930 36.79606 35.61768
#
# Velocity S-wave (km/s) = 4.14116 4.28051 4.21141
# Velocity P-wave (km/s) = 6.15566 6.42998 6.29432
#
# Compressibility (1/GPa) = 0.03313831
#
# Stress axis : x y z
#
# Youngs Moduli (GPa) = 62.68690 113.20596 58.87096
#
# Poissons Ratio (x) = 0.29144 0.06655
# Poissons Ratio (y) = 0.16138 0.03603
# Poissons Ratio (z) = 0.07087 0.06928
#
# Static dielectric constant tensor:
#      x y z
#    x 1.807510 0.000000 0.000000 
#    y 0.000000 1.733730 0.000000 
#    z 0.000000 0.000000 1.846070 
# 
# From -- ./inp_files/21248.got.cif
#   From: 2010.05.17/outbox.cif.g08.bks.cpg/sg70_11_cif.got.tgz:21248.got - 2010.06.03 15:57:51.
