data_PCOD9514494
_publ_section_title
;
Structure prediction by ZEFSAII (Michael W. Deem and Ramdas Pophale) SiO2 
 PCOD9514494
Probable space group: F D D D
;
_chemical_formula_sum "Si O2"
_cell_formula_units_Z 208
_cell_length_a 20.147643
_cell_length_b 32.408189
_cell_length_c 16.687908
_cell_angle_alpha 90.000000
_cell_angle_beta 90.000000
_cell_angle_gamma 90.000000
_cell_volume 10896.346537
_symmetry_space_group_name_H-M "F D D D"
_symmetry_group_IT_number 70
_space_group.IT_coordinate_system_code '2'
_symmetry_cell_setting 'orthorhombic'
loop_
_space_group_symop_operation_xyz
x,y,z
1/4-x,1/4-y,z
x,1/4-y,1/4-z
1/4-x,y,1/4-z
-x,-y,-z
3/4+x,3/4+y,-z
-x,3/4+y,3/4+z
3/4+x,-y,3/4+z
x,1/2+y,1/2+z
1/4-x,3/4-y,1/2+z
x,3/4-y,3/4-z
1/4-x,1/2+y,3/4-z
-x,1/2-y,1/2-z
3/4+x,1/4+y,1/2-z
-x,1/4+y,1/4+z
3/4+x,1/2-y,1/4+z
1/2+x,y,1/2+z
3/4-x,1/4-y,1/2+z
1/2+x,1/4-y,3/4-z
3/4-x,y,3/4-z
1/2-x,-y,1/2-z
1/4+x,3/4+y,1/2-z
1/2-x,3/4+y,1/4+z
1/4+x,-y,1/4+z
1/2+x,1/2+y,z
3/4-x,3/4-y,z
1/2+x,3/4-y,1/4-z
3/4-x,1/2+y,1/4-z
1/2-x,1/2-y,-z
1/4+x,1/4+y,-z
1/2-x,1/4+y,3/4+z
1/4+x,1/2-y,3/4+z
loop_
_atom_site_type_symbol
_atom_site_label
_atom_site_fract_x
_atom_site_fract_y
_atom_site_fract_z
Si Si1 0.375000 0.531407 0.875000
Si Si2 0.543735 0.397852 0.205632
Si Si3 0.977844 0.847353 0.711444
Si Si4 0.125000 0.326202 0.625000
Si Si5 0.887541 0.479398 0.515405
Si Si6 0.676996 0.310122 0.402132
Si Si7 0.938618 0.125000 0.625000
Si Si8 0.001335 0.808686 0.014272
O O1 0.412127 0.561171 0.811620
O O2 0.336545 0.500094 0.817432
O O3 0.492890 0.403935 0.133387
O O4 0.588900 0.358038 0.185096
O O5 0.520595 0.386931 0.294994
O O6 0.920165 0.815158 0.727739
O O7 0.037427 0.832184 0.771192
O O8 0.970507 0.895745 0.724731
O O9 0.064929 0.304261 0.575277
O O10 0.909818 0.512906 0.579601
O O11 0.808225 0.473837 0.521179
O O12 0.612635 0.336363 0.375179
O O13 0.724213 0.309526 0.326251
#
# Coordination Sequence:
#
# PCOD9514494 Si02
#       8
#    16  32  32  16  32  32  16  32
#     4  11  20  34  53  94 139 162 200 249 323 388
#     4  10  19  34  61  88 115 159 216 253 291 374
#     4  11  22  40  61  88 132 172 206 257 324 404
#     4   9  18  40  62  76 105 161 215 265 296 368
#     4  12  25  35  58  97 135 167 200 269 338 389
#     4  12  21  36  59  90 126 167 211 258 311 392
#     4  12  18  36  62  89 115 158 220 256 296 368
#     4  11  23  40  61  89 122 170 221 259 322 391
#
# _framework density 19.088968000000001
#
# number of rings (size 3 to 8) (size 9 to 14) (size 15 to 20)
#    0.000    0.923    6.154    2.769    2.154    0.000 
#    0.000    3.077    0.000    0.000    0.000    4.308 
#    0.000    0.000    0.000    0.000    0.000    0.000 
#
# Total GULP energy -289534.860997 kJ/mol
# GULP energy per Si atom -5567.978096 kJ/mol
# Density = 1.904552 g / cm^3
# Si number density = 19.088968 Si / 1000 Ang^3
#
#
#
# Elastic Constant Matrix: (Units=GPa)
#
#
# Indices 1 2 3 4 5 6 
#
# 1 41.8903 20.1885 30.8825 0.0000 0.0000 0.0000
# 2 20.1885 45.8541 33.2144 0.0000 0.0000 0.0000
# 3 30.8825 33.2144 137.2609 0.0000 0.0000 0.0000
# 4 0.0000 0.0000 0.0000 43.3399 0.0000 0.0000
# 5 0.0000 0.0000 0.0000 0.0000 13.8259 0.0000
# 6 0.0000 0.0000 0.0000 0.0000 0.0000 7.4626
#
#
#
# Elastic Compliance Matrix: (Units=1/GPa)
#
#
# Indices 1 2 3 4 5 6 
#
# 1 0.032609 -0.010964 -0.004684 0.000000 0.000000 0.000000
# 2 -0.010964 0.030130 -0.004824 0.000000 0.000000 0.000000
# 3 -0.004684 -0.004824 0.009506 0.000000 0.000000 0.000000
# 4 0.000000 0.000000 0.000000 0.023073 0.000000 0.000000
# 5 0.000000 0.000000 0.000000 0.000000 0.072328 0.000000
# 6 0.000000 0.000000 0.000000 0.000000 0.000000 0.134002
#
#
# Mechanical properties :
#
#
# Convention : Reuss Voigt Hill
#
# Bulk Modulus (GPa) = 31.94741 43.73066 37.83904
# Shear Modulus (GPa) = 14.16323 22.30699 18.23511
#
# Velocity S-wave (km/s) = 2.72685 3.42216 3.09410
# Velocity P-wave (km/s) = 5.16591 6.21076 5.71227
#
# Compressibility (1/GPa) = 0.03130144
#
# Stress axis : x y z
#
# Youngs Moduli (GPa) = 30.66649 33.18958 105.19177
#
# Poissons Ratio (x) = 0.36391 0.49267
# Poissons Ratio (y) = 0.33624 0.50744
# Poissons Ratio (z) = 0.14363 0.16010
#
# Static dielectric constant tensor:
#      x y z
#    x 1.739230 0.000000 0.000000 
#    y 0.000000 1.684450 0.000000 
#    z 0.000000 0.000000 1.727530 
# 
# From -- ./inp_files/36912.got.cif
#   From: 2010.05.17/outbox.cif.g08.bks.cpg/sg70_19_cif.got.tgz:36912.got - 2010.06.03 15:57:51.
