data_PCOD9514884
_publ_section_title
;
Structure prediction by ZEFSAII (Michael W. Deem and Ramdas Pophale) SiO2 
 PCOD9514884
Probable space group: F D D D
;
_chemical_formula_sum "Si O2"
_cell_formula_units_Z 128
_cell_length_a 28.876366
_cell_length_b 27.809818
_cell_length_c 8.131191
_cell_angle_alpha 90.000000
_cell_angle_beta 90.000000
_cell_angle_gamma 90.000000
_cell_volume 6529.724335
_symmetry_space_group_name_H-M "F D D D"
_symmetry_group_IT_number 70
_space_group.IT_coordinate_system_code '2'
_symmetry_cell_setting 'orthorhombic'
loop_
_space_group_symop_operation_xyz
x,y,z
1/4-x,1/4-y,z
x,1/4-y,1/4-z
1/4-x,y,1/4-z
-x,-y,-z
3/4+x,3/4+y,-z
-x,3/4+y,3/4+z
3/4+x,-y,3/4+z
x,1/2+y,1/2+z
1/4-x,3/4-y,1/2+z
x,3/4-y,3/4-z
1/4-x,1/2+y,3/4-z
-x,1/2-y,1/2-z
3/4+x,1/4+y,1/2-z
-x,1/4+y,1/4+z
3/4+x,1/2-y,1/4+z
1/2+x,y,1/2+z
3/4-x,1/4-y,1/2+z
1/2+x,1/4-y,3/4-z
3/4-x,y,3/4-z
1/2-x,-y,1/2-z
1/4+x,3/4+y,1/2-z
1/2-x,3/4+y,1/4+z
1/4+x,-y,1/4+z
1/2+x,1/2+y,z
3/4-x,3/4-y,z
1/2+x,3/4-y,1/4-z
3/4-x,1/2+y,1/4-z
1/2-x,1/2-y,-z
1/4+x,1/4+y,-z
1/2-x,1/4+y,3/4+z
1/4+x,1/2-y,3/4+z
loop_
_atom_site_type_symbol
_atom_site_label
_atom_site_fract_x
_atom_site_fract_y
_atom_site_fract_z
Si Si1 0.611865 0.792995 0.809749
Si Si2 0.625000 0.125000 0.625000
Si Si3 0.324335 0.807289 0.132380
Si Si4 0.436201 0.125000 0.625000
Si Si5 0.875000 0.875000 0.375000
Si Si6 0.768672 0.096178 0.285647
O O1 0.625000 0.777641 0.625000
O O2 0.597853 0.744517 0.901639
O O3 0.652368 0.828008 0.875516
O O4 0.565282 0.823258 0.786093
O O5 0.660141 0.160171 0.717212
O O6 0.269550 0.807850 0.097161
O O7 0.345562 0.838638 0.984698
O O8 0.465648 0.126443 0.454659
O O9 0.750176 0.125000 0.125000
#
# Coordination Sequence:
#
# PCOD9514884 Si02
#       6
#    32   8  32  16   8  32
#     4  10  21  39  65  94 125 173 213 264 328 391
#     4  10  26  38  60  88 126 170 204 266 332 386
#     4  11  21  41  60  90 124 165 217 261 324 385
#     4  10  23  41  62 101 138 163 220 271 323 396
#     4  10  20  36  64  76 122 166 200 260 308 380
#     4  11  22  38  65  94 128 170 212 271 324 378
#
# _framework density 19.602664000000001
#
# number of rings (size 3 to 8) (size 9 to 14) (size 15 to 20)
#    0.000    1.500    3.750    1.500    0.000    2.000 
#    0.000    0.000    0.000   12.000    0.000    0.000 
#    0.000    0.000    0.000    0.000    0.000    0.000 
#
# Total GULP energy -178202.240868 kJ/mol
# GULP energy per Si atom -5568.820027 kJ/mol
# Density = 1.955805 g / cm^3
# Si number density = 19.602664 Si / 1000 Ang^3
#
#
#
# Elastic Constant Matrix: (Units=GPa)
#
#
# Indices 1 2 3 4 5 6 
#
# 1 65.1423 15.9254 20.5162 0.0065 -0.0021 -0.0052
# 2 15.9254 104.2465 55.1422 0.0091 -0.0067 -0.0138
# 3 20.5162 55.1422 87.1571 0.0250 -0.0210 -0.0221
# 4 0.0065 0.0091 0.0250 41.5546 -0.0155 -0.0138
# 5 -0.0021 -0.0067 -0.0210 -0.0155 40.3226 0.0046
# 6 -0.0052 -0.0138 -0.0221 -0.0138 0.0046 8.7343
#
#
#
# Elastic Compliance Matrix: (Units=1/GPa)
#
#
# Indices 1 2 3 4 5 6 
#
# 1 0.016615 -0.000706 -0.003465 0.000000 -0.000001 0.000000
# 2 -0.000706 0.014448 -0.008975 0.000002 -0.000002 0.000000
# 3 -0.003465 -0.008975 0.017967 -0.000008 0.000008 0.000029
# 4 0.000000 0.000002 -0.000008 0.024065 0.000009 0.000038
# 5 -0.000001 -0.000002 0.000008 0.000009 0.024800 -0.000013
# 6 0.000000 0.000000 0.000029 0.000038 -0.000013 0.114492
#
#
# Mechanical properties :
#
#
# Convention : Reuss Voigt Hill
#
# Bulk Modulus (GPa) = 43.97554 48.85707 46.41631
# Shear Modulus (GPa) = 20.30414 29.11976 24.71195
#
# Velocity S-wave (km/s) = 3.22185 3.85840 3.55440
# Velocity P-wave (km/s) = 6.02682 6.69533 6.36985
#
# Compressibility (1/GPa) = 0.02273992
#
# Stress axis : x y z
#
# Youngs Moduli (GPa) = 60.18784 69.21547 55.65724
#
# Poissons Ratio (x) = 0.04883 0.19283
# Poissons Ratio (y) = 0.04246 0.49950
# Poissons Ratio (z) = 0.20853 0.62118
#
# Static dielectric constant tensor:
#      x y z
#    x 1.707320 0.000000 0.000010 
#    y 0.000000 1.680790 0.000000 
#    z 0.000010 0.000000 1.815670 
# 
# From -- ./inp_files/11080.got.cif
#   From: 2010.05.17/outbox.cif.g08.bks.cpg/sg70_6_cif.got.tgz:11080.got - 2010.06.03 15:57:51.
