data_PCOD9514451
_publ_section_title
;
Structure prediction by ZEFSAII (Michael W. Deem and Ramdas Pophale) SiO2 
 PCOD9514451
Probable space group: F D D D
;
_chemical_formula_sum "Si O2"
_cell_formula_units_Z 160
_cell_length_a 13.823116
_cell_length_b 28.373074
_cell_length_c 17.947563
_cell_angle_alpha 90.000000
_cell_angle_beta 90.000000
_cell_angle_gamma 90.000000
_cell_volume 7039.111261
_symmetry_space_group_name_H-M "F D D D"
_symmetry_group_IT_number 70
_space_group.IT_coordinate_system_code '2'
_symmetry_cell_setting 'orthorhombic'
loop_
_space_group_symop_operation_xyz
x,y,z
1/4-x,1/4-y,z
x,1/4-y,1/4-z
1/4-x,y,1/4-z
-x,-y,-z
3/4+x,3/4+y,-z
-x,3/4+y,3/4+z
3/4+x,-y,3/4+z
x,1/2+y,1/2+z
1/4-x,3/4-y,1/2+z
x,3/4-y,3/4-z
1/4-x,1/2+y,3/4-z
-x,1/2-y,1/2-z
3/4+x,1/4+y,1/2-z
-x,1/4+y,1/4+z
3/4+x,1/2-y,1/4+z
1/2+x,y,1/2+z
3/4-x,1/4-y,1/2+z
1/2+x,1/4-y,3/4-z
3/4-x,y,3/4-z
1/2-x,-y,1/2-z
1/4+x,3/4+y,1/2-z
1/2-x,3/4+y,1/4+z
1/4+x,-y,1/4+z
1/2+x,1/2+y,z
3/4-x,3/4-y,z
1/2+x,3/4-y,1/4-z
3/4-x,1/2+y,1/4-z
1/2-x,1/2-y,-z
1/4+x,1/4+y,-z
1/2-x,1/4+y,3/4+z
1/4+x,1/2-y,3/4+z
loop_
_atom_site_type_symbol
_atom_site_label
_atom_site_fract_x
_atom_site_fract_y
_atom_site_fract_z
Si Si1 0.926674 0.590003 0.293233
Si Si2 0.337535 0.422499 0.046880
Si Si3 0.833027 0.762273 0.172247
Si Si4 0.131751 0.441757 0.209908
Si Si5 0.244632 0.797075 0.450691
O O1 0.875000 0.585600 0.375000
O O2 0.949800 0.645646 0.284301
O O3 0.849677 0.574622 0.230154
O O4 0.014294 0.552853 0.294158
O O5 0.375000 0.375000 0.085573
O O6 0.355591 0.464359 0.105787
O O7 0.226148 0.420910 0.027145
O O8 0.408273 0.427046 0.975957
O O9 0.894113 0.734182 0.233065
O O10 0.767073 0.722515 0.131868
O O11 0.125000 0.458727 0.125000
O O12 0.250000 0.750000 0.500000
#
# Coordination Sequence:
#
# PCOD9514451 Si02
#       5
#    32  32  32  32  32
#     4  11  19  39  61  90 130 163 204 267 331 386
#     4  11  20  39  62  91 127 162 207 260 334 392
#     4  11  23  38  67  90 126 170 211 262 324 385
#     4  11  25  41  60  90 128 171 221 265 310 387
#     4  10  19  33  61  96 118 152 207 253 330 386
#
# _framework density 22.730142000000001
#
# number of rings (size 3 to 8) (size 9 to 14) (size 15 to 20)
#    0.000    1.200    6.000    3.600    0.000    1.600 
#    0.000    1.000    0.000    3.000    0.000    0.000 
#    0.000    0.000    0.000    0.000    0.000    0.000 
#
# Total GULP energy -223513.797447 kJ/mol
# GULP energy per Si atom -5587.844936 kJ/mol
# Density = 2.267841 g / cm^3
# Si number density = 22.730142 Si / 1000 Ang^3
#
#
#
# Elastic Constant Matrix: (Units=GPa)
#
#
# Indices 1 2 3 4 5 6 
#
# 1 76.0673 16.1629 8.1024 0.0000 0.0000 0.0000
# 2 16.1629 125.4433 62.6387 0.0000 0.0000 0.0000
# 3 8.1024 62.6387 86.6734 0.0000 0.0000 0.0000
# 4 0.0000 0.0000 0.0000 28.1280 0.0000 0.0000
# 5 0.0000 0.0000 0.0000 0.0000 20.9767 0.0000
# 6 0.0000 0.0000 0.0000 0.0000 0.0000 28.7486
#
#
#
# Elastic Compliance Matrix: (Units=1/GPa)
#
#
# Indices 1 2 3 4 5 6 
#
# 1 0.013516 -0.001738 -0.000008 0.000000 0.000000 0.000000
# 2 -0.001738 0.012696 -0.009013 0.000000 0.000000 0.000000
# 3 -0.000008 -0.009013 0.018052 0.000000 0.000000 0.000000
# 4 0.000000 0.000000 0.000000 0.035552 0.000000 0.000000
# 5 0.000000 0.000000 0.000000 0.000000 0.047672 0.000000
# 6 0.000000 0.000000 0.000000 0.000000 0.000000 0.034784
#
#
# Mechanical properties :
#
#
# Convention : Reuss Voigt Hill
#
# Bulk Modulus (GPa) = 43.96071 51.33245 47.64658
# Shear Modulus (GPa) = 26.12712 28.98933 27.55822
#
# Velocity S-wave (km/s) = 3.39403 3.57511 3.48574
# Velocity P-wave (km/s) = 5.89419 6.29875 6.09983
#
# Compressibility (1/GPa) = 0.02274758
#
# Stress axis : x y z
#
# Youngs Moduli (GPa) = 73.98478 78.76372 55.39544
#
# Poissons Ratio (x) = 0.13687 0.00043
# Poissons Ratio (y) = 0.12856 0.49928
# Poissons Ratio (z) = 0.00057 0.70990
#
# Static dielectric constant tensor:
#      x y z
#    x 1.871660 0.000000 0.000000 
#    y 0.000000 1.901490 0.000000 
#    z 0.000000 0.000000 0.210970 
# 
# From -- ./inp_files/35148.got.cif
#   From: 2010.05.17/outbox.cif.g08.bks.cpg/sg70_18_cif.got.tgz:35148.got - 2010.06.03 15:57:51.
