data_PCOD9514544
_publ_section_title
;
Structure prediction by ZEFSAII (Michael W. Deem and Ramdas Pophale) SiO2 
 PCOD9514544
Probable space group: F D D D
;
_chemical_formula_sum "Si O2"
_cell_formula_units_Z 240
_cell_length_a 26.291808
_cell_length_b 18.498614
_cell_length_c 22.233556
_cell_angle_alpha 90.000000
_cell_angle_beta 90.000000
_cell_angle_gamma 90.000000
_cell_volume 10813.556931
_symmetry_space_group_name_H-M "F D D D"
_symmetry_group_IT_number 70
_space_group.IT_coordinate_system_code '2'
_symmetry_cell_setting 'orthorhombic'
loop_
_space_group_symop_operation_xyz
x,y,z
1/4-x,1/4-y,z
x,1/4-y,1/4-z
1/4-x,y,1/4-z
-x,-y,-z
3/4+x,3/4+y,-z
-x,3/4+y,3/4+z
3/4+x,-y,3/4+z
x,1/2+y,1/2+z
1/4-x,3/4-y,1/2+z
x,3/4-y,3/4-z
1/4-x,1/2+y,3/4-z
-x,1/2-y,1/2-z
3/4+x,1/4+y,1/2-z
-x,1/4+y,1/4+z
3/4+x,1/2-y,1/4+z
1/2+x,y,1/2+z
3/4-x,1/4-y,1/2+z
1/2+x,1/4-y,3/4-z
3/4-x,y,3/4-z
1/2-x,-y,1/2-z
1/4+x,3/4+y,1/2-z
1/2-x,3/4+y,1/4+z
1/4+x,-y,1/4+z
1/2+x,1/2+y,z
3/4-x,3/4-y,z
1/2+x,3/4-y,1/4-z
3/4-x,1/2+y,1/4-z
1/2-x,1/2-y,-z
1/4+x,1/4+y,-z
1/2-x,1/4+y,3/4+z
1/4+x,1/2-y,3/4+z
loop_
_atom_site_type_symbol
_atom_site_label
_atom_site_fract_x
_atom_site_fract_y
_atom_site_fract_z
Si Si1 0.260625 0.147412 0.313130
Si Si2 0.937046 0.723695 0.022462
Si Si3 0.588963 0.474884 0.836232
Si Si4 0.336900 0.307944 0.521967
Si Si5 0.829360 0.072790 0.715405
Si Si6 0.989588 0.334890 0.065188
Si Si7 0.986111 0.625000 0.125000
Si Si8 0.679447 0.243512 0.100877
O O1 0.218791 0.202999 0.286294
O O2 0.287304 0.095414 0.264054
O O3 0.235978 0.098201 0.364473
O O4 0.301547 0.193684 0.353679
O O5 0.876453 0.727770 0.016434
O O6 0.953266 0.667112 0.075158
O O7 0.957131 0.688225 0.960870
O O8 0.639358 0.523686 0.832569
O O9 0.601108 0.400931 0.803589
O O10 0.564258 0.458490 0.900367
O O11 0.548408 0.520015 0.797910
O O12 0.375000 0.375000 0.504672
O O13 0.282918 0.343331 0.535477
O O14 0.332146 0.248269 0.470124
O O15 0.025263 0.564603 0.101061
O O16 0.625000 0.216684 0.125000
#
# Coordination Sequence:
#
# PCOD9514544 Si02
#       8
#    32  32  32  32  32  32  16  32
#     4  11  26  41  62  95 128 172 219 272 329 388
#     4  11  23  41  60  94 133 166 218 267 322 406
#     4  10  22  41  65  89 121 171 224 265 329 390
#     4  10  20  36  58  90 130 171 207 255 320 395
#     4  11  23  43  66  87 124 170 217 280 329 386
#     4  11  23  40  62  93 130 166 216 275 325 398
#     4  10  19  36  54  86 124 180 208 246 317 396
#     4  11  21  31  55  87 133 169 209 249 316 400
#
# _framework density 22.194362999999999
#
# number of rings (size 3 to 8) (size 9 to 14) (size 15 to 20)
#    0.000    1.333    2.667    3.400    7.467    2.133 
#    0.000    0.000    0.000    0.000    0.000    0.000 
#    0.000    0.000    0.000    0.000    0.000    0.000 
#
# Total GULP energy -334686.958931 kJ/mol
# GULP energy per Si atom -5578.115982 kJ/mol
# Density = 2.214385 g / cm^3
# Si number density = 22.194363 Si / 1000 Ang^3
#
#
#
# Elastic Constant Matrix: (Units=GPa)
#
#
# Indices 1 2 3 4 5 6 
#
# 1 40.9138 10.3246 -0.0022 0.0000 0.0000 0.0000
# 2 10.3246 56.9219 23.0132 0.0000 0.0000 0.0000
# 3 -0.0022 23.0132 80.1875 0.0000 0.0000 0.0000
# 4 0.0000 0.0000 0.0000 29.1709 0.0000 0.0000
# 5 0.0000 0.0000 0.0000 0.0000 34.6732 0.0000
# 6 0.0000 0.0000 0.0000 0.0000 0.0000 19.8064
#
#
#
# Elastic Compliance Matrix: (Units=1/GPa)
#
#
# Indices 1 2 3 4 5 6 
#
# 1 0.025776 -0.005289 0.001519 0.000000 0.000000 0.000000
# 2 -0.005289 0.020959 -0.006015 0.000000 0.000000 0.000000
# 3 0.001519 -0.006015 0.014197 0.000000 0.000000 0.000000
# 4 0.000000 0.000000 0.000000 0.034281 0.000000 0.000000
# 5 0.000000 0.000000 0.000000 0.000000 0.028841 0.000000
# 6 0.000000 0.000000 0.000000 0.000000 0.000000 0.050489
#
#
# Mechanical properties :
#
#
# Convention : Reuss Voigt Hill
#
# Bulk Modulus (GPa) = 24.17737 27.18827 25.68282
# Shear Modulus (GPa) = 24.04978 26.37593 25.21286
#
# Velocity S-wave (km/s) = 3.29538 3.45107 3.37412
# Velocity P-wave (km/s) = 5.03949 5.30627 5.17460
#
# Compressibility (1/GPa) = 0.04136098
#
# Stress axis : x y z
#
# Youngs Moduli (GPa) = 38.79504 47.71161 70.43669
#
# Poissons Ratio (x) = 0.25236 -0.10697
# Poissons Ratio (y) = 0.20520 0.42370
# Poissons Ratio (z) = -0.05892 0.28700
#
# Static dielectric constant tensor:
#      x y z
#    x 1.827880 0.000000 0.000000 
#    y 0.000000 1.828970 0.000000 
#    z 0.000000 0.000000 1.870730 
# 
# From -- ./inp_files/47137.got.cif
#   From: 2010.05.17/outbox.cif.g08.bks.cpg/sg70_24_cif.got.tgz:47137.got - 2010.06.03 15:57:51.
