data_PCOD9514363
_publ_section_title
;
Structure prediction by ZEFSAII (Michael W. Deem and Ramdas Pophale) SiO2 
 PCOD9514363
Probable space group: F D D D
;
_chemical_formula_sum "Si O2"
_cell_formula_units_Z 104
_cell_length_a 20.289348
_cell_length_b 7.375055
_cell_length_c 28.302204
_cell_angle_alpha 90.000000
_cell_angle_beta 90.000000
_cell_angle_gamma 90.000000
_cell_volume 4235.001920
_symmetry_space_group_name_H-M "F D D D"
_symmetry_group_IT_number 70
_space_group.IT_coordinate_system_code '2'
_symmetry_cell_setting 'orthorhombic'
loop_
_space_group_symop_operation_xyz
x,y,z
1/4-x,1/4-y,z
x,1/4-y,1/4-z
1/4-x,y,1/4-z
-x,-y,-z
3/4+x,3/4+y,-z
-x,3/4+y,3/4+z
3/4+x,-y,3/4+z
x,1/2+y,1/2+z
1/4-x,3/4-y,1/2+z
x,3/4-y,3/4-z
1/4-x,1/2+y,3/4-z
-x,1/2-y,1/2-z
3/4+x,1/4+y,1/2-z
-x,1/4+y,1/4+z
3/4+x,1/2-y,1/4+z
1/2+x,y,1/2+z
3/4-x,1/4-y,1/2+z
1/2+x,1/4-y,3/4-z
3/4-x,y,3/4-z
1/2-x,-y,1/2-z
1/4+x,3/4+y,1/2-z
1/2-x,3/4+y,1/4+z
1/4+x,-y,1/4+z
1/2+x,1/2+y,z
3/4-x,3/4-y,z
1/2+x,3/4-y,1/4-z
3/4-x,1/2+y,1/4-z
1/2-x,1/2-y,-z
1/4+x,1/4+y,-z
1/2-x,1/4+y,3/4+z
1/4+x,1/2-y,3/4+z
loop_
_atom_site_type_symbol
_atom_site_label
_atom_site_fract_x
_atom_site_fract_y
_atom_site_fract_z
Si Si1 0.185422 0.489753 0.825444
Si Si2 0.625000 0.625000 0.125000
Si Si3 0.779229 0.570567 0.865398
Si Si4 0.450496 0.369929 0.528030
O O1 0.125000 0.625000 0.815106
O O2 0.172737 0.375000 0.875000
O O3 0.249659 0.607677 0.836011
O O4 0.206119 0.345258 0.785981
O O5 0.578249 0.479685 0.152018
O O6 0.807628 0.375000 0.875000
O O7 0.716570 0.554079 0.830679
O O8 0.500000 0.500000 0.500000
O O9 0.375000 0.375000 0.511898
#
# Coordination Sequence:
#
# PCOD9514363 Si02
#       4
#    32   8  32  32
#     4  10  18  38  70 104 137 178 249 309 364 430
#     4  12  22  40  68 114 144 176 244 308 364 422
#     4  11  22  42  72 104 139 188 243 304 358 436
#     4  11  24  44  69 102 146 195 241 300 371 441
#
# _framework density 24.557248000000001
#
# number of rings (size 3 to 8) (size 9 to 14) (size 15 to 20)
#    0.000    1.231    4.615    6.923    0.000    2.462 
#    0.000    6.154   10.154    0.000    0.000    0.000 
#    0.000    0.000    0.000    0.000    0.000    0.000 
#
# Total GULP energy -144799.208461 kJ/mol
# GULP energy per Si atom -5569.200325 kJ/mol
# Density = 2.450135 g / cm^3
# Si number density = 24.557248 Si / 1000 Ang^3
#
#
#
# Elastic Constant Matrix: (Units=GPa)
#
#
# Indices 1 2 3 4 5 6 
#
# 1 161.9369 100.0208 28.0121 0.0000 0.0000 0.0003
# 2 100.0208 251.1264 49.8507 0.0000 0.0000 0.0008
# 3 28.0121 49.8507 49.2653 0.0000 0.0000 -0.0001
# 4 0.0000 0.0000 0.0000 16.0313 0.0000 0.0000
# 5 0.0000 0.0000 0.0000 0.0000 8.8085 0.0000
# 6 0.0003 0.0008 -0.0001 0.0000 0.0000 11.8876
#
#
#
# Elastic Compliance Matrix: (Units=1/GPa)
#
#
# Indices 1 2 3 4 5 6 
#
# 1 0.008305 -0.002966 -0.001721 0.000000 0.000000 0.000000
# 2 -0.002966 0.006042 -0.004428 0.000000 0.000000 0.000000
# 3 -0.001721 -0.004428 0.025757 0.000000 0.000000 0.000000
# 4 0.000000 0.000000 0.000000 0.062378 0.000000 0.000000
# 5 0.000000 0.000000 0.000000 0.000000 0.113527 0.000000
# 6 0.000000 0.000000 0.000000 0.000000 0.000000 0.084121
#
#
# Mechanical properties :
#
#
# Convention : Reuss Voigt Hill
#
# Bulk Modulus (GPa) = 45.71392 90.89953 68.30673
# Shear Modulus (GPa) = 15.35384 26.30848 20.83116
#
# Velocity S-wave (km/s) = 2.50317 3.27664 2.91567
# Velocity P-wave (km/s) = 5.19713 7.17014 6.26183
#
# Compressibility (1/GPa) = 0.02187517
#
# Stress axis : x y z
#
# Youngs Moduli (GPa) = 120.40963 165.49771 38.82452
#
# Poissons Ratio (x) = 0.49090 0.06681
# Poissons Ratio (y) = 0.35716 0.17190
# Poissons Ratio (z) = 0.20719 0.73276
#
# Static dielectric constant tensor:
#      x y z
#    x 2.070530 0.000000 0.000000 
#    y 0.000000 1.929190 0.000000 
#    z 0.000000 0.000000 2.033500 
# 
# From -- ./inp_files/67028.got.cif
#   From: 2010.05.17/outbox.cif.g08.bks.cpg/sg70_34_cif.got.tgz:67028.got - 2010.06.03 15:57:51.
