data_PCOD9514164
_publ_section_title
;
Structure prediction by ZEFSAII (Michael W. Deem and Ramdas Pophale) SiO2 
 PCOD9514164
Probable space group: F D D D
;
_chemical_formula_sum "Si O2"
_cell_formula_units_Z 112
_cell_length_a 16.196920
_cell_length_b 10.221292
_cell_length_c 36.769993
_cell_angle_alpha 90.000000
_cell_angle_beta 90.000000
_cell_angle_gamma 90.000000
_cell_volume 6087.399154
_symmetry_space_group_name_H-M "F D D D"
_symmetry_group_IT_number 70
_space_group.IT_coordinate_system_code '2'
_symmetry_cell_setting 'orthorhombic'
loop_
_space_group_symop_operation_xyz
x,y,z
1/4-x,1/4-y,z
x,1/4-y,1/4-z
1/4-x,y,1/4-z
-x,-y,-z
3/4+x,3/4+y,-z
-x,3/4+y,3/4+z
3/4+x,-y,3/4+z
x,1/2+y,1/2+z
1/4-x,3/4-y,1/2+z
x,3/4-y,3/4-z
1/4-x,1/2+y,3/4-z
-x,1/2-y,1/2-z
3/4+x,1/4+y,1/2-z
-x,1/4+y,1/4+z
3/4+x,1/2-y,1/4+z
1/2+x,y,1/2+z
3/4-x,1/4-y,1/2+z
1/2+x,1/4-y,3/4-z
3/4-x,y,3/4-z
1/2-x,-y,1/2-z
1/4+x,3/4+y,1/2-z
1/2-x,3/4+y,1/4+z
1/4+x,-y,1/4+z
1/2+x,1/2+y,z
3/4-x,3/4-y,z
1/2+x,3/4-y,1/4-z
3/4-x,1/2+y,1/4-z
1/2-x,1/2-y,-z
1/4+x,1/4+y,-z
1/2-x,1/4+y,3/4+z
1/4+x,1/2-y,3/4+z
loop_
_atom_site_type_symbol
_atom_site_label
_atom_site_fract_x
_atom_site_fract_y
_atom_site_fract_z
Si Si1 0.349359 0.236269 0.174709
Si Si2 0.760344 0.625000 0.625000
Si Si3 0.965739 0.082728 0.885979
Si Si4 0.950685 0.768050 0.712758
O O1 0.375000 0.375000 0.190875
O O2 0.428212 0.167500 0.156873
O O3 0.283090 0.272362 0.142549
O O4 0.322989 0.130994 0.203679
O O5 0.714647 0.759319 0.633482
O O6 0.875000 0.034004 0.875000
O O7 0.995056 0.053915 0.926962
O O8 0.875000 0.875000 0.714852
O O9 0.000000 0.750000 0.750000
#
# Coordination Sequence:
#
# PCOD9514164 Si02
#       4
#    32  16  32  32
#     4  10  20  40  67  88 122 170 217 261 318 378
#     4  10  17  40  63  90 122 168 202 282 313 364
#     4  11  22  37  67  99 126 160 230 270 316 380
#     4  12  25  43  63  93 137 174 209 269 335 392
#
# _framework density 18.398661000000001
#
# number of rings (size 3 to 8) (size 9 to 14) (size 15 to 20)
#    0.000    1.143    5.714    1.286    4.000    1.143 
#    0.000    4.286    0.000    0.000    0.000    0.000 
#    0.000    0.000    0.000    0.000    0.000    0.000 
#
# Total GULP energy -155965.063564 kJ/mol
# GULP energy per Si atom -5570.180842 kJ/mol
# Density = 1.835678 g / cm^3
# Si number density = 18.398661 Si / 1000 Ang^3
#
#
#
# Elastic Constant Matrix: (Units=GPa)
#
#
# Indices 1 2 3 4 5 6 
#
# 1 116.6924 56.2829 67.9173 0.0000 0.0000 0.0000
# 2 56.2829 170.7281 79.3146 0.0000 0.0000 0.0000
# 3 67.9173 79.3146 135.9308 0.0000 0.0000 0.0000
# 4 0.0000 0.0000 0.0000 1.8664 0.0000 0.0000
# 5 0.0000 0.0000 0.0000 0.0000 23.3177 0.0000
# 6 0.0000 0.0000 0.0000 0.0000 0.0000 26.1122
#
#
#
# Elastic Compliance Matrix: (Units=1/GPa)
#
#
# Indices 1 2 3 4 5 6 
#
# 1 0.012418 -0.001662 -0.005235 0.000000 0.000000 0.000000
# 2 -0.001662 0.008258 -0.003988 0.000000 0.000000 0.000000
# 3 -0.005235 -0.003988 0.012299 0.000000 0.000000 0.000000
# 4 0.000000 0.000000 0.000000 0.535804 0.000000 0.000000
# 5 0.000000 0.000000 0.000000 0.000000 0.042886 0.000000
# 6 0.000000 0.000000 0.000000 0.000000 0.000000 0.038296
#
#
# Mechanical properties :
#
#
# Convention : Reuss Voigt Hill
#
# Bulk Modulus (GPa) = 89.24210 92.26456 90.75333
# Shear Modulus (GPa) = 7.40230 24.91502 16.15866
#
# Velocity S-wave (km/s) = 2.00799 3.68390 2.96675
# Velocity P-wave (km/s) = 7.34752 8.26748 7.82103
#
# Compressibility (1/GPa) = 0.01120547
#
# Stress axis : x y z
#
# Youngs Moduli (GPa) = 80.52917 121.09742 81.30543
#
# Poissons Ratio (x) = 0.20123 0.42563
# Poissons Ratio (y) = 0.13382 0.32425
# Poissons Ratio (z) = 0.42156 0.48295
#
# Static dielectric constant tensor:
#      x y z
#    x 1.776010 0.000000 0.000000 
#    y 0.000000 3.499320 0.000000 
#    z 0.000000 0.000000 1.591260 
# 
# From -- ./inp_files/33188.got.cif
#   From: 2010.05.17/outbox.cif.g08.bks.cpg/sg70_17_cif.got.tgz:33188.got - 2010.06.03 15:57:51.
