data_PCOD9514070
_publ_section_title
;
Structure prediction by ZEFSAII (Michael W. Deem and Ramdas Pophale) SiO2 
 PCOD9514070
Probable space group: F D D D
;
_chemical_formula_sum "Si O2"
_cell_formula_units_Z 240
_cell_length_a 21.252368
_cell_length_b 26.685819
_cell_length_c 18.630579
_cell_angle_alpha 90.000000
_cell_angle_beta 90.000000
_cell_angle_gamma 90.000000
_cell_volume 10566.087809
_symmetry_space_group_name_H-M "F D D D"
_symmetry_group_IT_number 70
_space_group.IT_coordinate_system_code '2'
_symmetry_cell_setting 'orthorhombic'
loop_
_space_group_symop_operation_xyz
x,y,z
1/4-x,1/4-y,z
x,1/4-y,1/4-z
1/4-x,y,1/4-z
-x,-y,-z
3/4+x,3/4+y,-z
-x,3/4+y,3/4+z
3/4+x,-y,3/4+z
x,1/2+y,1/2+z
1/4-x,3/4-y,1/2+z
x,3/4-y,3/4-z
1/4-x,1/2+y,3/4-z
-x,1/2-y,1/2-z
3/4+x,1/4+y,1/2-z
-x,1/4+y,1/4+z
3/4+x,1/2-y,1/4+z
1/2+x,y,1/2+z
3/4-x,1/4-y,1/2+z
1/2+x,1/4-y,3/4-z
3/4-x,y,3/4-z
1/2-x,-y,1/2-z
1/4+x,3/4+y,1/2-z
1/2-x,3/4+y,1/4+z
1/4+x,-y,1/4+z
1/2+x,1/2+y,z
3/4-x,3/4-y,z
1/2+x,3/4-y,1/4-z
3/4-x,1/2+y,1/4-z
1/2-x,1/2-y,-z
1/4+x,1/4+y,-z
1/2-x,1/4+y,3/4+z
1/4+x,1/2-y,3/4+z
loop_
_atom_site_type_symbol
_atom_site_label
_atom_site_fract_x
_atom_site_fract_y
_atom_site_fract_z
Si Si1 0.875000 0.375000 0.614899
Si Si2 0.683145 0.044001 0.276094
Si Si3 0.175798 0.961597 0.345591
Si Si4 0.423893 0.030065 0.763840
Si Si5 0.094374 0.888454 0.024443
Si Si6 0.260248 0.815350 0.607837
Si Si7 0.969441 0.020831 0.652004
Si Si8 0.508982 0.859815 0.988022
O O1 0.853110 0.422046 0.663848
O O2 0.937273 0.396113 0.575411
O O3 0.723361 0.087433 0.238434
O O4 0.632008 0.011356 0.231612
O O5 0.723200 0.004642 0.323970
O O6 0.174913 0.953344 0.430743
O O7 0.187484 0.912976 0.297222
O O8 0.104149 0.978309 0.328138
O O9 0.220846 0.009317 0.336504
O O10 0.416868 0.082656 0.802889
O O11 0.489292 0.009963 0.792563
O O12 0.167431 0.885195 0.004581
O O13 0.060361 0.922914 0.083430
O O14 0.264930 0.827525 0.693000
O O15 0.994766 0.076713 0.666390
#
# Coordination Sequence:
#
# PCOD9514070 Si02
#       8
#    16  32  32  32  32  32  32  32
#     4  10  16  32  56  82 101 146 207 240 292 370
#     4  10  20  35  62  87 122 169 206 262 328 398
#     4  10  21  38  56  84 119 165 202 256 321 389
#     4  11  19  37  58  88 119 159 209 264 318 391
#     4  11  24  33  57  88 121 159 204 266 323 384
#     4  11  19  36  58  81 117 156 207 255 313 380
#     4  10  19  35  59  88 118 154 213 266 309 379
#     4  10  21  38  56  88 121 160 214 265 319 391
#
# _framework density 22.714178
#
# number of rings (size 3 to 8) (size 9 to 14) (size 15 to 20)
#    0.000    1.600    4.000    3.600    0.000    0.533 
#    0.000    0.000    0.000    0.000    0.000    7.467 
#    0.000    0.000    0.000    0.000    0.000    0.000 
#
# Total GULP energy -334702.655115 kJ/mol
# GULP energy per Si atom -5578.377585 kJ/mol
# Density = 2.266248 g / cm^3
# Si number density = 22.714178 Si / 1000 Ang^3
#
#
#
# Elastic Constant Matrix: (Units=GPa)
#
#
# Indices 1 2 3 4 5 6 
#
# 1 79.4258 39.9637 32.1284 0.0000 0.0000 0.0000
# 2 39.9637 157.9405 31.2371 0.0000 0.0000 0.0000
# 3 32.1284 31.2371 65.9125 0.0000 0.0000 0.0000
# 4 0.0000 0.0000 0.0000 29.3329 0.0000 0.0000
# 5 0.0000 0.0000 0.0000 0.0000 27.1452 0.0000
# 6 0.0000 0.0000 0.0000 0.0000 0.0000 26.7202
#
#
#
# Elastic Compliance Matrix: (Units=1/GPa)
#
#
# Indices 1 2 3 4 5 6 
#
# 1 0.016810 -0.002905 -0.006817 0.000000 0.000000 0.000000
# 2 -0.002905 0.007488 -0.002133 0.000000 0.000000 0.000000
# 3 -0.006817 -0.002133 0.019505 0.000000 0.000000 0.000000
# 4 0.000000 0.000000 0.000000 0.034091 0.000000 0.000000
# 5 0.000000 0.000000 0.000000 0.000000 0.036839 0.000000
# 6 0.000000 0.000000 0.000000 0.000000 0.000000 0.037425
#
#
# Mechanical properties :
#
#
# Convention : Reuss Voigt Hill
#
# Bulk Modulus (GPa) = 49.76711 56.65969 53.21340
# Shear Modulus (GPa) = 27.38738 29.96964 28.67851
#
# Velocity S-wave (km/s) = 3.47614 3.63633 3.55714
# Velocity P-wave (km/s) = 6.17002 6.52911 6.35210
#
# Compressibility (1/GPa) = 0.02009359
#
# Stress axis : x y z
#
# Youngs Moduli (GPa) = 59.48985 133.53987 51.26829
#
# Poissons Ratio (x) = 0.38795 0.34949
# Poissons Ratio (y) = 0.17282 0.10935
# Poissons Ratio (z) = 0.40554 0.28482
#
# Static dielectric constant tensor:
#      x y z
#    x 1.905180 0.000000 0.000000 
#    y 0.000000 1.932190 0.000000 
#    z 0.000000 0.000000 1.885950 
# 
# From -- ./inp_files/53171.got.cif
#   From: 2010.05.17/outbox.cif.g08.bks.cpg/sg70_27_cif.got.tgz:53171.got - 2010.06.03 15:57:51.
