data_PCOD9514404
_publ_section_title
;
Structure prediction by ZEFSAII (Michael W. Deem and Ramdas Pophale) SiO2 
 PCOD9514404
Probable space group: F D D D
;
_chemical_formula_sum "Si O2"
_cell_formula_units_Z 160
_cell_length_a 11.730029
_cell_length_b 26.261066
_cell_length_c 27.669027
_cell_angle_alpha 90.000000
_cell_angle_beta 90.000000
_cell_angle_gamma 90.000000
_cell_volume 8523.251903
_symmetry_space_group_name_H-M "F D D D"
_symmetry_group_IT_number 70
_space_group.IT_coordinate_system_code '2'
_symmetry_cell_setting 'orthorhombic'
loop_
_space_group_symop_operation_xyz
x,y,z
1/4-x,1/4-y,z
x,1/4-y,1/4-z
1/4-x,y,1/4-z
-x,-y,-z
3/4+x,3/4+y,-z
-x,3/4+y,3/4+z
3/4+x,-y,3/4+z
x,1/2+y,1/2+z
1/4-x,3/4-y,1/2+z
x,3/4-y,3/4-z
1/4-x,1/2+y,3/4-z
-x,1/2-y,1/2-z
3/4+x,1/4+y,1/2-z
-x,1/4+y,1/4+z
3/4+x,1/2-y,1/4+z
1/2+x,y,1/2+z
3/4-x,1/4-y,1/2+z
1/2+x,1/4-y,3/4-z
3/4-x,y,3/4-z
1/2-x,-y,1/2-z
1/4+x,3/4+y,1/2-z
1/2-x,3/4+y,1/4+z
1/4+x,-y,1/4+z
1/2+x,1/2+y,z
3/4-x,3/4-y,z
1/2+x,3/4-y,1/4-z
3/4-x,1/2+y,1/4-z
1/2-x,1/2-y,-z
1/4+x,1/4+y,-z
1/2-x,1/4+y,3/4+z
1/4+x,1/2-y,3/4+z
loop_
_atom_site_type_symbol
_atom_site_label
_atom_site_fract_x
_atom_site_fract_y
_atom_site_fract_z
Si Si1 0.125000 0.625000 0.209389
Si Si2 0.373511 0.034996 0.145394
Si Si3 0.384734 0.605177 0.742771
Si Si4 0.779002 0.918333 0.936455
Si Si5 0.939226 0.515019 0.449964
Si Si6 0.875000 0.292031 0.875000
O O1 0.237548 0.624844 0.241489
O O2 0.117124 0.672478 0.172557
O O3 0.379704 0.069897 0.193818
O O4 0.315249 0.070095 0.104469
O O5 0.500099 0.016949 0.130790
O O6 0.283929 0.990805 0.158558
O O7 0.290079 0.648078 0.732907
O O8 0.359701 0.570384 0.788913
O O9 0.875000 0.875000 0.926439
O O10 0.845411 0.971314 0.942244
O O11 0.000000 0.500000 0.500000
#
# Coordination Sequence:
#
# PCOD9514404 Si02
#       6
#    16  32  32  32  32  16
#     4   9  16  30  52  70 110 148 172 210 274 318
#     4  10  19  29  51  79 104 136 176 226 278 315
#     4  10  20  33  49  79 115 143 176 226 281 333
#     4  12  20  30  55  79 108 138 181 224 276 327
#     4  10  21  31  46  79 119 137 172 228 281 328
#     4   9  16  28  48  80 102 136 174 220 266 322
#
# _framework density 18.772178
#
# number of rings (size 3 to 8) (size 9 to 14) (size 15 to 20)
#    0.000    1.800    6.000    1.200    2.800    0.000 
#    0.000    1.000    0.000    0.000    0.000   16.800 
#    0.000    0.000    0.000    0.000    0.000    0.000 
#
# Total GULP energy -222830.402534 kJ/mol
# GULP energy per Si atom -5570.760063 kJ/mol
# Density = 1.872945 g / cm^3
# Si number density = 18.772178 Si / 1000 Ang^3
#
#
#
# Elastic Constant Matrix: (Units=GPa)
#
#
# Indices 1 2 3 4 5 6 
#
# 1 179.2664 59.0821 35.0044 0.0000 0.0000 0.0000
# 2 59.0821 51.1856 31.9910 0.0000 0.0000 0.0000
# 3 35.0044 31.9910 32.1473 0.0000 0.0000 0.0000
# 4 0.0000 0.0000 0.0000 10.5879 0.0000 0.0000
# 5 0.0000 0.0000 0.0000 0.0000 16.9230 0.0000
# 6 0.0000 0.0000 0.0000 0.0000 0.0000 13.4679
#
#
#
# Elastic Compliance Matrix: (Units=1/GPa)
#
#
# Indices 1 2 3 4 5 6 
#
# 1 0.009028 -0.011313 0.001428 0.000000 0.000000 0.000000
# 2 -0.011313 0.065856 -0.053217 0.000000 0.000000 0.000000
# 3 0.001428 -0.053217 0.082511 0.000000 0.000000 0.000000
# 4 0.000000 0.000000 0.000000 0.094447 0.000000 0.000000
# 5 0.000000 0.000000 0.000000 0.000000 0.059091 0.000000
# 6 0.000000 0.000000 0.000000 0.000000 0.000000 0.074250
#
#
# Mechanical properties :
#
#
# Convention : Reuss Voigt Hill
#
# Bulk Modulus (GPa) = 32.06211 57.19492 44.62852
# Shear Modulus (GPa) = 9.58249 17.29722 13.43986
#
# Velocity S-wave (km/s) = 2.26179 3.03880 2.67862
# Velocity P-wave (km/s) = 4.89261 6.54572 5.77858
#
# Compressibility (1/GPa) = 0.03118946
#
# Stress axis : x y z
#
# Youngs Moduli (GPa) = 110.76548 15.18465 12.11967
#
# Poissons Ratio (x) = 0.17179 -0.01730
# Poissons Ratio (y) = 1.25312 0.64497
# Poissons Ratio (z) = -0.15815 0.80808
#
# Static dielectric constant tensor:
#      x y z
#    x 1.726690 0.000000 0.000000 
#    y 0.000000 1.673190 0.000000 
#    z 0.000000 0.000000 1.659610 
# 
# From -- ./inp_files/22218.got.cif
#   From: 2010.05.17/outbox.cif.g08.bks.cpg/sg70_12_cif.got.tgz:22218.got - 2010.06.03 15:57:51.
