data_PCOD9514461
_publ_section_title
;
Structure prediction by ZEFSAII (Michael W. Deem and Ramdas Pophale) SiO2 
 PCOD9514461
Probable space group: F D D D
;
_chemical_formula_sum "Si O2"
_cell_formula_units_Z 160
_cell_length_a 17.057872
_cell_length_b 24.467864
_cell_length_c 18.037413
_cell_angle_alpha 90.000000
_cell_angle_beta 90.000000
_cell_angle_gamma 90.000000
_cell_volume 7528.269512
_symmetry_space_group_name_H-M "F D D D"
_symmetry_group_IT_number 70
_space_group.IT_coordinate_system_code '2'
_symmetry_cell_setting 'orthorhombic'
loop_
_space_group_symop_operation_xyz
x,y,z
1/4-x,1/4-y,z
x,1/4-y,1/4-z
1/4-x,y,1/4-z
-x,-y,-z
3/4+x,3/4+y,-z
-x,3/4+y,3/4+z
3/4+x,-y,3/4+z
x,1/2+y,1/2+z
1/4-x,3/4-y,1/2+z
x,3/4-y,3/4-z
1/4-x,1/2+y,3/4-z
-x,1/2-y,1/2-z
3/4+x,1/4+y,1/2-z
-x,1/4+y,1/4+z
3/4+x,1/2-y,1/4+z
1/2+x,y,1/2+z
3/4-x,1/4-y,1/2+z
1/2+x,1/4-y,3/4-z
3/4-x,y,3/4-z
1/2-x,-y,1/2-z
1/4+x,3/4+y,1/2-z
1/2-x,3/4+y,1/4+z
1/4+x,-y,1/4+z
1/2+x,1/2+y,z
3/4-x,3/4-y,z
1/2+x,3/4-y,1/4-z
3/4-x,1/2+y,1/4-z
1/2-x,1/2-y,-z
1/4+x,1/4+y,-z
1/2-x,1/4+y,3/4+z
1/4+x,1/2-y,3/4+z
loop_
_atom_site_type_symbol
_atom_site_label
_atom_site_fract_x
_atom_site_fract_y
_atom_site_fract_z
Si Si1 0.118380 0.986370 0.273366
Si Si2 0.513548 0.191659 0.563462
Si Si3 0.834833 0.819034 0.456367
Si Si4 0.982474 0.328939 0.263557
Si Si5 0.084435 0.963551 0.436792
O O1 0.054004 0.003301 0.213584
O O2 0.179926 0.036730 0.281434
O O3 0.176137 0.936587 0.252435
O O4 0.075543 0.979851 0.351077
O O5 0.538200 0.142386 0.509056
O O6 0.534420 0.183275 0.649264
O O7 0.420150 0.187965 0.559975
O O8 0.875000 0.809158 0.375000
O O9 0.875000 0.875000 0.484170
O O10 0.841149 0.765990 0.509047
O O11 0.740221 0.824566 0.452385
#
# Coordination Sequence:
#
# PCOD9514461 Si02
#       5
#    32  32  32  32  32
#     4  10  19  34  55  80 114 146 181 231 276 323
#     4  10  19  34  56  79 113 149 181 228 279 335
#     4  10  22  40  60  79 106 145 185 227 280 337
#     4   9  20  33  52  83 111 148 192 218 271 347
#     4  10  22  37  57  85 108 138 188 234 277 330
#
# _framework density 21.253223999999999
#
# number of rings (size 3 to 8) (size 9 to 14) (size 15 to 20)
#    0.000    2.200    0.000    2.400    0.000   11.200 
#    0.000    0.000    0.000   16.800    0.000    0.000 
#    0.000    0.000    0.000    0.000    0.000    0.000 
#
# Total GULP energy -223039.373526 kJ/mol
# GULP energy per Si atom -5575.984338 kJ/mol
# Density = 2.120485 g / cm^3
# Si number density = 21.253224 Si / 1000 Ang^3
#
#
#
# Elastic Constant Matrix: (Units=GPa)
#
#
# Indices 1 2 3 4 5 6 
#
# 1 107.5858 15.5664 9.2003 0.0000 0.0000 0.0000
# 2 15.5664 61.7387 6.6783 0.0000 0.0000 0.0000
# 3 9.2003 6.6783 12.3102 0.0000 0.0000 0.0000
# 4 0.0000 0.0000 0.0000 18.7710 0.0000 0.0000
# 5 0.0000 0.0000 0.0000 0.0000 28.4954 0.0000
# 6 0.0000 0.0000 0.0000 0.0000 0.0000 27.8168
#
#
#
# Elastic Compliance Matrix: (Units=1/GPa)
#
#
# Indices 1 2 3 4 5 6 
#
# 1 0.010123 -0.001842 -0.006566 0.000000 0.000000 0.000000
# 2 -0.001842 0.017542 -0.008140 0.000000 0.000000 0.000000
# 3 -0.006566 -0.008140 0.090557 0.000000 0.000000 0.000000
# 4 0.000000 0.000000 0.000000 0.053274 0.000000 0.000000
# 5 0.000000 0.000000 0.000000 0.000000 0.035093 0.000000
# 6 0.000000 0.000000 0.000000 0.000000 0.000000 0.035949
#
#
# Mechanical properties :
#
#
# Convention : Reuss Voigt Hill
#
# Bulk Modulus (GPa) = 11.74735 27.16940 19.45838
# Shear Modulus (GPa) = 16.44678 25.02928 20.73803
#
# Velocity S-wave (km/s) = 2.78483 3.43544 3.12710
# Velocity P-wave (km/s) = 3.98493 5.34301 4.71315
#
# Compressibility (1/GPa) = 0.08512557
#
# Stress axis : x y z
#
# Youngs Moduli (GPa) = 98.78536 57.00521 11.04275
#
# Poissons Ratio (x) = 0.10501 0.07251
# Poissons Ratio (y) = 0.18197 0.08989
# Poissons Ratio (z) = 0.64866 0.46403
#
# Static dielectric constant tensor:
#      x y z
#    x 1.849710 0.000000 0.000000 
#    y 0.000000 1.818620 0.000000 
#    z 0.000000 0.000000 1.772080 
# 
# From -- ./inp_files/35104.got.cif
#   From: 2010.05.17/outbox.cif.g08.bks.cpg/sg70_18_cif.got.tgz:35104.got - 2010.06.03 15:57:51.
