data_PCOD9514622
_publ_section_title
;
Structure prediction by ZEFSAII (Michael W. Deem and Ramdas Pophale) SiO2 
 PCOD9514622
Probable space group: F D D D
;
_chemical_formula_sum "Si O2"
_cell_formula_units_Z 200
_cell_length_a 14.447708
_cell_length_b 27.492420
_cell_length_c 26.965192
_cell_angle_alpha 90.000000
_cell_angle_beta 90.000000
_cell_angle_gamma 90.000000
_cell_volume 10710.640499
_symmetry_space_group_name_H-M "F D D D"
_symmetry_group_IT_number 70
_space_group.IT_coordinate_system_code '2'
_symmetry_cell_setting 'orthorhombic'
loop_
_space_group_symop_operation_xyz
x,y,z
1/4-x,1/4-y,z
x,1/4-y,1/4-z
1/4-x,y,1/4-z
-x,-y,-z
3/4+x,3/4+y,-z
-x,3/4+y,3/4+z
3/4+x,-y,3/4+z
x,1/2+y,1/2+z
1/4-x,3/4-y,1/2+z
x,3/4-y,3/4-z
1/4-x,1/2+y,3/4-z
-x,1/2-y,1/2-z
3/4+x,1/4+y,1/2-z
-x,1/4+y,1/4+z
3/4+x,1/2-y,1/4+z
1/2+x,y,1/2+z
3/4-x,1/4-y,1/2+z
1/2+x,1/4-y,3/4-z
3/4-x,y,3/4-z
1/2-x,-y,1/2-z
1/4+x,3/4+y,1/2-z
1/2-x,3/4+y,1/4+z
1/4+x,-y,1/4+z
1/2+x,1/2+y,z
3/4-x,3/4-y,z
1/2+x,3/4-y,1/4-z
3/4-x,1/2+y,1/4-z
1/2-x,1/2-y,-z
1/4+x,1/4+y,-z
1/2-x,1/4+y,3/4+z
1/4+x,1/2-y,3/4+z
loop_
_atom_site_type_symbol
_atom_site_label
_atom_site_fract_x
_atom_site_fract_y
_atom_site_fract_z
Si Si1 0.552264 0.757061 0.427169
Si Si2 0.125000 0.051108 0.125000
Si Si3 0.591300 0.572581 0.369888
Si Si4 0.053081 0.308291 0.698611
Si Si5 0.004947 0.696242 0.476426
Si Si6 0.249312 0.803437 0.940523
Si Si7 0.375000 0.875000 0.875000
Si Si8 0.625000 0.625000 0.042087
O O1 0.462416 0.772374 0.396269
O O2 0.589638 0.706400 0.406016
O O3 0.521395 0.761085 0.484827
O O4 0.642138 0.793248 0.423919
O O5 0.086874 0.084580 0.080115
O O6 0.625000 0.625000 0.353067
O O7 0.501040 0.581170 0.403353
O O8 0.568595 0.541501 0.320654
O O9 0.159033 0.322228 0.703742
O O10 0.005641 0.318397 0.751690
O O11 0.045780 0.250034 0.689557
O O12 0.051976 0.653773 0.508701
O O13 0.308074 0.840786 0.908164
#
# Coordination Sequence:
#
# PCOD9514622 Si02
#       8
#    32  16  32  32  32  32   8  16
#     4   9  21  40  60  86 119 163 201 249 304 373
#     4   9  18  38  66  83 122 155 200 248 310 339
#     4  11  22  38  59  88 119 156 208 253 300 365
#     4   9  20  39  59  75 119 165 188 236 319 362
#     4  10  19  38  61  82 118 161 200 241 306 363
#     4   9  21  38  56  87 121 153 199 246 305 363
#     4  12  24  32  62  96 118 150 212 264 288 356
#     4   9  18  34  61  90 109 154 198 247 286 366
#
# _framework density 18.673020000000001
#
# number of rings (size 3 to 8) (size 9 to 14) (size 15 to 20)
#    0.000    2.400    0.800    1.440    5.600    3.840 
#    2.880    4.800    0.000    0.000    0.000    0.000 
#    0.000    0.000    0.000    0.000    0.000    0.000 
#
# Total GULP energy -278535.615533 kJ/mol
# GULP energy per Si atom -5570.712311 kJ/mol
# Density = 1.863052 g / cm^3
# Si number density = 18.673020 Si / 1000 Ang^3
#
#
#
# Elastic Constant Matrix: (Units=GPa)
#
#
# Indices 1 2 3 4 5 6 
#
# 1 76.9121 24.7667 49.7477 0.0000 0.0000 0.0000
# 2 24.7667 37.8107 39.1402 0.0000 0.0000 0.0000
# 3 49.7477 39.1402 115.0489 0.0000 0.0000 0.0000
# 4 0.0000 0.0000 0.0000 21.7524 0.0000 0.0000
# 5 0.0000 0.0000 0.0000 0.0000 19.1894 0.0000
# 6 0.0000 0.0000 0.0000 0.0000 0.0000 12.7491
#
#
#
# Elastic Compliance Matrix: (Units=1/GPa)
#
#
# Indices 1 2 3 4 5 6 
#
# 1 0.018907 -0.006053 -0.006116 0.000000 0.000000 0.000000
# 2 -0.006053 0.042763 -0.011931 0.000000 0.000000 0.000000
# 3 -0.006116 -0.011931 0.015395 0.000000 0.000000 0.000000
# 4 0.000000 0.000000 0.000000 0.045972 0.000000 0.000000
# 5 0.000000 0.000000 0.000000 0.000000 0.052112 0.000000
# 6 0.000000 0.000000 0.000000 0.000000 0.000000 0.078437
#
#
# Mechanical properties :
#
#
# Convention : Reuss Voigt Hill
#
# Bulk Modulus (GPa) = 34.64383 50.78675 42.71529
# Shear Modulus (GPa) = 16.05610 18.47931 17.26770
#
# Velocity S-wave (km/s) = 2.93551 3.14925 3.04425
# Velocity P-wave (km/s) = 5.48478 6.36244 5.93984
#
# Compressibility (1/GPa) = 0.02886517
#
# Stress axis : x y z
#
# Youngs Moduli (GPa) = 52.89016 23.38487 64.95411
#
# Poissons Ratio (x) = 0.14155 0.39727
# Poissons Ratio (y) = 0.32016 0.77494
# Poissons Ratio (z) = 0.32349 0.27900
#
# Static dielectric constant tensor:
#      x y z
#    x 1.658200 0.000000 0.000000 
#    y 0.000000 1.641120 0.000000 
#    z 0.000000 0.000000 1.674200 
# 
# From -- ./inp_files/58780.got.cif
#   From: 2010.05.17/outbox.cif.g08.bks.cpg/sg70_30_cif.got.tgz:58780.got - 2010.06.03 15:57:51.
