data_PCOD9514931
_publ_section_title
;
Structure prediction by ZEFSAII (Michael W. Deem and Ramdas Pophale) SiO2 
 PCOD9514931
Probable space group: F D D D
;
_chemical_formula_sum "Si O2"
_cell_formula_units_Z 168
_cell_length_a 27.374712
_cell_length_b 20.364349
_cell_length_c 14.281861
_cell_angle_alpha 90.000000
_cell_angle_beta 90.000000
_cell_angle_gamma 90.000000
_cell_volume 7961.683186
_symmetry_space_group_name_H-M "F D D D"
_symmetry_group_IT_number 70
_space_group.IT_coordinate_system_code '2'
_symmetry_cell_setting 'orthorhombic'
loop_
_space_group_symop_operation_xyz
x,y,z
1/4-x,1/4-y,z
x,1/4-y,1/4-z
1/4-x,y,1/4-z
-x,-y,-z
3/4+x,3/4+y,-z
-x,3/4+y,3/4+z
3/4+x,-y,3/4+z
x,1/2+y,1/2+z
1/4-x,3/4-y,1/2+z
x,3/4-y,3/4-z
1/4-x,1/2+y,3/4-z
-x,1/2-y,1/2-z
3/4+x,1/4+y,1/2-z
-x,1/4+y,1/4+z
3/4+x,1/2-y,1/4+z
1/2+x,y,1/2+z
3/4-x,1/4-y,1/2+z
1/2+x,1/4-y,3/4-z
3/4-x,y,3/4-z
1/2-x,-y,1/2-z
1/4+x,3/4+y,1/2-z
1/2-x,3/4+y,1/4+z
1/4+x,-y,1/4+z
1/2+x,1/2+y,z
3/4-x,3/4-y,z
1/2+x,3/4-y,1/4-z
3/4-x,1/2+y,1/4-z
1/2-x,1/2-y,-z
1/4+x,1/4+y,-z
1/2-x,1/4+y,3/4+z
1/4+x,1/2-y,3/4+z
loop_
_atom_site_type_symbol
_atom_site_label
_atom_site_fract_x
_atom_site_fract_y
_atom_site_fract_z
Si Si1 0.726277 0.426685 0.303931
Si Si2 0.540065 0.347519 0.270455
Si Si3 0.454756 0.721109 0.384635
Si Si4 0.625000 0.625000 0.625000
Si Si5 0.073589 0.091778 0.257720
Si Si6 0.816540 0.456200 0.721758
O O1 0.703405 0.375000 0.375000
O O2 0.743525 0.492153 0.359084
O O3 0.691240 0.447131 0.219310
O O4 0.775786 0.388300 0.264709
O O5 0.538188 0.375000 0.375000
O O6 0.547019 0.407691 0.199812
O O7 0.575113 0.284254 0.269676
O O8 0.488580 0.315958 0.242323
O O9 0.428926 0.779199 0.439688
O O10 0.595695 0.579467 0.553493
O O11 0.125000 0.125000 0.238902
O O12 0.074807 0.068265 0.365591
#
# Coordination Sequence:
#
# PCOD9514931 Si02
#       6
#    32  32  32   8  32  32
#     4   9  20  36  60  93 126 166 212 270 316 383
#     4  11  21  38  65  98 119 164 212 271 308 384
#     4  10  20  37  61  93 127 159 216 266 317 378
#     4  12  24  44  56  88 130 180 206 268 324 388
#     4  11  21  37  61  94 127 168 217 265 324 383
#     4  11  23  36  62  92 128 165 216 260 322 377
#
# _framework density 21.101064999999998
#
# number of rings (size 3 to 8) (size 9 to 14) (size 15 to 20)
#    0.000    1.524    5.714    0.000    0.000    3.429 
#    0.000    1.905    0.000    0.000    4.952    0.000 
#    0.000    0.000    0.000    0.000    0.000    0.000 
#
# Total GULP energy -234262.207368 kJ/mol
# GULP energy per Si atom -5577.671604 kJ/mol
# Density = 2.105304 g / cm^3
# Si number density = 21.101065 Si / 1000 Ang^3
#
#
#
# Elastic Constant Matrix: (Units=GPa)
#
#
# Indices 1 2 3 4 5 6 
#
# 1 34.4902 28.9786 29.3708 0.0000 0.0000 0.0000
# 2 28.9786 171.7040 80.0060 0.0000 0.0000 0.0000
# 3 29.3708 80.0060 189.1606 0.0000 0.0000 0.0000
# 4 0.0000 0.0000 0.0000 63.0894 0.0000 0.0000
# 5 0.0000 0.0000 0.0000 0.0000 38.2458 0.0000
# 6 0.0000 0.0000 0.0000 0.0000 0.0000 8.1974
#
#
#
# Elastic Compliance Matrix: (Units=1/GPa)
#
#
# Indices 1 2 3 4 5 6 
#
# 1 0.035789 -0.004298 -0.003739 0.000000 0.000000 0.000000
# 2 -0.004298 0.007770 -0.002619 0.000000 0.000000 0.000000
# 3 -0.003739 -0.002619 0.006975 0.000000 0.000000 0.000000
# 4 0.000000 0.000000 0.000000 0.015851 0.000000 0.000000
# 5 0.000000 0.000000 0.000000 0.000000 0.026147 0.000000
# 6 0.000000 0.000000 0.000000 0.000000 0.000000 0.121990
#
#
# Mechanical properties :
#
#
# Convention : Reuss Voigt Hill
#
# Bulk Modulus (GPa) = 34.22125 74.67396 54.44761
# Shear Modulus (GPa) = 20.36052 39.03980 29.70016
#
# Velocity S-wave (km/s) = 3.10966 4.30598 3.75576
# Velocity P-wave (km/s) = 5.39873 7.75806 6.68333
#
# Compressibility (1/GPa) = 0.02922161
#
# Stress axis : x y z
#
# Youngs Moduli (GPa) = 27.94155 128.70689 143.37476
#
# Poissons Ratio (x) = 0.55317 0.53610
# Poissons Ratio (y) = 0.12009 0.37548
# Poissons Ratio (z) = 0.10448 0.33706
#
# Static dielectric constant tensor:
#      x y z
#    x 1.788580 0.000000 0.000000 
#    y 0.000000 1.796850 0.000000 
#    z 0.000000 0.000000 1.759150 
# 
# From -- ./inp_files/29868.got.cif
#   From: 2010.05.17/outbox.cif.g08.bks.cpg/sg70_15_cif.got.tgz:29868.got - 2010.06.03 15:57:51.
