data_PCOD9514955
_publ_section_title
;
Structure prediction by ZEFSAII (Michael W. Deem and Ramdas Pophale) SiO2 
 PCOD9514955
Probable space group: F D D D
;
_chemical_formula_sum "Si O2"
_cell_formula_units_Z 176
_cell_length_a 25.660508
_cell_length_b 13.641104
_cell_length_c 25.113095
_cell_angle_alpha 90.000000
_cell_angle_beta 90.000000
_cell_angle_gamma 90.000000
_cell_volume 8790.528967
_symmetry_space_group_name_H-M "F D D D"
_symmetry_group_IT_number 70
_space_group.IT_coordinate_system_code '2'
_symmetry_cell_setting 'orthorhombic'
loop_
_space_group_symop_operation_xyz
x,y,z
1/4-x,1/4-y,z
x,1/4-y,1/4-z
1/4-x,y,1/4-z
-x,-y,-z
3/4+x,3/4+y,-z
-x,3/4+y,3/4+z
3/4+x,-y,3/4+z
x,1/2+y,1/2+z
1/4-x,3/4-y,1/2+z
x,3/4-y,3/4-z
1/4-x,1/2+y,3/4-z
-x,1/2-y,1/2-z
3/4+x,1/4+y,1/2-z
-x,1/4+y,1/4+z
3/4+x,1/2-y,1/4+z
1/2+x,y,1/2+z
3/4-x,1/4-y,1/2+z
1/2+x,1/4-y,3/4-z
3/4-x,y,3/4-z
1/2-x,-y,1/2-z
1/4+x,3/4+y,1/2-z
1/2-x,3/4+y,1/4+z
1/4+x,-y,1/4+z
1/2+x,1/2+y,z
3/4-x,3/4-y,z
1/2+x,3/4-y,1/4-z
3/4-x,1/2+y,1/4-z
1/2-x,1/2-y,-z
1/4+x,1/4+y,-z
1/2-x,1/4+y,3/4+z
1/4+x,1/2-y,3/4+z
loop_
_atom_site_type_symbol
_atom_site_label
_atom_site_fract_x
_atom_site_fract_y
_atom_site_fract_z
Si Si1 0.604655 0.875000 0.875000
Si Si2 0.579407 0.045971 0.334064
Si Si3 0.782227 0.683344 0.252490
Si Si4 0.663998 0.531453 0.967195
Si Si5 0.852802 0.065697 0.815467
Si Si6 0.255914 0.535495 0.665881
O O1 0.639664 0.805686 0.838683
O O2 0.582105 0.795482 0.917406
O O3 0.625000 0.125000 0.331702
O O4 0.543976 0.029983 0.282310
O O5 0.540764 0.044920 0.384907
O O6 0.723163 0.686174 0.272233
O O7 0.827597 0.667582 0.295249
O O8 0.783676 0.584428 0.216178
O O9 0.625000 0.625000 0.957793
O O10 0.641840 0.478067 0.020884
O O11 0.875000 0.071985 0.875000
O O12 0.801457 0.998478 0.820224
O O13 0.250365 0.625000 0.625000
#
# Coordination Sequence:
#
# PCOD9514955 Si02
#       6
#    16  32  32  32  32  32
#     4  12  24  42  62 102 134 170 232 282 322 414
#     4  11  22  41  68  96 132 180 227 283 335 400
#     4  11  23  43  63  96 136 179 225 275 341 413
#     4  12  26  43  73 101 140 184 223 286 352 405
#     4  12  24  39  63 105 144 171 218 287 354 411
#     4  10  20  37  65  99 135 168 220 281 345 417
#
# _framework density 20.021547999999999
#
# number of rings (size 3 to 8) (size 9 to 14) (size 15 to 20)
#    0.000    0.727    6.364    3.273    5.091    0.000 
#    0.000    2.727    0.000    0.000    0.000    0.000 
#    0.000    0.000    0.000    0.000    0.000    0.000 
#
# Total GULP energy -245374.797037 kJ/mol
# GULP energy per Si atom -5576.699933 kJ/mol
# Density = 1.997598 g / cm^3
# Si number density = 20.021548 Si / 1000 Ang^3
#
#
#
# Elastic Constant Matrix: (Units=GPa)
#
#
# Indices 1 2 3 4 5 6 
#
# 1 80.1066 44.3441 61.3075 0.0000 0.0000 0.0000
# 2 44.3441 76.2409 44.8276 0.0000 0.0000 0.0000
# 3 61.3075 44.8276 147.8919 0.0000 0.0000 0.0000
# 4 0.0000 0.0000 0.0000 26.5583 0.0000 0.0000
# 5 0.0000 0.0000 0.0000 0.0000 21.7432 0.0000
# 6 0.0000 0.0000 0.0000 0.0000 0.0000 38.1741
#
#
#
# Elastic Compliance Matrix: (Units=1/GPa)
#
#
# Indices 1 2 3 4 5 6 
#
# 1 0.022676 -0.009324 -0.006574 0.000000 0.000000 0.000000
# 2 -0.009324 0.019795 -0.002135 0.000000 0.000000 0.000000
# 3 -0.006574 -0.002135 0.010134 0.000000 0.000000 0.000000
# 4 0.000000 0.000000 0.000000 0.037653 0.000000 0.000000
# 5 0.000000 0.000000 0.000000 0.000000 0.045991 0.000000
# 6 0.000000 0.000000 0.000000 0.000000 0.000000 0.026196
#
#
# Mechanical properties :
#
#
# Convention : Reuss Voigt Hill
#
# Bulk Modulus (GPa) = 60.46209 67.24422 63.85315
# Shear Modulus (GPa) = 24.50707 27.54579 26.02643
#
# Velocity S-wave (km/s) = 3.50242 3.71321 3.60935
# Velocity P-wave (km/s) = 6.82788 7.21407 7.02363
#
# Compressibility (1/GPa) = 0.01653929
#
# Stress axis : x y z
#
# Youngs Moduli (GPa) = 44.09981 50.51906 98.67757
#
# Poissons Ratio (x) = 0.47102 0.64871
# Poissons Ratio (y) = 0.41117 0.21066
# Poissons Ratio (z) = 0.28991 0.10785
#
# Static dielectric constant tensor:
#      x y z
#    x 1.715250 0.000000 0.000000 
#    y 0.000000 1.815130 0.000000 
#    z 0.000000 0.000000 1.847570 
# 
# From -- ./inp_files/51362.got.cif
#   From: 2010.05.17/outbox.cif.g08.bks.cpg/sg70_26_cif.got.tgz:51362.got - 2010.06.03 15:57:51.
