data_PCOD9514587
_publ_section_title
;
Structure prediction by ZEFSAII (Michael W. Deem and Ramdas Pophale) SiO2 
 PCOD9514587
Probable space group: F D D D
;
_chemical_formula_sum "Si O2"
_cell_formula_units_Z 232
_cell_length_a 22.588341
_cell_length_b 17.496703
_cell_length_c 31.392414
_cell_angle_alpha 90.000000
_cell_angle_beta 90.000000
_cell_angle_gamma 90.000000
_cell_volume 12406.956753
_symmetry_space_group_name_H-M "F D D D"
_symmetry_group_IT_number 70
_space_group.IT_coordinate_system_code '2'
_symmetry_cell_setting 'orthorhombic'
loop_
_space_group_symop_operation_xyz
x,y,z
1/4-x,1/4-y,z
x,1/4-y,1/4-z
1/4-x,y,1/4-z
-x,-y,-z
3/4+x,3/4+y,-z
-x,3/4+y,3/4+z
3/4+x,-y,3/4+z
x,1/2+y,1/2+z
1/4-x,3/4-y,1/2+z
x,3/4-y,3/4-z
1/4-x,1/2+y,3/4-z
-x,1/2-y,1/2-z
3/4+x,1/4+y,1/2-z
-x,1/4+y,1/4+z
3/4+x,1/2-y,1/4+z
1/2+x,y,1/2+z
3/4-x,1/4-y,1/2+z
1/2+x,1/4-y,3/4-z
3/4-x,y,3/4-z
1/2-x,-y,1/2-z
1/4+x,3/4+y,1/2-z
1/2-x,3/4+y,1/4+z
1/4+x,-y,1/4+z
1/2+x,1/2+y,z
3/4-x,3/4-y,z
1/2+x,3/4-y,1/4-z
3/4-x,1/2+y,1/4-z
1/2-x,1/2-y,-z
1/4+x,1/4+y,-z
1/2-x,1/4+y,3/4+z
1/4+x,1/2-y,3/4+z
loop_
_atom_site_type_symbol
_atom_site_label
_atom_site_fract_x
_atom_site_fract_y
_atom_site_fract_z
Si Si1 0.429567 0.469296 0.173363
Si Si2 0.406879 0.797974 0.531323
Si Si3 0.461065 0.535373 0.256244
Si Si4 0.812059 0.074548 0.397132
Si Si5 0.813120 0.801959 0.618689
Si Si6 0.454814 0.203127 0.720658
Si Si7 0.125000 0.625000 0.625000
Si Si8 0.275591 0.495947 0.860173
O O1 0.431831 0.475168 0.224225
O O2 0.435795 0.383491 0.155232
O O3 0.365530 0.495969 0.154485
O O4 0.489016 0.509436 0.154463
O O5 0.375000 0.875000 0.515023
O O6 0.468711 0.776095 0.510986
O O7 0.418239 0.809726 0.581789
O O8 0.360758 0.732282 0.523017
O O9 0.436896 0.545162 0.304136
O O10 0.455269 0.615655 0.232265
O O11 0.875000 0.063313 0.375000
O O12 0.756889 0.033413 0.372743
O O13 0.797370 0.166497 0.396945
O O14 0.500000 0.250000 0.750000
O O15 0.475718 0.224841 0.673825
O O16 0.078935 0.564370 0.604060
#
# Coordination Sequence:
#
# PCOD9514587 Si02
#       8
#    32  32  32  32  32  32   8  32
#     4  10  19  37  58  84 110 150 215 249 283 345
#     4  11  18  37  58  78 114 167 209 218 282 362
#     4  11  24  34  55  92 119 148 196 261 292 339
#     4  10  20  38  59  82 116 154 199 241 302 368
#     4   9  18  37  67  78 104 165 205 245 292 361
#     4  12  21  33  54  83 121 161 202 233 271 357
#     4  12  24  32  52  84 132 168 186 230 292 344
#     4  11  21  36  51  78 121 168 199 226 284 352
#
# _framework density 18.699186999999998
#
# number of rings (size 3 to 8) (size 9 to 14) (size 15 to 20)
#    0.000    1.379    6.207    1.655    0.000    4.414 
#    1.241    0.690    0.000    0.000    0.000    3.862 
#    0.000    0.000    0.000    0.000    0.000    0.000 
#
# Total GULP energy -323126.075917 kJ/mol
# GULP energy per Si atom -5571.139240 kJ/mol
# Density = 1.865663 g / cm^3
# Si number density = 18.699187 Si / 1000 Ang^3
#
#
#
# Elastic Constant Matrix: (Units=GPa)
#
#
# Indices 1 2 3 4 5 6 
#
# 1 137.6488 18.7813 44.4846 0.0000 0.0000 0.0000
# 2 18.7813 28.5889 17.0622 0.0000 0.0000 0.0000
# 3 44.4846 17.0622 94.2018 0.0000 0.0000 0.0000
# 4 0.0000 0.0000 0.0000 -12.7062 0.0000 0.0000
# 5 0.0000 0.0000 0.0000 0.0000 47.1827 0.0000
# 6 0.0000 0.0000 0.0000 0.0000 0.0000 25.8275
#
#
#
# Elastic Compliance Matrix: (Units=1/GPa)
#
#
# Indices 1 2 3 4 5 6 
#
# 1 0.008918 -0.003751 -0.003532 0.000000 0.000000 0.000000
# 2 -0.003751 0.040795 -0.005618 0.000000 0.000000 0.000000
# 3 -0.003532 -0.005618 0.013301 0.000000 0.000000 0.000000
# 4 0.000000 0.000000 0.000000 -0.078702 0.000000 0.000000
# 5 0.000000 0.000000 0.000000 0.000000 0.021194 0.000000
# 6 0.000000 0.000000 0.000000 0.000000 0.000000 0.038718
#
#
# Mechanical properties :
#
#
# Convention : Reuss Voigt Hill
#
# Bulk Modulus (GPa) = 26.87210 46.78840 36.83025
# Shear Modulus (GPa) = 60.65655 24.06820 42.36238
#
# Velocity S-wave (km/s) = 5.70162 3.59155 4.76486
# Velocity P-wave (km/s) = 7.59912 6.50191 7.07183
#
# Compressibility (1/GPa) = 0.03721331
#
# Stress axis : x y z
#
# Youngs Moduli (GPa) = 112.13172 24.51252 75.18262
#
# Poissons Ratio (x) = 0.09194 0.26555
# Poissons Ratio (y) = 0.42058 0.42237
# Poissons Ratio (z) = 0.39605 0.13771
#
# Static dielectric constant tensor:
#      x y z
#    x 1.668590 0.000000 0.000000 
#    y 0.000000 1.595980 0.000000 
#    z 0.000000 0.000000 1.698470 
# 
# From -- ./inp_files/66874.got.cif
#   From: 2010.05.17/outbox.cif.g08.bks.cpg/sg70_34_cif.got.tgz:66874.got - 2010.06.03 15:57:51.
