data_PCOD9514720
_publ_section_title
;
Structure prediction by ZEFSAII (Michael W. Deem and Ramdas Pophale) SiO2 
 PCOD9514720
Probable space group: F D D D
;
_chemical_formula_sum "Si O2"
_cell_formula_units_Z 192
_cell_length_a 29.187941
_cell_length_b 20.367385
_cell_length_c 19.803190
_cell_angle_alpha 90.000000
_cell_angle_beta 90.000000
_cell_angle_gamma 90.000000
_cell_volume 11772.640625
_symmetry_space_group_name_H-M "F D D D"
_symmetry_group_IT_number 70
_space_group.IT_coordinate_system_code '2'
_symmetry_cell_setting 'orthorhombic'
loop_
_space_group_symop_operation_xyz
x,y,z
1/4-x,1/4-y,z
x,1/4-y,1/4-z
1/4-x,y,1/4-z
-x,-y,-z
3/4+x,3/4+y,-z
-x,3/4+y,3/4+z
3/4+x,-y,3/4+z
x,1/2+y,1/2+z
1/4-x,3/4-y,1/2+z
x,3/4-y,3/4-z
1/4-x,1/2+y,3/4-z
-x,1/2-y,1/2-z
3/4+x,1/4+y,1/2-z
-x,1/4+y,1/4+z
3/4+x,1/2-y,1/4+z
1/2+x,y,1/2+z
3/4-x,1/4-y,1/2+z
1/2+x,1/4-y,3/4-z
3/4-x,y,3/4-z
1/2-x,-y,1/2-z
1/4+x,3/4+y,1/2-z
1/2-x,3/4+y,1/4+z
1/4+x,-y,1/4+z
1/2+x,1/2+y,z
3/4-x,3/4-y,z
1/2+x,3/4-y,1/4-z
3/4-x,1/2+y,1/4-z
1/2-x,1/2-y,-z
1/4+x,1/4+y,-z
1/2-x,1/4+y,3/4+z
1/4+x,1/2-y,3/4+z
loop_
_atom_site_type_symbol
_atom_site_label
_atom_site_fract_x
_atom_site_fract_y
_atom_site_fract_z
Si Si1 0.084720 0.811151 0.923400
Si Si2 0.112202 0.727232 0.547164
Si Si3 0.520502 0.189926 0.579970
Si Si4 0.390908 0.122914 0.448398
Si Si5 0.911008 0.930946 0.083251
Si Si6 0.512516 0.949773 0.561268
O O1 0.088847 0.875000 0.875000
O O2 0.094620 0.745856 0.880219
O O3 0.031259 0.807288 0.945106
O O4 0.113580 0.826144 0.990463
O O5 0.125000 0.710752 0.625000
O O6 0.063181 0.695515 0.530451
O O7 0.112252 0.805879 0.540532
O O8 0.148066 0.700780 0.493342
O O9 0.524662 0.125000 0.625000
O O10 0.526316 0.252537 0.628055
O O11 0.375000 0.147815 0.375000
O O12 0.443664 0.096151 0.450557
O O13 0.875000 0.875000 0.104158
O O14 0.965110 0.914538 0.081602
O O15 0.500000 0.000000 0.500000
#
# Coordination Sequence:
#
# PCOD9514720 Si02
#       6
#    32  32  32  32  32  32
#     4  10  20  38  53  74 109 149 181 216 269 323
#     4  11  20  30  45  81 116 143 176 209 258 321
#     4  10  20  29  47  75 112 147 169 207 263 328
#     4  11  20  35  54  76 106 146 189 218 256 322
#     4  11  24  33  52  79 113 146 178 222 269 321
#     4  11  18  33  47  76 111 138 173 214 262 331
#
# _framework density 16.309000000000001
#
# number of rings (size 3 to 8) (size 9 to 14) (size 15 to 20)
#    0.000    1.333    6.667    2.000    7.000    0.000 
#    0.000    0.000    0.000    1.500    0.000    0.000 
#    0.000    0.000    0.000    0.000    0.000    0.000 
#
# Total GULP energy -267711.187907 kJ/mol
# GULP energy per Si atom -5577.316415 kJ/mol
# Density = 1.627188 g / cm^3
# Si number density = 16.309000 Si / 1000 Ang^3
#
#
#
# Elastic Constant Matrix: (Units=GPa)
#
#
# Indices 1 2 3 4 5 6 
#
# 1 85.2204 37.0451 27.6812 0.0000 0.0000 0.0000
# 2 37.0451 71.1292 30.0243 0.0000 0.0000 0.0000
# 3 27.6812 30.0243 78.9265 0.0000 0.0000 0.0000
# 4 0.0000 0.0000 0.0000 26.9225 0.0000 0.0000
# 5 0.0000 0.0000 0.0000 0.0000 21.7571 0.0000
# 6 0.0000 0.0000 0.0000 0.0000 0.0000 24.8999
#
#
#
# Elastic Compliance Matrix: (Units=1/GPa)
#
#
# Indices 1 2 3 4 5 6 
#
# 1 0.015689 -0.006967 -0.002852 0.000000 0.000000 0.000000
# 2 -0.006967 0.019842 -0.005105 0.000000 0.000000 0.000000
# 3 -0.002852 -0.005105 0.015612 0.000000 0.000000 0.000000
# 4 0.000000 0.000000 0.000000 0.037144 0.000000 0.000000
# 5 0.000000 0.000000 0.000000 0.000000 0.045962 0.000000
# 6 0.000000 0.000000 0.000000 0.000000 0.000000 0.040161
#
#
# Mechanical properties :
#
#
# Convention : Reuss Voigt Hill
#
# Bulk Modulus (GPa) = 46.95789 47.19748 47.07768
# Shear Modulus (GPa) = 23.65664 24.08426 23.87045
#
# Velocity S-wave (km/s) = 3.81271 3.84701 3.82990
# Velocity P-wave (km/s) = 6.94532 6.98105 6.96321
#
# Compressibility (1/GPa) = 0.02129568
#
# Stress axis : x y z
#
# Youngs Moduli (GPa) = 63.73728 50.39740 64.05259
#
# Poissons Ratio (x) = 0.35114 0.18269
# Poissons Ratio (y) = 0.44408 0.32696
# Poissons Ratio (z) = 0.18179 0.25726
#
# Static dielectric constant tensor:
#      x y z
#    x 1.618560 0.000000 0.000000 
#    y 0.000000 1.560920 0.000000 
#    z 0.000000 0.000000 1.583110 
# 
# From -- ./inp_files/44962.got.cif
#   From: 2010.05.17/outbox.cif.g08.bks.cpg/sg70_23_cif.got.tgz:44962.got - 2010.06.03 15:57:51.
