data_PCOD9514080
_publ_section_title
;
Structure prediction by ZEFSAII (Michael W. Deem and Ramdas Pophale) SiO2 
 PCOD9514080
Probable space group: F D D D
;
_chemical_formula_sum "Si O2"
_cell_formula_units_Z 192
_cell_length_a 15.539767
_cell_length_b 23.122307
_cell_length_c 29.665087
_cell_angle_alpha 90.000000
_cell_angle_beta 90.000000
_cell_angle_gamma 90.000000
_cell_volume 10659.118546
_symmetry_space_group_name_H-M "F D D D"
_symmetry_group_IT_number 70
_space_group.IT_coordinate_system_code '2'
_symmetry_cell_setting 'orthorhombic'
loop_
_space_group_symop_operation_xyz
x,y,z
1/4-x,1/4-y,z
x,1/4-y,1/4-z
1/4-x,y,1/4-z
-x,-y,-z
3/4+x,3/4+y,-z
-x,3/4+y,3/4+z
3/4+x,-y,3/4+z
x,1/2+y,1/2+z
1/4-x,3/4-y,1/2+z
x,3/4-y,3/4-z
1/4-x,1/2+y,3/4-z
-x,1/2-y,1/2-z
3/4+x,1/4+y,1/2-z
-x,1/4+y,1/4+z
3/4+x,1/2-y,1/4+z
1/2+x,y,1/2+z
3/4-x,1/4-y,1/2+z
1/2+x,1/4-y,3/4-z
3/4-x,y,3/4-z
1/2-x,-y,1/2-z
1/4+x,3/4+y,1/2-z
1/2-x,3/4+y,1/4+z
1/4+x,-y,1/4+z
1/2+x,1/2+y,z
3/4-x,3/4-y,z
1/2+x,3/4-y,1/4-z
3/4-x,1/2+y,1/4-z
1/2-x,1/2-y,-z
1/4+x,1/4+y,-z
1/2-x,1/4+y,3/4+z
1/4+x,1/2-y,3/4+z
loop_
_atom_site_type_symbol
_atom_site_label
_atom_site_fract_x
_atom_site_fract_y
_atom_site_fract_z
Si Si1 0.539497 0.587204 0.193138
Si Si2 0.230256 0.668683 0.394204
Si Si3 0.125000 0.749986 0.625000
Si Si4 0.685195 0.998846 0.384467
Si Si5 0.695068 0.923423 0.165665
Si Si6 0.150630 0.875000 0.375000
Si Si7 0.775602 0.565326 0.959231
O O1 0.625000 0.625000 0.200208
O O2 0.567432 0.538389 0.157718
O O3 0.463859 0.622327 0.168308
O O4 0.507243 0.562716 0.240264
O O5 0.311106 0.709864 0.402968
O O6 0.146947 0.708442 0.389850
O O7 0.250516 0.633793 0.347533
O O8 0.232500 0.620677 0.433521
O O9 0.741490 0.023115 0.342652
O O10 0.743299 0.011296 0.428933
O O11 0.654463 0.933636 0.377945
O O12 0.625000 0.924836 0.125000
O O13 0.629413 0.926376 0.207051
#
# Coordination Sequence:
#
# PCOD9514080 Si02
#       7
#    32  32  16  32  32  16  32
#     4  12  22  38  54  82 125 157 182 234 300 364
#     4  10  16  34  60  85 110 146 190 236 291 345
#     4  12  19  34  58  80 118 155 180 224 314 360
#     4  10  19  35  57  86 112 154 192 230 289 355
#     4   8  16  34  57  83 108 139 187 248 284 322
#     4  12  23  36  53  80 122 166 188 224 301 373
#     4  10  21  36  59  87 109 145 201 250 275 334
#
# _framework density 18.012746
#
# number of rings (size 3 to 8) (size 9 to 14) (size 15 to 20)
#    0.000    2.000    5.833    3.000    0.000    1.333 
#    0.000    7.917    0.000    0.000    0.000    0.000 
#    0.000    0.000    0.000    0.000    0.000    0.000 
#
# Total GULP energy -267372.046617 kJ/mol
# GULP energy per Si atom -5570.250971 kJ/mol
# Density = 1.797175 g / cm^3
# Si number density = 18.012746 Si / 1000 Ang^3
#
#
#
# Elastic Constant Matrix: (Units=GPa)
#
#
# Indices 1 2 3 4 5 6 
#
# 1 63.5572 45.5632 16.7675 0.0000 0.0000 0.0000
# 2 45.5632 104.5649 23.7634 0.0000 0.0000 0.0000
# 3 16.7675 23.7634 72.1908 0.0000 0.0000 0.0000
# 4 0.0000 0.0000 0.0000 12.4100 0.0000 0.0000
# 5 0.0000 0.0000 0.0000 0.0000 27.3410 0.0000
# 6 0.0000 0.0000 0.0000 0.0000 0.0000 34.5574
#
#
#
# Elastic Compliance Matrix: (Units=1/GPa)
#
#
# Indices 1 2 3 4 5 6 
#
# 1 0.023208 -0.009606 -0.002228 0.000000 0.000000 0.000000
# 2 -0.009606 0.014313 -0.002480 0.000000 0.000000 0.000000
# 3 -0.002228 -0.002480 0.015186 0.000000 0.000000 0.000000
# 4 0.000000 0.000000 0.000000 0.080580 0.000000 0.000000
# 5 0.000000 0.000000 0.000000 0.000000 0.036575 0.000000
# 6 0.000000 0.000000 0.000000 0.000000 0.000000 0.028937
#
#
# Mechanical properties :
#
#
# Convention : Reuss Voigt Hill
#
# Bulk Modulus (GPa) = 41.53235 45.83343 43.68289
# Shear Modulus (GPa) = 21.23534 25.14292 23.18913
#
# Velocity S-wave (km/s) = 3.43725 3.74015 3.59189
# Velocity P-wave (km/s) = 6.23379 6.64469 6.44251
#
# Compressibility (1/GPa) = 0.02407762
#
# Stress axis : x y z
#
# Youngs Moduli (GPa) = 43.08773 69.86642 65.84936
#
# Poissons Ratio (x) = 0.67117 0.14673
# Poissons Ratio (y) = 0.41392 0.16332
# Poissons Ratio (z) = 0.09601 0.17328
#
# Static dielectric constant tensor:
#      x y z
#    x 1.681050 0.000000 0.000000 
#    y 0.000000 1.641030 0.000000 
#    z 0.000000 0.000000 1.635310 
# 
# From -- ./inp_files/65940.got.cif
#   From: 2010.05.17/outbox.cif.g08.bks.cpg/sg70_33_cif.got.tgz:65940.got - 2010.06.03 15:57:51.
