data_PCOD9514270
_publ_section_title
;
Structure prediction by ZEFSAII (Michael W. Deem and Ramdas Pophale) SiO2 
 PCOD9514270
Probable space group: F D D D
;
_chemical_formula_sum "Si O2"
_cell_formula_units_Z 144
_cell_length_a 10.246679
_cell_length_b 22.355165
_cell_length_c 23.620299
_cell_angle_alpha 90.000000
_cell_angle_beta 90.000000
_cell_angle_gamma 90.000000
_cell_volume 5410.612129
_symmetry_space_group_name_H-M "F D D D"
_symmetry_group_IT_number 70
_space_group.IT_coordinate_system_code '2'
_symmetry_cell_setting 'orthorhombic'
loop_
_space_group_symop_operation_xyz
x,y,z
1/4-x,1/4-y,z
x,1/4-y,1/4-z
1/4-x,y,1/4-z
-x,-y,-z
3/4+x,3/4+y,-z
-x,3/4+y,3/4+z
3/4+x,-y,3/4+z
x,1/2+y,1/2+z
1/4-x,3/4-y,1/2+z
x,3/4-y,3/4-z
1/4-x,1/2+y,3/4-z
-x,1/2-y,1/2-z
3/4+x,1/4+y,1/2-z
-x,1/4+y,1/4+z
3/4+x,1/2-y,1/4+z
1/2+x,y,1/2+z
3/4-x,1/4-y,1/2+z
1/2+x,1/4-y,3/4-z
3/4-x,y,3/4-z
1/2-x,-y,1/2-z
1/4+x,3/4+y,1/2-z
1/2-x,3/4+y,1/4+z
1/4+x,-y,1/4+z
1/2+x,1/2+y,z
3/4-x,3/4-y,z
1/2+x,3/4-y,1/4-z
3/4-x,1/2+y,1/4-z
1/2-x,1/2-y,-z
1/4+x,1/4+y,-z
1/2-x,1/4+y,3/4+z
1/4+x,1/2-y,3/4+z
loop_
_atom_site_type_symbol
_atom_site_label
_atom_site_fract_x
_atom_site_fract_y
_atom_site_fract_z
Si Si1 0.408967 0.507374 0.052915
Si Si2 0.046765 0.332536 0.542262
Si Si3 0.403739 0.206346 0.583000
Si Si4 0.239858 0.578352 0.971418
Si Si5 0.875000 0.769270 0.375000
O O1 0.347024 0.440555 0.061732
O O2 0.473210 0.541265 0.105615
O O3 0.294107 0.549569 0.028839
O O4 0.500000 0.500000 0.000000
O O5 0.054411 0.329178 0.473208
O O6 0.133574 0.390210 0.556721
O O7 0.122442 0.278626 0.572952
O O8 0.428839 0.274436 0.563579
O O9 0.254691 0.195836 0.604237
O O10 0.125000 0.625000 0.981516
#
# Coordination Sequence:
#
# PCOD9514270 Si02
#       5
#    32  32  32  32  16
#     4  10  25  45  64  96 144 182 221 288 352 410
#     4  10  22  38  66  95 134 178 228 282 345 408
#     4  10  22  40  64  96 139 176 219 289 349 403
#     4  11  23  41  67 101 130 173 236 281 341 410
#     4  10  18  34  60  91 134 172 218 283 342 402
#
# _framework density 26.614362
#
# number of rings (size 3 to 8) (size 9 to 14) (size 15 to 20)
#    0.000    1.778    2.222    0.667    6.222    7.111 
#    0.000    1.111    0.000    5.333    0.000    0.000 
#    0.000    0.000    0.000    0.000    0.000    0.000 
#
# Total GULP energy -200546.867927 kJ/mol
# GULP energy per Si atom -5570.746331 kJ/mol
# Density = 2.655379 g / cm^3
# Si number density = 26.614362 Si / 1000 Ang^3
#
#
#
# Elastic Constant Matrix: (Units=GPa)
#
#
# Indices 1 2 3 4 5 6 
#
# 1 96.3060 9.7551 -5.1801 0.0000 0.0000 0.0000
# 2 9.7551 82.8380 -17.3582 0.0000 0.0000 0.0000
# 3 -5.1801 -17.3582 167.8385 0.0000 0.0000 0.0000
# 4 0.0000 0.0000 0.0000 7.6099 0.0000 0.0000
# 5 0.0000 0.0000 0.0000 0.0000 43.6762 0.0000
# 6 0.0000 0.0000 0.0000 0.0000 0.0000 5.6610
#
#
#
# Elastic Compliance Matrix: (Units=1/GPa)
#
#
# Indices 1 2 3 4 5 6 
#
# 1 0.010516 -0.001196 0.000201 0.000000 0.000000 0.000000
# 2 -0.001196 0.012475 0.001253 0.000000 0.000000 0.000000
# 3 0.000201 0.001253 0.006094 0.000000 0.000000 0.000000
# 4 0.000000 0.000000 0.000000 0.131408 0.000000 0.000000
# 5 0.000000 0.000000 0.000000 0.000000 0.022896 0.000000
# 6 0.000000 0.000000 0.000000 0.000000 0.000000 0.176648
#
#
# Mechanical properties :
#
#
# Convention : Reuss Voigt Hill
#
# Bulk Modulus (GPa) = 33.78324 35.71290 34.74807
# Shear Modulus (GPa) = 13.53594 35.37379 24.45486
#
# Velocity S-wave (km/s) = 2.25765 3.64967 3.03456
# Velocity P-wave (km/s) = 4.41782 5.58640 5.03612
#
# Compressibility (1/GPa) = 0.02960048
#
# Stress axis : x y z
#
# Youngs Moduli (GPa) = 95.09736 80.15872 164.09782
#
# Poissons Ratio (x) = 0.09589 -0.03296
# Poissons Ratio (y) = 0.11376 -0.20566
# Poissons Ratio (z) = -0.01910 -0.10046
#
# Static dielectric constant tensor:
#      x y z
#    x 2.500600 0.000000 0.000000 
#    y 0.000000 2.165260 0.000000 
#    z 0.000000 0.000000 2.194760 
# 
# From -- ./inp_files/50148.got.cif
#   From: 2010.05.17/outbox.cif.g08.bks.cpg/sg70_26_cif.got.tgz:50148.got - 2010.06.03 15:57:51.
