data_PCOD9514638
_publ_section_title
;
Structure prediction by ZEFSAII (Michael W. Deem and Ramdas Pophale) SiO2 
 PCOD9514638
Probable space group: F D D D
;
_chemical_formula_sum "Si O2"
_cell_formula_units_Z 144
_cell_length_a 24.588898
_cell_length_b 18.686720
_cell_length_c 12.686732
_cell_angle_alpha 90.000000
_cell_angle_beta 90.000000
_cell_angle_gamma 90.000000
_cell_volume 5829.373863
_symmetry_space_group_name_H-M "F D D D"
_symmetry_group_IT_number 70
_space_group.IT_coordinate_system_code '2'
_symmetry_cell_setting 'orthorhombic'
loop_
_space_group_symop_operation_xyz
x,y,z
1/4-x,1/4-y,z
x,1/4-y,1/4-z
1/4-x,y,1/4-z
-x,-y,-z
3/4+x,3/4+y,-z
-x,3/4+y,3/4+z
3/4+x,-y,3/4+z
x,1/2+y,1/2+z
1/4-x,3/4-y,1/2+z
x,3/4-y,3/4-z
1/4-x,1/2+y,3/4-z
-x,1/2-y,1/2-z
3/4+x,1/4+y,1/2-z
-x,1/4+y,1/4+z
3/4+x,1/2-y,1/4+z
1/2+x,y,1/2+z
3/4-x,1/4-y,1/2+z
1/2+x,1/4-y,3/4-z
3/4-x,y,3/4-z
1/2-x,-y,1/2-z
1/4+x,3/4+y,1/2-z
1/2-x,3/4+y,1/4+z
1/4+x,-y,1/4+z
1/2+x,1/2+y,z
3/4-x,3/4-y,z
1/2+x,3/4-y,1/4-z
3/4-x,1/2+y,1/4-z
1/2-x,1/2-y,-z
1/4+x,1/4+y,-z
1/2-x,1/4+y,3/4+z
1/4+x,1/2-y,3/4+z
loop_
_atom_site_type_symbol
_atom_site_label
_atom_site_fract_x
_atom_site_fract_y
_atom_site_fract_z
Si Si1 0.812455 0.539073 0.862355
Si Si2 0.703704 0.656345 0.466565
Si Si3 0.076823 0.489994 0.550699
Si Si4 0.125000 0.625000 0.795505
Si Si5 0.536468 0.255033 0.916280
O O1 0.875000 0.559744 0.875000
O O2 0.768603 0.581411 0.791886
O O3 0.812909 0.459024 0.811006
O O4 0.786451 0.549596 0.977950
O O5 0.666079 0.674836 0.364825
O O6 0.692329 0.571460 0.462051
O O7 0.125000 0.463682 0.625000
O O8 0.088757 0.572945 0.523995
O O9 0.069806 0.461469 0.431279
O O10 0.021323 0.487265 0.615072
#
# Coordination Sequence:
#
# PCOD9514638 Si02
#       5
#    32  32  32  16  32
#     4  11  22  38  59  86 121 158 201 249 298 360
#     4  10  22  38  61  89 116 156 204 246 300 366
#     4  10  20  35  58  84 114 149 190 239 295 355
#     4  10  19  38  65  90 116 152 198 248 304 368
#     4  10  22  38  57  86 118 151 195 245 297 355
#
# _framework density 24.702480999999999
#
# number of rings (size 3 to 8) (size 9 to 14) (size 15 to 20)
#    0.000    1.778    0.000    5.000    0.000    5.333 
#    0.000    3.333    0.000    8.000    0.000    0.000 
#    0.000    0.000    0.000    0.000    0.000    0.000 
#
# Total GULP energy -200806.124187 kJ/mol
# GULP energy per Si atom -5577.947894 kJ/mol
# Density = 2.464626 g / cm^3
# Si number density = 24.702481 Si / 1000 Ang^3
#
#
#
# Elastic Constant Matrix: (Units=GPa)
#
#
# Indices 1 2 3 4 5 6 
#
# 1 133.6306 19.7049 30.8475 0.0000 0.0000 0.0000
# 2 19.7049 62.2778 40.9326 0.0000 0.0000 0.0000
# 3 30.8475 40.9326 139.5270 0.0000 0.0000 0.0000
# 4 0.0000 0.0000 0.0000 15.4872 0.0000 0.0000
# 5 0.0000 0.0000 0.0000 0.0000 17.2874 0.0000
# 6 0.0000 0.0000 0.0000 0.0000 0.0000 17.9569
#
#
#
# Elastic Compliance Matrix: (Units=1/GPa)
#
#
# Indices 1 2 3 4 5 6 
#
# 1 0.008029 -0.001702 -0.001276 0.000000 0.000000 0.000000
# 2 -0.001702 0.020253 -0.005565 0.000000 0.000000 0.000000
# 3 -0.001276 -0.005565 0.009082 0.000000 0.000000 0.000000
# 4 0.000000 0.000000 0.000000 0.064570 0.000000 0.000000
# 5 0.000000 0.000000 0.000000 0.000000 0.057846 0.000000
# 6 0.000000 0.000000 0.000000 0.000000 0.000000 0.055689
#
#
# Mechanical properties :
#
#
# Convention : Reuss Voigt Hill
#
# Bulk Modulus (GPa) = 49.31454 57.60058 53.45756
# Shear Modulus (GPa) = 20.89306 26.40964 23.65135
#
# Velocity S-wave (km/s) = 2.91140 3.27327 3.09762
# Velocity P-wave (km/s) = 5.59539 6.13629 5.87207
#
# Compressibility (1/GPa) = 0.02027800
#
# Stress axis : x y z
#
# Youngs Moduli (GPa) = 124.55213 49.37422 110.10965
#
# Poissons Ratio (x) = 0.08403 0.14048
# Poissons Ratio (y) = 0.21196 0.61281
# Poissons Ratio (z) = 0.15890 0.27479
#
# Static dielectric constant tensor:
#      x y z
#    x 1.964400 0.000000 0.000000 
#    y 0.000000 2.024540 0.000000 
#    z 0.000000 0.000000 1.899930 
# 
# From -- ./inp_files/20635.got.cif
#   From: 2010.05.17/outbox.cif.g08.bks.cpg/sg70_11_cif.got.tgz:20635.got - 2010.06.03 15:57:51.
