data_PCOD9514775
_publ_section_title
;
Structure prediction by ZEFSAII (Michael W. Deem and Ramdas Pophale) SiO2 
 PCOD9514775
Probable space group: F D D D
;
_chemical_formula_sum "Si O2"
_cell_formula_units_Z 184
_cell_length_a 18.800814
_cell_length_b 15.815878
_cell_length_c 31.931981
_cell_angle_alpha 90.000000
_cell_angle_beta 90.000000
_cell_angle_gamma 90.000000
_cell_volume 9495.018633
_symmetry_space_group_name_H-M "F D D D"
_symmetry_group_IT_number 70
_space_group.IT_coordinate_system_code '2'
_symmetry_cell_setting 'orthorhombic'
loop_
_space_group_symop_operation_xyz
x,y,z
1/4-x,1/4-y,z
x,1/4-y,1/4-z
1/4-x,y,1/4-z
-x,-y,-z
3/4+x,3/4+y,-z
-x,3/4+y,3/4+z
3/4+x,-y,3/4+z
x,1/2+y,1/2+z
1/4-x,3/4-y,1/2+z
x,3/4-y,3/4-z
1/4-x,1/2+y,3/4-z
-x,1/2-y,1/2-z
3/4+x,1/4+y,1/2-z
-x,1/4+y,1/4+z
3/4+x,1/2-y,1/4+z
1/2+x,y,1/2+z
3/4-x,1/4-y,1/2+z
1/2+x,1/4-y,3/4-z
3/4-x,y,3/4-z
1/2-x,-y,1/2-z
1/4+x,3/4+y,1/2-z
1/2-x,3/4+y,1/4+z
1/4+x,-y,1/4+z
1/2+x,1/2+y,z
3/4-x,3/4-y,z
1/2+x,3/4-y,1/4-z
3/4-x,1/2+y,1/4-z
1/2-x,1/2-y,-z
1/4+x,1/4+y,-z
1/2-x,1/4+y,3/4+z
1/4+x,1/2-y,3/4+z
loop_
_atom_site_type_symbol
_atom_site_label
_atom_site_fract_x
_atom_site_fract_y
_atom_site_fract_z
Si Si1 0.466180 0.296569 0.000191
Si Si2 0.366652 0.221913 0.637532
Si Si3 0.035157 0.268690 0.581569
Si Si4 0.625000 0.625000 0.625000
Si Si5 0.625000 0.913482 0.625000
Si Si6 0.245915 0.207868 0.155168
Si Si7 0.929211 0.478568 0.524507
O O1 0.521299 0.255871 0.032020
O O2 0.390306 0.249941 0.996885
O O3 0.443498 0.378570 0.027118
O O4 0.491327 0.317130 0.953881
O O5 0.349682 0.125000 0.625000
O O6 0.292205 0.269261 0.645124
O O7 0.426466 0.248056 0.603972
O O8 0.410674 0.230935 0.681049
O O9 0.076415 0.187042 0.597923
O O10 0.081894 0.350933 0.593542
O O11 0.566014 0.975241 0.645192
O O12 0.237784 0.125000 0.125000
O O13 0.000000 0.500000 0.500000
#
# Coordination Sequence:
#
# PCOD9514775 Si02
#       7
#    32  32  32   8  16  32  32
#     4  10  23  36  58  92 123 162 207 253 314 381
#     4  10  20  38  63  89 121 164 214 259 313 380
#     4  10  22  43  65  92 120 170 216 262 318 371
#     4  10  20  44  74  84 122 162 226 268 308 378
#     4  11  25  39  63  92 130 168 209 263 311 383
#     4  11  24  39  61  96 132 168 201 260 321 387
#     4  10  20  34  56  86 125 164 199 251 310 384
#
# _framework density 19.378582000000002
#
# number of rings (size 3 to 8) (size 9 to 14) (size 15 to 20)
#    0.000    1.739    0.870    3.391    9.739    2.087 
#    0.000    1.739    0.000    4.174    0.000    0.000 
#    0.000    0.000    0.000    0.000    0.000    0.000 
#
# Total GULP energy -256153.530639 kJ/mol
# GULP energy per Si atom -5568.555014 kJ/mol
# Density = 1.933448 g / cm^3
# Si number density = 19.378582 Si / 1000 Ang^3
#
#
#
# Elastic Constant Matrix: (Units=GPa)
#
#
# Indices 1 2 3 4 5 6 
#
# 1 134.0965 42.0593 58.7163 0.0000 0.0000 0.0000
# 2 42.0593 81.1530 41.1802 0.0000 0.0000 0.0000
# 3 58.7163 41.1802 137.2039 0.0000 0.0000 0.0000
# 4 0.0000 0.0000 0.0000 19.9047 0.0000 0.0000
# 5 0.0000 0.0000 0.0000 0.0000 33.7218 0.0000
# 6 0.0000 0.0000 0.0000 0.0000 0.0000 21.3460
#
#
#
# Elastic Compliance Matrix: (Units=1/GPa)
#
#
# Indices 1 2 3 4 5 6 
#
# 1 0.009971 -0.003542 -0.003204 0.000000 0.000000 0.000000
# 2 -0.003542 0.015794 -0.003225 0.000000 0.000000 0.000000
# 3 -0.003204 -0.003225 0.009627 0.000000 0.000000 0.000000
# 4 0.000000 0.000000 0.000000 0.050239 0.000000 0.000000
# 5 0.000000 0.000000 0.000000 0.000000 0.029654 0.000000
# 6 0.000000 0.000000 0.000000 0.000000 0.000000 0.046847
#
#
# Mechanical properties :
#
#
# Convention : Reuss Voigt Hill
#
# Bulk Modulus (GPa) = 64.71825 70.70720 67.71272
# Shear Modulus (GPa) = 26.70565 29.02767 27.86666
#
# Velocity S-wave (km/s) = 3.71631 3.87450 3.79623
# Velocity P-wave (km/s) = 7.20305 7.52211 7.36431
#
# Compressibility (1/GPa) = 0.01545159
#
# Stress axis : x y z
#
# Youngs Moduli (GPa) = 100.28881 63.31337 103.86916
#
# Poissons Ratio (x) = 0.22425 0.33281
# Poissons Ratio (y) = 0.35521 0.33495
# Poissons Ratio (z) = 0.32134 0.20417
#
# Static dielectric constant tensor:
#      x y z
#    x 1.834960 0.000000 0.000000 
#    y 0.000000 1.960520 0.000000 
#    z 0.000000 0.000000 1.634920 
# 
# From -- ./inp_files/67276.got.cif
#   From: 2010.05.17/outbox.cif.g08.bks.cpg/sg70_34_cif.got.tgz:67276.got - 2010.06.03 15:57:51.
