data_PCOD9514170
_publ_section_title
;
Structure prediction by ZEFSAII (Michael W. Deem and Ramdas Pophale) SiO2 
 PCOD9514170
Probable space group: F D D D
;
_chemical_formula_sum "Si O2"
_cell_formula_units_Z 192
_cell_length_a 13.680159
_cell_length_b 31.858501
_cell_length_c 24.798748
_cell_angle_alpha 90.000000
_cell_angle_beta 90.000000
_cell_angle_gamma 90.000000
_cell_volume 10808.022449
_symmetry_space_group_name_H-M "F D D D"
_symmetry_group_IT_number 70
_space_group.IT_coordinate_system_code '2'
_symmetry_cell_setting 'orthorhombic'
loop_
_space_group_symop_operation_xyz
x,y,z
1/4-x,1/4-y,z
x,1/4-y,1/4-z
1/4-x,y,1/4-z
-x,-y,-z
3/4+x,3/4+y,-z
-x,3/4+y,3/4+z
3/4+x,-y,3/4+z
x,1/2+y,1/2+z
1/4-x,3/4-y,1/2+z
x,3/4-y,3/4-z
1/4-x,1/2+y,3/4-z
-x,1/2-y,1/2-z
3/4+x,1/4+y,1/2-z
-x,1/4+y,1/4+z
3/4+x,1/2-y,1/4+z
1/2+x,y,1/2+z
3/4-x,1/4-y,1/2+z
1/2+x,1/4-y,3/4-z
3/4-x,y,3/4-z
1/2-x,-y,1/2-z
1/4+x,3/4+y,1/2-z
1/2-x,3/4+y,1/4+z
1/4+x,-y,1/4+z
1/2+x,1/2+y,z
3/4-x,3/4-y,z
1/2+x,3/4-y,1/4-z
3/4-x,1/2+y,1/4-z
1/2-x,1/2-y,-z
1/4+x,1/4+y,-z
1/2-x,1/4+y,3/4+z
1/4+x,1/2-y,3/4+z
loop_
_atom_site_type_symbol
_atom_site_label
_atom_site_fract_x
_atom_site_fract_y
_atom_site_fract_z
Si Si1 0.492709 0.011176 0.589963
Si Si2 0.689509 0.482435 0.043141
Si Si3 0.235593 0.110772 0.871437
Si Si4 0.677089 0.541713 0.954314
Si Si5 0.871625 0.141052 0.457080
Si Si6 0.457377 0.844958 0.287176
O O1 0.503880 0.060505 0.579004
O O2 0.573600 0.992018 0.549322
O O3 0.518486 0.996539 0.649732
O O4 0.389260 0.992175 0.575847
O O5 0.686707 0.432741 0.033925
O O6 0.733337 0.512875 0.997699
O O7 0.125000 0.125000 0.860550
O O8 0.231452 0.070400 0.910630
O O9 0.301923 0.107586 0.817937
O O10 0.291883 0.145401 0.908358
O O11 0.606045 0.571969 0.989684
O O12 0.801411 0.133691 0.508397
O O13 0.375000 0.875000 0.311374
#
# Coordination Sequence:
#
# PCOD9514170 Si02
#       6
#    32  32  32  32  32  32
#     4  10  18  29  45  69 103 139 175 208 258 336
#     4  10  18  28  46  69  99 144 173 200 262 336
#     4  11  19  28  46  73 102 130 172 226 272 313
#     4  11  17  30  45  69 106 134 173 220 268 315
#     4  11  18  30  49  69 100 139 176 217 271 324
#     4  11  18  30  46  68 107 141 170 213 261 323
#
# _framework density 17.764582000000001
#
# number of rings (size 3 to 8) (size 9 to 14) (size 15 to 20)
#    0.000    1.333    6.667    4.000    0.000    0.000 
#    0.000    7.500    0.000    0.000    0.000   18.667 
#   10.000    0.000    0.000    4.500    0.000    0.000 
#
# Total GULP energy -267266.514454 kJ/mol
# GULP energy per Si atom -5568.052384 kJ/mol
# Density = 1.772415 g / cm^3
# Si number density = 17.764582 Si / 1000 Ang^3
#
#
#
# Elastic Constant Matrix: (Units=GPa)
#
#
# Indices 1 2 3 4 5 6 
#
# 1 58.6916 25.5115 26.4220 0.0000 0.0000 0.0000
# 2 25.5115 83.2719 39.8454 0.0000 0.0000 0.0000
# 3 26.4220 39.8454 61.2194 0.0000 0.0000 0.0000
# 4 0.0000 0.0000 0.0000 21.8236 0.0000 0.0000
# 5 0.0000 0.0000 0.0000 0.0000 16.6237 0.0000
# 6 0.0000 0.0000 0.0000 0.0000 0.0000 25.9640
#
#
#
# Elastic Compliance Matrix: (Units=1/GPa)
#
#
# Indices 1 2 3 4 5 6 
#
# 1 0.021700 -0.003147 -0.007318 0.000000 0.000000 0.000000
# 2 -0.003147 0.017897 -0.010290 0.000000 0.000000 0.000000
# 3 -0.007318 -0.010290 0.026190 0.000000 0.000000 0.000000
# 4 0.000000 0.000000 0.000000 0.045822 0.000000 0.000000
# 5 0.000000 0.000000 0.000000 0.000000 0.060155 0.000000
# 6 0.000000 0.000000 0.000000 0.000000 0.000000 0.038515
#
#
# Mechanical properties :
#
#
# Convention : Reuss Voigt Hill
#
# Bulk Modulus (GPa) = 41.18900 42.97120 42.08010
# Shear Modulus (GPa) = 19.23955 20.30919 19.77437
#
# Velocity S-wave (km/s) = 3.29451 3.38485 3.33999
# Velocity P-wave (km/s) = 6.14069 6.28634 6.21394
#
# Compressibility (1/GPa) = 0.02427833
#
# Stress axis : x y z
#
# Youngs Moduli (GPa) = 46.08234 55.87618 38.18186
#
# Poissons Ratio (x) = 0.17583 0.27940
# Poissons Ratio (y) = 0.14501 0.39290
# Poissons Ratio (z) = 0.33722 0.57498
#
# Static dielectric constant tensor:
#      x y z
#    x 1.506330 0.000000 0.000000 
#    y 0.000000 1.715000 0.000000 
#    z 0.000000 0.000000 1.664830 
# 
# From -- ./inp_files/66073.got.cif
#   From: 2010.05.17/outbox.cif.g08.bks.cpg/sg70_34_cif.got.tgz:66073.got - 2010.06.03 15:57:51.
