data_PCOD9514584
_publ_section_title
;
Structure prediction by ZEFSAII (Michael W. Deem and Ramdas Pophale) SiO2 
 PCOD9514584
Probable space group: F D D D
;
_chemical_formula_sum "Si O2"
_cell_formula_units_Z 152
_cell_length_a 13.511969
_cell_length_b 28.662408
_cell_length_c 21.763050
_cell_angle_alpha 90.000000
_cell_angle_beta 90.000000
_cell_angle_gamma 90.000000
_cell_volume 8428.515189
_symmetry_space_group_name_H-M "F D D D"
_symmetry_group_IT_number 70
_space_group.IT_coordinate_system_code '2'
_symmetry_cell_setting 'orthorhombic'
loop_
_space_group_symop_operation_xyz
x,y,z
1/4-x,1/4-y,z
x,1/4-y,1/4-z
1/4-x,y,1/4-z
-x,-y,-z
3/4+x,3/4+y,-z
-x,3/4+y,3/4+z
3/4+x,-y,3/4+z
x,1/2+y,1/2+z
1/4-x,3/4-y,1/2+z
x,3/4-y,3/4-z
1/4-x,1/2+y,3/4-z
-x,1/2-y,1/2-z
3/4+x,1/4+y,1/2-z
-x,1/4+y,1/4+z
3/4+x,1/2-y,1/4+z
1/2+x,y,1/2+z
3/4-x,1/4-y,1/2+z
1/2+x,1/4-y,3/4-z
3/4-x,y,3/4-z
1/2-x,-y,1/2-z
1/4+x,3/4+y,1/2-z
1/2-x,3/4+y,1/4+z
1/4+x,-y,1/4+z
1/2+x,1/2+y,z
3/4-x,3/4-y,z
1/2+x,3/4-y,1/4-z
3/4-x,1/2+y,1/4-z
1/2-x,1/2-y,-z
1/4+x,1/4+y,-z
1/2-x,1/4+y,3/4+z
1/4+x,1/2-y,3/4+z
loop_
_atom_site_type_symbol
_atom_site_label
_atom_site_fract_x
_atom_site_fract_y
_atom_site_fract_z
Si Si1 0.041889 0.417812 0.961232
Si Si2 0.175390 0.435354 0.499869
Si Si3 0.625000 0.625000 0.625000
Si Si4 0.657480 0.266054 0.379924
Si Si5 0.375000 0.016575 0.375000
Si Si6 0.636593 0.070010 0.306460
O O1 0.089861 0.368573 0.981126
O O2 0.114216 0.451133 0.923984
O O3 0.949368 0.404838 0.916832
O O4 0.989206 0.438520 0.021351
O O5 0.134766 0.466062 0.444220
O O6 0.128316 0.451235 0.564212
O O7 0.293197 0.441179 0.511946
O O8 0.776045 0.264135 0.377999
O O9 0.623288 0.213567 0.364254
O O10 0.625000 0.125000 0.320497
#
# Coordination Sequence:
#
# PCOD9514584 Si02
#       6
#    32  32   8  32  16  32
#     4  11  18  34  60  91 112 138 180 237 295 344
#     4  10  19  37  57  76 109 149 186 228 284 327
#     4  12  16  32  64  92 116 132 174 230 312 338
#     4  11  20  35  58  83 109 152 190 226 274 340
#     4  10  24  38  51  75 114 158 192 220 266 332
#     4   9  19  35  56  86 117 137 177 237 296 338
#
# _framework density 18.034018
#
# number of rings (size 3 to 8) (size 9 to 14) (size 15 to 20)
#    0.000    1.684    5.263    1.263    0.000    0.000 
#    0.000   14.737    0.000    5.053    0.000    0.000 
#    0.000    0.000    0.000    0.000    0.000    0.000 
#
# Total GULP energy -211970.363284 kJ/mol
# GULP energy per Si atom -5578.167455 kJ/mol
# Density = 1.799297 g / cm^3
# Si number density = 18.034018 Si / 1000 Ang^3
#
#
#
# Elastic Constant Matrix: (Units=GPa)
#
#
# Indices 1 2 3 4 5 6 
#
# 1 104.7029 67.7824 49.2678 0.0000 0.0000 0.0000
# 2 67.7824 93.9986 67.3646 0.0000 0.0000 0.0000
# 3 49.2678 67.3646 101.5488 0.0000 0.0000 0.0000
# 4 0.0000 0.0000 0.0000 11.1599 0.0000 0.0000
# 5 0.0000 0.0000 0.0000 0.0000 23.1098 0.0000
# 6 0.0000 0.0000 0.0000 0.0000 0.0000 30.4467
#
#
#
# Elastic Compliance Matrix: (Units=1/GPa)
#
#
# Indices 1 2 3 4 5 6 
#
# 1 0.017916 -0.012753 -0.000232 0.000000 0.000000 0.000000
# 2 -0.012753 0.029357 -0.013287 0.000000 0.000000 0.000000
# 3 -0.000232 -0.013287 0.018775 0.000000 0.000000 0.000000
# 4 0.000000 0.000000 0.000000 0.089607 0.000000 0.000000
# 5 0.000000 0.000000 0.000000 0.000000 0.043272 0.000000
# 6 0.000000 0.000000 0.000000 0.000000 0.000000 0.032844
#
#
# Mechanical properties :
#
#
# Convention : Reuss Voigt Hill
#
# Bulk Modulus (GPa) = 74.05963 74.34220 74.20092
# Shear Modulus (GPa) = 17.31206 20.66566 18.98886
#
# Velocity S-wave (km/s) = 3.10169 3.38883 3.24843
# Velocity P-wave (km/s) = 7.34732 7.52496 7.43667
#
# Compressibility (1/GPa) = 0.01350263
#
# Stress axis : x y z
#
# Youngs Moduli (GPa) = 55.81607 34.06365 53.26313
#
# Poissons Ratio (x) = 0.43440 0.01238
# Poissons Ratio (y) = 0.71180 0.70773
# Poissons Ratio (z) = 0.01298 0.45262
#
# Static dielectric constant tensor:
#      x y z
#    x 1.618340 0.000000 0.000000 
#    y 0.000000 1.623370 0.000000 
#    z 0.000000 0.000000 1.647070 
# 
# From -- ./inp_files/27627.got.cif
#   From: 2010.05.17/outbox.cif.g08.bks.cpg/sg70_14_cif.got.tgz:27627.got - 2010.06.03 15:57:51.
