data_PCOD9514126
_publ_section_title
;
Structure prediction by ZEFSAII (Michael W. Deem and Ramdas Pophale) SiO2 
 PCOD9514126
Probable space group: F D D D
;
_chemical_formula_sum "Si O2"
_cell_formula_units_Z 176
_cell_length_a 33.348072
_cell_length_b 9.786664
_cell_length_c 25.861776
_cell_angle_alpha 90.000000
_cell_angle_beta 90.000000
_cell_angle_gamma 90.000000
_cell_volume 8440.414103
_symmetry_space_group_name_H-M "F D D D"
_symmetry_group_IT_number 70
_space_group.IT_coordinate_system_code '2'
_symmetry_cell_setting 'orthorhombic'
loop_
_space_group_symop_operation_xyz
x,y,z
1/4-x,1/4-y,z
x,1/4-y,1/4-z
1/4-x,y,1/4-z
-x,-y,-z
3/4+x,3/4+y,-z
-x,3/4+y,3/4+z
3/4+x,-y,3/4+z
x,1/2+y,1/2+z
1/4-x,3/4-y,1/2+z
x,3/4-y,3/4-z
1/4-x,1/2+y,3/4-z
-x,1/2-y,1/2-z
3/4+x,1/4+y,1/2-z
-x,1/4+y,1/4+z
3/4+x,1/2-y,1/4+z
1/2+x,y,1/2+z
3/4-x,1/4-y,1/2+z
1/2+x,1/4-y,3/4-z
3/4-x,y,3/4-z
1/2-x,-y,1/2-z
1/4+x,3/4+y,1/2-z
1/2-x,3/4+y,1/4+z
1/4+x,-y,1/4+z
1/2+x,1/2+y,z
3/4-x,3/4-y,z
1/2+x,3/4-y,1/4-z
3/4-x,1/2+y,1/4-z
1/2-x,1/2-y,-z
1/4+x,1/4+y,-z
1/2-x,1/4+y,3/4+z
1/4+x,1/2-y,3/4+z
loop_
_atom_site_type_symbol
_atom_site_label
_atom_site_fract_x
_atom_site_fract_y
_atom_site_fract_z
Si Si1 0.709781 0.581244 0.511702
Si Si2 0.025671 0.337603 0.678384
Si Si3 0.634104 0.919325 0.567198
Si Si4 0.875000 0.875000 0.473841
Si Si5 0.260184 0.002706 0.162227
Si Si6 0.556910 0.759602 0.237865
O O1 0.743890 0.616985 0.471309
O O2 0.717114 0.675695 0.562129
O O3 0.665613 0.630434 0.493372
O O4 0.706458 0.419227 0.516477
O O5 0.068117 0.413072 0.689040
O O6 0.006968 0.382876 0.623976
O O7 0.625000 0.965931 0.625000
O O8 0.621977 0.759703 0.560814
O O9 0.603340 0.994020 0.528273
O O10 0.274482 0.125000 0.125000
O O11 0.293667 0.964236 0.204851
O O12 0.222091 0.057218 0.195288
#
# Coordination Sequence:
#
# PCOD9514126 Si02
#       6
#    32  32  32  16  32  32
#     4   9  18  34  56  86 111 150 190 248 289 348
#     4  10  19  33  57  85 117 148 195 243 298 338
#     4  10  17  31  51  85 113 144 184 244 290 338
#     4   8  17  28  52  82 112 136 184 234 291 336
#     4  11  21  36  56  82 113 158 196 235 291 356
#     4  10  21  35  57  84 116 152 200 239 294 363
#
# _framework density 20.852056000000001
#
# number of rings (size 3 to 8) (size 9 to 14) (size 15 to 20)
#    0.000    2.182    3.636    0.273    0.000    0.727 
#    0.000    1.818    0.000    2.182    0.000    0.000 
#    0.000    0.000    0.000    0.000    0.000    0.000 
#
# Total GULP energy -245383.568001 kJ/mol
# GULP energy per Si atom -5576.899273 kJ/mol
# Density = 2.080460 g / cm^3
# Si number density = 20.852056 Si / 1000 Ang^3
#
#
#
# Elastic Constant Matrix: (Units=GPa)
#
#
# Indices 1 2 3 4 5 6 
#
# 1 156.1825 35.8769 78.3421 0.0000 0.0000 0.0000
# 2 35.8769 65.9313 16.3665 0.0000 0.0000 0.0000
# 3 78.3421 16.3665 121.2466 0.0000 0.0000 0.0000
# 4 0.0000 0.0000 0.0000 22.1908 0.0000 0.0000
# 5 0.0000 0.0000 0.0000 0.0000 30.3135 0.0000
# 6 0.0000 0.0000 0.0000 0.0000 0.0000 25.7741
#
#
#
# Elastic Compliance Matrix: (Units=1/GPa)
#
#
# Indices 1 2 3 4 5 6 
#
# 1 0.010469 -0.004157 -0.006204 0.000000 0.000000 0.000000
# 2 -0.004157 0.017344 0.000345 0.000000 0.000000 0.000000
# 3 -0.006204 0.000345 0.012209 0.000000 0.000000 0.000000
# 4 0.000000 0.000000 0.000000 0.045064 0.000000 0.000000
# 5 0.000000 0.000000 0.000000 0.000000 0.032989 0.000000
# 6 0.000000 0.000000 0.000000 0.000000 0.000000 0.038799
#
#
# Mechanical properties :
#
#
# Convention : Reuss Voigt Hill
#
# Bulk Modulus (GPa) = 50.02203 67.17017 58.59610
# Shear Modulus (GPa) = 27.23774 29.84067 28.53921
#
# Velocity S-wave (km/s) = 3.61811 3.78705 3.70354
# Velocity P-wave (km/s) = 6.44169 7.16973 6.81544
#
# Compressibility (1/GPa) = 0.01999119
#
# Stress axis : x y z
#
# Youngs Moduli (GPa) = 95.51611 57.65756 81.90365
#
# Poissons Ratio (x) = 0.23969 0.50809
# Poissons Ratio (y) = 0.39707 -0.02825
# Poissons Ratio (z) = 0.59254 -0.01988
#
# Static dielectric constant tensor:
#      x y z
#    x 1.771690 0.000000 0.000000 
#    y 0.000000 1.849010 0.000000 
#    z 0.000000 0.000000 1.743870 
# 
# From -- ./inp_files/62183.got.cif
#   From: 2010.05.17/outbox.cif.g08.bks.cpg/sg70_32_cif.got.tgz:62183.got - 2010.06.03 15:57:51.
