data_PCOD9514064
_publ_section_title
;
Structure prediction by ZEFSAII (Michael W. Deem and Ramdas Pophale) SiO2 
 PCOD9514064
Probable space group: F D D D
;
_chemical_formula_sum "Si O2"
_cell_formula_units_Z 216
_cell_length_a 32.026211
_cell_length_b 23.137990
_cell_length_c 16.099401
_cell_angle_alpha 90.000000
_cell_angle_beta 90.000000
_cell_angle_gamma 90.000000
_cell_volume 11930.012740
_symmetry_space_group_name_H-M "F D D D"
_symmetry_group_IT_number 70
_space_group.IT_coordinate_system_code '2'
_symmetry_cell_setting 'orthorhombic'
loop_
_space_group_symop_operation_xyz
x,y,z
1/4-x,1/4-y,z
x,1/4-y,1/4-z
1/4-x,y,1/4-z
-x,-y,-z
3/4+x,3/4+y,-z
-x,3/4+y,3/4+z
3/4+x,-y,3/4+z
x,1/2+y,1/2+z
1/4-x,3/4-y,1/2+z
x,3/4-y,3/4-z
1/4-x,1/2+y,3/4-z
-x,1/2-y,1/2-z
3/4+x,1/4+y,1/2-z
-x,1/4+y,1/4+z
3/4+x,1/2-y,1/4+z
1/2+x,y,1/2+z
3/4-x,1/4-y,1/2+z
1/2+x,1/4-y,3/4-z
3/4-x,y,3/4-z
1/2-x,-y,1/2-z
1/4+x,3/4+y,1/2-z
1/2-x,3/4+y,1/4+z
1/4+x,-y,1/4+z
1/2+x,1/2+y,z
3/4-x,3/4-y,z
1/2+x,3/4-y,1/4-z
3/4-x,1/2+y,1/4-z
1/2-x,1/2-y,-z
1/4+x,1/4+y,-z
1/2-x,1/4+y,3/4+z
1/4+x,1/2-y,3/4+z
loop_
_atom_site_type_symbol
_atom_site_label
_atom_site_fract_x
_atom_site_fract_y
_atom_site_fract_z
Si Si1 0.110722 0.057697 0.924103
Si Si2 0.956220 0.781304 0.814050
Si Si3 0.568533 0.696025 0.497867
Si Si4 0.437294 0.991009 0.262224
Si Si5 0.027090 0.812398 0.034186
Si Si6 0.520248 0.875000 0.375000
Si Si7 0.625000 0.625000 0.625000
Si Si8 0.766650 0.581955 0.403150
O O1 0.125000 0.125000 0.932321
O O2 0.098614 0.044103 0.830256
O O3 0.071640 0.041963 0.983747
O O4 0.149605 0.019527 0.952248
O O5 0.927084 0.784776 0.896543
O O6 0.990583 0.830145 0.827137
O O7 0.020750 0.780318 0.666880
O O8 0.552980 0.754084 0.542839
O O9 0.593883 0.659523 0.564398
O O10 0.527528 0.668697 0.451380
O O11 0.479237 0.957805 0.233131
O O12 0.450031 0.057220 0.280331
O O13 0.026802 0.858369 0.108255
O O14 0.043242 0.841683 0.948479
#
# Coordination Sequence:
#
# PCOD9514064 Si02
#       8
#    32  32  32  32  32  16   8  32
#     4  12  20  32  58  92 126 164 203 261 318 365
#     4   9  19  30  55  93 136 167 204 243 310 373
#     4  11  24  43  66  90 117 160 217 275 314 367
#     4   8  19  33  51  92 127 160 202 237 306 374
#     4  10  20  35  62  85 125 163 206 243 311 372
#     4  10  16  30  51  90 131 164 204 241 284 382
#     4  12  28  52  68  92 112 156 224 292 316 344
#     4   9  20  39  59  90 127 169 203 254 308 390
#
# _framework density 18.105595999999998
#
# number of rings (size 3 to 8) (size 9 to 14) (size 15 to 20)
#    0.889    1.185    2.222    4.000    2.074    1.778 
#    0.000    2.222    0.000    0.000    0.000    0.000 
#    0.000    0.000    0.000    0.000    0.000    0.000 
#
# Total GULP energy -300709.385341 kJ/mol
# GULP energy per Si atom -5568.692321 kJ/mol
# Density = 1.806439 g / cm^3
# Si number density = 18.105596 Si / 1000 Ang^3
#
#
#
# Elastic Constant Matrix: (Units=GPa)
#
#
# Indices 1 2 3 4 5 6 
#
# 1 75.3034 62.1366 57.5067 0.0000 0.0000 0.0000
# 2 62.1366 121.5815 66.4790 0.0000 0.0000 0.0000
# 3 57.5067 66.4790 110.2939 0.0000 0.0000 0.0000
# 4 0.0000 0.0000 0.0000 23.5022 0.0000 0.0000
# 5 0.0000 0.0000 0.0000 0.0000 22.9939 0.0000
# 6 0.0000 0.0000 0.0000 0.0000 0.0000 22.5578
#
#
#
# Elastic Compliance Matrix: (Units=1/GPa)
#
#
# Indices 1 2 3 4 5 6 
#
# 1 0.027732 -0.009348 -0.008825 0.000000 0.000000 0.000000
# 2 -0.009348 0.015419 -0.004420 0.000000 0.000000 0.000000
# 3 -0.008825 -0.004420 0.016332 0.000000 0.000000 0.000000
# 4 0.000000 0.000000 0.000000 0.042549 0.000000 0.000000
# 5 0.000000 0.000000 0.000000 0.000000 0.043490 0.000000
# 6 0.000000 0.000000 0.000000 0.000000 0.000000 0.044331
#
#
# Mechanical properties :
#
#
# Convention : Reuss Voigt Hill
#
# Bulk Modulus (GPa) = 69.94018 75.49148 72.71583
# Shear Modulus (GPa) = 20.85030 21.88122 21.36576
#
# Velocity S-wave (km/s) = 3.39720 3.48017 3.43893
# Velocity P-wave (km/s) = 7.35533 7.61146 7.48449
#
# Compressibility (1/GPa) = 0.01429793
#
# Stress axis : x y z
#
# Youngs Moduli (GPa) = 36.05890 64.85529 61.22866
#
# Poissons Ratio (x) = 0.60624 0.54036
# Poissons Ratio (y) = 0.33707 0.27062
# Poissons Ratio (z) = 0.31823 0.28665
#
# Static dielectric constant tensor:
#      x y z
#    x 1.639480 0.000000 0.000000 
#    y 0.000000 1.657900 0.000000 
#    z 0.000000 0.000000 1.641660 
# 
# From -- ./inp_files/31287.got.cif
#   From: 2010.05.17/outbox.cif.g08.bks.cpg/sg70_16_cif.got.tgz:31287.got - 2010.06.03 15:57:51.
