data_PCOD9514907
_publ_section_title
;
Structure prediction by ZEFSAII (Michael W. Deem and Ramdas Pophale) SiO2 
 PCOD9514907
Probable space group: F D D D
;
_chemical_formula_sum "Si O2"
_cell_formula_units_Z 88
_cell_length_a 10.226905
_cell_length_b 31.333585
_cell_length_c 10.355580
_cell_angle_alpha 90.000000
_cell_angle_beta 90.000000
_cell_angle_gamma 90.000000
_cell_volume 3318.400016
_symmetry_space_group_name_H-M "F D D D"
_symmetry_group_IT_number 70
_space_group.IT_coordinate_system_code '2'
_symmetry_cell_setting 'orthorhombic'
loop_
_space_group_symop_operation_xyz
x,y,z
1/4-x,1/4-y,z
x,1/4-y,1/4-z
1/4-x,y,1/4-z
-x,-y,-z
3/4+x,3/4+y,-z
-x,3/4+y,3/4+z
3/4+x,-y,3/4+z
x,1/2+y,1/2+z
1/4-x,3/4-y,1/2+z
x,3/4-y,3/4-z
1/4-x,1/2+y,3/4-z
-x,1/2-y,1/2-z
3/4+x,1/4+y,1/2-z
-x,1/4+y,1/4+z
3/4+x,1/2-y,1/4+z
1/2+x,y,1/2+z
3/4-x,1/4-y,1/2+z
1/2+x,1/4-y,3/4-z
3/4-x,y,3/4-z
1/2-x,-y,1/2-z
1/4+x,3/4+y,1/2-z
1/2-x,3/4+y,1/4+z
1/4+x,-y,1/4+z
1/2+x,1/2+y,z
3/4-x,3/4-y,z
1/2+x,3/4-y,1/4-z
3/4-x,1/2+y,1/4-z
1/2-x,1/2-y,-z
1/4+x,1/4+y,-z
1/2-x,1/4+y,3/4+z
1/4+x,1/2-y,3/4+z
loop_
_atom_site_type_symbol
_atom_site_label
_atom_site_fract_x
_atom_site_fract_y
_atom_site_fract_z
Si Si1 0.625000 0.625000 0.125000
Si Si2 0.566023 0.950302 0.341346
Si Si3 0.982140 0.608349 0.978071
Si Si4 0.875000 0.025734 0.875000
O O1 0.530559 0.660448 0.058068
O O2 0.696173 0.941454 0.257580
O O3 0.585493 0.949712 0.496069
O O4 0.490688 0.994574 0.324566
O O5 0.875000 0.622501 0.875000
O O6 0.125000 0.625000 0.940677
O O7 0.966253 0.625000 0.125000
#
# Coordination Sequence:
#
# PCOD9514907 Si02
#       4
#     8  32  32  16
#     4  10  20  36  74 104 146 196 270 308 394 452
#     4  10  21  44  70 120 148 217 258 330 393 486
#     4  11  27  48  77 122 159 203 271 340 395 471
#     4   9  22  43  76 110 170 206 264 322 416 479
#
# _framework density 26.518802999999998
#
# number of rings (size 3 to 8) (size 9 to 14) (size 15 to 20)
#    0.000    1.818    1.818    0.000    5.091    0.727 
#   29.455    1.818    0.000    0.000    0.000    0.000 
#    0.000    0.000    0.000    0.000    0.000    0.000 
#
# Total GULP energy -122684.106269 kJ/mol
# GULP energy per Si atom -5576.550285 kJ/mol
# Density = 2.645845 g / cm^3
# Si number density = 26.518803 Si / 1000 Ang^3
#
#
#
# Elastic Constant Matrix: (Units=GPa)
#
#
# Indices 1 2 3 4 5 6 
#
# 1 206.6157 52.6841 98.7499 0.0000 0.0000 0.0000
# 2 52.6841 108.5631 54.4808 0.0000 0.0000 0.0000
# 3 98.7499 54.4808 141.0083 0.0000 0.0000 0.0000
# 4 0.0000 0.0000 0.0000 53.4432 0.0000 0.0000
# 5 0.0000 0.0000 0.0000 0.0000 64.3025 0.0000
# 6 0.0000 0.0000 0.0000 0.0000 0.0000 26.6239
#
#
#
# Elastic Compliance Matrix: (Units=1/GPa)
#
#
# Indices 1 2 3 4 5 6 
#
# 1 0.007405 -0.001229 -0.004711 0.000000 0.000000 0.000000
# 2 -0.001229 0.011631 -0.003633 0.000000 0.000000 0.000000
# 3 -0.004711 -0.003633 0.011794 0.000000 0.000000 0.000000
# 4 0.000000 0.000000 0.000000 0.018711 0.000000 0.000000
# 5 0.000000 0.000000 0.000000 0.000000 0.015551 0.000000
# 6 0.000000 0.000000 0.000000 0.000000 0.000000 0.037560
#
#
# Mechanical properties :
#
#
# Convention : Reuss Voigt Hill
#
# Bulk Modulus (GPa) = 85.58552 96.44632 91.01592
# Shear Modulus (GPa) = 39.77922 45.55875 42.66899
#
# Velocity S-wave (km/s) = 3.87723 4.14935 4.01560
# Velocity P-wave (km/s) = 7.23792 7.70741 7.47635
#
# Compressibility (1/GPa) = 0.01168422
#
# Stress axis : x y z
#
# Youngs Moduli (GPa) = 135.04728 85.97762 84.78676
#
# Poissons Ratio (x) = 0.10571 0.39940
# Poissons Ratio (y) = 0.16604 0.30801
# Poissons Ratio (z) = 0.63616 0.31234
#
# Static dielectric constant tensor:
#      x y z
#    x 2.256600 0.000000 0.000000 
#    y 0.000000 2.171090 0.000000 
#    z 0.000000 0.000000 2.121760 
# 
# From -- ./inp_files/13902.got.cif
#   From: 2010.05.17/outbox.cif.g08.bks.cpg/sg70_7_cif.got.tgz:13902.got - 2010.06.03 15:57:51.
