data_PCOD9514997
_publ_section_title
;
Structure prediction by ZEFSAII (Michael W. Deem and Ramdas Pophale) SiO2 
 PCOD9514997
Probable space group: F D D D
;
_chemical_formula_sum "Si O2"
_cell_formula_units_Z 160
_cell_length_a 22.423164
_cell_length_b 15.474570
_cell_length_c 22.913334
_cell_angle_alpha 90.000000
_cell_angle_beta 90.000000
_cell_angle_gamma 90.000000
_cell_volume 7950.670748
_symmetry_space_group_name_H-M "F D D D"
_symmetry_group_IT_number 70
_space_group.IT_coordinate_system_code '2'
_symmetry_cell_setting 'orthorhombic'
loop_
_space_group_symop_operation_xyz
x,y,z
1/4-x,1/4-y,z
x,1/4-y,1/4-z
1/4-x,y,1/4-z
-x,-y,-z
3/4+x,3/4+y,-z
-x,3/4+y,3/4+z
3/4+x,-y,3/4+z
x,1/2+y,1/2+z
1/4-x,3/4-y,1/2+z
x,3/4-y,3/4-z
1/4-x,1/2+y,3/4-z
-x,1/2-y,1/2-z
3/4+x,1/4+y,1/2-z
-x,1/4+y,1/4+z
3/4+x,1/2-y,1/4+z
1/2+x,y,1/2+z
3/4-x,1/4-y,1/2+z
1/2+x,1/4-y,3/4-z
3/4-x,y,3/4-z
1/2-x,-y,1/2-z
1/4+x,3/4+y,1/2-z
1/2-x,3/4+y,1/4+z
1/4+x,-y,1/4+z
1/2+x,1/2+y,z
3/4-x,3/4-y,z
1/2+x,3/4-y,1/4-z
3/4-x,1/2+y,1/4-z
1/2-x,1/2-y,-z
1/4+x,1/4+y,-z
1/2-x,1/4+y,3/4+z
1/4+x,1/2-y,3/4+z
loop_
_atom_site_type_symbol
_atom_site_label
_atom_site_fract_x
_atom_site_fract_y
_atom_site_fract_z
Si Si1 0.580405 0.387635 0.277560
Si Si2 0.070789 0.875000 0.875000
Si Si3 0.007978 0.047505 0.912135
Si Si4 0.813335 0.062024 0.345564
Si Si5 0.347269 0.958965 0.267049
Si Si6 0.231648 0.625000 0.125000
O O1 0.636780 0.364872 0.318586
O O2 0.569202 0.324317 0.223671
O O3 0.598377 0.479830 0.251102
O O4 0.523963 0.391245 0.319414
O O5 0.032485 0.788111 0.869674
O O6 0.989181 0.126846 0.871096
O O7 0.058805 0.070051 0.960041
O O8 0.948960 0.015228 0.945865
O O9 0.875000 0.091569 0.375000
O O10 0.803360 0.962789 0.362589
O O11 0.375000 0.875000 0.296801
#
# Coordination Sequence:
#
# PCOD9514997 Si02
#       6
#    32  16  32  32  32  16
#     4  10  22  43  63  91 127 161 213 257 305 379
#     4   9  22  40  64  92 130 164 200 257 312 378
#     4  10  22  37  61  94 125 156 200 248 308 366
#     4  12  24  41  61  94 126 163 213 263 304 370
#     4  10  20  38  63  91 124 160 196 249 309 369
#     4  11  25  44  67  84 121 174 213 259 314 356
#
# _framework density 20.124088
#
# number of rings (size 3 to 8) (size 9 to 14) (size 15 to 20)
#    0.000    1.600    2.000    2.100    2.800    1.600 
#    0.000    2.000    0.000    0.000    0.000    0.000 
#    0.000    0.000    0.000    0.000    0.000    0.000 
#
# Total GULP energy -223474.152323 kJ/mol
# GULP energy per Si atom -5586.853808 kJ/mol
# Density = 2.007828 g / cm^3
# Si number density = 20.124088 Si / 1000 Ang^3
#
#
#
# Elastic Constant Matrix: (Units=GPa)
#
#
# Indices 1 2 3 4 5 6 
#
# 1 58.8052 37.1708 20.6287 0.0000 0.0000 0.0000
# 2 37.1708 123.1301 46.1832 0.0000 0.0000 0.0000
# 3 20.6287 46.1832 102.2653 0.0000 0.0000 0.0000
# 4 0.0000 0.0000 0.0000 6.1815 0.0000 0.0000
# 5 0.0000 0.0000 0.0000 0.0000 -12.4216 0.0000
# 6 0.0000 0.0000 0.0000 0.0000 0.0000 8.7271
#
#
#
# Elastic Compliance Matrix: (Units=1/GPa)
#
#
# Indices 1 2 3 4 5 6 
#
# 1 0.021251 -0.005788 -0.001673 0.000000 0.000000 0.000000
# 2 -0.005788 0.011354 -0.003960 0.000000 0.000000 0.000000
# 3 -0.001673 -0.003960 0.011904 0.000000 0.000000 0.000000
# 4 0.000000 0.000000 0.000000 0.161774 0.000000 0.000000
# 5 0.000000 0.000000 0.000000 0.000000 -0.080505 0.000000
# 6 0.000000 0.000000 0.000000 0.000000 0.000000 0.114586
#
#
# Mechanical properties :
#
#
# Convention : Reuss Voigt Hill
#
# Bulk Modulus (GPa) = 46.15169 54.68509 50.41839
# Shear Modulus (GPa) = 18.48926 12.51192 15.50059
#
# Velocity S-wave (km/s) = 3.03440 2.49617 2.77835
# Velocity P-wave (km/s) = 5.93802 5.96161 5.94983
#
# Compressibility (1/GPa) = 0.02166768
#
# Stress axis : x y z
#
# Youngs Moduli (GPa) = 47.05761 88.07465 84.00335
#
# Poissons Ratio (x) = 0.50975 0.14053
# Poissons Ratio (y) = 0.27236 0.33265
# Poissons Ratio (z) = 0.07872 0.34878
#
# Static dielectric constant tensor:
#      x y z
#    x 1.692710 0.000000 0.000000 
#    y 0.000000 1.687490 0.000000 
#    z 0.000000 0.000000 1.722260 
# 
# From -- ./inp_files/36355.got.cif
#   From: 2010.05.17/outbox.cif.g08.bks.cpg/sg70_19_cif.got.tgz:36355.got - 2010.06.03 15:57:51.
