data_PCOD9514149
_publ_section_title
;
Structure prediction by ZEFSAII (Michael W. Deem and Ramdas Pophale) SiO2 
 PCOD9514149
Probable space group: F D D D
;
_chemical_formula_sum "Si O2"
_cell_formula_units_Z 240
_cell_length_a 20.078949
_cell_length_b 19.729851
_cell_length_c 29.834216
_cell_angle_alpha 90.000000
_cell_angle_beta 90.000000
_cell_angle_gamma 90.000000
_cell_volume 11818.964054
_symmetry_space_group_name_H-M "F D D D"
_symmetry_group_IT_number 70
_space_group.IT_coordinate_system_code '2'
_symmetry_cell_setting 'orthorhombic'
loop_
_space_group_symop_operation_xyz
x,y,z
1/4-x,1/4-y,z
x,1/4-y,1/4-z
1/4-x,y,1/4-z
-x,-y,-z
3/4+x,3/4+y,-z
-x,3/4+y,3/4+z
3/4+x,-y,3/4+z
x,1/2+y,1/2+z
1/4-x,3/4-y,1/2+z
x,3/4-y,3/4-z
1/4-x,1/2+y,3/4-z
-x,1/2-y,1/2-z
3/4+x,1/4+y,1/2-z
-x,1/4+y,1/4+z
3/4+x,1/2-y,1/4+z
1/2+x,y,1/2+z
3/4-x,1/4-y,1/2+z
1/2+x,1/4-y,3/4-z
3/4-x,y,3/4-z
1/2-x,-y,1/2-z
1/4+x,3/4+y,1/2-z
1/2-x,3/4+y,1/4+z
1/4+x,-y,1/4+z
1/2+x,1/2+y,z
3/4-x,3/4-y,z
1/2+x,3/4-y,1/4-z
3/4-x,1/2+y,1/4-z
1/2-x,1/2-y,-z
1/4+x,1/4+y,-z
1/2-x,1/4+y,3/4+z
1/4+x,1/2-y,3/4+z
loop_
_atom_site_type_symbol
_atom_site_label
_atom_site_fract_x
_atom_site_fract_y
_atom_site_fract_z
Si Si1 0.824109 0.926040 0.954683
Si Si2 0.615578 0.262821 0.269339
Si Si3 0.510611 0.702772 0.435411
Si Si4 0.731402 0.864845 0.282564
Si Si5 0.803455 0.340170 0.592975
Si Si6 0.133740 0.486865 0.782075
Si Si7 0.125000 0.125000 0.533783
Si Si8 0.960664 0.627916 0.485902
O O1 0.875000 0.875000 0.932040
O O2 0.758585 0.887698 0.971422
O O3 0.797998 0.992416 0.929833
O O4 0.856890 0.952144 0.001330
O O5 0.668964 0.242246 0.307571
O O6 0.553859 0.310947 0.283261
O O7 0.603431 0.191029 0.245485
O O8 0.658560 0.310780 0.236285
O O9 0.495690 0.660705 0.480977
O O10 0.519489 0.660249 0.391091
O O11 0.676893 0.810063 0.299357
O O12 0.803560 0.859398 0.306306
O O13 0.875000 0.375000 0.596576
O O14 0.820405 0.266825 0.571096
O O15 0.754449 0.375505 0.558064
O O16 0.172812 0.440914 0.746454
#
# Coordination Sequence:
#
# PCOD9514149 Si02
#       8
#    32  32  32  32  32  32  16  32
#     4  10  17  35  58  83 113 162 203 230 277 361
#     4   9  19  36  58  89 117 154 196 243 293 357
#     4   9  22  35  56  93 126 142 198 257 292 350
#     4   9  19  36  58  89 117 154 196 243 293 357
#     4  12  22  35  60  91 117 153 197 254 315 337
#     4  10  19  35  61  85 115 157 205 235 284 371
#     4  10  18  30  60  82 113 134 200 250 280 320
#     4  10  19  35  61  85 115 157 205 235 284 371
#
# _framework density 20.306348
#
# number of rings (size 3 to 8) (size 9 to 14) (size 15 to 20)
#    0.000    2.133    2.667    1.600    3.733    0.000 
#    0.000   12.000    2.933    0.000    0.000    3.733 
#    0.000    0.000    0.000    0.000    0.000    0.000 
#
# Total GULP energy -334333.565079 kJ/mol
# GULP energy per Si atom -5572.226085 kJ/mol
# Density = 2.026013 g / cm^3
# Si number density = 20.306348 Si / 1000 Ang^3
#
#
#
# Elastic Constant Matrix: (Units=GPa)
#
#
# Indices 1 2 3 4 5 6 
#
# 1 65.0950 14.6974 -8.8692 0.0000 0.0000 0.0000
# 2 14.6974 81.0427 -6.5575 0.0000 0.0000 0.0000
# 3 -8.8692 -6.5575 33.0454 0.0000 0.0000 0.0000
# 4 0.0000 0.0000 0.0000 6.0402 0.0000 0.0000
# 5 0.0000 0.0000 0.0000 0.0000 16.5633 0.0000
# 6 0.0000 0.0000 0.0000 0.0000 0.0000 34.1617
#
#
#
# Elastic Compliance Matrix: (Units=1/GPa)
#
#
# Indices 1 2 3 4 5 6 
#
# 1 0.016497 -0.002677 0.003897 0.000000 0.000000 0.000000
# 2 -0.002677 0.012975 0.001856 0.000000 0.000000 0.000000
# 3 0.003897 0.001856 0.031676 0.000000 0.000000 0.000000
# 4 0.000000 0.000000 0.000000 0.165556 0.000000 0.000000
# 5 0.000000 0.000000 0.000000 0.000000 0.060375 0.000000
# 6 0.000000 0.000000 0.000000 0.000000 0.000000 0.029273
#
#
# Mechanical properties :
#
#
# Convention : Reuss Voigt Hill
#
# Bulk Modulus (GPa) = 14.85870 19.74718 17.30294
# Shear Modulus (GPa) = 15.03164 23.34720 19.18942
#
# Velocity S-wave (km/s) = 2.72369 3.39447 3.07741
# Velocity P-wave (km/s) = 4.15024 5.01089 4.60073
#
# Compressibility (1/GPa) = 0.06730065
#
# Stress axis : x y z
#
# Youngs Moduli (GPa) = 60.61558 77.07260 31.57004
#
# Poissons Ratio (x) = 0.20629 -0.12302
# Poissons Ratio (y) = 0.16224 -0.05860
# Poissons Ratio (z) = -0.23620 -0.14307
#
# Static dielectric constant tensor:
#      x y z
#    x 1.790650 0.000000 0.000000 
#    y 0.000000 1.759250 0.000000 
#    z 0.000000 0.000000 1.684060 
# 
# From -- ./inp_files/67389.got.cif
#   From: 2010.05.17/outbox.cif.g08.bks.cpg/sg70_34_cif.got.tgz:67389.got - 2010.06.03 15:57:51.
