data_PCOD9514283
_publ_section_title
;
Structure prediction by ZEFSAII (Michael W. Deem and Ramdas Pophale) SiO2 
 PCOD9514283
Probable space group: F D D D
;
_chemical_formula_sum "Si O2"
_cell_formula_units_Z 208
_cell_length_a 27.715423
_cell_length_b 17.563718
_cell_length_c 18.949757
_cell_angle_alpha 90.000000
_cell_angle_beta 90.000000
_cell_angle_gamma 90.000000
_cell_volume 9224.474020
_symmetry_space_group_name_H-M "F D D D"
_symmetry_group_IT_number 70
_space_group.IT_coordinate_system_code '2'
_symmetry_cell_setting 'orthorhombic'
loop_
_space_group_symop_operation_xyz
x,y,z
1/4-x,1/4-y,z
x,1/4-y,1/4-z
1/4-x,y,1/4-z
-x,-y,-z
3/4+x,3/4+y,-z
-x,3/4+y,3/4+z
3/4+x,-y,3/4+z
x,1/2+y,1/2+z
1/4-x,3/4-y,1/2+z
x,3/4-y,3/4-z
1/4-x,1/2+y,3/4-z
-x,1/2-y,1/2-z
3/4+x,1/4+y,1/2-z
-x,1/4+y,1/4+z
3/4+x,1/2-y,1/4+z
1/2+x,y,1/2+z
3/4-x,1/4-y,1/2+z
1/2+x,1/4-y,3/4-z
3/4-x,y,3/4-z
1/2-x,-y,1/2-z
1/4+x,3/4+y,1/2-z
1/2-x,3/4+y,1/4+z
1/4+x,-y,1/4+z
1/2+x,1/2+y,z
3/4-x,3/4-y,z
1/2+x,3/4-y,1/4-z
3/4-x,1/2+y,1/4-z
1/2-x,1/2-y,-z
1/4+x,1/4+y,-z
1/2-x,1/4+y,3/4+z
1/4+x,1/2-y,3/4+z
loop_
_atom_site_type_symbol
_atom_site_label
_atom_site_fract_x
_atom_site_fract_y
_atom_site_fract_z
Si Si1 0.491363 0.528389 0.921142
Si Si2 0.248088 0.375000 0.875000
Si Si3 0.044553 0.948212 0.478303
Si Si4 0.030737 0.820812 0.024709
Si Si5 0.882498 0.961611 0.266225
Si Si6 0.646150 0.545937 0.348985
Si Si7 0.307533 0.532123 0.058919
O O1 0.471884 0.452535 0.884436
O O2 0.463439 0.607312 0.923402
O O3 0.546473 0.542691 0.898292
O O4 0.500000 0.500000 0.000000
O O5 0.216494 0.354970 0.805267
O O6 0.041945 0.857030 0.483987
O O7 0.049362 0.958381 0.393232
O O8 0.087878 0.981521 0.525860
O O9 0.000000 0.000000 0.500000
O O10 0.977134 0.786444 0.034981
O O11 0.068485 0.753495 0.037924
O O12 0.875000 0.875000 0.292380
O O13 0.883000 0.956973 0.181231
O O14 0.625000 0.625000 0.320680
O O15 0.615207 0.483289 0.306365
#
# Coordination Sequence:
#
# PCOD9514283 Si02
#       7
#    32  16  32  32  32  32  32
#     4  10  21  33  57  87 122 163 206 255 311 368
#     4  10  22  36  58  89 130 164 204 259 304 380
#     4  10  22  39  59  89 120 153 203 262 319 374
#     4  11  21  37  59  94 122 165 209 258 318 378
#     4  10  21  35  62  89 122 160 207 260 314 377
#     4  10  18  35  56  88 119 158 207 262 306 370
#     4  10  22  35  62  88 118 157 205 256 313 373
#
# _framework density 22.548711999999998
#
# number of rings (size 3 to 8) (size 9 to 14) (size 15 to 20)
#    0.000    1.846    3.077    0.923    4.308    1.231 
#    0.000    0.769    0.000   10.154    0.000    0.000 
#    0.000    0.000    0.000    0.000    0.000    0.000 
#
# Total GULP energy -289849.907266 kJ/mol
# GULP energy per Si atom -5574.036678 kJ/mol
# Density = 2.249739 g / cm^3
# Si number density = 22.548712 Si / 1000 Ang^3
#
#
#
# Elastic Constant Matrix: (Units=GPa)
#
#
# Indices 1 2 3 4 5 6 
#
# 1 59.6064 35.4536 1.1032 0.0000 0.0000 0.0000
# 2 35.4536 189.0703 23.4420 0.0000 0.0000 0.0000
# 3 1.1032 23.4420 36.6291 0.0000 0.0000 0.0000
# 4 0.0000 0.0000 0.0000 23.4146 0.0000 0.0000
# 5 0.0000 0.0000 0.0000 0.0000 9.4288 0.0000
# 6 0.0000 0.0000 0.0000 0.0000 0.0000 32.8185
#
#
#
# Elastic Compliance Matrix: (Units=1/GPa)
#
#
# Indices 1 2 3 4 5 6 
#
# 1 0.018998 -0.003792 0.001855 0.000000 0.000000 0.000000
# 2 -0.003792 0.006502 -0.004047 0.000000 0.000000 0.000000
# 3 0.001855 -0.004047 0.029835 0.000000 0.000000 0.000000
# 4 0.000000 0.000000 0.000000 0.042708 0.000000 0.000000
# 5 0.000000 0.000000 0.000000 0.000000 0.106059 0.000000
# 6 0.000000 0.000000 0.000000 0.000000 0.000000 0.030471
#
#
# Mechanical properties :
#
#
# Convention : Reuss Voigt Hill
#
# Bulk Modulus (GPa) = 23.05959 45.03372 34.04665
# Shear Modulus (GPa) = 19.15735 28.15285 23.65510
#
# Velocity S-wave (km/s) = 2.91795 3.53729 3.24244
# Velocity P-wave (km/s) = 4.64772 6.05792 5.39906
#
# Compressibility (1/GPa) = 0.04336591
#
# Stress axis : x y z
#
# Youngs Moduli (GPa) = 52.63682 153.80052 33.51798
#
# Poissons Ratio (x) = 0.58328 -0.06217
# Poissons Ratio (y) = 0.19962 0.13564
# Poissons Ratio (z) = -0.09763 0.62241
#
# Static dielectric constant tensor:
#      x y z
#    x 1.740530 0.000000 0.000000 
#    y 0.000000 1.907860 0.000000 
#    z 0.000000 0.000000 1.873610 
# 
# From -- ./inp_files/47725.got.cif
#   From: 2010.05.17/outbox.cif.g08.bks.cpg/sg70_24_cif.got.tgz:47725.got - 2010.06.03 15:57:51.
