data_PCOD9514902
_publ_section_title
;
Structure prediction by ZEFSAII (Michael W. Deem and Ramdas Pophale) SiO2 
 PCOD9514902
Probable space group: F D D D
;
_chemical_formula_sum "Si O2"
_cell_formula_units_Z 160
_cell_length_a 21.992382
_cell_length_b 28.411842
_cell_length_c 11.461162
_cell_angle_alpha 90.000000
_cell_angle_beta 90.000000
_cell_angle_gamma 90.000000
_cell_volume 7161.439255
_symmetry_space_group_name_H-M "F D D D"
_symmetry_group_IT_number 70
_space_group.IT_coordinate_system_code '2'
_symmetry_cell_setting 'orthorhombic'
loop_
_space_group_symop_operation_xyz
x,y,z
1/4-x,1/4-y,z
x,1/4-y,1/4-z
1/4-x,y,1/4-z
-x,-y,-z
3/4+x,3/4+y,-z
-x,3/4+y,3/4+z
3/4+x,-y,3/4+z
x,1/2+y,1/2+z
1/4-x,3/4-y,1/2+z
x,3/4-y,3/4-z
1/4-x,1/2+y,3/4-z
-x,1/2-y,1/2-z
3/4+x,1/4+y,1/2-z
-x,1/4+y,1/4+z
3/4+x,1/2-y,1/4+z
1/2+x,y,1/2+z
3/4-x,1/4-y,1/2+z
1/2+x,1/4-y,3/4-z
3/4-x,y,3/4-z
1/2-x,-y,1/2-z
1/4+x,3/4+y,1/2-z
1/2-x,3/4+y,1/4+z
1/4+x,-y,1/4+z
1/2+x,1/2+y,z
3/4-x,3/4-y,z
1/2+x,3/4-y,1/4-z
3/4-x,1/2+y,1/4-z
1/2-x,1/2-y,-z
1/4+x,1/4+y,-z
1/2-x,1/4+y,3/4+z
1/4+x,1/2-y,3/4+z
loop_
_atom_site_type_symbol
_atom_site_label
_atom_site_fract_x
_atom_site_fract_y
_atom_site_fract_z
Si Si1 0.863907 0.545563 0.617546
Si Si2 0.781738 0.542774 0.311486
Si Si3 0.739959 0.875000 0.375000
Si Si4 0.125000 0.422582 0.125000
Si Si5 0.331364 0.964547 0.479553
Si Si6 0.739461 0.137098 0.873663
O O1 0.915658 0.561681 0.525426
O O2 0.805489 0.580302 0.604908
O O3 0.880959 0.550113 0.753343
O O4 0.859868 0.489856 0.591915
O O5 0.750000 0.500000 0.250000
O O6 0.805882 0.513955 0.423552
O O7 0.733889 0.583880 0.331296
O O8 0.778699 0.862211 0.490144
O O9 0.187599 0.394192 0.132557
O O10 0.375000 0.946823 0.375000
O O11 0.288645 0.924261 0.532992
#
# Coordination Sequence:
#
# PCOD9514902 Si02
#       6
#    32  32  16  16  32  32
#     4  10  20  39  59  99 133 174 224 283 348 404
#     4  11  22  39  63  93 131 178 229 282 341 412
#     4  10  20  36  70  94 131 172 219 294 348 410
#     4  10  22  34  68  98 133 175 224 292 338 414
#     4  10  23  41  66  94 140 181 225 284 342 427
#     4  11  22  41  64 104 130 180 232 285 351 412
#
# _framework density 22.341878000000001
#
# number of rings (size 3 to 8) (size 9 to 14) (size 15 to 20)
#    0.000    1.600    2.000    3.600    1.400    5.600 
#    3.600    7.000    0.000    0.000    0.000    0.000 
#    0.000    0.000    0.000    0.000    0.000    0.000 
#
# Total GULP energy -222767.271793 kJ/mol
# GULP energy per Si atom -5569.181795 kJ/mol
# Density = 2.229103 g / cm^3
# Si number density = 22.341878 Si / 1000 Ang^3
#
#
#
# Elastic Constant Matrix: (Units=GPa)
#
#
# Indices 1 2 3 4 5 6 
#
# 1 20.5146 30.6406 23.7576 0.0000 0.0000 0.0000
# 2 30.6406 105.0480 75.9092 0.0000 0.0000 0.0000
# 3 23.7576 75.9092 152.0296 0.0000 0.0000 0.0000
# 4 0.0000 0.0000 0.0000 46.1388 0.0000 0.0000
# 5 0.0000 0.0000 0.0000 0.0000 29.1566 0.0000
# 6 0.0000 0.0000 0.0000 0.0000 0.0000 22.2206
#
#
#
# Elastic Compliance Matrix: (Units=1/GPa)
#
#
# Indices 1 2 3 4 5 6 
#
# 1 0.086577 -0.024212 -0.001440 0.000000 0.000000 0.000000
# 2 -0.024212 0.021664 -0.007033 0.000000 0.000000 0.000000
# 3 -0.001440 -0.007033 0.010314 0.000000 0.000000 0.000000
# 4 0.000000 0.000000 0.000000 0.021674 0.000000 0.000000
# 5 0.000000 0.000000 0.000000 0.000000 0.034298 0.000000
# 6 0.000000 0.000000 0.000000 0.000000 0.000000 0.045003
#
#
# Mechanical properties :
#
#
# Convention : Reuss Voigt Hill
#
# Bulk Modulus (GPa) = 18.80264 59.80076 39.30170
# Shear Modulus (GPa) = 16.52188 29.32220 22.92204
#
# Velocity S-wave (km/s) = 2.72233 3.62668 3.20655
# Velocity P-wave (km/s) = 4.27967 6.66044 5.59808
#
# Compressibility (1/GPa) = 0.05318401
#
# Stress axis : x y z
#
# Youngs Moduli (GPa) = 11.55047 46.15921 96.95094
#
# Poissons Ratio (x) = 1.11762 0.13961
# Poissons Ratio (y) = 0.27966 0.68189
# Poissons Ratio (z) = 0.01663 0.32466
#
# Static dielectric constant tensor:
#      x y z
#    x 24.304080 0.000000 0.000000 
#    y 0.000000 1.852960 0.000000 
#    z 0.000000 0.000000 2.838070 
# 
# From -- ./inp_files/22201.got.cif
#   From: 2010.05.17/outbox.cif.g08.bks.cpg/sg70_12_cif.got.tgz:22201.got - 2010.06.03 15:57:51.
