data_PCOD9514434
_publ_section_title
;
Structure prediction by ZEFSAII (Michael W. Deem and Ramdas Pophale) SiO2 
 PCOD9514434
Probable space group: F D D D
;
_chemical_formula_sum "Si O2"
_cell_formula_units_Z 176
_cell_length_a 23.868205
_cell_length_b 12.202661
_cell_length_c 31.468267
_cell_angle_alpha 90.000000
_cell_angle_beta 90.000000
_cell_angle_gamma 90.000000
_cell_volume 9165.309436
_symmetry_space_group_name_H-M "F D D D"
_symmetry_group_IT_number 70
_space_group.IT_coordinate_system_code '2'
_symmetry_cell_setting 'orthorhombic'
loop_
_space_group_symop_operation_xyz
x,y,z
1/4-x,1/4-y,z
x,1/4-y,1/4-z
1/4-x,y,1/4-z
-x,-y,-z
3/4+x,3/4+y,-z
-x,3/4+y,3/4+z
3/4+x,-y,3/4+z
x,1/2+y,1/2+z
1/4-x,3/4-y,1/2+z
x,3/4-y,3/4-z
1/4-x,1/2+y,3/4-z
-x,1/2-y,1/2-z
3/4+x,1/4+y,1/2-z
-x,1/4+y,1/4+z
3/4+x,1/2-y,1/4+z
1/2+x,y,1/2+z
3/4-x,1/4-y,1/2+z
1/2+x,1/4-y,3/4-z
3/4-x,y,3/4-z
1/2-x,-y,1/2-z
1/4+x,3/4+y,1/2-z
1/2-x,3/4+y,1/4+z
1/4+x,-y,1/4+z
1/2+x,1/2+y,z
3/4-x,3/4-y,z
1/2+x,3/4-y,1/4-z
3/4-x,1/2+y,1/4-z
1/2-x,1/2-y,-z
1/4+x,1/4+y,-z
1/2-x,1/4+y,3/4+z
1/4+x,1/2-y,3/4+z
loop_
_atom_site_type_symbol
_atom_site_label
_atom_site_fract_x
_atom_site_fract_y
_atom_site_fract_z
Si Si1 0.573253 0.205073 0.943180
Si Si2 0.644484 0.911667 0.761724
Si Si3 0.333189 0.980165 0.154379
Si Si4 0.296965 0.061611 0.447663
Si Si5 0.375000 0.209016 0.875000
Si Si6 0.538038 0.703627 0.191860
O O1 0.625000 0.125000 0.946105
O O2 0.578588 0.293525 0.980691
O O3 0.574075 0.257526 0.895398
O O4 0.514948 0.141507 0.947574
O O5 0.586315 0.912006 0.737023
O O6 0.634703 0.951337 0.809644
O O7 0.686632 0.988978 0.734280
O O8 0.375000 0.875000 0.152456
O O9 0.269705 0.990505 0.174870
O O10 0.331985 0.100074 0.406568
O O11 0.286409 0.928531 0.446240
O O12 0.415043 0.274957 0.843555
#
# Coordination Sequence:
#
# PCOD9514434 Si02
#       6
#    32  32  32  32  16  32
#     4  11  25  41  58  83 121 174 204 240 297 361
#     4  11  23  36  60  90 122 154 199 250 303 360
#     4  11  22  36  59  90 124 152 194 247 311 368
#     4  11  21  37  60  89 123 155 197 249 308 369
#     4  10  19  32  58  90 119 154 185 236 314 374
#     4  11  20  35  61  93 120 149 192 252 317 356
#
# _framework density 19.202843000000001
#
# number of rings (size 3 to 8) (size 9 to 14) (size 15 to 20)
#    0.000    1.091    3.636    5.455    2.545    0.727 
#    0.000    0.000    0.000    0.000    0.000   10.182 
#    0.000    0.000    0.000    0.000    0.000    0.000 
#
# Total GULP energy -244961.908384 kJ/mol
# GULP energy per Si atom -5567.316100 kJ/mol
# Density = 1.915914 g / cm^3
# Si number density = 19.202843 Si / 1000 Ang^3
#
#
#
# Elastic Constant Matrix: (Units=GPa)
#
#
# Indices 1 2 3 4 5 6 
#
# 1 158.7670 9.9813 48.0357 0.0000 0.0000 0.0000
# 2 9.9813 10.7424 16.3385 0.0000 0.0000 0.0000
# 3 48.0357 16.3385 99.3022 0.0000 0.0000 0.0000
# 4 0.0000 0.0000 0.0000 18.4111 0.0000 0.0000
# 5 0.0000 0.0000 0.0000 0.0000 18.9998 0.0000
# 6 0.0000 0.0000 0.0000 0.0000 0.0000 23.3553
#
#
#
# Elastic Compliance Matrix: (Units=1/GPa)
#
#
# Indices 1 2 3 4 5 6 
#
# 1 0.007408 -0.001911 -0.003269 0.000000 0.000000 0.000000
# 2 -0.001911 0.124653 -0.019585 0.000000 0.000000 0.000000
# 3 -0.003269 -0.019585 0.014874 0.000000 0.000000 0.000000
# 4 0.000000 0.000000 0.000000 0.054315 0.000000 0.000000
# 5 0.000000 0.000000 0.000000 0.000000 0.052632 0.000000
# 6 0.000000 0.000000 0.000000 0.000000 0.000000 0.042817
#
#
# Mechanical properties :
#
#
# Convention : Reuss Voigt Hill
#
# Bulk Modulus (GPa) = 10.26648 46.39140 28.32894
# Shear Modulus (GPa) = 13.20317 25.11697 19.16007
#
# Velocity S-wave (km/s) = 2.62499 3.62053 3.16218
# Velocity P-wave (km/s) = 3.81384 6.45668 5.30255
#
# Compressibility (1/GPa) = 0.09740439
#
# Stress axis : x y z
#
# Youngs Moduli (GPa) = 134.99450 8.02228 67.23162
#
# Poissons Ratio (x) = 0.01533 0.21977
# Poissons Ratio (y) = 0.25798 1.31674
# Poissons Ratio (z) = 0.44129 0.15712
#
# Static dielectric constant tensor:
#      x y z
#    x 1.712950 0.000000 0.000000 
#    y 0.000000 1.725040 0.000000 
#    z 0.000000 0.000000 1.700480 
# 
# From -- ./inp_files/54964.got.cif
#   From: 2010.05.17/outbox.cif.g08.bks.cpg/sg70_28_cif.got.tgz:54964.got - 2010.06.03 15:57:51.
