data_PCOD9514573
_publ_section_title
;
Structure prediction by ZEFSAII (Michael W. Deem and Ramdas Pophale) SiO2 
 PCOD9514573
Probable space group: F D D D
;
_chemical_formula_sum "Si O2"
_cell_formula_units_Z 184
_cell_length_a 24.964328
_cell_length_b 16.543243
_cell_length_c 23.425111
_cell_angle_alpha 90.000000
_cell_angle_beta 90.000000
_cell_angle_gamma 90.000000
_cell_volume 9674.358715
_symmetry_space_group_name_H-M "F D D D"
_symmetry_group_IT_number 70
_space_group.IT_coordinate_system_code '2'
_symmetry_cell_setting 'orthorhombic'
loop_
_space_group_symop_operation_xyz
x,y,z
1/4-x,1/4-y,z
x,1/4-y,1/4-z
1/4-x,y,1/4-z
-x,-y,-z
3/4+x,3/4+y,-z
-x,3/4+y,3/4+z
3/4+x,-y,3/4+z
x,1/2+y,1/2+z
1/4-x,3/4-y,1/2+z
x,3/4-y,3/4-z
1/4-x,1/2+y,3/4-z
-x,1/2-y,1/2-z
3/4+x,1/4+y,1/2-z
-x,1/4+y,1/4+z
3/4+x,1/2-y,1/4+z
1/2+x,y,1/2+z
3/4-x,1/4-y,1/2+z
1/2+x,1/4-y,3/4-z
3/4-x,y,3/4-z
1/2-x,-y,1/2-z
1/4+x,3/4+y,1/2-z
1/2-x,3/4+y,1/4+z
1/4+x,-y,1/4+z
1/2+x,1/2+y,z
3/4-x,3/4-y,z
1/2+x,3/4-y,1/4-z
3/4-x,1/2+y,1/4-z
1/2-x,1/2-y,-z
1/4+x,1/4+y,-z
1/2-x,1/4+y,3/4+z
1/4+x,1/2-y,3/4+z
loop_
_atom_site_type_symbol
_atom_site_label
_atom_site_fract_x
_atom_site_fract_y
_atom_site_fract_z
Si Si1 0.875000 0.875000 0.576857
Si Si2 0.432660 0.147164 0.845159
Si Si3 0.964607 0.492255 0.631824
Si Si4 0.625000 0.625000 0.625000
Si Si5 0.823007 0.621630 0.209913
Si Si6 0.040181 0.247565 0.665848
Si Si7 0.570225 0.788269 0.788842
O O1 0.922824 0.831389 0.611245
O O2 0.847333 0.800634 0.543619
O O3 0.375000 0.160067 0.875000
O O4 0.476605 0.208798 0.869524
O O5 0.431114 0.148277 0.776619
O O6 0.451746 0.057753 0.863596
O O7 0.960147 0.549688 0.687832
O O8 0.945488 0.548064 0.579452
O O9 0.585811 0.680579 0.661695
O O10 0.884407 0.646892 0.197851
O O11 0.049648 0.297760 0.724097
O O12 0.981229 0.210839 0.670664
#
# Coordination Sequence:
#
# PCOD9514573 Si02
#       7
#    16  32  32   8  32  32  32
#     4  10  19  36  64  89 123 156 212 251 312 374
#     4  12  22  44  64  96 127 170 210 267 321 377
#     4  10  23  42  63  93 124 171 212 262 317 379
#     4  12  22  36  52  88 124 158 192 254 298 390
#     4  10  22  43  66  87 128 164 215 270 316 372
#     4  11  22  36  57  90 127 158 206 245 325 380
#     4  10  20  38  60  90 119 164 200 259 312 379
#
# _framework density 19.019348999999998
#
# number of rings (size 3 to 8) (size 9 to 14) (size 15 to 20)
#    0.000    1.391    4.348    1.043    0.000    4.174 
#    3.130    1.739    0.000    0.000    0.000    0.000 
#    0.000    0.000    0.000    0.000    0.000    0.000 
#
# Total GULP energy -256811.040855 kJ/mol
# GULP energy per Si atom -5582.848714 kJ/mol
# Density = 1.897606 g / cm^3
# Si number density = 19.019349 Si / 1000 Ang^3
#
#
#
# Elastic Constant Matrix: (Units=GPa)
#
#
# Indices 1 2 3 4 5 6 
#
# 1 142.0460 29.3464 40.3875 0.0000 0.0000 0.0000
# 2 29.3464 53.2317 19.8504 0.0000 0.0000 0.0000
# 3 40.3875 19.8504 97.9293 0.0000 0.0000 0.0000
# 4 0.0000 0.0000 0.0000 14.6587 0.0000 0.0000
# 5 0.0000 0.0000 0.0000 0.0000 -10.7175 0.0000
# 6 0.0000 0.0000 0.0000 0.0000 0.0000 32.0455
#
#
#
# Elastic Compliance Matrix: (Units=1/GPa)
#
#
# Indices 1 2 3 4 5 6 
#
# 1 0.008599 -0.003698 -0.002797 0.000000 0.000000 0.000000
# 2 -0.003698 0.021912 -0.002917 0.000000 0.000000 0.000000
# 3 -0.002797 -0.002917 0.011956 0.000000 0.000000 0.000000
# 4 0.000000 0.000000 0.000000 0.068219 0.000000 0.000000
# 5 0.000000 0.000000 0.000000 0.000000 -0.093305 0.000000
# 6 0.000000 0.000000 0.000000 0.000000 0.000000 0.031206
#
#
# Mechanical properties :
#
#
# Convention : Reuss Voigt Hill
#
# Bulk Modulus (GPa) = 42.29248 52.48618 47.38933
# Shear Modulus (GPa) = 66.40966 20.77219 43.59092
#
# Velocity S-wave (km/s) = 5.91546 3.30837 4.79260
# Velocity P-wave (km/s) = 8.30312 6.49999 7.45626
#
# Compressibility (1/GPa) = 0.02364486
#
# Stress axis : x y z
#
# Youngs Moduli (GPa) = 116.29065 45.63720 83.63919
#
# Poissons Ratio (x) = 0.16875 0.23393
# Poissons Ratio (y) = 0.43001 0.24394
# Poissons Ratio (z) = 0.32525 0.13310
#
# Static dielectric constant tensor:
#      x y z
#    x 1.667440 0.000000 0.000000 
#    y 0.000000 1.650760 0.000000 
#    z 0.000000 0.000000 1.666340 
# 
# From -- ./inp_files/37609.got.cif
#   From: 2010.05.17/outbox.cif.g08.bks.cpg/sg70_19_cif.got.tgz:37609.got - 2010.06.03 15:57:51.
