data_PCOD9514898
_publ_section_title
;
Structure prediction by ZEFSAII (Michael W. Deem and Ramdas Pophale) SiO2 
 PCOD9514898
Probable space group: F D D D
;
_chemical_formula_sum "Si O2"
_cell_formula_units_Z 168
_cell_length_a 24.109855
_cell_length_b 23.244746
_cell_length_c 14.714849
_cell_angle_alpha 90.000000
_cell_angle_beta 90.000000
_cell_angle_gamma 90.000000
_cell_volume 8246.605384
_symmetry_space_group_name_H-M "F D D D"
_symmetry_group_IT_number 70
_space_group.IT_coordinate_system_code '2'
_symmetry_cell_setting 'orthorhombic'
loop_
_space_group_symop_operation_xyz
x,y,z
1/4-x,1/4-y,z
x,1/4-y,1/4-z
1/4-x,y,1/4-z
-x,-y,-z
3/4+x,3/4+y,-z
-x,3/4+y,3/4+z
3/4+x,-y,3/4+z
x,1/2+y,1/2+z
1/4-x,3/4-y,1/2+z
x,3/4-y,3/4-z
1/4-x,1/2+y,3/4-z
-x,1/2-y,1/2-z
3/4+x,1/4+y,1/2-z
-x,1/4+y,1/4+z
3/4+x,1/2-y,1/4+z
1/2+x,y,1/2+z
3/4-x,1/4-y,1/2+z
1/2+x,1/4-y,3/4-z
3/4-x,y,3/4-z
1/2-x,-y,1/2-z
1/4+x,3/4+y,1/2-z
1/2-x,3/4+y,1/4+z
1/4+x,-y,1/4+z
1/2+x,1/2+y,z
3/4-x,3/4-y,z
1/2+x,3/4-y,1/4-z
3/4-x,1/2+y,1/4-z
1/2-x,1/2-y,-z
1/4+x,1/4+y,-z
1/2-x,1/4+y,3/4+z
1/4+x,1/2-y,3/4+z
loop_
_atom_site_type_symbol
_atom_site_label
_atom_site_fract_x
_atom_site_fract_y
_atom_site_fract_z
Si Si1 0.982072 0.625000 0.625000
Si Si2 0.783734 0.636206 0.926333
Si Si3 0.592186 0.214272 0.982210
Si Si4 0.875000 0.875000 0.375000
Si Si5 0.028121 0.505270 0.664416
Si Si6 0.663928 0.673073 0.309386
Si Si7 0.625000 0.943923 0.125000
O O1 0.949580 0.625809 0.530890
O O2 0.017834 0.566748 0.616899
O O3 0.793388 0.702416 0.900222
O O4 0.720944 0.611605 0.918240
O O5 0.822013 0.596442 0.865507
O O6 0.531505 0.234973 0.952899
O O7 0.629975 0.194218 0.897647
O O8 0.588855 0.163685 0.056940
O O9 0.620163 0.265808 0.037461
O O10 0.069654 0.523380 0.745318
O O11 0.625000 0.625000 0.262855
#
# Coordination Sequence:
#
# PCOD9514898 Si02
#       7
#    16  32  32   8  32  32  16
#     4  10  22  42  69  91 132 180 218 284 332 398
#     4  11  23  45  67  98 134 180 224 283 344 413
#     4  11  21  42  69  97 138 176 225 287 335 417
#     4  10  20  36  68  98 128 188 214 278 356 400
#     4  11  23  44  68  98 133 177 230 281 344 404
#     4  11  22  43  70  98 136 180 227 278 342 410
#     4  11  24  43  66  99 140 171 230 280 352 405
#
# _framework density 20.372019000000002
#
# number of rings (size 3 to 8) (size 9 to 14) (size 15 to 20)
#    0.000    1.143    6.667    0.571    0.000    2.286 
#   10.286    4.286    0.000    0.000    0.000    0.000 
#    0.000    0.000    0.000    0.000    0.000    0.000 
#
# Total GULP energy -234381.161391 kJ/mol
# GULP energy per Si atom -5580.503843 kJ/mol
# Density = 2.032565 g / cm^3
# Si number density = 20.372019 Si / 1000 Ang^3
#
#
#
# Elastic Constant Matrix: (Units=GPa)
#
#
# Indices 1 2 3 4 5 6 
#
# 1 91.3963 29.9740 22.2005 0.0000 0.0000 0.0000
# 2 29.9740 152.8549 46.1702 0.0000 0.0000 0.0000
# 3 22.2005 46.1702 90.0099 0.0000 0.0000 0.0000
# 4 0.0000 0.0000 0.0000 55.3877 0.0000 0.0000
# 5 0.0000 0.0000 0.0000 0.0000 16.4228 0.0000
# 6 0.0000 0.0000 0.0000 0.0000 0.0000 33.1930
#
#
#
# Elastic Compliance Matrix: (Units=1/GPa)
#
#
# Indices 1 2 3 4 5 6 
#
# 1 0.012013 -0.001728 -0.002076 0.000000 0.000000 0.000000
# 2 -0.001728 0.007990 -0.003672 0.000000 0.000000 0.000000
# 3 -0.002076 -0.003672 0.013506 0.000000 0.000000 0.000000
# 4 0.000000 0.000000 0.000000 0.018055 0.000000 0.000000
# 5 0.000000 0.000000 0.000000 0.000000 0.060891 0.000000
# 6 0.000000 0.000000 0.000000 0.000000 0.000000 0.030127
#
#
# Mechanical properties :
#
#
# Convention : Reuss Voigt Hill
#
# Bulk Modulus (GPa) = 53.89507 58.99451 56.44479
# Shear Modulus (GPa) = 30.53999 36.72846 33.63422
#
# Velocity S-wave (km/s) = 3.87604 4.25065 4.06766
# Velocity P-wave (km/s) = 6.82235 7.28781 7.05892
#
# Compressibility (1/GPa) = 0.01855457
#
# Stress axis : x y z
#
# Youngs Moduli (GPa) = 83.24628 125.15144 74.04306
#
# Poissons Ratio (x) = 0.21632 0.15373
# Poissons Ratio (y) = 0.14389 0.27191
# Poissons Ratio (z) = 0.17284 0.45959
#
# Static dielectric constant tensor:
#      x y z
#    x 1.729940 0.000000 0.000000 
#    y 0.000000 1.750950 0.000000 
#    z 0.000000 0.000000 1.749540 
# 
# From -- ./inp_files/28813.got.cif
#   From: 2010.05.17/outbox.cif.g08.bks.cpg/sg70_15_cif.got.tgz:28813.got - 2010.06.03 15:57:51.
