data_PCOD9514191
_publ_section_title
;
Structure prediction by ZEFSAII (Michael W. Deem and Ramdas Pophale) SiO2 
 PCOD9514191
Probable space group: F D D D
;
_chemical_formula_sum "Si O2"
_cell_formula_units_Z 232
_cell_length_a 27.820478
_cell_length_b 26.303695
_cell_length_c 17.760975
_cell_angle_alpha 90.000000
_cell_angle_beta 90.000000
_cell_angle_gamma 90.000000
_cell_volume 12997.150584
_symmetry_space_group_name_H-M "F D D D"
_symmetry_group_IT_number 70
_space_group.IT_coordinate_system_code '2'
_symmetry_cell_setting 'orthorhombic'
loop_
_space_group_symop_operation_xyz
x,y,z
1/4-x,1/4-y,z
x,1/4-y,1/4-z
1/4-x,y,1/4-z
-x,-y,-z
3/4+x,3/4+y,-z
-x,3/4+y,3/4+z
3/4+x,-y,3/4+z
x,1/2+y,1/2+z
1/4-x,3/4-y,1/2+z
x,3/4-y,3/4-z
1/4-x,1/2+y,3/4-z
-x,1/2-y,1/2-z
3/4+x,1/4+y,1/2-z
-x,1/4+y,1/4+z
3/4+x,1/2-y,1/4+z
1/2+x,y,1/2+z
3/4-x,1/4-y,1/2+z
1/2+x,1/4-y,3/4-z
3/4-x,y,3/4-z
1/2-x,-y,1/2-z
1/4+x,3/4+y,1/2-z
1/2-x,3/4+y,1/4+z
1/4+x,-y,1/4+z
1/2+x,1/2+y,z
3/4-x,3/4-y,z
1/2+x,3/4-y,1/4-z
3/4-x,1/2+y,1/4-z
1/2-x,1/2-y,-z
1/4+x,1/4+y,-z
1/2-x,1/4+y,3/4+z
1/4+x,1/2-y,3/4+z
loop_
_atom_site_type_symbol
_atom_site_label
_atom_site_fract_x
_atom_site_fract_y
_atom_site_fract_z
Si Si1 0.568291 0.007078 0.922232
Si Si2 0.497959 0.928026 0.970292
Si Si3 0.073788 0.694502 0.487809
Si Si4 0.932604 0.759257 0.579104
Si Si5 0.491179 0.314221 0.870705
Si Si6 0.814181 0.324510 0.526246
Si Si7 0.625000 0.125000 0.125000
Si Si8 0.788289 0.930712 0.443068
O O1 0.562158 0.018243 0.832442
O O2 0.625528 0.009356 0.933384
O O3 0.549355 0.955105 0.961759
O O4 0.536012 0.049640 0.964688
O O5 0.475866 0.946351 0.890575
O O6 0.494848 0.866986 0.968394
O O7 0.045842 0.705778 0.565196
O O8 0.131548 0.691621 0.497305
O O9 0.060739 0.635667 0.468720
O O10 0.943991 0.801549 0.641857
O O11 0.958520 0.775186 0.502510
O O12 0.956802 0.708547 0.611085
O O13 0.491620 0.375000 0.875000
O O14 0.471360 0.303337 0.787402
O O15 0.591068 0.092897 0.179684
#
# Coordination Sequence:
#
# PCOD9514191 Si02
#       8
#    32  32  32  32  32  32   8  32
#     4  10  19  32  49  76 101 132 162 208 249 302
#     4   9  19  33  49  71 105 129 164 203 254 292
#     4   9  17  31  53  74  97 124 164 205 255 297
#     4  11  20  31  51  74  99 130 172 202 249 302
#     4  10  20  34  48  70 100 131 162 205 256 299
#     4   9  18  31  51  76  96 122 161 218 251 284
#     4   8  16  28  48  76 104 120 158 216 256 276
#     4  10  18  31  50  74  96 134 164 208 245 298
#
# _framework density 17.850066000000002
#
# number of rings (size 3 to 8) (size 9 to 14) (size 15 to 20)
#    0.000    2.483    0.000    4.138    0.000    3.862 
#    2.483    0.000    0.000    0.000    0.000    0.000 
#    0.000    0.000    0.000    0.000    0.000    0.000 
#
# Total GULP energy -322959.764200 kJ/mol
# GULP energy per Si atom -5568.271797 kJ/mol
# Density = 1.780944 g / cm^3
# Si number density = 17.850066 Si / 1000 Ang^3
#
#
#
# Elastic Constant Matrix: (Units=GPa)
#
#
# Indices 1 2 3 4 5 6 
#
# 1 45.2565 10.9283 23.3625 0.0000 0.0000 0.0000
# 2 10.9283 19.6156 2.2197 0.0000 0.0000 0.0000
# 3 23.3625 2.2197 57.3668 0.0000 0.0000 0.0000
# 4 0.0000 0.0000 0.0000 21.0358 0.0000 0.0000
# 5 0.0000 0.0000 0.0000 0.0000 20.8358 0.0000
# 6 0.0000 0.0000 0.0000 0.0000 0.0000 -6.8789
#
#
#
# Elastic Compliance Matrix: (Units=1/GPa)
#
#
# Indices 1 2 3 4 5 6 
#
# 1 0.032683 -0.016776 -0.012661 0.000000 0.000000 0.000000
# 2 -0.016776 0.059815 0.004517 0.000000 0.000000 0.000000
# 3 -0.012661 0.004517 0.022413 0.000000 0.000000 0.000000
# 4 0.000000 0.000000 0.000000 0.047538 0.000000 0.000000
# 5 0.000000 0.000000 0.000000 0.000000 0.047994 0.000000
# 6 0.000000 0.000000 0.000000 0.000000 0.000000 -0.145372
#
#
# Mechanical properties :
#
#
# Convention : Reuss Voigt Hill
#
# Bulk Modulus (GPa) = 15.36748 21.69552 18.53150
# Shear Modulus (GPa) = 36.60306 12.71377 24.65841
#
# Velocity S-wave (km/s) = 4.53325 2.67170 3.72078
# Velocity P-wave (km/s) = 6.00236 4.65811 5.37245
#
# Compressibility (1/GPa) = 0.06507249
#
# Stress axis : x y z
#
# Youngs Moduli (GPa) = 30.59689 16.71823 44.61686
#
# Poissons Ratio (x) = 0.28046 0.56489
# Poissons Ratio (y) = 0.51329 -0.20156
# Poissons Ratio (z) = 0.38739 -0.07552
#
# Static dielectric constant tensor:
#      x y z
#    x 1.653780 0.000000 0.000000 
#    y 0.000000 1.651830 0.000000 
#    z 0.000000 0.000000 1.612750 
# 
# From -- ./inp_files/37843.got.cif
#   From: 2010.05.17/outbox.cif.g08.bks.cpg/sg70_19_cif.got.tgz:37843.got - 2010.06.03 15:57:51.
