data_PCOD9514467
_publ_section_title
;
Structure prediction by ZEFSAII (Michael W. Deem and Ramdas Pophale) SiO2 
 PCOD9514467
Probable space group: F D D D
;
_chemical_formula_sum "Si O2"
_cell_formula_units_Z 168
_cell_length_a 12.862853
_cell_length_b 20.694746
_cell_length_c 26.148857
_cell_angle_alpha 90.000000
_cell_angle_beta 90.000000
_cell_angle_gamma 90.000000
_cell_volume 6960.655130
_symmetry_space_group_name_H-M "F D D D"
_symmetry_group_IT_number 70
_space_group.IT_coordinate_system_code '2'
_symmetry_cell_setting 'orthorhombic'
loop_
_space_group_symop_operation_xyz
x,y,z
1/4-x,1/4-y,z
x,1/4-y,1/4-z
1/4-x,y,1/4-z
-x,-y,-z
3/4+x,3/4+y,-z
-x,3/4+y,3/4+z
3/4+x,-y,3/4+z
x,1/2+y,1/2+z
1/4-x,3/4-y,1/2+z
x,3/4-y,3/4-z
1/4-x,1/2+y,3/4-z
-x,1/2-y,1/2-z
3/4+x,1/4+y,1/2-z
-x,1/4+y,1/4+z
3/4+x,1/2-y,1/4+z
1/2+x,y,1/2+z
3/4-x,1/4-y,1/2+z
1/2+x,1/4-y,3/4-z
3/4-x,y,3/4-z
1/2-x,-y,1/2-z
1/4+x,3/4+y,1/2-z
1/2-x,3/4+y,1/4+z
1/4+x,-y,1/4+z
1/2+x,1/2+y,z
3/4-x,3/4-y,z
1/2+x,3/4-y,1/4-z
3/4-x,1/2+y,1/4-z
1/2-x,1/2-y,-z
1/4+x,1/4+y,-z
1/2-x,1/4+y,3/4+z
1/4+x,1/2-y,3/4+z
loop_
_atom_site_type_symbol
_atom_site_label
_atom_site_fract_x
_atom_site_fract_y
_atom_site_fract_z
Si Si1 0.751838 0.864068 0.538043
Si Si2 0.405849 0.704401 0.315907
Si Si3 0.479973 0.415240 0.652240
Si Si4 0.625000 0.625000 0.625000
Si Si5 0.068159 0.924962 0.434777
Si Si6 0.104048 0.781557 0.834727
O O1 0.875000 0.875000 0.530654
O O2 0.699177 0.936194 0.536485
O O3 0.728889 0.832558 0.594004
O O4 0.704349 0.818448 0.494272
O O5 0.375000 0.714047 0.375000
O O6 0.459605 0.634109 0.312105
O O7 0.496830 0.757033 0.309540
O O8 0.375000 0.375000 0.643369
O O9 0.446741 0.481866 0.677544
O O10 0.704498 0.667815 0.591737
O O11 0.120757 0.854069 0.430024
O O12 0.139099 0.969099 0.397553
#
# Coordination Sequence:
#
# PCOD9514467 Si02
#       6
#    32  32  32   8  32  32
#     4  10  19  34  56  86 117 147 198 254 294 350
#     4   9  18  36  57  78 113 153 198 247 299 345
#     4   8  16  34  55  78 108 150 193 240 300 351
#     4   8  16  36  48  72 118 156 172 224 300 362
#     4  10  20  35  56  84 118 153 197 238 308 363
#     4   9  19  36  58  81 114 154 194 234 300 375
#
# _framework density 24.135660000000001
#
# number of rings (size 3 to 8) (size 9 to 14) (size 15 to 20)
#    0.000    3.048    0.952    1.143    0.000    1.524 
#   20.571    9.524    0.000    2.286    0.000    0.000 
#    0.000    0.000    0.000    0.000    0.000    0.381 
#
# Total GULP energy -233906.917536 kJ/mol
# GULP energy per Si atom -5569.212322 kJ/mol
# Density = 2.408073 g / cm^3
# Si number density = 24.135660 Si / 1000 Ang^3
#
#
#
# Elastic Constant Matrix: (Units=GPa)
#
#
# Indices 1 2 3 4 5 6 
#
# 1 121.9279 41.9105 21.9075 0.0000 0.0000 0.0000
# 2 41.9105 96.5960 -5.1554 0.0000 0.0000 0.0000
# 3 21.9075 -5.1554 96.4632 0.0000 0.0000 0.0000
# 4 0.0000 0.0000 0.0000 14.0865 0.0000 0.0000
# 5 0.0000 0.0000 0.0000 0.0000 -2.0661 0.0000
# 6 0.0000 0.0000 0.0000 0.0000 0.0000 25.7242
#
#
#
# Elastic Compliance Matrix: (Units=1/GPa)
#
#
# Indices 1 2 3 4 5 6 
#
# 1 0.010237 -0.004579 -0.002570 0.000000 0.000000 0.000000
# 2 -0.004579 0.012430 0.001704 0.000000 0.000000 0.000000
# 3 -0.002570 0.001704 0.011041 0.000000 0.000000 0.000000
# 4 0.000000 0.000000 0.000000 0.070990 0.000000 0.000000
# 5 0.000000 0.000000 0.000000 0.000000 -0.484001 0.000000
# 6 0.000000 0.000000 0.000000 0.000000 0.000000 0.038874
#
#
# Mechanical properties :
#
#
# Convention : Reuss Voigt Hill
#
# Bulk Modulus (GPa) = 43.82132 48.03471 45.92801
# Shear Modulus (GPa) = -15.53115 24.63720 4.55303
#
# Velocity S-wave (km/s) = -2.53947 3.19843 1.37496
# Velocity P-wave (km/s) = 3.09792 5.79527 4.64662
#
# Compressibility (1/GPa) = 0.02281994
#
# Stress axis : x y z
#
# Youngs Moduli (GPa) = 97.68350 80.45073 90.56902
#
# Poissons Ratio (x) = 0.36837 0.23273
# Poissons Ratio (y) = 0.44727 -0.15435
# Poissons Ratio (z) = 0.25101 -0.13710
#
# Static dielectric constant tensor:
#      x y z
#    x 2.386180 0.000000 0.000000 
#    y 0.000000 1.940270 0.000000 
#    z 0.000000 0.000000 2.026450 
# 
# From -- ./inp_files/66011.got.cif
#   From: 2010.05.17/outbox.cif.g08.bks.cpg/sg70_34_cif.got.tgz:66011.got - 2010.06.03 15:57:51.
