data_PCOD9514511
_publ_section_title
;
Structure prediction by ZEFSAII (Michael W. Deem and Ramdas Pophale) SiO2 
 PCOD9514511
Probable space group: F D D D
;
_chemical_formula_sum "Si O2"
_cell_formula_units_Z 208
_cell_length_a 16.376871
_cell_length_b 30.548130
_cell_length_c 21.570890
_cell_angle_alpha 90.000000
_cell_angle_beta 90.000000
_cell_angle_gamma 90.000000
_cell_volume 10791.544909
_symmetry_space_group_name_H-M "F D D D"
_symmetry_group_IT_number 70
_space_group.IT_coordinate_system_code '2'
_symmetry_cell_setting 'orthorhombic'
loop_
_space_group_symop_operation_xyz
x,y,z
1/4-x,1/4-y,z
x,1/4-y,1/4-z
1/4-x,y,1/4-z
-x,-y,-z
3/4+x,3/4+y,-z
-x,3/4+y,3/4+z
3/4+x,-y,3/4+z
x,1/2+y,1/2+z
1/4-x,3/4-y,1/2+z
x,3/4-y,3/4-z
1/4-x,1/2+y,3/4-z
-x,1/2-y,1/2-z
3/4+x,1/4+y,1/2-z
-x,1/4+y,1/4+z
3/4+x,1/2-y,1/4+z
1/2+x,y,1/2+z
3/4-x,1/4-y,1/2+z
1/2+x,1/4-y,3/4-z
3/4-x,y,3/4-z
1/2-x,-y,1/2-z
1/4+x,3/4+y,1/2-z
1/2-x,3/4+y,1/4+z
1/4+x,-y,1/4+z
1/2+x,1/2+y,z
3/4-x,3/4-y,z
1/2+x,3/4-y,1/4-z
3/4-x,1/2+y,1/4-z
1/2-x,1/2-y,-z
1/4+x,1/4+y,-z
1/2-x,1/4+y,3/4+z
1/4+x,1/2-y,3/4+z
loop_
_atom_site_type_symbol
_atom_site_label
_atom_site_fract_x
_atom_site_fract_y
_atom_site_fract_z
Si Si1 0.539364 0.031640 0.807355
Si Si2 0.952457 0.453973 0.498232
Si Si3 0.514239 0.220119 0.953032
Si Si4 0.704938 0.869283 0.708085
Si Si5 0.452054 0.972680 0.051737
Si Si6 0.125000 0.234470 0.125000
Si Si7 0.984620 0.128617 0.810538
O O1 0.634316 0.044984 0.802231
O O2 0.491840 0.072077 0.775633
O O3 0.514316 0.022787 0.877932
O O4 0.523838 0.989775 0.765437
O O5 0.905646 0.455528 0.432530
O O6 0.000000 0.500000 0.500000
O O7 0.007441 0.411186 0.507423
O O8 0.607090 0.236054 0.946194
O O9 0.450277 0.235597 0.899759
O O10 0.518391 0.168173 0.957670
O O11 0.728281 0.872823 0.635374
O O12 0.607918 0.867976 0.713700
O O13 0.464857 0.920858 0.039804
O O14 0.500000 0.000000 0.000000
#
# Coordination Sequence:
#
# PCOD9514511 Si02
#       7
#    32  32  32  32  32  16  32
#     4  10  22  37  57  84 114 150 190 237 292 349
#     4  11  20  34  58  87 121 157 194 240 295 356
#     4  11  21  38  59  85 118 149 188 237 289 348
#     4  10  19  35  57  82 114 149 190 237 285 344
#     4  11  23  39  60  84 112 149 193 242 293 344
#     4  10  22  36  57  92 124 156 196 242 297 360
#     4  10  20  35  59  86 108 144 195 239 284 347
#
# _framework density 19.274349000000001
#
# number of rings (size 3 to 8) (size 9 to 14) (size 15 to 20)
#    0.000    1.538    0.000    7.385    0.000    4.308 
#    0.000    6.923    0.000    7.385    0.000    0.000 
#    0.000    0.000    0.000    0.000    0.000    0.000 
#
# Total GULP energy -290359.150151 kJ/mol
# GULP energy per Si atom -5583.829811 kJ/mol
# Density = 1.923048 g / cm^3
# Si number density = 19.274349 Si / 1000 Ang^3
#
#
#
# Elastic Constant Matrix: (Units=GPa)
#
#
# Indices 1 2 3 4 5 6 
#
# 1 103.5228 31.4741 28.3546 0.0000 0.0000 0.0000
# 2 31.4741 69.1272 30.7239 0.0000 0.0000 0.0000
# 3 28.3546 30.7239 74.1951 0.0000 0.0000 0.0000
# 4 0.0000 0.0000 0.0000 27.9857 0.0000 0.0000
# 5 0.0000 0.0000 0.0000 0.0000 27.3011 0.0000
# 6 0.0000 0.0000 0.0000 0.0000 0.0000 38.7460
#
#
#
# Elastic Compliance Matrix: (Units=1/GPa)
#
#
# Indices 1 2 3 4 5 6 
#
# 1 0.011657 -0.004078 -0.002766 0.000000 0.000000 0.000000
# 2 -0.004078 0.019156 -0.006374 0.000000 0.000000 0.000000
# 3 -0.002766 -0.006374 0.017174 0.000000 0.000000 0.000000
# 4 0.000000 0.000000 0.000000 0.035733 0.000000 0.000000
# 5 0.000000 0.000000 0.000000 0.000000 0.036629 0.000000
# 6 0.000000 0.000000 0.000000 0.000000 0.000000 0.025809
#
#
# Mechanical properties :
#
#
# Convention : Reuss Voigt Hill
#
# Bulk Modulus (GPa) = 46.40125 47.55002 46.97564
# Shear Modulus (GPa) = 27.81210 29.22606 28.51908
#
# Velocity S-wave (km/s) = 3.80275 3.89822 3.85078
# Velocity P-wave (km/s) = 6.58844 6.70710 6.64803
#
# Compressibility (1/GPa) = 0.02155114
#
# Stress axis : x y z
#
# Youngs Moduli (GPa) = 85.78356 52.20360 58.22586
#
# Poissons Ratio (x) = 0.21289 0.16106
# Poissons Ratio (y) = 0.34984 0.37112
# Poissons Ratio (z) = 0.23730 0.33274
#
# Static dielectric constant tensor:
#      x y z
#    x 1.719750 0.000000 0.000000 
#    y 0.000000 1.656520 0.000000 
#    z 0.000000 0.000000 1.689080 
# 
# From -- ./inp_files/43963.got.cif
#   From: 2010.05.17/outbox.cif.g08.bks.cpg/sg70_22_cif.got.tgz:43963.got - 2010.06.03 15:57:51.
