data_PCOD9514182
_publ_section_title
;
Structure prediction by ZEFSAII (Michael W. Deem and Ramdas Pophale) SiO2 
 PCOD9514182
Probable space group: F D D D
;
_chemical_formula_sum "Si O2"
_cell_formula_units_Z 176
_cell_length_a 23.060565
_cell_length_b 22.612274
_cell_length_c 14.254502
_cell_angle_alpha 90.000000
_cell_angle_beta 90.000000
_cell_angle_gamma 90.000000
_cell_volume 7433.035931
_symmetry_space_group_name_H-M "F D D D"
_symmetry_group_IT_number 70
_space_group.IT_coordinate_system_code '2'
_symmetry_cell_setting 'orthorhombic'
loop_
_space_group_symop_operation_xyz
x,y,z
1/4-x,1/4-y,z
x,1/4-y,1/4-z
1/4-x,y,1/4-z
-x,-y,-z
3/4+x,3/4+y,-z
-x,3/4+y,3/4+z
3/4+x,-y,3/4+z
x,1/2+y,1/2+z
1/4-x,3/4-y,1/2+z
x,3/4-y,3/4-z
1/4-x,1/2+y,3/4-z
-x,1/2-y,1/2-z
3/4+x,1/4+y,1/2-z
-x,1/4+y,1/4+z
3/4+x,1/2-y,1/4+z
1/2+x,y,1/2+z
3/4-x,1/4-y,1/2+z
1/2+x,1/4-y,3/4-z
3/4-x,y,3/4-z
1/2-x,-y,1/2-z
1/4+x,3/4+y,1/2-z
1/2-x,3/4+y,1/4+z
1/4+x,-y,1/4+z
1/2+x,1/2+y,z
3/4-x,3/4-y,z
1/2+x,3/4-y,1/4-z
3/4-x,1/2+y,1/4-z
1/2-x,1/2-y,-z
1/4+x,1/4+y,-z
1/2-x,1/4+y,3/4+z
1/4+x,1/2-y,3/4+z
loop_
_atom_site_type_symbol
_atom_site_label
_atom_site_fract_x
_atom_site_fract_y
_atom_site_fract_z
Si Si1 0.261413 0.341557 0.062455
Si Si2 0.790053 0.875000 0.875000
Si Si3 0.132624 0.310907 0.984237
Si Si4 0.522575 0.252067 0.543019
Si Si5 0.385997 0.053279 0.019070
Si Si6 0.970433 0.533619 0.874636
O O1 0.266925 0.292306 0.141247
O O2 0.253496 0.403654 0.116237
O O3 0.307757 0.345489 0.976606
O O4 0.199313 0.322415 0.014852
O O5 0.764370 0.934377 0.923008
O O6 0.104464 0.376258 0.991270
O O7 0.130009 0.291984 0.875931
O O8 0.090405 0.269398 0.044697
O O9 0.508283 0.262245 0.433479
O O10 0.333348 0.039622 0.948918
O O11 0.442015 0.021956 0.974630
#
# Coordination Sequence:
#
# PCOD9514182 Si02
#       6
#    32  16  32  32  32  32
#     4  10  18  35  51  74 105 142 173 211 270 318
#     4  10  22  34  51  74 106 138 170 213 256 316
#     4  10  18  30  54  77 102 138 172 219 267 312
#     4  11  20  31  51  79 106 134 174 218 259 308
#     4   9  17  33  52  76 104 135 175 214 270 312
#     4   9  18  32  53  78 105 136 173 220 257 321
#
# _framework density 23.678076999999998
#
# number of rings (size 3 to 8) (size 9 to 14) (size 15 to 20)
#    0.000    2.182    1.818    4.364    0.000    0.727 
#    0.000    1.818    0.000    0.000    0.000    0.000 
#    0.000    0.000    0.000    0.000    0.000    0.000 
#
# Total GULP energy -244940.438497 kJ/mol
# GULP energy per Si atom -5566.828148 kJ/mol
# Density = 2.362418 g / cm^3
# Si number density = 23.678077 Si / 1000 Ang^3
#
#
#
# Elastic Constant Matrix: (Units=GPa)
#
#
# Indices 1 2 3 4 5 6 
#
# 1 65.2635 8.5913 5.1133 0.0000 0.0000 0.0000
# 2 8.5913 43.5044 2.4094 0.0000 0.0000 0.0000
# 3 5.1133 2.4094 96.6787 0.0000 0.0000 0.0000
# 4 0.0000 0.0000 0.0000 26.3954 0.0000 0.0000
# 5 0.0000 0.0000 0.0000 0.0000 17.5825 0.0000
# 6 0.0000 0.0000 0.0000 0.0000 0.0000 0.9299
#
#
#
# Elastic Compliance Matrix: (Units=1/GPa)
#
#
# Indices 1 2 3 4 5 6 
#
# 1 0.015787 -0.003076 -0.000758 0.000000 0.000000 0.000000
# 2 -0.003076 0.023617 -0.000426 0.000000 0.000000 0.000000
# 3 -0.000758 -0.000426 0.010394 0.000000 0.000000 0.000000
# 4 0.000000 0.000000 0.000000 0.037885 0.000000 0.000000
# 5 0.000000 0.000000 0.000000 0.000000 0.056875 0.000000
# 6 0.000000 0.000000 0.000000 0.000000 0.000000 1.075336
#
#
# Mechanical properties :
#
#
# Convention : Reuss Voigt Hill
#
# Bulk Modulus (GPa) = 24.22566 26.40828 25.31697
# Shear Modulus (GPa) = 4.02520 21.60373 12.81447
#
# Velocity S-wave (km/s) = 1.30524 3.02386 2.32888
# Velocity P-wave (km/s) = 3.53907 4.83414 4.23639
#
# Compressibility (1/GPa) = 0.04127855
#
# Stress axis : x y z
#
# Youngs Moduli (GPa) = 63.34409 42.34217 96.20690
#
# Poissons Ratio (x) = 0.13023 0.07295
# Poissons Ratio (y) = 0.19482 0.04098
# Poissons Ratio (z) = 0.04803 0.01803
#
# Static dielectric constant tensor:
#      x y z
#    x 2.008390 0.000000 0.000000 
#    y 0.000000 1.908410 0.000000 
#    z 0.000000 0.000000 1.995460 
# 
# From -- ./inp_files/29051.got.cif
#   From: 2010.05.17/outbox.cif.g08.bks.cpg/sg70_15_cif.got.tgz:29051.got - 2010.06.03 15:57:51.
