data_PCOD9514023
_publ_section_title
;
Structure prediction by ZEFSAII (Michael W. Deem and Ramdas Pophale) SiO2 
 PCOD9514023
Probable space group: F M M M
;
_chemical_formula_sum "Si O2"
_cell_formula_units_Z 48
_cell_length_a 24.000000
_cell_length_b 15.000000
_cell_length_c 27.000000
_cell_angle_alpha 90.000000
_cell_angle_beta 90.000000
_cell_angle_gamma 90.000000
_cell_volume 9720.000000
_symmetry_space_group_name_H-M "F M M M"
_symmetry_group_IT_number 69
_symmetry_cell_setting 'orthorhombic'
loop_
_space_group_symop_operation_xyz
x,y,z
-x,-y,z
x,-y,-z
-x,y,-z
-x,-y,-z
x,y,-z
-x,y,z
x,-y,z
x,1/2+y,1/2+z
-x,1/2-y,1/2+z
x,1/2-y,1/2-z
-x,1/2+y,1/2-z
-x,1/2-y,1/2-z
x,1/2+y,1/2-z
-x,1/2+y,1/2+z
x,1/2-y,1/2+z
1/2+x,y,1/2+z
1/2-x,-y,1/2+z
1/2+x,-y,1/2-z
1/2-x,y,1/2-z
1/2-x,-y,1/2-z
1/2+x,y,1/2-z
1/2-x,y,1/2+z
1/2+x,-y,1/2+z
1/2+x,1/2+y,z
1/2-x,1/2-y,z
1/2+x,1/2-y,-z
1/2-x,1/2+y,-z
1/2-x,1/2-y,-z
1/2+x,1/2+y,-z
1/2-x,1/2+y,z
1/2+x,1/2-y,z
loop_
_atom_site_type_symbol
_atom_site_label
_atom_site_fract_x
_atom_site_fract_y
_atom_site_fract_z
Si Si1 0.159059 0.397921 0.858273
Si Si2 0.432408 0.653628 0.442178
Si Si3 0.143786 0.854042 0.757763
Si Si4 0.435647 0.500000 0.077208
Si Si5 0.715180 0.109865 0.355166
Si Si6 0.636988 0.666553 0.054128
Si Si7 0.564442 0.000000 0.696542
O O1 0.170273 0.500000 0.868065
O O2 0.106593 0.380269 0.895727
O O3 0.149876 0.387050 0.799066
O O4 0.221334 0.357272 0.865340
O O5 0.424567 0.617882 0.500000
O O6 0.500000 0.649481 0.432838
O O7 0.405902 0.751677 0.443898
O O8 0.131949 0.750000 0.750000
O O9 0.193574 0.865678 0.799100
O O10 0.095220 0.913096 0.782185
O O11 0.500000 0.500000 0.064046
O O12 0.403223 0.416891 0.056507
O O13 0.431352 0.500000 0.137126
O O14 0.676602 0.154381 0.397817
O O15 0.710451 0.000000 0.358548
O O16 0.666490 0.670101 0.000000
O O17 0.500000 0.000000 0.710603
#
# Coordination Sequence:
#
# PCOD9514023 Si02
#       7
#    32  32  32  16  32  32  16
#     4  11  25  42  69  96 122 170 223 265 322 392
#     4  10  24  45  65  91 130 169 214 274 328 378
#     4  12  23  42  68  95 130 176 218 268 329 390
#     4  11  21  36  60  88 123 168 209 250 310 384
#     4  11  22  42  64  95 137 168 206 269 330 388
#     4  11  21  37  63  93 126 168 210 257 318 385
#     4  11  24  43  62  92 137 176 215 271 328 375
#
# _framework density 4.9382720000000004
#
# number of rings (size 3 to 8) (size 9 to 14) (size 15 to 20)
#    0.000    1.000    4.167    2.250    0.000    8.333 
#    0.000    4.167    0.000    0.000    0.000    0.000 
#    0.000    0.000    0.000    0.000    0.000    0.000 
#
# Total GULP energy -267265.543489 kJ/mol
# GULP energy per Si atom -5568.032156 kJ/mol
# Density = 0.492703 g / cm^3
# Si number density = 4.938272 Si / 1000 Ang^3
#
#
#
# Elastic Constant Matrix: (Units=GPa)
#
#
# Indices 1 2 3 4 5 6 
#
# 1 150.8557 21.7544 84.3319 0.0000 0.0000 0.0000
# 2 21.7544 75.2528 20.1701 0.0000 0.0000 0.0000
# 3 84.3319 20.1701 157.3681 0.0000 0.0000 0.0000
# 4 0.0000 0.0000 0.0000 36.4787 0.0000 0.0000
# 5 0.0000 0.0000 0.0000 0.0000 36.7739 0.0000
# 6 0.0000 0.0000 0.0000 0.0000 0.0000 26.0091
#
#
#
# Elastic Compliance Matrix: (Units=1/GPa)
#
#
# Indices 1 2 3 4 5 6 
#
# 1 0.009614 -0.001448 -0.004966 0.000000 0.000000 0.000000
# 2 -0.001448 0.013979 -0.001016 0.000000 0.000000 0.000000
# 3 -0.004966 -0.001016 0.009146 0.000000 0.000000 0.000000
# 4 0.000000 0.000000 0.000000 0.027413 0.000000 0.000000
# 5 0.000000 0.000000 0.000000 0.000000 0.027193 0.000000
# 6 0.000000 0.000000 0.000000 0.000000 0.000000 0.038448
#
#
# Mechanical properties :
#
#
# Convention : Reuss Voigt Hill
#
# Bulk Modulus (GPa) = 55.93139 70.66548 63.29844
# Shear Modulus (GPa) = 34.10306 37.00037 35.55171
#
# Velocity S-wave (km/s) = 4.15959 4.33268 4.24701
# Velocity P-wave (km/s) = 7.17261 7.80266 7.49426
#
# Compressibility (1/GPa) = 0.01787905
#
# Stress axis : x y z
#
# Youngs Moduli (GPa) = 104.01448 71.53377 109.33514
#
# Poissons Ratio (x) = 0.10359 0.54301
# Poissons Ratio (y) = 0.15062 0.11106
# Poissons Ratio (z) = 0.51658 0.07266
#
# Static dielectric constant tensor:
#      x y z
#    x 1.693030 0.000000 0.000000 
#    y 0.000000 1.721410 0.000000 
#    z 0.000000 0.000000 1.781330 
# 
# From -- ./inp_files/41144.got.cif
#   From: 2010.05.17/outbox.ucp.g08.bks.cvg/sg69_21_cif.got.tgz:41144.got - 2010.06.11 16:51:34.
