data_PCOD9514378
_publ_section_title
;
Structure prediction by ZEFSAII (Michael W. Deem and Ramdas Pophale) SiO2 
 PCOD9514378
Probable space group: F D D D
;
_chemical_formula_sum "Si O2"
_cell_formula_units_Z 192
_cell_length_a 31.368091
_cell_length_b 10.482969
_cell_length_c 28.241819
_cell_angle_alpha 90.000000
_cell_angle_beta 90.000000
_cell_angle_gamma 90.000000
_cell_volume 9286.777832
_symmetry_space_group_name_H-M "F D D D"
_symmetry_group_IT_number 70
_space_group.IT_coordinate_system_code '2'
_symmetry_cell_setting 'orthorhombic'
loop_
_space_group_symop_operation_xyz
x,y,z
1/4-x,1/4-y,z
x,1/4-y,1/4-z
1/4-x,y,1/4-z
-x,-y,-z
3/4+x,3/4+y,-z
-x,3/4+y,3/4+z
3/4+x,-y,3/4+z
x,1/2+y,1/2+z
1/4-x,3/4-y,1/2+z
x,3/4-y,3/4-z
1/4-x,1/2+y,3/4-z
-x,1/2-y,1/2-z
3/4+x,1/4+y,1/2-z
-x,1/4+y,1/4+z
3/4+x,1/2-y,1/4+z
1/2+x,y,1/2+z
3/4-x,1/4-y,1/2+z
1/2+x,1/4-y,3/4-z
3/4-x,y,3/4-z
1/2-x,-y,1/2-z
1/4+x,3/4+y,1/2-z
1/2-x,3/4+y,1/4+z
1/4+x,-y,1/4+z
1/2+x,1/2+y,z
3/4-x,3/4-y,z
1/2+x,3/4-y,1/4-z
3/4-x,1/2+y,1/4-z
1/2-x,1/2-y,-z
1/4+x,1/4+y,-z
1/2-x,1/4+y,3/4+z
1/4+x,1/2-y,3/4+z
loop_
_atom_site_type_symbol
_atom_site_label
_atom_site_fract_x
_atom_site_fract_y
_atom_site_fract_z
Si Si1 0.125000 0.125000 0.256369
Si Si2 0.367167 0.161656 0.926698
Si Si3 0.101739 0.988805 0.421111
Si Si4 0.447398 0.353630 0.086223
Si Si5 0.426510 0.125000 0.625000
Si Si6 0.167680 0.714260 0.020552
Si Si7 0.286664 0.779701 0.829598
O O1 0.114445 0.240794 0.220294
O O2 0.165452 0.143445 0.291510
O O3 0.375000 0.220557 0.875000
O O4 0.406691 0.069815 0.940564
O O5 0.326025 0.069866 0.921481
O O6 0.125000 0.125000 0.422897
O O7 0.073254 0.007848 0.374815
O O8 0.076714 0.972456 0.469443
O O9 0.142302 0.896583 0.417253
O O10 0.449888 0.494587 0.110928
O O11 0.493579 0.299380 0.075514
O O12 0.125000 0.625000 0.019340
O O13 0.205842 0.623768 0.035373
O O14 0.287449 0.875000 0.875000
#
# Coordination Sequence:
#
# PCOD9514378 Si02
#       7
#    16  32  32  32  16  32  32
#     4  12  25  46  70 102 140 186 231 278 352 428
#     4  11  23  45  71  95 135 196 231 276 340 418
#     4   9  18  36  65  98 124 173 218 269 338 412
#     4  11  24  42  69 104 141 174 220 292 347 415
#     4  10  18  40  68  94 141 174 217 262 354 414
#     4   9  19  37  69  93 126 174 228 271 338 399
#     4  11  24  44  68 101 140 174 233 296 339 400
#
# _framework density 20.674555999999999
#
# number of rings (size 3 to 8) (size 9 to 14) (size 15 to 20)
#    0.000    1.667    4.167    1.250    1.167    2.000 
#    6.000    1.667    0.000    0.000    0.000    0.000 
#    0.000    0.000    0.000    0.000    0.000    0.000 
#
# Total GULP energy -267717.740901 kJ/mol
# GULP energy per Si atom -5577.452935 kJ/mol
# Density = 2.062750 g / cm^3
# Si number density = 20.674556 Si / 1000 Ang^3
#
#
#
# Elastic Constant Matrix: (Units=GPa)
#
#
# Indices 1 2 3 4 5 6 
#
# 1 115.9420 62.2406 53.9121 0.0000 0.0000 0.0000
# 2 62.2406 125.3270 52.0216 0.0000 0.0000 0.0000
# 3 53.9121 52.0216 159.8063 0.0000 0.0000 0.0000
# 4 0.0000 0.0000 0.0000 19.6396 0.0000 0.0000
# 5 0.0000 0.0000 0.0000 0.0000 7.8435 0.0000
# 6 0.0000 0.0000 0.0000 0.0000 0.0000 35.6281
#
#
#
# Elastic Compliance Matrix: (Units=1/GPa)
#
#
# Indices 1 2 3 4 5 6 
#
# 1 0.012606 -0.005197 -0.002561 0.000000 0.000000 0.000000
# 2 -0.005197 0.011369 -0.001947 0.000000 0.000000 0.000000
# 3 -0.002561 -0.001947 0.007755 0.000000 0.000000 0.000000
# 4 0.000000 0.000000 0.000000 0.050917 0.000000 0.000000
# 5 0.000000 0.000000 0.000000 0.000000 0.127495 0.000000
# 6 0.000000 0.000000 0.000000 0.000000 0.000000 0.028068
#
#
# Mechanical properties :
#
#
# Convention : Reuss Voigt Hill
#
# Bulk Modulus (GPa) = 81.17777 81.93597 81.55687
# Shear Modulus (GPa) = 19.10384 28.14897 23.62641
#
# Velocity S-wave (km/s) = 3.04308 3.69389 3.38417
# Velocity P-wave (km/s) = 7.19006 7.60989 7.40295
#
# Compressibility (1/GPa) = 0.01231864
#
# Stress axis : x y z
#
# Youngs Moduli (GPa) = 79.32812 87.96108 128.94205
#
# Poissons Ratio (x) = 0.45717 0.33019
# Poissons Ratio (y) = 0.41230 0.25110
# Poissons Ratio (z) = 0.20314 0.17130
#
# Static dielectric constant tensor:
#      x y z
#    x 1.706010 0.000000 0.000000 
#    y 0.000000 1.816710 0.000000 
#    z 0.000000 0.000000 1.831700 
# 
# From -- ./inp_files/62242.got.cif
#   From: 2010.05.17/outbox.cif.g08.bks.cpg/sg70_32_cif.got.tgz:62242.got - 2010.06.03 15:57:51.
