data_PCOD9514837
_publ_section_title
;
Structure prediction by ZEFSAII (Michael W. Deem and Ramdas Pophale) SiO2 
 PCOD9514837
Probable space group: F D D D
;
_chemical_formula_sum "Si O2"
_cell_formula_units_Z 208
_cell_length_a 25.092138
_cell_length_b 19.265579
_cell_length_c 20.284112
_cell_angle_alpha 90.000000
_cell_angle_beta 90.000000
_cell_angle_gamma 90.000000
_cell_volume 9805.635218
_symmetry_space_group_name_H-M "F D D D"
_symmetry_group_IT_number 70
_space_group.IT_coordinate_system_code '2'
_symmetry_cell_setting 'orthorhombic'
loop_
_space_group_symop_operation_xyz
x,y,z
1/4-x,1/4-y,z
x,1/4-y,1/4-z
1/4-x,y,1/4-z
-x,-y,-z
3/4+x,3/4+y,-z
-x,3/4+y,3/4+z
3/4+x,-y,3/4+z
x,1/2+y,1/2+z
1/4-x,3/4-y,1/2+z
x,3/4-y,3/4-z
1/4-x,1/2+y,3/4-z
-x,1/2-y,1/2-z
3/4+x,1/4+y,1/2-z
-x,1/4+y,1/4+z
3/4+x,1/2-y,1/4+z
1/2+x,y,1/2+z
3/4-x,1/4-y,1/2+z
1/2+x,1/4-y,3/4-z
3/4-x,y,3/4-z
1/2-x,-y,1/2-z
1/4+x,3/4+y,1/2-z
1/2-x,3/4+y,1/4+z
1/4+x,-y,1/4+z
1/2+x,1/2+y,z
3/4-x,3/4-y,z
1/2+x,3/4-y,1/4-z
3/4-x,1/2+y,1/4-z
1/2-x,1/2-y,-z
1/4+x,1/4+y,-z
1/2-x,1/4+y,3/4+z
1/4+x,1/2-y,3/4+z
loop_
_atom_site_type_symbol
_atom_site_label
_atom_site_fract_x
_atom_site_fract_y
_atom_site_fract_z
Si Si1 0.025370 0.030171 0.201508
Si Si2 0.836614 0.169702 0.483869
Si Si3 0.768849 0.886886 0.082283
Si Si4 0.125000 0.224409 0.125000
Si Si5 0.301203 0.232713 0.600105
Si Si6 0.574920 0.255655 0.872347
Si Si7 0.950265 0.139630 0.516745
O O1 0.028440 0.946123 0.214228
O O2 0.965852 0.039281 0.174552
O O3 0.039188 0.072074 0.267477
O O4 0.069048 0.055242 0.149359
O O5 0.789331 0.136824 0.441781
O O6 0.857722 0.232458 0.439096
O O7 0.821307 0.199732 0.555155
O O8 0.889305 0.124818 0.495909
O O9 0.804011 0.820791 0.101968
O O10 0.770796 0.945130 0.138814
O O11 0.365060 0.247128 0.599828
O O12 0.279613 0.185131 0.540699
O O13 0.296558 0.185893 0.666458
#
# Coordination Sequence:
#
# PCOD9514837 Si02
#       7
#    32  32  32  16  32  32  32
#     4  10  21  35  57  79 111 144 188 226 281 326
#     4  10  20  36  57  76 113 151 188 216 279 340
#     4  11  21  34  54  84 110 143 182 237 275 329
#     4  10  20  38  53  76 110 151 176 230 264 340
#     4   9  18  33  55  79 111 141 183 226 282 323
#     4  11  21  37  53  82 116 152 180 231 275 348
#     4   8  17  35  55  78 105 146 188 224 264 348
#
# _framework density 21.212292999999999
#
# number of rings (size 3 to 8) (size 9 to 14) (size 15 to 20)
#    0.000    2.154    1.538    2.769    0.000    1.846 
#    0.000    1.538    0.000    0.000    0.000    0.000 
#    0.000    0.000    0.000    0.000    0.000    0.000 
#
# Total GULP energy -289879.606744 kJ/mol
# GULP energy per Si atom -5574.607822 kJ/mol
# Density = 2.116401 g / cm^3
# Si number density = 21.212293 Si / 1000 Ang^3
#
#
#
# Elastic Constant Matrix: (Units=GPa)
#
#
# Indices 1 2 3 4 5 6 
#
# 1 41.1259 20.0717 2.0168 0.0000 0.0000 0.0000
# 2 20.0717 99.5377 19.9557 0.0000 0.0000 0.0000
# 3 2.0168 19.9557 64.1595 0.0000 0.0000 0.0000
# 4 0.0000 0.0000 0.0000 15.6100 0.0000 0.0000
# 5 0.0000 0.0000 0.0000 0.0000 27.5387 0.0000
# 6 0.0000 0.0000 0.0000 0.0000 0.0000 7.8078
#
#
#
# Elastic Compliance Matrix: (Units=1/GPa)
#
#
# Indices 1 2 3 4 5 6 
#
# 1 0.027019 -0.005629 0.000901 0.000000 0.000000 0.000000
# 2 -0.005629 0.011887 -0.003520 0.000000 0.000000 0.000000
# 3 0.000901 -0.003520 0.016653 0.000000 0.000000 0.000000
# 4 0.000000 0.000000 0.000000 0.064061 0.000000 0.000000
# 5 0.000000 0.000000 0.000000 0.000000 0.036313 0.000000
# 6 0.000000 0.000000 0.000000 0.000000 0.000000 0.128077
#
#
# Mechanical properties :
#
#
# Convention : Reuss Voigt Hill
#
# Bulk Modulus (GPa) = 25.59974 32.10127 28.85051
# Shear Modulus (GPa) = 15.94760 21.04322 18.49541
#
# Velocity S-wave (km/s) = 2.74489 3.15307 2.95603
# Velocity P-wave (km/s) = 4.70536 5.33123 5.02804
#
# Compressibility (1/GPa) = 0.03906289
#
# Stress axis : x y z
#
# Youngs Moduli (GPa) = 37.01148 84.12326 60.05006
#
# Poissons Ratio (x) = 0.47353 -0.05414
# Poissons Ratio (y) = 0.20834 0.21140
# Poissons Ratio (z) = -0.03337 0.29615
#
# Static dielectric constant tensor:
#      x y z
#    x 1.776140 0.000000 0.000000 
#    y 0.000000 1.823090 0.000000 
#    z 0.000000 0.000000 1.806140 
# 
# From -- ./inp_files/43923.got.cif
#   From: 2010.05.17/outbox.cif.g08.bks.cpg/sg70_22_cif.got.tgz:43923.got - 2010.06.03 15:57:51.
