data_PCOD9514633
_publ_section_title
;
Structure prediction by ZEFSAII (Michael W. Deem and Ramdas Pophale) SiO2 
 PCOD9514633
Probable space group: F D D D
;
_chemical_formula_sum "Si O2"
_cell_formula_units_Z 192
_cell_length_a 9.033895
_cell_length_b 28.632665
_cell_length_c 31.215798
_cell_angle_alpha 90.000000
_cell_angle_beta 90.000000
_cell_angle_gamma 90.000000
_cell_volume 8074.418444
_symmetry_space_group_name_H-M "F D D D"
_symmetry_group_IT_number 70
_space_group.IT_coordinate_system_code '2'
_symmetry_cell_setting 'orthorhombic'
loop_
_space_group_symop_operation_xyz
x,y,z
1/4-x,1/4-y,z
x,1/4-y,1/4-z
1/4-x,y,1/4-z
-x,-y,-z
3/4+x,3/4+y,-z
-x,3/4+y,3/4+z
3/4+x,-y,3/4+z
x,1/2+y,1/2+z
1/4-x,3/4-y,1/2+z
x,3/4-y,3/4-z
1/4-x,1/2+y,3/4-z
-x,1/2-y,1/2-z
3/4+x,1/4+y,1/2-z
-x,1/4+y,1/4+z
3/4+x,1/2-y,1/4+z
1/2+x,y,1/2+z
3/4-x,1/4-y,1/2+z
1/2+x,1/4-y,3/4-z
3/4-x,y,3/4-z
1/2-x,-y,1/2-z
1/4+x,3/4+y,1/2-z
1/2-x,3/4+y,1/4+z
1/4+x,-y,1/4+z
1/2+x,1/2+y,z
3/4-x,3/4-y,z
1/2+x,3/4-y,1/4-z
3/4-x,1/2+y,1/4-z
1/2-x,1/2-y,-z
1/4+x,1/4+y,-z
1/2-x,1/4+y,3/4+z
1/4+x,1/2-y,3/4+z
loop_
_atom_site_type_symbol
_atom_site_label
_atom_site_fract_x
_atom_site_fract_y
_atom_site_fract_z
Si Si1 0.568824 0.676837 0.536865
Si Si2 0.693992 0.901506 0.079468
Si Si3 0.375000 0.375000 0.003353
Si Si4 0.643173 0.068339 0.304457
Si Si5 0.125000 0.532091 0.125000
Si Si6 0.760740 0.287100 0.461384
Si Si7 0.920603 0.473583 0.612033
O O1 0.625000 0.625000 0.529053
O O2 0.609409 0.701555 0.492138
O O3 0.645738 0.690770 0.580814
O O4 0.394575 0.685039 0.542557
O O5 0.625000 0.882737 0.125000
O O6 0.731400 0.874434 0.035327
O O7 0.565938 0.937895 0.065782
O O8 0.849010 0.927554 0.089653
O O9 0.375063 0.422107 0.974910
O O10 0.625000 0.125000 0.307481
O O11 0.541508 0.045182 0.340799
O O12 0.273991 0.503889 0.118399
O O13 0.750000 0.250000 0.500000
O O14 0.771361 0.255660 0.418323
#
# Coordination Sequence:
#
# PCOD9514633 Si02
#       7
#    32  32  16  32  16  32  32
#     4  10  22  41  65 100 130 170 228 279 335 406
#     4  10  21  35  63  92 130 174 213 274 346 398
#     4  12  22  40  66  94 139 184 220 289 342 418
#     4  10  20  37  62  98 133 164 221 285 335 399
#     4  10  19  38  64  88 130 172 218 268 334 395
#     4  11  24  42  66  94 134 182 229 270 352 414
#     4  10  20  39  58  94 127 171 221 268 330 413
#
# _framework density 23.778801000000001
#
# number of rings (size 3 to 8) (size 9 to 14) (size 15 to 20)
#    0.000    1.667    4.167    2.250    4.667    0.667 
#    0.000    0.833    0.000    8.000    0.000    4.667 
#    0.000    0.000    0.000    0.000    0.000    0.000 
#
# Total GULP energy -267669.867065 kJ/mol
# GULP energy per Si atom -5576.455564 kJ/mol
# Density = 2.372468 g / cm^3
# Si number density = 23.778801 Si / 1000 Ang^3
#
#
#
# Elastic Constant Matrix: (Units=GPa)
#
#
# Indices 1 2 3 4 5 6 
#
# 1 70.6858 20.9834 20.7992 0.0000 0.0000 0.0000
# 2 20.9834 97.0758 64.5728 0.0000 0.0000 0.0000
# 3 20.7992 64.5728 207.8034 0.0000 0.0000 0.0000
# 4 0.0000 0.0000 0.0000 34.8454 0.0000 0.0000
# 5 0.0000 0.0000 0.0000 0.0000 28.0509 0.0000
# 6 0.0000 0.0000 0.0000 0.0000 0.0000 29.1154
#
#
#
# Elastic Compliance Matrix: (Units=1/GPa)
#
#
# Indices 1 2 3 4 5 6 
#
# 1 0.015182 -0.002863 -0.000630 0.000000 0.000000 0.000000
# 2 -0.002863 0.013525 -0.003916 0.000000 0.000000 0.000000
# 3 -0.000630 -0.003916 0.006092 0.000000 0.000000 0.000000
# 4 0.000000 0.000000 0.000000 0.028698 0.000000 0.000000
# 5 0.000000 0.000000 0.000000 0.000000 0.035649 0.000000
# 6 0.000000 0.000000 0.000000 0.000000 0.000000 0.034346
#
#
# Mechanical properties :
#
#
# Convention : Reuss Voigt Hill
#
# Bulk Modulus (GPa) = 50.04589 65.36401 57.70495
# Shear Modulus (GPa) = 32.26397 36.34965 34.30681
#
# Velocity S-wave (km/s) = 3.68752 3.91405 3.80247
# Velocity P-wave (km/s) = 6.26279 6.92635 6.60291
#
# Compressibility (1/GPa) = 0.01998166
#
# Stress axis : x y z
#
# Youngs Moduli (GPa) = 65.86622 73.93719 164.14326
#
# Poissons Ratio (x) = 0.21165 0.10342
# Poissons Ratio (y) = 0.18855 0.64282
# Poissons Ratio (z) = 0.04150 0.28956
#
# Static dielectric constant tensor:
#      x y z
#    x 1.943900 0.000000 0.000000 
#    y 0.000000 1.999680 0.000000 
#    z 0.000000 0.000000 2.057050 
# 
# From -- ./inp_files/65128.got.cif
#   From: 2010.05.17/outbox.cif.g08.bks.cpg/sg70_33_cif.got.tgz:65128.got - 2010.06.03 15:57:51.
