data_PCOD9514482
_publ_section_title
;
Structure prediction by ZEFSAII (Michael W. Deem and Ramdas Pophale) SiO2 
 PCOD9514482
Probable space group: F D D D
;
_chemical_formula_sum "Si O2"
_cell_formula_units_Z 192
_cell_length_a 13.220423
_cell_length_b 28.329288
_cell_length_c 24.708701
_cell_angle_alpha 90.000000
_cell_angle_beta 90.000000
_cell_angle_gamma 90.000000
_cell_volume 9254.030459
_symmetry_space_group_name_H-M "F D D D"
_symmetry_group_IT_number 70
_space_group.IT_coordinate_system_code '2'
_symmetry_cell_setting 'orthorhombic'
loop_
_space_group_symop_operation_xyz
x,y,z
1/4-x,1/4-y,z
x,1/4-y,1/4-z
1/4-x,y,1/4-z
-x,-y,-z
3/4+x,3/4+y,-z
-x,3/4+y,3/4+z
3/4+x,-y,3/4+z
x,1/2+y,1/2+z
1/4-x,3/4-y,1/2+z
x,3/4-y,3/4-z
1/4-x,1/2+y,3/4-z
-x,1/2-y,1/2-z
3/4+x,1/4+y,1/2-z
-x,1/4+y,1/4+z
3/4+x,1/2-y,1/4+z
1/2+x,y,1/2+z
3/4-x,1/4-y,1/2+z
1/2+x,1/4-y,3/4-z
3/4-x,y,3/4-z
1/2-x,-y,1/2-z
1/4+x,3/4+y,1/2-z
1/2-x,3/4+y,1/4+z
1/4+x,-y,1/4+z
1/2+x,1/2+y,z
3/4-x,3/4-y,z
1/2+x,3/4-y,1/4-z
3/4-x,1/2+y,1/4-z
1/2-x,1/2-y,-z
1/4+x,1/4+y,-z
1/2-x,1/4+y,3/4+z
1/4+x,1/2-y,3/4+z
loop_
_atom_site_type_symbol
_atom_site_label
_atom_site_fract_x
_atom_site_fract_y
_atom_site_fract_z
Si Si1 0.875000 0.968349 0.375000
Si Si2 0.625000 0.187158 0.625000
Si Si3 0.110702 0.312858 0.243944
Si Si4 0.172387 0.001275 0.823235
Si Si5 0.410650 0.928157 0.758713
Si Si6 0.322441 0.600202 0.570750
Si Si7 0.030621 0.739802 0.826956
O O1 0.835411 0.938830 0.426889
O O2 0.782204 0.997684 0.350160
O O3 0.544401 0.161118 0.586017
O O4 0.697047 0.220523 0.590203
O O5 0.229010 0.315501 0.232313
O O6 0.082082 0.360669 0.275072
O O7 0.097784 0.266363 0.281965
O O8 0.032164 0.303872 0.195872
O O9 0.162173 0.035037 0.771781
O O10 0.096690 0.019228 0.870352
O O11 0.131825 0.948233 0.810169
O O12 0.375000 0.875000 0.751271
O O13 0.365810 0.625000 0.625000
#
# Coordination Sequence:
#
# PCOD9514482 Si02
#       7
#    16  16  32  32  32  32  32
#     4  12  23  46  70 101 126 174 237 290 329 414
#     4  10  19  34  58  93 130 172 219 286 333 384
#     4  11  21  37  65  99 132 178 221 270 342 404
#     4  11  24  45  70  99 136 178 224 290 344 403
#     4  12  26  46  71  97 135 182 227 285 347 412
#     4  11  19  35  61  99 133 172 225 284 332 396
#     4  10  21  39  65  96 140 173 220 274 345 414
#
# _framework density 20.747716
#
# number of rings (size 3 to 8) (size 9 to 14) (size 15 to 20)
#    0.000    1.000    5.000    4.000    0.000    0.000 
#    0.000    3.333    3.667    1.000    0.000    0.000 
#    0.000    0.000    0.000    0.000    0.000    0.000 
#
# Total GULP energy -268252.756223 kJ/mol
# GULP energy per Si atom -5588.599088 kJ/mol
# Density = 2.070049 g / cm^3
# Si number density = 20.747716 Si / 1000 Ang^3
#
#
#
# Elastic Constant Matrix: (Units=GPa)
#
#
# Indices 1 2 3 4 5 6 
#
# 1 135.4486 57.6465 33.7820 0.0000 0.0000 0.0000
# 2 57.6465 113.4318 50.5612 0.0000 0.0000 0.0000
# 3 33.7820 50.5612 72.0953 0.0000 0.0000 0.0000
# 4 0.0000 0.0000 0.0000 174.7420 0.0000 0.0000
# 5 0.0000 0.0000 0.0000 0.0000 17.7469 0.0000
# 6 0.0000 0.0000 0.0000 0.0000 0.0000 -18.9475
#
#
#
# Elastic Compliance Matrix: (Units=1/GPa)
#
#
# Indices 1 2 3 4 5 6 
#
# 1 0.009539 -0.004154 -0.001557 0.000000 0.000000 0.000000
# 2 -0.004154 0.014634 -0.008316 0.000000 0.000000 0.000000
# 3 -0.001557 -0.008316 0.020432 0.000000 0.000000 0.000000
# 4 0.000000 0.000000 0.000000 0.005723 0.000000 0.000000
# 5 0.000000 0.000000 0.000000 0.000000 0.056348 0.000000
# 6 0.000000 0.000000 0.000000 0.000000 0.000000 -0.052777
#
#
# Mechanical properties :
#
#
# Convention : Reuss Voigt Hill
#
# Bulk Modulus (GPa) = 60.41816 67.21723 63.81770
# Shear Modulus (GPa) = 57.16285 46.64068 51.90177
#
# Velocity S-wave (km/s) = 5.25464 4.74644 5.00699
# Velocity P-wave (km/s) = 8.12395 7.90608 8.01575
#
# Compressibility (1/GPa) = 0.01655131
#
# Stress axis : x y z
#
# Youngs Moduli (GPa) = 104.83293 68.33441 48.94206
#
# Poissons Ratio (x) = 0.28386 0.07618
# Poissons Ratio (y) = 0.43547 0.40703
# Poissons Ratio (z) = 0.16317 0.56830
#
# Static dielectric constant tensor:
#      x y z
#    x 1.962820 0.000000 0.000000 
#    y 0.000000 1.737690 0.000000 
#    z 0.000000 0.000000 1.771440 
# 
# From -- ./inp_files/57817.got.cif
#   From: 2010.05.17/outbox.cif.g08.bks.cpg/sg70_29_cif.got.tgz:57817.got - 2010.06.03 15:57:51.
