data_PCOD9514534
_publ_section_title
;
Structure prediction by ZEFSAII (Michael W. Deem and Ramdas Pophale) SiO2 
 PCOD9514534
Probable space group: F D D D
;
_chemical_formula_sum "Si O2"
_cell_formula_units_Z 160
_cell_length_a 21.841946
_cell_length_b 12.881070
_cell_length_c 28.248141
_cell_angle_alpha 90.000000
_cell_angle_beta 90.000000
_cell_angle_gamma 90.000000
_cell_volume 7947.547674
_symmetry_space_group_name_H-M "F D D D"
_symmetry_group_IT_number 70
_space_group.IT_coordinate_system_code '2'
_symmetry_cell_setting 'orthorhombic'
loop_
_space_group_symop_operation_xyz
x,y,z
1/4-x,1/4-y,z
x,1/4-y,1/4-z
1/4-x,y,1/4-z
-x,-y,-z
3/4+x,3/4+y,-z
-x,3/4+y,3/4+z
3/4+x,-y,3/4+z
x,1/2+y,1/2+z
1/4-x,3/4-y,1/2+z
x,3/4-y,3/4-z
1/4-x,1/2+y,3/4-z
-x,1/2-y,1/2-z
3/4+x,1/4+y,1/2-z
-x,1/4+y,1/4+z
3/4+x,1/2-y,1/4+z
1/2+x,y,1/2+z
3/4-x,1/4-y,1/2+z
1/2+x,1/4-y,3/4-z
3/4-x,y,3/4-z
1/2-x,-y,1/2-z
1/4+x,3/4+y,1/2-z
1/2-x,3/4+y,1/4+z
1/4+x,-y,1/4+z
1/2+x,1/2+y,z
3/4-x,3/4-y,z
1/2+x,3/4-y,1/4-z
3/4-x,1/2+y,1/4-z
1/2-x,1/2-y,-z
1/4+x,1/4+y,-z
1/2-x,1/4+y,3/4+z
1/4+x,1/2-y,3/4+z
loop_
_atom_site_type_symbol
_atom_site_label
_atom_site_fract_x
_atom_site_fract_y
_atom_site_fract_z
Si Si1 0.875000 0.375000 0.492539
Si Si2 0.807216 0.365517 0.724631
Si Si3 0.741039 0.032892 0.453464
Si Si4 0.520811 0.625000 0.625000
Si Si5 0.659646 0.443091 0.175645
Si Si6 0.691704 0.963647 0.193497
O O1 0.823314 0.431419 0.524344
O O2 0.839925 0.295366 0.457569
O O3 0.875000 0.375000 0.703523
O O4 0.783771 0.265177 0.754059
O O5 0.753777 0.398068 0.689328
O O6 0.807900 0.457334 0.763291
O O7 0.776521 0.129480 0.428465
O O8 0.734525 0.937331 0.415934
O O9 0.562176 0.712589 0.648675
O O10 0.625000 0.461711 0.125000
O O11 0.612707 0.364224 0.200076
#
# Coordination Sequence:
#
# PCOD9514534 Si02
#       6
#    16  32  32  16  32  32
#     4  12  27  46  62  94 146 188 220 264 341 424
#     4  10  19  35  63  95 125 161 206 270 339 396
#     4  11  23  40  70  95 133 176 220 278 339 405
#     4  10  22  39  64 100 120 160 219 286 336 372
#     4  12  23  42  68  96 130 178 234 277 321 404
#     4  10  20  35  60  95 125 157 210 276 328 379
#
# _framework density 20.131996999999998
#
# number of rings (size 3 to 8) (size 9 to 14) (size 15 to 20)
#    0.000    1.200    6.000    0.900    0.000    0.800 
#    1.800    0.000    8.800    0.000    0.000    0.000 
#    0.000    0.000    0.000    0.000    0.000    0.000 
#
# Total GULP energy -222921.145491 kJ/mol
# GULP energy per Si atom -5573.028637 kJ/mol
# Density = 2.008618 g / cm^3
# Si number density = 20.131997 Si / 1000 Ang^3
#
#
#
# Elastic Constant Matrix: (Units=GPa)
#
#
# Indices 1 2 3 4 5 6 
#
# 1 108.3740 23.3956 22.3288 0.0000 0.0000 0.0000
# 2 23.3956 87.2619 35.8770 0.0000 0.0000 0.0000
# 3 22.3288 35.8770 59.6913 0.0000 0.0000 0.0000
# 4 0.0000 0.0000 0.0000 29.0976 0.0000 0.0000
# 5 0.0000 0.0000 0.0000 0.0000 22.4855 0.0000
# 6 0.0000 0.0000 0.0000 0.0000 0.0000 27.0930
#
#
#
# Elastic Compliance Matrix: (Units=1/GPa)
#
#
# Indices 1 2 3 4 5 6 
#
# 1 0.010152 -0.001541 -0.002871 0.000000 0.000000 0.000000
# 2 -0.001541 0.015455 -0.008713 0.000000 0.000000 0.000000
# 3 -0.002871 -0.008713 0.023063 0.000000 0.000000 0.000000
# 4 0.000000 0.000000 0.000000 0.034367 0.000000 0.000000
# 5 0.000000 0.000000 0.000000 0.000000 0.044473 0.000000
# 6 0.000000 0.000000 0.000000 0.000000 0.000000 0.036910
#
#
# Mechanical properties :
#
#
# Convention : Reuss Voigt Hill
#
# Bulk Modulus (GPa) = 44.60252 46.50334 45.55293
# Shear Modulus (GPa) = 25.23422 27.31694 26.27558
#
# Velocity S-wave (km/s) = 3.54423 3.68760 3.61663
# Velocity P-wave (km/s) = 6.24115 6.42499 6.33374
#
# Compressibility (1/GPa) = 0.02242026
#
# Stress axis : x y z
#
# Youngs Moduli (GPa) = 98.50687 64.70342 43.35859
#
# Poissons Ratio (x) = 0.09973 0.12448
# Poissons Ratio (y) = 0.15183 0.37777
# Poissons Ratio (z) = 0.28281 0.56374
#
# Static dielectric constant tensor:
#      x y z
#    x 1.774350 0.000000 0.000000 
#    y 0.000000 1.715500 0.000000 
#    z 0.000000 0.000000 1.770150 
# 
# From -- ./inp_files/22207.got.cif
#   From: 2010.05.17/outbox.cif.g08.bks.cpg/sg70_12_cif.got.tgz:22207.got - 2010.06.03 15:57:51.
