data_PCOD9514527
_publ_section_title
;
Structure prediction by ZEFSAII (Michael W. Deem and Ramdas Pophale) SiO2 
 PCOD9514527
Probable space group: F D D D
;
_chemical_formula_sum "Si O2"
_cell_formula_units_Z 144
_cell_length_a 21.027033
_cell_length_b 21.181154
_cell_length_c 15.298967
_cell_angle_alpha 90.000000
_cell_angle_beta 90.000000
_cell_angle_gamma 90.000000
_cell_volume 6813.805335
_symmetry_space_group_name_H-M "F D D D"
_symmetry_group_IT_number 70
_space_group.IT_coordinate_system_code '2'
_symmetry_cell_setting 'orthorhombic'
loop_
_space_group_symop_operation_xyz
x,y,z
1/4-x,1/4-y,z
x,1/4-y,1/4-z
1/4-x,y,1/4-z
-x,-y,-z
3/4+x,3/4+y,-z
-x,3/4+y,3/4+z
3/4+x,-y,3/4+z
x,1/2+y,1/2+z
1/4-x,3/4-y,1/2+z
x,3/4-y,3/4-z
1/4-x,1/2+y,3/4-z
-x,1/2-y,1/2-z
3/4+x,1/4+y,1/2-z
-x,1/4+y,1/4+z
3/4+x,1/2-y,1/4+z
1/2+x,y,1/2+z
3/4-x,1/4-y,1/2+z
1/2+x,1/4-y,3/4-z
3/4-x,y,3/4-z
1/2-x,-y,1/2-z
1/4+x,3/4+y,1/2-z
1/2-x,3/4+y,1/4+z
1/4+x,-y,1/4+z
1/2+x,1/2+y,z
3/4-x,3/4-y,z
1/2+x,3/4-y,1/4-z
3/4-x,1/2+y,1/4-z
1/2-x,1/2-y,-z
1/4+x,1/4+y,-z
1/2-x,1/4+y,3/4+z
1/4+x,1/2-y,3/4+z
loop_
_atom_site_type_symbol
_atom_site_label
_atom_site_fract_x
_atom_site_fract_y
_atom_site_fract_z
Si Si1 0.943686 0.692834 0.984958
Si Si2 0.477708 0.875000 0.375000
Si Si3 0.051011 0.791919 0.018645
Si Si4 0.304464 0.700114 0.974847
Si Si5 0.433850 0.500873 0.952535
O O1 0.949854 0.620706 0.012750
O O2 0.876412 0.726515 0.009023
O O3 0.940716 0.702491 0.879890
O O4 0.004312 0.732359 0.013781
O O5 0.521664 0.842850 0.450570
O O6 0.434274 0.820068 0.334488
O O7 0.050684 0.810753 0.120317
O O8 0.124761 0.776841 0.999440
O O9 0.250000 0.750000 0.000000
O O10 0.500000 0.500000 0.000000
#
# Coordination Sequence:
#
# PCOD9514527 Si02
#       5
#    32  16  32  32  32
#     4  10  22  38  58  87 117 156 203 249 309 367
#     4  10  20  37  66 100 126 161 204 256 332 399
#     4  10  23  41  63  92 124 161 210 260 314 377
#     4  11  24  43  62  84 124 170 213 263 312 375
#     4  10  19  35  61  90 127 158 193 255 317 386
#
# _framework density 21.133565000000001
#
# number of rings (size 3 to 8) (size 9 to 14) (size 15 to 20)
#    0.000    1.778    0.000    5.333    0.000   14.222 
#    0.000    4.444    0.000    0.000    0.000    0.000 
#    0.000    0.000    0.000    0.000    0.000    0.000 
#
# Total GULP energy -200866.153362 kJ/mol
# GULP energy per Si atom -5579.615371 kJ/mol
# Density = 2.108546 g / cm^3
# Si number density = 21.133565 Si / 1000 Ang^3
#
#
#
# Elastic Constant Matrix: (Units=GPa)
#
#
# Indices 1 2 3 4 5 6 
#
# 1 219.8128 116.3229 34.3846 0.0000 0.0000 0.0000
# 2 116.3229 175.5941 17.4404 0.0000 0.0000 0.0000
# 3 34.3846 17.4404 50.2787 0.0000 0.0000 0.0000
# 4 0.0000 0.0000 0.0000 -2.5438 0.0000 0.0000
# 5 0.0000 0.0000 0.0000 0.0000 37.7542 0.0000
# 6 0.0000 0.0000 0.0000 0.0000 0.0000 22.4519
#
#
#
# Elastic Compliance Matrix: (Units=1/GPa)
#
#
# Indices 1 2 3 4 5 6 
#
# 1 0.007575 -0.004664 -0.003562 0.000000 0.000000 0.000000
# 2 -0.004664 0.008770 0.000148 0.000000 0.000000 0.000000
# 3 -0.003562 0.000148 0.022274 0.000000 0.000000 0.000000
# 4 0.000000 0.000000 0.000000 -0.393110 0.000000 0.000000
# 5 0.000000 0.000000 0.000000 0.000000 0.026487 0.000000
# 6 0.000000 0.000000 0.000000 0.000000 0.000000 0.044540
#
#
# Mechanical properties :
#
#
# Convention : Reuss Voigt Hill
#
# Bulk Modulus (GPa) = 44.52121 86.88682 65.70402
# Shear Modulus (GPa) = -19.24414 30.03496 5.39541
#
# Velocity S-wave (km/s) = -3.02088 3.77397 1.59955
# Velocity P-wave (km/s) = 2.99077 7.75841 5.87952
#
# Compressibility (1/GPa) = 0.02246120
#
# Stress axis : x y z
#
# Youngs Moduli (GPa) = 132.01692 114.02441 44.89500
#
# Poissons Ratio (x) = 0.53182 0.15993
# Poissons Ratio (y) = 0.61574 -0.00663
# Poissons Ratio (z) = 0.47030 -0.01683
#
# Static dielectric constant tensor:
#      x y z
#    x 1.796960 0.000000 0.000000 
#    y 0.000000 1.764340 0.000000 
#    z 0.000000 0.000000 1.953360 
# 
# From -- ./inp_files/43601.got.cif
#   From: 2010.05.17/outbox.cif.g08.bks.cpg/sg70_22_cif.got.tgz:43601.got - 2010.06.03 15:57:51.
