data_PCOD9514504
_publ_section_title
;
Structure prediction by ZEFSAII (Michael W. Deem and Ramdas Pophale) SiO2 
 PCOD9514504
Probable space group: F D D D
;
_chemical_formula_sum "Si O2"
_cell_formula_units_Z 208
_cell_length_a 24.953259
_cell_length_b 24.915703
_cell_length_c 17.529263
_cell_angle_alpha 90.000000
_cell_angle_beta 90.000000
_cell_angle_gamma 90.000000
_cell_volume 10898.433453
_symmetry_space_group_name_H-M "F D D D"
_symmetry_group_IT_number 70
_space_group.IT_coordinate_system_code '2'
_symmetry_cell_setting 'orthorhombic'
loop_
_space_group_symop_operation_xyz
x,y,z
1/4-x,1/4-y,z
x,1/4-y,1/4-z
1/4-x,y,1/4-z
-x,-y,-z
3/4+x,3/4+y,-z
-x,3/4+y,3/4+z
3/4+x,-y,3/4+z
x,1/2+y,1/2+z
1/4-x,3/4-y,1/2+z
x,3/4-y,3/4-z
1/4-x,1/2+y,3/4-z
-x,1/2-y,1/2-z
3/4+x,1/4+y,1/2-z
-x,1/4+y,1/4+z
3/4+x,1/2-y,1/4+z
1/2+x,y,1/2+z
3/4-x,1/4-y,1/2+z
1/2+x,1/4-y,3/4-z
3/4-x,y,3/4-z
1/2-x,-y,1/2-z
1/4+x,3/4+y,1/2-z
1/2-x,3/4+y,1/4+z
1/4+x,-y,1/4+z
1/2+x,1/2+y,z
3/4-x,3/4-y,z
1/2+x,3/4-y,1/4-z
3/4-x,1/2+y,1/4-z
1/2-x,1/2-y,-z
1/4+x,1/4+y,-z
1/2-x,1/4+y,3/4+z
1/4+x,1/2-y,3/4+z
loop_
_atom_site_type_symbol
_atom_site_label
_atom_site_fract_x
_atom_site_fract_y
_atom_site_fract_z
Si Si1 0.560127 0.616025 0.208377
Si Si2 0.487664 0.703537 0.812250
Si Si3 0.663020 0.176823 0.232512
Si Si4 0.066953 0.014056 0.300674
Si Si5 0.625000 0.485002 0.625000
Si Si6 0.225564 0.351372 0.297906
Si Si7 0.416113 0.425681 0.095833
O O1 0.625000 0.625000 0.202694
O O2 0.536804 0.625000 0.125000
O O3 0.551086 0.555378 0.234374
O O4 0.544780 0.655620 0.278581
O O5 0.500000 0.750000 0.750000
O O6 0.533636 0.714578 0.875472
O O7 0.430818 0.705964 0.856680
O O8 0.485312 0.647597 0.765020
O O9 0.625000 0.125000 0.228833
O O10 0.632380 0.227311 0.199038
O O11 0.714938 0.169143 0.180711
O O12 0.684441 0.185682 0.318336
O O13 0.129207 0.025419 0.318568
O O14 0.055398 0.953119 0.278545
O O15 0.200432 0.375000 0.375000
O O16 0.375000 0.375000 0.104813
#
# Coordination Sequence:
#
# PCOD9514504 Si02
#       7
#    32  32  32  32  16  32  32
#     4   8  15  31  57  86 107 133 185 246 294 333
#     4  12  22  38  55  82 123 161 197 246 298 368
#     4  11  19  32  53  82 107 140 193 240 276 348
#     4  10  19  35  54  84 112 149 186 242 300 350
#     4  12  23  34  54  82 116 156 195 240 298 354
#     4  12  22  34  55  84 114 155 190 232 302 361
#     4   8  16  30  54  82 108 136 179 243 292 337
#
# _framework density 19.085311999999998
#
# number of rings (size 3 to 8) (size 9 to 14) (size 15 to 20)
#    0.000    2.000    3.077    5.769    0.000    0.000 
#    0.000    3.077    0.000    6.462    0.000    0.000 
#    0.000    0.000    0.000    0.000    0.000    0.000 
#
# Total GULP energy -289520.023602 kJ/mol
# GULP energy per Si atom -5567.692762 kJ/mol
# Density = 1.904187 g / cm^3
# Si number density = 19.085312 Si / 1000 Ang^3
#
#
#
# Elastic Constant Matrix: (Units=GPa)
#
#
# Indices 1 2 3 4 5 6 
#
# 1 27.1717 12.7665 -12.2661 0.0000 0.0000 0.0000
# 2 12.7665 121.1004 36.6708 0.0000 0.0000 0.0000
# 3 -12.2661 36.6708 113.6199 0.0000 0.0000 0.0000
# 4 0.0000 0.0000 0.0000 -66.6594 0.0000 0.0000
# 5 0.0000 0.0000 0.0000 0.0000 10.1886 0.0000
# 6 0.0000 0.0000 0.0000 0.0000 0.0000 27.5518
#
#
#
# Elastic Compliance Matrix: (Units=1/GPa)
#
#
# Indices 1 2 3 4 5 6 
#
# 1 0.042942 -0.006573 0.006757 0.000000 0.000000 0.000000
# 2 -0.006573 0.010158 -0.003988 0.000000 0.000000 0.000000
# 3 0.006757 -0.003988 0.010818 0.000000 0.000000 0.000000
# 4 0.000000 0.000000 0.000000 -0.015002 0.000000 0.000000
# 5 0.000000 0.000000 0.000000 0.000000 0.098149 0.000000
# 6 0.000000 0.000000 0.000000 0.000000 0.000000 0.036295
#
#
# Mechanical properties :
#
#
# Convention : Reuss Voigt Hill
#
# Bulk Modulus (GPa) = 17.75879 37.35936 27.55907
# Shear Modulus (GPa) = 23.83922 9.19759 16.51840
#
# Velocity S-wave (km/s) = 3.53808 2.19765 2.94514
# Velocity P-wave (km/s) = 5.10057 5.10460 5.10259
#
# Compressibility (1/GPa) = 0.05631015
#
# Stress axis : x y z
#
# Youngs Moduli (GPa) = 23.28729 98.44230 92.43869
#
# Poissons Ratio (x) = 0.64708 -0.62465
# Poissons Ratio (y) = 0.15307 0.36866
# Poissons Ratio (z) = -0.15736 0.39261
#
# Static dielectric constant tensor:
#      x y z
#    x 1.710380 0.000000 0.000000 
#    y 0.000000 1.693060 0.000000 
#    z 0.000000 0.000000 1.743790 
# 
# From -- ./inp_files/38840.got.cif
#   From: 2010.05.17/outbox.cif.g08.bks.cpg/sg70_20_cif.got.tgz:38840.got - 2010.06.03 15:57:51.
