data_PCOD9514817
_publ_section_title
;
Structure prediction by ZEFSAII (Michael W. Deem and Ramdas Pophale) SiO2 
 PCOD9514817
Probable space group: F D D D
;
_chemical_formula_sum "Si O2"
_cell_formula_units_Z 160
_cell_length_a 31.619220
_cell_length_b 28.443111
_cell_length_c 9.012014
_cell_angle_alpha 90.000000
_cell_angle_beta 90.000000
_cell_angle_gamma 90.000000
_cell_volume 8104.945636
_symmetry_space_group_name_H-M "F D D D"
_symmetry_group_IT_number 70
_space_group.IT_coordinate_system_code '2'
_symmetry_cell_setting 'orthorhombic'
loop_
_space_group_symop_operation_xyz
x,y,z
1/4-x,1/4-y,z
x,1/4-y,1/4-z
1/4-x,y,1/4-z
-x,-y,-z
3/4+x,3/4+y,-z
-x,3/4+y,3/4+z
3/4+x,-y,3/4+z
x,1/2+y,1/2+z
1/4-x,3/4-y,1/2+z
x,3/4-y,3/4-z
1/4-x,1/2+y,3/4-z
-x,1/2-y,1/2-z
3/4+x,1/4+y,1/2-z
-x,1/4+y,1/4+z
3/4+x,1/2-y,1/4+z
1/2+x,y,1/2+z
3/4-x,1/4-y,1/2+z
1/2+x,1/4-y,3/4-z
3/4-x,y,3/4-z
1/2-x,-y,1/2-z
1/4+x,3/4+y,1/2-z
1/2-x,3/4+y,1/4+z
1/4+x,-y,1/4+z
1/2+x,1/2+y,z
3/4-x,3/4-y,z
1/2+x,3/4-y,1/4-z
3/4-x,1/2+y,1/4-z
1/2-x,1/2-y,-z
1/4+x,1/4+y,-z
1/2-x,1/4+y,3/4+z
1/4+x,1/2-y,3/4+z
loop_
_atom_site_type_symbol
_atom_site_label
_atom_site_fract_x
_atom_site_fract_y
_atom_site_fract_z
Si Si1 0.955227 0.875000 0.375000
Si Si2 0.273392 0.083866 0.403615
Si Si3 0.337981 0.837119 0.158822
Si Si4 0.410694 0.017617 0.255931
Si Si5 0.517229 0.125000 0.625000
Si Si6 0.154278 0.407952 0.257772
O O1 0.927199 0.844456 0.260914
O O2 0.984876 0.842727 0.481240
O O3 0.295138 0.032962 0.418531
O O4 0.259808 0.092986 0.235310
O O5 0.307334 0.124862 0.450821
O O6 0.375000 0.875000 0.186743
O O7 0.350399 0.784840 0.206337
O O8 0.297897 0.847557 0.263208
O O9 0.375000 0.033333 0.375000
O O10 0.415221 0.047105 0.104267
O O11 0.125000 0.421675 0.125000
O O12 0.129683 0.375000 0.375000
#
# Coordination Sequence:
#
# PCOD9514817 Si02
#       6
#    16  32  32  32  16  32
#     4  10  21  42  65  88 120 170 200 268 323 366
#     4  10  20  39  60  96 129 159 205 252 331 379
#     4  11  24  44  65  85 120 169 222 259 308 374
#     4  11  23  39  64  94 130 165 211 260 305 384
#     4  10  23  38  65  86 124 172 198 266 325 364
#     4  10  20  35  59  91 131 166 196 251 315 384
#
# _framework density 19.741033000000002
#
# number of rings (size 3 to 8) (size 9 to 14) (size 15 to 20)
#    0.000    1.600    3.000    4.200    4.200    3.200 
#    0.000    0.000    0.000    0.000    0.000    0.000 
#    0.000    0.000    0.000    0.000    0.000    0.000 
#
# Total GULP energy -222888.434367 kJ/mol
# GULP energy per Si atom -5572.210859 kJ/mol
# Density = 1.969610 g / cm^3
# Si number density = 19.741033 Si / 1000 Ang^3
#
#
#
# Elastic Constant Matrix: (Units=GPa)
#
#
# Indices 1 2 3 4 5 6 
#
# 1 65.2841 30.7877 42.9844 0.0006 0.0028 -0.0075
# 2 30.7877 89.5337 19.7673 0.0009 0.0065 -0.0042
# 3 42.9844 19.7673 140.7908 0.0013 0.0145 -0.0130
# 4 0.0006 0.0009 0.0013 15.3312 0.0116 -0.0115
# 5 0.0028 0.0065 0.0145 0.0116 22.7283 -0.0019
# 6 -0.0075 -0.0042 -0.0130 -0.0115 -0.0019 43.6624
#
#
#
# Elastic Compliance Matrix: (Units=1/GPa)
#
#
# Indices 1 2 3 4 5 6 
#
# 1 0.022174 -0.006326 -0.005882 0.000000 0.000003 0.000001
# 2 -0.006326 0.013331 0.000060 -0.000001 -0.000003 0.000000
# 3 -0.005882 0.000060 0.008890 -0.000001 -0.000005 0.000002
# 4 0.000000 -0.000001 -0.000001 0.065226 -0.000033 0.000017
# 5 0.000003 -0.000003 -0.000005 -0.000033 0.043998 0.000002
# 6 0.000001 0.000000 0.000002 0.000017 0.000002 0.022903
#
#
# Mechanical properties :
#
#
# Convention : Reuss Voigt Hill
#
# Bulk Modulus (GPa) = 49.75446 53.63191 51.69319
# Shear Modulus (GPa) = 24.09431 29.81567 26.95499
#
# Velocity S-wave (km/s) = 3.49738 3.89053 3.69918
# Velocity P-wave (km/s) = 6.44726 6.88537 6.66991
#
# Compressibility (1/GPa) = 0.02009870
#
# Stress axis : x y z
#
# Youngs Moduli (GPa) = 45.09867 75.01213 112.48564
#
# Poissons Ratio (x) = 0.47455 0.66159
# Poissons Ratio (y) = 0.28531 -0.00672
# Poissons Ratio (z) = 0.26525 -0.00448
#
# Static dielectric constant tensor:
#      x y z
#    x 1.717630 0.000000 0.000000 
#    y 0.000000 1.718830 0.000000 
#    z 0.000000 0.000000 1.717060 
# 
# From -- ./inp_files/12391.got.cif
#   From: 2010.05.17/outbox.cif.g08.bks.cpg/sg70_7_cif.got.tgz:12391.got - 2010.06.03 15:57:51.
