data_PCOD9514063
_publ_section_title
;
Structure prediction by ZEFSAII (Michael W. Deem and Ramdas Pophale) SiO2 
 PCOD9514063
Probable space group: F D D D
;
_chemical_formula_sum "Si O2"
_cell_formula_units_Z 96
_cell_length_a 8.092352
_cell_length_b 27.836800
_cell_length_c 14.632009
_cell_angle_alpha 90.000000
_cell_angle_beta 90.000000
_cell_angle_gamma 90.000000
_cell_volume 3296.082202
_symmetry_space_group_name_H-M "F D D D"
_symmetry_group_IT_number 70
_space_group.IT_coordinate_system_code '2'
_symmetry_cell_setting 'orthorhombic'
loop_
_space_group_symop_operation_xyz
x,y,z
1/4-x,1/4-y,z
x,1/4-y,1/4-z
1/4-x,y,1/4-z
-x,-y,-z
3/4+x,3/4+y,-z
-x,3/4+y,3/4+z
3/4+x,-y,3/4+z
x,1/2+y,1/2+z
1/4-x,3/4-y,1/2+z
x,3/4-y,3/4-z
1/4-x,1/2+y,3/4-z
-x,1/2-y,1/2-z
3/4+x,1/4+y,1/2-z
-x,1/4+y,1/4+z
3/4+x,1/2-y,1/4+z
1/2+x,y,1/2+z
3/4-x,1/4-y,1/2+z
1/2+x,1/4-y,3/4-z
3/4-x,y,3/4-z
1/2-x,-y,1/2-z
1/4+x,3/4+y,1/2-z
1/2-x,3/4+y,1/4+z
1/4+x,-y,1/4+z
1/2+x,1/2+y,z
3/4-x,3/4-y,z
1/2+x,3/4-y,1/4-z
3/4-x,1/2+y,1/4-z
1/2-x,1/2-y,-z
1/4+x,1/4+y,-z
1/2-x,1/4+y,3/4+z
1/4+x,1/2-y,3/4+z
loop_
_atom_site_type_symbol
_atom_site_label
_atom_site_fract_x
_atom_site_fract_y
_atom_site_fract_z
Si Si1 0.553795 0.350018 0.722570
Si Si2 0.852730 0.272162 0.150686
Si Si3 0.048443 0.311779 0.771985
O O1 0.625000 0.365433 0.625000
O O2 0.375000 0.375000 0.740574
O O3 0.509462 0.294024 0.705941
O O4 0.674692 0.381894 0.783637
O O5 0.701789 0.289217 0.213650
O O6 0.846387 0.300037 0.051362
O O7 0.817595 0.217964 0.116222
#
# Coordination Sequence:
#
# PCOD9514063 Si02
#       3
#    32  32  32
#     4  10  16  30  50  78 107 148 188 235 302 353
#     4   9  17  29  51  79 109 149 195 239 294 359
#     4   9  16  30  51  80 108 149 195 240 293 362
#
# _framework density 29.125489000000002
#
# number of rings (size 3 to 8) (size 9 to 14) (size 15 to 20)
#    0.000    2.667    6.667    0.000    0.000    0.000 
#    0.000    6.667    0.000    2.000    8.667    7.000 
#    0.000    0.000    0.000    0.000    0.000    0.333 
#
# Total GULP energy -133733.993254 kJ/mol
# GULP energy per Si atom -5572.249719 kJ/mol
# Density = 2.905920 g / cm^3
# Si number density = 29.125489 Si / 1000 Ang^3
#
#
#
# Elastic Constant Matrix: (Units=GPa)
#
#
# Indices 1 2 3 4 5 6 
#
# 1 78.2989 19.3048 20.3577 0.0000 0.0000 0.0000
# 2 19.3048 262.1012 51.6776 0.0000 0.0000 0.0000
# 3 20.3577 51.6776 161.1884 0.0000 0.0000 0.0000
# 4 0.0000 0.0000 0.0000 50.5208 0.0000 0.0000
# 5 0.0000 0.0000 0.0000 0.0000 -13.0706 0.0000
# 6 0.0000 0.0000 0.0000 0.0000 0.0000 -104.8002
#
#
#
# Elastic Compliance Matrix: (Units=1/GPa)
#
#
# Indices 1 2 3 4 5 6 
#
# 1 0.013322 -0.000693 -0.001460 0.000000 0.000000 0.000000
# 2 -0.000693 0.004109 -0.001230 0.000000 0.000000 0.000000
# 3 -0.001460 -0.001230 0.006783 0.000000 0.000000 0.000000
# 4 0.000000 0.000000 0.000000 0.019794 0.000000 0.000000
# 5 0.000000 0.000000 0.000000 0.000000 -0.076508 0.000000
# 6 0.000000 0.000000 0.000000 0.000000 0.000000 -0.009542
#
#
# Mechanical properties :
#
#
# Convention : Reuss Voigt Hill
#
# Bulk Modulus (GPa) = 57.31658 76.02985 66.67322
# Shear Modulus (GPa) = -169.72215 13.87990 -77.92112
#
# Velocity S-wave (km/s) = -7.64194 2.18538 -5.17800
# Velocity P-wave (km/s) = 7.62520 5.70340 3.57875
#
# Compressibility (1/GPa) = 0.01744696
#
# Stress axis : x y z
#
# Youngs Moduli (GPa) = 75.06282 243.37708 147.43582
#
# Poissons Ratio (x) = 0.16874 0.21530
# Poissons Ratio (y) = 0.05204 0.18131
# Poissons Ratio (z) = 0.10961 0.29929
#
# Static dielectric constant tensor:
#      x y z
#    x 2.397690 0.000000 0.000000 
#    y 0.000000 2.449980 0.000000 
#    z 0.000000 0.000000 -0.859180 
# 
# From -- ./inp_files/16056.got.cif
#   From: 2010.05.17/outbox.cif.g08.bks.cpg/sg70_9_cif.got.tgz:16056.got - 2010.06.03 15:57:51.
