data_PCOD9514095
_publ_section_title
;
Structure prediction by ZEFSAII (Michael W. Deem and Ramdas Pophale) SiO2 
 PCOD9514095
Probable space group: F D D D
;
_chemical_formula_sum "Si O2"
_cell_formula_units_Z 112
_cell_length_a 21.438445
_cell_length_b 8.992791
_cell_length_c 24.688221
_cell_angle_alpha 90.000000
_cell_angle_beta 90.000000
_cell_angle_gamma 90.000000
_cell_volume 4759.678054
_symmetry_space_group_name_H-M "F D D D"
_symmetry_group_IT_number 70
_space_group.IT_coordinate_system_code '2'
_symmetry_cell_setting 'orthorhombic'
loop_
_space_group_symop_operation_xyz
x,y,z
1/4-x,1/4-y,z
x,1/4-y,1/4-z
1/4-x,y,1/4-z
-x,-y,-z
3/4+x,3/4+y,-z
-x,3/4+y,3/4+z
3/4+x,-y,3/4+z
x,1/2+y,1/2+z
1/4-x,3/4-y,1/2+z
x,3/4-y,3/4-z
1/4-x,1/2+y,3/4-z
-x,1/2-y,1/2-z
3/4+x,1/4+y,1/2-z
-x,1/4+y,1/4+z
3/4+x,1/2-y,1/4+z
1/2+x,y,1/2+z
3/4-x,1/4-y,1/2+z
1/2+x,1/4-y,3/4-z
3/4-x,y,3/4-z
1/2-x,-y,1/2-z
1/4+x,3/4+y,1/2-z
1/2-x,3/4+y,1/4+z
1/4+x,-y,1/4+z
1/2+x,1/2+y,z
3/4-x,3/4-y,z
1/2+x,3/4-y,1/4-z
3/4-x,1/2+y,1/4-z
1/2-x,1/2-y,-z
1/4+x,1/4+y,-z
1/2-x,1/4+y,3/4+z
1/4+x,1/2-y,3/4+z
loop_
_atom_site_type_symbol
_atom_site_label
_atom_site_fract_x
_atom_site_fract_y
_atom_site_fract_z
Si Si1 0.625000 0.861320 0.125000
Si Si2 0.004702 0.676496 0.344965
Si Si3 0.625000 0.625000 0.209734
Si Si4 0.821623 0.190249 0.198038
Si Si5 0.437839 0.125000 0.625000
O O1 0.680609 0.947733 0.154034
O O2 0.596419 0.750661 0.170505
O O3 0.043644 0.773104 0.301502
O O4 0.028324 0.732704 0.403520
O O5 0.023111 0.504046 0.346362
O O6 0.577467 0.534779 0.247874
O O7 0.890199 0.186261 0.170764
#
# Coordination Sequence:
#
# PCOD9514095 Si02
#       5
#    16  32  16  32  16
#     4  11  26  41  58  98 149 183 208 274 355 403
#     4  10  21  40  67  95 137 170 221 285 338 396
#     4  11  22  44  64 100 132 182 236 267 334 406
#     4  10  20  39  71  95 121 171 241 279 325 383
#     4  10  16  37  68 101 122 164 226 304 312 384
#
# _framework density 23.531002999999998
#
# number of rings (size 3 to 8) (size 9 to 14) (size 15 to 20)
#    0.000    2.000    2.857    4.286    0.000    4.571 
#    5.143    0.000   12.571    0.000    0.000    0.000 
#    0.000    0.000    0.000    0.000    0.000    0.000 
#
# Total GULP energy -156360.875274 kJ/mol
# GULP energy per Si atom -5584.316974 kJ/mol
# Density = 2.347745 g / cm^3
# Si number density = 23.531003 Si / 1000 Ang^3
#
#
#
# Elastic Constant Matrix: (Units=GPa)
#
#
# Indices 1 2 3 4 5 6 
#
# 1 115.6219 37.6465 14.9330 0.0000 0.0000 0.0000
# 2 37.6465 108.0202 26.9570 0.0000 0.0000 0.0000
# 3 14.9330 26.9570 100.4038 0.0000 0.0000 0.0000
# 4 0.0000 0.0000 0.0000 21.5853 0.0000 0.0000
# 5 0.0000 0.0000 0.0000 0.0000 24.3306 0.0000
# 6 0.0000 0.0000 0.0000 0.0000 0.0000 18.8566
#
#
#
# Elastic Compliance Matrix: (Units=1/GPa)
#
#
# Indices 1 2 3 4 5 6 
#
# 1 0.009787 -0.003267 -0.000579 0.000000 0.000000 0.000000
# 2 -0.003267 0.011013 -0.002471 0.000000 0.000000 0.000000
# 3 -0.000579 -0.002471 0.010709 0.000000 0.000000 0.000000
# 4 0.000000 0.000000 0.000000 0.046328 0.000000 0.000000
# 5 0.000000 0.000000 0.000000 0.000000 0.041101 0.000000
# 6 0.000000 0.000000 0.000000 0.000000 0.000000 0.053032
#
#
# Mechanical properties :
#
#
# Convention : Reuss Voigt Hill
#
# Bulk Modulus (GPa) = 52.97485 53.67986 53.32736
# Shear Modulus (GPa) = 26.19259 29.25512 27.72386
#
# Velocity S-wave (km/s) = 3.33995 3.52981 3.43619
# Velocity P-wave (km/s) = 6.11844 6.28289 6.20121
#
# Compressibility (1/GPa) = 0.01887688
#
# Stress axis : x y z
#
# Youngs Moduli (GPa) = 102.17417 90.80505 93.37728
#
# Poissons Ratio (x) = 0.29662 0.05403
# Poissons Ratio (y) = 0.33376 0.23073
# Poissons Ratio (z) = 0.05912 0.22437
#
# Static dielectric constant tensor:
#      x y z
#    x 1.871630 0.000000 0.000000 
#    y 0.000000 2.000230 0.000000 
#    z 0.000000 0.000000 1.902040 
# 
# From -- ./inp_files/10730.got.cif
#   From: 2010.05.17/outbox.cif.g08.bks.cpg/sg70_6_cif.got.tgz:10730.got - 2010.06.03 15:57:51.
