data_PCOD9514566
_publ_section_title
;
Structure prediction by ZEFSAII (Michael W. Deem and Ramdas Pophale) SiO2 
 PCOD9514566
Probable space group: F D D D
;
_chemical_formula_sum "Si O2"
_cell_formula_units_Z 112
_cell_length_a 7.292425
_cell_length_b 26.015435
_cell_length_c 27.362797
_cell_angle_alpha 90.000000
_cell_angle_beta 90.000000
_cell_angle_gamma 90.000000
_cell_volume 5191.149685
_symmetry_space_group_name_H-M "F D D D"
_symmetry_group_IT_number 70
_space_group.IT_coordinate_system_code '2'
_symmetry_cell_setting 'orthorhombic'
loop_
_space_group_symop_operation_xyz
x,y,z
1/4-x,1/4-y,z
x,1/4-y,1/4-z
1/4-x,y,1/4-z
-x,-y,-z
3/4+x,3/4+y,-z
-x,3/4+y,3/4+z
3/4+x,-y,3/4+z
x,1/2+y,1/2+z
1/4-x,3/4-y,1/2+z
x,3/4-y,3/4-z
1/4-x,1/2+y,3/4-z
-x,1/2-y,1/2-z
3/4+x,1/4+y,1/2-z
-x,1/4+y,1/4+z
3/4+x,1/2-y,1/4+z
1/2+x,y,1/2+z
3/4-x,1/4-y,1/2+z
1/2+x,1/4-y,3/4-z
3/4-x,y,3/4-z
1/2-x,-y,1/2-z
1/4+x,3/4+y,1/2-z
1/2-x,3/4+y,1/4+z
1/4+x,-y,1/4+z
1/2+x,1/2+y,z
3/4-x,3/4-y,z
1/2+x,3/4-y,1/4-z
3/4-x,1/2+y,1/4-z
1/2-x,1/2-y,-z
1/4+x,1/4+y,-z
1/2-x,1/4+y,3/4+z
1/4+x,1/2-y,3/4+z
loop_
_atom_site_type_symbol
_atom_site_label
_atom_site_fract_x
_atom_site_fract_y
_atom_site_fract_z
Si Si1 0.529223 0.238501 0.334765
Si Si2 0.087944 0.358503 0.717323
Si Si3 0.662809 0.893801 0.322728
Si Si4 0.125000 0.825318 0.625000
O O1 0.375000 0.247634 0.375000
O O2 0.430337 0.201960 0.294958
O O3 0.592500 0.294697 0.319197
O O4 0.701679 0.208514 0.358303
O O5 0.164757 0.373964 0.770275
O O6 0.171372 0.388431 0.671223
O O7 0.875000 0.375000 0.717991
O O8 0.586012 0.875000 0.375000
O O9 0.875000 0.875000 0.323100
#
# Coordination Sequence:
#
# PCOD9514566 Si02
#       4
#    32  32  32  16
#     4  11  20  37  66  88 121 159 198 249 305 354
#     4   9  19  35  61  89 122 156 199 250 298 361
#     4  10  19  36  62  87 118 165 203 237 303 363
#     4  10  22  38  59  96 121 150 208 252 294 358
#
# _framework density 21.57518
#
# number of rings (size 3 to 8) (size 9 to 14) (size 15 to 20)
#    0.000    2.000    4.286    0.857    0.000    0.000 
#    0.000    2.143    6.286    0.000    0.000    0.000 
#    0.000    0.000    0.000    0.000    0.000    0.000 
#
# Total GULP energy -156133.547229 kJ/mol
# GULP energy per Si atom -5576.198115 kJ/mol
# Density = 2.152607 g / cm^3
# Si number density = 21.575180 Si / 1000 Ang^3
#
#
#
# Elastic Constant Matrix: (Units=GPa)
#
#
# Indices 1 2 3 4 5 6 
#
# 1 83.4175 -0.7146 16.2010 0.0000 0.0000 0.0000
# 2 -0.7146 99.8706 34.5074 0.0000 0.0000 0.0000
# 3 16.2010 34.5074 199.5374 0.0000 0.0000 0.0000
# 4 0.0000 0.0000 0.0000 24.9456 0.0000 0.0000
# 5 0.0000 0.0000 0.0000 0.0000 -32.5742 0.0000
# 6 0.0000 0.0000 0.0000 0.0000 0.0000 -19.8794
#
#
#
# Elastic Compliance Matrix: (Units=1/GPa)
#
#
# Indices 1 2 3 4 5 6 
#
# 1 0.012200 0.000457 -0.001070 0.000000 0.000000 0.000000
# 2 0.000457 0.010666 -0.001882 0.000000 0.000000 0.000000
# 3 -0.001070 -0.001882 0.005424 0.000000 0.000000 0.000000
# 4 0.000000 0.000000 0.000000 0.040087 0.000000 0.000000
# 5 0.000000 0.000000 0.000000 0.000000 -0.030699 0.000000
# 6 0.000000 0.000000 0.000000 0.000000 0.000000 -0.050303
#
#
# Mechanical properties :
#
#
# Convention : Reuss Voigt Hill
#
# Bulk Modulus (GPa) = 42.91665 53.64590 48.28127
# Shear Modulus (GPa) = 38397.94590 16.68719 19207.31655
#
# Velocity S-wave (km/s) = 133.55116 2.78410 94.45545
# Velocity P-wave (km/s) = 154.27622 5.93747 109.17052
#
# Compressibility (1/GPa) = 0.02330098
#
# Stress axis : x y z
#
# Youngs Moduli (GPa) = 81.97045 93.75238 184.37101
#
# Poissons Ratio (x) = -0.04283 0.19719
# Poissons Ratio (y) = -0.03745 0.34693
# Poissons Ratio (z) = 0.08767 0.17641
#
# Static dielectric constant tensor:
#      x y z
#    x 1.825250 0.000000 0.000000 
#    y 0.000000 1.807690 0.000000 
#    z 0.000000 0.000000 1.846810 
# 
# From -- ./inp_files/9509.got.cif
#   From: 2010.05.17/outbox.cif.g08.bks.cpg/sg70_5_cif.got.tgz:9509.got - 2010.06.03 15:57:51.
