data_PCOD9514546
_publ_section_title
;
Structure prediction by ZEFSAII (Michael W. Deem and Ramdas Pophale) SiO2 
 PCOD9514546
Probable space group: F D D D
;
_chemical_formula_sum "Si O2"
_cell_formula_units_Z 96
_cell_length_a 12.332002
_cell_length_b 17.197999
_cell_length_c 19.147970
_cell_angle_alpha 90.000000
_cell_angle_beta 90.000000
_cell_angle_gamma 90.000000
_cell_volume 4061.011733
_symmetry_space_group_name_H-M "F D D D"
_symmetry_group_IT_number 70
_space_group.IT_coordinate_system_code '2'
_symmetry_cell_setting 'orthorhombic'
loop_
_space_group_symop_operation_xyz
x,y,z
1/4-x,1/4-y,z
x,1/4-y,1/4-z
1/4-x,y,1/4-z
-x,-y,-z
3/4+x,3/4+y,-z
-x,3/4+y,3/4+z
3/4+x,-y,3/4+z
x,1/2+y,1/2+z
1/4-x,3/4-y,1/2+z
x,3/4-y,3/4-z
1/4-x,1/2+y,3/4-z
-x,1/2-y,1/2-z
3/4+x,1/4+y,1/2-z
-x,1/4+y,1/4+z
3/4+x,1/2-y,1/4+z
1/2+x,y,1/2+z
3/4-x,1/4-y,1/2+z
1/2+x,1/4-y,3/4-z
3/4-x,y,3/4-z
1/2-x,-y,1/2-z
1/4+x,3/4+y,1/2-z
1/2-x,3/4+y,1/4+z
1/4+x,-y,1/4+z
1/2+x,1/2+y,z
3/4-x,3/4-y,z
1/2+x,3/4-y,1/4-z
3/4-x,1/2+y,1/4-z
1/2-x,1/2-y,-z
1/4+x,1/4+y,-z
1/2-x,1/4+y,3/4+z
1/4+x,1/2-y,3/4+z
loop_
_atom_site_type_symbol
_atom_site_label
_atom_site_fract_x
_atom_site_fract_y
_atom_site_fract_z
Si Si1 0.759701 0.031506 0.982781
Si Si2 0.814377 0.195110 0.939884
Si Si3 0.115254 0.531144 0.396742
O O1 0.765260 0.124890 0.984280
O O2 0.737285 0.009693 0.901497
O O3 0.655827 0.995745 0.022908
O O4 0.863621 0.002167 0.026439
O O5 0.875000 0.154768 0.875000
O O6 0.718524 0.242113 0.902073
O O7 0.125000 0.625000 0.401512
#
# Coordination Sequence:
#
# PCOD9514546 Si02
#       3
#    32  32  32
#     4  10  19  36  57  82 114 158 202 248 310 378
#     4   9  19  36  57  83 120 158 200 260 319 368
#     4   9  19  36  57  83 120 158 200 260 319 368
#
# _framework density 23.639429
#
# number of rings (size 3 to 8) (size 9 to 14) (size 15 to 20)
#    0.000    2.667    0.000    1.000    0.000    1.333 
#    0.000   31.667    0.000    0.000    0.000    0.000 
#    0.000    0.000    0.000    0.000    0.000    0.000 
#
# Total GULP energy -133643.064618 kJ/mol
# GULP energy per Si atom -5568.461026 kJ/mol
# Density = 2.358562 g / cm^3
# Si number density = 23.639429 Si / 1000 Ang^3
#
#
#
# Elastic Constant Matrix: (Units=GPa)
#
#
# Indices 1 2 3 4 5 6 
#
# 1 79.7604 24.0807 48.4836 0.0000 0.0000 0.0000
# 2 24.0807 62.4995 50.7028 0.0000 0.0000 0.0000
# 3 48.4836 50.7028 143.3718 0.0000 0.0000 0.0000
# 4 0.0000 0.0000 0.0000 18.0445 0.0000 0.0000
# 5 0.0000 0.0000 0.0000 0.0000 65.7826 0.0000
# 6 0.0000 0.0000 0.0000 0.0000 0.0000 45.0643
#
#
#
# Elastic Compliance Matrix: (Units=1/GPa)
#
#
# Indices 1 2 3 4 5 6 
#
# 1 0.016055 -0.002498 -0.004546 0.000000 0.000000 0.000000
# 2 -0.002498 0.022826 -0.007228 0.000000 0.000000 0.000000
# 3 -0.004546 -0.007228 0.011068 0.000000 0.000000 0.000000
# 4 0.000000 0.000000 0.000000 0.055418 0.000000 0.000000
# 5 0.000000 0.000000 0.000000 0.000000 0.015202 0.000000
# 6 0.000000 0.000000 0.000000 0.000000 0.000000 0.022191
#
#
# Mechanical properties :
#
#
# Convention : Reuss Voigt Hill
#
# Bulk Modulus (GPa) = 46.71551 59.12955 52.92253
# Shear Modulus (GPa) = 28.02095 36.60258 32.31176
#
# Velocity S-wave (km/s) = 3.44662 3.93920 3.70112
# Velocity P-wave (km/s) = 5.97022 6.76440 6.37968
#
# Compressibility (1/GPa) = 0.02140617
#
# Stress axis : x y z
#
# Youngs Moduli (GPa) = 62.28580 43.80978 90.34976
#
# Poissons Ratio (x) = 0.10944 0.41072
# Poissons Ratio (y) = 0.15560 0.65300
# Poissons Ratio (z) = 0.28314 0.31664
#
# Static dielectric constant tensor:
#      x y z
#    x 1.984860 0.000000 0.000000 
#    y 0.000000 1.856740 0.000000 
#    z 0.000000 0.000000 2.017880 
# 
# From -- ./inp_files/24963.got.cif
#   From: 2010.05.17/outbox.cif.g08.bks.cpg/sg70_13_cif.got.tgz:24963.got - 2010.06.03 15:57:51.
