data_PCOD9514516
_publ_section_title
;
Structure prediction by ZEFSAII (Michael W. Deem and Ramdas Pophale) SiO2 
 PCOD9514516
Probable space group: F D D D
;
_chemical_formula_sum "Si O2"
_cell_formula_units_Z 176
_cell_length_a 25.972555
_cell_length_b 17.901328
_cell_length_c 14.993948
_cell_angle_alpha 90.000000
_cell_angle_beta 90.000000
_cell_angle_gamma 90.000000
_cell_volume 6971.334554
_symmetry_space_group_name_H-M "F D D D"
_symmetry_group_IT_number 70
_space_group.IT_coordinate_system_code '2'
_symmetry_cell_setting 'orthorhombic'
loop_
_space_group_symop_operation_xyz
x,y,z
1/4-x,1/4-y,z
x,1/4-y,1/4-z
1/4-x,y,1/4-z
-x,-y,-z
3/4+x,3/4+y,-z
-x,3/4+y,3/4+z
3/4+x,-y,3/4+z
x,1/2+y,1/2+z
1/4-x,3/4-y,1/2+z
x,3/4-y,3/4-z
1/4-x,1/2+y,3/4-z
-x,1/2-y,1/2-z
3/4+x,1/4+y,1/2-z
-x,1/4+y,1/4+z
3/4+x,1/2-y,1/4+z
1/2+x,y,1/2+z
3/4-x,1/4-y,1/2+z
1/2+x,1/4-y,3/4-z
3/4-x,y,3/4-z
1/2-x,-y,1/2-z
1/4+x,3/4+y,1/2-z
1/2-x,3/4+y,1/4+z
1/4+x,-y,1/4+z
1/2+x,1/2+y,z
3/4-x,3/4-y,z
1/2+x,3/4-y,1/4-z
3/4-x,1/2+y,1/4-z
1/2-x,1/2-y,-z
1/4+x,1/4+y,-z
1/2-x,1/4+y,3/4+z
1/4+x,1/2-y,3/4+z
loop_
_atom_site_type_symbol
_atom_site_label
_atom_site_fract_x
_atom_site_fract_y
_atom_site_fract_z
Si Si1 0.957163 0.915537 0.006974
Si Si2 0.955161 0.909060 0.283853
Si Si3 0.375000 0.731235 0.875000
Si Si4 0.940335 0.749110 0.222634
Si Si5 0.148110 0.740680 0.783521
Si Si6 0.466555 0.218273 0.891311
O O1 0.912315 0.972342 0.043404
O O2 0.928823 0.836752 0.013803
O O3 0.009612 0.914361 0.064787
O O4 0.968776 0.952778 0.911341
O O5 0.979215 0.875000 0.375000
O O6 0.913508 0.966307 0.319658
O O7 0.930193 0.838670 0.232877
O O8 0.993471 0.953441 0.221094
O O9 0.411010 0.700104 0.797039
O O10 0.921560 0.728009 0.124821
O O11 0.000000 0.750000 0.250000
O O12 0.162961 0.785915 0.694576
#
# Coordination Sequence:
#
# PCOD9514516 Si02
#       6
#    32  32  16  32  32  32
#     4  10  23  38  63  92 121 168 215 255 310 373
#     4  10  19  35  59  86 119 157 199 252 318 361
#     4  10  21  36  62  88 120 156 202 262 309 358
#     4  11  21  34  59  94 121 155 202 261 314 373
#     4  11  21  38  65  91 122 160 220 260 304 381
#     4  11  21  38  60  91 127 158 204 267 312 368
#
# _framework density 25.246241000000001
#
# number of rings (size 3 to 8) (size 9 to 14) (size 15 to 20)
#    0.000    1.455    1.818    6.818    2.545    1.455 
#    0.000    0.000    4.000   13.091    0.000    0.000 
#    0.000    0.000    0.000    0.000    0.000    0.000 
#
# Total GULP energy -245561.229797 kJ/mol
# GULP energy per Si atom -5580.937041 kJ/mol
# Density = 2.518878 g / cm^3
# Si number density = 25.246241 Si / 1000 Ang^3
#
#
#
# Elastic Constant Matrix: (Units=GPa)
#
#
# Indices 1 2 3 4 5 6 
#
# 1 79.5128 15.4456 62.1140 0.0000 0.0000 0.0000
# 2 15.4456 74.2219 10.1557 0.0000 0.0000 0.0000
# 3 62.1140 10.1557 190.5918 0.0000 0.0000 0.0000
# 4 0.0000 0.0000 0.0000 11.7395 0.0000 0.0000
# 5 0.0000 0.0000 0.0000 0.0000 60.1791 0.0000
# 6 0.0000 0.0000 0.0000 0.0000 0.0000 31.1061
#
#
#
# Elastic Compliance Matrix: (Units=1/GPa)
#
#
# Indices 1 2 3 4 5 6 
#
# 1 0.017461 -0.002876 -0.005537 0.000000 0.000000 0.000000
# 2 -0.002876 0.014046 0.000189 0.000000 0.000000 0.000000
# 3 -0.005537 0.000189 0.007041 0.000000 0.000000 0.000000
# 4 0.000000 0.000000 0.000000 0.085182 0.000000 0.000000
# 5 0.000000 0.000000 0.000000 0.000000 0.016617 0.000000
# 6 0.000000 0.000000 0.000000 0.000000 0.000000 0.032148
#
#
# Mechanical properties :
#
#
# Convention : Reuss Voigt Hill
#
# Bulk Modulus (GPa) = 45.25041 57.75079 51.50060
# Shear Modulus (GPa) = 25.46987 37.71236 31.59112
#
# Velocity S-wave (km/s) = 3.17970 3.86914 3.54124
# Velocity P-wave (km/s) = 5.60742 6.54866 6.09623
#
# Compressibility (1/GPa) = 0.02209925
#
# Stress axis : x y z
#
# Youngs Moduli (GPa) = 57.27097 71.19586 142.01829
#
# Poissons Ratio (x) = 0.20475 0.78639
# Poissons Ratio (y) = 0.16471 -0.02682
# Poissons Ratio (z) = 0.31712 -0.01344
#
# Static dielectric constant tensor:
#      x y z
#    x 2.025290 0.000000 0.000000 
#    y 0.000000 2.051920 0.000000 
#    z 0.000000 0.000000 1.998560 
# 
# From -- ./inp_files/28749.got.cif
#   From: 2010.05.17/outbox.cif.g08.bks.cpg/sg70_15_cif.got.tgz:28749.got - 2010.06.03 15:57:51.
