data_PCOD9514046
_publ_section_title
;
Structure prediction by ZEFSAII (Michael W. Deem and Ramdas Pophale) SiO2 
 PCOD9514046
Probable space group: F D D D
;
_chemical_formula_sum "Si O2"
_cell_formula_units_Z 160
_cell_length_a 6.979791
_cell_length_b 27.990521
_cell_length_c 29.438155
_cell_angle_alpha 90.000000
_cell_angle_beta 90.000000
_cell_angle_gamma 90.000000
_cell_volume 5751.273070
_symmetry_space_group_name_H-M "F D D D"
_symmetry_group_IT_number 70
_space_group.IT_coordinate_system_code '2'
_symmetry_cell_setting 'orthorhombic'
loop_
_space_group_symop_operation_xyz
x,y,z
1/4-x,1/4-y,z
x,1/4-y,1/4-z
1/4-x,y,1/4-z
-x,-y,-z
3/4+x,3/4+y,-z
-x,3/4+y,3/4+z
3/4+x,-y,3/4+z
x,1/2+y,1/2+z
1/4-x,3/4-y,1/2+z
x,3/4-y,3/4-z
1/4-x,1/2+y,3/4-z
-x,1/2-y,1/2-z
3/4+x,1/4+y,1/2-z
-x,1/4+y,1/4+z
3/4+x,1/2-y,1/4+z
1/2+x,y,1/2+z
3/4-x,1/4-y,1/2+z
1/2+x,1/4-y,3/4-z
3/4-x,y,3/4-z
1/2-x,-y,1/2-z
1/4+x,3/4+y,1/2-z
1/2-x,3/4+y,1/4+z
1/4+x,-y,1/4+z
1/2+x,1/2+y,z
3/4-x,3/4-y,z
1/2+x,3/4-y,1/4-z
3/4-x,1/2+y,1/4-z
1/2-x,1/2-y,-z
1/4+x,1/4+y,-z
1/2-x,1/4+y,3/4+z
1/4+x,1/2-y,3/4+z
loop_
_atom_site_type_symbol
_atom_site_label
_atom_site_fract_x
_atom_site_fract_y
_atom_site_fract_z
Si Si1 0.598330 0.801303 0.390161
Si Si2 0.350678 0.134190 0.324560
Si Si3 0.935284 0.528341 0.206195
Si Si4 0.650404 0.885808 0.976833
Si Si5 0.968616 0.220913 0.449835
O O1 0.375000 0.813673 0.375000
O O2 0.721626 0.794100 0.345079
O O3 0.653514 0.837622 0.430486
O O4 0.588398 0.750191 0.413593
O O5 0.375000 0.155300 0.375000
O O6 0.400233 0.158553 0.275958
O O7 0.454350 0.082635 0.320262
O O8 0.125000 0.125000 0.321108
O O9 0.919318 0.581505 0.228098
O O10 0.038832 0.509186 0.250886
O O11 0.749069 0.493831 0.200137
O O12 0.875000 0.875000 0.973795
#
# Coordination Sequence:
#
# PCOD9514046 Si02
#       5
#    32  32  32  32  32
#     4  10  16  23  41  64 101 128 146 196 261 303
#     4  10  21  34  48  68  98 134 171 210 246 297
#     4   9  16  22  37  61  99 127 151 185 252 301
#     4  10  16  25  40  68 100 124 150 200 255 308
#     4   9  17  27  39  65  99 125 163 188 243 308
#
# _framework density 27.819927
#
# number of rings (size 3 to 8) (size 9 to 14) (size 15 to 20)
#    0.000    2.400    4.000    2.400    2.800    0.000 
#    0.000    0.000    0.000    0.000    0.000   12.600 
#    0.000    7.000    0.000    0.000    0.000    7.400 
#
# Total GULP energy -223020.036644 kJ/mol
# GULP energy per Si atom -5575.500916 kJ/mol
# Density = 2.775661 g / cm^3
# Si number density = 27.819927 Si / 1000 Ang^3
#
#
#
# Elastic Constant Matrix: (Units=GPa)
#
#
# Indices 1 2 3 4 5 6 
#
# 1 81.4559 -10.0674 21.9778 0.0000 0.0000 0.0000
# 2 -10.0674 89.4669 -9.7093 0.0000 0.0000 0.0000
# 3 21.9778 -9.7093 209.7627 0.0000 0.0000 0.0000
# 4 0.0000 0.0000 0.0000 22.9995 0.0000 0.0000
# 5 0.0000 0.0000 0.0000 0.0000 32.6031 0.0000
# 6 0.0000 0.0000 0.0000 0.0000 0.0000 9.0865
#
#
#
# Elastic Compliance Matrix: (Units=1/GPa)
#
#
# Indices 1 2 3 4 5 6 
#
# 1 0.012782 0.001300 -0.001279 0.000000 0.000000 0.000000
# 2 0.001300 0.011366 0.000390 0.000000 0.000000 0.000000
# 3 -0.001279 0.000390 0.004919 0.000000 0.000000 0.000000
# 4 0.000000 0.000000 0.000000 0.043479 0.000000 0.000000
# 5 0.000000 0.000000 0.000000 0.000000 0.030672 0.000000
# 6 0.000000 0.000000 0.000000 0.000000 0.000000 0.110054
#
#
# Mechanical properties :
#
#
# Convention : Reuss Voigt Hill
#
# Bulk Modulus (GPa) = 33.45798 42.78754 38.12276
# Shear Modulus (GPa) = 22.48053 38.17009 30.32531
#
# Velocity S-wave (km/s) = 2.84575 3.70813 3.30518
# Velocity P-wave (km/s) = 4.78021 5.80923 5.31966
#
# Compressibility (1/GPa) = 0.02988824
#
# Stress axis : x y z
#
# Youngs Moduli (GPa) = 78.23309 87.98278 203.27849
#
# Poissons Ratio (x) = -0.11434 0.26002
# Poissons Ratio (y) = -0.10167 -0.07927
# Poissons Ratio (z) = 0.10007 -0.03431
#
# Static dielectric constant tensor:
#      x y z
#    x 2.018760 0.000000 0.000000 
#    y 0.000000 2.129140 0.000000 
#    z 0.000000 0.000000 2.299730 
# 
# From -- ./inp_files/64856.got.cif
#   From: 2010.05.17/outbox.cif.g08.bks.cpg/sg70_33_cif.got.tgz:64856.got - 2010.06.03 15:57:51.
