data_PCOD9514702
_publ_section_title
;
Structure prediction by ZEFSAII (Michael W. Deem and Ramdas Pophale) SiO2 
 PCOD9514702
Probable space group: F D D D
;
_chemical_formula_sum "Si O2"
_cell_formula_units_Z 144
_cell_length_a 18.224721
_cell_length_b 14.161767
_cell_length_c 24.307940
_cell_angle_alpha 90.000000
_cell_angle_beta 90.000000
_cell_angle_gamma 90.000000
_cell_volume 6273.739603
_symmetry_space_group_name_H-M "F D D D"
_symmetry_group_IT_number 70
_space_group.IT_coordinate_system_code '2'
_symmetry_cell_setting 'orthorhombic'
loop_
_space_group_symop_operation_xyz
x,y,z
1/4-x,1/4-y,z
x,1/4-y,1/4-z
1/4-x,y,1/4-z
-x,-y,-z
3/4+x,3/4+y,-z
-x,3/4+y,3/4+z
3/4+x,-y,3/4+z
x,1/2+y,1/2+z
1/4-x,3/4-y,1/2+z
x,3/4-y,3/4-z
1/4-x,1/2+y,3/4-z
-x,1/2-y,1/2-z
3/4+x,1/4+y,1/2-z
-x,1/4+y,1/4+z
3/4+x,1/2-y,1/4+z
1/2+x,y,1/2+z
3/4-x,1/4-y,1/2+z
1/2+x,1/4-y,3/4-z
3/4-x,y,3/4-z
1/2-x,-y,1/2-z
1/4+x,3/4+y,1/2-z
1/2-x,3/4+y,1/4+z
1/4+x,-y,1/4+z
1/2+x,1/2+y,z
3/4-x,3/4-y,z
1/2+x,3/4-y,1/4-z
3/4-x,1/2+y,1/4-z
1/2-x,1/2-y,-z
1/4+x,1/4+y,-z
1/2-x,1/4+y,3/4+z
1/4+x,1/2-y,3/4+z
loop_
_atom_site_type_symbol
_atom_site_label
_atom_site_fract_x
_atom_site_fract_y
_atom_site_fract_z
Si Si1 0.738871 0.708349 0.917954
Si Si2 0.226011 0.875000 0.875000
Si Si3 0.734936 0.494805 0.534564
Si Si4 0.141346 0.512818 0.933841
Si Si5 0.382905 0.762808 0.266067
O O1 0.736130 0.597214 0.932474
O O2 0.708095 0.739590 0.859909
O O3 0.822338 0.732595 0.930877
O O4 0.685711 0.756800 0.963460
O O5 0.275520 0.926441 0.919978
O O6 0.173337 0.799342 0.906648
O O7 0.668190 0.476501 0.493330
O O8 0.803437 0.527276 0.496708
O O9 0.125000 0.625000 0.938846
O O10 0.375000 0.875000 0.269911
#
# Coordination Sequence:
#
# PCOD9514702 Si02
#       5
#    32  16  32  32  32
#     4  10  19  41  62  96 142 170 213 284 339 402
#     4  12  24  46  71 101 132 182 228 280 344 402
#     4  11  23  40  68  97 130 186 225 276 340 406
#     4  12  25  44  70  98 133 180 229 280 344 409
#     4   9  18  34  62  98 135 171 215 269 344 410
#
# _framework density 22.952818000000001
#
# number of rings (size 3 to 8) (size 9 to 14) (size 15 to 20)
#    0.000    1.333    4.444    2.000    6.222    1.778 
#    0.000    3.889    0.000    0.000    0.000    0.000 
#    0.000    0.000    0.000    0.000    0.000    0.000 
#
# Total GULP energy -201211.948137 kJ/mol
# GULP energy per Si atom -5589.220782 kJ/mol
# Density = 2.290058 g / cm^3
# Si number density = 22.952818 Si / 1000 Ang^3
#
#
#
# Elastic Constant Matrix: (Units=GPa)
#
#
# Indices 1 2 3 4 5 6 
#
# 1 25.7826 -6.0785 17.4076 0.0000 0.0000 0.0000
# 2 -6.0785 66.2141 18.5806 0.0000 0.0000 0.0000
# 3 17.4076 18.5806 108.6022 0.0000 0.0000 0.0000
# 4 0.0000 0.0000 0.0000 23.5451 0.0000 0.0000
# 5 0.0000 0.0000 0.0000 0.0000 16.6648 0.0000
# 6 0.0000 0.0000 0.0000 0.0000 0.0000 21.0453
#
#
#
# Elastic Compliance Matrix: (Units=1/GPa)
#
#
# Indices 1 2 3 4 5 6 
#
# 1 0.046102 0.006624 -0.008523 0.000000 0.000000 0.000000
# 2 0.006624 0.016816 -0.003939 0.000000 0.000000 0.000000
# 3 -0.008523 -0.003939 0.011248 0.000000 0.000000 0.000000
# 4 0.000000 0.000000 0.000000 0.042472 0.000000 0.000000
# 5 0.000000 0.000000 0.000000 0.000000 0.060007 0.000000
# 6 0.000000 0.000000 0.000000 0.000000 0.000000 0.047517
#
#
# Mechanical properties :
#
#
# Convention : Reuss Voigt Hill
#
# Bulk Modulus (GPa) = 16.00251 28.93535 22.46893
# Shear Modulus (GPa) = 19.48057 23.63032 21.55544
#
# Velocity S-wave (km/s) = 2.91644 3.21209 3.06783
# Velocity P-wave (km/s) = 4.28111 5.13717 4.72855
#
# Compressibility (1/GPa) = 0.06249018
#
# Stress axis : x y z
#
# Youngs Moduli (GPa) = 21.69110 59.46764 88.90551
#
# Poissons Ratio (x) = -0.39390 0.75773
# Poissons Ratio (y) = -0.14368 0.35017
# Poissons Ratio (z) = 0.18487 0.23423
#
# Static dielectric constant tensor:
#      x y z
#    x 1.851370 0.000000 0.000000 
#    y 0.000000 1.901030 0.000000 
#    z 0.000000 0.000000 1.873580 
# 
# From -- ./inp_files/43761.got.cif
#   From: 2010.05.17/outbox.cif.g08.bks.cpg/sg70_22_cif.got.tgz:43761.got - 2010.06.03 15:57:51.
