data_PCOD9514989
_publ_section_title
;
Structure prediction by ZEFSAII (Michael W. Deem and Ramdas Pophale) SiO2 
 PCOD9514989
Probable space group: F D D D
;
_chemical_formula_sum "Si O2"
_cell_formula_units_Z 128
_cell_length_a 25.987435
_cell_length_b 9.454587
_cell_length_c 24.443732
_cell_angle_alpha 90.000000
_cell_angle_beta 90.000000
_cell_angle_gamma 90.000000
_cell_volume 6005.836322
_symmetry_space_group_name_H-M "F D D D"
_symmetry_group_IT_number 70
_space_group.IT_coordinate_system_code '2'
_symmetry_cell_setting 'orthorhombic'
loop_
_space_group_symop_operation_xyz
x,y,z
1/4-x,1/4-y,z
x,1/4-y,1/4-z
1/4-x,y,1/4-z
-x,-y,-z
3/4+x,3/4+y,-z
-x,3/4+y,3/4+z
3/4+x,-y,3/4+z
x,1/2+y,1/2+z
1/4-x,3/4-y,1/2+z
x,3/4-y,3/4-z
1/4-x,1/2+y,3/4-z
-x,1/2-y,1/2-z
3/4+x,1/4+y,1/2-z
-x,1/4+y,1/4+z
3/4+x,1/2-y,1/4+z
1/2+x,y,1/2+z
3/4-x,1/4-y,1/2+z
1/2+x,1/4-y,3/4-z
3/4-x,y,3/4-z
1/2-x,-y,1/2-z
1/4+x,3/4+y,1/2-z
1/2-x,3/4+y,1/4+z
1/4+x,-y,1/4+z
1/2+x,1/2+y,z
3/4-x,3/4-y,z
1/2+x,3/4-y,1/4-z
3/4-x,1/2+y,1/4-z
1/2-x,1/2-y,-z
1/4+x,1/4+y,-z
1/2-x,1/4+y,3/4+z
1/4+x,1/2-y,3/4+z
loop_
_atom_site_type_symbol
_atom_site_label
_atom_site_fract_x
_atom_site_fract_y
_atom_site_fract_z
Si Si1 0.290204 0.650766 0.969623
Si Si2 0.105104 0.465603 0.262725
Si Si3 0.993815 0.096268 0.052926
Si Si4 0.681020 0.871029 0.105186
O O1 0.341732 0.634520 0.004671
O O2 0.270045 0.494478 0.960089
O O3 0.302360 0.709378 0.908639
O O4 0.250000 0.750000 0.000000
O O5 0.125000 0.625000 0.274136
O O6 0.066270 0.392925 0.305607
O O7 0.078335 0.453225 0.202082
O O8 0.025248 0.998334 0.095416
O O9 0.000000 0.000000 0.000000
O O10 0.625000 0.811474 0.125000
#
# Coordination Sequence:
#
# PCOD9514989 Si02
#       4
#    32  32  32  32
#     4  11  21  36  61  91 124 166 218 265 326 395
#     4  10  20  38  62  95 127 165 214 274 332 387
#     4  10  21  38  59  91 128 163 207 272 333 384
#     4   9  21  36  62  93 127 165 221 270 325 390
#
# _framework density 21.312602999999999
#
# number of rings (size 3 to 8) (size 9 to 14) (size 15 to 20)
#    0.000    2.000    2.500    0.750    0.000   16.500 
#    0.000    0.000    0.000   21.000    0.000    0.000 
#    0.000    0.000    0.000    0.000    0.000    0.000 
#
# Total GULP energy -178199.409371 kJ/mol
# GULP energy per Si atom -5568.731543 kJ/mol
# Density = 2.126409 g / cm^3
# Si number density = 21.312603 Si / 1000 Ang^3
#
#
#
# Elastic Constant Matrix: (Units=GPa)
#
#
# Indices 1 2 3 4 5 6 
#
# 1 174.0213 42.8750 55.9504 0.0000 0.0000 0.0000
# 2 42.8750 81.4416 37.9001 0.0000 0.0000 0.0000
# 3 55.9504 37.9001 79.6037 0.0000 0.0000 0.0000
# 4 0.0000 0.0000 0.0000 23.0876 0.0000 0.0000
# 5 0.0000 0.0000 0.0000 0.0000 26.2004 0.0000
# 6 0.0000 0.0000 0.0000 0.0000 0.0000 43.0640
#
#
#
# Elastic Compliance Matrix: (Units=1/GPa)
#
#
# Indices 1 2 3 4 5 6 
#
# 1 0.007661 -0.001962 -0.004450 0.000000 0.000000 0.000000
# 2 -0.001962 0.016276 -0.006370 0.000000 0.000000 0.000000
# 3 -0.004450 -0.006370 0.018723 0.000000 0.000000 0.000000
# 4 0.000000 0.000000 0.000000 0.043313 0.000000 0.000000
# 5 0.000000 0.000000 0.000000 0.000000 0.038167 0.000000
# 6 0.000000 0.000000 0.000000 0.000000 0.000000 0.023221
#
#
# Mechanical properties :
#
#
# Convention : Reuss Voigt Hill
#
# Bulk Modulus (GPa) = 58.49687 67.61305 63.05496
# Shear Modulus (GPa) = 27.99162 31.69313 29.84237
#
# Velocity S-wave (km/s) = 3.62799 3.86043 3.74601
# Velocity P-wave (km/s) = 6.71241 7.18776 6.95415
#
# Compressibility (1/GPa) = 0.01709493
#
# Stress axis : x y z
#
# Youngs Moduli (GPa) = 130.53760 61.43984 53.41003
#
# Poissons Ratio (x) = 0.12054 0.23769
# Poissons Ratio (y) = 0.25611 0.34023
# Poissons Ratio (z) = 0.58093 0.39139
#
# Static dielectric constant tensor:
#      x y z
#    x 1.850950 0.000000 0.000000 
#    y 0.000000 1.775020 0.000000 
#    z 0.000000 0.000000 1.845210 
# 
# From -- ./inp_files/60945.got.cif
#   From: 2010.05.17/outbox.cif.g08.bks.cpg/sg70_31_cif.got.tgz:60945.got - 2010.06.03 15:57:51.
