data_PCOD9514892
_publ_section_title
;
Structure prediction by ZEFSAII (Michael W. Deem and Ramdas Pophale) SiO2 
 PCOD9514892
Probable space group: F D D D
;
_chemical_formula_sum "Si O2"
_cell_formula_units_Z 168
_cell_length_a 12.699545
_cell_length_b 24.845355
_cell_length_c 28.542356
_cell_angle_alpha 90.000000
_cell_angle_beta 90.000000
_cell_angle_gamma 90.000000
_cell_volume 9005.818424
_symmetry_space_group_name_H-M "F D D D"
_symmetry_group_IT_number 70
_space_group.IT_coordinate_system_code '2'
_symmetry_cell_setting 'orthorhombic'
loop_
_space_group_symop_operation_xyz
x,y,z
1/4-x,1/4-y,z
x,1/4-y,1/4-z
1/4-x,y,1/4-z
-x,-y,-z
3/4+x,3/4+y,-z
-x,3/4+y,3/4+z
3/4+x,-y,3/4+z
x,1/2+y,1/2+z
1/4-x,3/4-y,1/2+z
x,3/4-y,3/4-z
1/4-x,1/2+y,3/4-z
-x,1/2-y,1/2-z
3/4+x,1/4+y,1/2-z
-x,1/4+y,1/4+z
3/4+x,1/2-y,1/4+z
1/2+x,y,1/2+z
3/4-x,1/4-y,1/2+z
1/2+x,1/4-y,3/4-z
3/4-x,y,3/4-z
1/2-x,-y,1/2-z
1/4+x,3/4+y,1/2-z
1/2-x,3/4+y,1/4+z
1/4+x,-y,1/4+z
1/2+x,1/2+y,z
3/4-x,3/4-y,z
1/2+x,3/4-y,1/4-z
3/4-x,1/2+y,1/4-z
1/2-x,1/2-y,-z
1/4+x,1/4+y,-z
1/2-x,1/4+y,3/4+z
1/4+x,1/2-y,3/4+z
loop_
_atom_site_type_symbol
_atom_site_label
_atom_site_fract_x
_atom_site_fract_y
_atom_site_fract_z
Si Si1 0.252790 0.302545 0.298851
Si Si2 0.506085 0.607500 0.803047
Si Si3 0.125000 0.625000 0.125000
Si Si4 0.625000 0.625000 0.323360
Si Si5 0.584927 0.807843 0.575569
Si Si6 0.959196 0.257289 0.198195
Si Si7 0.625000 0.283305 0.625000
O O1 0.259381 0.331319 0.248521
O O2 0.305039 0.338215 0.339777
O O3 0.306657 0.243795 0.295131
O O4 0.133892 0.284881 0.311039
O O5 0.625000 0.625000 0.816762
O O6 0.426418 0.657561 0.801983
O O7 0.452749 0.567911 0.841262
O O8 0.513783 0.596575 0.339127
O O9 0.672224 0.569708 0.302471
O O10 0.625000 0.786036 0.625000
O O11 0.000000 0.250000 0.250000
O O12 0.049931 0.251117 0.159835
#
# Coordination Sequence:
#
# PCOD9514892 Si02
#       7
#    32  32   8  16  32  32  16
#     4  11  25  44  67  94 137 181 220 278 342 407
#     4  12  25  41  67  99 134 170 230 286 333 399
#     4  12  24  50  62  98 144 180 216 276 348 410
#     4  10  20  36  65  93 130 166 217 279 330 388
#     4  11  22  38  66  97 124 176 222 275 338 394
#     4  11  22  43  66  98 132 175 224 279 340 395
#     4  12  24  39  66 101 134 171 225 294 330 390
#
# _framework density 18.654606999999999
#
# number of rings (size 3 to 8) (size 9 to 14) (size 15 to 20)
#    0.000    0.762    6.667    0.000    8.000    0.762 
#    3.429    1.905    0.000    0.000    0.000    0.000 
#    0.000    0.000    0.000    0.000    0.000    0.000 
#
# Total GULP energy -233974.030483 kJ/mol
# GULP energy per Si atom -5570.810250 kJ/mol
# Density = 1.861215 g / cm^3
# Si number density = 18.654607 Si / 1000 Ang^3
#
#
#
# Elastic Constant Matrix: (Units=GPa)
#
#
# Indices 1 2 3 4 5 6 
#
# 1 162.4654 55.5907 65.6204 0.0000 0.0000 0.0000
# 2 55.5907 69.2693 39.8007 0.0000 0.0000 0.0000
# 3 65.6204 39.8007 121.0944 0.0000 0.0000 0.0000
# 4 0.0000 0.0000 0.0000 21.5299 0.0000 0.0000
# 5 0.0000 0.0000 0.0000 0.0000 20.2940 0.0000
# 6 0.0000 0.0000 0.0000 0.0000 0.0000 30.2130
#
#
#
# Elastic Compliance Matrix: (Units=1/GPa)
#
#
# Indices 1 2 3 4 5 6 
#
# 1 0.009407 -0.005696 -0.003225 0.000000 0.000000 0.000000
# 2 -0.005696 0.021247 -0.003897 0.000000 0.000000 0.000000
# 3 -0.003225 -0.003897 0.011287 0.000000 0.000000 0.000000
# 4 0.000000 0.000000 0.000000 0.046447 0.000000 0.000000
# 5 0.000000 0.000000 0.000000 0.000000 0.049276 0.000000
# 6 0.000000 0.000000 0.000000 0.000000 0.000000 0.033098
#
#
# Mechanical properties :
#
#
# Convention : Reuss Voigt Hill
#
# Bulk Modulus (GPa) = 61.33471 74.98363 68.15917
# Shear Modulus (GPa) = 24.77311 27.19520 25.98415
#
# Velocity S-wave (km/s) = 3.64811 3.82229 3.73622
# Velocity P-wave (km/s) = 7.12007 7.73065 7.43163
#
# Compressibility (1/GPa) = 0.01630398
#
# Stress axis : x y z
#
# Youngs Moduli (GPa) = 106.30437 47.06636 88.60110
#
# Poissons Ratio (x) = 0.26810 0.28577
# Poissons Ratio (y) = 0.60552 0.34524
# Poissons Ratio (z) = 0.34287 0.18340
#
# Static dielectric constant tensor:
#      x y z
#    x 1.733580 0.000000 0.000000 
#    y 0.000000 1.631420 0.000000 
#    z 0.000000 0.000000 1.652400 
# 
# From -- ./inp_files/64799.got.cif
#   From: 2010.05.17/outbox.cif.g08.bks.cpg/sg70_33_cif.got.tgz:64799.got - 2010.06.03 15:57:51.
