data_PCOD9514831
_publ_section_title
;
Structure prediction by ZEFSAII (Michael W. Deem and Ramdas Pophale) SiO2 
 PCOD9514831
Probable space group: F D D D
;
_chemical_formula_sum "Si O2"
_cell_formula_units_Z 240
_cell_length_a 20.606987
_cell_length_b 19.185236
_cell_length_c 29.139518
_cell_angle_alpha 90.000000
_cell_angle_beta 90.000000
_cell_angle_gamma 90.000000
_cell_volume 11520.305785
_symmetry_space_group_name_H-M "F D D D"
_symmetry_group_IT_number 70
_space_group.IT_coordinate_system_code '2'
_symmetry_cell_setting 'orthorhombic'
loop_
_space_group_symop_operation_xyz
x,y,z
1/4-x,1/4-y,z
x,1/4-y,1/4-z
1/4-x,y,1/4-z
-x,-y,-z
3/4+x,3/4+y,-z
-x,3/4+y,3/4+z
3/4+x,-y,3/4+z
x,1/2+y,1/2+z
1/4-x,3/4-y,1/2+z
x,3/4-y,3/4-z
1/4-x,1/2+y,3/4-z
-x,1/2-y,1/2-z
3/4+x,1/4+y,1/2-z
-x,1/4+y,1/4+z
3/4+x,1/2-y,1/4+z
1/2+x,y,1/2+z
3/4-x,1/4-y,1/2+z
1/2+x,1/4-y,3/4-z
3/4-x,y,3/4-z
1/2-x,-y,1/2-z
1/4+x,3/4+y,1/2-z
1/2-x,3/4+y,1/4+z
1/4+x,-y,1/4+z
1/2+x,1/2+y,z
3/4-x,3/4-y,z
1/2+x,3/4-y,1/4-z
3/4-x,1/2+y,1/4-z
1/2-x,1/2-y,-z
1/4+x,1/4+y,-z
1/2-x,1/4+y,3/4+z
1/4+x,1/2-y,3/4+z
loop_
_atom_site_type_symbol
_atom_site_label
_atom_site_fract_x
_atom_site_fract_y
_atom_site_fract_z
Si Si1 0.570695 0.821581 0.672751
Si Si2 0.033998 0.996592 0.284624
Si Si3 0.067214 0.235404 0.802983
Si Si4 0.130378 0.386847 0.424899
Si Si5 0.743972 0.862044 0.082083
Si Si6 0.607081 0.437569 0.018210
Si Si7 0.625000 0.625000 0.377019
Si Si8 0.106886 0.200224 0.539485
O O1 0.507700 0.784480 0.693905
O O2 0.547634 0.860262 0.626006
O O3 0.598473 0.879919 0.706724
O O4 0.624654 0.760684 0.674730
O O5 0.068416 0.951158 0.324902
O O6 0.090613 0.996589 0.246098
O O7 0.967889 0.955590 0.273664
O O8 0.010220 0.071555 0.300259
O O9 0.081772 0.316205 0.812077
O O10 0.098538 0.186807 0.841782
O O11 0.100349 0.213395 0.755649
O O12 0.100541 0.375000 0.375000
O O13 0.085979 0.406138 0.468660
O O14 0.703260 0.806190 0.052591
O O15 0.815434 0.841920 0.098917
O O16 0.125000 0.125000 0.558508
#
# Coordination Sequence:
#
# PCOD9514831 Si02
#       8
#    32  32  32  32  32  32  16  32
#     4  11  21  35  57  80 118 166 189 242 293 350
#     4  10  22  36  56  86 118 160 201 249 296 354
#     4  11  20  35  52  84 120 155 208 243 288 357
#     4  10  20  36  56  80 114 154 197 245 288 351
#     4  11  22  44  59  87 121 152 210 248 316 369
#     4  10  22  37  59  82 113 159 197 247 301 357
#     4  10  24  34  64  80 113 163 194 264 310 368
#     4  12  20  32  51  86 123 164 202 230 279 347
#
# _framework density 20.83278
#
# number of rings (size 3 to 8) (size 9 to 14) (size 15 to 20)
#    0.800    0.533    3.333    4.000    1.867    0.000 
#    0.000    1.333    0.000    0.000    0.000    0.467 
#    0.000    0.000    0.000    0.000    0.000    0.000 
#
# Total GULP energy -334575.273465 kJ/mol
# GULP energy per Si atom -5576.254558 kJ/mol
# Density = 2.078536 g / cm^3
# Si number density = 20.832780 Si / 1000 Ang^3
#
#
#
# Elastic Constant Matrix: (Units=GPa)
#
#
# Indices 1 2 3 4 5 6 
#
# 1 108.7404 -2.6667 43.1580 0.0000 0.0000 0.0000
# 2 -2.6667 26.2482 -8.8959 0.0000 0.0000 0.0000
# 3 43.1580 -8.8959 110.2817 0.0000 0.0000 0.0000
# 4 0.0000 0.0000 0.0000 14.0003 0.0000 0.0000
# 5 0.0000 0.0000 0.0000 0.0000 39.2664 0.0000
# 6 0.0000 0.0000 0.0000 0.0000 0.0000 16.4090
#
#
#
# Elastic Compliance Matrix: (Units=1/GPa)
#
#
# Indices 1 2 3 4 5 6 
#
# 1 0.010890 -0.000347 -0.004290 0.000000 0.000000 0.000000
# 2 -0.000347 0.039180 0.003296 0.000000 0.000000 0.000000
# 3 -0.004290 0.003296 0.011012 0.000000 0.000000 0.000000
# 4 0.000000 0.000000 0.000000 0.071427 0.000000 0.000000
# 5 0.000000 0.000000 0.000000 0.000000 0.025467 0.000000
# 6 0.000000 0.000000 0.000000 0.000000 0.000000 0.060942
#
#
# Mechanical properties :
#
#
# Convention : Reuss Voigt Hill
#
# Bulk Modulus (GPa) = 17.12311 34.27344 25.69828
# Shear Modulus (GPa) = 20.74108 28.18014 24.46061
#
# Velocity S-wave (km/s) = 3.15873 3.68187 3.43029
# Velocity P-wave (km/s) = 4.64119 5.87897 5.29636
#
# Compressibility (1/GPa) = 0.05840059
#
# Stress axis : x y z
#
# Youngs Moduli (GPa) = 91.82486 25.52340 90.80673
#
# Poissons Ratio (x) = 0.00887 0.38955
# Poissons Ratio (y) = 0.03191 -0.29934
# Poissons Ratio (z) = 0.39392 -0.08414
#
# Static dielectric constant tensor:
#      x y z
#    x 1.802530 0.000000 0.000000 
#    y 0.000000 1.776840 0.000000 
#    z 0.000000 0.000000 1.794950 
# 
# From -- ./inp_files/60543.got.cif
#   From: 2010.05.17/outbox.cif.g08.bks.cpg/sg70_31_cif.got.tgz:60543.got - 2010.06.03 15:57:51.
