data_PCOD9514681
_publ_section_title
;
Structure prediction by ZEFSAII (Michael W. Deem and Ramdas Pophale) SiO2 
 PCOD9514681
Probable space group: F D D D
;
_chemical_formula_sum "Si O2"
_cell_formula_units_Z 160
_cell_length_a 14.271548
_cell_length_b 19.771822
_cell_length_c 29.719422
_cell_angle_alpha 90.000000
_cell_angle_beta 90.000000
_cell_angle_gamma 90.000000
_cell_volume 8386.063243
_symmetry_space_group_name_H-M "F D D D"
_symmetry_group_IT_number 70
_space_group.IT_coordinate_system_code '2'
_symmetry_cell_setting 'orthorhombic'
loop_
_space_group_symop_operation_xyz
x,y,z
1/4-x,1/4-y,z
x,1/4-y,1/4-z
1/4-x,y,1/4-z
-x,-y,-z
3/4+x,3/4+y,-z
-x,3/4+y,3/4+z
3/4+x,-y,3/4+z
x,1/2+y,1/2+z
1/4-x,3/4-y,1/2+z
x,3/4-y,3/4-z
1/4-x,1/2+y,3/4-z
-x,1/2-y,1/2-z
3/4+x,1/4+y,1/2-z
-x,1/4+y,1/4+z
3/4+x,1/2-y,1/4+z
1/2+x,y,1/2+z
3/4-x,1/4-y,1/2+z
1/2+x,1/4-y,3/4-z
3/4-x,y,3/4-z
1/2-x,-y,1/2-z
1/4+x,3/4+y,1/2-z
1/2-x,3/4+y,1/4+z
1/4+x,-y,1/4+z
1/2+x,1/2+y,z
3/4-x,3/4-y,z
1/2+x,3/4-y,1/4-z
3/4-x,1/2+y,1/4-z
1/2-x,1/2-y,-z
1/4+x,1/4+y,-z
1/2-x,1/4+y,3/4+z
1/4+x,1/2-y,3/4+z
loop_
_atom_site_type_symbol
_atom_site_label
_atom_site_fract_x
_atom_site_fract_y
_atom_site_fract_z
Si Si1 0.673580 0.267603 0.349569
Si Si2 0.388929 0.738060 0.751310
Si Si3 0.171421 0.890201 0.579198
Si Si4 0.875000 0.875000 0.639252
Si Si5 0.375000 0.507530 0.875000
Si Si6 0.375000 0.375000 0.450315
Si Si7 0.469132 0.125000 0.125000
O O1 0.652808 0.279379 0.297227
O O2 0.655753 0.188536 0.359345
O O3 0.780376 0.281807 0.363969
O O4 0.599638 0.310980 0.378156
O O5 0.500000 0.750000 0.750000
O O6 0.366991 0.679110 0.786663
O O7 0.351607 0.809549 0.770096
O O8 0.125000 0.920894 0.625000
O O9 0.283302 0.894858 0.582624
O O10 0.144028 0.810982 0.584065
O O11 0.463307 0.386761 0.417459
#
# Coordination Sequence:
#
# PCOD9514681 Si02
#       7
#    32  32  32  16  16  16  16
#     4  11  22  39  62  90 118 166 204 256 304 374
#     4  12  23  36  62  94 126 154 202 261 314 369
#     4   9  20  37  60  87 116 154 206 249 297 362
#     4  10  19  40  65  80 117 169 208 234 301 387
#     4   8  22  39  64  79 118 170 220 236 292 381
#     4  11  25  36  57  92 126 158 192 254 323 377
#     4  11  24  39  58  88 132 159 194 257 332 362
#
# _framework density 19.079274000000002
#
# number of rings (size 3 to 8) (size 9 to 14) (size 15 to 20)
#    0.600    1.000    2.000    3.000    5.600    0.400 
#    0.000    2.000    0.000    6.000    0.000    0.000 
#    0.000    0.000    0.000    0.000    0.000    0.000 
#
# Total GULP energy -223203.141148 kJ/mol
# GULP energy per Si atom -5580.078529 kJ/mol
# Density = 1.903585 g / cm^3
# Si number density = 19.079274 Si / 1000 Ang^3
#
#
#
# Elastic Constant Matrix: (Units=GPa)
#
#
# Indices 1 2 3 4 5 6 
#
# 1 164.7253 19.6131 36.9213 0.0000 0.0000 0.0000
# 2 19.6131 41.1214 19.0820 0.0000 0.0000 0.0000
# 3 36.9213 19.0820 73.0158 0.0000 0.0000 0.0000
# 4 0.0000 0.0000 0.0000 17.8501 0.0000 0.0000
# 5 0.0000 0.0000 0.0000 0.0000 15.4519 0.0000
# 6 0.0000 0.0000 0.0000 0.0000 0.0000 31.6475
#
#
#
# Elastic Compliance Matrix: (Units=1/GPa)
#
#
# Indices 1 2 3 4 5 6 
#
# 1 0.006978 -0.001924 -0.003026 0.000000 0.000000 0.000000
# 2 -0.001924 0.028205 -0.006398 0.000000 0.000000 0.000000
# 3 -0.003026 -0.006398 0.016898 0.000000 0.000000 0.000000
# 4 0.000000 0.000000 0.000000 0.056022 0.000000 0.000000
# 5 0.000000 0.000000 0.000000 0.000000 0.064717 0.000000
# 6 0.000000 0.000000 0.000000 0.000000 0.000000 0.031598
#
#
# Mechanical properties :
#
#
# Convention : Reuss Voigt Hill
#
# Bulk Modulus (GPa) = 34.03117 47.78833 40.90975
# Shear Modulus (GPa) = 21.10518 26.53964 23.82241
#
# Velocity S-wave (km/s) = 3.32954 3.73368 3.53739
# Velocity P-wave (km/s) = 5.71459 6.60975 6.17841
#
# Compressibility (1/GPa) = 0.02938483
#
# Stress axis : x y z
#
# Youngs Moduli (GPa) = 143.30803 35.45470 59.17963
#
# Poissons Ratio (x) = 0.06822 0.17906
# Poissons Ratio (y) = 0.27575 0.37864
# Poissons Ratio (z) = 0.43360 0.22684
#
# Static dielectric constant tensor:
#      x y z
#    x 1.678360 0.000000 0.000000 
#    y 0.000000 1.710040 0.000000 
#    z 0.000000 0.000000 1.636950 
# 
# From -- ./inp_files/65733.got.cif
#   From: 2010.05.17/outbox.cif.g08.bks.cpg/sg70_33_cif.got.tgz:65733.got - 2010.06.03 15:57:51.
