data_PCOD9514199
_publ_section_title
;
Structure prediction by ZEFSAII (Michael W. Deem and Ramdas Pophale) SiO2 
 PCOD9514199
Probable space group: F D D D
;
_chemical_formula_sum "Si O2"
_cell_formula_units_Z 240
_cell_length_a 15.167574
_cell_length_b 25.197420
_cell_length_c 29.984498
_cell_angle_alpha 90.000000
_cell_angle_beta 90.000000
_cell_angle_gamma 90.000000
_cell_volume 11459.587362
_symmetry_space_group_name_H-M "F D D D"
_symmetry_group_IT_number 70
_space_group.IT_coordinate_system_code '2'
_symmetry_cell_setting 'orthorhombic'
loop_
_space_group_symop_operation_xyz
x,y,z
1/4-x,1/4-y,z
x,1/4-y,1/4-z
1/4-x,y,1/4-z
-x,-y,-z
3/4+x,3/4+y,-z
-x,3/4+y,3/4+z
3/4+x,-y,3/4+z
x,1/2+y,1/2+z
1/4-x,3/4-y,1/2+z
x,3/4-y,3/4-z
1/4-x,1/2+y,3/4-z
-x,1/2-y,1/2-z
3/4+x,1/4+y,1/2-z
-x,1/4+y,1/4+z
3/4+x,1/2-y,1/4+z
1/2+x,y,1/2+z
3/4-x,1/4-y,1/2+z
1/2+x,1/4-y,3/4-z
3/4-x,y,3/4-z
1/2-x,-y,1/2-z
1/4+x,3/4+y,1/2-z
1/2-x,3/4+y,1/4+z
1/4+x,-y,1/4+z
1/2+x,1/2+y,z
3/4-x,3/4-y,z
1/2+x,3/4-y,1/4-z
3/4-x,1/2+y,1/4-z
1/2-x,1/2-y,-z
1/4+x,1/4+y,-z
1/2-x,1/4+y,3/4+z
1/4+x,1/2-y,3/4+z
loop_
_atom_site_type_symbol
_atom_site_label
_atom_site_fract_x
_atom_site_fract_y
_atom_site_fract_z
Si Si1 0.083039 0.837237 0.833919
Si Si2 0.125000 0.125000 0.463717
Si Si3 0.706888 0.587957 0.025931
Si Si4 0.194813 0.038800 0.662809
Si Si5 0.145380 0.226460 0.423420
Si Si6 0.366517 0.707885 0.764504
Si Si7 0.534073 0.508554 0.142261
Si Si8 0.729944 0.867013 0.276346
O O1 0.111255 0.875000 0.875000
O O2 0.169697 0.826608 0.804249
O O3 0.023775 0.872693 0.801220
O O4 0.016974 0.794707 0.855498
O O5 0.175528 0.167752 0.434576
O O6 0.192628 0.094165 0.496006
O O7 0.625000 0.625000 0.012351
O O8 0.688047 0.545215 0.065334
O O9 0.763355 0.558132 0.987892
O O10 0.125000 0.051869 0.625000
O O11 0.224758 0.090892 0.689854
O O12 0.284633 0.010244 0.645278
O O13 0.150880 0.994729 0.695711
O O14 0.138320 0.260103 0.468989
O O15 0.046136 0.221194 0.405932
O O16 0.420105 0.653222 0.756494
O O17 0.625000 0.484609 0.125000
#
# Coordination Sequence:
#
# PCOD9514199 Si02
#       8
#    32  16  32  32  32  32  32  32
#     4   9  17  28  46  83 120 136 169 225 285 326
#     4  12  20  36  61  72 102 148 206 218 270 344
#     4   9  15  25  52  83 112 150 185 210 258 345
#     4  11  20  37  59  81 111 144 187 236 294 328
#     4  10  21  37  57  79 107 153 190 229 270 358
#     4   9  17  36  54  77 112 148 184 218 279 336
#     4  10  18  31  54  83 124 148 179 221 288 342
#     4  10  20  33  56  81 107 141 178 235 271 336
#
# _framework density 20.943161
#
# number of rings (size 3 to 8) (size 9 to 14) (size 15 to 20)
#    0.000    2.133    4.000    3.200    0.000    2.133 
#    0.000    0.667    1.467    2.400    0.000    0.000 
#    0.000    0.000    0.000    0.000    0.000    0.000 
#
# Total GULP energy -334420.967290 kJ/mol
# GULP energy per Si atom -5573.682788 kJ/mol
# Density = 2.089549 g / cm^3
# Si number density = 20.943161 Si / 1000 Ang^3
#
#
#
# Elastic Constant Matrix: (Units=GPa)
#
#
# Indices 1 2 3 4 5 6 
#
# 1 103.9546 18.1906 27.1694 0.0000 0.0000 0.0000
# 2 18.1906 29.7362 4.0508 0.0000 0.0000 0.0000
# 3 27.1694 4.0508 34.4939 0.0000 0.0000 0.0000
# 4 0.0000 0.0000 0.0000 13.2718 0.0000 0.0000
# 5 0.0000 0.0000 0.0000 0.0000 23.7886 0.0000
# 6 0.0000 0.0000 0.0000 0.0000 0.0000 29.8276
#
#
#
# Elastic Compliance Matrix: (Units=1/GPa)
#
#
# Indices 1 2 3 4 5 6 
#
# 1 0.013357 -0.006847 -0.009717 0.000000 0.000000 0.000000
# 2 -0.006847 0.037686 0.000968 0.000000 0.000000 0.000000
# 3 -0.009717 0.000968 0.036531 0.000000 0.000000 0.000000
# 4 0.000000 0.000000 0.000000 0.075348 0.000000 0.000000
# 5 0.000000 0.000000 0.000000 0.000000 0.042037 0.000000
# 6 0.000000 0.000000 0.000000 0.000000 0.000000 0.033526
#
#
# Mechanical properties :
#
#
# Convention : Reuss Voigt Hill
#
# Bulk Modulus (GPa) = 17.73653 29.66737 23.70195
# Shear Modulus (GPa) = 17.33273 21.29585 19.31429
#
# Velocity S-wave (km/s) = 2.87994 3.19225 3.04011
# Velocity P-wave (km/s) = 4.42109 5.27103 4.86465
#
# Compressibility (1/GPa) = 0.05638080
#
# Stress axis : x y z
#
# Youngs Moduli (GPa) = 74.86494 26.53504 27.37430
#
# Poissons Ratio (x) = 0.18170 0.26599
# Poissons Ratio (y) = 0.51263 -0.02649
# Poissons Ratio (z) = 0.72746 -0.02568
#
# Static dielectric constant tensor:
#      x y z
#    x 1.836760 0.000000 0.000000 
#    y 0.000000 1.749360 0.000000 
#    z 0.000000 0.000000 1.773640 
# 
# From -- ./inp_files/66113.got.cif
#   From: 2010.05.17/outbox.cif.g08.bks.cpg/sg70_34_cif.got.tgz:66113.got - 2010.06.03 15:57:51.
