data_PCOD9514258
_publ_section_title
;
Structure prediction by ZEFSAII (Michael W. Deem and Ramdas Pophale) SiO2 
 PCOD9514258
Probable space group: F D D D
;
_chemical_formula_sum "Si O2"
_cell_formula_units_Z 144
_cell_length_a 28.188031
_cell_length_b 14.983996
_cell_length_c 18.222977
_cell_angle_alpha 90.000000
_cell_angle_beta 90.000000
_cell_angle_gamma 90.000000
_cell_volume 7696.826837
_symmetry_space_group_name_H-M "F D D D"
_symmetry_group_IT_number 70
_space_group.IT_coordinate_system_code '2'
_symmetry_cell_setting 'orthorhombic'
loop_
_space_group_symop_operation_xyz
x,y,z
1/4-x,1/4-y,z
x,1/4-y,1/4-z
1/4-x,y,1/4-z
-x,-y,-z
3/4+x,3/4+y,-z
-x,3/4+y,3/4+z
3/4+x,-y,3/4+z
x,1/2+y,1/2+z
1/4-x,3/4-y,1/2+z
x,3/4-y,3/4-z
1/4-x,1/2+y,3/4-z
-x,1/2-y,1/2-z
3/4+x,1/4+y,1/2-z
-x,1/4+y,1/4+z
3/4+x,1/2-y,1/4+z
1/2+x,y,1/2+z
3/4-x,1/4-y,1/2+z
1/2+x,1/4-y,3/4-z
3/4-x,y,3/4-z
1/2-x,-y,1/2-z
1/4+x,3/4+y,1/2-z
1/2-x,3/4+y,1/4+z
1/4+x,-y,1/4+z
1/2+x,1/2+y,z
3/4-x,3/4-y,z
1/2+x,3/4-y,1/4-z
3/4-x,1/2+y,1/4-z
1/2-x,1/2-y,-z
1/4+x,1/4+y,-z
1/2-x,1/4+y,3/4+z
1/4+x,1/2-y,3/4+z
loop_
_atom_site_type_symbol
_atom_site_label
_atom_site_fract_x
_atom_site_fract_y
_atom_site_fract_z
Si Si1 0.429407 0.079807 0.202640
Si Si2 0.321494 0.377001 0.671769
Si Si3 0.248875 0.125000 0.125000
Si Si4 0.275686 0.569694 0.898785
Si Si5 0.927549 0.061053 0.002535
O O1 0.440882 0.125000 0.125000
O O2 0.458060 0.110003 0.274394
O O3 0.373842 0.092963 0.221317
O O4 0.437894 0.973863 0.195204
O O5 0.375000 0.375000 0.639495
O O6 0.278821 0.406629 0.619004
O O7 0.322334 0.452967 0.735580
O O8 0.220706 0.212099 0.149242
O O9 0.282588 0.096841 0.192352
O O10 0.308227 0.592605 0.828484
#
# Coordination Sequence:
#
# PCOD9514258 Si02
#       5
#    32  32  16  32  32
#     4  11  22  36  52  77 115 148 182 220 264 317
#     4   9  20  36  54  81 112 140 173 224 281 315
#     4  10  18  34  57  84 110 132 173 228 286 324
#     4  11  20  33  58  83 106 143 183 219 270 331
#     4  10  19  35  56  82 111 136 177 225 280 328
#
# _framework density 18.709008000000001
#
# number of rings (size 3 to 8) (size 9 to 14) (size 15 to 20)
#    0.000    1.778    1.111    6.000    0.000    0.889 
#    0.000    4.444    0.000    0.667    0.000    0.000 
#    0.000    0.000    0.000    0.000    0.000    0.000 
#
# Total GULP energy -200808.005953 kJ/mol
# GULP energy per Si atom -5578.000165 kJ/mol
# Density = 1.866643 g / cm^3
# Si number density = 18.709008 Si / 1000 Ang^3
#
#
#
# Elastic Constant Matrix: (Units=GPa)
#
#
# Indices 1 2 3 4 5 6 
#
# 1 55.6430 -1.8873 55.6111 0.0000 0.0000 0.0000
# 2 -1.8873 20.6377 24.2260 0.0000 0.0000 0.0000
# 3 55.6111 24.2260 169.6119 0.0000 0.0000 0.0000
# 4 0.0000 0.0000 0.0000 15.0442 0.0000 0.0000
# 5 0.0000 0.0000 0.0000 0.0000 7.6931 0.0000
# 6 0.0000 0.0000 0.0000 0.0000 0.0000 18.8367
#
#
#
# Elastic Compliance Matrix: (Units=1/GPa)
#
#
# Indices 1 2 3 4 5 6 
#
# 1 0.031462 0.018005 -0.012887 0.000000 0.000000 0.000000
# 2 0.018005 0.068520 -0.015690 0.000000 0.000000 0.000000
# 3 -0.012887 -0.015690 0.012362 0.000000 0.000000 0.000000
# 4 0.000000 0.000000 0.000000 0.066471 0.000000 0.000000
# 5 0.000000 0.000000 0.000000 0.000000 0.129987 0.000000
# 6 0.000000 0.000000 0.000000 0.000000 0.000000 0.053088
#
#
# Mechanical properties :
#
#
# Convention : Reuss Voigt Hill
#
# Bulk Modulus (GPa) = 10.96488 44.64357 27.80422
# Shear Modulus (GPa) = 12.09380 19.51099 15.80239
#
# Velocity S-wave (km/s) = 2.54523 3.23285 2.90942
# Velocity P-wave (km/s) = 3.80934 6.15215 5.11664
#
# Compressibility (1/GPa) = 0.09120027
#
# Stress axis : x y z
#
# Youngs Moduli (GPa) = 31.78392 14.59425 80.89084
#
# Poissons Ratio (x) = -0.26278 1.04248
# Poissons Ratio (y) = -0.57228 1.26921
# Poissons Ratio (z) = 0.40961 0.22899
#
# Static dielectric constant tensor:
#      x y z
#    x 1.659210 0.000000 0.000000 
#    y 0.000000 1.661060 0.000000 
#    z 0.000000 0.000000 1.669260 
# 
# From -- ./inp_files/26571.got.cif
#   From: 2010.05.17/outbox.cif.g08.bks.cpg/sg70_14_cif.got.tgz:26571.got - 2010.06.03 15:57:51.
