data_PCOD9514755
_publ_section_title
;
Structure prediction by ZEFSAII (Michael W. Deem and Ramdas Pophale) SiO2 
 PCOD9514755
Probable space group: F D D D
;
_chemical_formula_sum "Si O2"
_cell_formula_units_Z 208
_cell_length_a 23.159105
_cell_length_b 26.654109
_cell_length_c 15.223891
_cell_angle_alpha 90.000000
_cell_angle_beta 90.000000
_cell_angle_gamma 90.000000
_cell_volume 9397.484260
_symmetry_space_group_name_H-M "F D D D"
_symmetry_group_IT_number 70
_space_group.IT_coordinate_system_code '2'
_symmetry_cell_setting 'orthorhombic'
loop_
_space_group_symop_operation_xyz
x,y,z
1/4-x,1/4-y,z
x,1/4-y,1/4-z
1/4-x,y,1/4-z
-x,-y,-z
3/4+x,3/4+y,-z
-x,3/4+y,3/4+z
3/4+x,-y,3/4+z
x,1/2+y,1/2+z
1/4-x,3/4-y,1/2+z
x,3/4-y,3/4-z
1/4-x,1/2+y,3/4-z
-x,1/2-y,1/2-z
3/4+x,1/4+y,1/2-z
-x,1/4+y,1/4+z
3/4+x,1/2-y,1/4+z
1/2+x,y,1/2+z
3/4-x,1/4-y,1/2+z
1/2+x,1/4-y,3/4-z
3/4-x,y,3/4-z
1/2-x,-y,1/2-z
1/4+x,3/4+y,1/2-z
1/2-x,3/4+y,1/4+z
1/4+x,-y,1/4+z
1/2+x,1/2+y,z
3/4-x,3/4-y,z
1/2+x,3/4-y,1/4-z
3/4-x,1/2+y,1/4-z
1/2-x,1/2-y,-z
1/4+x,1/4+y,-z
1/2-x,1/4+y,3/4+z
1/4+x,1/2-y,3/4+z
loop_
_atom_site_type_symbol
_atom_site_label
_atom_site_fract_x
_atom_site_fract_y
_atom_site_fract_z
Si Si1 0.875000 0.250747 0.375000
Si Si2 0.506499 0.800041 0.139385
Si Si3 0.857133 0.818295 0.516739
Si Si4 0.034968 0.004353 0.714880
Si Si5 0.761346 0.049931 0.193568
Si Si6 0.633041 0.565465 0.288444
Si Si7 0.689759 0.845581 0.601045
O O1 0.929095 0.218533 0.339387
O O2 0.857329 0.285696 0.293273
O O3 0.451962 0.803715 0.204506
O O4 0.516903 0.857641 0.108738
O O5 0.485332 0.761372 0.064269
O O6 0.875000 0.875000 0.529433
O O7 0.902837 0.782568 0.468074
O O8 0.799558 0.825555 0.461540
O O9 0.854102 0.799510 0.618160
O O10 0.988796 0.036313 0.657471
O O11 0.042280 0.950655 0.666308
O O12 0.809573 0.077878 0.249013
O O13 0.750000 0.000000 0.250000
O O14 0.625000 0.625000 0.276386
O O15 0.625000 0.859881 0.625000
#
# Coordination Sequence:
#
# PCOD9514755 Si02
#       7
#    16  32  32  32  32  32  32
#     4  12  25  44  68  94 132 172 235 288 342 412
#     4  11  25  43  67  97 135 182 223 288 349 410
#     4  10  20  37  62  96 126 160 209 273 326 398
#     4  10  22  38  64  95 130 174 218 270 345 407
#     4  10  20  33  60  90 125 164 209 255 316 398
#     4  10  23  43  72  98 127 172 229 283 346 399
#     4  11  22  41  61  92 140 179 221 275 344 412
#
# _framework density 22.133583000000002
#
# number of rings (size 3 to 8) (size 9 to 14) (size 15 to 20)
#    0.000    1.538    0.769    5.769    6.462    3.077 
#    0.000    0.000    0.000    0.000    0.000    0.000 
#    0.000    0.000    0.000    0.000    0.000    0.000 
#
# Total GULP energy -289935.628062 kJ/mol
# GULP energy per Si atom -5575.685155 kJ/mol
# Density = 2.208321 g / cm^3
# Si number density = 22.133583 Si / 1000 Ang^3
#
#
#
# Elastic Constant Matrix: (Units=GPa)
#
#
# Indices 1 2 3 4 5 6 
#
# 1 89.0643 12.4136 -3.6782 0.0000 0.0000 0.0000
# 2 12.4136 83.9434 32.5425 0.0000 0.0000 0.0000
# 3 -3.6782 32.5425 59.0160 0.0000 0.0000 0.0000
# 4 0.0000 0.0000 0.0000 30.7413 0.0000 0.0000
# 5 0.0000 0.0000 0.0000 0.0000 25.1527 0.0000
# 6 0.0000 0.0000 0.0000 0.0000 0.0000 36.9271
#
#
#
# Elastic Compliance Matrix: (Units=1/GPa)
#
#
# Indices 1 2 3 4 5 6 
#
# 1 0.011672 -0.002554 0.002136 0.000000 0.000000 0.000000
# 2 -0.002554 0.015711 -0.008822 0.000000 0.000000 0.000000
# 3 0.002136 -0.008822 0.021942 0.000000 0.000000 0.000000
# 4 0.000000 0.000000 0.000000 0.032529 0.000000 0.000000
# 5 0.000000 0.000000 0.000000 0.000000 0.039757 0.000000
# 6 0.000000 0.000000 0.000000 0.000000 0.000000 0.027080
#
#
# Mechanical properties :
#
#
# Convention : Reuss Voigt Hill
#
# Bulk Modulus (GPa) = 32.42120 34.95327 33.68724
# Shear Modulus (GPa) = 28.17624 31.28064 29.72844
#
# Velocity S-wave (km/s) = 3.57180 3.76342 3.66886
# Velocity P-wave (km/s) = 5.62939 5.89158 5.76198
#
# Compressibility (1/GPa) = 0.03084401
#
# Stress axis : x y z
#
# Youngs Moduli (GPa) = 85.67496 63.65116 45.57377
#
# Poissons Ratio (x) = 0.16257 -0.09734
# Poissons Ratio (y) = 0.21882 0.40207
# Poissons Ratio (z) = -0.18299 0.56155
#
# Static dielectric constant tensor:
#      x y z
#    x 1.868390 0.000000 0.000000 
#    y 0.000000 1.803640 0.000000 
#    z 0.000000 0.000000 1.808220 
# 
# From -- ./inp_files/38934.got.cif
#   From: 2010.05.17/outbox.cif.g08.bks.cpg/sg70_20_cif.got.tgz:38934.got - 2010.06.03 15:57:51.
