data_PCOD9514913
_publ_section_title
;
Structure prediction by ZEFSAII (Michael W. Deem and Ramdas Pophale) SiO2 
 PCOD9514913
Probable space group: F D D D
;
_chemical_formula_sum "Si O2"
_cell_formula_units_Z 192
_cell_length_a 16.459263
_cell_length_b 21.281648
_cell_length_c 19.702997
_cell_angle_alpha 90.000000
_cell_angle_beta 90.000000
_cell_angle_gamma 90.000000
_cell_volume 6901.570548
_symmetry_space_group_name_H-M "F D D D"
_symmetry_group_IT_number 70
_space_group.IT_coordinate_system_code '2'
_symmetry_cell_setting 'orthorhombic'
loop_
_space_group_symop_operation_xyz
x,y,z
1/4-x,1/4-y,z
x,1/4-y,1/4-z
1/4-x,y,1/4-z
-x,-y,-z
3/4+x,3/4+y,-z
-x,3/4+y,3/4+z
3/4+x,-y,3/4+z
x,1/2+y,1/2+z
1/4-x,3/4-y,1/2+z
x,3/4-y,3/4-z
1/4-x,1/2+y,3/4-z
-x,1/2-y,1/2-z
3/4+x,1/4+y,1/2-z
-x,1/4+y,1/4+z
3/4+x,1/2-y,1/4+z
1/2+x,y,1/2+z
3/4-x,1/4-y,1/2+z
1/2+x,1/4-y,3/4-z
3/4-x,y,3/4-z
1/2-x,-y,1/2-z
1/4+x,3/4+y,1/2-z
1/2-x,3/4+y,1/4+z
1/4+x,-y,1/4+z
1/2+x,1/2+y,z
3/4-x,3/4-y,z
1/2+x,3/4-y,1/4-z
3/4-x,1/2+y,1/4-z
1/2-x,1/2-y,-z
1/4+x,1/4+y,-z
1/2-x,1/4+y,3/4+z
1/4+x,1/2-y,3/4+z
loop_
_atom_site_type_symbol
_atom_site_label
_atom_site_fract_x
_atom_site_fract_y
_atom_site_fract_z
Si Si1 0.777084 0.288402 0.108032
Si Si2 0.749898 0.842204 0.923067
Si Si3 0.557418 0.214269 0.033539
Si Si4 0.256435 0.918238 0.782310
Si Si5 0.077425 0.208814 0.299556
Si Si6 0.941310 0.255114 0.426759
O O1 0.713467 0.271314 0.166935
O O2 0.793628 0.222315 0.068867
O O3 0.859017 0.311572 0.143363
O O4 0.741511 0.332072 0.048958
O O5 0.679328 0.875000 0.875000
O O6 0.729142 0.765112 0.922684
O O7 0.797189 0.829926 0.844186
O O8 0.777583 0.841273 0.002863
O O9 0.650346 0.193541 0.037731
O O10 0.507290 0.152702 0.056671
O O11 0.523201 0.228393 0.958944
O O12 0.136218 0.240876 0.244565
O O13 0.875000 0.225757 0.375000
#
# Coordination Sequence:
#
# PCOD9514913 Si02
#       6
#    32  32  32  32  32  32
#     4  10  20  37  58  86 116 150 196 246 302 358
#     4  10  20  37  59  84 114 157 205 249 306 369
#     4  10  20  38  57  83 119 154 197 244 297 360
#     4  10  21  36  61  86 114 158 199 243 302 365
#     4   9  20  36  56  84 118 151 196 255 304 365
#     4   9  19  36  55  80 117 154 192 248 302 354
#
# _framework density 27.819755000000001
#
# number of rings (size 3 to 8) (size 9 to 14) (size 15 to 20)
#    0.000    2.333    0.000    2.000    0.000    7.000 
#    0.000   21.667    0.000    0.000    0.000    0.000 
#    0.000    0.000    0.000    0.000    0.000    0.000 
#
# Total GULP energy -267311.954351 kJ/mol
# GULP energy per Si atom -5568.999049 kJ/mol
# Density = 2.775644 g / cm^3
# Si number density = 27.819755 Si / 1000 Ang^3
#
#
#
# Elastic Constant Matrix: (Units=GPa)
#
#
# Indices 1 2 3 4 5 6 
#
# 1 77.7654 37.4818 26.5136 0.0000 0.0000 0.0000
# 2 37.4818 121.1950 50.8335 0.0000 0.0000 0.0000
# 3 26.5136 50.8335 150.2032 0.0000 0.0000 0.0000
# 4 0.0000 0.0000 0.0000 62.3098 0.0000 0.0000
# 5 0.0000 0.0000 0.0000 0.0000 36.7353 0.0000
# 6 0.0000 0.0000 0.0000 0.0000 0.0000 19.5931
#
#
#
# Elastic Compliance Matrix: (Units=1/GPa)
#
#
# Indices 1 2 3 4 5 6 
#
# 1 0.015321 -0.004200 -0.001283 0.000000 0.000000 0.000000
# 2 -0.004200 0.010768 -0.002903 0.000000 0.000000 0.000000
# 3 -0.001283 -0.002903 0.007866 0.000000 0.000000 0.000000
# 4 0.000000 0.000000 0.000000 0.016049 0.000000 0.000000
# 5 0.000000 0.000000 0.000000 0.000000 0.027222 0.000000
# 6 0.000000 0.000000 0.000000 0.000000 0.000000 0.051038
#
#
# Mechanical properties :
#
#
# Convention : Reuss Voigt Hill
#
# Bulk Modulus (GPa) = 58.19552 64.31348 61.25450
# Shear Modulus (GPa) = 33.16448 39.34994 36.25721
#
# Velocity S-wave (km/s) = 3.45645 3.76501 3.61403
# Velocity P-wave (km/s) = 6.07401 6.48603 6.28340
#
# Compressibility (1/GPa) = 0.01718345
#
# Stress axis : x y z
#
# Youngs Moduli (GPa) = 65.26969 92.87077 127.12170
#
# Poissons Ratio (x) = 0.39008 0.16309
# Poissons Ratio (y) = 0.27415 0.36900
# Poissons Ratio (z) = 0.08374 0.26958
#
# Static dielectric constant tensor:
#      x y z
#    x 2.227790 0.000000 0.000000 
#    y 0.000000 2.310520 0.000000 
#    z 0.000000 0.000000 2.377050 
# 
# From -- ./inp_files/44984.got.cif
#   From: 2010.05.17/outbox.cif.g08.bks.cpg/sg70_23_cif.got.tgz:44984.got - 2010.06.03 15:57:51.
