data_PCOD9514132
_publ_section_title
;
Structure prediction by ZEFSAII (Michael W. Deem and Ramdas Pophale) SiO2 
 PCOD9514132
Probable space group: F D D D
;
_chemical_formula_sum "Si O2"
_cell_formula_units_Z 208
_cell_length_a 36.476117
_cell_length_b 15.742230
_cell_length_c 16.146753
_cell_angle_alpha 90.000000
_cell_angle_beta 90.000000
_cell_angle_gamma 90.000000
_cell_volume 9271.714609
_symmetry_space_group_name_H-M "F D D D"
_symmetry_group_IT_number 70
_space_group.IT_coordinate_system_code '2'
_symmetry_cell_setting 'orthorhombic'
loop_
_space_group_symop_operation_xyz
x,y,z
1/4-x,1/4-y,z
x,1/4-y,1/4-z
1/4-x,y,1/4-z
-x,-y,-z
3/4+x,3/4+y,-z
-x,3/4+y,3/4+z
3/4+x,-y,3/4+z
x,1/2+y,1/2+z
1/4-x,3/4-y,1/2+z
x,3/4-y,3/4-z
1/4-x,1/2+y,3/4-z
-x,1/2-y,1/2-z
3/4+x,1/4+y,1/2-z
-x,1/4+y,1/4+z
3/4+x,1/2-y,1/4+z
1/2+x,y,1/2+z
3/4-x,1/4-y,1/2+z
1/2+x,1/4-y,3/4-z
3/4-x,y,3/4-z
1/2-x,-y,1/2-z
1/4+x,3/4+y,1/2-z
1/2-x,3/4+y,1/4+z
1/4+x,-y,1/4+z
1/2+x,1/2+y,z
3/4-x,3/4-y,z
1/2+x,3/4-y,1/4-z
3/4-x,1/2+y,1/4-z
1/2-x,1/2-y,-z
1/4+x,1/4+y,-z
1/2-x,1/4+y,3/4+z
1/4+x,1/2-y,3/4+z
loop_
_atom_site_type_symbol
_atom_site_label
_atom_site_fract_x
_atom_site_fract_y
_atom_site_fract_z
Si Si1 0.584205 0.223140 0.096131
Si Si2 0.851493 0.287593 0.658794
Si Si3 0.510727 0.779817 0.657310
Si Si4 0.375000 0.013229 0.375000
Si Si5 0.654167 0.805580 0.295394
Si Si6 0.216717 0.375000 0.375000
Si Si7 0.689881 0.125000 0.625000
Si Si8 0.295869 0.866645 0.195766
O O1 0.577680 0.125000 0.125000
O O2 0.625000 0.244456 0.125000
O O3 0.553189 0.280173 0.137817
O O4 0.583582 0.230328 0.997118
O O5 0.875000 0.375000 0.671345
O O6 0.876880 0.213503 0.622179
O O7 0.821889 0.310022 0.589028
O O8 0.500000 0.750000 0.750000
O O9 0.493434 0.701393 0.606009
O O10 0.487000 0.856008 0.619879
O O11 0.338837 0.953647 0.368291
O O12 0.381812 0.061835 0.289269
O O13 0.686265 0.876258 0.302373
O O14 0.677985 0.717478 0.300622
O O15 0.713742 0.122906 0.708236
#
# Coordination Sequence:
#
# PCOD9514132 Si02
#       8
#    32  32  32  16  32  16  16  32
#     4  11  21  34  55  81 112 147 193 244 285 344
#     4  10  17  32  54  85 113 145 191 238 295 328
#     4  11  23  38  57  83 118 156 197 236 292 351
#     4   9  14  28  52  86 114 146 191 240 280 326
#     4   9  18  31  53  81 120 152 185 240 281 344
#     4  10  22  36  51  81 120 161 186 229 289 343
#     4   9  14  28  52  89 114 137 192 235 288 331
#     4   9  18  30  56  84 114 147 188 243 283 345
#
# _framework density 22.433821999999999
#
# number of rings (size 3 to 8) (size 9 to 14) (size 15 to 20)
#    0.000    2.154    3.846    0.923    4.308    0.000 
#    0.000    1.538    0.000    3.692    0.000    0.000 
#    0.000    0.000    0.000    0.000    0.000    0.000 
#
# Total GULP energy -289873.328586 kJ/mol
# GULP energy per Si atom -5574.487088 kJ/mol
# Density = 2.238276 g / cm^3
# Si number density = 22.433822 Si / 1000 Ang^3
#
#
#
# Elastic Constant Matrix: (Units=GPa)
#
#
# Indices 1 2 3 4 5 6 
#
# 1 103.3868 7.7136 39.6151 0.0000 0.0000 0.0000
# 2 7.7136 30.7911 -8.4562 0.0000 0.0000 0.0000
# 3 39.6151 -8.4562 166.9191 0.0000 0.0000 0.0000
# 4 0.0000 0.0000 0.0000 24.5685 0.0000 0.0000
# 5 0.0000 0.0000 0.0000 0.0000 22.6821 0.0000
# 6 0.0000 0.0000 0.0000 0.0000 0.0000 17.9048
#
#
#
# Elastic Compliance Matrix: (Units=1/GPa)
#
#
# Indices 1 2 3 4 5 6 
#
# 1 0.011004 -0.003523 -0.002790 0.000000 0.000000 0.000000
# 2 -0.003523 0.034063 0.002562 0.000000 0.000000 0.000000
# 3 -0.002790 0.002562 0.006783 0.000000 0.000000 0.000000
# 4 0.000000 0.000000 0.000000 0.040703 0.000000 0.000000
# 5 0.000000 0.000000 0.000000 0.000000 0.044088 0.000000
# 6 0.000000 0.000000 0.000000 0.000000 0.000000 0.055851
#
#
# Mechanical properties :
#
#
# Convention : Reuss Voigt Hill
#
# Bulk Modulus (GPa) = 22.54922 42.09358 32.32140
# Shear Modulus (GPa) = 23.28000 30.51271 26.89636
#
# Velocity S-wave (km/s) = 3.22486 3.69198 3.46630
# Velocity P-wave (km/s) = 4.89281 6.08099 5.51897
#
# Compressibility (1/GPa) = 0.04434744
#
# Stress axis : x y z
#
# Youngs Moduli (GPa) = 90.87294 29.35739 147.42961
#
# Poissons Ratio (x) = 0.10343 0.41135
# Poissons Ratio (y) = 0.32015 -0.37768
# Poissons Ratio (z) = 0.25355 -0.07521
#
# Static dielectric constant tensor:
#      x y z
#    x 1.814940 0.000000 0.000000 
#    y 0.000000 1.933120 0.000000 
#    z 0.000000 0.000000 1.916020 
# 
# From -- ./inp_files/39892.got.cif
#   From: 2010.05.17/outbox.cif.g08.bks.cpg/sg70_20_cif.got.tgz:39892.got - 2010.06.03 15:57:51.
