data_PCOD9514874
_publ_section_title
;
Structure prediction by ZEFSAII (Michael W. Deem and Ramdas Pophale) SiO2 
 PCOD9514874
Probable space group: F D D D
;
_chemical_formula_sum "Si O2"
_cell_formula_units_Z 176
_cell_length_a 13.962845
_cell_length_b 25.995566
_cell_length_c 25.960709
_cell_angle_alpha 90.000000
_cell_angle_beta 90.000000
_cell_angle_gamma 90.000000
_cell_volume 9423.011992
_symmetry_space_group_name_H-M "F D D D"
_symmetry_group_IT_number 70
_space_group.IT_coordinate_system_code '2'
_symmetry_cell_setting 'orthorhombic'
loop_
_space_group_symop_operation_xyz
x,y,z
1/4-x,1/4-y,z
x,1/4-y,1/4-z
1/4-x,y,1/4-z
-x,-y,-z
3/4+x,3/4+y,-z
-x,3/4+y,3/4+z
3/4+x,-y,3/4+z
x,1/2+y,1/2+z
1/4-x,3/4-y,1/2+z
x,3/4-y,3/4-z
1/4-x,1/2+y,3/4-z
-x,1/2-y,1/2-z
3/4+x,1/4+y,1/2-z
-x,1/4+y,1/4+z
3/4+x,1/2-y,1/4+z
1/2+x,y,1/2+z
3/4-x,1/4-y,1/2+z
1/2+x,1/4-y,3/4-z
3/4-x,y,3/4-z
1/2-x,-y,1/2-z
1/4+x,3/4+y,1/2-z
1/2-x,3/4+y,1/4+z
1/4+x,-y,1/4+z
1/2+x,1/2+y,z
3/4-x,3/4-y,z
1/2+x,3/4-y,1/4-z
3/4-x,1/2+y,1/4-z
1/2-x,1/2-y,-z
1/4+x,1/4+y,-z
1/2-x,1/4+y,3/4+z
1/4+x,1/2-y,3/4+z
loop_
_atom_site_type_symbol
_atom_site_label
_atom_site_fract_x
_atom_site_fract_y
_atom_site_fract_z
Si Si1 0.214688 0.491387 0.525667
Si Si2 0.784003 0.125000 0.125000
Si Si3 0.686026 0.676469 0.025360
Si Si4 0.625000 0.023887 0.625000
Si Si5 0.625000 0.036005 0.125000
Si Si6 0.144791 0.889305 0.987833
Si Si7 0.844521 0.222466 0.978487
O O1 0.127726 0.526657 0.502471
O O2 0.189485 0.491104 0.586162
O O3 0.216211 0.435258 0.501749
O O4 0.314799 0.518308 0.515585
O O5 0.715954 0.074537 0.124477
O O6 0.843590 0.125028 0.072202
O O7 0.625000 0.625000 0.020231
O O8 0.688025 0.691704 0.086045
O O9 0.789840 0.663908 0.003587
O O10 0.619823 0.999584 0.075256
O O11 0.165935 0.839071 0.021632
O O12 0.750000 0.250000 0.000000
#
# Coordination Sequence:
#
# PCOD9514874 Si02
#       7
#    32  16  32  16  16  32  32
#     4  10  23  41  60  96 130 162 218 271 329 404
#     4  11  24  38  71  92 120 178 233 278 321 382
#     4  10  20  36  62  95 121 162 207 262 322 396
#     4   8  21  35  60  92 130 153 208 259 330 400
#     4  11  24  47  60  96 134 171 237 274 316 400
#     4  12  23  39  68  89 129 172 213 270 341 383
#     4  12  25  42  66  96 132 178 223 278 331 389
#
# _framework density 18.677679999999999
#
# number of rings (size 3 to 8) (size 9 to 14) (size 15 to 20)
#    1.091    0.182    5.455    0.818    5.091    1.455 
#    0.000    0.000    0.000    0.000    0.000    0.000 
#    0.000    0.000    0.000    0.000    0.000    0.000 
#
# Total GULP energy -245241.236866 kJ/mol
# GULP energy per Si atom -5573.664474 kJ/mol
# Density = 1.863517 g / cm^3
# Si number density = 18.677680 Si / 1000 Ang^3
#
#
#
# Elastic Constant Matrix: (Units=GPa)
#
#
# Indices 1 2 3 4 5 6 
#
# 1 68.0872 18.5277 0.4099 0.0000 0.0000 0.0000
# 2 18.5277 136.2119 28.0617 0.0000 0.0000 0.0000
# 3 0.4099 28.0617 56.8587 0.0000 0.0000 0.0000
# 4 0.0000 0.0000 0.0000 21.4922 0.0000 0.0000
# 5 0.0000 0.0000 0.0000 0.0000 25.1286 0.0000
# 6 0.0000 0.0000 0.0000 0.0000 0.0000 3.8566
#
#
#
# Elastic Compliance Matrix: (Units=1/GPa)
#
#
# Indices 1 2 3 4 5 6 
#
# 1 0.015305 -0.002292 0.001021 0.000000 0.000000 0.000000
# 2 -0.002292 0.008516 -0.004186 0.000000 0.000000 0.000000
# 3 0.001021 -0.004186 0.019646 0.000000 0.000000 0.000000
# 4 0.000000 0.000000 0.000000 0.046528 0.000000 0.000000
# 5 0.000000 0.000000 0.000000 0.000000 0.039795 0.000000
# 6 0.000000 0.000000 0.000000 0.000000 0.000000 0.259295
#
#
# Mechanical properties :
#
#
# Convention : Reuss Voigt Hill
#
# Bulk Modulus (GPa) = 30.72048 39.46182 35.09115
# Shear Modulus (GPa) = 12.16988 24.37272 18.27130
#
# Velocity S-wave (km/s) = 2.55536 3.61627 3.13108
# Velocity P-wave (km/s) = 5.01895 6.21372 5.64802
#
# Compressibility (1/GPa) = 0.03255158
#
# Stress axis : x y z
#
# Youngs Moduli (GPa) = 65.33974 117.43013 50.90057
#
# Poissons Ratio (x) = 0.26916 -0.05196
# Poissons Ratio (y) = 0.14976 0.21308
# Poissons Ratio (z) = -0.06670 0.49159
#
# Static dielectric constant tensor:
#      x y z
#    x 1.656080 0.000000 0.000000 
#    y 0.000000 1.640500 0.000000 
#    z 0.000000 0.000000 1.639660 
# 
# From -- ./inp_files/58616.got.cif
#   From: 2010.05.17/outbox.cif.g08.bks.cpg/sg70_30_cif.got.tgz:58616.got - 2010.06.03 15:57:51.
