data_PCOD9514798
_publ_section_title
;
Structure prediction by ZEFSAII (Michael W. Deem and Ramdas Pophale) SiO2 
 PCOD9514798
Probable space group: F D D D
;
_chemical_formula_sum "Si O2"
_cell_formula_units_Z 240
_cell_length_a 17.210554
_cell_length_b 28.750596
_cell_length_c 24.026696
_cell_angle_alpha 90.000000
_cell_angle_beta 90.000000
_cell_angle_gamma 90.000000
_cell_volume 11888.737986
_symmetry_space_group_name_H-M "F D D D"
_symmetry_group_IT_number 70
_space_group.IT_coordinate_system_code '2'
_symmetry_cell_setting 'orthorhombic'
loop_
_space_group_symop_operation_xyz
x,y,z
1/4-x,1/4-y,z
x,1/4-y,1/4-z
1/4-x,y,1/4-z
-x,-y,-z
3/4+x,3/4+y,-z
-x,3/4+y,3/4+z
3/4+x,-y,3/4+z
x,1/2+y,1/2+z
1/4-x,3/4-y,1/2+z
x,3/4-y,3/4-z
1/4-x,1/2+y,3/4-z
-x,1/2-y,1/2-z
3/4+x,1/4+y,1/2-z
-x,1/4+y,1/4+z
3/4+x,1/2-y,1/4+z
1/2+x,y,1/2+z
3/4-x,1/4-y,1/2+z
1/2+x,1/4-y,3/4-z
3/4-x,y,3/4-z
1/2-x,-y,1/2-z
1/4+x,3/4+y,1/2-z
1/2-x,3/4+y,1/4+z
1/4+x,-y,1/4+z
1/2+x,1/2+y,z
3/4-x,3/4-y,z
1/2+x,3/4-y,1/4-z
3/4-x,1/2+y,1/4-z
1/2-x,1/2-y,-z
1/4+x,1/4+y,-z
1/2-x,1/4+y,3/4+z
1/4+x,1/2-y,3/4+z
loop_
_atom_site_type_symbol
_atom_site_label
_atom_site_fract_x
_atom_site_fract_y
_atom_site_fract_z
Si Si1 0.940547 0.342157 0.139042
Si Si2 0.574185 0.834657 0.919853
Si Si3 0.544406 0.857255 0.045144
Si Si4 0.323928 0.273647 0.972551
Si Si5 0.202792 0.403619 0.045680
Si Si6 0.250285 0.887728 0.313138
Si Si7 0.125000 0.966883 0.125000
Si Si8 0.822141 0.769519 0.673528
O O1 0.875000 0.375000 0.164735
O O2 0.896362 0.293068 0.141802
O O3 0.964582 0.362527 0.078856
O O4 0.014507 0.355059 0.177427
O O5 0.556846 0.875000 0.875000
O O6 0.667641 0.835652 0.929344
O O7 0.553347 0.782169 0.902591
O O8 0.538015 0.846445 0.980155
O O9 0.609749 0.897864 0.051305
O O10 0.578303 0.813625 0.080337
O O11 0.311754 0.328233 0.964803
O O12 0.325029 0.251080 0.912236
O O13 0.250000 0.250000 0.000000
O O14 0.396414 0.264762 0.012994
O O15 0.247804 0.445885 0.075275
O O16 0.227846 0.402264 0.980928
O O17 0.275336 0.875000 0.375000
#
# Coordination Sequence:
#
# PCOD9514798 Si02
#       8
#    32  32  32  32  32  32  16  32
#     4  10  20  35  61  89 117 152 203 262 306 362
#     4  10  22  40  58  84 121 164 204 258 310 371
#     4  11  20  38  60  87 119 161 205 247 317 362
#     4  12  21  35  51  81 131 170 213 256 287 367
#     4  10  20  35  54  83 122 164 202 254 293 356
#     4  10  21  33  50  77 129 175 202 236 291 347
#     4  12  22  30  59  88 116 176 213 242 296 372
#     4  11  21  36  57  88 126 166 211 245 311 370
#
# _framework density 20.187173000000001
#
# number of rings (size 3 to 8) (size 9 to 14) (size 15 to 20)
#    0.000    1.333    5.333    1.600    1.867    0.000 
#    4.800    0.000    0.000    3.600    6.933    0.000 
#    0.000    0.000    0.000    0.000    0.000    0.000 
#
# Total GULP energy -334448.379079 kJ/mol
# GULP energy per Si atom -5574.139651 kJ/mol
# Density = 2.014123 g / cm^3
# Si number density = 20.187173 Si / 1000 Ang^3
#
#
#
# Elastic Constant Matrix: (Units=GPa)
#
#
# Indices 1 2 3 4 5 6 
#
# 1 58.6544 26.0689 20.0024 0.0000 0.0000 0.0000
# 2 26.0689 105.3304 36.5152 0.0000 0.0000 0.0000
# 3 20.0024 36.5152 124.7010 0.0000 0.0000 0.0000
# 4 0.0000 0.0000 0.0000 29.6621 0.0000 0.0000
# 5 0.0000 0.0000 0.0000 0.0000 29.2736 0.0000
# 6 0.0000 0.0000 0.0000 0.0000 0.0000 13.2305
#
#
#
# Elastic Compliance Matrix: (Units=1/GPa)
#
#
# Indices 1 2 3 4 5 6 
#
# 1 0.019558 -0.004177 -0.001914 0.000000 0.000000 0.000000
# 2 -0.004177 0.011459 -0.002685 0.000000 0.000000 0.000000
# 3 -0.001914 -0.002685 0.009113 0.000000 0.000000 0.000000
# 4 0.000000 0.000000 0.000000 0.033713 0.000000 0.000000
# 5 0.000000 0.000000 0.000000 0.000000 0.034160 0.000000
# 6 0.000000 0.000000 0.000000 0.000000 0.000000 0.075583
#
#
# Mechanical properties :
#
#
# Convention : Reuss Voigt Hill
#
# Bulk Modulus (GPa) = 44.29375 50.42874 47.36125
# Shear Modulus (GPa) = 23.96196 28.17320 26.06758
#
# Velocity S-wave (km/s) = 3.44901 3.73982 3.59736
# Velocity P-wave (km/s) = 6.15224 6.60933 6.38487
#
# Compressibility (1/GPa) = 0.02257655
#
# Stress axis : x y z
#
# Youngs Moduli (GPa) = 51.12937 87.27010 109.73893
#
# Poissons Ratio (x) = 0.36453 0.21005
# Poissons Ratio (y) = 0.21357 0.29469
# Poissons Ratio (z) = 0.09787 0.23435
#
# Static dielectric constant tensor:
#      x y z
#    x 1.778300 0.000000 0.000000 
#    y 0.000000 1.773800 0.000000 
#    z 0.000000 0.000000 1.780170 
# 
# From -- ./inp_files/53191.got.cif
#   From: 2010.05.17/outbox.cif.g08.bks.cpg/sg70_27_cif.got.tgz:53191.got - 2010.06.03 15:57:51.
