data_PCOD9514459
_publ_section_title
;
Structure prediction by ZEFSAII (Michael W. Deem and Ramdas Pophale) SiO2 
 PCOD9514459
Probable space group: F D D D
;
_chemical_formula_sum "Si O2"
_cell_formula_units_Z 192
_cell_length_a 19.281730
_cell_length_b 16.349974
_cell_length_c 32.418315
_cell_angle_alpha 90.000000
_cell_angle_beta 90.000000
_cell_angle_gamma 90.000000
_cell_volume 10220.061317
_symmetry_space_group_name_H-M "F D D D"
_symmetry_group_IT_number 70
_space_group.IT_coordinate_system_code '2'
_symmetry_cell_setting 'orthorhombic'
loop_
_space_group_symop_operation_xyz
x,y,z
1/4-x,1/4-y,z
x,1/4-y,1/4-z
1/4-x,y,1/4-z
-x,-y,-z
3/4+x,3/4+y,-z
-x,3/4+y,3/4+z
3/4+x,-y,3/4+z
x,1/2+y,1/2+z
1/4-x,3/4-y,1/2+z
x,3/4-y,3/4-z
1/4-x,1/2+y,3/4-z
-x,1/2-y,1/2-z
3/4+x,1/4+y,1/2-z
-x,1/4+y,1/4+z
3/4+x,1/2-y,1/4+z
1/2+x,y,1/2+z
3/4-x,1/4-y,1/2+z
1/2+x,1/4-y,3/4-z
3/4-x,y,3/4-z
1/2-x,-y,1/2-z
1/4+x,3/4+y,1/2-z
1/2-x,3/4+y,1/4+z
1/4+x,-y,1/4+z
1/2+x,1/2+y,z
3/4-x,3/4-y,z
1/2+x,3/4-y,1/4-z
3/4-x,1/2+y,1/4-z
1/2-x,1/2-y,-z
1/4+x,1/4+y,-z
1/2-x,1/4+y,3/4+z
1/4+x,1/2-y,3/4+z
loop_
_atom_site_type_symbol
_atom_site_label
_atom_site_fract_x
_atom_site_fract_y
_atom_site_fract_z
Si Si1 0.121057 0.258025 0.669658
Si Si2 0.875000 0.875000 0.258350
Si Si3 0.296411 0.289302 0.858033
Si Si4 0.891153 0.518529 0.275455
Si Si5 0.521506 0.907142 0.579081
Si Si6 0.125000 0.625000 0.460960
Si Si7 0.264442 0.669047 0.972865
O O1 0.125000 0.216616 0.625000
O O2 0.132782 0.200409 0.709298
O O3 0.178445 0.329051 0.666393
O O4 0.046493 0.299607 0.679818
O O5 0.808813 0.875532 0.228495
O O6 0.265929 0.375000 0.875000
O O7 0.375000 0.288739 0.875000
O O8 0.307872 0.273768 0.809600
O O9 0.263113 0.211349 0.879897
O O10 0.817106 0.538118 0.296906
O O11 0.880894 0.455316 0.239179
O O12 0.927357 0.603915 0.262403
O O13 0.446221 0.882407 0.563872
O O14 0.250000 0.750000 0.000000
#
# Coordination Sequence:
#
# PCOD9514459 Si02
#       7
#    32  16  32  32  32  16  32
#     4  10  19  35  57  79 107 149 191 225 269 339
#     4  10  19  34  55  84 110 139 184 239 282 318
#     4   9  17  33  55  76 100 136 180 221 271 340
#     4  10  19  34  54  77 106 145 186 225 275 345
#     4  10  20  34  53  78 111 143 180 229 283 332
#     4  12  22  32  54  86 112 139 184 243 286 320
#     4   9  19  34  54  79 109 143 185 232 282 332
#
# _framework density 18.786580000000001
#
# number of rings (size 3 to 8) (size 9 to 14) (size 15 to 20)
#    0.000    2.167    0.000    6.250    0.000    0.000 
#    0.000    3.333    0.000    4.000    0.000    0.000 
#    0.000    0.000    0.000    0.000    0.000    0.000 
#
# Total GULP energy -267224.855987 kJ/mol
# GULP energy per Si atom -5567.184500 kJ/mol
# Density = 1.874382 g / cm^3
# Si number density = 18.786580 Si / 1000 Ang^3
#
#
#
# Elastic Constant Matrix: (Units=GPa)
#
#
# Indices 1 2 3 4 5 6 
#
# 1 104.6120 13.7052 47.9489 0.0000 0.0000 0.0000
# 2 13.7052 82.7751 22.6634 0.0000 0.0000 0.0000
# 3 47.9489 22.6634 70.1763 0.0000 0.0000 0.0000
# 4 0.0000 0.0000 0.0000 11.4505 0.0000 0.0000
# 5 0.0000 0.0000 0.0000 0.0000 -28.3337 0.0000
# 6 0.0000 0.0000 0.0000 0.0000 0.0000 20.8150
#
#
#
# Elastic Compliance Matrix: (Units=1/GPa)
#
#
# Indices 1 2 3 4 5 6 
#
# 1 0.013926 0.000328 -0.009621 0.000000 0.000000 0.000000
# 2 0.000328 0.013261 -0.004507 0.000000 0.000000 0.000000
# 3 -0.009621 -0.004507 0.022279 0.000000 0.000000 0.000000
# 4 0.000000 0.000000 0.000000 0.087332 0.000000 0.000000
# 5 0.000000 0.000000 0.000000 0.000000 -0.035294 0.000000
# 6 0.000000 0.000000 0.000000 0.000000 0.000000 0.048042
#
#
# Mechanical properties :
#
#
# Convention : Reuss Voigt Hill
#
# Bulk Modulus (GPa) = 45.73233 47.35539 46.54386
# Shear Modulus (GPa) = 27.10987 12.33610 19.72299
#
# Velocity S-wave (km/s) = 3.80286 2.56529 3.24365
# Velocity P-wave (km/s) = 6.60896 5.83404 6.23355
#
# Compressibility (1/GPa) = 0.02186637
#
# Stress axis : x y z
#
# Youngs Moduli (GPa) = 71.80822 75.41188 44.88498
#
# Poissons Ratio (x) = -0.02477 0.43185
# Poissons Ratio (y) = -0.02359 0.20229
# Poissons Ratio (z) = 0.69088 0.33988
#
# Static dielectric constant tensor:
#      x y z
#    x 1.649990 0.000000 0.000000 
#    y 0.000000 1.739140 0.000000 
#    z 0.000000 0.000000 1.674680 
# 
# From -- ./inp_files/66703.got.cif
#   From: 2010.05.17/outbox.cif.g08.bks.cpg/sg70_34_cif.got.tgz:66703.got - 2010.06.03 15:57:51.
