data_PCOD9514325
_publ_section_title
;
Structure prediction by ZEFSAII (Michael W. Deem and Ramdas Pophale) SiO2 
 PCOD9514325
Probable space group: F D D D
;
_chemical_formula_sum "Si O2"
_cell_formula_units_Z 168
_cell_length_a 11.258517
_cell_length_b 27.857799
_cell_length_c 24.344493
_cell_angle_alpha 90.000000
_cell_angle_beta 90.000000
_cell_angle_gamma 90.000000
_cell_volume 7635.346012
_symmetry_space_group_name_H-M "F D D D"
_symmetry_group_IT_number 70
_space_group.IT_coordinate_system_code '2'
_symmetry_cell_setting 'orthorhombic'
loop_
_space_group_symop_operation_xyz
x,y,z
1/4-x,1/4-y,z
x,1/4-y,1/4-z
1/4-x,y,1/4-z
-x,-y,-z
3/4+x,3/4+y,-z
-x,3/4+y,3/4+z
3/4+x,-y,3/4+z
x,1/2+y,1/2+z
1/4-x,3/4-y,1/2+z
x,3/4-y,3/4-z
1/4-x,1/2+y,3/4-z
-x,1/2-y,1/2-z
3/4+x,1/4+y,1/2-z
-x,1/4+y,1/4+z
3/4+x,1/2-y,1/4+z
1/2+x,y,1/2+z
3/4-x,1/4-y,1/2+z
1/2+x,1/4-y,3/4-z
3/4-x,y,3/4-z
1/2-x,-y,1/2-z
1/4+x,3/4+y,1/2-z
1/2-x,3/4+y,1/4+z
1/4+x,-y,1/4+z
1/2+x,1/2+y,z
3/4-x,3/4-y,z
1/2+x,3/4-y,1/4-z
3/4-x,1/2+y,1/4-z
1/2-x,1/2-y,-z
1/4+x,1/4+y,-z
1/2-x,1/4+y,3/4+z
1/4+x,1/2-y,3/4+z
loop_
_atom_site_type_symbol
_atom_site_label
_atom_site_fract_x
_atom_site_fract_y
_atom_site_fract_z
Si Si1 0.499199 0.937893 0.782622
Si Si2 0.625000 0.625000 0.625000
Si Si3 0.625000 0.525569 0.125000
Si Si4 0.804703 0.444328 0.085633
Si Si5 0.027892 0.201467 0.934956
Si Si6 0.875000 0.114543 0.375000
Si Si7 0.233527 0.056033 0.233652
O O1 0.453370 0.907797 0.834106
O O2 0.420703 0.934371 0.727754
O O3 0.633793 0.923231 0.764422
O O4 0.501445 0.994401 0.797257
O O5 0.717274 0.490241 0.093827
O O6 0.689672 0.556475 0.171153
O O7 0.915116 0.453970 0.124396
O O8 0.733341 0.399255 0.109895
O O9 0.914862 0.168056 0.926188
O O10 0.128008 0.179432 0.975402
O O11 0.250000 0.000000 0.250000
#
# Coordination Sequence:
#
# PCOD9514325 Si02
#       7
#    32   8  16  32  32  16  32
#     4  11  24  46  67  96 135 192 223 277 350 422
#     4  12  30  48  62  94 164 180 220 284 360 424
#     4  11  16  36  67  99 119 171 222 286 328 392
#     4  11  21  40  69  97 134 173 229 292 343 398
#     4  11  22  43  70 102 131 183 237 281 343 424
#     4  11  25  38  64 109 143 166 232 296 351 398
#     4  10  18  36  69  94 126 166 232 272 322 402
#
# _framework density 22.002932000000001
#
# number of rings (size 3 to 8) (size 9 to 14) (size 15 to 20)
#    0.000    1.143    7.619    2.286    2.667    0.000 
#    6.857    1.905    0.000    0.000    0.000    0.000 
#    0.000    0.000    0.000    0.000    0.000    0.000 
#
# Total GULP energy -234816.343091 kJ/mol
# GULP energy per Si atom -5590.865312 kJ/mol
# Density = 2.195285 g / cm^3
# Si number density = 22.002932 Si / 1000 Ang^3
#
#
#
# Elastic Constant Matrix: (Units=GPa)
#
#
# Indices 1 2 3 4 5 6 
#
# 1 44.8192 15.4547 15.5039 0.0000 0.0000 0.0000
# 2 15.4547 82.4392 24.9296 0.0000 0.0000 0.0000
# 3 15.5039 24.9296 150.0790 0.0000 0.0000 0.0000
# 4 0.0000 0.0000 0.0000 12.2169 0.0000 0.0000
# 5 0.0000 0.0000 0.0000 0.0000 50.6990 0.0000
# 6 0.0000 0.0000 0.0000 0.0000 0.0000 17.0979
#
#
#
# Elastic Compliance Matrix: (Units=1/GPa)
#
#
# Indices 1 2 3 4 5 6 
#
# 1 0.024331 -0.004002 -0.001849 0.000000 0.000000 0.000000
# 2 -0.004002 0.013430 -0.001817 0.000000 0.000000 0.000000
# 3 -0.001849 -0.001817 0.007156 0.000000 0.000000 0.000000
# 4 0.000000 0.000000 0.000000 0.081853 0.000000 0.000000
# 5 0.000000 0.000000 0.000000 0.000000 0.019724 0.000000
# 6 0.000000 0.000000 0.000000 0.000000 0.000000 0.058487
#
#
# Mechanical properties :
#
#
# Convention : Reuss Voigt Hill
#
# Bulk Modulus (GPa) = 33.80589 43.23485 38.52037
# Shear Modulus (GPa) = 21.72222 30.76606 26.24414
#
# Velocity S-wave (km/s) = 3.14545 3.74340 3.45738
# Velocity P-wave (km/s) = 5.34691 6.19486 5.78644
#
# Compressibility (1/GPa) = 0.02958065
#
# Stress axis : x y z
#
# Youngs Moduli (GPa) = 41.09903 74.45992 139.74230
#
# Poissons Ratio (x) = 0.29801 0.25835
# Poissons Ratio (y) = 0.16449 0.25397
# Poissons Ratio (z) = 0.07598 0.13532
#
# Static dielectric constant tensor:
#      x y z
#    x 1.912130 0.000000 0.000000 
#    y 0.000000 1.840200 0.000000 
#    z 0.000000 0.000000 1.810230 
# 
# From -- ./inp_files/50437.got.cif
#   From: 2010.05.17/outbox.cif.g08.bks.cpg/sg70_26_cif.got.tgz:50437.got - 2010.06.03 15:57:51.
