data_PCOD9514862
_publ_section_title
;
Structure prediction by ZEFSAII (Michael W. Deem and Ramdas Pophale) SiO2 
 PCOD9514862
Probable space group: F D D D
;
_chemical_formula_sum "Si O2"
_cell_formula_units_Z 240
_cell_length_a 23.490978
_cell_length_b 17.825097
_cell_length_c 28.496704
_cell_angle_alpha 90.000000
_cell_angle_beta 90.000000
_cell_angle_gamma 90.000000
_cell_volume 11932.395271
_symmetry_space_group_name_H-M "F D D D"
_symmetry_group_IT_number 70
_space_group.IT_coordinate_system_code '2'
_symmetry_cell_setting 'orthorhombic'
loop_
_space_group_symop_operation_xyz
x,y,z
1/4-x,1/4-y,z
x,1/4-y,1/4-z
1/4-x,y,1/4-z
-x,-y,-z
3/4+x,3/4+y,-z
-x,3/4+y,3/4+z
3/4+x,-y,3/4+z
x,1/2+y,1/2+z
1/4-x,3/4-y,1/2+z
x,3/4-y,3/4-z
1/4-x,1/2+y,3/4-z
-x,1/2-y,1/2-z
3/4+x,1/4+y,1/2-z
-x,1/4+y,1/4+z
3/4+x,1/2-y,1/4+z
1/2+x,y,1/2+z
3/4-x,1/4-y,1/2+z
1/2+x,1/4-y,3/4-z
3/4-x,y,3/4-z
1/2-x,-y,1/2-z
1/4+x,3/4+y,1/2-z
1/2-x,3/4+y,1/4+z
1/4+x,-y,1/4+z
1/2+x,1/2+y,z
3/4-x,3/4-y,z
1/2+x,3/4-y,1/4-z
3/4-x,1/2+y,1/4-z
1/2-x,1/2-y,-z
1/4+x,1/4+y,-z
1/2-x,1/4+y,3/4+z
1/4+x,1/2-y,3/4+z
loop_
_atom_site_type_symbol
_atom_site_label
_atom_site_fract_x
_atom_site_fract_y
_atom_site_fract_z
Si Si1 0.039622 0.611650 0.978910
Si Si2 0.924175 0.324115 0.120896
Si Si3 0.831477 0.527971 0.778172
Si Si4 0.267510 0.249314 0.722013
Si Si5 0.631725 0.814644 0.998195
Si Si6 0.350945 0.202294 0.647293
Si Si7 0.125000 0.813130 0.125000
Si Si8 0.280255 0.100832 0.315615
O O1 0.981544 0.563950 0.972315
O O2 0.057828 0.639749 0.927957
O O3 0.025226 0.683207 0.012104
O O4 0.082050 0.550134 0.000710
O O5 0.875000 0.375000 0.144951
O O6 0.888518 0.249163 0.111556
O O7 0.977573 0.318355 0.155294
O O8 0.867253 0.597679 0.757360
O O9 0.851243 0.516685 0.831431
O O10 0.323517 0.234044 0.754553
O O11 0.293840 0.236962 0.669697
O O12 0.241880 0.331766 0.718321
O O13 0.641251 0.806388 0.942948
O O14 0.682937 0.795731 0.032743
O O15 0.334274 0.125000 0.625000
O O16 0.175519 0.863933 0.146619
#
# Coordination Sequence:
#
# PCOD9514862 Si02
#       8
#    32  32  32  32  32  32  16  32
#     4  10  21  34  61  88 124 164 200 257 316 379
#     4  12  24  37  63  97 121 161 223 268 317 394
#     4   9  18  36  59  90 122 164 203 245 316 386
#     4   9  21  39  56  87 122 167 202 255 319 377
#     4   8  20  38  58  83 125 164 206 254 321 376
#     4  10  23  39  58  90 125 160 209 263 326 374
#     4  10  20  36  61  90 123 170 208 254 308 396
#     4  11  21  39  64  87 127 163 217 266 318 393
#
# _framework density 20.113313000000002
#
# number of rings (size 3 to 8) (size 9 to 14) (size 15 to 20)
#    0.800    1.333    2.667    0.000    3.733    2.667 
#    0.000    0.667    0.000    0.000    0.000    0.467 
#    0.000    0.000    0.000    0.000    0.000    0.000 
#
# Total GULP energy -334246.153197 kJ/mol
# GULP energy per Si atom -5570.769220 kJ/mol
# Density = 2.006753 g / cm^3
# Si number density = 20.113313 Si / 1000 Ang^3
#
#
#
# Elastic Constant Matrix: (Units=GPa)
#
#
# Indices 1 2 3 4 5 6 
#
# 1 70.1181 5.2016 3.7638 0.0000 0.0000 0.0000
# 2 5.2016 28.7964 -1.0154 0.0000 0.0000 0.0000
# 3 3.7638 -1.0154 53.5675 0.0000 0.0000 0.0000
# 4 0.0000 0.0000 0.0000 13.1855 0.0000 0.0000
# 5 0.0000 0.0000 0.0000 0.0000 31.2626 0.0000
# 6 0.0000 0.0000 0.0000 0.0000 0.0000 13.5728
#
#
#
# Elastic Compliance Matrix: (Units=1/GPa)
#
#
# Indices 1 2 3 4 5 6 
#
# 1 0.014516 -0.002660 -0.001070 0.000000 0.000000 0.000000
# 2 -0.002660 0.035237 0.000855 0.000000 0.000000 0.000000
# 3 -0.001070 0.000855 0.018759 0.000000 0.000000 0.000000
# 4 0.000000 0.000000 0.000000 0.075841 0.000000 0.000000
# 5 0.000000 0.000000 0.000000 0.000000 0.031987 0.000000
# 6 0.000000 0.000000 0.000000 0.000000 0.000000 0.073677
#
#
# Mechanical properties :
#
#
# Convention : Reuss Voigt Hill
#
# Bulk Modulus (GPa) = 15.93317 18.70911 17.32114
# Shear Modulus (GPa) = 18.07081 21.23965 19.65523
#
# Velocity S-wave (km/s) = 3.00067 3.25314 3.12945
# Velocity P-wave (km/s) = 4.46590 4.84072 4.65708
#
# Compressibility (1/GPa) = 0.06276216
#
# Stress axis : x y z
#
# Youngs Moduli (GPa) = 68.88749 28.37911 53.30650
#
# Poissons Ratio (x) = 0.07549 0.05706
# Poissons Ratio (y) = 0.18323 -0.04557
# Poissons Ratio (z) = 0.07374 -0.02426
#
# Static dielectric constant tensor:
#      x y z
#    x 1.771930 0.000000 0.000000 
#    y 0.000000 1.748510 0.000000 
#    z 0.000000 0.000000 1.708640 
# 
# From -- ./inp_files/60552.got.cif
#   From: 2010.05.17/outbox.cif.g08.bks.cpg/sg70_31_cif.got.tgz:60552.got - 2010.06.03 15:57:51.
