data_PCOD9514443
_publ_section_title
;
Structure prediction by ZEFSAII (Michael W. Deem and Ramdas Pophale) SiO2 
 PCOD9514443
Probable space group: F D D D
;
_chemical_formula_sum "Si O2"
_cell_formula_units_Z 168
_cell_length_a 23.757524
_cell_length_b 14.415366
_cell_length_c 27.606607
_cell_angle_alpha 90.000000
_cell_angle_beta 90.000000
_cell_angle_gamma 90.000000
_cell_volume 9454.528664
_symmetry_space_group_name_H-M "F D D D"
_symmetry_group_IT_number 70
_space_group.IT_coordinate_system_code '2'
_symmetry_cell_setting 'orthorhombic'
loop_
_space_group_symop_operation_xyz
x,y,z
1/4-x,1/4-y,z
x,1/4-y,1/4-z
1/4-x,y,1/4-z
-x,-y,-z
3/4+x,3/4+y,-z
-x,3/4+y,3/4+z
3/4+x,-y,3/4+z
x,1/2+y,1/2+z
1/4-x,3/4-y,1/2+z
x,3/4-y,3/4-z
1/4-x,1/2+y,3/4-z
-x,1/2-y,1/2-z
3/4+x,1/4+y,1/2-z
-x,1/4+y,1/4+z
3/4+x,1/2-y,1/4+z
1/2+x,y,1/2+z
3/4-x,1/4-y,1/2+z
1/2+x,1/4-y,3/4-z
3/4-x,y,3/4-z
1/2-x,-y,1/2-z
1/4+x,3/4+y,1/2-z
1/2-x,3/4+y,1/4+z
1/4+x,-y,1/4+z
1/2+x,1/2+y,z
3/4-x,3/4-y,z
1/2+x,3/4-y,1/4-z
3/4-x,1/2+y,1/4-z
1/2-x,1/2-y,-z
1/4+x,1/4+y,-z
1/2-x,1/4+y,3/4+z
1/4+x,1/2-y,3/4+z
loop_
_atom_site_type_symbol
_atom_site_label
_atom_site_fract_x
_atom_site_fract_y
_atom_site_fract_z
Si Si1 0.094947 0.778850 0.253764
Si Si2 0.625000 0.625000 0.625000
Si Si3 0.810881 0.218485 0.815436
Si Si4 0.370828 0.231552 0.139668
Si Si5 0.971323 0.873551 0.131270
Si Si6 0.514261 0.138827 0.996239
O O1 0.133356 0.818792 0.211249
O O2 0.130872 0.761546 0.301900
O O3 0.065061 0.681796 0.239908
O O4 0.043403 0.845740 0.265931
O O5 0.583714 0.695297 0.596850
O O6 0.774443 0.149062 0.847713
O O7 0.774575 0.264081 0.772125
O O8 0.372300 0.125000 0.125000
O O9 0.317101 0.287067 0.119158
O O10 0.427962 0.286828 0.126742
O O11 0.988334 0.884235 0.187819
#
# Coordination Sequence:
#
# PCOD9514443 Si02
#       6
#    32   8  32  32  32  32
#     4  10  19  33  54  78 114 153 186 232 300 343
#     4  12  24  28  52  92 122 148 180 224 300 366
#     4  12  21  35  51  86 120 152 186 237 292 361
#     4  10  20  38  57  81 112 157 197 245 287 345
#     4  10  22  34  57  85 114 153 202 235 294 355
#     4  10  19  34  52  80 117 152 185 238 293 355
#
# _framework density 17.769261
#
# number of rings (size 3 to 8) (size 9 to 14) (size 15 to 20)
#    0.000    1.524    3.810    2.286    6.667    0.000 
#    0.000    0.952    0.000    0.000    0.000    4.667 
#    0.000    0.000    0.000    0.000    0.000    0.000 
#
# Total GULP energy -234286.126095 kJ/mol
# GULP energy per Si atom -5578.241097 kJ/mol
# Density = 1.772882 g / cm^3
# Si number density = 17.769261 Si / 1000 Ang^3
#
#
#
# Elastic Constant Matrix: (Units=GPa)
#
#
# Indices 1 2 3 4 5 6 
#
# 1 88.0363 24.1073 45.7512 0.0000 0.0000 0.0000
# 2 24.1073 68.8230 18.7831 0.0000 0.0000 0.0000
# 3 45.7512 18.7831 64.2519 0.0000 0.0000 0.0000
# 4 0.0000 0.0000 0.0000 -2.7996 0.0000 0.0000
# 5 0.0000 0.0000 0.0000 0.0000 18.4807 0.0000
# 6 0.0000 0.0000 0.0000 0.0000 0.0000 24.4740
#
#
#
# Elastic Compliance Matrix: (Units=1/GPa)
#
#
# Indices 1 2 3 4 5 6 
#
# 1 0.018643 -0.003159 -0.012351 0.000000 0.000000 0.000000
# 2 -0.003159 0.016325 -0.002523 0.000000 0.000000 0.000000
# 3 -0.012351 -0.002523 0.025096 0.000000 0.000000 0.000000
# 4 0.000000 0.000000 0.000000 -0.357199 0.000000 0.000000
# 5 0.000000 0.000000 0.000000 0.000000 0.054111 0.000000
# 6 0.000000 0.000000 0.000000 0.000000 0.000000 0.040860
#
#
# Mechanical properties :
#
#
# Convention : Reuss Voigt Hill
#
# Bulk Modulus (GPa) = 41.67123 44.26605 42.96864
# Shear Modulus (GPa) = -31.62581 16.86234 -7.38174
#
# Velocity S-wave (km/s) = -4.22335 3.08386 -2.04040
# Velocity P-wave (km/s) = 0.52918 6.13563 4.32238
#
# Compressibility (1/GPa) = 0.02399737
#
# Stress axis : x y z
#
# Youngs Moduli (GPa) = 53.63991 61.25502 39.84691
#
# Poissons Ratio (x) = 0.19353 0.49216
# Poissons Ratio (y) = 0.16947 0.10053
# Poissons Ratio (z) = 0.66252 0.15453
#
# Static dielectric constant tensor:
#      x y z
#    x 1.633100 0.000000 0.000000 
#    y 0.000000 1.607140 0.000000 
#    z 0.000000 0.000000 1.653510 
# 
# From -- ./inp_files/27790.got.cif
#   From: 2010.05.17/outbox.cif.g08.bks.cpg/sg70_14_cif.got.tgz:27790.got - 2010.06.03 15:57:51.
