data_PCOD9514769
_publ_section_title
;
Structure prediction by ZEFSAII (Michael W. Deem and Ramdas Pophale) SiO2 
 PCOD9514769
Probable space group: F D D D
;
_chemical_formula_sum "Si O2"
_cell_formula_units_Z 104
_cell_length_a 9.655910
_cell_length_b 35.277753
_cell_length_c 12.725686
_cell_angle_alpha 90.000000
_cell_angle_beta 90.000000
_cell_angle_gamma 90.000000
_cell_volume 4334.862510
_symmetry_space_group_name_H-M "F D D D"
_symmetry_group_IT_number 70
_space_group.IT_coordinate_system_code '2'
_symmetry_cell_setting 'orthorhombic'
loop_
_space_group_symop_operation_xyz
x,y,z
1/4-x,1/4-y,z
x,1/4-y,1/4-z
1/4-x,y,1/4-z
-x,-y,-z
3/4+x,3/4+y,-z
-x,3/4+y,3/4+z
3/4+x,-y,3/4+z
x,1/2+y,1/2+z
1/4-x,3/4-y,1/2+z
x,3/4-y,3/4-z
1/4-x,1/2+y,3/4-z
-x,1/2-y,1/2-z
3/4+x,1/4+y,1/2-z
-x,1/4+y,1/4+z
3/4+x,1/2-y,1/4+z
1/2+x,y,1/2+z
3/4-x,1/4-y,1/2+z
1/2+x,1/4-y,3/4-z
3/4-x,y,3/4-z
1/2-x,-y,1/2-z
1/4+x,3/4+y,1/2-z
1/2-x,3/4+y,1/4+z
1/4+x,-y,1/4+z
1/2+x,1/2+y,z
3/4-x,3/4-y,z
1/2+x,3/4-y,1/4-z
3/4-x,1/2+y,1/4-z
1/2-x,1/2-y,-z
1/4+x,1/4+y,-z
1/2-x,1/4+y,3/4+z
1/4+x,1/2-y,3/4+z
loop_
_atom_site_type_symbol
_atom_site_label
_atom_site_fract_x
_atom_site_fract_y
_atom_site_fract_z
Si Si1 0.899073 0.333154 0.746862
Si Si2 0.625000 0.625000 0.125000
Si Si3 0.302654 0.058169 0.038299
Si Si4 0.260312 0.017728 0.547919
O O1 0.875000 0.336576 0.875000
O O2 0.875000 0.375000 0.702871
O O3 0.796504 0.299136 0.715848
O O4 0.055097 0.319561 0.729804
O O5 0.720516 0.596391 0.059320
O O6 0.365425 0.037889 0.142197
O O7 0.212723 0.024359 0.990694
O O8 0.125000 0.012272 0.625000
#
# Coordination Sequence:
#
# PCOD9514769 Si02
#       4
#    32   8  32  32
#     4   8  13  26  50  79 105 134 182 225 265 321
#     4  12  24  36  54  72 116 156 178 226 276 360
#     4  10  20  34  55  80 111 148 192 224 286 334
#     4   9  17  33  59  84 105 142 187 240 273 333
#
# _framework density 23.991534000000001
#
# number of rings (size 3 to 8) (size 9 to 14) (size 15 to 20)
#    0.000    3.385    0.000    7.385    0.000    1.231 
#    0.000    0.000   20.308    0.000    0.000    0.000 
#    0.000    0.000    0.000    0.000    0.000    0.000 
#
# Total GULP energy -145031.995095 kJ/mol
# GULP energy per Si atom -5578.153657 kJ/mol
# Density = 2.393693 g / cm^3
# Si number density = 23.991534 Si / 1000 Ang^3
#
#
#
# Elastic Constant Matrix: (Units=GPa)
#
#
# Indices 1 2 3 4 5 6 
#
# 1 66.4691 48.8369 33.0096 0.0000 0.0000 0.0000
# 2 48.8369 271.6515 39.2465 0.0000 0.0000 0.0000
# 3 33.0096 39.2465 35.0108 0.0000 0.0000 0.0000
# 4 0.0000 0.0000 0.0000 32.8771 0.0000 0.0000
# 5 0.0000 0.0000 0.0000 0.0000 1.9141 0.0000
# 6 0.0000 0.0000 0.0000 0.0000 0.0000 34.8172
#
#
#
# Elastic Compliance Matrix: (Units=1/GPa)
#
#
# Indices 1 2 3 4 5 6 
#
# 1 0.028793 -0.001497 -0.025469 0.000000 0.000000 0.000000
# 2 -0.001497 0.004470 -0.003600 0.000000 0.000000 0.000000
# 3 -0.025469 -0.003600 0.056612 0.000000 0.000000 0.000000
# 4 0.000000 0.000000 0.000000 0.030416 0.000000 0.000000
# 5 0.000000 0.000000 0.000000 0.000000 0.522426 0.000000
# 6 0.000000 0.000000 0.000000 0.000000 0.000000 0.028721
#
#
# Mechanical properties :
#
#
# Convention : Reuss Voigt Hill
#
# Bulk Modulus (GPa) = 34.79129 68.36859 51.57994
# Shear Modulus (GPa) = 6.73717 30.72426 18.73071
#
# Velocity S-wave (km/s) = 1.67757 3.58247 2.79717
# Velocity P-wave (km/s) = 4.27613 6.75803 5.65492
#
# Compressibility (1/GPa) = 0.02874283
#
# Stress axis : x y z
#
# Youngs Moduli (GPa) = 34.73118 223.69504 17.66422
#
# Poissons Ratio (x) = 0.33479 0.44989
# Poissons Ratio (y) = 0.05198 0.06359
# Poissons Ratio (z) = 0.88457 0.80533
#
# Static dielectric constant tensor:
#      x y z
#    x 1.931220 0.000000 0.000000 
#    y 0.000000 1.937350 0.000000 
#    z 0.000000 0.000000 2.175620 
# 
# From -- ./inp_files/8177.got.cif
#   From: 2010.05.17/outbox.cif.g08.bks.cpg/sg70_5_cif.got.tgz:8177.got - 2010.06.03 15:57:51.
