data_PCOD9514044
_publ_section_title
;
Structure prediction by ZEFSAII (Michael W. Deem and Ramdas Pophale) SiO2 
 PCOD9514044
Probable space group: F D D D
;
_chemical_formula_sum "Si O2"
_cell_formula_units_Z 176
_cell_length_a 27.623532
_cell_length_b 22.557797
_cell_length_c 12.269548
_cell_angle_alpha 90.000000
_cell_angle_beta 90.000000
_cell_angle_gamma 90.000000
_cell_volume 7645.474702
_symmetry_space_group_name_H-M "F D D D"
_symmetry_group_IT_number 70
_space_group.IT_coordinate_system_code '2'
_symmetry_cell_setting 'orthorhombic'
loop_
_space_group_symop_operation_xyz
x,y,z
1/4-x,1/4-y,z
x,1/4-y,1/4-z
1/4-x,y,1/4-z
-x,-y,-z
3/4+x,3/4+y,-z
-x,3/4+y,3/4+z
3/4+x,-y,3/4+z
x,1/2+y,1/2+z
1/4-x,3/4-y,1/2+z
x,3/4-y,3/4-z
1/4-x,1/2+y,3/4-z
-x,1/2-y,1/2-z
3/4+x,1/4+y,1/2-z
-x,1/4+y,1/4+z
3/4+x,1/2-y,1/4+z
1/2+x,y,1/2+z
3/4-x,1/4-y,1/2+z
1/2+x,1/4-y,3/4-z
3/4-x,y,3/4-z
1/2-x,-y,1/2-z
1/4+x,3/4+y,1/2-z
1/2-x,3/4+y,1/4+z
1/4+x,-y,1/4+z
1/2+x,1/2+y,z
3/4-x,3/4-y,z
1/2+x,3/4-y,1/4-z
3/4-x,1/2+y,1/4-z
1/2-x,1/2-y,-z
1/4+x,1/4+y,-z
1/2-x,1/4+y,3/4+z
1/4+x,1/2-y,3/4+z
loop_
_atom_site_type_symbol
_atom_site_label
_atom_site_fract_x
_atom_site_fract_y
_atom_site_fract_z
Si Si1 0.163085 0.546819 0.531855
Si Si2 0.434325 0.406493 0.554456
Si Si3 0.002668 0.625000 0.625000
Si Si4 0.064999 0.416018 0.777621
Si Si5 0.210567 0.908273 0.583742
Si Si6 0.797700 0.956611 0.429049
O O1 0.125000 0.560316 0.625000
O O2 0.156757 0.576842 0.414266
O O3 0.213067 0.570788 0.586501
O O4 0.161694 0.478092 0.501829
O O5 0.489171 0.415129 0.598938
O O6 0.426925 0.339492 0.511164
O O7 0.433082 0.444929 0.443612
O O8 0.970362 0.615836 0.518790
O O9 0.083340 0.375000 0.875000
O O10 0.070590 0.375044 0.672200
O O11 0.009130 0.436179 0.810439
O O12 0.195868 0.974143 0.547390
#
# Coordination Sequence:
#
# PCOD9514044 Si02
#       6
#    32  32  16  32  32  32
#     4  11  23  39  55  80 122 174 209 231 280 378
#     4   9  17  29  55  91 121 154 195 241 310 351
#     4  10  21  36  56  82 118 162 200 236 296 358
#     4  11  19  33  62  93 119 151 192 255 317 362
#     4  10  18  30  52  92 125 144 184 253 326 355
#     4  10  15  30  57  97 126 139 189 269 313 350
#
# _framework density 23.020153000000001
#
# number of rings (size 3 to 8) (size 9 to 14) (size 15 to 20)
#    0.000    1.818    7.273    1.909    0.000    0.727 
#    3.273    0.000    2.000    0.000    4.727   11.455 
#    0.000    0.000    0.000    0.000    0.000    0.000 
#
# Total GULP energy -245618.931199 kJ/mol
# GULP energy per Si atom -5582.248436 kJ/mol
# Density = 2.296776 g / cm^3
# Si number density = 23.020153 Si / 1000 Ang^3
#
#
#
# Elastic Constant Matrix: (Units=GPa)
#
#
# Indices 1 2 3 4 5 6 
#
# 1 27.6483 10.6665 38.3383 0.0000 0.0000 0.0000
# 2 10.6665 166.9825 74.2028 0.0000 0.0000 0.0001
# 3 38.3383 74.2028 217.4650 0.0000 0.0000 0.0000
# 4 0.0000 0.0000 0.0000 36.6350 0.0000 0.0000
# 5 0.0000 0.0000 0.0000 0.0000 5.5004 0.0000
# 6 0.0000 0.0001 0.0000 0.0000 0.0000 -66.3785
#
#
#
# Elastic Compliance Matrix: (Units=1/GPa)
#
#
# Indices 1 2 3 4 5 6 
#
# 1 0.047966 0.000818 -0.008735 0.000000 0.000000 0.000000
# 2 0.000818 0.007073 -0.002558 0.000000 0.000000 0.000000
# 3 -0.008735 -0.002558 0.007011 0.000000 0.000000 0.000000
# 4 0.000000 0.000000 0.000000 0.027296 0.000000 0.000000
# 5 0.000000 0.000000 0.000000 0.000000 0.181805 0.000000
# 6 0.000000 0.000000 0.000000 0.000000 0.000000 -0.015065
#
#
# Mechanical properties :
#
#
# Convention : Reuss Voigt Hill
#
# Bulk Modulus (GPa) = 24.33104 73.16787 48.74945
# Shear Modulus (GPa) = 17.19775 14.41060 15.80418
#
# Velocity S-wave (km/s) = 2.73623 2.50471 2.62303
# Velocity P-wave (km/s) = 4.53597 6.34177 5.51330
#
# Compressibility (1/GPa) = 0.04109977
#
# Stress axis : x y z
#
# Youngs Moduli (GPa) = 20.84819 141.38401 142.63063
#
# Poissons Ratio (x) = -0.11562 1.24591
# Poissons Ratio (y) = -0.01705 0.36479
# Poissons Ratio (z) = 0.18211 0.36160
#
# Static dielectric constant tensor:
#      x y z
#    x 2.052710 0.000000 0.000000 
#    y 0.000000 1.873470 0.000000 
#    z 0.000000 0.000000 1.831930 
# 
# From -- ./inp_files/22282.got.cif
#   From: 2010.05.17/outbox.cif.g08.bks.cpg/sg70_12_cif.got.tgz:22282.got - 2010.06.03 15:57:51.
