data_PCOD9514645
_publ_section_title
;
Structure prediction by ZEFSAII (Michael W. Deem and Ramdas Pophale) SiO2 
 PCOD9514645
Probable space group: F D D D
;
_chemical_formula_sum "Si O2"
_cell_formula_units_Z 168
_cell_length_a 21.492685
_cell_length_b 32.236505
_cell_length_c 12.334321
_cell_angle_alpha 90.000000
_cell_angle_beta 90.000000
_cell_angle_gamma 90.000000
_cell_volume 8545.822556
_symmetry_space_group_name_H-M "F D D D"
_symmetry_group_IT_number 70
_space_group.IT_coordinate_system_code '2'
_symmetry_cell_setting 'orthorhombic'
loop_
_space_group_symop_operation_xyz
x,y,z
1/4-x,1/4-y,z
x,1/4-y,1/4-z
1/4-x,y,1/4-z
-x,-y,-z
3/4+x,3/4+y,-z
-x,3/4+y,3/4+z
3/4+x,-y,3/4+z
x,1/2+y,1/2+z
1/4-x,3/4-y,1/2+z
x,3/4-y,3/4-z
1/4-x,1/2+y,3/4-z
-x,1/2-y,1/2-z
3/4+x,1/4+y,1/2-z
-x,1/4+y,1/4+z
3/4+x,1/2-y,1/4+z
1/2+x,y,1/2+z
3/4-x,1/4-y,1/2+z
1/2+x,1/4-y,3/4-z
3/4-x,y,3/4-z
1/2-x,-y,1/2-z
1/4+x,3/4+y,1/2-z
1/2-x,3/4+y,1/4+z
1/4+x,-y,1/4+z
1/2+x,1/2+y,z
3/4-x,3/4-y,z
1/2+x,3/4-y,1/4-z
3/4-x,1/2+y,1/4-z
1/2-x,1/2-y,-z
1/4+x,1/4+y,-z
1/2-x,1/4+y,3/4+z
1/4+x,1/2-y,3/4+z
loop_
_atom_site_type_symbol
_atom_site_label
_atom_site_fract_x
_atom_site_fract_y
_atom_site_fract_z
Si Si1 0.411998 0.551101 0.582381
Si Si2 0.750182 0.317234 0.541914
Si Si3 0.875000 0.244534 0.875000
Si Si4 0.625000 0.125000 0.125000
Si Si5 0.400851 0.754280 0.254182
Si Si6 0.030882 0.187432 0.537609
Si Si7 0.435807 0.625000 0.125000
O O1 0.410125 0.533172 0.462602
O O2 0.396834 0.512934 0.664980
O O3 0.478975 0.566872 0.619883
O O4 0.360078 0.587221 0.591801
O O5 0.818768 0.298858 0.519304
O O6 0.703830 0.281086 0.502194
O O7 0.746909 0.317537 0.672240
O O8 0.728403 0.357487 0.474169
O O9 0.927263 0.271580 0.939195
O O10 0.581452 0.152023 0.049395
O O11 0.375000 0.754558 0.375000
#
# Coordination Sequence:
#
# PCOD9514645 Si02
#       7
#    32  32  16   8  32  32  16
#     4  11  22  39  65  95 122 169 211 267 314 383
#     4  10  21  40  63  90 126 160 207 268 319 380
#     4  11  24  41  64 100 122 162 234 262 308 387
#     4  10  26  40  56  86 124 174 204 240 334 386
#     4  10  19  38  67  90 115 160 212 259 324 372
#     4  11  22  43  64  87 130 169 209 266 323 382
#     4  10  25  38  59  97 128 163 212 256 334 388
#
# _framework density 19.658728
#
# number of rings (size 3 to 8) (size 9 to 14) (size 15 to 20)
#    0.000    1.524    3.810    1.143    0.000    3.048 
#    3.429    0.000    0.000    0.000    0.000    0.000 
#    0.000    0.000    0.000    0.000    0.000    0.000 
#
# Total GULP energy -234186.258281 kJ/mol
# GULP energy per Si atom -5575.863292 kJ/mol
# Density = 1.961398 g / cm^3
# Si number density = 19.658728 Si / 1000 Ang^3
#
#
#
# Elastic Constant Matrix: (Units=GPa)
#
#
# Indices 1 2 3 4 5 6 
#
# 1 72.5460 35.9806 22.0450 0.0000 0.0000 0.0000
# 2 35.9806 81.3480 38.4624 0.0000 0.0000 0.0000
# 3 22.0450 38.4624 105.1584 0.0000 0.0000 0.0000
# 4 0.0000 0.0000 0.0000 11.8946 0.0000 0.0000
# 5 0.0000 0.0000 0.0000 0.0000 47.3809 0.0000
# 6 0.0000 0.0000 0.0000 0.0000 0.0000 -40.2858
#
#
#
# Elastic Compliance Matrix: (Units=1/GPa)
#
#
# Indices 1 2 3 4 5 6 
#
# 1 0.017749 -0.007365 -0.001027 0.000000 0.000000 0.000000
# 2 -0.007365 0.017919 -0.005010 0.000000 0.000000 0.000000
# 3 -0.001027 -0.005010 0.011557 0.000000 0.000000 0.000000
# 4 0.000000 0.000000 0.000000 0.084072 0.000000 0.000000
# 5 0.000000 0.000000 0.000000 0.000000 0.021106 0.000000
# 6 0.000000 0.000000 0.000000 0.000000 0.000000 -0.024823
#
#
# Mechanical properties :
#
#
# Convention : Reuss Voigt Hill
#
# Bulk Modulus (GPa) = 48.96818 50.22538 49.59678
# Shear Modulus (GPa) = 31.01894 14.63558 22.82726
#
# Velocity S-wave (km/s) = 3.97655 2.73148 3.41130
# Velocity P-wave (km/s) = 6.78581 5.96256 6.38746
#
# Compressibility (1/GPa) = 0.02042142
#
# Stress axis : x y z
#
# Youngs Moduli (GPa) = 56.34035 55.80583 86.52560
#
# Poissons Ratio (x) = 0.41101 0.08887
# Poissons Ratio (y) = 0.41494 0.43351
# Poissons Ratio (z) = 0.05787 0.27959
#
# Static dielectric constant tensor:
#      x y z
#    x 1.716840 0.000000 0.000000 
#    y 0.000000 1.710510 0.000000 
#    z 0.000000 0.000000 1.870970 
# 
# From -- ./inp_files/19682.got.cif
#   From: 2010.05.17/outbox.cif.g08.bks.cpg/sg70_10_cif.got.tgz:19682.got - 2010.06.03 15:57:51.
