data_PCOD9514746
_publ_section_title
;
Structure prediction by ZEFSAII (Michael W. Deem and Ramdas Pophale) SiO2 
 PCOD9514746
Probable space group: F D D D
;
_chemical_formula_sum "Si O2"
_cell_formula_units_Z 112
_cell_length_a 6.534465
_cell_length_b 33.454914
_cell_length_c 23.924302
_cell_angle_alpha 90.000000
_cell_angle_beta 90.000000
_cell_angle_gamma 90.000000
_cell_volume 5230.090814
_symmetry_space_group_name_H-M "F D D D"
_symmetry_group_IT_number 70
_space_group.IT_coordinate_system_code '2'
_symmetry_cell_setting 'orthorhombic'
loop_
_space_group_symop_operation_xyz
x,y,z
1/4-x,1/4-y,z
x,1/4-y,1/4-z
1/4-x,y,1/4-z
-x,-y,-z
3/4+x,3/4+y,-z
-x,3/4+y,3/4+z
3/4+x,-y,3/4+z
x,1/2+y,1/2+z
1/4-x,3/4-y,1/2+z
x,3/4-y,3/4-z
1/4-x,1/2+y,3/4-z
-x,1/2-y,1/2-z
3/4+x,1/4+y,1/2-z
-x,1/4+y,1/4+z
3/4+x,1/2-y,1/4+z
1/2+x,y,1/2+z
3/4-x,1/4-y,1/2+z
1/2+x,1/4-y,3/4-z
3/4-x,y,3/4-z
1/2-x,-y,1/2-z
1/4+x,3/4+y,1/2-z
1/2-x,3/4+y,1/4+z
1/4+x,-y,1/4+z
1/2+x,1/2+y,z
3/4-x,3/4-y,z
1/2+x,3/4-y,1/4-z
3/4-x,1/2+y,1/4-z
1/2-x,1/2-y,-z
1/4+x,1/4+y,-z
1/2-x,1/4+y,3/4+z
1/4+x,1/2-y,3/4+z
loop_
_atom_site_type_symbol
_atom_site_label
_atom_site_fract_x
_atom_site_fract_y
_atom_site_fract_z
Si Si1 0.637064 0.945136 0.706255
Si Si2 0.003075 0.589394 0.014583
Si Si3 0.170130 0.537819 0.563486
Si Si4 0.875000 0.375000 0.554216
O O1 0.415093 0.927791 0.720549
O O2 0.605881 0.990076 0.685874
O O3 0.780250 0.915382 0.669279
O O4 0.761129 0.948077 0.765592
O O5 0.896203 0.553553 0.047814
O O6 0.815796 0.610233 0.982481
O O7 0.125000 0.625000 0.046047
O O8 0.125000 0.554146 0.625000
#
# Coordination Sequence:
#
# PCOD9514746 Si02
#       4
#    32  32  32  16
#     4   9  18  34  54  72 103 139 171 217 266 316
#     4   9  17  33  53  75 102 140 172 211 267 317
#     4  10  20  33  51  78 106 133 177 220 261 318
#     4   8  16  32  55  74  98 136 174 214 262 315
#
# _framework density 21.414541
#
# number of rings (size 3 to 8) (size 9 to 14) (size 15 to 20)
#    0.000    2.857    0.000    0.857    0.000    1.143 
#    0.000   32.857    9.429    0.000    0.000    0.000 
#    0.000    0.000    0.000    0.000    0.000    0.000 
#
# Total GULP energy -155876.537105 kJ/mol
# GULP energy per Si atom -5567.019182 kJ/mol
# Density = 2.136580 g / cm^3
# Si number density = 21.414541 Si / 1000 Ang^3
#
#
#
# Elastic Constant Matrix: (Units=GPa)
#
#
# Indices 1 2 3 4 5 6 
#
# 1 142.6843 56.7753 28.5884 0.0000 0.0000 0.0000
# 2 56.7753 118.3358 5.0699 0.0000 0.0000 0.0000
# 3 28.5884 5.0699 70.4565 0.0000 0.0000 0.0000
# 4 0.0000 0.0000 0.0000 -22.7988 0.0000 0.0000
# 5 0.0000 0.0000 0.0000 0.0000 12.8019 0.0000
# 6 0.0000 0.0000 0.0000 0.0000 0.0000 47.1256
#
#
#
# Elastic Compliance Matrix: (Units=1/GPa)
#
#
# Indices 1 2 3 4 5 6 
#
# 1 0.009460 -0.004388 -0.003523 0.000000 0.000000 0.000000
# 2 -0.004388 0.010512 0.001024 0.000000 0.000000 0.000000
# 3 -0.003523 0.001024 0.015549 0.000000 0.000000 0.000000
# 4 0.000000 0.000000 0.000000 -0.043862 0.000000 0.000000
# 5 0.000000 0.000000 0.000000 0.000000 0.078114 0.000000
# 6 0.000000 0.000000 0.000000 0.000000 0.000000 0.021220
#
#
# Mechanical properties :
#
#
# Convention : Reuss Voigt Hill
#
# Bulk Modulus (GPa) = 45.98211 56.92707 51.45459
# Shear Modulus (GPa) = 44.63672 23.49526 34.06599
#
# Velocity S-wave (km/s) = 4.57049 3.31594 3.99280
# Velocity P-wave (km/s) = 7.02648 6.42664 6.73324
#
# Compressibility (1/GPa) = 0.02174759
#
# Stress axis : x y z
#
# Youngs Moduli (GPa) = 105.70449 95.13015 64.31314
#
# Poissons Ratio (x) = 0.41743 0.22657
# Poissons Ratio (y) = 0.46383 -0.06586
# Poissons Ratio (z) = 0.37238 -0.09742
#
# Static dielectric constant tensor:
#      x y z
#    x 1.742700 0.000000 0.000000 
#    y 0.000000 1.882700 0.000000 
#    z 0.000000 0.000000 1.749900 
# 
# From -- ./inp_files/62937.got.cif
#   From: 2010.05.17/outbox.cif.g08.bks.cpg/sg70_32_cif.got.tgz:62937.got - 2010.06.03 15:57:51.
