data_PCOD9514487
_publ_section_title
;
Structure prediction by ZEFSAII (Michael W. Deem and Ramdas Pophale) SiO2 
 PCOD9514487
Probable space group: F D D D
;
_chemical_formula_sum "Si O2"
_cell_formula_units_Z 160
_cell_length_a 21.997295
_cell_length_b 15.231413
_cell_length_c 23.190706
_cell_angle_alpha 90.000000
_cell_angle_beta 90.000000
_cell_angle_gamma 90.000000
_cell_volume 7770.043379
_symmetry_space_group_name_H-M "F D D D"
_symmetry_group_IT_number 70
_space_group.IT_coordinate_system_code '2'
_symmetry_cell_setting 'orthorhombic'
loop_
_space_group_symop_operation_xyz
x,y,z
1/4-x,1/4-y,z
x,1/4-y,1/4-z
1/4-x,y,1/4-z
-x,-y,-z
3/4+x,3/4+y,-z
-x,3/4+y,3/4+z
3/4+x,-y,3/4+z
x,1/2+y,1/2+z
1/4-x,3/4-y,1/2+z
x,3/4-y,3/4-z
1/4-x,1/2+y,3/4-z
-x,1/2-y,1/2-z
3/4+x,1/4+y,1/2-z
-x,1/4+y,1/4+z
3/4+x,1/2-y,1/4+z
1/2+x,y,1/2+z
3/4-x,1/4-y,1/2+z
1/2+x,1/4-y,3/4-z
3/4-x,y,3/4-z
1/2-x,-y,1/2-z
1/4+x,3/4+y,1/2-z
1/2-x,3/4+y,1/4+z
1/4+x,-y,1/4+z
1/2+x,1/2+y,z
3/4-x,3/4-y,z
1/2+x,3/4-y,1/4-z
3/4-x,1/2+y,1/4-z
1/2-x,1/2-y,-z
1/4+x,1/4+y,-z
1/2-x,1/4+y,3/4+z
1/4+x,1/2-y,3/4+z
loop_
_atom_site_type_symbol
_atom_site_label
_atom_site_fract_x
_atom_site_fract_y
_atom_site_fract_z
Si Si1 0.823150 0.999597 0.326001
Si Si2 0.545857 0.492151 0.834393
Si Si3 0.641486 0.314860 0.448268
Si Si4 0.625000 0.125000 0.270719
Si Si5 0.337414 0.544004 0.933048
Si Si6 0.279537 0.125000 0.625000
O O1 0.875000 0.988690 0.375000
O O2 0.845551 0.948339 0.269927
O O3 0.763037 0.950083 0.347988
O O4 0.818227 0.102890 0.314119
O O5 0.577255 0.410636 0.801393
O O6 0.567222 0.485455 0.901135
O O7 0.573894 0.580359 0.809095
O O8 0.474509 0.489858 0.822703
O O9 0.629162 0.276115 0.511079
O O10 0.574816 0.330344 0.420727
O O11 0.375000 0.531634 0.875000
#
# Coordination Sequence:
#
# PCOD9514487 Si02
#       6
#    32  32  32  16  32  16
#     4  11  21  34  59 104 139 166 209 256 328 411
#     4  10  24  41  65  92 136 173 218 268 328 391
#     4  10  24  45  60  95 132 171 220 282 323 387
#     4  12  19  36  64 100 131 178 196 266 330 410
#     4  11  25  41  68  94 127 178 223 274 326 388
#     4  10  19  34  60  88 139 178 192 250 340 394
#
# _framework density 20.591906000000002
#
# number of rings (size 3 to 8) (size 9 to 14) (size 15 to 20)
#    0.000    1.600    4.000    1.200    5.600    2.400 
#    0.000    2.000    0.000    0.000    0.000    0.000 
#    0.000    0.000    0.000    0.000    0.000    0.000 
#
# Total GULP energy -223574.312736 kJ/mol
# GULP energy per Si atom -5589.357818 kJ/mol
# Density = 2.054504 g / cm^3
# Si number density = 20.591906 Si / 1000 Ang^3
#
#
#
# Elastic Constant Matrix: (Units=GPa)
#
#
# Indices 1 2 3 4 5 6 
#
# 1 107.7527 28.4544 52.6543 0.0000 0.0000 0.0000
# 2 28.4544 27.6063 19.6878 0.0000 0.0000 0.0000
# 3 52.6543 19.6878 145.7761 0.0000 0.0000 0.0000
# 4 0.0000 0.0000 0.0000 204.1013 0.0000 0.0000
# 5 0.0000 0.0000 0.0000 0.0000 91.4611 0.0000
# 6 0.0000 0.0000 0.0000 0.0000 0.0000 22.6850
#
#
#
# Elastic Compliance Matrix: (Units=1/GPa)
#
#
# Indices 1 2 3 4 5 6 
#
# 1 0.014190 -0.012140 -0.003486 0.000000 0.000000 0.000000
# 2 -0.012140 0.050470 -0.002431 0.000000 0.000000 0.000000
# 3 -0.003486 -0.002431 0.008447 0.000000 0.000000 0.000000
# 4 0.000000 0.000000 0.000000 0.004900 0.000000 0.000000
# 5 0.000000 0.000000 0.000000 0.000000 0.010934 0.000000
# 6 0.000000 0.000000 0.000000 0.000000 0.000000 0.044082
#
#
# Mechanical properties :
#
#
# Convention : Reuss Voigt Hill
#
# Bulk Modulus (GPa) = 27.03177 53.63643 40.33410
# Shear Modulus (GPa) = 27.55320 75.67203 51.61262
#
# Velocity S-wave (km/s) = 3.66192 6.06863 5.01188
# Velocity P-wave (km/s) = 5.57094 8.67226 7.28847
#
# Compressibility (1/GPa) = 0.03699351
#
# Stress axis : x y z
#
# Youngs Moduli (GPa) = 70.47421 19.81364 118.38147
#
# Poissons Ratio (x) = 0.24053 0.41265
# Poissons Ratio (y) = 0.85553 0.28784
# Poissons Ratio (z) = 0.24566 0.04818
#
# Static dielectric constant tensor:
#      x y z
#    x 1.725720 0.000000 0.000000 
#    y 0.000000 1.734670 0.000000 
#    z 0.000000 0.000000 1.747800 
# 
# From -- ./inp_files/37475.got.cif
#   From: 2010.05.17/outbox.cif.g08.bks.cpg/sg70_19_cif.got.tgz:37475.got - 2010.06.03 15:57:51.
