data_PCOD9514344
_publ_section_title
;
Structure prediction by ZEFSAII (Michael W. Deem and Ramdas Pophale) SiO2 
 PCOD9514344
Probable space group: F D D D
;
_chemical_formula_sum "Si O2"
_cell_formula_units_Z 160
_cell_length_a 30.749979
_cell_length_b 22.389949
_cell_length_c 10.453624
_cell_angle_alpha 90.000000
_cell_angle_beta 90.000000
_cell_angle_gamma 90.000000
_cell_volume 7197.220413
_symmetry_space_group_name_H-M "F D D D"
_symmetry_group_IT_number 70
_space_group.IT_coordinate_system_code '2'
_symmetry_cell_setting 'orthorhombic'
loop_
_space_group_symop_operation_xyz
x,y,z
1/4-x,1/4-y,z
x,1/4-y,1/4-z
1/4-x,y,1/4-z
-x,-y,-z
3/4+x,3/4+y,-z
-x,3/4+y,3/4+z
3/4+x,-y,3/4+z
x,1/2+y,1/2+z
1/4-x,3/4-y,1/2+z
x,3/4-y,3/4-z
1/4-x,1/2+y,3/4-z
-x,1/2-y,1/2-z
3/4+x,1/4+y,1/2-z
-x,1/4+y,1/4+z
3/4+x,1/2-y,1/4+z
1/2+x,y,1/2+z
3/4-x,1/4-y,1/2+z
1/2+x,1/4-y,3/4-z
3/4-x,y,3/4-z
1/2-x,-y,1/2-z
1/4+x,3/4+y,1/2-z
1/2-x,3/4+y,1/4+z
1/4+x,-y,1/4+z
1/2+x,1/2+y,z
3/4-x,3/4-y,z
1/2+x,3/4-y,1/4-z
3/4-x,1/2+y,1/4-z
1/2-x,1/2-y,-z
1/4+x,1/4+y,-z
1/2-x,1/4+y,3/4+z
1/4+x,1/2-y,3/4+z
loop_
_atom_site_type_symbol
_atom_site_label
_atom_site_fract_x
_atom_site_fract_y
_atom_site_fract_z
Si Si1 0.125000 0.792604 0.625000
Si Si2 0.566431 0.542259 0.248789
Si Si3 0.779881 0.492633 0.964849
Si Si4 0.002387 0.125000 0.625000
Si Si5 0.545527 0.878481 0.146418
Si Si6 0.794961 0.918394 0.713643
O O1 0.143263 0.752548 0.742762
O O2 0.085658 0.835208 0.664978
O O3 0.521331 0.511366 0.288501
O O4 0.570460 0.606574 0.315937
O O5 0.560668 0.556991 0.097986
O O6 0.781399 0.434738 0.874413
O O7 0.804526 0.552598 0.927405
O O8 0.793725 0.467216 0.102727
O O9 0.972831 0.125292 0.498560
O O10 0.504874 0.854007 0.228108
#
# Coordination Sequence:
#
# PCOD9514344 Si02
#       6
#    16  32  32  16  32  32
#     4  12  22  39  56  95 134 150 194 276 320 356
#     4  10  20  36  61  89 125 153 208 255 313 367
#     4  10  19  37  62  87 114 165 215 245 293 386
#     4  10  18  38  60  85 114 160 218 250 294 365
#     4  10  22  37  59  91 124 159 201 260 315 369
#     4   9  19  37  60  85 113 163 208 242 299 379
#
# _framework density 22.230805
#
# number of rings (size 3 to 8) (size 9 to 14) (size 15 to 20)
#    0.000    2.000    4.000    1.200    0.000    1.600 
#    3.600    0.000    0.000    5.400    0.000    0.000 
#    0.000    0.000    0.000    0.000    0.000    0.000 
#
# Total GULP energy -223474.108690 kJ/mol
# GULP energy per Si atom -5586.852717 kJ/mol
# Density = 2.218021 g / cm^3
# Si number density = 22.230805 Si / 1000 Ang^3
#
#
#
# Elastic Constant Matrix: (Units=GPa)
#
#
# Indices 1 2 3 4 5 6 
#
# 1 71.7224 30.4596 -2.3960 0.0000 0.0000 0.0000
# 2 30.4596 139.4147 4.1907 0.0000 0.0000 0.0000
# 3 -2.3960 4.1907 53.6754 0.0001 0.0000 0.0001
# 4 0.0000 0.0000 0.0001 34.5418 0.0000 0.0001
# 5 0.0000 0.0000 0.0000 0.0000 8.7488 0.0000
# 6 0.0000 0.0000 0.0001 0.0001 0.0000 41.7687
#
#
#
# Elastic Compliance Matrix: (Units=1/GPa)
#
#
# Indices 1 2 3 4 5 6 
#
# 1 0.015417 -0.003397 0.000953 0.000000 0.000000 0.000000
# 2 -0.003397 0.007938 -0.000771 0.000000 0.000000 0.000000
# 3 0.000953 -0.000771 0.018733 0.000000 0.000000 0.000000
# 4 0.000000 0.000000 0.000000 0.028950 0.000000 0.000000
# 5 0.000000 0.000000 0.000000 0.000000 0.114302 0.000000
# 6 0.000000 0.000000 0.000000 0.000000 0.000000 0.023941
#
#
# Mechanical properties :
#
#
# Convention : Reuss Voigt Hill
#
# Bulk Modulus (GPa) = 28.04370 36.59125 32.31748
# Shear Modulus (GPa) = 21.96851 32.51575 27.24213
#
# Velocity S-wave (km/s) = 3.14698 3.82860 3.50440
# Velocity P-wave (km/s) = 5.08398 6.00331 5.56267
#
# Compressibility (1/GPa) = 0.03565863
#
# Stress axis : x y z
#
# Youngs Moduli (GPa) = 64.86272 125.97277 53.38088
#
# Poissons Ratio (x) = 0.42793 -0.05089
# Poissons Ratio (y) = 0.22034 0.04118
# Poissons Ratio (z) = -0.06184 0.09718
#
# Static dielectric constant tensor:
#      x y z
#    x 1.830380 0.000000 0.000000 
#    y 0.000000 1.912660 0.000000 
#    z 0.000000 0.000000 1.824940 
# 
# From -- ./inp_files/22199.got.cif
#   From: 2010.05.17/outbox.cif.g08.bks.cpg/sg70_12_cif.got.tgz:22199.got - 2010.06.03 15:57:51.
