data_PCOD9514880
_publ_section_title
;
Structure prediction by ZEFSAII (Michael W. Deem and Ramdas Pophale) SiO2 
 PCOD9514880
Probable space group: F D D D
;
_chemical_formula_sum "Si O2"
_cell_formula_units_Z 240
_cell_length_a 24.626524
_cell_length_b 21.316805
_cell_length_c 18.242091
_cell_angle_alpha 90.000000
_cell_angle_beta 90.000000
_cell_angle_gamma 90.000000
_cell_volume 9576.346382
_symmetry_space_group_name_H-M "F D D D"
_symmetry_group_IT_number 70
_space_group.IT_coordinate_system_code '2'
_symmetry_cell_setting 'orthorhombic'
loop_
_space_group_symop_operation_xyz
x,y,z
1/4-x,1/4-y,z
x,1/4-y,1/4-z
1/4-x,y,1/4-z
-x,-y,-z
3/4+x,3/4+y,-z
-x,3/4+y,3/4+z
3/4+x,-y,3/4+z
x,1/2+y,1/2+z
1/4-x,3/4-y,1/2+z
x,3/4-y,3/4-z
1/4-x,1/2+y,3/4-z
-x,1/2-y,1/2-z
3/4+x,1/4+y,1/2-z
-x,1/4+y,1/4+z
3/4+x,1/2-y,1/4+z
1/2+x,y,1/2+z
3/4-x,1/4-y,1/2+z
1/2+x,1/4-y,3/4-z
3/4-x,y,3/4-z
1/2-x,-y,1/2-z
1/4+x,3/4+y,1/2-z
1/2-x,3/4+y,1/4+z
1/4+x,-y,1/4+z
1/2+x,1/2+y,z
3/4-x,3/4-y,z
1/2+x,3/4-y,1/4-z
3/4-x,1/2+y,1/4-z
1/2-x,1/2-y,-z
1/4+x,1/4+y,-z
1/2-x,1/4+y,3/4+z
1/4+x,1/2-y,3/4+z
loop_
_atom_site_type_symbol
_atom_site_label
_atom_site_fract_x
_atom_site_fract_y
_atom_site_fract_z
Si Si1 0.321827 0.214430 0.828956
Si Si2 0.195771 0.010921 0.442257
Si Si3 0.977085 0.928493 0.487296
Si Si4 0.775284 0.622068 0.206493
Si Si5 0.631457 0.272209 0.430881
Si Si6 0.320699 0.982658 0.898561
Si Si7 0.806510 0.125000 0.125000
Si Si8 0.244848 0.896135 0.613177
O O1 0.375000 0.234247 0.875000
O O2 0.258934 0.236893 0.831709
O O3 0.342802 0.237117 0.749679
O O4 0.307325 0.143419 0.856592
O O5 0.189341 0.936021 0.459107
O O6 0.158039 0.027908 0.373464
O O7 0.180263 0.042625 0.518976
O O8 0.022058 0.884409 0.448495
O O9 0.965075 0.899968 0.567173
O O10 0.935714 0.936308 0.420161
O O11 0.000000 0.000000 0.500000
O O12 0.748677 0.625000 0.125000
O O13 0.817080 0.564088 0.207659
O O14 0.741315 0.620845 0.281872
O O15 0.593463 0.314738 0.380391
O O16 0.375000 0.017998 0.875000
O O17 0.271704 0.031759 0.898257
#
# Coordination Sequence:
#
# PCOD9514880 Si02
#       8
#    32  32  32  32  32  32  16  32
#     4  12  23  38  65  99 130 169 218 285 356 407
#     4  10  23  39  58 101 136 163 229 286 331 420
#     4  10  23  36  60 100 132 176 229 292 341 416
#     4   9  18  37  59  90 121 161 212 274 340 400
#     4  11  21  36  67  95 124 173 222 284 337 404
#     4  10  22  39  61  91 134 181 219 270 349 415
#     4  12  20  36  67  92 129 170 236 278 346 400
#     4  10  20  36  63  93 127 160 229 282 330 416
#
# _framework density 25.061751000000001
#
# number of rings (size 3 to 8) (size 9 to 14) (size 15 to 20)
#    0.000    1.600    4.667    1.200    5.600    0.533 
#    0.000    0.333    0.000    3.600    0.000    0.000 
#    0.000    0.000    0.000    0.000    0.000    0.000 
#
# Total GULP energy -334171.764831 kJ/mol
# GULP energy per Si atom -5569.529414 kJ/mol
# Density = 2.500471 g / cm^3
# Si number density = 25.061751 Si / 1000 Ang^3
#
#
#
# Elastic Constant Matrix: (Units=GPa)
#
#
# Indices 1 2 3 4 5 6 
#
# 1 85.9473 20.8935 53.2829 0.0000 0.0000 0.0000
# 2 20.8935 42.4211 32.0322 0.0000 0.0000 0.0000
# 3 53.2829 32.0322 222.2581 0.0000 0.0000 0.0000
# 4 0.0000 0.0000 0.0000 24.1126 0.0000 0.0000
# 5 0.0000 0.0000 0.0000 0.0000 42.7311 0.0000
# 6 0.0000 0.0000 0.0000 0.0000 0.0000 28.5840
#
#
#
# Elastic Compliance Matrix: (Units=1/GPa)
#
#
# Indices 1 2 3 4 5 6 
#
# 1 0.014587 -0.005099 -0.002762 0.000000 0.000000 0.000000
# 2 -0.005099 0.028234 -0.002847 0.000000 0.000000 0.000000
# 3 -0.002762 -0.002847 0.005572 0.000000 0.000000 0.000000
# 4 0.000000 0.000000 0.000000 0.041472 0.000000 0.000000
# 5 0.000000 0.000000 0.000000 0.000000 0.023402 0.000000
# 6 0.000000 0.000000 0.000000 0.000000 0.000000 0.034985
#
#
# Mechanical properties :
#
#
# Convention : Reuss Voigt Hill
#
# Bulk Modulus (GPa) = 37.06817 62.56042 49.81429
# Shear Modulus (GPa) = 27.98621 35.38006 31.68314
#
# Velocity S-wave (km/s) = 3.34532 3.76136 3.55942
# Velocity P-wave (km/s) = 5.45384 6.62423 6.06732
#
# Compressibility (1/GPa) = 0.02697732
#
# Stress axis : x y z
#
# Youngs Moduli (GPa) = 68.55461 35.41825 179.47718
#
# Poissons Ratio (x) = 0.18059 0.49574
# Poissons Ratio (y) = 0.34954 0.51094
# Poissons Ratio (z) = 0.18936 0.10083
#
# Static dielectric constant tensor:
#      x y z
#    x 1.971860 0.000000 0.000000 
#    y 0.000000 2.133930 0.000000 
#    z 0.000000 0.000000 2.043690 
# 
# From -- ./inp_files/39000.got.cif
#   From: 2010.05.17/outbox.cif.g08.bks.cpg/sg70_20_cif.got.tgz:39000.got - 2010.06.03 15:57:51.
