data_PCOD9514926
_publ_section_title
;
Structure prediction by ZEFSAII (Michael W. Deem and Ramdas Pophale) SiO2 
 PCOD9514926
Probable space group: F D D D
;
_chemical_formula_sum "Si O2"
_cell_formula_units_Z 160
_cell_length_a 36.341665
_cell_length_b 9.223422
_cell_length_c 25.883974
_cell_angle_alpha 90.000000
_cell_angle_beta 90.000000
_cell_angle_gamma 90.000000
_cell_volume 8676.166046
_symmetry_space_group_name_H-M "F D D D"
_symmetry_group_IT_number 70
_space_group.IT_coordinate_system_code '2'
_symmetry_cell_setting 'orthorhombic'
loop_
_space_group_symop_operation_xyz
x,y,z
1/4-x,1/4-y,z
x,1/4-y,1/4-z
1/4-x,y,1/4-z
-x,-y,-z
3/4+x,3/4+y,-z
-x,3/4+y,3/4+z
3/4+x,-y,3/4+z
x,1/2+y,1/2+z
1/4-x,3/4-y,1/2+z
x,3/4-y,3/4-z
1/4-x,1/2+y,3/4-z
-x,1/2-y,1/2-z
3/4+x,1/4+y,1/2-z
-x,1/4+y,1/4+z
3/4+x,1/2-y,1/4+z
1/2+x,y,1/2+z
3/4-x,1/4-y,1/2+z
1/2+x,1/4-y,3/4-z
3/4-x,y,3/4-z
1/2-x,-y,1/2-z
1/4+x,3/4+y,1/2-z
1/2-x,3/4+y,1/4+z
1/4+x,-y,1/4+z
1/2+x,1/2+y,z
3/4-x,3/4-y,z
1/2+x,3/4-y,1/4-z
3/4-x,1/2+y,1/4-z
1/2-x,1/2-y,-z
1/4+x,1/4+y,-z
1/2-x,1/4+y,3/4+z
1/4+x,1/2-y,3/4+z
loop_
_atom_site_type_symbol
_atom_site_label
_atom_site_fract_x
_atom_site_fract_y
_atom_site_fract_z
Si Si1 0.149946 0.875000 0.375000
Si Si2 0.026031 0.125000 0.125000
Si Si3 0.285906 0.418047 0.585671
Si Si4 0.875000 0.875000 0.052543
Si Si5 0.982265 0.729528 0.475379
Si Si6 0.445827 0.818496 0.265438
Si Si7 0.737846 0.875000 0.375000
O O1 0.177985 0.764760 0.345513
O O2 0.126934 0.769649 0.412234
O O3 0.050332 0.127955 0.175992
O O4 0.997569 0.258161 0.118151
O O5 0.274653 0.422832 0.525734
O O6 0.287517 0.255552 0.605313
O O7 0.839671 0.864069 0.015874
O O8 0.951362 0.604408 0.479044
O O9 0.987258 0.817838 0.422739
O O10 0.019816 0.639131 0.485091
#
# Coordination Sequence:
#
# PCOD9514926 Si02
#       7
#    16  16  32  16  32  32  16
#     4  11  24  41  60  89 126 167 203 258 316 376
#     4   9  18  37  64  88 120 162 207 266 305 354
#     4  10  20  37  62  91 125 159 211 261 306 367
#     4  12  24  39  64  90 126 169 204 252 322 392
#     4  10  20  37  60  92 126 162 207 264 307 366
#     4  10  20  38  61  90 123 165 209 257 314 370
#     4  12  20  31  62 103 123 158 204 270 320 356
#
# _framework density 18.441324000000002
#
# number of rings (size 3 to 8) (size 9 to 14) (size 15 to 20)
#    0.000    1.600    4.000    1.800    0.000    3.600 
#    0.000    0.000    0.000    0.000    0.000    5.600 
#    0.000    0.000    0.000    0.000    0.000    0.000 
#
# Total GULP energy -223236.102386 kJ/mol
# GULP energy per Si atom -5580.902560 kJ/mol
# Density = 1.839935 g / cm^3
# Si number density = 18.441324 Si / 1000 Ang^3
#
#
#
# Elastic Constant Matrix: (Units=GPa)
#
#
# Indices 1 2 3 4 5 6 
#
# 1 90.2918 43.8489 56.5879 0.0000 0.0000 0.0000
# 2 43.8489 137.1917 68.3101 0.0000 0.0000 0.0000
# 3 56.5879 68.3101 155.7413 0.0000 0.0000 0.0000
# 4 0.0000 0.0000 0.0000 37.1346 0.0000 0.0000
# 5 0.0000 0.0000 0.0000 0.0000 10.3284 0.0000
# 6 0.0000 0.0000 0.0000 0.0000 0.0000 22.3595
#
#
#
# Elastic Compliance Matrix: (Units=1/GPa)
#
#
# Indices 1 2 3 4 5 6 
#
# 1 0.015071 -0.002674 -0.004303 0.000000 0.000000 0.000000
# 2 -0.002674 0.009800 -0.003327 0.000000 0.000000 0.000000
# 3 -0.004303 -0.003327 0.009444 0.000000 0.000000 0.000000
# 4 0.000000 0.000000 0.000000 0.026929 0.000000 0.000000
# 5 0.000000 0.000000 0.000000 0.000000 0.096821 0.000000
# 6 0.000000 0.000000 0.000000 0.000000 0.000000 0.044724
#
#
# Mechanical properties :
#
#
# Convention : Reuss Voigt Hill
#
# Bulk Modulus (GPa) = 72.95861 80.07986 76.51923
# Shear Modulus (GPa) = 21.93318 28.26301 25.09809
#
# Velocity S-wave (km/s) = 3.45244 3.91908 3.69314
# Velocity P-wave (km/s) = 7.45257 7.99983 7.73105
#
# Compressibility (1/GPa) = 0.01370640
#
# Stress axis : x y z
#
# Youngs Moduli (GPa) = 66.35402 102.03722 105.89290
#
# Poissons Ratio (x) = 0.27289 0.45564
# Poissons Ratio (y) = 0.17746 0.35229
# Poissons Ratio (z) = 0.28551 0.33946
#
# Static dielectric constant tensor:
#      x y z
#    x 1.617870 0.000000 0.000000 
#    y 0.000000 1.677060 0.000000 
#    z 0.000000 0.000000 1.659390 
# 
# From -- ./inp_files/68875.got.cif
#   From: 2010.05.17/outbox.cif.g08.bks.cpg/sg70_35_cif.got.tgz:68875.got - 2010.06.03 15:57:51.
