data_PCOD9514883
_publ_section_title
;
Structure prediction by ZEFSAII (Michael W. Deem and Ramdas Pophale) SiO2 
 PCOD9514883
Probable space group: F D D D
;
_chemical_formula_sum "Si O2"
_cell_formula_units_Z 136
_cell_length_a 21.291950
_cell_length_b 24.462636
_cell_length_c 12.189750
_cell_angle_alpha 90.000000
_cell_angle_beta 90.000000
_cell_angle_gamma 90.000000
_cell_volume 6349.119329
_symmetry_space_group_name_H-M "F D D D"
_symmetry_group_IT_number 70
_space_group.IT_coordinate_system_code '2'
_symmetry_cell_setting 'orthorhombic'
loop_
_space_group_symop_operation_xyz
x,y,z
1/4-x,1/4-y,z
x,1/4-y,1/4-z
1/4-x,y,1/4-z
-x,-y,-z
3/4+x,3/4+y,-z
-x,3/4+y,3/4+z
3/4+x,-y,3/4+z
x,1/2+y,1/2+z
1/4-x,3/4-y,1/2+z
x,3/4-y,3/4-z
1/4-x,1/2+y,3/4-z
-x,1/2-y,1/2-z
3/4+x,1/4+y,1/2-z
-x,1/4+y,1/4+z
3/4+x,1/2-y,1/4+z
1/2+x,y,1/2+z
3/4-x,1/4-y,1/2+z
1/2+x,1/4-y,3/4-z
3/4-x,y,3/4-z
1/2-x,-y,1/2-z
1/4+x,3/4+y,1/2-z
1/2-x,3/4+y,1/4+z
1/4+x,-y,1/4+z
1/2+x,1/2+y,z
3/4-x,3/4-y,z
1/2+x,3/4-y,1/4-z
3/4-x,1/2+y,1/4-z
1/2-x,1/2-y,-z
1/4+x,1/4+y,-z
1/2-x,1/4+y,3/4+z
1/4+x,1/2-y,3/4+z
loop_
_atom_site_type_symbol
_atom_site_label
_atom_site_fract_x
_atom_site_fract_y
_atom_site_fract_z
Si Si1 0.195424 0.321987 0.525497
Si Si2 0.028998 0.308969 0.972505
Si Si3 0.625000 0.125000 0.625000
Si Si4 0.305657 0.442508 0.057095
Si Si5 0.861358 0.284935 0.754389
O O1 0.231861 0.313230 0.409795
O O2 0.186364 0.387404 0.518396
O O3 0.236737 0.310821 0.634607
O O4 0.361144 0.221916 0.488847
O O5 0.067532 0.253873 0.985446
O O6 0.961066 0.296044 0.022749
O O7 0.672806 0.155205 0.708141
O O8 0.349153 0.435048 0.162394
O O9 0.875000 0.307164 0.875000
#
# Coordination Sequence:
#
# PCOD9514883 Si02
#       5
#    32  32   8  32  32
#     4  10  20  36  64 100 124 148 209 273 320 384
#     4  10  20  37  64  95 125 155 200 273 335 362
#     4  12  28  44  54  76 132 192 208 234 316 392
#     4  11  22  42  58  87 128 164 214 258 303 395
#     4  11  18  37  69  97 121 152 204 278 330 352
#
# _framework density 21.420293000000001
#
# number of rings (size 3 to 8) (size 9 to 14) (size 15 to 20)
#    0.000    1.412    4.706    2.824    0.000    0.000 
#    2.118    9.412    0.000    0.000    0.000    0.000 
#    0.000    0.000    0.000    0.000    0.000    0.000 
#
# Total GULP energy -189338.781169 kJ/mol
# GULP energy per Si atom -5568.787681 kJ/mol
# Density = 2.137154 g / cm^3
# Si number density = 21.420293 Si / 1000 Ang^3
#
#
#
# Elastic Constant Matrix: (Units=GPa)
#
#
# Indices 1 2 3 4 5 6 
#
# 1 59.1437 12.6830 24.3530 0.0000 0.0000 0.0000
# 2 12.6830 143.5459 51.0107 0.0000 0.0000 0.0000
# 3 24.3530 51.0107 112.3994 0.0000 0.0000 0.0000
# 4 0.0000 0.0000 0.0000 31.7943 0.0000 0.0000
# 5 0.0000 0.0000 0.0000 0.0000 21.9408 0.0000
# 6 0.0000 0.0000 0.0000 0.0000 0.0000 20.7290
#
#
#
# Elastic Compliance Matrix: (Units=1/GPa)
#
#
# Indices 1 2 3 4 5 6 
#
# 1 0.018572 -0.000252 -0.003910 0.000000 0.000000 0.000000
# 2 -0.000252 0.008309 -0.003717 0.000000 0.000000 0.000000
# 3 -0.003910 -0.003717 0.011431 0.000000 0.000000 0.000000
# 4 0.000000 0.000000 0.000000 0.031452 0.000000 0.000000
# 5 0.000000 0.000000 0.000000 0.000000 0.045577 0.000000
# 6 0.000000 0.000000 0.000000 0.000000 0.000000 0.048242
#
#
# Mechanical properties :
#
#
# Convention : Reuss Voigt Hill
#
# Bulk Modulus (GPa) = 44.33382 54.57583 49.45482
# Shear Modulus (GPa) = 26.75840 30.02896 28.39368
#
# Velocity S-wave (km/s) = 3.53825 3.74825 3.64476
# Velocity P-wave (km/s) = 6.11836 6.65330 6.39143
#
# Compressibility (1/GPa) = 0.02255615
#
# Stress axis : x y z
#
# Youngs Moduli (GPa) = 53.84519 120.34606 87.48410
#
# Poissons Ratio (x) = 0.03027 0.34204
# Poissons Ratio (y) = 0.01354 0.32514
# Poissons Ratio (z) = 0.21052 0.44728
#
# Static dielectric constant tensor:
#      x y z
#    x 1.846150 0.000000 0.000000 
#    y 0.000000 1.873900 0.000000 
#    z 0.000000 0.000000 1.767630 
# 
# From -- ./inp_files/17693.got.cif
#   From: 2010.05.17/outbox.cif.g08.bks.cpg/sg70_9_cif.got.tgz:17693.got - 2010.06.03 15:57:51.
