data_PCOD9514068
_publ_section_title
;
Structure prediction by ZEFSAII (Michael W. Deem and Ramdas Pophale) SiO2 
 PCOD9514068
Probable space group: F D D D
;
_chemical_formula_sum "Si O2"
_cell_formula_units_Z 160
_cell_length_a 19.393538
_cell_length_b 23.679321
_cell_length_c 12.844609
_cell_angle_alpha 90.000000
_cell_angle_beta 90.000000
_cell_angle_gamma 90.000000
_cell_volume 5898.575993
_symmetry_space_group_name_H-M "F D D D"
_symmetry_group_IT_number 70
_space_group.IT_coordinate_system_code '2'
_symmetry_cell_setting 'orthorhombic'
loop_
_space_group_symop_operation_xyz
x,y,z
1/4-x,1/4-y,z
x,1/4-y,1/4-z
1/4-x,y,1/4-z
-x,-y,-z
3/4+x,3/4+y,-z
-x,3/4+y,3/4+z
3/4+x,-y,3/4+z
x,1/2+y,1/2+z
1/4-x,3/4-y,1/2+z
x,3/4-y,3/4-z
1/4-x,1/2+y,3/4-z
-x,1/2-y,1/2-z
3/4+x,1/4+y,1/2-z
-x,1/4+y,1/4+z
3/4+x,1/2-y,1/4+z
1/2+x,y,1/2+z
3/4-x,1/4-y,1/2+z
1/2+x,1/4-y,3/4-z
3/4-x,y,3/4-z
1/2-x,-y,1/2-z
1/4+x,3/4+y,1/2-z
1/2-x,3/4+y,1/4+z
1/4+x,-y,1/4+z
1/2+x,1/2+y,z
3/4-x,3/4-y,z
1/2+x,3/4-y,1/4-z
3/4-x,1/2+y,1/4-z
1/2-x,1/2-y,-z
1/4+x,1/4+y,-z
1/2-x,1/4+y,3/4+z
1/4+x,1/2-y,3/4+z
loop_
_atom_site_type_symbol
_atom_site_label
_atom_site_fract_x
_atom_site_fract_y
_atom_site_fract_z
Si Si1 0.230427 0.375000 0.875000
Si Si2 0.390578 0.536284 0.653473
Si Si3 0.534697 0.074697 0.198271
Si Si4 0.375000 0.527638 0.875000
Si Si5 0.739159 0.605439 0.349720
Si Si6 0.309471 0.038817 0.824768
O O1 0.178769 0.429298 0.875925
O O2 0.273926 0.380694 0.769809
O O3 0.450816 0.578180 0.696519
O O4 0.383511 0.498693 0.759826
O O5 0.423742 0.520313 0.542197
O O6 0.557612 0.125000 0.125000
O O7 0.560270 0.074675 0.317532
O O8 0.550750 0.015350 0.146590
O O9 0.442743 0.565283 0.900918
O O10 0.751256 0.664783 0.409102
O O11 0.375000 0.070053 0.875000
#
# Coordination Sequence:
#
# PCOD9514068 Si02
#       6
#    16  32  32  16  32  32
#     4  10  16  32  62  80 107 149 188 246 290 344
#     4  10  16  31  54  83 104 141 188 236 293 336
#     4  11  22  33  52  81 116 143 188 245 291 343
#     4   8  16  28  54  80 109 135 180 244 280 330
#     4  10  18  33  52  83 109 144 188 239 294 334
#     4  12  21  34  56  79 111 154 194 232 290 357
#
# _framework density 27.12519
#
# number of rings (size 3 to 8) (size 9 to 14) (size 15 to 20)
#    0.000    1.600    6.000    1.800    0.000    0.400 
#    0.000    1.000    0.000    0.000    0.000    0.000 
#    0.000    3.200    0.000    0.000    0.200    0.000 
#
# Total GULP energy -223204.496954 kJ/mol
# GULP energy per Si atom -5580.112424 kJ/mol
# Density = 2.706345 g / cm^3
# Si number density = 27.125190 Si / 1000 Ang^3
#
#
#
# Elastic Constant Matrix: (Units=GPa)
#
#
# Indices 1 2 3 4 5 6 
#
# 1 35.0477 -5.7632 12.0396 0.0000 0.0000 0.0000
# 2 -5.7632 59.9782 42.3019 0.0000 0.0000 0.0000
# 3 12.0396 42.3019 355.2613 0.0000 0.0000 0.0000
# 4 0.0000 0.0000 0.0000 36.0523 0.0000 0.0000
# 5 0.0000 0.0000 0.0000 0.0000 4.9314 0.0000
# 6 0.0000 0.0000 0.0000 0.0000 0.0000 13.7524
#
#
#
# Elastic Compliance Matrix: (Units=1/GPa)
#
#
# Indices 1 2 3 4 5 6 
#
# 1 0.029676 0.003887 -0.001469 0.000000 0.000000 0.000000
# 2 0.003887 0.018710 -0.002360 0.000000 0.000000 0.000000
# 3 -0.001469 -0.002360 0.003146 0.000000 0.000000 0.000000
# 4 0.000000 0.000000 0.000000 0.027737 0.000000 0.000000
# 5 0.000000 0.000000 0.000000 0.000000 0.202781 0.000000
# 6 0.000000 0.000000 0.000000 0.000000 0.000000 0.072715
#
#
# Mechanical properties :
#
#
# Convention : Reuss Voigt Hill
#
# Bulk Modulus (GPa) = 19.36092 60.82708 40.09400
# Shear Modulus (GPa) = 13.44578 37.72780 25.58679
#
# Velocity S-wave (km/s) = 2.22883 3.73349 3.07463
# Velocity P-wave (km/s) = 3.71170 6.40769 5.23618
#
# Compressibility (1/GPa) = 0.05165044
#
# Stress axis : x y z
#
# Youngs Moduli (GPa) = 33.69698 53.44596 317.90762
#
# Poissons Ratio (x) = -0.20776 0.46687
# Poissons Ratio (y) = -0.13099 0.75015
# Poissons Ratio (z) = 0.04949 0.12611
#
# Static dielectric constant tensor:
#      x y z
#    x 2.278120 0.000000 0.000000 
#    y 0.000000 2.076050 0.000000 
#    z 0.000000 0.000000 2.250480 
# 
# From -- ./inp_files/21121.got.cif
#   From: 2010.05.17/outbox.cif.g08.bks.cpg/sg70_11_cif.got.tgz:21121.got - 2010.06.03 15:57:51.
