data_PCOD9514983
_publ_section_title
;
Structure prediction by ZEFSAII (Michael W. Deem and Ramdas Pophale) SiO2 
 PCOD9514983
Probable space group: F D D D
;
_chemical_formula_sum "Si O2"
_cell_formula_units_Z 80
_cell_length_a 25.517083
_cell_length_b 16.527101
_cell_length_c 8.877489
_cell_angle_alpha 90.000000
_cell_angle_beta 90.000000
_cell_angle_gamma 90.000000
_cell_volume 3743.844915
_symmetry_space_group_name_H-M "F D D D"
_symmetry_group_IT_number 70
_space_group.IT_coordinate_system_code '2'
_symmetry_cell_setting 'orthorhombic'
loop_
_space_group_symop_operation_xyz
x,y,z
1/4-x,1/4-y,z
x,1/4-y,1/4-z
1/4-x,y,1/4-z
-x,-y,-z
3/4+x,3/4+y,-z
-x,3/4+y,3/4+z
3/4+x,-y,3/4+z
x,1/2+y,1/2+z
1/4-x,3/4-y,1/2+z
x,3/4-y,3/4-z
1/4-x,1/2+y,3/4-z
-x,1/2-y,1/2-z
3/4+x,1/4+y,1/2-z
-x,1/4+y,1/4+z
3/4+x,1/2-y,1/4+z
1/2+x,y,1/2+z
3/4-x,1/4-y,1/2+z
1/2+x,1/4-y,3/4-z
3/4-x,y,3/4-z
1/2-x,-y,1/2-z
1/4+x,3/4+y,1/2-z
1/2-x,3/4+y,1/4+z
1/4+x,-y,1/4+z
1/2+x,1/2+y,z
3/4-x,3/4-y,z
1/2+x,3/4-y,1/4-z
3/4-x,1/2+y,1/4-z
1/2-x,1/2-y,-z
1/4+x,1/4+y,-z
1/2-x,1/4+y,3/4+z
1/4+x,1/2-y,3/4+z
loop_
_atom_site_type_symbol
_atom_site_label
_atom_site_fract_x
_atom_site_fract_y
_atom_site_fract_z
Si Si1 0.641628 0.708371 0.372486
Si Si2 0.551985 0.258021 0.651459
Si Si3 0.625000 0.908794 0.125000
O O1 0.625000 0.625000 0.452054
O O2 0.595057 0.713395 0.251779
O O3 0.693643 0.720590 0.267889
O O4 0.635650 0.783658 0.483596
O O5 0.500000 0.250000 0.750000
O O6 0.574974 0.349381 0.642795
#
# Coordination Sequence:
#
# PCOD9514983 Si02
#       3
#    32  32  16
#     4  10  21  38  60  88 124 161 202 261 318 369
#     4  10  20  38  62  85 115 165 211 248 306 384
#     4  10  21  40  61  88 126 162 204 270 321 364
#
# _framework density 21.368406
#
# number of rings (size 3 to 8) (size 9 to 14) (size 15 to 20)
#    0.000    2.400    0.000    7.800    0.000    6.400 
#    0.000   12.000    0.000    0.000    0.000    0.000 
#    0.000    0.000    0.000    0.000    0.000    0.000 
#
# Total GULP energy -111336.059243 kJ/mol
# GULP energy per Si atom -5566.802962 kJ/mol
# Density = 2.131977 g / cm^3
# Si number density = 21.368406 Si / 1000 Ang^3
#
#
#
# Elastic Constant Matrix: (Units=GPa)
#
#
# Indices 1 2 3 4 5 6 
#
# 1 115.8635 35.6537 46.3680 0.0000 0.0000 0.0000
# 2 35.6537 171.9077 55.2255 0.0000 0.0000 0.0000
# 3 46.3680 55.2255 122.8206 0.0000 0.0000 0.0000
# 4 0.0000 0.0000 0.0000 36.6580 0.0000 0.0000
# 5 0.0000 0.0000 0.0000 0.0000 31.9820 0.0000
# 6 0.0000 0.0000 0.0000 0.0000 0.0000 0.3335
#
#
#
# Elastic Compliance Matrix: (Units=1/GPa)
#
#
# Indices 1 2 3 4 5 6 
#
# 1 0.010323 -0.001039 -0.003430 0.000000 0.000000 0.000000
# 2 -0.001039 0.006904 -0.002712 0.000000 0.000000 0.000000
# 3 -0.003430 -0.002712 0.010656 0.000000 0.000000 0.000000
# 4 0.000000 0.000000 0.000000 0.027279 0.000000 0.000000
# 5 0.000000 0.000000 0.000000 0.000000 0.031268 0.000000
# 6 0.000000 0.000000 0.000000 0.000000 0.000000 2.998216
#
#
# Mechanical properties :
#
#
# Convention : Reuss Voigt Hill
#
# Bulk Modulus (GPa) = 73.95850 76.12067 75.03959
# Shear Modulus (GPa) = 1.61108 32.01769 16.81438
#
# Velocity S-wave (km/s) = 0.86925 3.87507 2.80818
# Velocity P-wave (km/s) = 5.97442 7.46471 6.76076
#
# Compressibility (1/GPa) = 0.01352110
#
# Stress axis : x y z
#
# Youngs Moduli (GPa) = 96.86821 144.84750 93.84105
#
# Poissons Ratio (x) = 0.15052 0.32188
# Poissons Ratio (y) = 0.10066 0.25449
# Poissons Ratio (z) = 0.33227 0.39282
#
# Static dielectric constant tensor:
#      x y z
#    x 1.822110 0.000000 0.000000 
#    y 0.000000 1.944660 0.000000 
#    z 0.000000 0.000000 1.897790 
# 
# From -- ./inp_files/6848.got.cif
#   From: 2010.05.17/outbox.cif.g08.bks.cpg/sg70_4_cif.got.tgz:6848.got - 2010.06.03 15:57:51.
