data_PCOD9514988
_publ_section_title
;
Structure prediction by ZEFSAII (Michael W. Deem and Ramdas Pophale) SiO2 
 PCOD9514988
Probable space group: F D D D
;
_chemical_formula_sum "Si O2"
_cell_formula_units_Z 128
_cell_length_a 11.136183
_cell_length_b 19.054403
_cell_length_c 25.141032
_cell_angle_alpha 90.000000
_cell_angle_beta 90.000000
_cell_angle_gamma 90.000000
_cell_volume 5334.759017
_symmetry_space_group_name_H-M "F D D D"
_symmetry_group_IT_number 70
_space_group.IT_coordinate_system_code '2'
_symmetry_cell_setting 'orthorhombic'
loop_
_space_group_symop_operation_xyz
x,y,z
1/4-x,1/4-y,z
x,1/4-y,1/4-z
1/4-x,y,1/4-z
-x,-y,-z
3/4+x,3/4+y,-z
-x,3/4+y,3/4+z
3/4+x,-y,3/4+z
x,1/2+y,1/2+z
1/4-x,3/4-y,1/2+z
x,3/4-y,3/4-z
1/4-x,1/2+y,3/4-z
-x,1/2-y,1/2-z
3/4+x,1/4+y,1/2-z
-x,1/4+y,1/4+z
3/4+x,1/2-y,1/4+z
1/2+x,y,1/2+z
3/4-x,1/4-y,1/2+z
1/2+x,1/4-y,3/4-z
3/4-x,y,3/4-z
1/2-x,-y,1/2-z
1/4+x,3/4+y,1/2-z
1/2-x,3/4+y,1/4+z
1/4+x,-y,1/4+z
1/2+x,1/2+y,z
3/4-x,3/4-y,z
1/2+x,3/4-y,1/4-z
3/4-x,1/2+y,1/4-z
1/2-x,1/2-y,-z
1/4+x,1/4+y,-z
1/2-x,1/4+y,3/4+z
1/4+x,1/2-y,3/4+z
loop_
_atom_site_type_symbol
_atom_site_label
_atom_site_fract_x
_atom_site_fract_y
_atom_site_fract_z
Si Si1 0.674129 0.401234 0.701794
Si Si2 0.589794 0.698616 0.959569
Si Si3 0.875000 0.991369 0.375000
Si Si4 0.125000 0.125000 0.539149
Si Si5 0.179108 0.005542 0.178456
O O1 0.551778 0.441260 0.717452
O O2 0.715802 0.452269 0.652986
O O3 0.767627 0.397069 0.749696
O O4 0.633367 0.322415 0.685576
O O5 0.625000 0.625000 0.933963
O O6 0.675798 0.752193 0.928034
O O7 0.643454 0.704057 0.018635
O O8 0.836271 0.937408 0.421162
O O9 0.125000 0.035697 0.125000
#
# Coordination Sequence:
#
# PCOD9514988 Si02
#       5
#    32  32  16  16  32
#     4  11  22  42  63  94 131 175 219 283 339 405
#     4   9  21  38  60  90 131 167 216 276 327 396
#     4  11  24  44  66  98 127 178 228 282 347 410
#     4  11  26  42  66  98 136 170 230 283 344 412
#     4  10  20  38  62  92 125 172 220 263 332 410
#
# _framework density 23.993586000000001
#
# number of rings (size 3 to 8) (size 9 to 14) (size 15 to 20)
#    0.000    1.750    1.250    2.250    0.000    4.500 
#    0.000    5.000    0.000    0.000    0.000    0.000 
#    0.000    0.000    0.000    0.000    0.000    0.000 
#
# Total GULP energy -178300.791588 kJ/mol
# GULP energy per Si atom -5571.899737 kJ/mol
# Density = 2.393898 g / cm^3
# Si number density = 23.993586 Si / 1000 Ang^3
#
#
#
# Elastic Constant Matrix: (Units=GPa)
#
#
# Indices 1 2 3 4 5 6 
#
# 1 178.4535 15.2918 63.7396 0.0000 0.0000 0.0000
# 2 15.2918 107.6255 24.4831 0.0000 0.0000 0.0000
# 3 63.7396 24.4831 119.5013 0.0000 0.0000 0.0000
# 4 0.0000 0.0000 0.0000 43.6846 0.0000 0.0000
# 5 0.0000 0.0000 0.0000 0.0000 27.2538 0.0000
# 6 0.0000 0.0000 0.0000 0.0000 0.0000 12.1518
#
#
#
# Elastic Compliance Matrix: (Units=1/GPa)
#
#
# Indices 1 2 3 4 5 6 
#
# 1 0.006925 -0.000151 -0.003663 0.000000 0.000000 0.000000
# 2 -0.000151 0.009749 -0.001917 0.000000 0.000000 0.000000
# 3 -0.003663 -0.001917 0.010714 0.000000 0.000000 0.000000
# 4 0.000000 0.000000 0.000000 0.022891 0.000000 0.000000
# 5 0.000000 0.000000 0.000000 0.000000 0.036692 0.000000
# 6 0.000000 0.000000 0.000000 0.000000 0.000000 0.082292
#
#
# Mechanical properties :
#
#
# Convention : Reuss Voigt Hill
#
# Bulk Modulus (GPa) = 62.78427 68.06770 65.42598
# Shear Modulus (GPa) = 26.87682 36.75576 31.81629
#
# Velocity S-wave (km/s) = 3.35052 3.91819 3.64542
# Velocity P-wave (km/s) = 6.41809 6.99288 6.71164
#
# Compressibility (1/GPa) = 0.01592756
#
# Stress axis : x y z
#
# Youngs Moduli (GPa) = 144.40745 102.57495 93.33184
#
# Poissons Ratio (x) = 0.01546 0.34185
# Poissons Ratio (y) = 0.02176 0.17891
# Poissons Ratio (z) = 0.52892 0.19663
#
# Static dielectric constant tensor:
#      x y z
#    x 2.040830 0.000000 0.000000 
#    y 0.000000 1.987780 0.000000 
#    z 0.000000 0.000000 1.970270 
# 
# From -- ./inp_files/57362.got.cif
#   From: 2010.05.17/outbox.cif.g08.bks.cpg/sg70_29_cif.got.tgz:57362.got - 2010.06.03 15:57:51.
