data_PCOD9514429
_publ_section_title
;
Structure prediction by ZEFSAII (Michael W. Deem and Ramdas Pophale) SiO2 
 PCOD9514429
Probable space group: F D D D
;
_chemical_formula_sum "Si O2"
_cell_formula_units_Z 176
_cell_length_a 30.305008
_cell_length_b 14.033559
_cell_length_c 21.451222
_cell_angle_alpha 90.000000
_cell_angle_beta 90.000000
_cell_angle_gamma 90.000000
_cell_volume 9122.928377
_symmetry_space_group_name_H-M "F D D D"
_symmetry_group_IT_number 70
_space_group.IT_coordinate_system_code '2'
_symmetry_cell_setting 'orthorhombic'
loop_
_space_group_symop_operation_xyz
x,y,z
1/4-x,1/4-y,z
x,1/4-y,1/4-z
1/4-x,y,1/4-z
-x,-y,-z
3/4+x,3/4+y,-z
-x,3/4+y,3/4+z
3/4+x,-y,3/4+z
x,1/2+y,1/2+z
1/4-x,3/4-y,1/2+z
x,3/4-y,3/4-z
1/4-x,1/2+y,3/4-z
-x,1/2-y,1/2-z
3/4+x,1/4+y,1/2-z
-x,1/4+y,1/4+z
3/4+x,1/2-y,1/4+z
1/2+x,y,1/2+z
3/4-x,1/4-y,1/2+z
1/2+x,1/4-y,3/4-z
3/4-x,y,3/4-z
1/2-x,-y,1/2-z
1/4+x,3/4+y,1/2-z
1/2-x,3/4+y,1/4+z
1/4+x,-y,1/4+z
1/2+x,1/2+y,z
3/4-x,3/4-y,z
1/2+x,3/4-y,1/4-z
3/4-x,1/2+y,1/4-z
1/2-x,1/2-y,-z
1/4+x,1/4+y,-z
1/2-x,1/4+y,3/4+z
1/4+x,1/2-y,3/4+z
loop_
_atom_site_type_symbol
_atom_site_label
_atom_site_fract_x
_atom_site_fract_y
_atom_site_fract_z
Si Si1 0.790880 0.375000 0.875000
Si Si2 0.749894 0.366331 0.301213
Si Si3 0.878063 0.014896 0.135685
Si Si4 0.809238 0.310302 0.741576
Si Si5 0.778445 0.291914 0.102943
Si Si6 0.448918 0.810523 0.202375
O O1 0.816292 0.333934 0.814236
O O2 0.759128 0.287056 0.895163
O O3 0.754782 0.375000 0.375000
O O4 0.726044 0.273065 0.274259
O O5 0.796104 0.382102 0.266027
O O6 0.718552 0.456037 0.285769
O O7 0.890248 0.125000 0.125000
O O8 0.898428 0.973408 0.200381
O O9 0.825871 0.004349 0.131224
O O10 0.903172 0.957299 0.081810
O O11 0.787501 0.404490 0.711618
O O12 0.772133 0.377454 0.153127
#
# Coordination Sequence:
#
# PCOD9514429 Si02
#       6
#    16  32  32  32  32  32
#     4  12  24  38  59  90 122 160 200 248 304 363
#     4  11  18  32  58  87 117 142 193 249 300 350
#     4  11  20  39  63  86 117 157 208 246 300 364
#     4  11  21  38  57  89 122 153 198 254 299 364
#     4  11  22  38  60  86 120 157 200 249 298 366
#     4  10  19  32  56  87 111 149 192 244 297 345
#
# _framework density 19.292051000000001
#
# number of rings (size 3 to 8) (size 9 to 14) (size 15 to 20)
#    0.000    1.091    8.182    2.727    0.000    0.000 
#    0.000    1.818    0.000    2.182    4.727    0.000 
#    0.000    0.000    0.000    0.000    0.000    0.000 
#
# Total GULP energy -245217.013562 kJ/mol
# GULP energy per Si atom -5573.113945 kJ/mol
# Density = 1.924814 g / cm^3
# Si number density = 19.292051 Si / 1000 Ang^3
#
#
#
# Elastic Constant Matrix: (Units=GPa)
#
#
# Indices 1 2 3 4 5 6 
#
# 1 44.5071 9.1586 7.4752 0.0000 0.0000 0.0000
# 2 9.1586 101.1538 7.0231 0.0000 0.0000 0.0000
# 3 7.4752 7.0231 85.8707 0.0000 0.0000 0.0000
# 4 0.0000 0.0000 0.0000 27.8588 0.0000 0.0000
# 5 0.0000 0.0000 0.0000 0.0000 -3.7798 0.0000
# 6 0.0000 0.0000 0.0000 0.0000 0.0000 19.7785
#
#
#
# Elastic Compliance Matrix: (Units=1/GPa)
#
#
# Indices 1 2 3 4 5 6 
#
# 1 0.023186 -0.001970 -0.001857 0.000000 0.000000 0.000000
# 2 -0.001970 0.010110 -0.000655 0.000000 0.000000 0.000000
# 3 -0.001857 -0.000655 0.011861 0.000000 0.000000 0.000000
# 4 0.000000 0.000000 0.000000 0.035895 0.000000 0.000000
# 5 0.000000 0.000000 0.000000 0.000000 -0.264561 0.000000
# 6 0.000000 0.000000 0.000000 0.000000 0.000000 0.050560
#
#
# Mechanical properties :
#
#
# Convention : Reuss Voigt Hill
#
# Bulk Modulus (GPa) = 27.63156 30.98281 29.30719
# Shear Modulus (GPa) = -44.67468 22.62980 -11.02244
#
# Velocity S-wave (km/s) = -4.81740 3.42864 -2.39288
# Velocity P-wave (km/s) = 4.07299 5.63639 2.75496
#
# Compressibility (1/GPa) = 0.03619050
#
# Stress axis : x y z
#
# Youngs Moduli (GPa) = 43.13008 98.91367 84.31215
#
# Poissons Ratio (x) = 0.19489 0.15659
# Poissons Ratio (y) = 0.08498 0.05525
# Poissons Ratio (z) = 0.08010 0.06482
#
# Static dielectric constant tensor:
#      x y z
#    x 1.681680 0.000000 0.000000 
#    y 0.000000 1.705930 0.000000 
#    z 0.000000 0.000000 1.728140 
# 
# From -- ./inp_files/55082.got.cif
#   From: 2010.05.17/outbox.cif.g08.bks.cpg/sg70_28_cif.got.tgz:55082.got - 2010.06.03 15:57:51.
