data_PCOD9514114
_publ_section_title
;
Structure prediction by ZEFSAII (Michael W. Deem and Ramdas Pophale) SiO2 
 PCOD9514114
Probable space group: F D D D
;
_chemical_formula_sum "Si O2"
_cell_formula_units_Z 128
_cell_length_a 21.226945
_cell_length_b 18.677851
_cell_length_c 20.218619
_cell_angle_alpha 90.000000
_cell_angle_beta 90.000000
_cell_angle_gamma 90.000000
_cell_volume 8016.151005
_symmetry_space_group_name_H-M "F D D D"
_symmetry_group_IT_number 70
_space_group.IT_coordinate_system_code '2'
_symmetry_cell_setting 'orthorhombic'
loop_
_space_group_symop_operation_xyz
x,y,z
1/4-x,1/4-y,z
x,1/4-y,1/4-z
1/4-x,y,1/4-z
-x,-y,-z
3/4+x,3/4+y,-z
-x,3/4+y,3/4+z
3/4+x,-y,3/4+z
x,1/2+y,1/2+z
1/4-x,3/4-y,1/2+z
x,3/4-y,3/4-z
1/4-x,1/2+y,3/4-z
-x,1/2-y,1/2-z
3/4+x,1/4+y,1/2-z
-x,1/4+y,1/4+z
3/4+x,1/2-y,1/4+z
1/2+x,y,1/2+z
3/4-x,1/4-y,1/2+z
1/2+x,1/4-y,3/4-z
3/4-x,y,3/4-z
1/2-x,-y,1/2-z
1/4+x,3/4+y,1/2-z
1/2-x,3/4+y,1/4+z
1/4+x,-y,1/4+z
1/2+x,1/2+y,z
3/4-x,3/4-y,z
1/2+x,3/4-y,1/4-z
3/4-x,1/2+y,1/4-z
1/2-x,1/2-y,-z
1/4+x,1/4+y,-z
1/2-x,1/4+y,3/4+z
1/4+x,1/2-y,3/4+z
loop_
_atom_site_type_symbol
_atom_site_label
_atom_site_fract_x
_atom_site_fract_y
_atom_site_fract_z
Si Si1 0.213713 0.808404 0.545200
Si Si2 0.089254 0.556652 0.379392
Si Si3 0.033315 0.823066 0.938496
Si Si4 0.643463 0.043325 0.526296
O O1 0.250000 0.750000 0.500000
O O2 0.267169 0.825923 0.599036
O O3 0.198939 0.876791 0.500092
O O4 0.150759 0.764996 0.560867
O O5 0.125000 0.625000 0.350171
O O6 0.082213 0.487725 0.333204
O O7 0.126966 0.538691 0.447675
O O8 0.024183 0.875000 0.875000
O O9 0.966571 0.787412 0.957132
O O10 0.625000 0.125000 0.544799
#
# Coordination Sequence:
#
# PCOD9514114 Si02
#       4
#    32  32  32  32
#     4  10  17  30  42  71 103 129 154 197 240 309
#     4  10  19  33  43  66 109 126 160 207 240 290
#     4  12  19  28  52  72  96 143 159 187 266 301
#     4  10  17  29  43  71 105 122 151 202 235 316
#
# _framework density 15.967763
#
# number of rings (size 3 to 8) (size 9 to 14) (size 15 to 20)
#    0.000    1.500   12.500    0.000    0.000    3.500 
#    0.000    0.000    0.000    1.500    0.000    0.000 
#    0.000    0.000    0.000    0.000    0.000    0.000 
#
# Total GULP energy -178272.735618 kJ/mol
# GULP energy per Si atom -5571.022988 kJ/mol
# Density = 1.593142 g / cm^3
# Si number density = 15.967763 Si / 1000 Ang^3
#
#
#
# Elastic Constant Matrix: (Units=GPa)
#
#
# Indices 1 2 3 4 5 6 
#
# 1 73.5614 61.1309 16.6217 0.0000 0.0000 0.0000
# 2 61.1309 118.3812 42.9760 0.0000 0.0000 0.0000
# 3 16.6217 42.9760 42.6107 0.0000 0.0000 0.0000
# 4 0.0000 0.0000 0.0000 9.2186 0.0000 0.0000
# 5 0.0000 0.0000 0.0000 0.0000 19.8975 0.0000
# 6 0.0000 0.0000 0.0000 0.0000 0.0000 41.3869
#
#
#
# Elastic Compliance Matrix: (Units=1/GPa)
#
#
# Indices 1 2 3 4 5 6 
#
# 1 0.024483 -0.014476 0.005050 0.000000 0.000000 0.000000
# 2 -0.014476 0.021886 -0.016427 0.000000 0.000000 0.000000
# 3 0.005050 -0.016427 0.038066 0.000000 0.000000 0.000000
# 4 0.000000 0.000000 0.000000 0.108476 0.000000 0.000000
# 5 0.000000 0.000000 0.000000 0.000000 0.050258 0.000000
# 6 0.000000 0.000000 0.000000 0.000000 0.000000 0.024162
#
#
# Mechanical properties :
#
#
# Convention : Reuss Voigt Hill
#
# Bulk Modulus (GPa) = 30.55412 52.89005 41.72209
# Shear Modulus (GPa) = 15.15399 21.68892 18.42146
#
# Velocity S-wave (km/s) = 3.08399 3.68950 3.40025
# Velocity P-wave (km/s) = 5.64426 7.16553 6.44990
#
# Compressibility (1/GPa) = 0.03272881
#
# Stress axis : x y z
#
# Youngs Moduli (GPa) = 40.84507 45.69167 26.27018
#
# Poissons Ratio (x) = 0.66142 -0.13265
# Poissons Ratio (y) = 0.59127 0.43153
# Poissons Ratio (z) = -0.20625 0.75056
#
# Static dielectric constant tensor:
#      x y z
#    x 1.642350 0.000000 0.000000 
#    y 0.000000 1.550530 0.000000 
#    z 0.000000 0.000000 1.580410 
# 
# From -- ./inp_files/36123.got.cif
#   From: 2010.05.17/outbox.cif.g08.bks.cpg/sg70_19_cif.got.tgz:36123.got - 2010.06.03 15:57:51.
