data_PCOD9514032
_publ_section_title
;
Structure prediction by ZEFSAII (Michael W. Deem and Ramdas Pophale) SiO2 
 PCOD9514032
Probable space group: F D D D
;
_chemical_formula_sum "Si O2"
_cell_formula_units_Z 120
_cell_length_a 18.117589
_cell_length_b 10.108292
_cell_length_c 25.585280
_cell_angle_alpha 90.000000
_cell_angle_beta 90.000000
_cell_angle_gamma 90.000000
_cell_volume 4685.633937
_symmetry_space_group_name_H-M "F D D D"
_symmetry_group_IT_number 70
_space_group.IT_coordinate_system_code '2'
_symmetry_cell_setting 'orthorhombic'
loop_
_space_group_symop_operation_xyz
x,y,z
1/4-x,1/4-y,z
x,1/4-y,1/4-z
1/4-x,y,1/4-z
-x,-y,-z
3/4+x,3/4+y,-z
-x,3/4+y,3/4+z
3/4+x,-y,3/4+z
x,1/2+y,1/2+z
1/4-x,3/4-y,1/2+z
x,3/4-y,3/4-z
1/4-x,1/2+y,3/4-z
-x,1/2-y,1/2-z
3/4+x,1/4+y,1/2-z
-x,1/4+y,1/4+z
3/4+x,1/2-y,1/4+z
1/2+x,y,1/2+z
3/4-x,1/4-y,1/2+z
1/2+x,1/4-y,3/4-z
3/4-x,y,3/4-z
1/2-x,-y,1/2-z
1/4+x,3/4+y,1/2-z
1/2-x,3/4+y,1/4+z
1/4+x,-y,1/4+z
1/2+x,1/2+y,z
3/4-x,3/4-y,z
1/2+x,3/4-y,1/4-z
3/4-x,1/2+y,1/4-z
1/2-x,1/2-y,-z
1/4+x,1/4+y,-z
1/2-x,1/4+y,3/4+z
1/4+x,1/2-y,3/4+z
loop_
_atom_site_type_symbol
_atom_site_label
_atom_site_fract_x
_atom_site_fract_y
_atom_site_fract_z
Si Si1 0.625000 0.625000 0.625000
Si Si2 0.741824 0.534620 0.930789
Si Si3 0.615425 0.375000 0.875000
Si Si4 0.920304 0.739744 0.518630
Si Si5 0.597371 0.480121 0.065118
O O1 0.565479 0.535597 0.655917
O O2 0.671280 0.481734 0.901660
O O3 0.759647 0.691090 0.929661
O O4 0.751159 0.491816 0.990759
O O5 0.574206 0.304249 0.922040
O O6 0.885387 0.625282 0.481333
O O7 0.875000 0.875000 0.516239
O O8 0.625000 0.625000 0.050131
O O9 0.625000 0.462917 0.125000
#
# Coordination Sequence:
#
# PCOD9514032 Si02
#       5
#     8  32  16  32  32
#     4  10  12  32  54  92 136 136 222 288 300 380
#     4   9  18  36  61  95 129 172 228 270 332 409
#     4  11  24  39  70 104 136 182 227 284 353 400
#     4  10  22  40  64  96 136 174 222 295 325 400
#     4   9  18  36  62  91 137 179 212 284 341 388
#
# _framework density 25.610195999999998
#
# number of rings (size 3 to 8) (size 9 to 14) (size 15 to 20)
#    1.600    0.800    2.667    0.000    3.733    2.667 
#    0.000    1.333    0.000    0.000    0.000    0.000 
#    0.000    0.000    0.000    0.000    0.000    0.000 
#
# Total GULP energy -167178.215575 kJ/mol
# GULP energy per Si atom -5572.607186 kJ/mol
# Density = 2.555191 g / cm^3
# Si number density = 25.610196 Si / 1000 Ang^3
#
#
#
# Elastic Constant Matrix: (Units=GPa)
#
#
# Indices 1 2 3 4 5 6 
#
# 1 61.8015 20.2225 38.1477 0.0000 0.0000 0.0000
# 2 20.2225 165.8395 69.1848 0.0000 0.0000 0.0000
# 3 38.1477 69.1848 203.4357 0.0000 0.0000 0.0000
# 4 0.0000 0.0000 0.0000 44.6645 0.0000 0.0000
# 5 0.0000 0.0000 0.0000 0.0000 6.1061 0.0000
# 6 0.0000 0.0000 0.0000 0.0000 0.0000 28.2079
#
#
#
# Elastic Compliance Matrix: (Units=1/GPa)
#
#
# Indices 1 2 3 4 5 6 
#
# 1 0.018423 -0.000938 -0.003136 0.000000 0.000000 0.000000
# 2 -0.000938 0.007075 -0.002230 0.000000 0.000000 0.000000
# 3 -0.003136 -0.002230 0.006262 0.000000 0.000000 0.000000
# 4 0.000000 0.000000 0.000000 0.022389 0.000000 0.000000
# 5 0.000000 0.000000 0.000000 0.000000 0.163772 0.000000
# 6 0.000000 0.000000 0.000000 0.000000 0.000000 0.035451
#
#
# Mechanical properties :
#
#
# Convention : Reuss Voigt Hill
#
# Bulk Modulus (GPa) = 52.21403 76.24297 64.22850
# Shear Modulus (GPa) = 18.35779 36.03048 27.19414
#
# Velocity S-wave (km/s) = 2.68025 3.75491 3.26214
# Velocity P-wave (km/s) = 5.47819 6.97383 6.27076
#
# Compressibility (1/GPa) = 0.01915194
#
# Stress axis : x y z
#
# Youngs Moduli (GPa) = 54.27890 141.34935 159.69589
#
# Poissons Ratio (x) = 0.13265 0.50073
# Poissons Ratio (y) = 0.05094 0.35612
# Poissons Ratio (z) = 0.17019 0.31521
#
# Static dielectric constant tensor:
#      x y z
#    x 2.092490 0.000000 0.000000 
#    y 0.000000 2.134980 0.000000 
#    z 0.000000 0.000000 2.078070 
# 
# From -- ./inp_files/53440.got.cif
#   From: 2010.05.17/outbox.cif.g08.bks.cpg/sg70_27_cif.got.tgz:53440.got - 2010.06.03 15:57:51.
