data_PCOD9514823
_publ_section_title
;
Structure prediction by ZEFSAII (Michael W. Deem and Ramdas Pophale) SiO2 
 PCOD9514823
Probable space group: F D D D
;
_chemical_formula_sum "Si O2"
_cell_formula_units_Z 208
_cell_length_a 21.093855
_cell_length_b 23.629616
_cell_length_c 16.161015
_cell_angle_alpha 90.000000
_cell_angle_beta 90.000000
_cell_angle_gamma 90.000000
_cell_volume 8055.291365
_symmetry_space_group_name_H-M "F D D D"
_symmetry_group_IT_number 70
_space_group.IT_coordinate_system_code '2'
_symmetry_cell_setting 'orthorhombic'
loop_
_space_group_symop_operation_xyz
x,y,z
1/4-x,1/4-y,z
x,1/4-y,1/4-z
1/4-x,y,1/4-z
-x,-y,-z
3/4+x,3/4+y,-z
-x,3/4+y,3/4+z
3/4+x,-y,3/4+z
x,1/2+y,1/2+z
1/4-x,3/4-y,1/2+z
x,3/4-y,3/4-z
1/4-x,1/2+y,3/4-z
-x,1/2-y,1/2-z
3/4+x,1/4+y,1/2-z
-x,1/4+y,1/4+z
3/4+x,1/2-y,1/4+z
1/2+x,y,1/2+z
3/4-x,1/4-y,1/2+z
1/2+x,1/4-y,3/4-z
3/4-x,y,3/4-z
1/2-x,-y,1/2-z
1/4+x,3/4+y,1/2-z
1/2-x,3/4+y,1/4+z
1/4+x,-y,1/4+z
1/2+x,1/2+y,z
3/4-x,3/4-y,z
1/2+x,3/4-y,1/4-z
3/4-x,1/2+y,1/4-z
1/2-x,1/2-y,-z
1/4+x,1/4+y,-z
1/2-x,1/4+y,3/4+z
1/4+x,1/2-y,3/4+z
loop_
_atom_site_type_symbol
_atom_site_label
_atom_site_fract_x
_atom_site_fract_y
_atom_site_fract_z
Si Si1 0.972549 0.991021 0.744608
Si Si2 0.375000 0.466646 0.875000
Si Si3 0.683852 0.395468 0.468366
Si Si4 0.864303 0.309989 0.101278
Si Si5 0.699155 0.543214 0.632392
Si Si6 0.187814 0.451067 0.247886
Si Si7 0.782652 0.808599 0.016287
O O1 0.920393 0.002563 0.814552
O O2 0.935624 0.951469 0.676656
O O3 0.027764 0.953610 0.783052
O O4 0.008135 0.043115 0.699880
O O5 0.419579 0.431283 0.938420
O O6 0.678140 0.375000 0.375000
O O7 0.613584 0.403158 0.501271
O O8 0.727532 0.353739 0.518996
O O9 0.875000 0.375000 0.068318
O O10 0.844487 0.257528 0.041818
O O11 0.929630 0.302751 0.149446
O O12 0.625000 0.561508 0.625000
O O13 0.747673 0.565468 0.703820
O O14 0.697475 0.476459 0.657242
O O15 0.750000 0.750000 0.000000
#
# Coordination Sequence:
#
# PCOD9514823 Si02
#       7
#    32  16  32  32  32  32  32
#     4  10  20  35  62  99 130 185 234 281 365 442
#     4  10  22  39  62  98 144 184 232 286 363 460
#     4  12  21  36  65  99 140 179 227 295 372 458
#     4  10  20  37  61  93 133 173 236 301 356 437
#     4  10  20  41  71  91 126 184 249 295 356 440
#     4  10  23  39  67 101 127 182 247 302 355 432
#     4  11  23  37  61  99 142 188 227 283 371 457
#
# _framework density 25.821535999999998
#
# number of rings (size 3 to 8) (size 9 to 14) (size 15 to 20)
#    0.000    1.538    4.615    0.923    0.000    0.615 
#    0.000    1.538   10.154    0.000    0.000    0.000 
#    0.000    0.000    0.000    0.000    0.000    0.000 
#
# Total GULP energy -290538.607037 kJ/mol
# GULP energy per Si atom -5587.280905 kJ/mol
# Density = 2.576276 g / cm^3
# Si number density = 25.821536 Si / 1000 Ang^3
#
#
#
# Elastic Constant Matrix: (Units=GPa)
#
#
# Indices 1 2 3 4 5 6 
#
# 1 220.3570 51.5623 41.2155 0.0000 0.0000 0.0000
# 2 51.5623 79.7767 17.8911 0.0000 0.0000 0.0000
# 3 41.2155 17.8911 81.0650 0.0000 0.0000 0.0000
# 4 0.0000 0.0000 0.0000 11.6303 0.0000 0.0000
# 5 0.0000 0.0000 0.0000 0.0000 49.5128 0.0000
# 6 0.0000 0.0000 0.0000 0.0000 0.0000 27.0283
#
#
#
# Elastic Compliance Matrix: (Units=1/GPa)
#
#
# Indices 1 2 3 4 5 6 
#
# 1 0.005694 -0.003189 -0.002191 0.000000 0.000000 0.000000
# 2 -0.003189 0.014974 -0.001683 0.000000 0.000000 0.000000
# 3 -0.002191 -0.001683 0.013821 0.000000 0.000000 0.000000
# 4 0.000000 0.000000 0.000000 0.085982 0.000000 0.000000
# 5 0.000000 0.000000 0.000000 0.000000 0.020197 0.000000
# 6 0.000000 0.000000 0.000000 0.000000 0.000000 0.036998
#
#
# Mechanical properties :
#
#
# Convention : Reuss Voigt Hill
#
# Bulk Modulus (GPa) = 49.11088 66.94851 58.02970
# Shear Modulus (GPa) = 25.17871 35.66962 30.42417
#
# Velocity S-wave (km/s) = 3.12606 3.72074 3.43629
# Velocity P-wave (km/s) = 5.66483 6.66650 6.18597
#
# Compressibility (1/GPa) = 0.02036209
#
# Stress axis : x y z
#
# Youngs Moduli (GPa) = 175.61978 66.78423 72.35167
#
# Poissons Ratio (x) = 0.21297 0.15854
# Poissons Ratio (y) = 0.56003 0.12180
# Poissons Ratio (z) = 0.38483 0.11242
#
# Static dielectric constant tensor:
#      x y z
#    x 2.033690 0.000000 0.000000 
#    y 0.000000 2.031670 0.000000 
#    z 0.000000 0.000000 2.158050 
# 
# From -- ./inp_files/36736.got.cif
#   From: 2010.05.17/outbox.cif.g08.bks.cpg/sg70_19_cif.got.tgz:36736.got - 2010.06.03 15:57:51.
