data_PCOD9514148
_publ_section_title
;
Structure prediction by ZEFSAII (Michael W. Deem and Ramdas Pophale) SiO2 
 PCOD9514148
Probable space group: F D D D
;
_chemical_formula_sum "Si O2"
_cell_formula_units_Z 192
_cell_length_a 25.004526
_cell_length_b 13.036542
_cell_length_c 24.181952
_cell_angle_alpha 90.000000
_cell_angle_beta 90.000000
_cell_angle_gamma 90.000000
_cell_volume 7882.652639
_symmetry_space_group_name_H-M "F D D D"
_symmetry_group_IT_number 70
_space_group.IT_coordinate_system_code '2'
_symmetry_cell_setting 'orthorhombic'
loop_
_space_group_symop_operation_xyz
x,y,z
1/4-x,1/4-y,z
x,1/4-y,1/4-z
1/4-x,y,1/4-z
-x,-y,-z
3/4+x,3/4+y,-z
-x,3/4+y,3/4+z
3/4+x,-y,3/4+z
x,1/2+y,1/2+z
1/4-x,3/4-y,1/2+z
x,3/4-y,3/4-z
1/4-x,1/2+y,3/4-z
-x,1/2-y,1/2-z
3/4+x,1/4+y,1/2-z
-x,1/4+y,1/4+z
3/4+x,1/2-y,1/4+z
1/2+x,y,1/2+z
3/4-x,1/4-y,1/2+z
1/2+x,1/4-y,3/4-z
3/4-x,y,3/4-z
1/2-x,-y,1/2-z
1/4+x,3/4+y,1/2-z
1/2-x,3/4+y,1/4+z
1/4+x,-y,1/4+z
1/2+x,1/2+y,z
3/4-x,3/4-y,z
1/2+x,3/4-y,1/4-z
3/4-x,1/2+y,1/4-z
1/2-x,1/2-y,-z
1/4+x,1/4+y,-z
1/2-x,1/4+y,3/4+z
1/4+x,1/2-y,3/4+z
loop_
_atom_site_type_symbol
_atom_site_label
_atom_site_fract_x
_atom_site_fract_y
_atom_site_fract_z
Si Si1 0.450532 0.160749 0.686683
Si Si2 0.658015 0.279829 0.217600
Si Si3 0.375000 0.875000 0.052093
Si Si4 0.075093 0.309304 0.065613
Si Si5 0.875000 0.375000 0.875000
Si Si6 0.091523 0.733854 0.451885
Si Si7 0.875000 0.375000 0.375000
Si Si8 0.724180 0.642692 0.882802
O O1 0.466742 0.125000 0.625000
O O2 0.451744 0.084025 0.739895
O O3 0.387955 0.189925 0.683890
O O4 0.478291 0.273481 0.682815
O O5 0.618367 0.221150 0.260834
O O6 0.628869 0.374941 0.188431
O O7 0.661044 0.196408 0.167039
O O8 0.325598 0.909778 0.090512
O O9 0.088198 0.199035 0.090150
O O10 0.028029 0.360276 0.099066
O O11 0.062089 0.283482 0.003166
O O12 0.125000 0.625000 0.462378
O O13 0.045571 0.711967 0.408732
#
# Coordination Sequence:
#
# PCOD9514148 Si02
#       8
#    32  32  16  32   8  32   8  32
#     4  10  17  34  69 100 125 167 231 296 349 401
#     4  10  22  41  67  96 135 188 228 285 355 432
#     4  11  20  40  72 100 134 172 243 302 342 417
#     4  11  25  42  65  95 139 185 226 282 373 424
#     4  10  22  44  68  92 138 192 236 266 344 448
#     4   9  18  40  62  90 132 175 214 280 349 417
#     4  12  26  46  60  88 138 182 226 296 344 426
#     4  11  21  39  68 104 134 175 231 298 356 427
#
# _framework density 24.357282999999999
#
# number of rings (size 3 to 8) (size 9 to 14) (size 15 to 20)
#    0.000    1.667    5.000    0.500    1.167    0.667 
#    9.000    0.833    0.000    0.000    0.000    0.000 
#    0.000    0.000    0.000    0.000    0.000    0.000 
#
# Total GULP energy -267349.605424 kJ/mol
# GULP energy per Si atom -5569.783446 kJ/mol
# Density = 2.430185 g / cm^3
# Si number density = 24.357283 Si / 1000 Ang^3
#
#
#
# Elastic Constant Matrix: (Units=GPa)
#
#
# Indices 1 2 3 4 5 6 
#
# 1 72.7692 5.7770 37.9194 0.0000 0.0000 0.0000
# 2 5.7770 77.8145 29.4192 0.0000 0.0000 0.0000
# 3 37.9194 29.4192 133.9320 0.0000 0.0000 0.0000
# 4 0.0000 0.0000 0.0000 169.7450 0.0000 0.0000
# 5 0.0000 0.0000 0.0000 0.0000 95.3439 0.0000
# 6 0.0000 0.0000 0.0000 0.0000 0.0000 18.1233
#
#
#
# Elastic Compliance Matrix: (Units=1/GPa)
#
#
# Indices 1 2 3 4 5 6 
#
# 1 0.016144 0.000577 -0.004698 0.000000 0.000000 0.000000
# 2 0.000577 0.014036 -0.003247 0.000000 0.000000 0.000000
# 3 -0.004698 -0.003247 0.009510 0.000000 0.000000 0.000000
# 4 0.000000 0.000000 0.000000 0.005891 0.000000 0.000000
# 5 0.000000 0.000000 0.000000 0.000000 0.010488 0.000000
# 6 0.000000 0.000000 0.000000 0.000000 0.000000 0.055178
#
#
# Mechanical properties :
#
#
# Convention : Reuss Voigt Hill
#
# Bulk Modulus (GPa) = 40.07054 47.86076 43.96565
# Shear Modulus (GPa) = 37.23049 70.73578 53.98313
#
# Velocity S-wave (km/s) = 3.91387 5.39481 4.71287
# Velocity P-wave (km/s) = 6.07547 7.64836 6.90683
#
# Compressibility (1/GPa) = 0.02495599
#
# Stress axis : x y z
#
# Youngs Moduli (GPa) = 61.94199 71.24733 105.15666
#
# Poissons Ratio (x) = -0.04114 0.49399
# Poissons Ratio (y) = -0.03577 0.34139
# Poissons Ratio (z) = 0.29098 0.23131
#
# Static dielectric constant tensor:
#      x y z
#    x 1.886560 0.000000 0.000000 
#    y 0.000000 2.072850 0.000000 
#    z 0.000000 0.000000 2.125850 
# 
# From -- ./inp_files/30072.got.cif
#   From: 2010.05.17/outbox.cif.g08.bks.cpg/sg70_16_cif.got.tgz:30072.got - 2010.06.03 15:57:51.
