data_PCOD9514524
_publ_section_title
;
Structure prediction by ZEFSAII (Michael W. Deem and Ramdas Pophale) SiO2 
 PCOD9514524
Probable space group: F D D D
;
_chemical_formula_sum "Si O2"
_cell_formula_units_Z 160
_cell_length_a 32.969173
_cell_length_b 28.703933
_cell_length_c 7.794497
_cell_angle_alpha 90.000000
_cell_angle_beta 90.000000
_cell_angle_gamma 90.000000
_cell_volume 7376.282740
_symmetry_space_group_name_H-M "F D D D"
_symmetry_group_IT_number 70
_space_group.IT_coordinate_system_code '2'
_symmetry_cell_setting 'orthorhombic'
loop_
_space_group_symop_operation_xyz
x,y,z
1/4-x,1/4-y,z
x,1/4-y,1/4-z
1/4-x,y,1/4-z
-x,-y,-z
3/4+x,3/4+y,-z
-x,3/4+y,3/4+z
3/4+x,-y,3/4+z
x,1/2+y,1/2+z
1/4-x,3/4-y,1/2+z
x,3/4-y,3/4-z
1/4-x,1/2+y,3/4-z
-x,1/2-y,1/2-z
3/4+x,1/4+y,1/2-z
-x,1/4+y,1/4+z
3/4+x,1/2-y,1/4+z
1/2+x,y,1/2+z
3/4-x,1/4-y,1/2+z
1/2+x,1/4-y,3/4-z
3/4-x,y,3/4-z
1/2-x,-y,1/2-z
1/4+x,3/4+y,1/2-z
1/2-x,3/4+y,1/4+z
1/4+x,-y,1/4+z
1/2+x,1/2+y,z
3/4-x,3/4-y,z
1/2+x,3/4-y,1/4-z
3/4-x,1/2+y,1/4-z
1/2-x,1/2-y,-z
1/4+x,1/4+y,-z
1/2-x,1/4+y,3/4+z
1/4+x,1/2-y,3/4+z
loop_
_atom_site_type_symbol
_atom_site_label
_atom_site_fract_x
_atom_site_fract_y
_atom_site_fract_z
Si Si1 0.702513 0.289112 0.862391
Si Si2 0.774056 0.201191 0.505334
Si Si3 0.866339 0.728503 0.066381
Si Si4 0.443387 0.375000 0.375000
Si Si5 0.625000 0.200814 0.125000
Si Si6 0.513503 0.065698 0.848664
O O1 0.723583 0.312087 0.695319
O O2 0.655504 0.303640 0.853694
O O3 0.709582 0.232503 0.846945
O O4 0.724249 0.302705 0.037066
O O5 0.750000 0.250000 0.500000
O O6 0.821023 0.208255 0.563433
O O7 0.750619 0.174620 0.655640
O O8 0.872257 0.766934 0.209837
O O9 0.875000 0.747227 0.875000
O O10 0.413980 0.331345 0.400307
O O11 0.466533 0.392083 0.545957
#
# Coordination Sequence:
#
# PCOD9514524 Si02
#       6
#    32  32  32  16  16  32
#     4   9  18  34  58  81 109 143 197 245 290 338
#     4   9  19  31  57  86 108 143 195 248 288 342
#     4  10  19  35  60  88 112 145 199 253 296 352
#     4  11  24  36  54  80 124 160 196 230 298 388
#     4  11  22  38  52  80 122 164 184 230 306 372
#     4  10  19  36  52  81 113 153 188 237 287 352
#
# _framework density 21.691141999999999
#
# number of rings (size 3 to 8) (size 9 to 14) (size 15 to 20)
#    0.000    2.200    2.000    1.200    5.600    0.000 
#    0.000    5.000    0.000    0.000   15.600    0.000 
#    0.000    0.000    0.000    0.000    0.000    0.000 
#
# Total GULP energy -222908.162812 kJ/mol
# GULP energy per Si atom -5572.704070 kJ/mol
# Density = 2.164177 g / cm^3
# Si number density = 21.691142 Si / 1000 Ang^3
#
#
#
# Elastic Constant Matrix: (Units=GPa)
#
#
# Indices 1 2 3 4 5 6 
#
# 1 87.5240 13.7820 7.4733 -0.0004 -0.0028 -0.0027
# 2 13.7820 51.1543 32.9296 0.0062 -0.0013 -0.0135
# 3 7.4733 32.9296 109.5286 -0.0318 0.0051 -0.0067
# 4 -0.0004 0.0062 -0.0318 23.4529 0.0019 -0.0175
# 5 -0.0028 -0.0013 0.0051 0.0019 35.1812 0.0041
# 6 -0.0027 -0.0135 -0.0067 -0.0175 0.0041 13.3852
#
#
#
# Elastic Compliance Matrix: (Units=1/GPa)
#
#
# Indices 1 2 3 4 5 6 
#
# 1 0.011935 -0.003337 0.000189 0.000001 0.000001 -0.000001
# 2 -0.003337 0.025173 -0.007341 -0.000017 0.000002 0.000021
# 3 0.000189 -0.007341 0.011324 0.000017 -0.000002 -0.000002
# 4 0.000001 -0.000017 0.000017 0.042639 -0.000002 0.000056
# 5 0.000001 0.000002 -0.000002 -0.000002 0.028424 -0.000009
# 6 -0.000001 0.000021 -0.000002 0.000056 -0.000009 0.074709
#
#
# Mechanical properties :
#
#
# Convention : Reuss Voigt Hill
#
# Bulk Modulus (GPa) = 36.42385 39.61967 38.02176
# Shear Modulus (GPa) = 22.28826 27.33866 24.81346
#
# Velocity S-wave (km/s) = 3.20899 3.55401 3.38589
# Velocity P-wave (km/s) = 5.52798 5.92843 5.73171
#
# Compressibility (1/GPa) = 0.02745454
#
# Stress axis : x y z
#
# Youngs Moduli (GPa) = 83.78866 39.72488 88.30739
#
# Poissons Ratio (x) = 0.13257 -0.01669
# Poissons Ratio (y) = 0.27961 0.64823
# Poissons Ratio (z) = -0.01583 0.29160
#
# Static dielectric constant tensor:
#      x y z
#    x 1.809770 0.000000 0.000010 
#    y 0.000000 1.851830 0.000000 
#    z 0.000010 0.000000 1.779810 
# 
# From -- ./inp_files/12392.got.cif
#   From: 2010.05.17/outbox.cif.g08.bks.cpg/sg70_7_cif.got.tgz:12392.got - 2010.06.03 15:57:51.
