data_PCOD9514512
_publ_section_title
;
Structure prediction by ZEFSAII (Michael W. Deem and Ramdas Pophale) SiO2 
 PCOD9514512
Probable space group: F D D D
;
_chemical_formula_sum "Si O2"
_cell_formula_units_Z 128
_cell_length_a 17.703434
_cell_length_b 20.763075
_cell_length_c 17.044735
_cell_angle_alpha 90.000000
_cell_angle_beta 90.000000
_cell_angle_gamma 90.000000
_cell_volume 6265.264964
_symmetry_space_group_name_H-M "F D D D"
_symmetry_group_IT_number 70
_space_group.IT_coordinate_system_code '2'
_symmetry_cell_setting 'orthorhombic'
loop_
_space_group_symop_operation_xyz
x,y,z
1/4-x,1/4-y,z
x,1/4-y,1/4-z
1/4-x,y,1/4-z
-x,-y,-z
3/4+x,3/4+y,-z
-x,3/4+y,3/4+z
3/4+x,-y,3/4+z
x,1/2+y,1/2+z
1/4-x,3/4-y,1/2+z
x,3/4-y,3/4-z
1/4-x,1/2+y,3/4-z
-x,1/2-y,1/2-z
3/4+x,1/4+y,1/2-z
-x,1/4+y,1/4+z
3/4+x,1/2-y,1/4+z
1/2+x,y,1/2+z
3/4-x,1/4-y,1/2+z
1/2+x,1/4-y,3/4-z
3/4-x,y,3/4-z
1/2-x,-y,1/2-z
1/4+x,3/4+y,1/2-z
1/2-x,3/4+y,1/4+z
1/4+x,-y,1/4+z
1/2+x,1/2+y,z
3/4-x,3/4-y,z
1/2+x,3/4-y,1/4-z
3/4-x,1/2+y,1/4-z
1/2-x,1/2-y,-z
1/4+x,1/4+y,-z
1/2-x,1/4+y,3/4+z
1/4+x,1/2-y,3/4+z
loop_
_atom_site_type_symbol
_atom_site_label
_atom_site_fract_x
_atom_site_fract_y
_atom_site_fract_z
Si Si1 0.284288 0.607366 0.826360
Si Si2 0.875000 0.875000 0.750826
Si Si3 0.077069 0.327992 0.738755
Si Si4 0.166940 0.682475 0.041418
Si Si5 0.125000 0.736110 0.625000
O O1 0.199989 0.610871 0.797331
O O2 0.345734 0.630985 0.760705
O O3 0.295903 0.654370 0.901328
O O4 0.308221 0.535778 0.853080
O O5 0.858424 0.812143 0.803945
O O6 0.092462 0.252246 0.746030
O O7 0.004889 0.337485 0.794572
O O8 0.125000 0.625000 0.996883
O O9 0.125000 0.688309 0.125000
#
# Coordination Sequence:
#
# PCOD9514512 Si02
#       5
#    32  16  32  32  16
#     4  10  21  41  60  91 123 167 204 255 315 365
#     4  11  22  40  68  92 115 166 214 250 309 372
#     4   9  20  38  54  84 129 157 203 259 311 373
#     4  10  19  35  57  84 122 162 205 256 313 376
#     4   9  22  44  60  88 129 152 206 264 297 376
#
# _framework density 20.430102000000002
#
# number of rings (size 3 to 8) (size 9 to 14) (size 15 to 20)
#    0.000    2.500    2.500    0.750    1.750    4.000 
#    4.500    5.000    0.000    0.000    0.000    0.000 
#    0.000    0.000    0.000    0.000    0.000    0.000 
#
# Total GULP energy -178296.232870 kJ/mol
# GULP energy per Si atom -5571.757277 kJ/mol
# Density = 2.038360 g / cm^3
# Si number density = 20.430102 Si / 1000 Ang^3
#
#
#
# Elastic Constant Matrix: (Units=GPa)
#
#
# Indices 1 2 3 4 5 6 
#
# 1 196.3489 63.3016 54.7719 0.0000 0.0000 0.0000
# 2 63.3016 165.2270 29.4936 0.0000 0.0000 0.0000
# 3 54.7719 29.4936 46.2882 0.0000 0.0000 0.0000
# 4 0.0000 0.0000 0.0000 -2.4784 0.0000 0.0000
# 5 0.0000 0.0000 0.0000 0.0000 20.0552 0.0000
# 6 0.0000 0.0000 0.0000 0.0000 0.0000 -5.1439
#
#
#
# Elastic Compliance Matrix: (Units=1/GPa)
#
#
# Indices 1 2 3 4 5 6 
#
# 1 0.007935 -0.001539 -0.008408 0.000000 0.000000 0.000000
# 2 -0.001539 0.007127 -0.002720 0.000000 0.000000 0.000000
# 3 -0.008408 -0.002720 0.033287 0.000000 0.000000 0.000000
# 4 0.000000 0.000000 0.000000 -0.403485 0.000000 0.000000
# 5 0.000000 0.000000 0.000000 0.000000 0.049862 0.000000
# 6 0.000000 0.000000 0.000000 0.000000 0.000000 -0.194406
#
#
# Mechanical properties :
#
#
# Convention : Reuss Voigt Hill
#
# Bulk Modulus (GPa) = 43.45315 78.11091 60.78203
# Shear Modulus (GPa) = -10.71413 19.83972 4.56280
#
# Velocity S-wave (km/s) = -2.29253 3.11963 1.49607
# Velocity P-wave (km/s) = 3.78256 7.16187 5.72714
#
# Compressibility (1/GPa) = 0.02301329
#
# Stress axis : x y z
#
# Youngs Moduli (GPa) = 126.02941 140.30174 30.04220
#
# Poissons Ratio (x) = 0.21592 0.25260
# Poissons Ratio (y) = 0.19396 0.08173
# Poissons Ratio (z) = 1.05969 0.38167
#
# Static dielectric constant tensor:
#      x y z
#    x 1.750280 0.000000 0.000000 
#    y 0.000000 1.742760 0.000000 
#    z 0.000000 0.000000 1.781180 
# 
# From -- ./inp_files/52104.got.cif
#   From: 2010.05.17/outbox.cif.g08.bks.cpg/sg70_27_cif.got.tgz:52104.got - 2010.06.03 15:57:51.
