data_PCOD9514936
_publ_section_title
;
Structure prediction by ZEFSAII (Michael W. Deem and Ramdas Pophale) SiO2 
 PCOD9514936
Probable space group: F D D D
;
_chemical_formula_sum "Si O2"
_cell_formula_units_Z 168
_cell_length_a 15.950370
_cell_length_b 23.065326
_cell_length_c 23.065334
_cell_angle_alpha 90.000000
_cell_angle_beta 90.000000
_cell_angle_gamma 90.000000
_cell_volume 8485.747539
_symmetry_space_group_name_H-M "F D D D"
_symmetry_group_IT_number 70
_space_group.IT_coordinate_system_code '2'
_symmetry_cell_setting 'orthorhombic'
loop_
_space_group_symop_operation_xyz
x,y,z
1/4-x,1/4-y,z
x,1/4-y,1/4-z
1/4-x,y,1/4-z
-x,-y,-z
3/4+x,3/4+y,-z
-x,3/4+y,3/4+z
3/4+x,-y,3/4+z
x,1/2+y,1/2+z
1/4-x,3/4-y,1/2+z
x,3/4-y,3/4-z
1/4-x,1/2+y,3/4-z
-x,1/2-y,1/2-z
3/4+x,1/4+y,1/2-z
-x,1/4+y,1/4+z
3/4+x,1/2-y,1/4+z
1/2+x,y,1/2+z
3/4-x,1/4-y,1/2+z
1/2+x,1/4-y,3/4-z
3/4-x,y,3/4-z
1/2-x,-y,1/2-z
1/4+x,3/4+y,1/2-z
1/2-x,3/4+y,1/4+z
1/4+x,-y,1/4+z
1/2+x,1/2+y,z
3/4-x,3/4-y,z
1/2+x,3/4-y,1/4-z
3/4-x,1/2+y,1/4-z
1/2-x,1/2-y,-z
1/4+x,1/4+y,-z
1/2-x,1/4+y,3/4+z
1/4+x,1/2-y,3/4+z
loop_
_atom_site_type_symbol
_atom_site_label
_atom_site_fract_x
_atom_site_fract_y
_atom_site_fract_z
Si Si1 0.785413 0.672294 0.077706
Si Si2 0.455698 0.504843 0.340844
Si Si3 0.873924 0.156591 0.756050
Si Si4 0.705698 0.090844 0.995157
Si Si5 0.626076 0.243951 0.343409
Si Si6 0.625000 0.625000 0.125000
O O1 0.818519 0.625000 0.125000
O O2 0.820086 0.647669 0.018051
O O3 0.820086 0.731949 0.102331
O O4 0.685862 0.664286 0.085714
O O5 0.375000 0.481201 0.375000
O O6 0.422363 0.562391 0.308942
O O7 0.481712 0.457653 0.292347
O O8 0.533110 0.516863 0.383026
O O9 0.879034 0.206730 0.706730
O O10 0.966890 0.133026 0.766863
O O11 0.625000 0.125000 0.018799
O O12 0.672363 0.058942 0.937609
#
# Coordination Sequence:
#
# PCOD9514936 Si02
#       6
#    32  32  32  32  32   8
#     4   8  16  34  63  87 114 149 200 253 292 354
#     4  11  22  35  59  91 127 164 205 249 309 374
#     4  10  20  37  62  90 123 162 200 254 307 369
#     4  11  22  35  59  91 127 164 205 249 309 374
#     4  10  20  37  62  90 123 162 200 254 307 369
#     4   8  16  32  68  92 102 152 204 240 304 340
#
# _framework density 19.797902000000001
#
# number of rings (size 3 to 8) (size 9 to 14) (size 15 to 20)
#    0.571    1.524    1.905    2.286    0.000    4.952 
#    0.000    0.000   12.571    2.286    0.000    0.000 
#    0.000    0.000    0.000    0.000    0.000    0.000 
#
# Total GULP energy -234131.465367 kJ/mol
# GULP energy per Si atom -5574.558699 kJ/mol
# Density = 1.975284 g / cm^3
# Si number density = 19.797902 Si / 1000 Ang^3
#
#
#
# Elastic Constant Matrix: (Units=GPa)
#
#
# Indices 1 2 3 4 5 6 
#
# 1 132.8373 29.1013 29.1012 0.0000 0.0000 0.0000
# 2 29.1013 60.9589 24.9092 0.0000 0.0000 0.0000
# 3 29.1012 24.9092 60.9585 0.0000 0.0000 0.0000
# 4 0.0000 0.0000 0.0000 13.3508 0.0000 0.0000
# 5 0.0000 0.0000 0.0000 0.0000 47.5131 0.0000
# 6 0.0000 0.0000 0.0000 0.0000 0.0000 47.5123
#
#
#
# Elastic Compliance Matrix: (Units=1/GPa)
#
#
# Indices 1 2 3 4 5 6 
#
# 1 0.008841 -0.002996 -0.002996 0.000000 0.000000 0.000000
# 2 -0.002996 0.020708 -0.007031 0.000000 0.000000 0.000000
# 3 -0.002996 -0.007031 0.020708 0.000000 0.000000 0.000000
# 4 0.000000 0.000000 0.000000 0.074902 0.000000 0.000000
# 5 0.000000 0.000000 0.000000 0.000000 0.021047 0.000000
# 6 0.000000 0.000000 0.000000 0.000000 0.000000 0.021047
#
#
# Mechanical properties :
#
#
# Convention : Reuss Voigt Hill
#
# Bulk Modulus (GPa) = 41.30646 46.77536 44.04091
# Shear Modulus (GPa) = 24.82985 33.11811 28.97398
#
# Velocity S-wave (km/s) = 3.54526 4.09444 3.82971
# Velocity P-wave (km/s) = 6.13742 6.78456 6.46908
#
# Compressibility (1/GPa) = 0.02420929
#
# Stress axis : x y z
#
# Youngs Moduli (GPa) = 113.11210 48.29029 48.29001
#
# Poissons Ratio (x) = 0.14469 0.14469
# Poissons Ratio (y) = 0.33891 0.33955
# Poissons Ratio (z) = 0.33891 0.33955
#
# Static dielectric constant tensor:
#      x y z
#    x 1.675550 0.000000 0.000000 
#    y 0.000000 1.719320 0.000000 
#    z 0.000000 0.000000 1.719320 
# 
# From -- ./inp_files/52233.got.cif
#   From: 2010.05.17/outbox.cif.g08.bks.cpg/sg70_27_cif.got.tgz:52233.got - 2010.06.03 15:57:51.
