data_PCOD9514673
_publ_section_title
;
Structure prediction by ZEFSAII (Michael W. Deem and Ramdas Pophale) SiO2 
 PCOD9514673
Probable space group: F D D D
;
_chemical_formula_sum "Si O2"
_cell_formula_units_Z 144
_cell_length_a 32.217525
_cell_length_b 7.089963
_cell_length_c 25.031592
_cell_angle_alpha 90.000000
_cell_angle_beta 90.000000
_cell_angle_gamma 90.000000
_cell_volume 5717.742783
_symmetry_space_group_name_H-M "F D D D"
_symmetry_group_IT_number 70
_space_group.IT_coordinate_system_code '2'
_symmetry_cell_setting 'orthorhombic'
loop_
_space_group_symop_operation_xyz
x,y,z
1/4-x,1/4-y,z
x,1/4-y,1/4-z
1/4-x,y,1/4-z
-x,-y,-z
3/4+x,3/4+y,-z
-x,3/4+y,3/4+z
3/4+x,-y,3/4+z
x,1/2+y,1/2+z
1/4-x,3/4-y,1/2+z
x,3/4-y,3/4-z
1/4-x,1/2+y,3/4-z
-x,1/2-y,1/2-z
3/4+x,1/4+y,1/2-z
-x,1/4+y,1/4+z
3/4+x,1/2-y,1/4+z
1/2+x,y,1/2+z
3/4-x,1/4-y,1/2+z
1/2+x,1/4-y,3/4-z
3/4-x,y,3/4-z
1/2-x,-y,1/2-z
1/4+x,3/4+y,1/2-z
1/2-x,3/4+y,1/4+z
1/4+x,-y,1/4+z
1/2+x,1/2+y,z
3/4-x,3/4-y,z
1/2+x,3/4-y,1/4-z
3/4-x,1/2+y,1/4-z
1/2-x,1/2-y,-z
1/4+x,1/4+y,-z
1/2-x,1/4+y,3/4+z
1/4+x,1/2-y,3/4+z
loop_
_atom_site_type_symbol
_atom_site_label
_atom_site_fract_x
_atom_site_fract_y
_atom_site_fract_z
Si Si1 0.863875 0.653300 0.187697
Si Si2 0.945593 0.670666 0.008654
Si Si3 0.236008 0.625000 0.625000
Si Si4 0.827660 0.654240 0.386993
Si Si5 0.530838 0.481583 0.769707
O O1 0.854255 0.625000 0.125000
O O2 0.906076 0.542876 0.203660
O O3 0.825165 0.624092 0.228783
O O4 0.875000 0.875000 0.193859
O O5 0.930556 0.663375 0.947322
O O6 0.988113 0.791671 0.014768
O O7 0.958391 0.452321 0.015924
O O8 0.205401 0.462811 0.646639
O O9 0.264225 0.544927 0.579239
O O10 0.875000 0.611838 0.375000
O O11 0.821094 0.875000 0.375000
#
# Coordination Sequence:
#
# PCOD9514673 Si02
#       5
#    32  32  16  32  32
#     4  10  20  37  67  89 125 170 216 268 333 395
#     4   9  20  38  62  88 129 170 214 270 331 394
#     4  10  19  40  60  94 130 164 214 280 323 388
#     4  10  22  37  64  93 127 173 218 264 328 400
#     4   9  18  36  64  89 125 171 209 274 333 388
#
# _framework density 25.184763
#
# number of rings (size 3 to 8) (size 9 to 14) (size 15 to 20)
#    0.000    2.444    1.111    0.333    9.333    0.000 
#    0.000   33.333    0.000    0.000    0.000    0.000 
#    0.000    0.000    0.000    0.000    0.000    0.000 
#
# Total GULP energy -201142.394409 kJ/mol
# GULP energy per Si atom -5587.288734 kJ/mol
# Density = 2.512744 g / cm^3
# Si number density = 25.184763 Si / 1000 Ang^3
#
#
#
# Elastic Constant Matrix: (Units=GPa)
#
#
# Indices 1 2 3 4 5 6 
#
# 1 224.0810 40.2895 52.3814 0.0012 -0.0001 -0.0003
# 2 40.2895 60.6978 11.5595 0.0031 0.0002 0.0005
# 3 52.3814 11.5595 85.2808 -0.0001 0.0000 -0.0001
# 4 0.0012 0.0031 -0.0001 1.9871 0.0000 -0.0002
# 5 -0.0001 0.0002 0.0000 0.0000 54.6255 0.0001
# 6 -0.0003 0.0005 -0.0001 -0.0002 0.0001 70.2259
#
#
#
# Elastic Compliance Matrix: (Units=1/GPa)
#
#
# Indices 1 2 3 4 5 6 
#
# 1 0.005771 -0.003239 -0.003106 0.000001 0.000000 0.000000
# 2 -0.003239 0.018730 -0.000549 -0.000027 0.000000 0.000000
# 3 -0.003106 -0.000549 0.013708 0.000004 0.000000 0.000000
# 4 0.000001 -0.000027 0.000004 0.503245 0.000000 0.000002
# 5 0.000000 0.000000 0.000000 0.000000 0.018306 0.000000
# 6 0.000000 0.000000 0.000000 0.000002 0.000000 0.014240
#
#
# Mechanical properties :
#
#
# Convention : Reuss Voigt Hill
#
# Bulk Modulus (GPa) = 40.94880 64.28003 52.61442
# Shear Modulus (GPa) = 8.39027 43.08966 25.73996
#
# Velocity S-wave (km/s) = 1.82722 4.14084 3.20041
# Velocity P-wave (km/s) = 4.55481 6.95995 5.88163
#
# Compressibility (1/GPa) = 0.02442074
#
# Stress axis : x y z
#
# Youngs Moduli (GPa) = 173.27843 53.39104 72.95032
#
# Poissons Ratio (x) = 0.17295 0.22656
# Poissons Ratio (y) = 0.56129 0.04006
# Poissons Ratio (z) = 0.53814 0.02932
#
# Static dielectric constant tensor:
#      x y z
#    x 2.034720 0.000000 0.000000 
#    y 0.000000 2.000380 0.000000 
#    z 0.000000 0.000000 1.885650 
# 
# From -- ./inp_files/68796.got.cif
#   From: 2010.05.17/outbox.cif.g08.bks.cpg/sg70_35_cif.got.tgz:68796.got - 2010.06.03 15:57:51.
