data_PCOD9514143
_publ_section_title
;
Structure prediction by ZEFSAII (Michael W. Deem and Ramdas Pophale) SiO2 
 PCOD9514143
Probable space group: F D D D
;
_chemical_formula_sum "Si O2"
_cell_formula_units_Z 176
_cell_length_a 23.073660
_cell_length_b 37.882773
_cell_length_c 11.893811
_cell_angle_alpha 90.000000
_cell_angle_beta 90.000000
_cell_angle_gamma 90.000000
_cell_volume 10396.311497
_symmetry_space_group_name_H-M "F D D D"
_symmetry_group_IT_number 70
_space_group.IT_coordinate_system_code '2'
_symmetry_cell_setting 'orthorhombic'
loop_
_space_group_symop_operation_xyz
x,y,z
1/4-x,1/4-y,z
x,1/4-y,1/4-z
1/4-x,y,1/4-z
-x,-y,-z
3/4+x,3/4+y,-z
-x,3/4+y,3/4+z
3/4+x,-y,3/4+z
x,1/2+y,1/2+z
1/4-x,3/4-y,1/2+z
x,3/4-y,3/4-z
1/4-x,1/2+y,3/4-z
-x,1/2-y,1/2-z
3/4+x,1/4+y,1/2-z
-x,1/4+y,1/4+z
3/4+x,1/2-y,1/4+z
1/2+x,y,1/2+z
3/4-x,1/4-y,1/2+z
1/2+x,1/4-y,3/4-z
3/4-x,y,3/4-z
1/2-x,-y,1/2-z
1/4+x,3/4+y,1/2-z
1/2-x,3/4+y,1/4+z
1/4+x,-y,1/4+z
1/2+x,1/2+y,z
3/4-x,3/4-y,z
1/2+x,3/4-y,1/4-z
3/4-x,1/2+y,1/4-z
1/2-x,1/2-y,-z
1/4+x,1/4+y,-z
1/2-x,1/4+y,3/4+z
1/4+x,1/2-y,3/4+z
loop_
_atom_site_type_symbol
_atom_site_label
_atom_site_fract_x
_atom_site_fract_y
_atom_site_fract_z
Si Si1 0.435449 0.534115 0.044516
Si Si2 0.305887 0.673130 0.899567
Si Si3 0.945342 0.658325 0.876785
Si Si4 0.233774 0.523441 0.500923
Si Si5 0.875000 0.269750 0.375000
Si Si6 0.444531 0.550876 0.649616
O O1 0.475778 0.517749 0.139713
O O2 0.375523 0.547946 0.098235
O O3 0.464554 0.566365 0.975447
O O4 0.413393 0.505852 0.953647
O O5 0.375000 0.677298 0.875000
O O6 0.290222 0.632705 0.870757
O O7 0.268801 0.699298 0.823909
O O8 0.291743 0.683005 0.028660
O O9 0.875000 0.660775 0.875000
O O10 0.963138 0.674380 0.996644
O O11 0.172139 0.538254 0.546448
O O12 0.219802 0.487717 0.431424
#
# Coordination Sequence:
#
# PCOD9514143 Si02
#       6
#    32  32  32  32  16  32
#     4  10  17  34  55  81 103 140 183 218 273 316
#     4  11  21  33  52  83 115 142 175 226 291 330
#     4   9  18  32  54  79 110 142 173 225 277 338
#     4  11  21  33  56  80 111 141 181 229 266 325
#     4  10  20  34  54  81 106 140 188 216 260 324
#     4  10  19  35  52  80 113 142 178 217 274 340
#
# _framework density 16.929081
#
# number of rings (size 3 to 8) (size 9 to 14) (size 15 to 20)
#    0.000    1.818    6.364    1.636    0.000    0.727 
#    0.000    0.000    0.000    2.182    0.000    0.000 
#    0.000    0.000    0.000    0.000    0.000    0.000 
#
# Total GULP energy -245163.594562 kJ/mol
# GULP energy per Si atom -5571.899876 kJ/mol
# Density = 1.689055 g / cm^3
# Si number density = 16.929081 Si / 1000 Ang^3
#
#
#
# Elastic Constant Matrix: (Units=GPa)
#
#
# Indices 1 2 3 4 5 6 
#
# 1 54.3224 42.0240 26.3542 0.0000 0.0000 0.0000
# 2 42.0240 80.2495 37.2064 0.0000 0.0000 0.0000
# 3 26.3542 37.2064 84.0761 0.0000 0.0000 0.0000
# 4 0.0000 0.0000 0.0000 20.5530 0.0000 0.0000
# 5 0.0000 0.0000 0.0000 0.0000 28.2917 0.0000
# 6 0.0000 0.0000 0.0000 0.0000 0.0000 25.3553
#
#
#
# Elastic Compliance Matrix: (Units=1/GPa)
#
#
# Indices 1 2 3 4 5 6 
#
# 1 0.031636 -0.015059 -0.003253 0.000000 0.000000 0.000000
# 2 -0.015059 0.022846 -0.005390 0.000000 0.000000 0.000000
# 3 -0.003253 -0.005390 0.015299 0.000000 0.000000 0.000000
# 4 0.000000 0.000000 0.000000 0.048655 0.000000 0.000000
# 5 0.000000 0.000000 0.000000 0.000000 0.035346 0.000000
# 6 0.000000 0.000000 0.000000 0.000000 0.000000 0.039439
#
#
# Mechanical properties :
#
#
# Convention : Reuss Voigt Hill
#
# Bulk Modulus (GPa) = 44.68588 47.75745 46.22166
# Shear Modulus (GPa) = 20.15459 22.37756 21.26608
#
# Velocity S-wave (km/s) = 3.45415 3.63966 3.54812
# Velocity P-wave (km/s) = 6.50857 6.77749 6.64439
#
# Compressibility (1/GPa) = 0.02237843
#
# Stress axis : x y z
#
# Youngs Moduli (GPa) = 31.60942 43.77172 65.36529
#
# Poissons Ratio (x) = 0.65915 0.21260
# Poissons Ratio (y) = 0.47600 0.35230
# Poissons Ratio (z) = 0.10281 0.23592
#
# Static dielectric constant tensor:
#      x y z
#    x 1.575770 0.000000 0.000000 
#    y 0.000000 1.571340 0.000000 
#    z 0.000000 0.000000 1.615420 
# 
# From -- ./inp_files/21201.got.cif
#   From: 2010.05.17/outbox.cif.g08.bks.cpg/sg70_11_cif.got.tgz:21201.got - 2010.06.03 15:57:51.
