data_PCOD9514193
_publ_section_title
;
Structure prediction by ZEFSAII (Michael W. Deem and Ramdas Pophale) SiO2 
 PCOD9514193
Probable space group: F D D D
;
_chemical_formula_sum "Si O2"
_cell_formula_units_Z 152
_cell_length_a 27.910323
_cell_length_b 14.677976
_cell_length_c 22.892911
_cell_angle_alpha 90.000000
_cell_angle_beta 90.000000
_cell_angle_gamma 90.000000
_cell_volume 9378.471342
_symmetry_space_group_name_H-M "F D D D"
_symmetry_group_IT_number 70
_space_group.IT_coordinate_system_code '2'
_symmetry_cell_setting 'orthorhombic'
loop_
_space_group_symop_operation_xyz
x,y,z
1/4-x,1/4-y,z
x,1/4-y,1/4-z
1/4-x,y,1/4-z
-x,-y,-z
3/4+x,3/4+y,-z
-x,3/4+y,3/4+z
3/4+x,-y,3/4+z
x,1/2+y,1/2+z
1/4-x,3/4-y,1/2+z
x,3/4-y,3/4-z
1/4-x,1/2+y,3/4-z
-x,1/2-y,1/2-z
3/4+x,1/4+y,1/2-z
-x,1/4+y,1/4+z
3/4+x,1/2-y,1/4+z
1/2+x,y,1/2+z
3/4-x,1/4-y,1/2+z
1/2+x,1/4-y,3/4-z
3/4-x,y,3/4-z
1/2-x,-y,1/2-z
1/4+x,3/4+y,1/2-z
1/2-x,3/4+y,1/4+z
1/4+x,-y,1/4+z
1/2+x,1/2+y,z
3/4-x,3/4-y,z
1/2+x,3/4-y,1/4-z
3/4-x,1/2+y,1/4-z
1/2-x,1/2-y,-z
1/4+x,1/4+y,-z
1/2-x,1/4+y,3/4+z
1/4+x,1/2-y,3/4+z
loop_
_atom_site_type_symbol
_atom_site_label
_atom_site_fract_x
_atom_site_fract_y
_atom_site_fract_z
Si Si1 0.050474 0.744478 0.053834
Si Si2 0.083819 0.046186 0.820886
Si Si3 0.788104 0.108410 0.212905
Si Si4 0.375000 0.875000 0.875000
Si Si5 0.371312 0.625000 0.125000
Si Si6 0.243041 0.827655 0.087994
O O1 0.090689 0.685954 0.086062
O O2 0.003066 0.683052 0.045591
O O3 0.034204 0.820268 0.100551
O O4 0.071953 0.757358 0.989441
O O5 0.125000 0.125000 0.813075
O O6 0.035359 0.098518 0.838702
O O7 0.099972 0.968364 0.865640
O O8 0.836601 0.134570 0.180986
O O9 0.791755 0.092985 0.282355
O O10 0.768764 0.017561 0.180348
#
# Coordination Sequence:
#
# PCOD9514193 Si02
#       6
#    32  32  32   8  16  32
#     4  11  20  31  49  83 113 139 163 216 272 328
#     4  11  22  34  54  79 107 141 185 220 259 319
#     4  10  18  31  51  73 113 143 163 204 283 324
#     4  12  18  24  48  84 116 126 164 204 272 336
#     4  12  21  36  52  79 102 149 184 220 251 328
#     4  10  19  33  50  77 110 146 164 210 280 325
#
# _framework density 16.207332000000001
#
# number of rings (size 3 to 8) (size 9 to 14) (size 15 to 20)
#    0.000    1.263    7.368    0.000    2.947    0.000 
#    0.000    1.053    0.000    0.000    0.000    0.000 
#    0.000    0.000    0.000    0.000    0.000    0.000 
#
# Total GULP energy -211789.619658 kJ/mol
# GULP energy per Si atom -5573.411044 kJ/mol
# Density = 1.617044 g / cm^3
# Si number density = 16.207332 Si / 1000 Ang^3
#
#
#
# Elastic Constant Matrix: (Units=GPa)
#
#
# Indices 1 2 3 4 5 6 
#
# 1 55.4741 22.9028 39.1588 0.0000 0.0000 0.0000
# 2 22.9028 41.2670 46.0814 0.0000 0.0000 0.0000
# 3 39.1588 46.0814 99.5475 0.0000 0.0000 0.0000
# 4 0.0000 0.0000 0.0000 26.3792 0.0000 0.0000
# 5 0.0000 0.0000 0.0000 0.0000 31.5730 0.0000
# 6 0.0000 0.0000 0.0000 0.0000 0.0000 24.7646
#
#
#
# Elastic Compliance Matrix: (Units=1/GPa)
#
#
# Indices 1 2 3 4 5 6 
#
# 1 0.025690 -0.006154 -0.007257 0.000000 0.000000 0.000000
# 2 -0.006154 0.051636 -0.021482 0.000000 0.000000 0.000000
# 3 -0.007257 -0.021482 0.022844 0.000000 0.000000 0.000000
# 4 0.000000 0.000000 0.000000 0.037909 0.000000 0.000000
# 5 0.000000 0.000000 0.000000 0.000000 0.031673 0.000000
# 6 0.000000 0.000000 0.000000 0.000000 0.000000 0.040380
#
#
# Mechanical properties :
#
#
# Convention : Reuss Voigt Hill
#
# Bulk Modulus (GPa) = 32.91181 45.84163 39.37672
# Shear Modulus (GPa) = 17.23872 22.41974 19.82923
#
# Velocity S-wave (km/s) = 3.26488 3.72332 3.50161
# Velocity P-wave (km/s) = 5.87907 6.84325 6.37940
#
# Compressibility (1/GPa) = 0.03038423
#
# Stress axis : x y z
#
# Youngs Moduli (GPa) = 38.92612 19.36635 43.77498
#
# Poissons Ratio (x) = 0.11919 0.31766
# Poissons Ratio (y) = 0.23956 0.94037
# Poissons Ratio (z) = 0.28247 0.41602
#
# Static dielectric constant tensor:
#      x y z
#    x 1.541100 0.000000 0.000000 
#    y 0.000000 1.540050 0.000000 
#    z 0.000000 0.000000 1.590520 
# 
# From -- ./inp_files/19559.got.cif
#   From: 2010.05.17/outbox.cif.g08.bks.cpg/sg70_10_cif.got.tgz:19559.got - 2010.06.03 15:57:51.
