data_PCOD9514631
_publ_section_title
;
Structure prediction by ZEFSAII (Michael W. Deem and Ramdas Pophale) SiO2 
 PCOD9514631
Probable space group: F D D D
;
_chemical_formula_sum "Si O2"
_cell_formula_units_Z 176
_cell_length_a 15.624947
_cell_length_b 23.963290
_cell_length_c 21.971460
_cell_angle_alpha 90.000000
_cell_angle_beta 90.000000
_cell_angle_gamma 90.000000
_cell_volume 8226.666903
_symmetry_space_group_name_H-M "F D D D"
_symmetry_group_IT_number 70
_space_group.IT_coordinate_system_code '2'
_symmetry_cell_setting 'orthorhombic'
loop_
_space_group_symop_operation_xyz
x,y,z
1/4-x,1/4-y,z
x,1/4-y,1/4-z
1/4-x,y,1/4-z
-x,-y,-z
3/4+x,3/4+y,-z
-x,3/4+y,3/4+z
3/4+x,-y,3/4+z
x,1/2+y,1/2+z
1/4-x,3/4-y,1/2+z
x,3/4-y,3/4-z
1/4-x,1/2+y,3/4-z
-x,1/2-y,1/2-z
3/4+x,1/4+y,1/2-z
-x,1/4+y,1/4+z
3/4+x,1/2-y,1/4+z
1/2+x,y,1/2+z
3/4-x,1/4-y,1/2+z
1/2+x,1/4-y,3/4-z
3/4-x,y,3/4-z
1/2-x,-y,1/2-z
1/4+x,3/4+y,1/2-z
1/2-x,3/4+y,1/4+z
1/4+x,-y,1/4+z
1/2+x,1/2+y,z
3/4-x,3/4-y,z
1/2+x,3/4-y,1/4-z
3/4-x,1/2+y,1/4-z
1/2-x,1/2-y,-z
1/4+x,1/4+y,-z
1/2-x,1/4+y,3/4+z
1/4+x,1/2-y,3/4+z
loop_
_atom_site_type_symbol
_atom_site_label
_atom_site_fract_x
_atom_site_fract_y
_atom_site_fract_z
Si Si1 0.875000 0.479255 0.375000
Si Si2 0.584428 0.063805 0.059847
Si Si3 0.079437 0.065796 0.249463
Si Si4 0.959113 0.285654 0.153704
Si Si5 0.524904 0.841232 0.611035
Si Si6 0.423016 0.501150 0.561699
O O1 0.924836 0.448143 0.321204
O O2 0.804558 0.514425 0.339157
O O3 0.625000 0.125000 0.046543
O O4 0.625000 0.047521 0.125000
O O5 0.480809 0.057072 0.063953
O O6 0.601361 0.020999 0.005043
O O7 0.125000 0.125000 0.250765
O O8 0.147421 0.029630 0.288382
O O9 0.995720 0.070170 0.292157
O O10 0.910774 0.250812 0.102102
O O11 0.973152 0.350243 0.133760
O O12 0.625000 0.848402 0.625000
O O13 0.483283 0.796731 0.657216
#
# Coordination Sequence:
#
# PCOD9514631 Si02
#       6
#    16  32  32  32  32  32
#     4  12  21  36  60  86 124 162 203 260 324 376
#     4  10  21  38  61  90 129 161 204 259 321 388
#     4   9  21  38  59  84 123 161 204 260 316 384
#     4  10  21  37  58  89 121 157 215 263 306 372
#     4  10  19  38  63  91 117 164 218 262 307 379
#     4  10  21  37  61  88 123 168 205 258 321 376
#
# _framework density 21.393840000000001
#
# number of rings (size 3 to 8) (size 9 to 14) (size 15 to 20)
#    0.000    2.000    0.909    4.091    0.000    5.818 
#    0.000    0.000    8.000    0.000    0.000    0.000 
#    0.000    0.000    0.000    0.000    0.000    0.000 
#
# Total GULP energy -245187.941049 kJ/mol
# GULP energy per Si atom -5572.453206 kJ/mol
# Density = 2.134515 g / cm^3
# Si number density = 21.393840 Si / 1000 Ang^3
#
#
#
# Elastic Constant Matrix: (Units=GPa)
#
#
# Indices 1 2 3 4 5 6 
#
# 1 129.2084 43.1314 38.4700 0.0000 0.0000 0.0000
# 2 43.1314 60.7336 35.7970 0.0000 0.0000 0.0000
# 3 38.4700 35.7970 139.4068 0.0000 0.0000 0.0000
# 4 0.0000 0.0000 0.0000 20.0818 0.0000 0.0000
# 5 0.0000 0.0000 0.0000 0.0000 19.9561 0.0000
# 6 0.0000 0.0000 0.0000 0.0000 0.0000 39.9215
#
#
#
# Elastic Compliance Matrix: (Units=1/GPa)
#
#
# Indices 1 2 3 4 5 6 
#
# 1 0.010295 -0.006642 -0.001135 0.000000 0.000000 0.000000
# 2 -0.006642 0.023687 -0.004250 0.000000 0.000000 0.000000
# 3 -0.001135 -0.004250 0.008578 0.000000 0.000000 0.000000
# 4 0.000000 0.000000 0.000000 0.049796 0.000000 0.000000
# 5 0.000000 0.000000 0.000000 0.000000 0.050110 0.000000
# 6 0.000000 0.000000 0.000000 0.000000 0.000000 0.025049
#
#
# Mechanical properties :
#
#
# Convention : Reuss Voigt Hill
#
# Bulk Modulus (GPa) = 54.03668 62.68283 58.35975
# Shear Modulus (GPa) = 25.28620 30.12193 27.70407
#
# Velocity S-wave (km/s) = 3.44166 3.75637 3.60245
# Velocity P-wave (km/s) = 6.41142 6.94095 6.68143
#
# Compressibility (1/GPa) = 0.01850595
#
# Stress axis : x y z
#
# Youngs Moduli (GPa) = 97.13862 42.21756 116.58066
#
# Poissons Ratio (x) = 0.28040 0.13236
# Poissons Ratio (y) = 0.64517 0.49541
# Poissons Ratio (z) = 0.11029 0.17940
#
# Static dielectric constant tensor:
#      x y z
#    x 1.830870 0.000000 0.000000 
#    y 0.000000 1.817560 0.000000 
#    z 0.000000 0.000000 1.822940 
# 
# From -- ./inp_files/28742.got.cif
#   From: 2010.05.17/outbox.cif.g08.bks.cpg/sg70_15_cif.got.tgz:28742.got - 2010.06.03 15:57:51.
