data_PCOD9514455
_publ_section_title
;
Structure prediction by ZEFSAII (Michael W. Deem and Ramdas Pophale) SiO2 
 PCOD9514455
Probable space group: F D D D
;
_chemical_formula_sum "Si O2"
_cell_formula_units_Z 144
_cell_length_a 29.160629
_cell_length_b 28.121877
_cell_length_c 8.089506
_cell_angle_alpha 90.000000
_cell_angle_beta 90.000000
_cell_angle_gamma 90.000000
_cell_volume 6633.812516
_symmetry_space_group_name_H-M "F D D D"
_symmetry_group_IT_number 70
_space_group.IT_coordinate_system_code '2'
_symmetry_cell_setting 'orthorhombic'
loop_
_space_group_symop_operation_xyz
x,y,z
1/4-x,1/4-y,z
x,1/4-y,1/4-z
1/4-x,y,1/4-z
-x,-y,-z
3/4+x,3/4+y,-z
-x,3/4+y,3/4+z
3/4+x,-y,3/4+z
x,1/2+y,1/2+z
1/4-x,3/4-y,1/2+z
x,3/4-y,3/4-z
1/4-x,1/2+y,3/4-z
-x,1/2-y,1/2-z
3/4+x,1/4+y,1/2-z
-x,1/4+y,1/4+z
3/4+x,1/2-y,1/4+z
1/2+x,y,1/2+z
3/4-x,1/4-y,1/2+z
1/2+x,1/4-y,3/4-z
3/4-x,y,3/4-z
1/2-x,-y,1/2-z
1/4+x,3/4+y,1/2-z
1/2-x,3/4+y,1/4+z
1/4+x,-y,1/4+z
1/2+x,1/2+y,z
3/4-x,3/4-y,z
1/2+x,3/4-y,1/4-z
3/4-x,1/2+y,1/4-z
1/2-x,1/2-y,-z
1/4+x,1/4+y,-z
1/2-x,1/4+y,3/4+z
1/4+x,1/2-y,3/4+z
loop_
_atom_site_type_symbol
_atom_site_label
_atom_site_fract_x
_atom_site_fract_y
_atom_site_fract_z
Si Si1 0.607368 0.071473 0.946683
Si Si2 0.510555 0.472791 0.246869
Si Si3 0.818389 0.783642 0.984925
Si Si4 0.999044 0.178211 0.822584
Si Si5 0.731290 0.625000 0.125000
O O1 0.625000 0.125000 0.917014
O O2 0.630640 0.038118 0.807709
O O3 0.553200 0.074872 0.962391
O O4 0.625000 0.054982 0.125000
O O5 0.550891 0.488429 0.120134
O O6 0.493813 0.521381 0.335711
O O7 0.522940 0.435279 0.390916
O O8 0.466379 0.459954 0.139545
O O9 0.802926 0.830499 0.886547
O O10 0.989485 0.137120 0.959154
#
# Coordination Sequence:
#
# PCOD9514455 Si02
#       5
#    32  32  32  32  16
#     4  11  20  30  52  82 112 142 176 233 290 348
#     4   9  20  33  48  66 111 152 181 217 267 346
#     4  10  19  34  49  75 107 149 181 220 278 344
#     4  10  19  34  49  75 107 149 182 224 279 342
#     4  10  20  29  50  72 102 140 180 224 266 340
#
# _framework density 21.706973000000001
#
# number of rings (size 3 to 8) (size 9 to 14) (size 15 to 20)
#    0.000    2.000    4.444    0.000    0.000    5.333 
#    0.000    0.000    0.000    0.000    0.000    0.000 
#    0.000  213.333    0.000    0.000    0.000    0.000 
#
# Total GULP energy -200730.909462 kJ/mol
# GULP energy per Si atom -5575.858596 kJ/mol
# Density = 2.165757 g / cm^3
# Si number density = 21.706973 Si / 1000 Ang^3
#
#
#
# Elastic Constant Matrix: (Units=GPa)
#
#
# Indices 1 2 3 4 5 6 
#
# 1 33.5569 13.7215 10.8911 -0.0024 0.0015 0.0002
# 2 13.7215 45.1645 20.3088 -0.0039 0.0035 0.0011
# 3 10.8911 20.3088 151.3433 -0.0161 0.0141 0.0059
# 4 -0.0024 -0.0039 -0.0161 40.8257 0.0084 0.0042
# 5 0.0015 0.0035 0.0141 0.0084 30.0129 -0.0024
# 6 0.0002 0.0011 0.0059 0.0042 -0.0024 18.4389
#
#
#
# Elastic Compliance Matrix: (Units=1/GPa)
#
#
# Indices 1 2 3 4 5 6 
#
# 1 0.034210 -0.009883 -0.001136 0.000001 0.000000 0.000001
# 2 -0.009883 0.026418 -0.002834 0.000001 -0.000001 -0.000001
# 3 -0.001136 -0.002834 0.007069 0.000002 -0.000003 -0.000002
# 4 0.000001 0.000001 0.000002 0.024494 -0.000007 -0.000006
# 5 0.000000 -0.000001 -0.000003 -0.000007 0.033319 0.000004
# 6 0.000001 -0.000001 -0.000002 -0.000006 0.000004 0.054233
#
#
# Mechanical properties :
#
#
# Convention : Reuss Voigt Hill
#
# Bulk Modulus (GPa) = 25.00440 35.54527 30.27484
# Shear Modulus (GPa) = 22.64705 30.19839 26.42272
#
# Velocity S-wave (km/s) = 3.23353 3.73390 3.49269
# Velocity P-wave (km/s) = 5.04827 5.91608 5.49932
#
# Compressibility (1/GPa) = 0.03999295
#
# Stress axis : x y z
#
# Youngs Moduli (GPa) = 29.23141 37.85293 141.45277
#
# Poissons Ratio (x) = 0.37409 0.16064
# Poissons Ratio (y) = 0.28888 0.40086
# Poissons Ratio (z) = 0.03320 0.10727
#
# Static dielectric constant tensor:
#      x y z
#    x 1.787730 0.000010 0.000000 
#    y 0.000010 1.865690 -0.000010 
#    z 0.000000 -0.000010 2.018650 
# 
# From -- ./inp_files/12263.got.cif
#   From: 2010.05.17/outbox.cif.g08.bks.cpg/sg70_7_cif.got.tgz:12263.got - 2010.06.03 15:57:51.
