data_PCOD9514171
_publ_section_title
;
Structure prediction by ZEFSAII (Michael W. Deem and Ramdas Pophale) SiO2 
 PCOD9514171
Probable space group: F D D D
;
_chemical_formula_sum "Si O2"
_cell_formula_units_Z 208
_cell_length_a 25.730695
_cell_length_b 13.392395
_cell_length_c 24.276571
_cell_angle_alpha 90.000000
_cell_angle_beta 90.000000
_cell_angle_gamma 90.000000
_cell_volume 8365.600304
_symmetry_space_group_name_H-M "F D D D"
_symmetry_group_IT_number 70
_space_group.IT_coordinate_system_code '2'
_symmetry_cell_setting 'orthorhombic'
loop_
_space_group_symop_operation_xyz
x,y,z
1/4-x,1/4-y,z
x,1/4-y,1/4-z
1/4-x,y,1/4-z
-x,-y,-z
3/4+x,3/4+y,-z
-x,3/4+y,3/4+z
3/4+x,-y,3/4+z
x,1/2+y,1/2+z
1/4-x,3/4-y,1/2+z
x,3/4-y,3/4-z
1/4-x,1/2+y,3/4-z
-x,1/2-y,1/2-z
3/4+x,1/4+y,1/2-z
-x,1/4+y,1/4+z
3/4+x,1/2-y,1/4+z
1/2+x,y,1/2+z
3/4-x,1/4-y,1/2+z
1/2+x,1/4-y,3/4-z
3/4-x,y,3/4-z
1/2-x,-y,1/2-z
1/4+x,3/4+y,1/2-z
1/2-x,3/4+y,1/4+z
1/4+x,-y,1/4+z
1/2+x,1/2+y,z
3/4-x,3/4-y,z
1/2+x,3/4-y,1/4-z
3/4-x,1/2+y,1/4-z
1/2-x,1/2-y,-z
1/4+x,1/4+y,-z
1/2-x,1/4+y,3/4+z
1/4+x,1/2-y,3/4+z
loop_
_atom_site_type_symbol
_atom_site_label
_atom_site_fract_x
_atom_site_fract_y
_atom_site_fract_z
Si Si1 0.767523 0.125000 0.125000
Si Si2 0.493098 0.046394 0.397541
Si Si3 0.160091 0.462916 0.736316
Si Si4 0.205298 0.672838 0.016407
Si Si5 0.064006 0.542490 0.802338
Si Si6 0.660263 0.424617 0.668924
Si Si7 0.971787 0.027276 0.213610
O O1 0.727824 0.138593 0.074818
O O2 0.803828 0.214342 0.147613
O O3 0.457097 0.998958 0.446050
O O4 0.541966 0.102324 0.424949
O O5 0.460458 0.133285 0.363938
O O6 0.511527 0.974364 0.349473
O O7 0.120589 0.522819 0.775928
O O8 0.120327 0.420815 0.690521
O O9 0.187055 0.370992 0.768657
O O10 0.160989 0.751196 0.029667
O O11 0.250000 0.750000 0.000000
O O12 0.195987 0.580865 0.976801
O O13 0.022700 0.522249 0.752909
O O14 0.625000 0.479554 0.625000
#
# Coordination Sequence:
#
# PCOD9514171 Si02
#       7
#    16  32  32  32  32  32  32
#     4  10  18  28  47  64  96 148 188 225 286 334
#     4  10  18  34  52  75 115 166 187 237 309 354
#     4  10  21  32  50  80 115 152 203 243 284 368
#     4  11  18  30  45  65  99 148 193 222 270 341
#     4  10  18  32  51  76 111 157 201 235 293 371
#     4  10  18  30  44  69 106 152 191 220 269 347
#     4  10  20  32  49  75 115 159 196 241 297 358
#
# _framework density 24.863727000000001
#
# number of rings (size 3 to 8) (size 9 to 14) (size 15 to 20)
#    0.000    1.846    4.615    0.923    2.154    0.615 
#    0.000    0.000    0.000    0.000    0.000    1.077 
#    4.615    0.000    0.000    0.000    0.000    0.000 
#
# Total GULP energy -290224.462586 kJ/mol
# GULP energy per Si atom -5581.239665 kJ/mol
# Density = 2.480714 g / cm^3
# Si number density = 24.863727 Si / 1000 Ang^3
#
#
#
# Elastic Constant Matrix: (Units=GPa)
#
#
# Indices 1 2 3 4 5 6 
#
# 1 138.0145 45.4526 57.8787 0.0000 0.0000 0.0000
# 2 45.4526 51.2501 12.6633 0.0000 0.0000 0.0000
# 3 57.8787 12.6633 89.5486 0.0000 0.0000 0.0000
# 4 0.0000 0.0000 0.0000 16.8843 0.0000 0.0000
# 5 0.0000 0.0000 0.0000 0.0000 43.1352 0.0000
# 6 0.0000 0.0000 0.0000 0.0000 0.0000 32.9463
#
#
#
# Elastic Compliance Matrix: (Units=1/GPa)
#
#
# Indices 1 2 3 4 5 6 
#
# 1 0.013789 -0.010390 -0.007443 0.000000 0.000000 0.000000
# 2 -0.010390 0.028047 0.002749 0.000000 0.000000 0.000000
# 3 -0.007443 0.002749 0.015589 0.000000 0.000000 0.000000
# 4 0.000000 0.000000 0.000000 0.059227 0.000000 0.000000
# 5 0.000000 0.000000 0.000000 0.000000 0.023183 0.000000
# 6 0.000000 0.000000 0.000000 0.000000 0.000000 0.030352
#
#
# Mechanical properties :
#
#
# Convention : Reuss Voigt Hill
#
# Bulk Modulus (GPa) = 36.68678 56.75581 46.72130
# Shear Modulus (GPa) = 23.87321 29.44774 26.66048
#
# Velocity S-wave (km/s) = 3.10201 3.44519 3.27810
# Velocity P-wave (km/s) = 5.25520 6.22110 5.75844
#
# Compressibility (1/GPa) = 0.02725778
#
# Stress axis : x y z
#
# Youngs Moduli (GPa) = 72.52389 35.65406 64.14796
#
# Poissons Ratio (x) = 0.37044 0.47744
# Poissons Ratio (y) = 0.75350 -0.17635
# Poissons Ratio (z) = 0.53978 -0.09801
#
# Static dielectric constant tensor:
#      x y z
#    x 2.037340 0.000000 0.000000 
#    y 0.000000 2.084030 0.000000 
#    z 0.000000 0.000000 1.935140 
# 
# From -- ./inp_files/61257.got.cif
#   From: 2010.05.17/outbox.cif.g08.bks.cpg/sg70_31_cif.got.tgz:61257.got - 2010.06.03 15:57:51.
