data_PCOD9514200
_publ_section_title
;
Structure prediction by ZEFSAII (Michael W. Deem and Ramdas Pophale) SiO2 
 PCOD9514200
Probable space group: F D D D
;
_chemical_formula_sum "Si O2"
_cell_formula_units_Z 240
_cell_length_a 15.214205
_cell_length_b 29.302229
_cell_length_c 27.308374
_cell_angle_alpha 90.000000
_cell_angle_beta 90.000000
_cell_angle_gamma 90.000000
_cell_volume 12174.349462
_symmetry_space_group_name_H-M "F D D D"
_symmetry_group_IT_number 70
_space_group.IT_coordinate_system_code '2'
_symmetry_cell_setting 'orthorhombic'
loop_
_space_group_symop_operation_xyz
x,y,z
1/4-x,1/4-y,z
x,1/4-y,1/4-z
1/4-x,y,1/4-z
-x,-y,-z
3/4+x,3/4+y,-z
-x,3/4+y,3/4+z
3/4+x,-y,3/4+z
x,1/2+y,1/2+z
1/4-x,3/4-y,1/2+z
x,3/4-y,3/4-z
1/4-x,1/2+y,3/4-z
-x,1/2-y,1/2-z
3/4+x,1/4+y,1/2-z
-x,1/4+y,1/4+z
3/4+x,1/2-y,1/4+z
1/2+x,y,1/2+z
3/4-x,1/4-y,1/2+z
1/2+x,1/4-y,3/4-z
3/4-x,y,3/4-z
1/2-x,-y,1/2-z
1/4+x,3/4+y,1/2-z
1/2-x,3/4+y,1/4+z
1/4+x,-y,1/4+z
1/2+x,1/2+y,z
3/4-x,3/4-y,z
1/2+x,3/4-y,1/4-z
3/4-x,1/2+y,1/4-z
1/2-x,1/2-y,-z
1/4+x,1/4+y,-z
1/2-x,1/4+y,3/4+z
1/4+x,1/2-y,3/4+z
loop_
_atom_site_type_symbol
_atom_site_label
_atom_site_fract_x
_atom_site_fract_y
_atom_site_fract_z
Si Si1 0.432020 0.712646 0.419879
Si Si2 0.535350 0.361267 0.186853
Si Si3 0.716445 0.783536 0.431561
Si Si4 0.311142 0.226555 0.717905
Si Si5 0.627599 0.977632 0.034918
Si Si6 0.271331 0.873061 0.797875
Si Si7 0.625000 0.125000 0.863679
Si Si8 0.643587 0.525385 0.359571
O O1 0.375000 0.730764 0.375000
O O2 0.415144 0.658565 0.427128
O O3 0.420247 0.730560 0.474409
O O4 0.530200 0.720503 0.399978
O O5 0.598756 0.318075 0.187064
O O6 0.490660 0.362137 0.240674
O O7 0.457020 0.361532 0.148085
O O8 0.651524 0.778002 0.478143
O O9 0.814301 0.768050 0.446602
O O10 0.723160 0.837404 0.420859
O O11 0.684904 0.748326 0.390470
O O12 0.228588 0.260210 0.708818
O O13 0.273918 0.176658 0.702485
O O14 0.395113 0.241447 0.686355
O O15 0.375000 0.875000 0.809556
O O16 0.640386 0.076759 0.837805
#
# Coordination Sequence:
#
# PCOD9514200 Si02
#       8
#    32  32  32  32  32  32  16  32
#     4  10  23  43  63  85 116 156 207 265 325 365
#     4   9  18  30  58  86 120 158 196 249 302 365
#     4  10  19  32  54  85 123 173 196 235 290 364
#     4  11  23  38  60  93 124 163 209 251 306 376
#     4  10  18  31  55  86 128 160 202 235 294 365
#     4  10  18  32  54  86 129 170 201 234 289 363
#     4  10  18  34  54  88 125 155 196 252 312 354
#     4  11  23  38  60  90 119 162 205 254 307 370
#
# _framework density 19.713578999999999
#
# number of rings (size 3 to 8) (size 9 to 14) (size 15 to 20)
#    0.000    1.867    4.667    0.000    0.000    3.733 
#    0.000    0.667    0.000    0.000    0.000    0.000 
#    0.000    0.000    0.000    0.000    0.000    0.000 
#
# Total GULP energy -334402.326909 kJ/mol
# GULP energy per Si atom -5573.372115 kJ/mol
# Density = 1.966871 g / cm^3
# Si number density = 19.713579 Si / 1000 Ang^3
#
#
#
# Elastic Constant Matrix: (Units=GPa)
#
#
# Indices 1 2 3 4 5 6 
#
# 1 9.1256 26.1609 11.5623 0.0000 0.0000 0.0000
# 2 26.1609 121.0477 35.5474 0.0000 0.0000 0.0000
# 3 11.5623 35.5474 82.4022 0.0000 0.0000 0.0000
# 4 0.0000 0.0000 0.0000 11.0634 0.0000 0.0000
# 5 0.0000 0.0000 0.0000 0.0000 13.8092 0.0000
# 6 0.0000 0.0000 0.0000 0.0000 0.0000 23.7549
#
#
#
# Elastic Compliance Matrix: (Units=1/GPa)
#
#
# Indices 1 2 3 4 5 6 
#
# 1 0.306509 -0.061390 -0.016525 0.000000 0.000000 0.000000
# 2 -0.061390 0.021755 -0.000771 0.000000 0.000000 0.000000
# 3 -0.016525 -0.000771 0.014787 0.000000 0.000000 0.000000
# 4 0.000000 0.000000 0.000000 0.090388 0.000000 0.000000
# 5 0.000000 0.000000 0.000000 0.000000 0.072416 0.000000
# 6 0.000000 0.000000 0.000000 0.000000 0.000000 0.042097
#
#
# Mechanical properties :
#
#
# Convention : Reuss Voigt Hill
#
# Bulk Modulus (GPa) = 5.38564 39.90187 22.64376
# Shear Modulus (GPa) = 6.51707 19.01248 12.76478
#
# Velocity S-wave (km/s) = 1.82018 3.10891 2.54739
# Velocity P-wave (km/s) = 2.67494 5.75950 4.49038
#
# Compressibility (1/GPa) = 0.18567884
#
# Stress axis : x y z
#
# Youngs Moduli (GPa) = 3.26255 45.96592 67.62735
#
# Poissons Ratio (x) = 2.82185 1.11754
# Poissons Ratio (y) = 0.20029 0.05214
# Poissons Ratio (z) = 0.05391 0.03544
#
# Static dielectric constant tensor:
#      x y z
#    x 1.721020 0.000000 0.000000 
#    y 0.000000 1.738320 0.000000 
#    z 0.000000 0.000000 1.762760 
# 
# From -- ./inp_files/59805.got.cif
#   From: 2010.05.17/outbox.cif.g08.bks.cpg/sg70_30_cif.got.tgz:59805.got - 2010.06.03 15:57:51.
