data_PCOD9514575
_publ_section_title
;
Structure prediction by ZEFSAII (Michael W. Deem and Ramdas Pophale) SiO2 
 PCOD9514575
Probable space group: F D D D
;
_chemical_formula_sum "Si O2"
_cell_formula_units_Z 144
_cell_length_a 7.452183
_cell_length_b 26.286205
_cell_length_c 31.622836
_cell_angle_alpha 90.000000
_cell_angle_beta 90.000000
_cell_angle_gamma 90.000000
_cell_volume 6194.585012
_symmetry_space_group_name_H-M "F D D D"
_symmetry_group_IT_number 70
_space_group.IT_coordinate_system_code '2'
_symmetry_cell_setting 'orthorhombic'
loop_
_space_group_symop_operation_xyz
x,y,z
1/4-x,1/4-y,z
x,1/4-y,1/4-z
1/4-x,y,1/4-z
-x,-y,-z
3/4+x,3/4+y,-z
-x,3/4+y,3/4+z
3/4+x,-y,3/4+z
x,1/2+y,1/2+z
1/4-x,3/4-y,1/2+z
x,3/4-y,3/4-z
1/4-x,1/2+y,3/4-z
-x,1/2-y,1/2-z
3/4+x,1/4+y,1/2-z
-x,1/4+y,1/4+z
3/4+x,1/2-y,1/4+z
1/2+x,y,1/2+z
3/4-x,1/4-y,1/2+z
1/2+x,1/4-y,3/4-z
3/4-x,y,3/4-z
1/2-x,-y,1/2-z
1/4+x,3/4+y,1/2-z
1/2-x,3/4+y,1/4+z
1/4+x,-y,1/4+z
1/2+x,1/2+y,z
3/4-x,3/4-y,z
1/2+x,3/4-y,1/4-z
3/4-x,1/2+y,1/4-z
1/2-x,1/2-y,-z
1/4+x,1/4+y,-z
1/2-x,1/4+y,3/4+z
1/4+x,1/2-y,3/4+z
loop_
_atom_site_type_symbol
_atom_site_label
_atom_site_fract_x
_atom_site_fract_y
_atom_site_fract_z
Si Si1 0.903630 0.677172 0.325287
Si Si2 0.350643 0.974103 0.971204
Si Si3 0.044047 0.821333 0.351223
Si Si4 0.625000 0.248652 0.625000
Si Si5 0.575607 0.817676 0.049469
O O1 0.875000 0.670304 0.375000
O O2 0.805664 0.727428 0.308015
O O3 0.118062 0.682311 0.316505
O O4 0.852604 0.624970 0.301698
O O5 0.462604 0.930551 0.945928
O O6 0.194726 0.953130 0.001613
O O7 0.500000 0.000000 0.000000
O O8 0.073039 0.875000 0.375000
O O9 0.216467 0.787346 0.358150
O O10 0.875000 0.797249 0.375000
O O11 0.672495 0.283422 0.584656
#
# Coordination Sequence:
#
# PCOD9514575 Si02
#       5
#    32  32  32  16  32
#     4  10  19  36  64  95 134 184 238 291 354 436
#     4  10  20  40  64  97 139 180 231 299 357 423
#     4  11  25  43  72 100 138 194 239 287 366 438
#     4  12  21  44  70 104 144 180 239 300 356 432
#     4  10  22  37  68 100 132 188 233 293 365 424
#
# _framework density 23.246110000000002
#
# number of rings (size 3 to 8) (size 9 to 14) (size 15 to 20)
#    0.000    1.556    5.556    1.000    0.000    7.111 
#    0.000    1.111    0.000    5.333    0.000    0.000 
#    0.000    0.000    0.000    0.000    0.000    0.000 
#
# Total GULP energy -200901.373266 kJ/mol
# GULP energy per Si atom -5580.593702 kJ/mol
# Density = 2.319320 g / cm^3
# Si number density = 23.246110 Si / 1000 Ang^3
#
#
#
# Elastic Constant Matrix: (Units=GPa)
#
#
# Indices 1 2 3 4 5 6 
#
# 1 61.8053 17.2242 8.8720 0.0000 0.0000 0.0000
# 2 17.2242 195.6490 87.0169 0.0000 0.0000 0.0000
# 3 8.8720 87.0169 125.0569 0.0000 0.0000 0.0000
# 4 0.0000 0.0000 0.0000 230.7598 0.0000 0.0000
# 5 0.0000 0.0000 0.0000 0.0000 36.8218 0.0000
# 6 0.0000 0.0000 0.0000 0.0000 0.0000 -74.4648
#
#
#
# Elastic Compliance Matrix: (Units=1/GPa)
#
#
# Indices 1 2 3 4 5 6 
#
# 1 0.016591 -0.001357 -0.000233 0.000000 0.000000 0.000000
# 2 -0.001357 0.007513 -0.005131 0.000000 0.000000 0.000000
# 3 -0.000233 -0.005131 0.011583 0.000000 0.000000 0.000000
# 4 0.000000 0.000000 0.000000 0.004334 0.000000 0.000000
# 5 0.000000 0.000000 0.000000 0.000000 0.027158 0.000000
# 6 0.000000 0.000000 0.000000 0.000000 0.000000 -0.013429
#
#
# Mechanical properties :
#
#
# Convention : Reuss Voigt Hill
#
# Bulk Modulus (GPa) = 44.95331 67.63747 56.29539
# Shear Modulus (GPa) = 67.01755 56.58325 61.80040
#
# Velocity S-wave (km/s) = 5.37514 4.93901 5.16168
# Velocity P-wave (km/s) = 7.60939 7.85395 7.73264
#
# Compressibility (1/GPa) = 0.02224530
#
# Stress axis : x y z
#
# Youngs Moduli (GPa) = 60.27195 133.10473 86.33088
#
# Poissons Ratio (x) = 0.18064 0.02009
# Poissons Ratio (y) = 0.08180 0.44299
# Poissons Ratio (z) = 0.01403 0.68300
#
# Static dielectric constant tensor:
#      x y z
#    x 2.068230 0.000000 0.000000 
#    y 0.000000 1.955770 0.000000 
#    z 0.000000 0.000000 2.101570 
# 
# From -- ./inp_files/63833.got.cif
#   From: 2010.05.17/outbox.cif.g08.bks.cpg/sg70_32_cif.got.tgz:63833.got - 2010.06.03 15:57:51.
