data_PCOD9514685
_publ_section_title
;
Structure prediction by ZEFSAII (Michael W. Deem and Ramdas Pophale) SiO2 
 PCOD9514685
Probable space group: F D D D
;
_chemical_formula_sum "Si O2"
_cell_formula_units_Z 112
_cell_length_a 7.842354
_cell_length_b 21.413341
_cell_length_c 29.165487
_cell_angle_alpha 90.000000
_cell_angle_beta 90.000000
_cell_angle_gamma 90.000000
_cell_volume 4897.789410
_symmetry_space_group_name_H-M "F D D D"
_symmetry_group_IT_number 70
_space_group.IT_coordinate_system_code '2'
_symmetry_cell_setting 'orthorhombic'
loop_
_space_group_symop_operation_xyz
x,y,z
1/4-x,1/4-y,z
x,1/4-y,1/4-z
1/4-x,y,1/4-z
-x,-y,-z
3/4+x,3/4+y,-z
-x,3/4+y,3/4+z
3/4+x,-y,3/4+z
x,1/2+y,1/2+z
1/4-x,3/4-y,1/2+z
x,3/4-y,3/4-z
1/4-x,1/2+y,3/4-z
-x,1/2-y,1/2-z
3/4+x,1/4+y,1/2-z
-x,1/4+y,1/4+z
3/4+x,1/2-y,1/4+z
1/2+x,y,1/2+z
3/4-x,1/4-y,1/2+z
1/2+x,1/4-y,3/4-z
3/4-x,y,3/4-z
1/2-x,-y,1/2-z
1/4+x,3/4+y,1/2-z
1/2-x,3/4+y,1/4+z
1/4+x,-y,1/4+z
1/2+x,1/2+y,z
3/4-x,3/4-y,z
1/2+x,3/4-y,1/4-z
3/4-x,1/2+y,1/4-z
1/2-x,1/2-y,-z
1/4+x,1/4+y,-z
1/2-x,1/4+y,3/4+z
1/4+x,1/2-y,3/4+z
loop_
_atom_site_type_symbol
_atom_site_label
_atom_site_fract_x
_atom_site_fract_y
_atom_site_fract_z
Si Si1 0.625000 0.125000 0.501493
Si Si2 0.310803 0.735197 0.799541
Si Si3 0.169421 0.196759 0.796792
Si Si4 0.783537 0.971016 0.829973
O O1 0.750946 0.082314 0.471104
O O2 0.541611 0.075431 0.536550
O O3 0.319991 0.781851 0.756079
O O4 0.502954 0.731337 0.817100
O O5 0.161151 0.757721 0.832666
O O6 0.125000 0.125000 0.801482
O O7 0.345353 0.219791 0.818474
O O8 0.875000 0.944212 0.875000
#
# Coordination Sequence:
#
# PCOD9514685 Si02
#       4
#    16  32  32  32
#     4  10  19  40  66  80 114 164 210 246 288 368
#     4  10  20  36  64  87 112 153 208 249 292 363
#     4  10  20  37  59  85 114 155 201 243 293 364
#     4  11  23  38  57  91 125 156 195 255 318 359
#
# _framework density 22.867459
#
# number of rings (size 3 to 8) (size 9 to 14) (size 15 to 20)
#    0.000    1.714    0.000    7.286    0.000    1.143 
#    7.714    0.000    0.000   10.286    0.000    0.000 
#    0.000    0.000    0.000    0.000    0.000    0.000 
#
# Total GULP energy -156420.704094 kJ/mol
# GULP energy per Si atom -5586.453718 kJ/mol
# Density = 2.281541 g / cm^3
# Si number density = 22.867459 Si / 1000 Ang^3
#
#
#
# Elastic Constant Matrix: (Units=GPa)
#
#
# Indices 1 2 3 4 5 6 
#
# 1 162.5948 1.0181 34.1066 0.0000 0.0000 0.0000
# 2 1.0181 79.4092 9.8934 0.0000 0.0000 0.0000
# 3 34.1066 9.8934 75.3767 0.0000 0.0000 0.0000
# 4 0.0000 0.0000 0.0000 -2.9597 0.0000 0.0000
# 5 0.0000 0.0000 0.0000 0.0000 18.7992 0.0000
# 6 0.0000 0.0000 0.0000 0.0000 0.0000 14.3584
#
#
#
# Elastic Compliance Matrix: (Units=1/GPa)
#
#
# Indices 1 2 3 4 5 6 
#
# 1 0.006802 0.000301 -0.003117 0.000000 0.000000 0.000000
# 2 0.000301 0.012816 -0.001818 0.000000 0.000000 0.000000
# 3 -0.003117 -0.001818 0.014916 0.000000 0.000000 0.000000
# 4 0.000000 0.000000 0.000000 -0.337877 0.000000 0.000000
# 5 0.000000 0.000000 0.000000 0.000000 0.053194 0.000000
# 6 0.000000 0.000000 0.000000 0.000000 0.000000 0.069646
#
#
# Mechanical properties :
#
#
# Convention : Reuss Voigt Hill
#
# Bulk Modulus (GPa) = 39.58098 45.26854 42.42476
# Shear Modulus (GPa) = -30.70998 24.19711 -3.25644
#
# Velocity S-wave (km/s) = -3.66861 3.25644 -1.19463
# Velocity P-wave (km/s) = 0.77363 5.82909 4.08533
#
# Compressibility (1/GPa) = 0.02526466
#
# Stress axis : x y z
#
# Youngs Moduli (GPa) = 147.00897 78.02940 67.04228
#
# Poissons Ratio (x) = -0.02350 0.20900
# Poissons Ratio (y) = -0.04428 0.12191
# Poissons Ratio (z) = 0.45829 0.14189
#
# Static dielectric constant tensor:
#      x y z
#    x 1.852850 0.000000 0.000000 
#    y 0.000000 1.857400 0.000000 
#    z 0.000000 0.000000 1.914280 
# 
# From -- ./inp_files/9477.got.cif
#   From: 2010.05.17/outbox.cif.g08.bks.cpg/sg70_5_cif.got.tgz:9477.got - 2010.06.03 15:57:51.
