data_PCOD9514336
_publ_section_title
;
Structure prediction by ZEFSAII (Michael W. Deem and Ramdas Pophale) SiO2 
 PCOD9514336
Probable space group: F D D D
;
_chemical_formula_sum "Si O2"
_cell_formula_units_Z 192
_cell_length_a 26.585217
_cell_length_b 25.809240
_cell_length_c 13.426080
_cell_angle_alpha 90.000000
_cell_angle_beta 90.000000
_cell_angle_gamma 90.000000
_cell_volume 9212.227538
_symmetry_space_group_name_H-M "F D D D"
_symmetry_group_IT_number 70
_space_group.IT_coordinate_system_code '2'
_symmetry_cell_setting 'orthorhombic'
loop_
_space_group_symop_operation_xyz
x,y,z
1/4-x,1/4-y,z
x,1/4-y,1/4-z
1/4-x,y,1/4-z
-x,-y,-z
3/4+x,3/4+y,-z
-x,3/4+y,3/4+z
3/4+x,-y,3/4+z
x,1/2+y,1/2+z
1/4-x,3/4-y,1/2+z
x,3/4-y,3/4-z
1/4-x,1/2+y,3/4-z
-x,1/2-y,1/2-z
3/4+x,1/4+y,1/2-z
-x,1/4+y,1/4+z
3/4+x,1/2-y,1/4+z
1/2+x,y,1/2+z
3/4-x,1/4-y,1/2+z
1/2+x,1/4-y,3/4-z
3/4-x,y,3/4-z
1/2-x,-y,1/2-z
1/4+x,3/4+y,1/2-z
1/2-x,3/4+y,1/4+z
1/4+x,-y,1/4+z
1/2+x,1/2+y,z
3/4-x,3/4-y,z
1/2+x,3/4-y,1/4-z
3/4-x,1/2+y,1/4-z
1/2-x,1/2-y,-z
1/4+x,1/4+y,-z
1/2-x,1/4+y,3/4+z
1/4+x,1/2-y,3/4+z
loop_
_atom_site_type_symbol
_atom_site_label
_atom_site_fract_x
_atom_site_fract_y
_atom_site_fract_z
Si Si1 0.680285 0.456165 0.653984
Si Si2 0.000773 0.025264 0.709034
Si Si3 0.538311 0.625000 0.625000
Si Si4 0.625000 0.125000 0.960680
Si Si5 0.608097 0.919746 0.457640
Si Si6 0.595734 0.235708 0.358382
Si Si7 0.204613 0.405207 0.602408
O O1 0.625000 0.436108 0.625000
O O2 0.700337 0.491998 0.565148
O O3 0.673389 0.491327 0.751809
O O4 0.715545 0.405753 0.662835
O O5 0.004188 0.074239 0.633407
O O6 0.994778 0.053009 0.814826
O O7 0.952952 0.990586 0.679779
O O8 0.576089 0.627580 0.531851
O O9 0.617219 0.071712 0.901805
O O10 0.607472 0.875000 0.375000
O O11 0.658021 0.914415 0.526137
O O12 0.562648 0.914557 0.535105
O O13 0.613711 0.974242 0.402213
#
# Coordination Sequence:
#
# PCOD9514336 Si02
#       7
#    32  32  16  16  32  32  32
#     4  12  20  37  60  89 125 168 205 261 327 386
#     4  11  24  35  59  93 132 160 211 266 324 391
#     4  11  22  38  58  90 134 170 196 268 338 388
#     4  11  24  38  56  91 134 176 205 252 336 405
#     4  10  18  37  64  91 123 168 223 269 311 380
#     4  11  22  37  59  93 129 170 213 256 327 393
#     4  10  21  36  61  97 126 164 214 272 326 374
#
# _framework density 20.841864999999999
#
# number of rings (size 3 to 8) (size 9 to 14) (size 15 to 20)
#    0.000    1.167    5.000    2.500    4.667    0.000 
#    0.000    0.000    0.000   17.000    0.000    0.000 
#    0.000    0.000    0.000    0.000    0.000    0.000 
#
# Total GULP energy -268195.050063 kJ/mol
# GULP energy per Si atom -5587.396876 kJ/mol
# Density = 2.079443 g / cm^3
# Si number density = 20.841865 Si / 1000 Ang^3
#
#
#
# Elastic Constant Matrix: (Units=GPa)
#
#
# Indices 1 2 3 4 5 6 
#
# 1 39.8788 26.5417 25.1570 0.0000 0.0000 0.0000
# 2 26.5417 178.3887 51.2417 0.0000 0.0000 0.0000
# 3 25.1570 51.2417 94.6551 0.0000 0.0000 0.0000
# 4 0.0000 0.0000 0.0000 26.5700 0.0000 0.0000
# 5 0.0000 0.0000 0.0000 0.0000 19.0861 0.0000
# 6 0.0000 0.0000 0.0000 0.0000 0.0000 32.3423
#
#
#
# Elastic Compliance Matrix: (Units=1/GPa)
#
#
# Indices 1 2 3 4 5 6 
#
# 1 0.031168 -0.002674 -0.006836 0.000000 0.000000 0.000000
# 2 -0.002674 0.006867 -0.003007 0.000000 0.000000 0.000000
# 3 -0.006836 -0.003007 0.014009 0.000000 0.000000 0.000000
# 4 0.000000 0.000000 0.000000 0.037636 0.000000 0.000000
# 5 0.000000 0.000000 0.000000 0.000000 0.052394 0.000000
# 6 0.000000 0.000000 0.000000 0.000000 0.000000 0.030919
#
#
# Mechanical properties :
#
#
# Convention : Reuss Voigt Hill
#
# Bulk Modulus (GPa) = 37.02221 57.64483 47.33352
# Shear Modulus (GPa) = 24.15083 29.59850 26.87467
#
# Velocity S-wave (km/s) = 3.40776 3.77257 3.59480
# Velocity P-wave (km/s) = 5.76938 6.83335 6.32378
#
# Compressibility (1/GPa) = 0.02701082
#
# Stress axis : x y z
#
# Youngs Moduli (GPa) = 32.08411 145.61763 71.38034
#
# Poissons Ratio (x) = 0.38933 0.48798
# Poissons Ratio (y) = 0.08578 0.21464
# Poissons Ratio (z) = 0.21934 0.43788
#
# Static dielectric constant tensor:
#      x y z
#    x 1.793560 0.000000 0.000000 
#    y 0.000000 1.761900 0.000000 
#    z 0.000000 0.000000 1.757830 
# 
# From -- ./inp_files/22483.got.cif
#   From: 2010.05.17/outbox.cif.g08.bks.cpg/sg70_12_cif.got.tgz:22483.got - 2010.06.03 15:57:51.
