data_PCOD9514233
_publ_section_title
;
Structure prediction by ZEFSAII (Michael W. Deem and Ramdas Pophale) SiO2 
 PCOD9514233
Probable space group: F D D D
;
_chemical_formula_sum "Si O2"
_cell_formula_units_Z 168
_cell_length_a 13.991023
_cell_length_b 24.877702
_cell_length_c 25.515973
_cell_angle_alpha 90.000000
_cell_angle_beta 90.000000
_cell_angle_gamma 90.000000
_cell_volume 8881.204406
_symmetry_space_group_name_H-M "F D D D"
_symmetry_group_IT_number 70
_space_group.IT_coordinate_system_code '2'
_symmetry_cell_setting 'orthorhombic'
loop_
_space_group_symop_operation_xyz
x,y,z
1/4-x,1/4-y,z
x,1/4-y,1/4-z
1/4-x,y,1/4-z
-x,-y,-z
3/4+x,3/4+y,-z
-x,3/4+y,3/4+z
3/4+x,-y,3/4+z
x,1/2+y,1/2+z
1/4-x,3/4-y,1/2+z
x,3/4-y,3/4-z
1/4-x,1/2+y,3/4-z
-x,1/2-y,1/2-z
3/4+x,1/4+y,1/2-z
-x,1/4+y,1/4+z
3/4+x,1/2-y,1/4+z
1/2+x,y,1/2+z
3/4-x,1/4-y,1/2+z
1/2+x,1/4-y,3/4-z
3/4-x,y,3/4-z
1/2-x,-y,1/2-z
1/4+x,3/4+y,1/2-z
1/2-x,3/4+y,1/4+z
1/4+x,-y,1/4+z
1/2+x,1/2+y,z
3/4-x,3/4-y,z
1/2+x,3/4-y,1/4-z
3/4-x,1/2+y,1/4-z
1/2-x,1/2-y,-z
1/4+x,1/4+y,-z
1/2-x,1/4+y,3/4+z
1/4+x,1/2-y,3/4+z
loop_
_atom_site_type_symbol
_atom_site_label
_atom_site_fract_x
_atom_site_fract_y
_atom_site_fract_z
Si Si1 0.375000 0.375000 0.875000
Si Si2 0.527770 0.194363 0.898827
Si Si3 0.240114 0.183622 0.409692
Si Si4 0.818043 0.066005 0.457852
Si Si5 0.824984 0.964682 0.953541
Si Si6 0.461876 0.919024 0.531855
O O1 0.433569 0.335087 0.912971
O O2 0.635040 0.206908 0.918761
O O3 0.512991 0.131454 0.910263
O O4 0.446090 0.230938 0.923134
O O5 0.531478 0.200330 0.836047
O O6 0.322029 0.199553 0.450494
O O7 0.272799 0.194830 0.349744
O O8 0.755992 0.037268 0.501820
O O9 0.802749 0.129581 0.471607
O O10 0.925610 0.954492 0.983274
O O11 0.375000 0.875000 0.537774
#
# Coordination Sequence:
#
# PCOD9514233 Si02
#       6
#     8  32  32  32  32  32
#     4  12  24  40  48  80 116 166 188 224 276 364
#     4  10  18  33  56  84 106 136 189 237 275 339
#     4   9  17  33  59  82 103 137 189 239 275 332
#     4   9  16  33  58  73 104 147 179 223 288 318
#     4  11  21  35  55  77 116 151 182 230 291 336
#     4   9  15  36  56  71 113 149 175 232 284 325
#
# _framework density 18.916353000000001
#
# number of rings (size 3 to 8) (size 9 to 14) (size 15 to 20)
#    0.000    2.286    8.571    0.000    0.000    3.810 
#    3.429    1.905    0.000    0.000    0.000    0.000 
#    0.000    0.000    0.000    0.000    0.000    0.000 
#
# Total GULP energy -234032.711500 kJ/mol
# GULP energy per Si atom -5572.207417 kJ/mol
# Density = 1.887330 g / cm^3
# Si number density = 18.916353 Si / 1000 Ang^3
#
#
#
# Elastic Constant Matrix: (Units=GPa)
#
#
# Indices 1 2 3 4 5 6 
#
# 1 62.9873 6.1266 22.4907 0.0000 0.0000 0.0000
# 2 6.1266 45.0500 21.2761 0.0000 0.0000 0.0000
# 3 22.4907 21.2761 77.1969 0.0000 0.0000 0.0000
# 4 0.0000 0.0000 0.0000 21.8284 0.0000 0.0000
# 5 0.0000 0.0000 0.0000 0.0000 23.5919 0.0000
# 6 0.0000 0.0000 0.0000 0.0000 0.0000 20.9481
#
#
#
# Elastic Compliance Matrix: (Units=1/GPa)
#
#
# Indices 1 2 3 4 5 6 
#
# 1 0.017720 0.000033 -0.005171 0.000000 0.000000 0.000000
# 2 0.000033 0.025519 -0.007043 0.000000 0.000000 0.000000
# 3 -0.005171 -0.007043 0.016402 0.000000 0.000000 0.000000
# 4 0.000000 0.000000 0.000000 0.045812 0.000000 0.000000
# 5 0.000000 0.000000 0.000000 0.000000 0.042387 0.000000
# 6 0.000000 0.000000 0.000000 0.000000 0.000000 0.047737
#
#
# Mechanical properties :
#
#
# Convention : Reuss Voigt Hill
#
# Bulk Modulus (GPa) = 28.34700 31.66902 30.00801
# Shear Modulus (GPa) = 21.57968 22.29638 21.93803
#
# Velocity S-wave (km/s) = 3.38123 3.43692 3.40919
# Velocity P-wave (km/s) = 5.50105 5.70332 5.60310
#
# Compressibility (1/GPa) = 0.03527710
#
# Stress axis : x y z
#
# Youngs Moduli (GPa) = 56.43466 39.18607 60.96964
#
# Poissons Ratio (x) = -0.00128 0.31530
# Poissons Ratio (y) = -0.00184 0.42940
# Poissons Ratio (z) = 0.29185 0.27598
#
# Static dielectric constant tensor:
#      x y z
#    x 1.714380 0.000000 0.000000 
#    y 0.000000 1.681110 0.000000 
#    z 0.000000 0.000000 1.671540 
# 
# From -- ./inp_files/58848.got.cif
#   From: 2010.05.17/outbox.cif.g08.bks.cpg/sg70_30_cif.got.tgz:58848.got - 2010.06.03 15:57:51.
