data_PCOD9514360
_publ_section_title
;
Structure prediction by ZEFSAII (Michael W. Deem and Ramdas Pophale) SiO2 
 PCOD9514360
Probable space group: F D D D
;
_chemical_formula_sum "Si O2"
_cell_formula_units_Z 208
_cell_length_a 25.790453
_cell_length_b 22.698796
_cell_length_c 16.770032
_cell_angle_alpha 90.000000
_cell_angle_beta 90.000000
_cell_angle_gamma 90.000000
_cell_volume 9817.381854
_symmetry_space_group_name_H-M "F D D D"
_symmetry_group_IT_number 70
_space_group.IT_coordinate_system_code '2'
_symmetry_cell_setting 'orthorhombic'
loop_
_space_group_symop_operation_xyz
x,y,z
1/4-x,1/4-y,z
x,1/4-y,1/4-z
1/4-x,y,1/4-z
-x,-y,-z
3/4+x,3/4+y,-z
-x,3/4+y,3/4+z
3/4+x,-y,3/4+z
x,1/2+y,1/2+z
1/4-x,3/4-y,1/2+z
x,3/4-y,3/4-z
1/4-x,1/2+y,3/4-z
-x,1/2-y,1/2-z
3/4+x,1/4+y,1/2-z
-x,1/4+y,1/4+z
3/4+x,1/2-y,1/4+z
1/2+x,y,1/2+z
3/4-x,1/4-y,1/2+z
1/2+x,1/4-y,3/4-z
3/4-x,y,3/4-z
1/2-x,-y,1/2-z
1/4+x,3/4+y,1/2-z
1/2-x,3/4+y,1/4+z
1/4+x,-y,1/4+z
1/2+x,1/2+y,z
3/4-x,3/4-y,z
1/2+x,3/4-y,1/4-z
3/4-x,1/2+y,1/4-z
1/2-x,1/2-y,-z
1/4+x,1/4+y,-z
1/2-x,1/4+y,3/4+z
1/4+x,1/2-y,3/4+z
loop_
_atom_site_type_symbol
_atom_site_label
_atom_site_fract_x
_atom_site_fract_y
_atom_site_fract_z
Si Si1 0.665562 0.770897 0.928911
Si Si2 0.491610 0.652420 0.897792
Si Si3 0.012817 0.182935 0.078148
Si Si4 0.589644 0.375000 0.375000
Si Si5 0.603207 0.685407 0.824747
Si Si6 0.053388 0.786204 0.241212
Si Si7 0.182169 0.285966 0.110297
O O1 0.715121 0.790020 0.877676
O O2 0.625140 0.825534 0.918378
O O3 0.639693 0.712459 0.893149
O O4 0.681652 0.762796 0.019961
O O5 0.547453 0.669741 0.862502
O O6 0.448955 0.688227 0.847185
O O7 0.476218 0.585030 0.883675
O O8 0.493140 0.666306 0.990865
O O9 0.030854 0.125000 0.125000
O O10 0.056570 0.233026 0.078993
O O11 0.558244 0.411507 0.442739
O O12 0.625000 0.625000 0.790456
O O13 0.596976 0.738449 0.762077
O O14 0.000000 0.750000 0.250000
O O15 0.125000 0.311452 0.125000
#
# Coordination Sequence:
#
# PCOD9514360 Si02
#       7
#    32  32  32  16  32  32  32
#     4  11  21  41  65  93 130 172 214 268 334 400
#     4  11  23  43  65  96 131 174 218 273 328 398
#     4  12  25  41  64  95 134 174 215 270 335 398
#     4  10  18  38  68  96 124 172 224 268 332 402
#     4  10  22  40  67  97 128 172 217 278 338 394
#     4   9  21  39  65  92 128 167 219 273 323 391
#     4  12  25  41  64  95 129 172 217 271 329 405
#
# _framework density 21.186910999999998
#
# number of rings (size 3 to 8) (size 9 to 14) (size 15 to 20)
#    0.000    1.231    2.308    3.231    2.154    4.000 
#    0.000    0.000    0.000    6.462    0.000    0.000 
#    0.000    0.000    0.000    0.000    0.000    0.000 
#
# Total GULP energy -290649.020465 kJ/mol
# GULP energy per Si atom -5589.404240 kJ/mol
# Density = 2.113869 g / cm^3
# Si number density = 21.186911 Si / 1000 Ang^3
#
#
#
# Elastic Constant Matrix: (Units=GPa)
#
#
# Indices 1 2 3 4 5 6 
#
# 1 32.4184 4.3450 -20.5146 0.0000 0.0000 0.0000
# 2 4.3450 120.8072 26.6843 0.0000 0.0000 0.0000
# 3 -20.5146 26.6843 82.8879 0.0000 0.0000 0.0000
# 4 0.0000 0.0000 0.0000 19.1589 0.0000 0.0000
# 5 0.0000 0.0000 0.0000 0.0000 21.4292 0.0000
# 6 0.0000 0.0000 0.0000 0.0000 0.0000 35.6611
#
#
#
# Elastic Compliance Matrix: (Units=1/GPa)
#
#
# Indices 1 2 3 4 5 6 
#
# 1 0.038062 -0.003714 0.010616 0.000000 0.000000 0.000000
# 2 -0.003714 0.009274 -0.003905 0.000000 0.000000 0.000000
# 3 0.010616 -0.003905 0.015949 0.000000 0.000000 0.000000
# 4 0.000000 0.000000 0.000000 0.052195 0.000000 0.000000
# 5 0.000000 0.000000 0.000000 0.000000 0.046665 0.000000
# 6 0.000000 0.000000 0.000000 0.000000 0.000000 0.028042
#
#
# Mechanical properties :
#
#
# Convention : Reuss Voigt Hill
#
# Bulk Modulus (GPa) = 14.43424 28.57146 21.50285
# Shear Modulus (GPa) = 24.12131 30.28976 27.20554
#
# Velocity S-wave (km/s) = 3.37783 3.78517 3.58728
# Velocity P-wave (km/s) = 4.69474 5.71122 5.22774
#
# Compressibility (1/GPa) = 0.06927970
#
# Stress axis : x y z
#
# Youngs Moduli (GPa) = 26.27275 107.83182 62.70012
#
# Poissons Ratio (x) = 0.40047 -0.66562
# Poissons Ratio (y) = 0.09757 0.24482
# Poissons Ratio (z) = -0.27891 0.42105
#
# Static dielectric constant tensor:
#      x y z
#    x 1.780800 0.000000 0.000000 
#    y 0.000000 1.840810 0.000000 
#    z 0.000000 0.000000 1.742240 
# 
# From -- ./inp_files/38743.got.cif
#   From: 2010.05.17/outbox.cif.g08.bks.cpg/sg70_20_cif.got.tgz:38743.got - 2010.06.03 15:57:51.
