data_PCOD9514724
_publ_section_title
;
Structure prediction by ZEFSAII (Michael W. Deem and Ramdas Pophale) SiO2 
 PCOD9514724
Probable space group: F D D D
;
_chemical_formula_sum "Si O2"
_cell_formula_units_Z 240
_cell_length_a 27.787151
_cell_length_b 14.037903
_cell_length_c 30.826201
_cell_angle_alpha 90.000000
_cell_angle_beta 90.000000
_cell_angle_gamma 90.000000
_cell_volume 12024.478887
_symmetry_space_group_name_H-M "F D D D"
_symmetry_group_IT_number 70
_space_group.IT_coordinate_system_code '2'
_symmetry_cell_setting 'orthorhombic'
loop_
_space_group_symop_operation_xyz
x,y,z
1/4-x,1/4-y,z
x,1/4-y,1/4-z
1/4-x,y,1/4-z
-x,-y,-z
3/4+x,3/4+y,-z
-x,3/4+y,3/4+z
3/4+x,-y,3/4+z
x,1/2+y,1/2+z
1/4-x,3/4-y,1/2+z
x,3/4-y,3/4-z
1/4-x,1/2+y,3/4-z
-x,1/2-y,1/2-z
3/4+x,1/4+y,1/2-z
-x,1/4+y,1/4+z
3/4+x,1/2-y,1/4+z
1/2+x,y,1/2+z
3/4-x,1/4-y,1/2+z
1/2+x,1/4-y,3/4-z
3/4-x,y,3/4-z
1/2-x,-y,1/2-z
1/4+x,3/4+y,1/2-z
1/2-x,3/4+y,1/4+z
1/4+x,-y,1/4+z
1/2+x,1/2+y,z
3/4-x,3/4-y,z
1/2+x,3/4-y,1/4-z
3/4-x,1/2+y,1/4-z
1/2-x,1/2-y,-z
1/4+x,1/4+y,-z
1/2-x,1/4+y,3/4+z
1/4+x,1/2-y,3/4+z
loop_
_atom_site_type_symbol
_atom_site_label
_atom_site_fract_x
_atom_site_fract_y
_atom_site_fract_z
Si Si1 0.561065 0.843672 0.327796
Si Si2 0.089788 0.851571 0.227769
Si Si3 0.944672 0.541642 0.757102
Si Si4 0.429891 0.344689 0.223791
Si Si5 0.167003 0.277560 0.311573
Si Si6 0.229456 0.104744 0.315257
Si Si7 0.256869 0.125000 0.625000
Si Si8 0.514951 0.923029 0.094533
O O1 0.543885 0.875000 0.375000
O O2 0.559751 0.928549 0.293286
O O3 0.615903 0.806927 0.331409
O O4 0.531520 0.755258 0.308658
O O5 0.145960 0.829136 0.220317
O O6 0.071179 0.756713 0.252523
O O7 0.084541 0.937823 0.261743
O O8 0.058306 0.863645 0.185042
O O9 0.947660 0.427614 0.756447
O O10 0.988916 0.594037 0.778891
O O11 0.375000 0.375000 0.211790
O O12 0.465980 0.336629 0.183588
O O13 0.180847 0.167571 0.316946
O O14 0.208498 0.334253 0.337334
O O15 0.256536 0.117736 0.360927
O O16 0.228144 0.215732 0.607035
#
# Coordination Sequence:
#
# PCOD9514724 Si02
#       8
#    32  32  32  32  32  32  16  32
#     4  11  22  40  62  86 112 150 195 248 300 356
#     4  10  21  37  59  83 117 159 195 235 286 356
#     4  10  23  39  58  82 117 155 195 244 291 338
#     4  10  20  35  58  86 116 153 195 239 296 354
#     4  10  20  36  58  86 117 145 186 241 303 348
#     4  11  24  37  57  86 119 152 192 243 297 352
#     4  10  20  30  50  85 116 150 176 241 280 342
#     4  11  22  33  56  83 119 155 196 227 286 349
#
# _framework density 19.959285000000001
#
# number of rings (size 3 to 8) (size 9 to 14) (size 15 to 20)
#    0.000    1.600    2.000    2.800    3.733    2.667 
#    0.000    0.000    0.000    0.000    0.000    2.800 
#    0.000    0.000    0.000    0.000    0.000    0.000 
#
# Total GULP energy -335363.023535 kJ/mol
# GULP energy per Si atom -5589.383726 kJ/mol
# Density = 1.991386 g / cm^3
# Si number density = 19.959285 Si / 1000 Ang^3
#
#
#
# Elastic Constant Matrix: (Units=GPa)
#
#
# Indices 1 2 3 4 5 6 
#
# 1 37.7358 2.7607 17.8757 0.0000 0.0000 0.0000
# 2 2.7607 62.5848 -0.2769 0.0000 0.0000 0.0000
# 3 17.8757 -0.2769 43.9866 0.0000 0.0000 0.0000
# 4 0.0000 0.0000 0.0000 15.6150 0.0000 0.0000
# 5 0.0000 0.0000 0.0000 0.0000 10.6141 0.0000
# 6 0.0000 0.0000 0.0000 0.0000 0.0000 14.6197
#
#
#
# Elastic Compliance Matrix: (Units=1/GPa)
#
#
# Indices 1 2 3 4 5 6 
#
# 1 0.032960 -0.001513 -0.013404 0.000000 0.000000 0.000000
# 2 -0.001513 0.016048 0.000716 0.000000 0.000000 0.000000
# 3 -0.013404 0.000716 0.028186 0.000000 0.000000 0.000000
# 4 0.000000 0.000000 0.000000 0.064041 0.000000 0.000000
# 5 0.000000 0.000000 0.000000 0.000000 0.094214 0.000000
# 6 0.000000 0.000000 0.000000 0.000000 0.000000 0.068401
#
#
# Mechanical properties :
#
#
# Convention : Reuss Voigt Hill
#
# Bulk Modulus (GPa) = 20.49530 20.55846 20.52688
# Shear Modulus (GPa) = 14.34646 16.43294 15.38970
#
# Velocity S-wave (km/s) = 2.68393 2.87247 2.77980
# Velocity P-wave (km/s) = 4.46043 4.61779 4.53980
#
# Compressibility (1/GPa) = 0.04879167
#
# Stress axis : x y z
#
# Youngs Moduli (GPa) = 30.33943 62.31213 35.47849
#
# Poissons Ratio (x) = 0.09429 0.47556
# Poissons Ratio (y) = 0.04591 -0.02540
# Poissons Ratio (z) = 0.40668 -0.04461
#
# Static dielectric constant tensor:
#      x y z
#    x 1.718060 0.000000 0.000000 
#    y 0.000000 1.712650 0.000000 
#    z 0.000000 0.000000 1.686200 
# 
# From -- ./inp_files/69097.got.cif
#   From: 2010.05.17/outbox.cif.g08.bks.cpg/sg70_35_cif.got.tgz:69097.got - 2010.06.03 15:57:51.
