data_PCOD9514306
_publ_section_title
;
Structure prediction by ZEFSAII (Michael W. Deem and Ramdas Pophale) SiO2 
 PCOD9514306
Probable space group: F D D D
;
_chemical_formula_sum "Si O2"
_cell_formula_units_Z 176
_cell_length_a 21.087769
_cell_length_b 27.492279
_cell_length_c 14.608159
_cell_angle_alpha 90.000000
_cell_angle_beta 90.000000
_cell_angle_gamma 90.000000
_cell_volume 8469.092288
_symmetry_space_group_name_H-M "F D D D"
_symmetry_group_IT_number 70
_space_group.IT_coordinate_system_code '2'
_symmetry_cell_setting 'orthorhombic'
loop_
_space_group_symop_operation_xyz
x,y,z
1/4-x,1/4-y,z
x,1/4-y,1/4-z
1/4-x,y,1/4-z
-x,-y,-z
3/4+x,3/4+y,-z
-x,3/4+y,3/4+z
3/4+x,-y,3/4+z
x,1/2+y,1/2+z
1/4-x,3/4-y,1/2+z
x,3/4-y,3/4-z
1/4-x,1/2+y,3/4-z
-x,1/2-y,1/2-z
3/4+x,1/4+y,1/2-z
-x,1/4+y,1/4+z
3/4+x,1/2-y,1/4+z
1/2+x,y,1/2+z
3/4-x,1/4-y,1/2+z
1/2+x,1/4-y,3/4-z
3/4-x,y,3/4-z
1/2-x,-y,1/2-z
1/4+x,3/4+y,1/2-z
1/2-x,3/4+y,1/4+z
1/4+x,-y,1/4+z
1/2+x,1/2+y,z
3/4-x,3/4-y,z
1/2+x,3/4-y,1/4-z
3/4-x,1/2+y,1/4-z
1/2-x,1/2-y,-z
1/4+x,1/4+y,-z
1/2-x,1/4+y,3/4+z
1/4+x,1/2-y,3/4+z
loop_
_atom_site_type_symbol
_atom_site_label
_atom_site_fract_x
_atom_site_fract_y
_atom_site_fract_z
Si Si1 0.191833 0.375000 0.875000
Si Si2 0.129472 0.280726 0.969200
Si Si3 0.604199 0.230943 0.951310
Si Si4 0.625000 0.952093 0.125000
Si Si5 0.625000 0.125000 0.338094
Si Si6 0.505339 0.860584 0.564847
Si Si7 0.779664 0.720948 0.879944
O O1 0.150445 0.331966 0.922373
O O2 0.234025 0.352998 0.793220
O O3 0.105582 0.247032 0.887077
O O4 0.184134 0.255436 0.033172
O O5 0.075647 0.287117 0.044220
O O6 0.605816 0.173191 0.968219
O O7 0.534024 0.243014 0.911755
O O8 0.623788 0.263270 0.036531
O O9 0.688925 0.919476 0.116397
O O10 0.565903 0.143822 0.398479
O O11 0.516947 0.917369 0.582544
#
# Coordination Sequence:
#
# PCOD9514306 Si02
#       7
#    16  32  32  16  16  32  32
#     4  10  18  35  66 102 126 157 222 270 336 387
#     4  10  19  36  66  92 126 165 212 274 334 400
#     4  11  24  41  62  93 130 178 222 275 325 397
#     4  12  24  41  70  96 128 170 238 269 310 408
#     4  10  26  46  60  90 142 176 220 275 341 380
#     4  10  21  42  65  96 134 169 213 278 329 398
#     4   9  21  39  61  93 130 164 210 273 341 395
#
# _framework density 20.781448999999999
#
# number of rings (size 3 to 8) (size 9 to 14) (size 15 to 20)
#    0.000    1.818    1.818    2.727    2.545    1.455 
#    0.000    0.000    0.000    0.000    0.000    0.000 
#    0.000    0.000    0.000    0.000    0.000    0.000 
#
# Total GULP energy -245233.952660 kJ/mol
# GULP energy per Si atom -5573.498924 kJ/mol
# Density = 2.073415 g / cm^3
# Si number density = 20.781449 Si / 1000 Ang^3
#
#
#
# Elastic Constant Matrix: (Units=GPa)
#
#
# Indices 1 2 3 4 5 6 
#
# 1 80.8794 13.4358 36.4991 0.0000 0.0000 0.0000
# 2 13.4358 96.4070 26.5120 0.0000 0.0000 0.0000
# 3 36.4991 26.5120 122.7323 0.0000 0.0000 0.0000
# 4 0.0000 0.0000 0.0000 30.2682 0.0000 0.0000
# 5 0.0000 0.0000 0.0000 0.0000 10.1680 0.0000
# 6 0.0000 0.0000 0.0000 0.0000 0.0000 27.2308
#
#
#
# Elastic Compliance Matrix: (Units=1/GPa)
#
#
# Indices 1 2 3 4 5 6 
#
# 1 0.014350 -0.000879 -0.004078 0.000000 0.000000 0.000000
# 2 -0.000879 0.011082 -0.002133 0.000000 0.000000 0.000000
# 3 -0.004078 -0.002133 0.009821 0.000000 0.000000 0.000000
# 4 0.000000 0.000000 0.000000 0.033038 0.000000 0.000000
# 5 0.000000 0.000000 0.000000 0.000000 0.098348 0.000000
# 6 0.000000 0.000000 0.000000 0.000000 0.000000 0.036723
#
#
# Mechanical properties :
#
#
# Convention : Reuss Voigt Hill
#
# Bulk Modulus (GPa) = 47.44898 50.32361 48.88630
# Shear Modulus (GPa) = 22.26531 28.43819 25.35175
#
# Velocity S-wave (km/s) = 3.27678 3.70326 3.49653
# Velocity P-wave (km/s) = 6.09904 6.52332 6.31475
#
# Compressibility (1/GPa) = 0.02107527
#
# Stress axis : x y z
#
# Youngs Moduli (GPa) = 69.68512 90.23989 101.82090
#
# Poissons Ratio (x) = 0.07928 0.41521
# Poissons Ratio (y) = 0.06122 0.21714
# Poissons Ratio (z) = 0.28416 0.19244
#
# Static dielectric constant tensor:
#      x y z
#    x 1.868990 0.000000 0.000000 
#    y 0.000000 1.806240 0.000000 
#    z 0.000000 0.000000 1.762470 
# 
# From -- ./inp_files/29089.got.cif
#   From: 2010.05.17/outbox.cif.g08.bks.cpg/sg70_15_cif.got.tgz:29089.got - 2010.06.03 15:57:51.
