data_PCOD9514614
_publ_section_title
;
Structure prediction by ZEFSAII (Michael W. Deem and Ramdas Pophale) SiO2 
 PCOD9514614
Probable space group: F D D D
;
_chemical_formula_sum "Si O2"
_cell_formula_units_Z 192
_cell_length_a 20.255271
_cell_length_b 20.720801
_cell_length_c 24.112097
_cell_angle_alpha 90.000000
_cell_angle_beta 90.000000
_cell_angle_gamma 90.000000
_cell_volume 10119.978271
_symmetry_space_group_name_H-M "F D D D"
_symmetry_group_IT_number 70
_space_group.IT_coordinate_system_code '2'
_symmetry_cell_setting 'orthorhombic'
loop_
_space_group_symop_operation_xyz
x,y,z
1/4-x,1/4-y,z
x,1/4-y,1/4-z
1/4-x,y,1/4-z
-x,-y,-z
3/4+x,3/4+y,-z
-x,3/4+y,3/4+z
3/4+x,-y,3/4+z
x,1/2+y,1/2+z
1/4-x,3/4-y,1/2+z
x,3/4-y,3/4-z
1/4-x,1/2+y,3/4-z
-x,1/2-y,1/2-z
3/4+x,1/4+y,1/2-z
-x,1/4+y,1/4+z
3/4+x,1/2-y,1/4+z
1/2+x,y,1/2+z
3/4-x,1/4-y,1/2+z
1/2+x,1/4-y,3/4-z
3/4-x,y,3/4-z
1/2-x,-y,1/2-z
1/4+x,3/4+y,1/2-z
1/2-x,3/4+y,1/4+z
1/4+x,-y,1/4+z
1/2+x,1/2+y,z
3/4-x,3/4-y,z
1/2+x,3/4-y,1/4-z
3/4-x,1/2+y,1/4-z
1/2-x,1/2-y,-z
1/4+x,1/4+y,-z
1/2-x,1/4+y,3/4+z
1/4+x,1/2-y,3/4+z
loop_
_atom_site_type_symbol
_atom_site_label
_atom_site_fract_x
_atom_site_fract_y
_atom_site_fract_z
Si Si1 0.977774 0.031878 0.616851
Si Si2 0.255287 0.356672 0.567620
Si Si3 0.775586 0.895436 0.689557
Si Si4 0.124789 0.824617 0.688208
Si Si5 0.105432 0.733917 0.460304
Si Si6 0.799617 0.356990 0.801149
O O1 0.031814 0.041140 0.666594
O O2 0.997170 0.091140 0.576769
O O3 0.981388 0.968198 0.579599
O O4 0.912087 0.024979 0.654735
O O5 0.279691 0.392541 0.622800
O O6 0.176759 0.367018 0.563206
O O7 0.288746 0.387690 0.514107
O O8 0.699064 0.904276 0.703419
O O9 0.821722 0.953459 0.709130
O O10 0.806372 0.827749 0.709790
O O11 0.125000 0.797810 0.625000
O O12 0.151004 0.775855 0.734593
O O13 0.875000 0.375000 0.813072
#
# Coordination Sequence:
#
# PCOD9514614 Si02
#       6
#    32  32  32  32  32  32
#     4  10  21  37  57  83 123 160 194 251 300 360
#     4  10  21  39  58  89 116 158 203 248 295 373
#     4   9  21  35  61  85 111 155 202 244 307 359
#     4  10  20  38  60  85 119 151 199 247 304 365
#     4  10  19  38  60  83 115 152 197 251 299 361
#     4  11  23  37  59  88 124 162 202 248 309 362
#
# _framework density 18.972373000000001
#
# number of rings (size 3 to 8) (size 9 to 14) (size 15 to 20)
#    0.000    2.000    1.667    2.000    4.667    6.667 
#    0.000    3.333    0.000    0.000    0.000    0.000 
#    0.000    0.000    0.000    0.000    0.000    0.000 
#
# Total GULP energy -267372.585005 kJ/mol
# GULP energy per Si atom -5570.262188 kJ/mol
# Density = 1.892919 g / cm^3
# Si number density = 18.972373 Si / 1000 Ang^3
#
#
#
# Elastic Constant Matrix: (Units=GPa)
#
#
# Indices 1 2 3 4 5 6 
#
# 1 69.6262 -1.3648 5.1056 0.0000 0.0000 0.0000
# 2 -1.3648 14.5681 4.4640 0.0000 0.0000 0.0000
# 3 5.1056 4.4640 81.3571 0.0000 0.0000 0.0000
# 4 0.0000 0.0000 0.0000 26.9887 0.0000 0.0000
# 5 0.0000 0.0000 0.0000 0.0000 25.1458 0.0000
# 6 0.0000 0.0000 0.0000 0.0000 0.0000 16.1983
#
#
#
# Elastic Compliance Matrix: (Units=1/GPa)
#
#
# Indices 1 2 3 4 5 6 
#
# 1 0.014468 0.001662 -0.000999 0.000000 0.000000 0.000000
# 2 0.001662 0.070008 -0.003946 0.000000 0.000000 0.000000
# 3 -0.000999 -0.003946 0.012571 0.000000 0.000000 0.000000
# 4 0.000000 0.000000 0.000000 0.037052 0.000000 0.000000
# 5 0.000000 0.000000 0.000000 0.000000 0.039768 0.000000
# 6 0.000000 0.000000 0.000000 0.000000 0.000000 0.061735
#
#
# Mechanical properties :
#
#
# Convention : Reuss Voigt Hill
#
# Bulk Modulus (GPa) = 11.05210 20.21789 15.63500
# Shear Modulus (GPa) = 18.36019 24.15635 21.25827
#
# Velocity S-wave (km/s) = 3.11422 3.57212 3.35100
# Velocity P-wave (km/s) = 4.33234 5.26241 4.81986
#
# Compressibility (1/GPa) = 0.09048051
#
# Stress axis : x y z
#
# Youngs Moduli (GPa) = 69.11682 14.28415 79.55022
#
# Poissons Ratio (x) = -0.02374 0.07948
# Poissons Ratio (y) = -0.11485 0.31387
# Poissons Ratio (z) = 0.06906 0.05636
#
# Static dielectric constant tensor:
#      x y z
#    x 1.680600 0.000000 0.000000 
#    y 0.000000 1.682580 0.000000 
#    z 0.000000 0.000000 1.676410 
# 
# From -- ./inp_files/52981.got.cif
#   From: 2010.05.17/outbox.cif.g08.bks.cpg/sg70_27_cif.got.tgz:52981.got - 2010.06.03 15:57:51.
