data_PCOD9514028
_publ_section_title
;
Structure prediction by ZEFSAII (Michael W. Deem and Ramdas Pophale) SiO2 
 PCOD9514028
Probable space group: F M M M
;
_chemical_formula_sum "Si O2"
_cell_formula_units_Z 28
_cell_length_a 24.000000
_cell_length_b 15.000000
_cell_length_c 15.000000
_cell_angle_alpha 90.000000
_cell_angle_beta 90.000000
_cell_angle_gamma 90.000000
_cell_volume 5400.000000
_symmetry_space_group_name_H-M "F M M M"
_symmetry_group_IT_number 69
_symmetry_cell_setting 'orthorhombic'
loop_
_space_group_symop_operation_xyz
x,y,z
-x,-y,z
x,-y,-z
-x,y,-z
-x,-y,-z
x,y,-z
-x,y,z
x,-y,z
x,1/2+y,1/2+z
-x,1/2-y,1/2+z
x,1/2-y,1/2-z
-x,1/2+y,1/2-z
-x,1/2-y,1/2-z
x,1/2+y,1/2-z
-x,1/2+y,1/2+z
x,1/2-y,1/2+z
1/2+x,y,1/2+z
1/2-x,-y,1/2+z
1/2+x,-y,1/2-z
1/2-x,y,1/2-z
1/2-x,-y,1/2-z
1/2+x,y,1/2-z
1/2-x,y,1/2+z
1/2+x,-y,1/2+z
1/2+x,1/2+y,z
1/2-x,1/2-y,z
1/2+x,1/2-y,-z
1/2-x,1/2+y,-z
1/2-x,1/2-y,-z
1/2+x,1/2+y,-z
1/2-x,1/2+y,z
1/2+x,1/2-y,z
loop_
_atom_site_type_symbol
_atom_site_label
_atom_site_fract_x
_atom_site_fract_y
_atom_site_fract_z
Si Si1 0.933453 0.393627 0.000000
Si Si2 0.774059 0.848240 0.397193
Si Si3 0.701447 0.500000 0.169862
Si Si4 0.890903 0.662767 0.187371
Si Si5 0.434204 0.000000 0.706477
O O1 0.914158 0.338501 0.913138
O O2 0.913605 0.500000 0.000000
O O3 0.000000 0.398802 0.000000
O O4 0.793662 0.858018 0.500000
O O5 0.750000 0.750000 0.383621
O O6 0.722489 0.913329 0.382283
O O7 0.825964 0.864232 0.330085
O O8 0.750000 0.500000 0.250000
O O9 0.632773 0.500000 0.170221
O O10 0.892017 0.750000 0.250000
O O11 0.928404 0.588614 0.235230
O O12 0.500000 0.000000 0.668176
#
# Coordination Sequence:
#
# PCOD9514028 Si02
#       5
#    16  32  16  32  16
#     4  11  24  44  69 101 145 197 248 306 360 423
#     4  11  24  42  68 101 137 178 232 296 359 430
#     4  12  23  40  69 101 131 181 231 290 352 424
#     4  12  24  42  73 107 145 190 244 304 370 437
#     4  12  26  43  66 101 144 188 242 300 362 435
#
# _framework density 5.1851849999999997
#
# number of rings (size 3 to 8) (size 9 to 14) (size 15 to 20)
#    0.000    0.429    5.714    3.000    0.000    2.286 
#    0.000    0.000    0.000    1.714    0.000    0.000 
#    0.000    0.000    0.000    0.000    0.000    0.000 
#
# Total GULP energy -155894.034779 kJ/mol
# GULP energy per Si atom -5567.644099 kJ/mol
# Density = 0.517338 g / cm^3
# Si number density = 5.185185 Si / 1000 Ang^3
#
#
#
# Elastic Constant Matrix: (Units=GPa)
#
#
# Indices 1 2 3 4 5 6 
#
# 1 154.2975 46.6986 35.7017 0.0000 0.0000 0.0000
# 2 46.6986 109.6007 49.7938 0.0000 0.0000 0.0000
# 3 35.7017 49.7938 71.2158 0.0000 0.0000 0.0000
# 4 0.0000 0.0000 0.0000 34.3828 0.0000 0.0000
# 5 0.0000 0.0000 0.0000 0.0000 34.5142 0.0000
# 6 0.0000 0.0000 0.0000 0.0000 0.0000 93.5573
#
#
#
# Elastic Compliance Matrix: (Units=1/GPa)
#
#
# Indices 1 2 3 4 5 6 
#
# 1 0.007687 -0.002234 -0.002292 0.000000 0.000000 0.000000
# 2 -0.002234 0.014021 -0.008683 0.000000 0.000000 0.000000
# 3 -0.002292 -0.008683 0.021262 0.000000 0.000000 0.000000
# 4 0.000000 0.000000 0.000000 0.029084 0.000000 0.000000
# 5 0.000000 0.000000 0.000000 0.000000 0.028974 0.000000
# 6 0.000000 0.000000 0.000000 0.000000 0.000000 0.010689
#
#
# Mechanical properties :
#
#
# Convention : Reuss Voigt Hill
#
# Bulk Modulus (GPa) = 60.41594 66.61135 63.51365
# Shear Modulus (GPa) = 34.80606 46.01883 40.41245
#
# Velocity S-wave (km/s) = 4.10097 4.71549 4.41892
# Velocity P-wave (km/s) = 7.18445 7.86344 7.53160
#
# Compressibility (1/GPa) = 0.01655192
#
# Stress axis : x y z
#
# Youngs Moduli (GPa) = 130.08204 71.32122 47.03215
#
# Poissons Ratio (x) = 0.15936 0.10778
# Poissons Ratio (y) = 0.29065 0.40840
# Poissons Ratio (z) = 0.29810 0.61931
#
# Static dielectric constant tensor:
#      x y z
#    x 1.797010 0.000000 0.000000 
#    y 0.000000 1.784670 0.000000 
#    z 0.000000 0.000000 1.815770 
# 
# From -- ./inp_files/14121.got.cif
#   From: 2010.05.17/outbox.ucp.g08.bks.cvg/sg69_8_cif.got.tgz:14121.got - 2010.06.11 16:51:34.
