data_PCOD9514770
_publ_section_title
;
Structure prediction by ZEFSAII (Michael W. Deem and Ramdas Pophale) SiO2 
 PCOD9514770
Probable space group: F D D D
;
_chemical_formula_sum "Si O2"
_cell_formula_units_Z 208
_cell_length_a 15.706471
_cell_length_b 31.017509
_cell_length_c 20.482923
_cell_angle_alpha 90.000000
_cell_angle_beta 90.000000
_cell_angle_gamma 90.000000
_cell_volume 9978.780417
_symmetry_space_group_name_H-M "F D D D"
_symmetry_group_IT_number 70
_space_group.IT_coordinate_system_code '2'
_symmetry_cell_setting 'orthorhombic'
loop_
_space_group_symop_operation_xyz
x,y,z
1/4-x,1/4-y,z
x,1/4-y,1/4-z
1/4-x,y,1/4-z
-x,-y,-z
3/4+x,3/4+y,-z
-x,3/4+y,3/4+z
3/4+x,-y,3/4+z
x,1/2+y,1/2+z
1/4-x,3/4-y,1/2+z
x,3/4-y,3/4-z
1/4-x,1/2+y,3/4-z
-x,1/2-y,1/2-z
3/4+x,1/4+y,1/2-z
-x,1/4+y,1/4+z
3/4+x,1/2-y,1/4+z
1/2+x,y,1/2+z
3/4-x,1/4-y,1/2+z
1/2+x,1/4-y,3/4-z
3/4-x,y,3/4-z
1/2-x,-y,1/2-z
1/4+x,3/4+y,1/2-z
1/2-x,3/4+y,1/4+z
1/4+x,-y,1/4+z
1/2+x,1/2+y,z
3/4-x,3/4-y,z
1/2+x,3/4-y,1/4-z
3/4-x,1/2+y,1/4-z
1/2-x,1/2-y,-z
1/4+x,1/4+y,-z
1/2-x,1/4+y,3/4+z
1/4+x,1/2-y,3/4+z
loop_
_atom_site_type_symbol
_atom_site_label
_atom_site_fract_x
_atom_site_fract_y
_atom_site_fract_z
Si Si1 0.524967 0.375000 0.375000
Si Si2 0.186944 0.376621 0.069177
Si Si3 0.443601 0.956415 0.705558
Si Si4 0.125000 0.625000 0.443848
Si Si5 0.320398 0.524452 0.436338
Si Si6 0.619582 0.219871 0.813428
Si Si7 0.125000 0.625000 0.021439
Si Si8 0.617581 0.313122 0.470326
O O1 0.458418 0.383513 0.433937
O O2 0.581880 0.335492 0.403596
O O3 0.125000 0.359991 0.125000
O O4 0.284573 0.378194 0.092241
O O5 0.158626 0.425356 0.053737
O O6 0.177825 0.347387 0.005674
O O7 0.433406 0.963556 0.629381
O O8 0.386867 0.916549 0.727518
O O9 0.537033 0.944624 0.731954
O O10 0.415310 0.997471 0.748374
O O11 0.119532 0.576326 0.474833
O O12 0.375000 0.507835 0.375000
O O13 0.219728 0.521920 0.420575
O O14 0.591470 0.265858 0.785084
#
# Coordination Sequence:
#
# PCOD9514770 Si02
#       8
#    16  32  32  16  32  32  16  32
#     4   9  20  34  52  83 124 154 194 241 290 363
#     4  10  21  40  63  86 117 156 194 251 298 354
#     4  10  20  34  55  80 121 156 197 236 289 358
#     4  10  21  40  61  83 119 145 203 244 292 350
#     4   9  21  34  50  82 118 151 198 236 291 353
#     4  10  21  36  57  86 111 157 194 247 293 354
#     4   9  19  32  53  80 122 167 194 234 288 351
#     4  10  22  37  58  88 114 149 199 240 303 351
#
# _framework density 20.84423
#
# number of rings (size 3 to 8) (size 9 to 14) (size 15 to 20)
#    0.000    2.308    0.000    1.385    8.615    7.385 
#    0.000    0.769    0.000    0.462    0.000    0.000 
#    0.000    0.000    0.000    0.000    0.000    0.000 
#
# Total GULP energy -289765.882225 kJ/mol
# GULP energy per Si atom -5572.420812 kJ/mol
# Density = 2.079679 g / cm^3
# Si number density = 20.844230 Si / 1000 Ang^3
#
#
#
# Elastic Constant Matrix: (Units=GPa)
#
#
# Indices 1 2 3 4 5 6 
#
# 1 52.9457 9.2319 6.3923 0.0000 0.0000 0.0000
# 2 9.2319 144.2006 45.9582 0.0000 0.0000 0.0000
# 3 6.3923 45.9582 50.6322 0.0000 0.0000 0.0000
# 4 0.0000 0.0000 0.0000 23.1067 0.0000 0.0000
# 5 0.0000 0.0000 0.0000 0.0000 12.7487 0.0000
# 6 0.0000 0.0000 0.0000 0.0000 0.0000 25.4461
#
#
#
# Elastic Compliance Matrix: (Units=1/GPa)
#
#
# Indices 1 2 3 4 5 6 
#
# 1 0.019222 -0.000643 -0.001843 0.000000 0.000000 0.000000
# 2 -0.000643 0.009779 -0.008795 0.000000 0.000000 0.000000
# 3 -0.001843 -0.008795 0.027966 0.000000 0.000000 0.000000
# 4 0.000000 0.000000 0.000000 0.043278 0.000000 0.000000
# 5 0.000000 0.000000 0.000000 0.000000 0.078439 0.000000
# 6 0.000000 0.000000 0.000000 0.000000 0.000000 0.039299
#
#
# Mechanical properties :
#
#
# Convention : Reuss Voigt Hill
#
# Bulk Modulus (GPa) = 29.06585 41.21590 35.14088
# Shear Modulus (GPa) = 19.84022 24.67338 22.25680
#
# Velocity S-wave (km/s) = 3.08853 3.44423 3.27122
# Velocity P-wave (km/s) = 5.16655 5.96935 5.58240
#
# Compressibility (1/GPa) = 0.03440464
#
# Stress axis : x y z
#
# Youngs Moduli (GPa) = 52.02386 102.25939 35.75750
#
# Poissons Ratio (x) = 0.06578 0.06590
# Poissons Ratio (y) = 0.03347 0.31449
# Poissons Ratio (z) = 0.09587 0.89938
#
# Static dielectric constant tensor:
#      x y z
#    x 1.766280 0.000000 0.000000 
#    y 0.000000 1.812810 0.000000 
#    z 0.000000 0.000000 1.740640 
# 
# From -- ./inp_files/44098.got.cif
#   From: 2010.05.17/outbox.cif.g08.bks.cpg/sg70_23_cif.got.tgz:44098.got - 2010.06.03 15:57:51.
