data_PCOD9514787
_publ_section_title
;
Structure prediction by ZEFSAII (Michael W. Deem and Ramdas Pophale) SiO2 
 PCOD9514787
Probable space group: F D D D
;
_chemical_formula_sum "Si O2"
_cell_formula_units_Z 240
_cell_length_a 19.906764
_cell_length_b 31.837789
_cell_length_c 19.297186
_cell_angle_alpha 90.000000
_cell_angle_beta 90.000000
_cell_angle_gamma 90.000000
_cell_volume 12230.312414
_symmetry_space_group_name_H-M "F D D D"
_symmetry_group_IT_number 70
_space_group.IT_coordinate_system_code '2'
_symmetry_cell_setting 'orthorhombic'
loop_
_space_group_symop_operation_xyz
x,y,z
1/4-x,1/4-y,z
x,1/4-y,1/4-z
1/4-x,y,1/4-z
-x,-y,-z
3/4+x,3/4+y,-z
-x,3/4+y,3/4+z
3/4+x,-y,3/4+z
x,1/2+y,1/2+z
1/4-x,3/4-y,1/2+z
x,3/4-y,3/4-z
1/4-x,1/2+y,3/4-z
-x,1/2-y,1/2-z
3/4+x,1/4+y,1/2-z
-x,1/4+y,1/4+z
3/4+x,1/2-y,1/4+z
1/2+x,y,1/2+z
3/4-x,1/4-y,1/2+z
1/2+x,1/4-y,3/4-z
3/4-x,y,3/4-z
1/2-x,-y,1/2-z
1/4+x,3/4+y,1/2-z
1/2-x,3/4+y,1/4+z
1/4+x,-y,1/4+z
1/2+x,1/2+y,z
3/4-x,3/4-y,z
1/2+x,3/4-y,1/4-z
3/4-x,1/2+y,1/4-z
1/2-x,1/2-y,-z
1/4+x,1/4+y,-z
1/2-x,1/4+y,3/4+z
1/4+x,1/2-y,3/4+z
loop_
_atom_site_type_symbol
_atom_site_label
_atom_site_fract_x
_atom_site_fract_y
_atom_site_fract_z
Si Si1 0.279593 0.914774 0.928610
Si Si2 0.940099 0.450569 0.684528
Si Si3 0.137591 0.424284 0.382761
Si Si4 0.674070 0.247075 0.687400
Si Si5 0.308457 0.967157 0.225740
Si Si6 0.986644 0.827045 0.853383
Si Si7 0.125000 0.237744 0.625000
Si Si8 0.923381 0.512502 0.015116
O O1 0.288710 0.875000 0.875000
O O2 0.200696 0.924949 0.933497
O O3 0.315576 0.955204 0.894380
O O4 0.307019 0.913038 0.007927
O O5 0.943692 0.448510 0.601207
O O6 0.871372 0.475669 0.700534
O O7 0.007911 0.477337 0.699578
O O8 0.126366 0.375000 0.375000
O O9 0.063503 0.440172 0.400767
O O10 0.163562 0.447369 0.313693
O O11 0.625000 0.264314 0.625000
O O12 0.628537 0.239560 0.754635
O O13 0.698957 0.202436 0.657824
O O14 0.297938 0.929572 0.279847
O O15 0.250000 0.000000 0.250000
O O16 0.984446 0.875000 0.875000
O O17 0.109203 0.266630 0.689868
O O18 0.000000 0.500000 0.000000
#
# Coordination Sequence:
#
# PCOD9514787 Si02
#       8
#    32  32  32  32  32  32  16  32
#     4  10  22  38  61  85 120 168 213 259 331 379
#     4  11  23  36  62  96 125 164 218 269 311 385
#     4  10  20  38  65  87 122 167 208 257 323 397
#     4  10  20  34  60  92 125 169 205 260 318 384
#     4  11  21  37  61  96 129 164 210 262 311 387
#     4  10  21  39  64  90 130 172 205 251 328 396
#     4  10  21  36  64  84 112 160 200 280 310 372
#     4  11  21  38  61  95 119 157 212 262 316 377
#
# _framework density 19.623374999999999
#
# number of rings (size 3 to 8) (size 9 to 14) (size 15 to 20)
#    0.000    1.600    5.333    0.200    3.733    2.400 
#    0.000    0.000   23.467    0.000    0.000    0.000 
#    0.000    0.000    0.000    0.000    0.000    0.000 
#
# Total GULP energy -334214.659898 kJ/mol
# GULP energy per Si atom -5570.244332 kJ/mol
# Density = 1.957871 g / cm^3
# Si number density = 19.623375 Si / 1000 Ang^3
#
#
#
# Elastic Constant Matrix: (Units=GPa)
#
#
# Indices 1 2 3 4 5 6 
#
# 1 123.7706 25.5547 15.0773 0.0000 0.0000 0.0000
# 2 25.5547 66.8065 50.0065 0.0000 0.0000 0.0000
# 3 15.0773 50.0065 133.1763 0.0000 0.0000 0.0000
# 4 0.0000 0.0000 0.0000 33.8161 0.0000 0.0000
# 5 0.0000 0.0000 0.0000 0.0000 14.0591 0.0000
# 6 0.0000 0.0000 0.0000 0.0000 0.0000 19.4085
#
#
#
# Elastic Compliance Matrix: (Units=1/GPa)
#
#
# Indices 1 2 3 4 5 6 
#
# 1 0.008785 -0.003639 0.000372 0.000000 0.000000 0.000000
# 2 -0.003639 0.022328 -0.007972 0.000000 0.000000 0.000000
# 3 0.000372 -0.007972 0.010460 0.000000 0.000000 0.000000
# 4 0.000000 0.000000 0.000000 0.029572 0.000000 0.000000
# 5 0.000000 0.000000 0.000000 0.000000 0.071128 0.000000
# 6 0.000000 0.000000 0.000000 0.000000 0.000000 0.051524
#
#
# Mechanical properties :
#
#
# Convention : Reuss Voigt Hill
#
# Bulk Modulus (GPa) = 52.36894 56.11450 54.24172
# Shear Modulus (GPa) = 22.45776 28.99774 25.72775
#
# Velocity S-wave (km/s) = 3.38663 3.84828 3.62481
# Velocity P-wave (km/s) = 6.48362 6.95726 6.72461
#
# Compressibility (1/GPa) = 0.01909529
#
# Stress axis : x y z
#
# Youngs Moduli (GPa) = 113.82413 44.78745 95.60109
#
# Poissons Ratio (x) = 0.16297 -0.03554
# Poissons Ratio (y) = 0.41419 0.76212
# Poissons Ratio (z) = -0.04231 0.35704
#
# Static dielectric constant tensor:
#      x y z
#    x 1.765300 0.000000 0.000000 
#    y 0.000000 1.809540 0.000000 
#    z 0.000000 0.000000 1.722370 
# 
# From -- ./inp_files/45273.got.cif
#   From: 2010.05.17/outbox.cif.g08.bks.cpg/sg70_23_cif.got.tgz:45273.got - 2010.06.03 15:57:51.
