data_PCOD9514463
_publ_section_title
;
Structure prediction by ZEFSAII (Michael W. Deem and Ramdas Pophale) SiO2 
 PCOD9514463
Probable space group: F D D D
;
_chemical_formula_sum "Si O2"
_cell_formula_units_Z 80
_cell_length_a 8.092416
_cell_length_b 15.893813
_cell_length_c 24.764551
_cell_angle_alpha 90.000000
_cell_angle_beta 90.000000
_cell_angle_gamma 90.000000
_cell_volume 3185.200369
_symmetry_space_group_name_H-M "F D D D"
_symmetry_group_IT_number 70
_space_group.IT_coordinate_system_code '2'
_symmetry_cell_setting 'orthorhombic'
loop_
_space_group_symop_operation_xyz
x,y,z
1/4-x,1/4-y,z
x,1/4-y,1/4-z
1/4-x,y,1/4-z
-x,-y,-z
3/4+x,3/4+y,-z
-x,3/4+y,3/4+z
3/4+x,-y,3/4+z
x,1/2+y,1/2+z
1/4-x,3/4-y,1/2+z
x,3/4-y,3/4-z
1/4-x,1/2+y,3/4-z
-x,1/2-y,1/2-z
3/4+x,1/4+y,1/2-z
-x,1/4+y,1/4+z
3/4+x,1/2-y,1/4+z
1/2+x,y,1/2+z
3/4-x,1/4-y,1/2+z
1/2+x,1/4-y,3/4-z
3/4-x,y,3/4-z
1/2-x,-y,1/2-z
1/4+x,3/4+y,1/2-z
1/2-x,3/4+y,1/4+z
1/4+x,-y,1/4+z
1/2+x,1/2+y,z
3/4-x,3/4-y,z
1/2+x,3/4-y,1/4-z
3/4-x,1/2+y,1/4-z
1/2-x,1/2-y,-z
1/4+x,1/4+y,-z
1/2-x,1/4+y,3/4+z
1/4+x,1/2-y,3/4+z
loop_
_atom_site_type_symbol
_atom_site_label
_atom_site_fract_x
_atom_site_fract_y
_atom_site_fract_z
Si Si1 0.625000 0.788297 0.125000
Si Si2 0.579663 0.821378 0.925910
Si Si3 0.565884 0.843635 0.534664
O O1 0.487872 0.730217 0.152804
O O2 0.576260 0.852321 0.076897
O O3 0.531238 0.875000 0.875000
O O4 0.448802 0.753386 0.948514
O O5 0.629764 0.882211 0.974913
O O6 0.375000 0.875000 0.539032
#
# Coordination Sequence:
#
# PCOD9514463 Si02
#       3
#    16  32  32
#     4  10  19  34  55  84 116 144 184 234 277 334
#     4  11  20  35  59  86 113 150 191 236 281 333
#     4  10  20  34  57  87 114 146 190 234 280 336
#
# _framework density 25.116159
#
# number of rings (size 3 to 8) (size 9 to 14) (size 15 to 20)
#    0.000    1.600    0.000   10.200    0.000    0.000 
#    0.000    3.000    0.000   14.400    0.000    0.000 
#    0.000    0.000    0.000    0.000    0.000    0.000 
#
# Total GULP energy -111970.374656 kJ/mol
# GULP energy per Si atom -5598.518733 kJ/mol
# Density = 2.505899 g / cm^3
# Si number density = 25.116159 Si / 1000 Ang^3
#
#
#
# Elastic Constant Matrix: (Units=GPa)
#
#
# Indices 1 2 3 4 5 6 
#
# 1 76.6721 62.1580 48.4198 0.0000 0.0000 0.0000
# 2 62.1580 196.3782 128.9590 0.0000 0.0000 0.0000
# 3 48.4198 128.9590 273.2040 0.0000 0.0000 0.0000
# 4 0.0000 0.0000 0.0000 56.1525 0.0000 0.0000
# 5 0.0000 0.0000 0.0000 0.0000 -30.6995 0.0000
# 6 0.0000 0.0000 0.0000 0.0000 0.0000 -4.1125
#
#
#
# Elastic Compliance Matrix: (Units=1/GPa)
#
#
# Indices 1 2 3 4 5 6 
#
# 1 0.017639 -0.005116 -0.000711 0.000000 0.000000 0.000000
# 2 -0.005116 0.008864 -0.003277 0.000000 0.000000 0.000000
# 3 -0.000711 -0.003277 0.005333 0.000000 0.000000 0.000000
# 4 0.000000 0.000000 0.000000 0.017809 0.000000 0.000000
# 5 0.000000 0.000000 0.000000 0.000000 -0.032574 0.000000
# 6 0.000000 0.000000 0.000000 0.000000 0.000000 -0.243161
#
#
# Mechanical properties :
#
#
# Convention : Reuss Voigt Hill
#
# Bulk Modulus (GPa) = 73.38298 113.92533 93.65416
# Shear Modulus (GPa) = -24.58956 24.71592 0.06318
#
# Velocity S-wave (km/s) = -3.13235 3.14038 0.15878
# Velocity P-wave (km/s) = 4.02477 7.65553 6.11580
#
# Compressibility (1/GPa) = 0.01362714
#
# Stress axis : x y z
#
# Youngs Moduli (GPa) = 56.69119 112.82039 187.50446
#
# Poissons Ratio (x) = 0.57721 0.13336
# Poissons Ratio (y) = 0.29004 0.61447
# Poissons Ratio (z) = 0.04032 0.36973
#
# Static dielectric constant tensor:
#      x y z
#    x 2.355920 0.000000 0.000000 
#    y 0.000000 2.043130 0.000000 
#    z 0.000000 0.000000 1.997920 
# 
# From -- ./inp_files/10141.got.cif
#   From: 2010.05.17/outbox.cif.g08.bks.cpg/sg70_6_cif.got.tgz:10141.got - 2010.06.03 15:57:51.
