data_PCOD9514379
_publ_section_title
;
Structure prediction by ZEFSAII (Michael W. Deem and Ramdas Pophale) SiO2 
 PCOD9514379
Probable space group: F D D D
;
_chemical_formula_sum "Si O2"
_cell_formula_units_Z 128
_cell_length_a 10.205721
_cell_length_b 21.442319
_cell_length_c 22.948683
_cell_angle_alpha 90.000000
_cell_angle_beta 90.000000
_cell_angle_gamma 90.000000
_cell_volume 5021.959561
_symmetry_space_group_name_H-M "F D D D"
_symmetry_group_IT_number 70
_space_group.IT_coordinate_system_code '2'
_symmetry_cell_setting 'orthorhombic'
loop_
_space_group_symop_operation_xyz
x,y,z
1/4-x,1/4-y,z
x,1/4-y,1/4-z
1/4-x,y,1/4-z
-x,-y,-z
3/4+x,3/4+y,-z
-x,3/4+y,3/4+z
3/4+x,-y,3/4+z
x,1/2+y,1/2+z
1/4-x,3/4-y,1/2+z
x,3/4-y,3/4-z
1/4-x,1/2+y,3/4-z
-x,1/2-y,1/2-z
3/4+x,1/4+y,1/2-z
-x,1/4+y,1/4+z
3/4+x,1/2-y,1/4+z
1/2+x,y,1/2+z
3/4-x,1/4-y,1/2+z
1/2+x,1/4-y,3/4-z
3/4-x,y,3/4-z
1/2-x,-y,1/2-z
1/4+x,3/4+y,1/2-z
1/2-x,3/4+y,1/4+z
1/4+x,-y,1/4+z
1/2+x,1/2+y,z
3/4-x,3/4-y,z
1/2+x,3/4-y,1/4-z
3/4-x,1/2+y,1/4-z
1/2-x,1/2-y,-z
1/4+x,1/4+y,-z
1/2-x,1/4+y,3/4+z
1/4+x,1/2-y,3/4+z
loop_
_atom_site_type_symbol
_atom_site_label
_atom_site_fract_x
_atom_site_fract_y
_atom_site_fract_z
Si Si1 0.375000 0.875000 0.231232
Si Si2 0.625000 0.948661 0.625000
Si Si3 0.648266 0.854739 0.938700
Si Si4 0.421129 0.982881 0.143057
Si Si5 0.768138 0.654317 0.459780
O O1 0.474509 0.839159 0.273502
O O2 0.437092 0.926574 0.188818
O O3 0.762856 0.984154 0.631425
O O4 0.597412 0.901865 0.678433
O O5 0.689266 0.875000 0.875000
O O6 0.550898 0.797198 0.926008
O O7 0.580355 0.909658 0.976350
O O8 0.499131 0.961570 0.085174
O O9 0.625000 0.625000 0.466487
#
# Coordination Sequence:
#
# PCOD9514379 Si02
#       5
#    16  16  32  32  32
#     4  12  23  44  70 108 141 192 250 312 372 436
#     4  10  18  40  71 104 137 182 254 292 370 446
#     4  12  28  43  67 111 150 189 250 308 374 450
#     4  11  23  43  77 103 144 200 242 321 368 445
#     4  10  21  43  70  98 138 195 245 288 371 452
#
# _framework density 25.488057999999999
#
# number of rings (size 3 to 8) (size 9 to 14) (size 15 to 20)
#    0.000    1.000    6.250    1.125    3.500    3.500 
#    0.000    5.000    0.000    1.500    0.000    0.000 
#    0.000    0.000    0.000    0.000    0.000    0.000 
#
# Total GULP energy -178866.084569 kJ/mol
# GULP energy per Si atom -5589.565143 kJ/mol
# Density = 2.543005 g / cm^3
# Si number density = 25.488058 Si / 1000 Ang^3
#
#
#
# Elastic Constant Matrix: (Units=GPa)
#
#
# Indices 1 2 3 4 5 6 
#
# 1 69.9562 2.6859 40.5060 0.0000 0.0000 0.0000
# 2 2.6859 97.9978 38.0921 0.0000 0.0000 0.0000
# 3 40.5060 38.0921 165.5333 0.0000 0.0000 0.0000
# 4 0.0000 0.0000 0.0000 29.3305 0.0000 0.0000
# 5 0.0000 0.0000 0.0000 0.0000 43.6251 0.0000
# 6 0.0000 0.0000 0.0000 0.0000 0.0000 27.7087
#
#
#
# Elastic Compliance Matrix: (Units=1/GPa)
#
#
# Indices 1 2 3 4 5 6 
#
# 1 0.016792 0.001249 -0.004396 0.000000 0.000000 0.000000
# 2 0.001249 0.011300 -0.002906 0.000000 0.000000 0.000000
# 3 -0.004396 -0.002906 0.007786 0.000000 0.000000 0.000000
# 4 0.000000 0.000000 0.000000 0.034094 0.000000 0.000000
# 5 0.000000 0.000000 0.000000 0.000000 0.022923 0.000000
# 6 0.000000 0.000000 0.000000 0.000000 0.000000 0.036090
#
#
# Mechanical properties :
#
#
# Convention : Reuss Voigt Hill
#
# Bulk Modulus (GPa) = 42.06913 55.11725 48.59319
# Shear Modulus (GPa) = 33.55377 36.94641 35.25009
#
# Velocity S-wave (km/s) = 3.63223 3.81144 3.72291
# Velocity P-wave (km/s) = 5.84226 6.40633 6.13079
#
# Compressibility (1/GPa) = 0.02377040
#
# Stress axis : x y z
#
# Youngs Moduli (GPa) = 59.55094 88.49890 128.44291
#
# Poissons Ratio (x) = -0.11051 0.56469
# Poissons Ratio (y) = -0.07436 0.37323
# Poissons Ratio (z) = 0.26181 0.25716
#
# Static dielectric constant tensor:
#      x y z
#    x 2.096300 0.000000 0.000000 
#    y 0.000000 2.009760 0.000000 
#    z 0.000000 0.000000 2.000620 
# 
# From -- ./inp_files/49957.got.cif
#   From: 2010.05.17/outbox.cif.g08.bks.cpg/sg70_25_cif.got.tgz:49957.got - 2010.06.03 15:57:51.
