data_PCOD9514528
_publ_section_title
;
Structure prediction by ZEFSAII (Michael W. Deem and Ramdas Pophale) SiO2 
 PCOD9514528
Probable space group: F D D D
;
_chemical_formula_sum "Si O2"
_cell_formula_units_Z 120
_cell_length_a 24.148513
_cell_length_b 25.758073
_cell_length_c 8.023352
_cell_angle_alpha 90.000000
_cell_angle_beta 90.000000
_cell_angle_gamma 90.000000
_cell_volume 4990.678677
_symmetry_space_group_name_H-M "F D D D"
_symmetry_group_IT_number 70
_space_group.IT_coordinate_system_code '2'
_symmetry_cell_setting 'orthorhombic'
loop_
_space_group_symop_operation_xyz
x,y,z
1/4-x,1/4-y,z
x,1/4-y,1/4-z
1/4-x,y,1/4-z
-x,-y,-z
3/4+x,3/4+y,-z
-x,3/4+y,3/4+z
3/4+x,-y,3/4+z
x,1/2+y,1/2+z
1/4-x,3/4-y,1/2+z
x,3/4-y,3/4-z
1/4-x,1/2+y,3/4-z
-x,1/2-y,1/2-z
3/4+x,1/4+y,1/2-z
-x,1/4+y,1/4+z
3/4+x,1/2-y,1/4+z
1/2+x,y,1/2+z
3/4-x,1/4-y,1/2+z
1/2+x,1/4-y,3/4-z
3/4-x,y,3/4-z
1/2-x,-y,1/2-z
1/4+x,3/4+y,1/2-z
1/2-x,3/4+y,1/4+z
1/4+x,-y,1/4+z
1/2+x,1/2+y,z
3/4-x,3/4-y,z
1/2+x,3/4-y,1/4-z
3/4-x,1/2+y,1/4-z
1/2-x,1/2-y,-z
1/4+x,1/4+y,-z
1/2-x,1/4+y,3/4+z
1/4+x,1/2-y,3/4+z
loop_
_atom_site_type_symbol
_atom_site_label
_atom_site_fract_x
_atom_site_fract_y
_atom_site_fract_z
Si Si1 0.375000 0.530842 0.375000
Si Si2 0.040676 0.548410 0.277238
Si Si3 0.375000 0.875000 0.875000
Si Si4 0.689766 0.566918 0.110876
Si Si5 0.080982 0.460896 0.778088
O O1 0.429887 0.497404 0.326424
O O2 0.390704 0.556510 0.550044
O O3 0.084291 0.593844 0.243923
O O4 0.042579 0.537073 0.472693
O O5 0.978561 0.565556 0.238984
O O6 0.716098 0.625000 0.125000
O O7 0.625000 0.575398 0.125000
O O8 0.689975 0.522467 0.967525
O O9 0.125000 0.455462 0.625000
#
# Coordination Sequence:
#
# PCOD9514528 Si02
#       5
#    16  32   8  32  32
#     4  11  22  39  62  98 126 172 226 278 328 394
#     4  11  22  40  66  95 133 170 225 286 330 401
#     4  10  24  40  70 104 120 166 232 290 334 400
#     4  10  19  35  61  95 131 171 218 271 326 383
#     4  11  23  41  64  95 135 178 225 270 342 406
#
# _framework density 24.044823999999998
#
# number of rings (size 3 to 8) (size 9 to 14) (size 15 to 20)
#    0.000    1.333    5.333    3.200    3.733    0.000 
#    0.000    0.000    5.867    0.000    0.000    0.000 
#    0.000    0.000    0.000    0.000    0.000    0.000 
#
# Total GULP energy -167063.472441 kJ/mol
# GULP energy per Si atom -5568.782415 kJ/mol
# Density = 2.399010 g / cm^3
# Si number density = 24.044824 Si / 1000 Ang^3
#
#
#
# Elastic Constant Matrix: (Units=GPa)
#
#
# Indices 1 2 3 4 5 6 
#
# 1 199.4374 15.9497 66.5731 0.0052 0.0020 0.0634
# 2 15.9497 37.1833 -0.8223 0.0089 0.0015 0.0848
# 3 66.5731 -0.8223 147.5480 0.0075 0.0093 0.2236
# 4 0.0052 0.0089 0.0075 8.5001 0.0045 0.1118
# 5 0.0020 0.0015 0.0093 0.0045 -37.7957 -0.0830
# 6 0.0634 0.0848 0.2236 0.1118 -0.0830 205.6828
#
#
#
# Elastic Compliance Matrix: (Units=1/GPa)
#
#
# Indices 1 2 3 4 5 6 
#
# 1 0.006164 -0.002706 -0.002796 0.000002 0.000000 0.000002
# 2 -0.002706 0.028085 0.001377 -0.000029 0.000001 -0.000012
# 3 -0.002796 0.001377 0.008047 -0.000007 0.000002 -0.000008
# 4 0.000002 -0.000029 -0.000007 0.117646 0.000014 -0.000064
# 5 0.000000 0.000001 0.000002 0.000014 -0.026458 -0.000011
# 6 0.000002 -0.000012 -0.000008 -0.000064 -0.000011 0.004862
#
#
# Mechanical properties :
#
#
# Convention : Reuss Voigt Hill
#
# Bulk Modulus (GPa) = 29.37175 60.84108 45.10641
# Shear Modulus (GPa) = 31.65682 55.44201 43.54941
#
# Velocity S-wave (km/s) = 3.63240 4.80706 4.26041
# Velocity P-wave (km/s) = 5.46209 7.49457 6.55755
#
# Compressibility (1/GPa) = 0.03404632
#
# Stress axis : x y z
#
# Youngs Moduli (GPa) = 162.23545 35.60629 124.27330
#
# Poissons Ratio (x) = 0.09634 0.34749
# Poissons Ratio (y) = 0.43898 -0.17117
# Poissons Ratio (z) = 0.45364 -0.04904
#
# Static dielectric constant tensor:
#      x y z
#    x 1.965500 0.000000 0.000000 
#    y 0.000000 2.118940 0.000000 
#    z 0.000000 0.000000 1.966950 
# 
# From -- ./inp_files/9807.got.cif
#   From: 2010.05.17/outbox.cif.g08.bks.cpg/sg70_5_cif.got.tgz:9807.got - 2010.06.03 15:57:51.
