data_PCOD9514644
_publ_section_title
;
Structure prediction by ZEFSAII (Michael W. Deem and Ramdas Pophale) SiO2 
 PCOD9514644
Probable space group: F D D D
;
_chemical_formula_sum "Si O2"
_cell_formula_units_Z 120
_cell_length_a 10.343236
_cell_length_b 15.835468
_cell_length_c 30.336854
_cell_angle_alpha 90.000000
_cell_angle_beta 90.000000
_cell_angle_gamma 90.000000
_cell_volume 4968.872792
_symmetry_space_group_name_H-M "F D D D"
_symmetry_group_IT_number 70
_space_group.IT_coordinate_system_code '2'
_symmetry_cell_setting 'orthorhombic'
loop_
_space_group_symop_operation_xyz
x,y,z
1/4-x,1/4-y,z
x,1/4-y,1/4-z
1/4-x,y,1/4-z
-x,-y,-z
3/4+x,3/4+y,-z
-x,3/4+y,3/4+z
3/4+x,-y,3/4+z
x,1/2+y,1/2+z
1/4-x,3/4-y,1/2+z
x,3/4-y,3/4-z
1/4-x,1/2+y,3/4-z
-x,1/2-y,1/2-z
3/4+x,1/4+y,1/2-z
-x,1/4+y,1/4+z
3/4+x,1/2-y,1/4+z
1/2+x,y,1/2+z
3/4-x,1/4-y,1/2+z
1/2+x,1/4-y,3/4-z
3/4-x,y,3/4-z
1/2-x,-y,1/2-z
1/4+x,3/4+y,1/2-z
1/2-x,3/4+y,1/4+z
1/4+x,-y,1/4+z
1/2+x,1/2+y,z
3/4-x,3/4-y,z
1/2+x,3/4-y,1/4-z
3/4-x,1/2+y,1/4-z
1/2-x,1/2-y,-z
1/4+x,1/4+y,-z
1/2-x,1/4+y,3/4+z
1/4+x,1/2-y,3/4+z
loop_
_atom_site_type_symbol
_atom_site_label
_atom_site_fract_x
_atom_site_fract_y
_atom_site_fract_z
Si Si1 0.717053 0.302727 0.297375
Si Si2 0.961923 0.507139 0.912610
Si Si3 0.875000 0.875000 0.652091
Si Si4 0.585275 0.405567 0.032848
Si Si5 0.125000 0.125000 0.125000
O O1 0.565830 0.291739 0.308224
O O2 0.724842 0.381209 0.264037
O O3 0.795714 0.220681 0.279954
O O4 0.785433 0.320664 0.343446
O O5 0.875000 0.463129 0.875000
O O6 0.883499 0.566679 0.946244
O O7 0.042454 0.569107 0.880916
O O8 0.780090 0.929515 0.683496
#
# Coordination Sequence:
#
# PCOD9514644 Si02
#       5
#    32  32  16  32   8
#     4  12  25  46  66 104 140 182 239 292 358 418
#     4  10  21  40  70 101 135 185 227 288 346 425
#     4  10  19  38  66  97 134 183 236 280 353 422
#     4  11  24  41  71 101 141 182 231 297 352 421
#     4  12  30  44  74  92 140 184 230 298 326 436
#
# _framework density 24.150348000000001
#
# number of rings (size 3 to 8) (size 9 to 14) (size 15 to 20)
#    0.000    1.067    2.667    3.200    1.867    8.533 
#    0.000    3.333    0.000    0.000    0.000    0.000 
#    0.000    0.000    0.000    0.000    0.000    0.000 
#
# Total GULP energy -167796.532131 kJ/mol
# GULP energy per Si atom -5593.217738 kJ/mol
# Density = 2.409538 g / cm^3
# Si number density = 24.150348 Si / 1000 Ang^3
#
#
#
# Elastic Constant Matrix: (Units=GPa)
#
#
# Indices 1 2 3 4 5 6 
#
# 1 76.7344 3.2851 13.2897 0.0000 0.0000 0.0000
# 2 3.2851 48.6314 15.5352 0.0000 0.0000 0.0000
# 3 13.2897 15.5352 112.5838 0.0000 0.0000 0.0000
# 4 0.0000 0.0000 0.0000 5.5039 0.0000 0.0000
# 5 0.0000 0.0000 0.0000 0.0000 23.7680 0.0000
# 6 0.0000 0.0000 0.0000 0.0000 0.0000 3.0758
#
#
#
# Elastic Compliance Matrix: (Units=1/GPa)
#
#
# Indices 1 2 3 4 5 6 
#
# 1 0.013312 -0.000416 -0.001514 0.000000 0.000000 0.000000
# 2 -0.000416 0.021524 -0.002921 0.000000 0.000000 0.000000
# 3 -0.001514 -0.002921 0.009464 0.000000 0.000000 0.000000
# 4 0.000000 0.000000 0.000000 0.181691 0.000000 0.000000
# 5 0.000000 0.000000 0.000000 0.000000 0.042073 0.000000
# 6 0.000000 0.000000 0.000000 0.000000 0.000000 0.325116
#
#
# Mechanical properties :
#
#
# Convention : Reuss Voigt Hill
#
# Bulk Modulus (GPa) = 28.90269 33.57438 31.23854
# Shear Modulus (GPa) = 8.13783 20.19219 14.16501
#
# Velocity S-wave (km/s) = 1.83765 2.89468 2.42447
# Velocity P-wave (km/s) = 4.06158 5.01046 4.56076
#
# Compressibility (1/GPa) = 0.03459885
#
# Stress axis : x y z
#
# Youngs Moduli (GPa) = 75.12037 46.45971 105.66301
#
# Poissons Ratio (x) = 0.01931 0.15998
# Poissons Ratio (y) = 0.03122 0.30864
# Poissons Ratio (z) = 0.11373 0.13571
#
# Static dielectric constant tensor:
#      x y z
#    x 2.226590 0.000000 0.000000 
#    y 0.000000 1.953010 0.000000 
#    z 0.000000 0.000000 1.883450 
# 
# From -- ./inp_files/16332.got.cif
#   From: 2010.05.17/outbox.cif.g08.bks.cpg/sg70_9_cif.got.tgz:16332.got - 2010.06.03 15:57:51.
