data_PCOD9514084
_publ_section_title
;
Structure prediction by ZEFSAII (Michael W. Deem and Ramdas Pophale) SiO2 
 PCOD9514084
Probable space group: F D D D
;
_chemical_formula_sum "Si O2"
_cell_formula_units_Z 176
_cell_length_a 21.456532
_cell_length_b 29.661339
_cell_length_c 15.334436
_cell_angle_alpha 90.000000
_cell_angle_beta 90.000000
_cell_angle_gamma 90.000000
_cell_volume 9759.286967
_symmetry_space_group_name_H-M "F D D D"
_symmetry_group_IT_number 70
_space_group.IT_coordinate_system_code '2'
_symmetry_cell_setting 'orthorhombic'
loop_
_space_group_symop_operation_xyz
x,y,z
1/4-x,1/4-y,z
x,1/4-y,1/4-z
1/4-x,y,1/4-z
-x,-y,-z
3/4+x,3/4+y,-z
-x,3/4+y,3/4+z
3/4+x,-y,3/4+z
x,1/2+y,1/2+z
1/4-x,3/4-y,1/2+z
x,3/4-y,3/4-z
1/4-x,1/2+y,3/4-z
-x,1/2-y,1/2-z
3/4+x,1/4+y,1/2-z
-x,1/4+y,1/4+z
3/4+x,1/2-y,1/4+z
1/2+x,y,1/2+z
3/4-x,1/4-y,1/2+z
1/2+x,1/4-y,3/4-z
3/4-x,y,3/4-z
1/2-x,-y,1/2-z
1/4+x,3/4+y,1/2-z
1/2-x,3/4+y,1/4+z
1/4+x,-y,1/4+z
1/2+x,1/2+y,z
3/4-x,3/4-y,z
1/2+x,3/4-y,1/4-z
3/4-x,1/2+y,1/4-z
1/2-x,1/2-y,-z
1/4+x,1/4+y,-z
1/2-x,1/4+y,3/4+z
1/4+x,1/2-y,3/4+z
loop_
_atom_site_type_symbol
_atom_site_label
_atom_site_fract_x
_atom_site_fract_y
_atom_site_fract_z
Si Si1 0.923097 0.164137 0.240468
Si Si2 0.991446 0.227736 0.346295
Si Si3 0.209250 0.047122 0.010524
Si Si4 0.105689 0.814452 0.025591
Si Si5 0.373134 0.746271 0.128801
Si Si6 0.032220 0.625000 0.625000
O O1 0.887189 0.117038 0.248543
O O2 0.885171 0.204048 0.194521
O O3 0.952172 0.182614 0.330399
O O4 0.984138 0.155770 0.180185
O O5 0.062273 0.225805 0.379714
O O6 0.000000 0.250000 0.250000
O O7 0.955998 0.259636 0.413737
O O8 0.183974 0.092620 0.056287
O O9 0.281758 0.055918 0.988636
O O10 0.175386 0.028968 0.925187
O O11 0.125000 0.808636 0.125000
O O12 0.139958 0.779008 0.962065
#
# Coordination Sequence:
#
# PCOD9514084 Si02
#       6
#    32  32  32  32  32  16
#     4  10  17  34  54  74 110 138 181 229 267 330
#     4   9  17  31  50  75 107 141 177 221 274 335
#     4  10  20  33  54  79 111 148 179 227 281 340
#     4  10  21  36  54  79 108 145 187 241 275 312
#     4  10  19  34  53  77 112 146 181 222 289 334
#     4  10  16  36  49  74 118 140 169 230 276 312
#
# _framework density 18.034103999999999
#
# number of rings (size 3 to 8) (size 9 to 14) (size 15 to 20)
#    0.000    2.182    7.273    0.000    2.545    2.909 
#    0.000    4.545    0.000    0.000    0.000    0.000 
#    0.000    0.000    0.000    0.000    0.000    0.000 
#
# Total GULP energy -245151.174532 kJ/mol
# GULP energy per Si atom -5571.617603 kJ/mol
# Density = 1.799306 g / cm^3
# Si number density = 18.034104 Si / 1000 Ang^3
#
#
#
# Elastic Constant Matrix: (Units=GPa)
#
#
# Indices 1 2 3 4 5 6 
#
# 1 23.0925 23.9710 18.2654 0.0000 0.0000 0.0000
# 2 23.9710 75.5550 38.4316 0.0000 0.0000 0.0000
# 3 18.2654 38.4316 96.7607 0.0000 0.0000 0.0000
# 4 0.0000 0.0000 0.0000 35.9516 0.0000 0.0000
# 5 0.0000 0.0000 0.0000 0.0000 20.8892 0.0000
# 6 0.0000 0.0000 0.0000 0.0000 0.0000 16.9322
#
#
#
# Elastic Compliance Matrix: (Units=1/GPa)
#
#
# Indices 1 2 3 4 5 6 
#
# 1 0.066623 -0.018472 -0.005240 0.000000 0.000000 0.000000
# 2 -0.018472 0.021708 -0.005135 0.000000 0.000000 0.000000
# 3 -0.005240 -0.005135 0.013363 0.000000 0.000000 0.000000
# 4 0.000000 0.000000 0.000000 0.027815 0.000000 0.000000
# 5 0.000000 0.000000 0.000000 0.000000 0.047872 0.000000
# 6 0.000000 0.000000 0.000000 0.000000 0.000000 0.059059
#
#
# Mechanical properties :
#
#
# Convention : Reuss Voigt Hill
#
# Bulk Modulus (GPa) = 22.72672 39.63826 31.18249
# Shear Modulus (GPa) = 16.19166 22.40393 19.29779
#
# Velocity S-wave (km/s) = 2.99964 3.52846 3.27474
# Velocity P-wave (km/s) = 4.96252 6.21509 5.62379
#
# Compressibility (1/GPa) = 0.04400107
#
# Stress axis : x y z
#
# Youngs Moduli (GPa) = 15.00979 46.06620 74.83120
#
# Poissons Ratio (x) = 0.85094 0.39209
# Poissons Ratio (y) = 0.27726 0.38426
# Poissons Ratio (z) = 0.07865 0.23655
#
# Static dielectric constant tensor:
#      x y z
#    x 1.652720 0.000000 0.000000 
#    y 0.000000 1.669350 0.000000 
#    z 0.000000 0.000000 1.650760 
# 
# From -- ./inp_files/28973.got.cif
#   From: 2010.05.17/outbox.cif.g08.bks.cpg/sg70_15_cif.got.tgz:28973.got - 2010.06.03 15:57:51.
