data_PCOD9514677
_publ_section_title
;
Structure prediction by ZEFSAII (Michael W. Deem and Ramdas Pophale) SiO2 
 PCOD9514677
Probable space group: F D D D
;
_chemical_formula_sum "Si O2"
_cell_formula_units_Z 136
_cell_length_a 17.004923
_cell_length_b 27.785592
_cell_length_c 12.347293
_cell_angle_alpha 90.000000
_cell_angle_beta 90.000000
_cell_angle_gamma 90.000000
_cell_volume 5833.995343
_symmetry_space_group_name_H-M "F D D D"
_symmetry_group_IT_number 70
_space_group.IT_coordinate_system_code '2'
_symmetry_cell_setting 'orthorhombic'
loop_
_space_group_symop_operation_xyz
x,y,z
1/4-x,1/4-y,z
x,1/4-y,1/4-z
1/4-x,y,1/4-z
-x,-y,-z
3/4+x,3/4+y,-z
-x,3/4+y,3/4+z
3/4+x,-y,3/4+z
x,1/2+y,1/2+z
1/4-x,3/4-y,1/2+z
x,3/4-y,3/4-z
1/4-x,1/2+y,3/4-z
-x,1/2-y,1/2-z
3/4+x,1/4+y,1/2-z
-x,1/4+y,1/4+z
3/4+x,1/2-y,1/4+z
1/2+x,y,1/2+z
3/4-x,1/4-y,1/2+z
1/2+x,1/4-y,3/4-z
3/4-x,y,3/4-z
1/2-x,-y,1/2-z
1/4+x,3/4+y,1/2-z
1/2-x,3/4+y,1/4+z
1/4+x,-y,1/4+z
1/2+x,1/2+y,z
3/4-x,3/4-y,z
1/2+x,3/4-y,1/4-z
3/4-x,1/2+y,1/4-z
1/2-x,1/2-y,-z
1/4+x,1/4+y,-z
1/2-x,1/4+y,3/4+z
1/4+x,1/2-y,3/4+z
loop_
_atom_site_type_symbol
_atom_site_label
_atom_site_fract_x
_atom_site_fract_y
_atom_site_fract_z
Si Si1 0.291776 0.844312 0.509213
Si Si2 0.433591 0.792811 0.021859
Si Si3 0.125000 0.729180 0.625000
Si Si4 0.625000 0.625000 0.625000
Si Si5 0.597017 0.375000 0.875000
Si Si6 0.423523 0.727441 0.597671
O O1 0.375000 0.875000 0.521330
O O2 0.279324 0.812083 0.615788
O O3 0.305520 0.807774 0.408133
O O4 0.213333 0.872731 0.477439
O O5 0.358355 0.763275 0.061345
O O6 0.633043 0.759842 0.232741
O O7 0.420591 0.840616 0.954752
O O8 0.262458 0.763263 0.810541
O O9 0.649909 0.423001 0.873932
#
# Coordination Sequence:
#
# PCOD9514677 Si02
#       6
#    32  32  16   8  16  32
#     4  11  20  38  68 101 134 181 231 289 362 429
#     4  11  26  45  70  99 141 188 242 300 365 432
#     4  10  19  40  63 100 134 175 226 297 348 430
#     4  12  26  48  70  92 140 194 246 296 356 438
#     4  12  22  38  68 102 146 180 238 294 364 436
#     4  11  25  42  67 104 142 185 236 300 365 431
#
# _framework density 23.311641000000002
#
# number of rings (size 3 to 8) (size 9 to 14) (size 15 to 20)
#    0.000    0.941    3.529    3.529    3.294    4.706 
#    0.000    3.529    0.000    0.000    0.000    0.000 
#    0.000    0.000    0.000    0.000    0.000    0.000 
#
# Total GULP energy -189723.780126 kJ/mol
# GULP energy per Si atom -5580.111180 kJ/mol
# Density = 2.325858 g / cm^3
# Si number density = 23.311641 Si / 1000 Ang^3
#
#
#
# Elastic Constant Matrix: (Units=GPa)
#
#
# Indices 1 2 3 4 5 6 
#
# 1 65.1653 9.2420 43.0027 0.0000 0.0000 0.0000
# 2 9.2420 82.0583 41.9568 0.0000 0.0000 0.0000
# 3 43.0027 41.9568 112.3253 0.0000 0.0000 0.0000
# 4 0.0000 0.0000 0.0000 42.3410 0.0000 0.0000
# 5 0.0000 0.0000 0.0000 0.0000 78.8467 0.0000
# 6 0.0000 0.0000 0.0000 0.0000 0.0000 47.9168
#
#
#
# Elastic Compliance Matrix: (Units=1/GPa)
#
#
# Indices 1 2 3 4 5 6 
#
# 1 0.020833 0.002140 -0.008775 0.000000 0.000000 0.000000
# 2 0.002140 0.015283 -0.006528 0.000000 0.000000 0.000000
# 3 -0.008775 -0.006528 0.014701 0.000000 0.000000 0.000000
# 4 0.000000 0.000000 0.000000 0.023618 0.000000 0.000000
# 5 0.000000 0.000000 0.000000 0.000000 0.012683 0.000000
# 6 0.000000 0.000000 0.000000 0.000000 0.000000 0.020870
#
#
# Mechanical properties :
#
#
# Convention : Reuss Voigt Hill
#
# Bulk Modulus (GPa) = 40.83150 49.77244 45.30197
# Shear Modulus (GPa) = 35.09355 44.84406 39.96881
#
# Velocity S-wave (km/s) = 3.88417 4.39073 4.14520
# Velocity P-wave (km/s) = 6.13753 6.86309 6.51042
#
# Compressibility (1/GPa) = 0.02449089
#
# Stress axis : x y z
#
# Youngs Moduli (GPa) = 48.00128 65.43099 68.02409
#
# Poissons Ratio (x) = -0.14005 0.59692
# Poissons Ratio (y) = -0.10274 0.44407
# Poissons Ratio (z) = 0.42122 0.42715
#
# Static dielectric constant tensor:
#      x y z
#    x 2.033210 0.000000 0.000000 
#    y 0.000000 1.959670 0.000000 
#    z 0.000000 0.000000 1.797350 
# 
# From -- ./inp_files/19444.got.cif
#   From: 2010.05.17/outbox.cif.g08.bks.cpg/sg70_10_cif.got.tgz:19444.got - 2010.06.03 15:57:51.
