data_PCOD9514169
_publ_section_title
;
Structure prediction by ZEFSAII (Michael W. Deem and Ramdas Pophale) SiO2 
 PCOD9514169
Probable space group: F D D D
;
_chemical_formula_sum "Si O2"
_cell_formula_units_Z 160
_cell_length_a 6.951207
_cell_length_b 26.073779
_cell_length_c 42.870420
_cell_angle_alpha 90.000000
_cell_angle_beta 90.000000
_cell_angle_gamma 90.000000
_cell_volume 7770.016481
_symmetry_space_group_name_H-M "F D D D"
_symmetry_group_IT_number 70
_space_group.IT_coordinate_system_code '2'
_symmetry_cell_setting 'orthorhombic'
loop_
_space_group_symop_operation_xyz
x,y,z
1/4-x,1/4-y,z
x,1/4-y,1/4-z
1/4-x,y,1/4-z
-x,-y,-z
3/4+x,3/4+y,-z
-x,3/4+y,3/4+z
3/4+x,-y,3/4+z
x,1/2+y,1/2+z
1/4-x,3/4-y,1/2+z
x,3/4-y,3/4-z
1/4-x,1/2+y,3/4-z
-x,1/2-y,1/2-z
3/4+x,1/4+y,1/2-z
-x,1/4+y,1/4+z
3/4+x,1/2-y,1/4+z
1/2+x,y,1/2+z
3/4-x,1/4-y,1/2+z
1/2+x,1/4-y,3/4-z
3/4-x,y,3/4-z
1/2-x,-y,1/2-z
1/4+x,3/4+y,1/2-z
1/2-x,3/4+y,1/4+z
1/4+x,-y,1/4+z
1/2+x,1/2+y,z
3/4-x,3/4-y,z
1/2+x,3/4-y,1/4-z
3/4-x,1/2+y,1/4-z
1/2-x,1/2-y,-z
1/4+x,1/4+y,-z
1/2-x,1/4+y,3/4+z
1/4+x,1/2-y,3/4+z
loop_
_atom_site_type_symbol
_atom_site_label
_atom_site_fract_x
_atom_site_fract_y
_atom_site_fract_z
Si Si1 0.159646 0.334146 0.275083
Si Si2 0.347585 0.610297 0.411727
Si Si3 0.205205 0.805423 0.276052
Si Si4 0.734451 0.477614 0.544034
Si Si5 0.060986 0.801047 0.545151
O O1 0.266947 0.289299 0.294094
O O2 0.216739 0.327172 0.238735
O O3 0.163790 0.393678 0.284460
O O4 0.931721 0.320377 0.276791
O O5 0.125000 0.625000 0.416633
O O6 0.375000 0.605651 0.375000
O O7 0.367910 0.556867 0.430088
O O8 0.461959 0.657633 0.427483
O O9 0.166609 0.791221 0.240016
O O10 0.194669 0.752536 0.295366
O O11 0.962886 0.464501 0.545515
#
# Coordination Sequence:
#
# PCOD9514169 Si02
#       5
#    32  32  32  32  32
#     4   8  11  17  32  55  83 110 134 175 234 281
#     4  10  18  28  40  58  87 123 156 188 224 273
#     4   8  11  17  32  55  83 110 134 176 237 279
#     4   8  13  20  32  54  84 112 141 179 226 278
#     4   8  13  20  32  54  84 111 138 178 230 276
#
# _framework density 20.591977
#
# number of rings (size 3 to 8) (size 9 to 14) (size 15 to 20)
#    0.000    3.600    2.000    2.400    0.000    0.000 
#    0.000    0.000    0.000    0.000    0.000   30.800 
#    0.000    1.600    0.000    0.000    0.000    0.000 
#
# Total GULP energy -223261.314170 kJ/mol
# GULP energy per Si atom -5581.532854 kJ/mol
# Density = 2.054511 g / cm^3
# Si number density = 20.591977 Si / 1000 Ang^3
#
#
#
# Elastic Constant Matrix: (Units=GPa)
#
#
# Indices 1 2 3 4 5 6 
#
# 1 75.4588 68.5756 15.8342 0.0000 0.0000 0.0000
# 2 68.5756 255.2414 102.2843 0.0000 0.0000 0.0000
# 3 15.8342 102.2843 110.1316 0.0000 0.0000 0.0000
# 4 0.0000 0.0000 0.0000 83.2603 0.0000 0.0000
# 5 0.0000 0.0000 0.0000 0.0000 17.2046 0.0000
# 6 0.0000 0.0000 0.0000 0.0000 0.0000 55.2671
#
#
#
# Elastic Compliance Matrix: (Units=1/GPa)
#
#
# Indices 1 2 3 4 5 6 
#
# 1 0.018158 -0.006104 0.003059 0.000000 0.000000 0.000000
# 2 -0.006104 0.008292 -0.006824 0.000000 0.000000 0.000000
# 3 0.003059 -0.006824 0.014978 0.000000 0.000000 0.000000
# 4 0.000000 0.000000 0.000000 0.012011 0.000000 0.000000
# 5 0.000000 0.000000 0.000000 0.000000 0.058124 0.000000
# 6 0.000000 0.000000 0.000000 0.000000 0.000000 0.018094
#
#
# Mechanical properties :
#
#
# Convention : Reuss Voigt Hill
#
# Bulk Modulus (GPa) = 46.10599 90.46889 68.28744
# Shear Modulus (GPa) = 31.92331 48.08891 40.00611
#
# Velocity S-wave (km/s) = 3.94163 4.83776 4.41250
# Velocity P-wave (km/s) = 6.56918 8.67379 7.69379
#
# Compressibility (1/GPa) = 0.02168915
#
# Stress axis : x y z
#
# Youngs Moduli (GPa) = 55.07291 120.59168 66.76445
#
# Poissons Ratio (x) = 0.73610 -0.20420
# Poissons Ratio (y) = 0.33617 0.45560
# Poissons Ratio (z) = -0.16844 0.82291
#
# Static dielectric constant tensor:
#      x y z
#    x 1.884400 0.000000 0.000000 
#    y 0.000000 1.771310 0.000000 
#    z 0.000000 0.000000 1.653380 
# 
# From -- ./inp_files/64671.got.cif
#   From: 2010.05.17/outbox.cif.g08.bks.cpg/sg70_33_cif.got.tgz:64671.got - 2010.06.03 15:57:51.
