data_PCOD9514959
_publ_section_title
;
Structure prediction by ZEFSAII (Michael W. Deem and Ramdas Pophale) SiO2 
 PCOD9514959
Probable space group: F D D D
;
_chemical_formula_sum "Si O2"
_cell_formula_units_Z 192
_cell_length_a 12.647758
_cell_length_b 24.519258
_cell_length_c 29.449625
_cell_angle_alpha 90.000000
_cell_angle_beta 90.000000
_cell_angle_gamma 90.000000
_cell_volume 9132.730450
_symmetry_space_group_name_H-M "F D D D"
_symmetry_group_IT_number 70
_space_group.IT_coordinate_system_code '2'
_symmetry_cell_setting 'orthorhombic'
loop_
_space_group_symop_operation_xyz
x,y,z
1/4-x,1/4-y,z
x,1/4-y,1/4-z
1/4-x,y,1/4-z
-x,-y,-z
3/4+x,3/4+y,-z
-x,3/4+y,3/4+z
3/4+x,-y,3/4+z
x,1/2+y,1/2+z
1/4-x,3/4-y,1/2+z
x,3/4-y,3/4-z
1/4-x,1/2+y,3/4-z
-x,1/2-y,1/2-z
3/4+x,1/4+y,1/2-z
-x,1/4+y,1/4+z
3/4+x,1/2-y,1/4+z
1/2+x,y,1/2+z
3/4-x,1/4-y,1/2+z
1/2+x,1/4-y,3/4-z
3/4-x,y,3/4-z
1/2-x,-y,1/2-z
1/4+x,3/4+y,1/2-z
1/2-x,3/4+y,1/4+z
1/4+x,-y,1/4+z
1/2+x,1/2+y,z
3/4-x,3/4-y,z
1/2+x,3/4-y,1/4-z
3/4-x,1/2+y,1/4-z
1/2-x,1/2-y,-z
1/4+x,1/4+y,-z
1/2-x,1/4+y,3/4+z
1/4+x,1/2-y,3/4+z
loop_
_atom_site_type_symbol
_atom_site_label
_atom_site_fract_x
_atom_site_fract_y
_atom_site_fract_z
Si Si1 0.649678 0.800902 0.391374
Si Si2 0.125000 0.034085 0.625000
Si Si3 0.143527 0.035564 0.464039
Si Si4 0.214135 0.457381 0.045926
Si Si5 0.676856 0.902190 0.804106
Si Si6 0.217189 0.869859 0.024683
Si Si7 0.125000 0.125000 0.992248
O O1 0.773808 0.817113 0.393012
O O2 0.644655 0.745772 0.419711
O O3 0.581392 0.845489 0.418507
O O4 0.598673 0.801612 0.341191
O O5 0.185170 0.996612 0.587694
O O6 0.226310 0.081621 0.449276
O O7 0.049001 0.071116 0.485973
O O8 0.188149 0.992633 0.500514
O O9 0.128843 0.408881 0.049349
O O10 0.322479 0.424064 0.037117
O O11 0.578990 0.898501 0.769804
O O12 0.783770 0.900793 0.774840
#
# Coordination Sequence:
#
# PCOD9514959 Si02
#       7
#    32  16  32  32  32  32  16
#     4  11  22  39  65 101 136 169 220 287 353 395
#     4  12  24  39  66  96 134 170 212 295 350 394
#     4  11  20  39  68  96 131 177 221 280 345 412
#     4  11  22  43  65  92 132 179 226 281 336 406
#     4  10  22  40  67  99 131 174 229 283 337 405
#     4  10  20  37  68  95 126 175 232 267 345 416
#     4  10  22  45  72  88 132 188 226 270 335 406
#
# _framework density 21.023285999999999
#
# number of rings (size 3 to 8) (size 9 to 14) (size 15 to 20)
#    0.000    1.333    5.000    2.500    0.000    4.000 
#    3.000    7.500    0.000    0.000    0.000    0.000 
#    0.000    0.000    0.000    0.000    0.000    0.000 
#
# Total GULP energy -267682.700570 kJ/mol
# GULP energy per Si atom -5576.722929 kJ/mol
# Density = 2.097544 g / cm^3
# Si number density = 21.023286 Si / 1000 Ang^3
#
#
#
# Elastic Constant Matrix: (Units=GPa)
#
#
# Indices 1 2 3 4 5 6 
#
# 1 100.8742 54.3600 23.2947 0.0000 0.0000 0.0000
# 2 54.3600 75.7102 34.7285 0.0000 0.0000 0.0000
# 3 23.2947 34.7285 68.7291 0.0000 0.0000 0.0000
# 4 0.0000 0.0000 0.0000 -9.4374 0.0000 0.0000
# 5 0.0000 0.0000 0.0000 0.0000 23.8845 0.0000
# 6 0.0000 0.0000 0.0000 0.0000 0.0000 36.6316
#
#
#
# Elastic Compliance Matrix: (Units=1/GPa)
#
#
# Indices 1 2 3 4 5 6 
#
# 1 0.016183 -0.011850 0.000503 0.000000 0.000000 0.000000
# 2 -0.011850 0.025871 -0.009056 0.000000 0.000000 0.000000
# 3 0.000503 -0.009056 0.018955 0.000000 0.000000 0.000000
# 4 0.000000 0.000000 0.000000 -0.105961 0.000000 0.000000
# 5 0.000000 0.000000 0.000000 0.000000 0.041868 0.000000
# 6 0.000000 0.000000 0.000000 0.000000 0.000000 0.027299
#
#
# Mechanical properties :
#
#
# Convention : Reuss Voigt Hill
#
# Bulk Modulus (GPa) = 49.49846 52.23112 50.86479
# Shear Modulus (GPa) = 69.68114 19.07776 44.37945
#
# Velocity S-wave (km/s) = 5.76339 3.01567 4.59951
# Velocity P-wave (km/s) = 8.23921 6.08474 7.24254
#
# Compressibility (1/GPa) = 0.02020265
#
# Stress axis : x y z
#
# Youngs Moduli (GPa) = 61.79274 38.65387 52.75551
#
# Poissons Ratio (x) = 0.45805 -0.02652
# Poissons Ratio (y) = 0.73225 0.47775
# Poissons Ratio (z) = -0.03107 0.35005
#
# Static dielectric constant tensor:
#      x y z
#    x 1.794600 0.000000 0.000000 
#    y 0.000000 1.793380 0.000000 
#    z 0.000000 0.000000 1.809240 
# 
# From -- ./inp_files/64987.got.cif
#   From: 2010.05.17/outbox.cif.g08.bks.cpg/sg70_33_cif.got.tgz:64987.got - 2010.06.03 15:57:51.
