data_PCOD9514317
_publ_section_title
;
Structure prediction by ZEFSAII (Michael W. Deem and Ramdas Pophale) SiO2 
 PCOD9514317
Probable space group: F D D D
;
_chemical_formula_sum "Si O2"
_cell_formula_units_Z 224
_cell_length_a 16.872151
_cell_length_b 18.132057
_cell_length_c 32.833178
_cell_angle_alpha 90.000000
_cell_angle_beta 90.000000
_cell_angle_gamma 90.000000
_cell_volume 10044.549199
_symmetry_space_group_name_H-M "F D D D"
_symmetry_group_IT_number 70
_space_group.IT_coordinate_system_code '2'
_symmetry_cell_setting 'orthorhombic'
loop_
_space_group_symop_operation_xyz
x,y,z
1/4-x,1/4-y,z
x,1/4-y,1/4-z
1/4-x,y,1/4-z
-x,-y,-z
3/4+x,3/4+y,-z
-x,3/4+y,3/4+z
3/4+x,-y,3/4+z
x,1/2+y,1/2+z
1/4-x,3/4-y,1/2+z
x,3/4-y,3/4-z
1/4-x,1/2+y,3/4-z
-x,1/2-y,1/2-z
3/4+x,1/4+y,1/2-z
-x,1/4+y,1/4+z
3/4+x,1/2-y,1/4+z
1/2+x,y,1/2+z
3/4-x,1/4-y,1/2+z
1/2+x,1/4-y,3/4-z
3/4-x,y,3/4-z
1/2-x,-y,1/2-z
1/4+x,3/4+y,1/2-z
1/2-x,3/4+y,1/4+z
1/4+x,-y,1/4+z
1/2+x,1/2+y,z
3/4-x,3/4-y,z
1/2+x,3/4-y,1/4-z
3/4-x,1/2+y,1/4-z
1/2-x,1/2-y,-z
1/4+x,1/4+y,-z
1/2-x,1/4+y,3/4+z
1/4+x,1/2-y,3/4+z
loop_
_atom_site_type_symbol
_atom_site_label
_atom_site_fract_x
_atom_site_fract_y
_atom_site_fract_z
Si Si1 0.932465 0.646656 0.724032
Si Si2 0.621933 0.239805 0.988441
Si Si3 0.779904 0.959763 0.378501
Si Si4 0.221367 0.488609 0.464933
Si Si5 0.733540 0.780106 0.059517
Si Si6 0.982555 0.559899 0.941317
Si Si7 0.625000 0.904583 0.625000
Si Si8 0.375000 0.875000 0.209413
O O1 0.920754 0.560048 0.716454
O O2 0.847735 0.680205 0.712581
O O3 0.946005 0.677037 0.770452
O O4 0.998728 0.694934 0.700568
O O5 0.682859 0.186030 0.965305
O O6 0.544597 0.205895 0.010056
O O7 0.671773 0.280769 0.024448
O O8 0.758296 0.875000 0.375000
O O9 0.875000 0.964570 0.375000
O O10 0.753597 0.000869 0.419411
O O11 0.743472 0.995777 0.339334
O O12 0.181711 0.564875 0.481693
O O13 0.681322 0.795549 0.097962
O O14 0.817233 0.821970 0.065362
O O15 0.932111 0.612092 0.909111
#
# Coordination Sequence:
#
# PCOD9514317 Si02
#       8
#    32  32  32  32  32  32  16  16
#     4  10  21  40  62  96 122 176 225 275 325 403
#     4  11  21  39  60  97 135 171 214 291 322 412
#     4  11  21  36  57  89 125 181 214 252 313 415
#     4  11  21  38  64  91 128 167 226 269 330 382
#     4  10  21  37  67  94 129 168 231 273 332 394
#     4  11  21  35  63  92 136 176 219 263 355 383
#     4  12  20  42  63  98 141 178 222 290 332 422
#     4  10  18  36  64  94 114 173 214 272 310 407
#
# _framework density 22.300651999999999
#
# number of rings (size 3 to 8) (size 9 to 14) (size 15 to 20)
#    0.000    1.286    5.000    1.714    0.000    0.000 
#    0.000    4.286    3.143    0.000    0.000    3.000 
#    0.000    0.000    0.000    0.000    0.000    0.000 
#
# Total GULP energy -311800.148730 kJ/mol
# GULP energy per Si atom -5567.859799 kJ/mol
# Density = 2.224989 g / cm^3
# Si number density = 22.300652 Si / 1000 Ang^3
#
#
#
# Elastic Constant Matrix: (Units=GPa)
#
#
# Indices 1 2 3 4 5 6 
#
# 1 111.4944 18.1903 47.1754 0.0000 0.0000 0.0000
# 2 18.1903 57.8389 37.2186 0.0000 0.0000 0.0000
# 3 47.1754 37.2186 81.9216 0.0000 0.0000 0.0000
# 4 0.0000 0.0000 0.0000 93.3683 0.0000 0.0000
# 5 0.0000 0.0000 0.0000 0.0000 36.4570 0.0000
# 6 0.0000 0.0000 0.0000 0.0000 0.0000 15.2315
#
#
#
# Elastic Compliance Matrix: (Units=1/GPa)
#
#
# Indices 1 2 3 4 5 6 
#
# 1 0.011895 0.000942 -0.007278 0.000000 0.000000 0.000000
# 2 0.000942 0.024507 -0.011677 0.000000 0.000000 0.000000
# 3 -0.007278 -0.011677 0.021703 0.000000 0.000000 0.000000
# 4 0.000000 0.000000 0.000000 0.010710 0.000000 0.000000
# 5 0.000000 0.000000 0.000000 0.000000 0.027430 0.000000
# 6 0.000000 0.000000 0.000000 0.000000 0.000000 0.065653
#
#
# Mechanical properties :
#
#
# Convention : Reuss Voigt Hill
#
# Bulk Modulus (GPa) = 45.28972 50.71370 48.00171
# Shear Modulus (GPa) = 24.35683 38.92274 31.63979
#
# Velocity S-wave (km/s) = 3.30843 4.18229 3.77076
# Velocity P-wave (km/s) = 5.91161 6.79060 6.36629
#
# Compressibility (1/GPa) = 0.02208006
#
# Stress axis : x y z
#
# Youngs Moduli (GPa) = 84.07112 40.80510 46.07737
#
# Poissons Ratio (x) = -0.03845 0.33534
# Poissons Ratio (y) = -0.07922 0.53802
# Poissons Ratio (z) = 0.61185 0.47646
#
# Static dielectric constant tensor:
#      x y z
#    x 1.906480 0.000000 0.000000 
#    y 0.000000 1.899990 0.000000 
#    z 0.000000 0.000000 1.845890 
# 
# From -- ./inp_files/66831.got.cif
#   From: 2010.05.17/outbox.cif.g08.bks.cpg/sg70_34_cif.got.tgz:66831.got - 2010.06.03 15:57:51.
