data_PCOD9514709
_publ_section_title
;
Structure prediction by ZEFSAII (Michael W. Deem and Ramdas Pophale) SiO2 
 PCOD9514709
Probable space group: F D D D
;
_chemical_formula_sum "Si O2"
_cell_formula_units_Z 176
_cell_length_a 19.561410
_cell_length_b 16.991916
_cell_length_c 25.293931
_cell_angle_alpha 90.000000
_cell_angle_beta 90.000000
_cell_angle_gamma 90.000000
_cell_volume 8407.344390
_symmetry_space_group_name_H-M "F D D D"
_symmetry_group_IT_number 70
_space_group.IT_coordinate_system_code '2'
_symmetry_cell_setting 'orthorhombic'
loop_
_space_group_symop_operation_xyz
x,y,z
1/4-x,1/4-y,z
x,1/4-y,1/4-z
1/4-x,y,1/4-z
-x,-y,-z
3/4+x,3/4+y,-z
-x,3/4+y,3/4+z
3/4+x,-y,3/4+z
x,1/2+y,1/2+z
1/4-x,3/4-y,1/2+z
x,3/4-y,3/4-z
1/4-x,1/2+y,3/4-z
-x,1/2-y,1/2-z
3/4+x,1/4+y,1/2-z
-x,1/4+y,1/4+z
3/4+x,1/2-y,1/4+z
1/2+x,y,1/2+z
3/4-x,1/4-y,1/2+z
1/2+x,1/4-y,3/4-z
3/4-x,y,3/4-z
1/2-x,-y,1/2-z
1/4+x,3/4+y,1/2-z
1/2-x,3/4+y,1/4+z
1/4+x,-y,1/4+z
1/2+x,1/2+y,z
3/4-x,3/4-y,z
1/2+x,3/4-y,1/4-z
3/4-x,1/2+y,1/4-z
1/2-x,1/2-y,-z
1/4+x,1/4+y,-z
1/2-x,1/4+y,3/4+z
1/4+x,1/2-y,3/4+z
loop_
_atom_site_type_symbol
_atom_site_label
_atom_site_fract_x
_atom_site_fract_y
_atom_site_fract_z
Si Si1 0.875000 0.875000 0.099845
Si Si2 0.796359 0.458922 0.389664
Si Si3 0.464975 0.028482 0.742419
Si Si4 0.070256 0.008606 0.437587
Si Si5 0.545763 0.636732 0.708429
Si Si6 0.001048 0.687234 0.796235
O O1 0.915536 0.813661 0.137112
O O2 0.921592 0.922015 0.060252
O O3 0.762362 0.375000 0.375000
O O4 0.875000 0.451627 0.375000
O O5 0.776098 0.472461 0.449839
O O6 0.774766 0.528892 0.351554
O O7 0.465909 0.107612 0.776488
O O8 0.393696 0.023590 0.709090
O O9 0.475122 0.952521 0.779308
O O10 0.049618 0.068379 0.484876
O O11 0.011488 0.941519 0.429494
O O12 0.625000 0.625000 0.688583
O O13 0.000000 0.750000 0.750000
#
# Coordination Sequence:
#
# PCOD9514709 Si02
#       6
#    16  32  32  32  32  32
#     4  12  24  46  70 103 142 187 252 298 366 450
#     4  11  24  43  64  91 136 180 229 291 344 422
#     4  11  22  41  65 101 136 183 239 287 370 433
#     4  10  19  41  73  97 138 184 230 306 363 444
#     4   9  19  38  70 105 134 175 233 290 371 440
#     4  12  27  42  66  99 135 183 235 292 353 434
#
# _framework density 20.934076999999998
#
# number of rings (size 3 to 8) (size 9 to 14) (size 15 to 20)
#    0.000    1.273    6.364    0.000    5.091    0.000 
#    3.273    2.727    0.000    3.273    0.000    0.000 
#    0.000    0.000    0.000    0.000    0.000    0.000 
#
# Total GULP energy -245375.705110 kJ/mol
# GULP energy per Si atom -5576.720571 kJ/mol
# Density = 2.088643 g / cm^3
# Si number density = 20.934077 Si / 1000 Ang^3
#
#
#
# Elastic Constant Matrix: (Units=GPa)
#
#
# Indices 1 2 3 4 5 6 
#
# 1 82.4485 48.3018 22.2150 0.0000 0.0000 0.0000
# 2 48.3018 156.4100 48.4460 0.0000 0.0000 0.0000
# 3 22.2150 48.4460 64.3888 0.0000 0.0000 0.0000
# 4 0.0000 0.0000 0.0000 35.8058 0.0000 0.0000
# 5 0.0000 0.0000 0.0000 0.0000 29.8968 0.0000
# 6 0.0000 0.0000 0.0000 0.0000 0.0000 39.8987
#
#
#
# Elastic Compliance Matrix: (Units=1/GPa)
#
#
# Indices 1 2 3 4 5 6 
#
# 1 0.015045 -0.003962 -0.002210 0.000000 0.000000 0.000000
# 2 -0.003962 0.009379 -0.005690 0.000000 0.000000 0.000000
# 3 -0.002210 -0.005690 0.020574 0.000000 0.000000 0.000000
# 4 0.000000 0.000000 0.000000 0.027928 0.000000 0.000000
# 5 0.000000 0.000000 0.000000 0.000000 0.033448 0.000000
# 6 0.000000 0.000000 0.000000 0.000000 0.000000 0.025063
#
#
# Mechanical properties :
#
#
# Convention : Reuss Voigt Hill
#
# Bulk Modulus (GPa) = 47.00311 60.13032 53.56672
# Shear Modulus (GPa) = 30.81575 33.40589 32.11082
#
# Velocity S-wave (km/s) = 3.84088 3.99904 3.92075
# Velocity P-wave (km/s) = 6.49395 7.07878 6.79266
#
# Compressibility (1/GPa) = 0.02127519
#
# Stress axis : x y z
#
# Youngs Moduli (GPa) = 66.46661 106.61747 48.60399
#
# Poissons Ratio (x) = 0.42238 0.10742
# Poissons Ratio (y) = 0.26332 0.27657
# Poissons Ratio (z) = 0.14690 0.60667
#
# Static dielectric constant tensor:
#      x y z
#    x 1.763490 0.000000 0.000000 
#    y 0.000000 1.499550 0.000000 
#    z 0.000000 0.000000 4.499780 
# 
# From -- ./inp_files/35240.got.cif
#   From: 2010.05.17/outbox.cif.g08.bks.cpg/sg70_18_cif.got.tgz:35240.got - 2010.06.03 15:57:51.
