data_PCOD9514231
_publ_section_title
;
Structure prediction by ZEFSAII (Michael W. Deem and Ramdas Pophale) SiO2 
 PCOD9514231
Probable space group: F D D D
;
_chemical_formula_sum "Si O2"
_cell_formula_units_Z 144
_cell_length_a 25.318387
_cell_length_b 11.329164
_cell_length_c 19.783168
_cell_angle_alpha 90.000000
_cell_angle_beta 90.000000
_cell_angle_gamma 90.000000
_cell_volume 5674.527913
_symmetry_space_group_name_H-M "F D D D"
_symmetry_group_IT_number 70
_space_group.IT_coordinate_system_code '2'
_symmetry_cell_setting 'orthorhombic'
loop_
_space_group_symop_operation_xyz
x,y,z
1/4-x,1/4-y,z
x,1/4-y,1/4-z
1/4-x,y,1/4-z
-x,-y,-z
3/4+x,3/4+y,-z
-x,3/4+y,3/4+z
3/4+x,-y,3/4+z
x,1/2+y,1/2+z
1/4-x,3/4-y,1/2+z
x,3/4-y,3/4-z
1/4-x,1/2+y,3/4-z
-x,1/2-y,1/2-z
3/4+x,1/4+y,1/2-z
-x,1/4+y,1/4+z
3/4+x,1/2-y,1/4+z
1/2+x,y,1/2+z
3/4-x,1/4-y,1/2+z
1/2+x,1/4-y,3/4-z
3/4-x,y,3/4-z
1/2-x,-y,1/2-z
1/4+x,3/4+y,1/2-z
1/2-x,3/4+y,1/4+z
1/4+x,-y,1/4+z
1/2+x,1/2+y,z
3/4-x,3/4-y,z
1/2+x,3/4-y,1/4-z
3/4-x,1/2+y,1/4-z
1/2-x,1/2-y,-z
1/4+x,1/4+y,-z
1/2-x,1/4+y,3/4+z
1/4+x,1/2-y,3/4+z
loop_
_atom_site_type_symbol
_atom_site_label
_atom_site_fract_x
_atom_site_fract_y
_atom_site_fract_z
Si Si1 0.286398 0.051119 0.421388
Si Si2 0.685789 0.131458 0.858593
Si Si3 0.909729 0.274235 0.806032
Si Si4 0.568156 0.690457 0.214191
Si Si5 0.239235 0.375000 0.375000
O O1 0.227254 0.095750 0.414881
O O2 0.325206 0.139372 0.462258
O O3 0.308644 0.037621 0.343364
O O4 0.281361 0.920213 0.448113
O O5 0.625000 0.125000 0.875744
O O6 0.690552 0.043399 0.793672
O O7 0.704274 0.267362 0.846834
O O8 0.875000 0.259361 0.875000
O O9 0.875000 0.375000 0.769308
O O10 0.967889 0.326709 0.820966
O O11 0.625000 0.625000 0.205680
#
# Coordination Sequence:
#
# PCOD9514231 Si02
#       5
#    32  32  32  32  16
#     4  10  18  33  55  79 108 139 177 227 277 325
#     4  10  21  36  53  75 108 147 184 223 270 325
#     4   8  14  27  50  75  98 131 165 212 274 322
#     4  10  20  33  55  85 108 137 182 232 278 323
#     4   8  17  32  50  70 100 138 175 214 264 318
#
# _framework density 25.376560999999999
#
# number of rings (size 3 to 8) (size 9 to 14) (size 15 to 20)
#    0.000    2.889    0.000    3.333    0.000    1.778 
#    0.000    4.444    0.000   18.667    0.000    0.000 
#    0.000    0.000    0.000    0.000    0.000    0.000 
#
# Total GULP energy -200613.822541 kJ/mol
# GULP energy per Si atom -5572.606182 kJ/mol
# Density = 2.531880 g / cm^3
# Si number density = 25.376561 Si / 1000 Ang^3
#
#
#
# Elastic Constant Matrix: (Units=GPa)
#
#
# Indices 1 2 3 4 5 6 
#
# 1 166.9916 53.4859 17.5341 0.0000 0.0000 0.0000
# 2 53.4859 115.6104 4.7808 0.0000 0.0000 0.0000
# 3 17.5341 4.7808 87.4192 0.0000 0.0000 0.0000
# 4 0.0000 0.0000 0.0000 62.1171 0.0000 0.0000
# 5 0.0000 0.0000 0.0000 0.0000 -1.3574 0.0000
# 6 0.0000 0.0000 0.0000 0.0000 0.0000 39.8747
#
#
#
# Elastic Compliance Matrix: (Units=1/GPa)
#
#
# Indices 1 2 3 4 5 6 
#
# 1 0.007166 -0.003263 -0.001259 0.000000 0.000000 0.000000
# 2 -0.003263 0.010155 0.000099 0.000000 0.000000 0.000000
# 3 -0.001259 0.000099 0.011686 0.000000 0.000000 0.000000
# 4 0.000000 0.000000 0.000000 0.016099 0.000000 0.000000
# 5 0.000000 0.000000 0.000000 0.000000 -0.736718 0.000000
# 6 0.000000 0.000000 0.000000 0.000000 0.000000 0.025079
#
#
# Mechanical properties :
#
#
# Convention : Reuss Voigt Hill
#
# Bulk Modulus (GPa) = 49.59917 57.95809 53.77863
# Shear Modulus (GPa) = -7.68087 39.74160 16.03036
#
# Velocity S-wave (km/s) = -1.74165 3.96166 2.51609
# Velocity P-wave (km/s) = 3.94249 6.61930 5.44786
#
# Compressibility (1/GPa) = 0.02016163
#
# Stress axis : x y z
#
# Youngs Moduli (GPa) = 139.55526 98.47117 85.57103
#
# Poissons Ratio (x) = 0.32132 0.10772
# Poissons Ratio (y) = 0.45538 -0.00848
# Poissons Ratio (z) = 0.17567 -0.00976
#
# Static dielectric constant tensor:
#      x y z
#    x 2.004070 0.000000 0.000000 
#    y 0.000000 2.109260 0.000000 
#    z 0.000000 0.000000 2.142390 
# 
# From -- ./inp_files/60990.got.cif
#   From: 2010.05.17/outbox.cif.g08.bks.cpg/sg70_31_cif.got.tgz:60990.got - 2010.06.03 15:57:51.
