data_PCOD9514175
_publ_section_title
;
Structure prediction by ZEFSAII (Michael W. Deem and Ramdas Pophale) SiO2 
 PCOD9514175
Probable space group: F D D D
;
_chemical_formula_sum "Si O2"
_cell_formula_units_Z 96
_cell_length_a 18.577015
_cell_length_b 13.436657
_cell_length_c 14.889169
_cell_angle_alpha 90.000000
_cell_angle_beta 90.000000
_cell_angle_gamma 90.000000
_cell_volume 3716.529824
_symmetry_space_group_name_H-M "F D D D"
_symmetry_group_IT_number 70
_space_group.IT_coordinate_system_code '2'
_symmetry_cell_setting 'orthorhombic'
loop_
_space_group_symop_operation_xyz
x,y,z
1/4-x,1/4-y,z
x,1/4-y,1/4-z
1/4-x,y,1/4-z
-x,-y,-z
3/4+x,3/4+y,-z
-x,3/4+y,3/4+z
3/4+x,-y,3/4+z
x,1/2+y,1/2+z
1/4-x,3/4-y,1/2+z
x,3/4-y,3/4-z
1/4-x,1/2+y,3/4-z
-x,1/2-y,1/2-z
3/4+x,1/4+y,1/2-z
-x,1/4+y,1/4+z
3/4+x,1/2-y,1/4+z
1/2+x,y,1/2+z
3/4-x,1/4-y,1/2+z
1/2+x,1/4-y,3/4-z
3/4-x,y,3/4-z
1/2-x,-y,1/2-z
1/4+x,3/4+y,1/2-z
1/2-x,3/4+y,1/4+z
1/4+x,-y,1/4+z
1/2+x,1/2+y,z
3/4-x,3/4-y,z
1/2+x,3/4-y,1/4-z
3/4-x,1/2+y,1/4-z
1/2-x,1/2-y,-z
1/4+x,1/4+y,-z
1/2-x,1/4+y,3/4+z
1/4+x,1/2-y,3/4+z
loop_
_atom_site_type_symbol
_atom_site_label
_atom_site_fract_x
_atom_site_fract_y
_atom_site_fract_z
Si Si1 0.363323 0.125000 0.625000
Si Si2 0.375000 0.375000 0.875000
Si Si3 0.309880 0.568979 0.312324
Si Si4 0.625000 0.125000 0.125000
Si Si5 0.493951 0.484795 0.107176
O O1 0.318483 0.115836 0.715142
O O2 0.418689 0.216623 0.617762
O O3 0.438557 0.455540 0.846277
O O4 0.375000 0.605268 0.375000
O O5 0.324922 0.450963 0.318015
O O6 0.244297 0.619626 0.364139
O O7 0.500000 0.500000 0.000000
#
# Coordination Sequence:
#
# PCOD9514175 Si02
#       5
#    16   8  32   8  32
#     4  11  22  37  69 104 136 179 225 299 354 394
#     4  10  18  28  58  94 122 142 214 270 334 380
#     4  10  20  41  67  95 138 177 234 277 342 417
#     4   8  18  40  64  82 136 188 204 284 330 414
#     4  11  19  37  63  95 126 173 222 283 333 403
#
# _framework density 25.830548
#
# number of rings (size 3 to 8) (size 9 to 14) (size 15 to 20)
#    1.000    0.667    5.000    0.000    0.000    0.000 
#    0.000   13.333    0.000    0.000    0.000    0.000 
#    0.000    0.000    0.000    0.000    0.000    0.000 
#
# Total GULP energy -133642.723316 kJ/mol
# GULP energy per Si atom -5568.446805 kJ/mol
# Density = 2.577176 g / cm^3
# Si number density = 25.830548 Si / 1000 Ang^3
#
#
#
# Elastic Constant Matrix: (Units=GPa)
#
#
# Indices 1 2 3 4 5 6 
#
# 1 108.4489 38.9376 36.0626 0.0000 0.0000 0.0000
# 2 38.9376 188.0879 51.5083 0.0000 0.0000 0.0000
# 3 36.0626 51.5083 158.3586 0.0000 0.0000 0.0000
# 4 0.0000 0.0000 0.0000 -137.9083 0.0000 0.0000
# 5 0.0000 0.0000 0.0000 0.0000 16.7112 0.0000
# 6 0.0000 0.0000 0.0000 0.0000 0.0000 45.0667
#
#
#
# Elastic Compliance Matrix: (Units=1/GPa)
#
#
# Indices 1 2 3 4 5 6 
#
# 1 0.010426 -0.001656 -0.001836 0.000000 0.000000 0.000000
# 2 -0.001656 0.006099 -0.001607 0.000000 0.000000 0.000000
# 3 -0.001836 -0.001607 0.007255 0.000000 0.000000 0.000000
# 4 0.000000 0.000000 0.000000 -0.007251 0.000000 0.000000
# 5 0.000000 0.000000 0.000000 0.000000 0.059840 0.000000
# 6 0.000000 0.000000 0.000000 0.000000 0.000000 0.022189
#
#
# Mechanical properties :
#
#
# Convention : Reuss Voigt Hill
#
# Bulk Modulus (GPa) = 73.61456 78.65691 76.13573
# Shear Modulus (GPa) = 44.13696 6.66637 25.40166
#
# Velocity S-wave (km/s) = 4.13814 1.60823 3.13932
# Velocity P-wave (km/s) = 7.16890 5.82802 6.53295
#
# Compressibility (1/GPa) = 0.01358427
#
# Stress axis : x y z
#
# Youngs Moduli (GPa) = 95.91587 163.94893 137.82654
#
# Poissons Ratio (x) = 0.27144 0.25301
# Poissons Ratio (y) = 0.15880 0.22147
# Poissons Ratio (z) = 0.17608 0.26345
#
# Static dielectric constant tensor:
#      x y z
#    x 2.085130 0.000000 0.000000 
#    y 0.000000 2.152080 0.000000 
#    z 0.000000 0.000000 2.093890 
# 
# From -- ./inp_files/27039.got.cif
#   From: 2010.05.17/outbox.cif.g08.bks.cpg/sg70_14_cif.got.tgz:27039.got - 2010.06.03 15:57:51.
