data_PCOD9514819
_publ_section_title
;
Structure prediction by ZEFSAII (Michael W. Deem and Ramdas Pophale) SiO2 
 PCOD9514819
Probable space group: F D D D
;
_chemical_formula_sum "Si O2"
_cell_formula_units_Z 160
_cell_length_a 15.405991
_cell_length_b 14.910750
_cell_length_c 33.510238
_cell_angle_alpha 90.000000
_cell_angle_beta 90.000000
_cell_angle_gamma 90.000000
_cell_volume 7697.800311
_symmetry_space_group_name_H-M "F D D D"
_symmetry_group_IT_number 70
_space_group.IT_coordinate_system_code '2'
_symmetry_cell_setting 'orthorhombic'
loop_
_space_group_symop_operation_xyz
x,y,z
1/4-x,1/4-y,z
x,1/4-y,1/4-z
1/4-x,y,1/4-z
-x,-y,-z
3/4+x,3/4+y,-z
-x,3/4+y,3/4+z
3/4+x,-y,3/4+z
x,1/2+y,1/2+z
1/4-x,3/4-y,1/2+z
x,3/4-y,3/4-z
1/4-x,1/2+y,3/4-z
-x,1/2-y,1/2-z
3/4+x,1/4+y,1/2-z
-x,1/4+y,1/4+z
3/4+x,1/2-y,1/4+z
1/2+x,y,1/2+z
3/4-x,1/4-y,1/2+z
1/2+x,1/4-y,3/4-z
3/4-x,y,3/4-z
1/2-x,-y,1/2-z
1/4+x,3/4+y,1/2-z
1/2-x,3/4+y,1/4+z
1/4+x,-y,1/4+z
1/2+x,1/2+y,z
3/4-x,3/4-y,z
1/2+x,3/4-y,1/4-z
3/4-x,1/2+y,1/4-z
1/2-x,1/2-y,-z
1/4+x,1/4+y,-z
1/2-x,1/4+y,3/4+z
1/4+x,1/2-y,3/4+z
loop_
_atom_site_type_symbol
_atom_site_label
_atom_site_fract_x
_atom_site_fract_y
_atom_site_fract_z
Si Si1 0.875000 0.645962 0.875000
Si Si2 0.745475 0.525267 0.486171
Si Si3 0.437403 0.459975 0.147744
Si Si4 0.635448 0.845464 0.711276
Si Si5 0.341429 0.125000 0.625000
Si Si6 0.209572 0.582606 0.195201
O O1 0.788296 0.696140 0.861977
O O2 0.907781 0.595009 0.835586
O O3 0.690130 0.521801 0.445454
O O4 0.714754 0.437573 0.511081
O O5 0.842653 0.559334 0.474064
O O6 0.721304 0.604456 0.516605
O O7 0.375000 0.375000 0.141580
O O8 0.401664 0.538786 0.120035
O O9 0.560775 0.767698 0.710145
O O10 0.285245 0.096858 0.663433
O O11 0.125000 0.625000 0.174565
#
# Coordination Sequence:
#
# PCOD9514819 Si02
#       6
#    16  32  32  32  16  32
#     4  10  24  41  59  88 126 168 200 259 314 359
#     4  10  20  37  58  91 124 162 201 258 329 384
#     4  11  24  41  65  89 127 164 208 255 315 375
#     4  10  20  35  60  87 125 163 203 259 325 377
#     4  12  23  37  62  96 118 168 216 252 300 378
#     4  10  21  31  60  91 128 153 200 264 319 377
#
# _framework density 20.785159
#
# number of rings (size 3 to 8) (size 9 to 14) (size 15 to 20)
#    0.000    1.600    0.000    6.300   11.200    0.400 
#    0.000    0.000    0.000   15.600    0.000    0.000 
#    0.000    0.000    0.000    0.000    0.000    0.000 
#
# Total GULP energy -222725.036058 kJ/mol
# GULP energy per Si atom -5568.125901 kJ/mol
# Density = 2.073785 g / cm^3
# Si number density = 20.785159 Si / 1000 Ang^3
#
#
#
# Elastic Constant Matrix: (Units=GPa)
#
#
# Indices 1 2 3 4 5 6 
#
# 1 78.0583 24.4978 28.1538 0.0000 0.0000 0.0000
# 2 24.4978 52.8887 13.4541 0.0000 0.0000 0.0000
# 3 28.1538 13.4541 82.3964 0.0000 0.0000 0.0000
# 4 0.0000 0.0000 0.0000 27.0145 0.0000 0.0000
# 5 0.0000 0.0000 0.0000 0.0000 11.9232 0.0000
# 6 0.0000 0.0000 0.0000 0.0000 0.0000 2.2705
#
#
#
# Elastic Compliance Matrix: (Units=1/GPa)
#
#
# Indices 1 2 3 4 5 6 
#
# 1 0.016495 -0.006475 -0.004579 0.000000 0.000000 0.000000
# 2 -0.006475 0.022269 -0.001424 0.000000 0.000000 0.000000
# 3 -0.004579 -0.001424 0.013933 0.000000 0.000000 0.000000
# 4 0.000000 0.000000 0.000000 0.037017 0.000000 0.000000
# 5 0.000000 0.000000 0.000000 0.000000 0.083870 0.000000
# 6 0.000000 0.000000 0.000000 0.000000 0.000000 0.440432
#
#
# Mechanical properties :
#
#
# Convention : Reuss Voigt Hill
#
# Bulk Modulus (GPa) = 36.04690 38.39498 37.22094
# Shear Modulus (GPa) = 7.71344 18.05748 12.88546
#
# Velocity S-wave (km/s) = 1.92849 2.95068 2.49255
# Velocity P-wave (km/s) = 4.72642 5.48827 5.12153
#
# Compressibility (1/GPa) = 0.02774164
#
# Stress axis : x y z
#
# Youngs Moduli (GPa) = 60.62590 44.90512 71.77010
#
# Poissons Ratio (x) = 0.29078 0.32861
# Poissons Ratio (y) = 0.39258 0.10218
# Poissons Ratio (z) = 0.27758 0.06393
#
# Static dielectric constant tensor:
#      x y z
#    x 1.241140 0.000000 0.000000 
#    y 0.000000 1.769290 0.000000 
#    z 0.000000 0.000000 1.801470 
# 
# From -- ./inp_files/66553.got.cif
#   From: 2010.05.17/outbox.cif.g08.bks.cpg/sg70_34_cif.got.tgz:66553.got - 2010.06.03 15:57:51.
