data_PCOD9514334
_publ_section_title
;
Structure prediction by ZEFSAII (Michael W. Deem and Ramdas Pophale) SiO2 
 PCOD9514334
Probable space group: F D D D
;
_chemical_formula_sum "Si O2"
_cell_formula_units_Z 184
_cell_length_a 20.365420
_cell_length_b 28.552305
_cell_length_c 13.027871
_cell_angle_alpha 90.000000
_cell_angle_beta 90.000000
_cell_angle_gamma 90.000000
_cell_volume 7575.442303
_symmetry_space_group_name_H-M "F D D D"
_symmetry_group_IT_number 70
_space_group.IT_coordinate_system_code '2'
_symmetry_cell_setting 'orthorhombic'
loop_
_space_group_symop_operation_xyz
x,y,z
1/4-x,1/4-y,z
x,1/4-y,1/4-z
1/4-x,y,1/4-z
-x,-y,-z
3/4+x,3/4+y,-z
-x,3/4+y,3/4+z
3/4+x,-y,3/4+z
x,1/2+y,1/2+z
1/4-x,3/4-y,1/2+z
x,3/4-y,3/4-z
1/4-x,1/2+y,3/4-z
-x,1/2-y,1/2-z
3/4+x,1/4+y,1/2-z
-x,1/4+y,1/4+z
3/4+x,1/2-y,1/4+z
1/2+x,y,1/2+z
3/4-x,1/4-y,1/2+z
1/2+x,1/4-y,3/4-z
3/4-x,y,3/4-z
1/2-x,-y,1/2-z
1/4+x,3/4+y,1/2-z
1/2-x,3/4+y,1/4+z
1/4+x,-y,1/4+z
1/2+x,1/2+y,z
3/4-x,3/4-y,z
1/2+x,3/4-y,1/4-z
3/4-x,1/2+y,1/4-z
1/2-x,1/2-y,-z
1/4+x,1/4+y,-z
1/2-x,1/4+y,3/4+z
1/4+x,1/2-y,3/4+z
loop_
_atom_site_type_symbol
_atom_site_label
_atom_site_fract_x
_atom_site_fract_y
_atom_site_fract_z
Si Si1 0.182424 0.760664 0.743501
Si Si2 0.625000 0.125000 0.625000
Si Si3 0.138882 0.819259 0.264922
Si Si4 0.197949 0.042269 0.216298
Si Si5 0.917433 0.579814 0.490382
Si Si6 0.625000 0.515390 0.625000
Si Si7 0.252589 0.320791 0.412351
O O1 0.113284 0.734186 0.770566
O O2 0.206809 0.728785 0.649619
O O3 0.153489 0.810311 0.704585
O O4 0.227610 0.780014 0.832695
O O5 0.670714 0.093622 0.695150
O O6 0.157356 0.823841 0.384764
O O7 0.172226 0.865379 0.217746
O O8 0.154667 0.770944 0.208862
O O9 0.059048 0.822543 0.260509
O O10 0.265905 0.049957 0.274808
O O11 0.676078 0.549231 0.685012
O O12 0.259136 0.375000 0.375000
#
# Coordination Sequence:
#
# PCOD9514334 Si02
#       7
#    32   8  32  32  32  16  32
#     4   9  19  34  56  85 120 153 196 239 283 355
#     4   8  16  28  42  76 120 146 184 232 280 320
#     4  10  21  39  62  87 121 156 199 248 299 358
#     4  10  19  31  57  92 117 156 199 234 282 367
#     4  10  18  37  60  84 122 162 186 234 311 348
#     4  12  25  36  67  96 104 159 216 249 286 362
#     4  11  21  43  60  84 124 160 197 251 311 352
#
# _framework density 24.289012
#
# number of rings (size 3 to 8) (size 9 to 14) (size 15 to 20)
#    0.000    2.087    3.478    3.391    0.000    2.783 
#    0.000    0.000    0.000    0.000   36.174    0.000 
#    0.000    0.000    0.000    0.000    0.000    0.000 
#
# Total GULP energy -256107.619276 kJ/mol
# GULP energy per Si atom -5567.556941 kJ/mol
# Density = 2.423373 g / cm^3
# Si number density = 24.289012 Si / 1000 Ang^3
#
#
#
# Elastic Constant Matrix: (Units=GPa)
#
#
# Indices 1 2 3 4 5 6 
#
# 1 112.3354 59.6502 8.7498 0.0000 0.0000 0.0000
# 2 59.6502 138.0870 14.4169 0.0000 0.0000 0.0000
# 3 8.7498 14.4169 38.7024 0.0000 0.0000 0.0000
# 4 0.0000 0.0000 0.0000 25.0837 0.0000 0.0000
# 5 0.0000 0.0000 0.0000 0.0000 27.2017 0.0000
# 6 0.0000 0.0000 0.0000 0.0000 0.0000 14.6772
#
#
#
# Elastic Compliance Matrix: (Units=1/GPa)
#
#
# Indices 1 2 3 4 5 6 
#
# 1 0.011574 -0.004918 -0.000785 0.000000 0.000000 0.000000
# 2 -0.004918 0.009624 -0.002473 0.000000 0.000000 0.000000
# 3 -0.000785 -0.002473 0.026937 0.000000 0.000000 0.000000
# 4 0.000000 0.000000 0.000000 0.039867 0.000000 0.000000
# 5 0.000000 0.000000 0.000000 0.000000 0.036762 0.000000
# 6 0.000000 0.000000 0.000000 0.000000 0.000000 0.068133
#
#
# Mechanical properties :
#
#
# Convention : Reuss Voigt Hill
#
# Bulk Modulus (GPa) = 31.46264 50.52876 40.99570
# Shear Modulus (GPa) = 22.74333 27.14637 24.94485
#
# Velocity S-wave (km/s) = 3.06332 3.34674 3.20816
# Velocity P-wave (km/s) = 5.04911 5.98185 5.53516
#
# Compressibility (1/GPa) = 0.03178373
#
# Stress axis : x y z
#
# Youngs Moduli (GPa) = 86.39695 103.90174 37.12376
#
# Poissons Ratio (x) = 0.51098 0.02913
# Poissons Ratio (y) = 0.42490 0.09182
# Poissons Ratio (z) = 0.06780 0.25698
#
# Static dielectric constant tensor:
#      x y z
#    x 2.027390 0.000000 0.000000 
#    y 0.000000 2.005010 0.000000 
#    z 0.000000 0.000000 2.256660 
# 
# From -- ./inp_files/36641.got.cif
#   From: 2010.05.17/outbox.cif.g08.bks.cpg/sg70_19_cif.got.tgz:36641.got - 2010.06.03 15:57:51.
