data_PCOD9514167
_publ_section_title
;
Structure prediction by ZEFSAII (Michael W. Deem and Ramdas Pophale) SiO2 
 PCOD9514167
Probable space group: F D D D
;
_chemical_formula_sum "Si O2"
_cell_formula_units_Z 136
_cell_length_a 12.751188
_cell_length_b 9.868368
_cell_length_c 44.202284
_cell_angle_alpha 90.000000
_cell_angle_beta 90.000000
_cell_angle_gamma 90.000000
_cell_volume 5562.124374
_symmetry_space_group_name_H-M "F D D D"
_symmetry_group_IT_number 70
_space_group.IT_coordinate_system_code '2'
_symmetry_cell_setting 'orthorhombic'
loop_
_space_group_symop_operation_xyz
x,y,z
1/4-x,1/4-y,z
x,1/4-y,1/4-z
1/4-x,y,1/4-z
-x,-y,-z
3/4+x,3/4+y,-z
-x,3/4+y,3/4+z
3/4+x,-y,3/4+z
x,1/2+y,1/2+z
1/4-x,3/4-y,1/2+z
x,3/4-y,3/4-z
1/4-x,1/2+y,3/4-z
-x,1/2-y,1/2-z
3/4+x,1/4+y,1/2-z
-x,1/4+y,1/4+z
3/4+x,1/2-y,1/4+z
1/2+x,y,1/2+z
3/4-x,1/4-y,1/2+z
1/2+x,1/4-y,3/4-z
3/4-x,y,3/4-z
1/2-x,-y,1/2-z
1/4+x,3/4+y,1/2-z
1/2-x,3/4+y,1/4+z
1/4+x,-y,1/4+z
1/2+x,1/2+y,z
3/4-x,3/4-y,z
1/2+x,3/4-y,1/4-z
3/4-x,1/2+y,1/4-z
1/2-x,1/2-y,-z
1/4+x,1/4+y,-z
1/2-x,1/4+y,3/4+z
1/4+x,1/2-y,3/4+z
loop_
_atom_site_type_symbol
_atom_site_label
_atom_site_fract_x
_atom_site_fract_y
_atom_site_fract_z
Si Si1 0.125000 0.625000 0.125000
Si Si2 0.775735 0.683310 0.325744
Si Si3 0.490023 0.155535 0.956826
Si Si4 0.252377 0.612244 0.022292
Si Si5 0.247388 0.864940 0.409277
O O1 0.197167 0.528028 0.104282
O O2 0.889261 0.647032 0.311333
O O3 0.719383 0.768561 0.300095
O O4 0.725273 0.539593 0.332311
O O5 0.461068 0.205438 0.990720
O O6 0.533368 0.267798 0.933248
O O7 0.542771 0.013878 0.969089
O O8 0.125000 0.625000 0.022092
O O9 0.206777 0.875000 0.375000
O O10 0.375000 0.875000 0.408080
#
# Coordination Sequence:
#
# PCOD9514167 Si02
#       5
#     8  32  32  32  32
#     4  12  16  28  46  68 100 108 146 188 228 292
#     4  10  18  27  45  69  91 117 143 184 230 272
#     4   9  16  30  43  63  94 116 149 181 222 272
#     4   9  17  29  45  66  86 121 154 182 217 266
#     4   9  17  27  42  67  94 118 139 182 236 277
#
# _framework density 24.451089
#
# number of rings (size 3 to 8) (size 9 to 14) (size 15 to 20)
#    0.000    2.588    3.529    2.824    0.000    0.941 
#    0.000    0.000    0.000    0.000    3.059    0.000 
#    0.000    0.000    0.000    0.000    0.000    0.000 
#
# Total GULP energy -189566.823324 kJ/mol
# GULP energy per Si atom -5575.494804 kJ/mol
# Density = 2.439544 g / cm^3
# Si number density = 24.451089 Si / 1000 Ang^3
#
#
#
# Elastic Constant Matrix: (Units=GPa)
#
#
# Indices 1 2 3 4 5 6 
#
# 1 58.5589 11.2453 30.2463 0.0000 0.0000 0.0000
# 2 11.2453 205.4873 131.8701 0.0000 0.0000 0.0000
# 3 30.2463 131.8701 252.2497 0.0000 0.0000 0.0000
# 4 0.0000 0.0000 0.0000 -29.0788 0.0000 0.0000
# 5 0.0000 0.0000 0.0000 0.0000 -22.8443 0.0000
# 6 0.0000 0.0000 0.0000 0.0000 0.0000 10.3212
#
#
#
# Elastic Compliance Matrix: (Units=1/GPa)
#
#
# Indices 1 2 3 4 5 6 
#
# 1 0.018255 0.000611 -0.002508 0.000000 0.000000 0.000000
# 2 0.000611 0.007344 -0.003912 0.000000 0.000000 0.000000
# 3 -0.002508 -0.003912 0.006310 0.000000 0.000000 0.000000
# 4 0.000000 0.000000 0.000000 -0.034389 0.000000 0.000000
# 5 0.000000 0.000000 0.000000 0.000000 -0.043775 0.000000
# 6 0.000000 0.000000 0.000000 0.000000 0.000000 0.096888
#
#
# Mechanical properties :
#
#
# Convention : Reuss Voigt Hill
#
# Bulk Modulus (GPa) = 49.28689 95.89103 72.58896
# Shear Modulus (GPa) = 72.44658 14.54190 43.49424
#
# Velocity S-wave (km/s) = 5.44917 2.44136 4.22219
# Velocity P-wave (km/s) = 7.73256 6.87384 7.31581
#
# Compressibility (1/GPa) = 0.02028937
#
# Stress axis : x y z
#
# Youngs Moduli (GPa) = 54.77943 136.16913 158.46984
#
# Poissons Ratio (x) = -0.08313 0.39745
# Poissons Ratio (y) = -0.03344 0.61999
# Poissons Ratio (z) = 0.13739 0.53274
#
# Static dielectric constant tensor:
#      x y z
#    x 2.090690 0.000000 0.000000 
#    y 0.000000 2.162510 0.000000 
#    z 0.000000 0.000000 1.993400 
# 
# From -- ./inp_files/57659.got.cif
#   From: 2010.05.17/outbox.cif.g08.bks.cpg/sg70_29_cif.got.tgz:57659.got - 2010.06.03 15:57:51.
