data_PCOD9514932
_publ_section_title
;
Structure prediction by ZEFSAII (Michael W. Deem and Ramdas Pophale) SiO2 
 PCOD9514932
Probable space group: F D D D
;
_chemical_formula_sum "Si O2"
_cell_formula_units_Z 192
_cell_length_a 11.124723
_cell_length_b 27.514551
_cell_length_c 27.621777
_cell_angle_alpha 90.000000
_cell_angle_beta 90.000000
_cell_angle_gamma 90.000000
_cell_volume 8454.798291
_symmetry_space_group_name_H-M "F D D D"
_symmetry_group_IT_number 70
_space_group.IT_coordinate_system_code '2'
_symmetry_cell_setting 'orthorhombic'
loop_
_space_group_symop_operation_xyz
x,y,z
1/4-x,1/4-y,z
x,1/4-y,1/4-z
1/4-x,y,1/4-z
-x,-y,-z
3/4+x,3/4+y,-z
-x,3/4+y,3/4+z
3/4+x,-y,3/4+z
x,1/2+y,1/2+z
1/4-x,3/4-y,1/2+z
x,3/4-y,3/4-z
1/4-x,1/2+y,3/4-z
-x,1/2-y,1/2-z
3/4+x,1/4+y,1/2-z
-x,1/4+y,1/4+z
3/4+x,1/2-y,1/4+z
1/2+x,y,1/2+z
3/4-x,1/4-y,1/2+z
1/2+x,1/4-y,3/4-z
3/4-x,y,3/4-z
1/2-x,-y,1/2-z
1/4+x,3/4+y,1/2-z
1/2-x,3/4+y,1/4+z
1/4+x,-y,1/4+z
1/2+x,1/2+y,z
3/4-x,3/4-y,z
1/2+x,3/4-y,1/4-z
3/4-x,1/2+y,1/4-z
1/2-x,1/2-y,-z
1/4+x,1/4+y,-z
1/2-x,1/4+y,3/4+z
1/4+x,1/2-y,3/4+z
loop_
_atom_site_type_symbol
_atom_site_label
_atom_site_fract_x
_atom_site_fract_y
_atom_site_fract_z
Si Si1 0.405513 0.970326 0.260074
Si Si2 0.875000 0.875000 0.616324
Si Si3 0.941927 0.920746 0.323291
Si Si4 0.190305 0.787695 0.427004
Si Si5 0.859596 0.228826 0.969400
Si Si6 0.625000 0.917458 0.125000
Si Si7 0.738911 0.283423 0.656151
O O1 0.308500 0.943546 0.294233
O O2 0.537167 0.949230 0.248479
O O3 0.347028 0.990759 0.210636
O O4 0.439322 0.016748 0.292847
O O5 0.749652 0.858910 0.641760
O O6 0.830406 0.922697 0.588355
O O7 0.875000 0.924457 0.375000
O O8 0.875000 0.875000 0.298970
O O9 0.086387 0.921878 0.327137
O O10 0.919152 0.971195 0.297640
O O11 0.212560 0.762943 0.374580
O O12 0.833845 0.199166 0.920911
O O13 0.750000 0.250000 0.000000
O O14 0.625000 0.300200 0.625000
#
# Coordination Sequence:
#
# PCOD9514932 Si02
#       7
#    32  16  32  32  32  16  32
#     4   9  19  36  61  92 116 166 218 259 323 406
#     4  12  22  40  60  98 130 181 215 276 340 412
#     4  10  21  39  63  91 122 168 217 269 331 392
#     4   9  19  38  62  86 124 165 211 269 329 392
#     4  11  23  42  65  97 130 176 221 274 343 409
#     4  12  26  44  67  94 144 178 229 280 352 426
#     4  10  20  37  61  93 127 170 218 265 333 411
#
# _framework density 22.708997
#
# number of rings (size 3 to 8) (size 9 to 14) (size 15 to 20)
#    0.000    1.833    1.667    3.000    2.333    0.000 
#   13.500    0.000    0.000    0.000    0.000    0.000 
#    0.000    0.000    0.000    0.000    0.000    0.000 
#
# Total GULP energy -267253.026337 kJ/mol
# GULP energy per Si atom -5567.771382 kJ/mol
# Density = 2.265731 g / cm^3
# Si number density = 22.708997 Si / 1000 Ang^3
#
#
#
# Elastic Constant Matrix: (Units=GPa)
#
#
# Indices 1 2 3 4 5 6 
#
# 1 176.5614 44.4276 36.2835 0.0000 0.0000 0.0000
# 2 44.4276 48.3528 3.3726 0.0000 0.0000 0.0000
# 3 36.2835 3.3726 75.9336 0.0000 0.0000 0.0000
# 4 0.0000 0.0000 0.0000 -466.7154 0.0000 0.0000
# 5 0.0000 0.0000 0.0000 0.0000 34.9406 0.0000
# 6 0.0000 0.0000 0.0000 0.0000 0.0000 33.5570
#
#
#
# Elastic Compliance Matrix: (Units=1/GPa)
#
#
# Indices 1 2 3 4 5 6 
#
# 1 0.008251 -0.007329 -0.003617 0.000000 0.000000 0.000000
# 2 -0.007329 0.027256 0.002292 0.000000 0.000000 0.000000
# 3 -0.003617 0.002292 0.014796 0.000000 0.000000 0.000000
# 4 0.000000 0.000000 0.000000 -0.002143 0.000000 0.000000
# 5 0.000000 0.000000 0.000000 0.000000 0.028620 0.000000
# 6 0.000000 0.000000 0.000000 0.000000 0.000000 0.029800
#
#
# Mechanical properties :
#
#
# Convention : Reuss Voigt Hill
#
# Bulk Modulus (GPa) = 30.30914 52.11282 41.21098
# Shear Modulus (GPa) = 37.06782 -65.19261 -14.06239
#
# Velocity S-wave (km/s) = 4.04455 -5.36378 -2.49116
# Velocity P-wave (km/s) = 5.93186 3.91948 3.14838
#
# Compressibility (1/GPa) = 0.03299335
#
# Stress axis : x y z
#
# Youngs Moduli (GPa) = 121.19285 36.68959 67.58565
#
# Poissons Ratio (x) = 0.26890 0.24447
# Poissons Ratio (y) = 0.88824 -0.15488
# Poissons Ratio (z) = 0.43838 -0.08408
#
# Static dielectric constant tensor:
#      x y z
#    x 2.085360 0.000000 0.000000 
#    y 0.000000 1.869540 0.000000 
#    z 0.000000 0.000000 1.866720 
# 
# From -- ./inp_files/57834.got.cif
#   From: 2010.05.17/outbox.cif.g08.bks.cpg/sg70_29_cif.got.tgz:57834.got - 2010.06.03 15:57:51.
