data_PCOD9514478
_publ_section_title
;
Structure prediction by ZEFSAII (Michael W. Deem and Ramdas Pophale) SiO2 
 PCOD9514478
Probable space group: F D D D
;
_chemical_formula_sum "Si O2"
_cell_formula_units_Z 216
_cell_length_a 16.746018
_cell_length_b 22.604139
_cell_length_c 29.713082
_cell_angle_alpha 90.000000
_cell_angle_beta 90.000000
_cell_angle_gamma 90.000000
_cell_volume 11247.272682
_symmetry_space_group_name_H-M "F D D D"
_symmetry_group_IT_number 70
_space_group.IT_coordinate_system_code '2'
_symmetry_cell_setting 'orthorhombic'
loop_
_space_group_symop_operation_xyz
x,y,z
1/4-x,1/4-y,z
x,1/4-y,1/4-z
1/4-x,y,1/4-z
-x,-y,-z
3/4+x,3/4+y,-z
-x,3/4+y,3/4+z
3/4+x,-y,3/4+z
x,1/2+y,1/2+z
1/4-x,3/4-y,1/2+z
x,3/4-y,3/4-z
1/4-x,1/2+y,3/4-z
-x,1/2-y,1/2-z
3/4+x,1/4+y,1/2-z
-x,1/4+y,1/4+z
3/4+x,1/2-y,1/4+z
1/2+x,y,1/2+z
3/4-x,1/4-y,1/2+z
1/2+x,1/4-y,3/4-z
3/4-x,y,3/4-z
1/2-x,-y,1/2-z
1/4+x,3/4+y,1/2-z
1/2-x,3/4+y,1/4+z
1/4+x,-y,1/4+z
1/2+x,1/2+y,z
3/4-x,3/4-y,z
1/2+x,3/4-y,1/4-z
3/4-x,1/2+y,1/4-z
1/2-x,1/2-y,-z
1/4+x,1/4+y,-z
1/2-x,1/4+y,3/4+z
1/4+x,1/2-y,3/4+z
loop_
_atom_site_type_symbol
_atom_site_label
_atom_site_fract_x
_atom_site_fract_y
_atom_site_fract_z
Si Si1 0.838462 0.159560 0.328385
Si Si2 0.101073 0.386856 0.325483
Si Si3 0.720324 0.816173 0.004305
Si Si4 0.187587 0.706792 0.664240
Si Si5 0.625000 0.625000 0.009478
Si Si6 0.199288 0.171560 0.457314
Si Si7 0.259252 0.449141 0.307295
Si Si8 0.625000 0.625000 0.625000
O O1 0.875000 0.135611 0.375000
O O2 0.907397 0.174687 0.293261
O O3 0.800201 0.223422 0.338670
O O4 0.775544 0.117872 0.304704
O O5 0.133956 0.375000 0.375000
O O6 0.065835 0.335732 0.293849
O O7 0.176380 0.413915 0.300250
O O8 0.024089 0.427275 0.336065
O O9 0.750000 0.750000 0.000000
O O10 0.795607 0.857680 0.015992
O O11 0.125000 0.690921 0.625000
O O12 0.146297 0.680866 0.708894
O O13 0.125000 0.125000 0.448058
O O14 0.224016 0.234477 0.432977
O O15 0.194743 0.192873 0.509472
O O16 0.317101 0.417513 0.344237
#
# Coordination Sequence:
#
# PCOD9514478 Si02
#       8
#    32  32  32  32  16  32  32   8
#     4  11  24  41  63  92 135 175 215 265 332 411
#     4  11  22  38  66  99 128 165 224 269 334 400
#     4  11  22  41  60  93 137 169 209 267 326 391
#     4  10  19  34  60  93 130 169 212 261 320 399
#     4  10  19  34  58  87 122 174 211 250 317 376
#     4  11  24  47  69  97 132 183 228 277 350 416
#     4  11  24  43  72  99 135 173 230 297 341 404
#     4  12  24  48  72 110 130 172 238 306 360 396
#
# _framework density 19.204656
#
# number of rings (size 3 to 8) (size 9 to 14) (size 15 to 20)
#    0.000    1.185    4.444    2.889    3.111    0.000 
#    1.333    1.481    0.000    0.000    0.000    0.000 
#    0.000    0.000    0.000    0.000    0.000    0.000 
#
# Total GULP energy -300701.464335 kJ/mol
# GULP energy per Si atom -5568.545636 kJ/mol
# Density = 1.916095 g / cm^3
# Si number density = 19.204656 Si / 1000 Ang^3
#
#
#
# Elastic Constant Matrix: (Units=GPa)
#
#
# Indices 1 2 3 4 5 6 
#
# 1 107.8313 52.2955 30.0263 0.0000 0.0000 0.0000
# 2 52.2955 112.8580 28.5273 0.0000 0.0000 0.0000
# 3 30.0263 28.5273 73.0210 0.0000 0.0000 0.0000
# 4 0.0000 0.0000 0.0000 28.2222 0.0000 0.0000
# 5 0.0000 0.0000 0.0000 0.0000 21.4913 0.0000
# 6 0.0000 0.0000 0.0000 0.0000 0.0000 28.9205
#
#
#
# Elastic Compliance Matrix: (Units=1/GPa)
#
#
# Indices 1 2 3 4 5 6 
#
# 1 0.012609 -0.005029 -0.003220 0.000000 0.000000 0.000000
# 2 -0.005029 0.011837 -0.002557 0.000000 0.000000 0.000000
# 3 -0.003220 -0.002557 0.016018 0.000000 0.000000 0.000000
# 4 0.000000 0.000000 0.000000 0.035433 0.000000 0.000000
# 5 0.000000 0.000000 0.000000 0.000000 0.046530 0.000000
# 6 0.000000 0.000000 0.000000 0.000000 0.000000 0.034578
#
#
# Mechanical properties :
#
#
# Convention : Reuss Voigt Hill
#
# Bulk Modulus (GPa) = 53.04295 57.26760 55.15528
# Shear Modulus (GPa) = 27.04150 27.91754 27.47952
#
# Velocity S-wave (km/s) = 3.75650 3.81686 3.78680
# Velocity P-wave (km/s) = 6.81871 7.02203 6.92112
#
# Compressibility (1/GPa) = 0.01885265
#
# Stress axis : x y z
#
# Youngs Moduli (GPa) = 79.30642 84.47979 62.43099
#
# Poissons Ratio (x) = 0.42483 0.20105
# Poissons Ratio (y) = 0.39882 0.15961
# Poissons Ratio (z) = 0.25539 0.21598
#
# Static dielectric constant tensor:
#      x y z
#    x 1.676050 0.000000 0.000000 
#    y 0.000000 1.709350 0.000000 
#    z 0.000000 0.000000 1.714240 
# 
# From -- ./inp_files/65953.got.cif
#   From: 2010.05.17/outbox.cif.g08.bks.cpg/sg70_33_cif.got.tgz:65953.got - 2010.06.03 15:57:51.
