data_PCOD9514141
_publ_section_title
;
Structure prediction by ZEFSAII (Michael W. Deem and Ramdas Pophale) SiO2 
 PCOD9514141
Probable space group: F D D D
;
_chemical_formula_sum "Si O2"
_cell_formula_units_Z 176
_cell_length_a 11.843094
_cell_length_b 25.091359
_cell_length_c 24.305656
_cell_angle_alpha 90.000000
_cell_angle_beta 90.000000
_cell_angle_gamma 90.000000
_cell_volume 7222.652287
_symmetry_space_group_name_H-M "F D D D"
_symmetry_group_IT_number 70
_space_group.IT_coordinate_system_code '2'
_symmetry_cell_setting 'orthorhombic'
loop_
_space_group_symop_operation_xyz
x,y,z
1/4-x,1/4-y,z
x,1/4-y,1/4-z
1/4-x,y,1/4-z
-x,-y,-z
3/4+x,3/4+y,-z
-x,3/4+y,3/4+z
3/4+x,-y,3/4+z
x,1/2+y,1/2+z
1/4-x,3/4-y,1/2+z
x,3/4-y,3/4-z
1/4-x,1/2+y,3/4-z
-x,1/2-y,1/2-z
3/4+x,1/4+y,1/2-z
-x,1/4+y,1/4+z
3/4+x,1/2-y,1/4+z
1/2+x,y,1/2+z
3/4-x,1/4-y,1/2+z
1/2+x,1/4-y,3/4-z
3/4-x,y,3/4-z
1/2-x,-y,1/2-z
1/4+x,3/4+y,1/2-z
1/2-x,3/4+y,1/4+z
1/4+x,-y,1/4+z
1/2+x,1/2+y,z
3/4-x,3/4-y,z
1/2+x,3/4-y,1/4-z
3/4-x,1/2+y,1/4-z
1/2-x,1/2-y,-z
1/4+x,1/4+y,-z
1/2-x,1/4+y,3/4+z
1/4+x,1/2-y,3/4+z
loop_
_atom_site_type_symbol
_atom_site_label
_atom_site_fract_x
_atom_site_fract_y
_atom_site_fract_z
Si Si1 0.373943 0.607873 0.441419
Si Si2 0.744708 0.292061 0.871390
Si Si3 0.270672 0.755861 0.241013
Si Si4 0.716210 0.169177 0.515064
Si Si5 0.062478 0.038522 0.456477
Si Si6 0.821461 0.125000 0.625000
O O1 0.375000 0.613433 0.375000
O O2 0.302747 0.555543 0.464151
O O3 0.317096 0.657782 0.472307
O O4 0.502740 0.595450 0.460498
O O5 0.712522 0.285431 0.808424
O O6 0.727068 0.234899 0.898456
O O7 0.657891 0.331867 0.900400
O O8 0.875000 0.308347 0.875000
O O9 0.610205 0.721855 0.238181
O O10 0.192639 0.725225 0.284752
O O11 0.625000 0.125000 0.497651
O O12 0.751284 0.153045 0.577095
O O13 0.000000 0.000000 0.500000
#
# Coordination Sequence:
#
# PCOD9514141 Si02
#       6
#    32  32  32  32  32  16
#     4  10  17  36  65  94 130 173 220 274 341 408
#     4  12  21  38  63  93 133 173 231 286 344 401
#     4  10  20  37  64  96 130 176 224 276 346 418
#     4  10  23  40  64  93 132 181 223 283 348 417
#     4  10  17  33  64  94 121 169 219 269 335 405
#     4  12  26  40  60  94 136 182 230 286 344 414
#
# _framework density 24.367781000000001
#
# number of rings (size 3 to 8) (size 9 to 14) (size 15 to 20)
#    0.000    1.455    5.455    3.818    0.000    0.727 
#    0.000    1.818    0.000    2.182    0.000    0.000 
#    0.000    0.000    0.000    0.000    0.000    0.000 
#
# Total GULP energy -245751.997872 kJ/mol
# GULP energy per Si atom -5585.272679 kJ/mol
# Density = 2.431232 g / cm^3
# Si number density = 24.367781 Si / 1000 Ang^3
#
#
#
# Elastic Constant Matrix: (Units=GPa)
#
#
# Indices 1 2 3 4 5 6 
#
# 1 196.4673 72.1598 75.3315 0.0000 0.0000 0.0000
# 2 72.1598 87.7411 27.5274 0.0000 0.0000 0.0000
# 3 75.3315 27.5274 128.4769 0.0000 0.0000 0.0000
# 4 0.0000 0.0000 0.0000 -1.6580 0.0000 0.0000
# 5 0.0000 0.0000 0.0000 0.0000 28.3162 0.0000
# 6 0.0000 0.0000 0.0000 0.0000 0.0000 778.8710
#
#
#
# Elastic Compliance Matrix: (Units=1/GPa)
#
#
# Indices 1 2 3 4 5 6 
#
# 1 0.008776 -0.006007 -0.003858 0.000000 0.000000 0.000000
# 2 -0.006007 0.016330 0.000023 0.000000 0.000000 0.000000
# 3 -0.003858 0.000023 0.010041 0.000000 0.000000 0.000000
# 4 0.000000 0.000000 0.000000 -0.603138 0.000000 0.000000
# 5 0.000000 0.000000 0.000000 0.000000 0.035316 0.000000
# 6 0.000000 0.000000 0.000000 0.000000 0.000000 0.001284
#
#
# Mechanical properties :
#
#
# Convention : Reuss Voigt Hill
#
# Bulk Modulus (GPa) = 64.67328 84.74695 74.71012
# Shear Modulus (GPa) = -9.87060 176.95028 83.53984
#
# Velocity S-wave (km/s) = -2.01481 8.53078 5.86151
# Velocity P-wave (km/s) = 4.60277 11.48416 8.74847
#
# Compressibility (1/GPa) = 0.01546234
#
# Stress axis : x y z
#
# Youngs Moduli (GPa) = 113.95360 61.23763 99.59224
#
# Poissons Ratio (x) = 0.36783 0.38427
# Poissons Ratio (y) = 0.68447 -0.00230
# Poissons Ratio (z) = 0.43969 -0.00141
#
# Static dielectric constant tensor:
#      x y z
#    x 2.143770 0.000000 0.000000 
#    y 0.000000 1.978070 0.000000 
#    z 0.000000 0.000000 2.048580 
# 
# From -- ./inp_files/50387.got.cif
#   From: 2010.05.17/outbox.cif.g08.bks.cpg/sg70_26_cif.got.tgz:50387.got - 2010.06.03 15:57:51.
