data_PCOD9514852
_publ_section_title
;
Structure prediction by ZEFSAII (Michael W. Deem and Ramdas Pophale) SiO2 
 PCOD9514852
Probable space group: F D D D
;
_chemical_formula_sum "Si O2"
_cell_formula_units_Z 144
_cell_length_a 22.672666
_cell_length_b 14.596751
_cell_length_c 19.158160
_cell_angle_alpha 90.000000
_cell_angle_beta 90.000000
_cell_angle_gamma 90.000000
_cell_volume 6340.340561
_symmetry_space_group_name_H-M "F D D D"
_symmetry_group_IT_number 70
_space_group.IT_coordinate_system_code '2'
_symmetry_cell_setting 'orthorhombic'
loop_
_space_group_symop_operation_xyz
x,y,z
1/4-x,1/4-y,z
x,1/4-y,1/4-z
1/4-x,y,1/4-z
-x,-y,-z
3/4+x,3/4+y,-z
-x,3/4+y,3/4+z
3/4+x,-y,3/4+z
x,1/2+y,1/2+z
1/4-x,3/4-y,1/2+z
x,3/4-y,3/4-z
1/4-x,1/2+y,3/4-z
-x,1/2-y,1/2-z
3/4+x,1/4+y,1/2-z
-x,1/4+y,1/4+z
3/4+x,1/2-y,1/4+z
1/2+x,y,1/2+z
3/4-x,1/4-y,1/2+z
1/2+x,1/4-y,3/4-z
3/4-x,y,3/4-z
1/2-x,-y,1/2-z
1/4+x,3/4+y,1/2-z
1/2-x,3/4+y,1/4+z
1/4+x,-y,1/4+z
1/2+x,1/2+y,z
3/4-x,3/4-y,z
1/2+x,3/4-y,1/4-z
3/4-x,1/2+y,1/4-z
1/2-x,1/2-y,-z
1/4+x,1/4+y,-z
1/2-x,1/4+y,3/4+z
1/4+x,1/2-y,3/4+z
loop_
_atom_site_type_symbol
_atom_site_label
_atom_site_fract_x
_atom_site_fract_y
_atom_site_fract_z
Si Si1 0.782994 0.658284 0.519604
Si Si2 0.569446 0.192885 0.861438
Si Si3 0.324959 0.951420 0.969112
Si Si4 0.120134 0.375000 0.375000
Si Si5 0.563753 0.390665 0.113381
O O1 0.750000 0.750000 0.500000
O O2 0.738310 0.587136 0.553987
O O3 0.837207 0.674068 0.570043
O O4 0.801760 0.625387 0.444517
O O5 0.625000 0.125000 0.843214
O O6 0.584060 0.295898 0.836751
O O7 0.502567 0.168602 0.837792
O O8 0.569662 0.200994 0.946412
O O9 0.375000 0.875000 0.952687
O O10 0.330716 0.049330 0.931369
O O11 0.625000 0.448214 0.125000
#
# Coordination Sequence:
#
# PCOD9514852 Si02
#       5
#    32  32  32  16  32
#     4  11  21  34  57  89 117 149 196 249 306 368
#     4  10  22  40  61  88 123 161 204 248 300 377
#     4  10  20  36  59  89 123 156 193 249 317 369
#     4  12  22  40  62  84 120 170 202 240 314 376
#     4  11  22  37  57  86 120 152 197 256 299 349
#
# _framework density 22.711714000000001
#
# number of rings (size 3 to 8) (size 9 to 14) (size 15 to 20)
#    0.000    1.333    0.000    9.333    0.000    2.222 
#    0.000    6.111    0.000    5.333    0.000    0.000 
#    0.000    0.000    0.000    0.000    0.000    0.000 
#
# Total GULP energy -200630.118029 kJ/mol
# GULP energy per Si atom -5573.058834 kJ/mol
# Density = 2.266002 g / cm^3
# Si number density = 22.711714 Si / 1000 Ang^3
#
#
#
# Elastic Constant Matrix: (Units=GPa)
#
#
# Indices 1 2 3 4 5 6 
#
# 1 201.3743 66.9653 -8.8075 0.0000 0.0000 0.0000
# 2 66.9653 86.5087 -10.6310 0.0000 0.0000 0.0000
# 3 -8.8075 -10.6310 33.4347 0.0000 0.0000 0.0000
# 4 0.0000 0.0000 0.0000 15.6257 0.0000 0.0000
# 5 0.0000 0.0000 0.0000 0.0000 24.0824 0.0000
# 6 0.0000 0.0000 0.0000 0.0000 0.0000 50.9804
#
#
#
# Elastic Compliance Matrix: (Units=1/GPa)
#
#
# Indices 1 2 3 4 5 6 
#
# 1 0.006688 -0.005162 0.000120 0.000000 0.000000 0.000000
# 2 -0.005162 0.016014 0.003732 0.000000 0.000000 0.000000
# 3 0.000120 0.003732 0.031127 0.000000 0.000000 0.000000
# 4 0.000000 0.000000 0.000000 0.063997 0.000000 0.000000
# 5 0.000000 0.000000 0.000000 0.000000 0.041524 0.000000
# 6 0.000000 0.000000 0.000000 0.000000 0.000000 0.019615
#
#
# Mechanical properties :
#
#
# Convention : Reuss Voigt Hill
#
# Bulk Modulus (GPa) = 19.52750 46.26348 32.89549
# Shear Modulus (GPa) = 25.16922 36.39042 30.77982
#
# Velocity S-wave (km/s) = 3.33258 4.00719 3.68535
# Velocity P-wave (km/s) = 4.83992 6.46716 5.71178
#
# Compressibility (1/GPa) = 0.05120982
#
# Stress axis : x y z
#
# Youngs Moduli (GPa) = 149.52676 62.44495 32.12603
#
# Poissons Ratio (x) = 0.32235 -0.00387
# Poissons Ratio (y) = 0.77188 -0.11990
# Poissons Ratio (z) = -0.01800 -0.23305
#
# Static dielectric constant tensor:
#      x y z
#    x 1.976770 0.000000 0.000000 
#    y 0.000000 2.020290 0.000000 
#    z 0.000000 0.000000 1.862010 
# 
# From -- ./inp_files/44671.got.cif
#   From: 2010.05.17/outbox.cif.g08.bks.cpg/sg70_23_cif.got.tgz:44671.got - 2010.06.03 15:57:51.
