data_PCOD9514886
_publ_section_title
;
Structure prediction by ZEFSAII (Michael W. Deem and Ramdas Pophale) SiO2 
 PCOD9514886
Probable space group: F D D D
;
_chemical_formula_sum "Si O2"
_cell_formula_units_Z 184
_cell_length_a 21.937698
_cell_length_b 16.295038
_cell_length_c 27.693661
_cell_angle_alpha 90.000000
_cell_angle_beta 90.000000
_cell_angle_gamma 90.000000
_cell_volume 9899.808706
_symmetry_space_group_name_H-M "F D D D"
_symmetry_group_IT_number 70
_space_group.IT_coordinate_system_code '2'
_symmetry_cell_setting 'orthorhombic'
loop_
_space_group_symop_operation_xyz
x,y,z
1/4-x,1/4-y,z
x,1/4-y,1/4-z
1/4-x,y,1/4-z
-x,-y,-z
3/4+x,3/4+y,-z
-x,3/4+y,3/4+z
3/4+x,-y,3/4+z
x,1/2+y,1/2+z
1/4-x,3/4-y,1/2+z
x,3/4-y,3/4-z
1/4-x,1/2+y,3/4-z
-x,1/2-y,1/2-z
3/4+x,1/4+y,1/2-z
-x,1/4+y,1/4+z
3/4+x,1/2-y,1/4+z
1/2+x,y,1/2+z
3/4-x,1/4-y,1/2+z
1/2+x,1/4-y,3/4-z
3/4-x,y,3/4-z
1/2-x,-y,1/2-z
1/4+x,3/4+y,1/2-z
1/2-x,3/4+y,1/4+z
1/4+x,-y,1/4+z
1/2+x,1/2+y,z
3/4-x,3/4-y,z
1/2+x,3/4-y,1/4-z
3/4-x,1/2+y,1/4-z
1/2-x,1/2-y,-z
1/4+x,1/4+y,-z
1/2-x,1/4+y,3/4+z
1/4+x,1/2-y,3/4+z
loop_
_atom_site_type_symbol
_atom_site_label
_atom_site_fract_x
_atom_site_fract_y
_atom_site_fract_z
Si Si1 0.875000 0.375000 0.875000
Si Si2 0.375000 0.875000 0.715330
Si Si3 0.507667 0.891463 0.685671
Si Si4 0.065021 0.723919 0.728274
Si Si5 0.657663 0.001310 0.201639
Si Si6 0.197712 0.547720 0.502432
Si Si7 0.203777 0.364852 0.674451
O O1 0.833235 0.430045 0.839750
O O2 0.435162 0.890385 0.685389
O O3 0.361621 0.951589 0.750352
O O4 0.537335 0.811003 0.710173
O O5 0.528806 0.880718 0.630625
O O6 0.527242 0.971062 0.716957
O O7 0.126899 0.722559 0.760524
O O8 0.056194 0.629136 0.713758
O O9 0.073284 0.797268 0.690974
O O10 0.000000 0.750000 0.750000
O O11 0.600395 0.949173 0.182406
O O12 0.240430 0.578483 0.457792
#
# Coordination Sequence:
#
# PCOD9514886 Si02
#       7
#     8  16  32  32  32  32  32
#     4  10  20  36  64  92 118 148 216 260 306 370
#     4  11  26  41  60  88 130 162 204 269 326 365
#     4  12  23  39  64  94 123 164 217 259 318 385
#     4   9  20  37  61  89 121 165 204 253 317 377
#     4  11  21  40  63  89 120 167 209 260 316 385
#     4  10  21  38  61  91 124 165 206 257 320 371
#     4  11  21  39  66  91 125 163 213 259 315 383
#
# _framework density 18.586217999999999
#
# number of rings (size 3 to 8) (size 9 to 14) (size 15 to 20)
#    0.000    1.391    5.217    0.522    0.000    3.478 
#    0.000    1.739    0.000    0.000    0.000    0.000 
#    0.000    0.000    0.000    0.000    0.000    0.000 
#
# Total GULP energy -256069.669892 kJ/mol
# GULP energy per Si atom -5566.731954 kJ/mol
# Density = 1.854391 g / cm^3
# Si number density = 18.586218 Si / 1000 Ang^3
#
#
#
# Elastic Constant Matrix: (Units=GPa)
#
#
# Indices 1 2 3 4 5 6 
#
# 1 116.6391 23.4357 1.1696 0.0000 0.0000 0.0000
# 2 23.4357 111.3846 15.8645 0.0000 0.0000 0.0000
# 3 1.1696 15.8645 41.2649 0.0000 0.0000 0.0000
# 4 0.0000 0.0000 0.0000 -10.4079 0.0000 0.0000
# 5 0.0000 0.0000 0.0000 0.0000 15.6000 0.0000
# 6 0.0000 0.0000 0.0000 0.0000 0.0000 28.6344
#
#
#
# Elastic Compliance Matrix: (Units=1/GPa)
#
#
# Indices 1 2 3 4 5 6 
#
# 1 0.008962 -0.001957 0.000498 0.000000 0.000000 0.000000
# 2 -0.001957 0.009925 -0.003760 0.000000 0.000000 0.000000
# 3 0.000498 -0.003760 0.025665 0.000000 0.000000 0.000000
# 4 0.000000 0.000000 0.000000 -0.096081 0.000000 0.000000
# 5 0.000000 0.000000 0.000000 0.000000 0.064103 0.000000
# 6 0.000000 0.000000 0.000000 0.000000 0.000000 0.034923
#
#
# Mechanical properties :
#
#
# Convention : Reuss Voigt Hill
#
# Bulk Modulus (GPa) = 29.31290 38.91426 34.11358
# Shear Modulus (GPa) = 72.14421 22.01989 47.08205
#
# Velocity S-wave (km/s) = 6.23701 3.44574 5.03852
# Velocity P-wave (km/s) = 8.22633 6.06741 7.22793
#
# Compressibility (1/GPa) = 0.03411468
#
# Stress axis : x y z
#
# Youngs Moduli (GPa) = 111.58762 100.75427 38.96320
#
# Poissons Ratio (x) = 0.19713 -0.01941
# Poissons Ratio (y) = 0.21832 0.14651
# Poissons Ratio (z) = -0.05559 0.37887
#
# Static dielectric constant tensor:
#      x y z
#    x 1.681570 0.000000 0.000000 
#    y 0.000000 1.688130 0.000000 
#    z 0.000000 0.000000 1.641020 
# 
# From -- ./inp_files/47702.got.cif
#   From: 2010.05.17/outbox.cif.g08.bks.cpg/sg70_24_cif.got.tgz:47702.got - 2010.06.03 15:57:51.
