data_PCOD9514706
_publ_section_title
;
Structure prediction by ZEFSAII (Michael W. Deem and Ramdas Pophale) SiO2 
 PCOD9514706
Probable space group: F D D D
;
_chemical_formula_sum "Si O2"
_cell_formula_units_Z 168
_cell_length_a 29.923387
_cell_length_b 19.400617
_cell_length_c 14.414146
_cell_angle_alpha 90.000000
_cell_angle_beta 90.000000
_cell_angle_gamma 90.000000
_cell_volume 8367.875464
_symmetry_space_group_name_H-M "F D D D"
_symmetry_group_IT_number 70
_space_group.IT_coordinate_system_code '2'
_symmetry_cell_setting 'orthorhombic'
loop_
_space_group_symop_operation_xyz
x,y,z
1/4-x,1/4-y,z
x,1/4-y,1/4-z
1/4-x,y,1/4-z
-x,-y,-z
3/4+x,3/4+y,-z
-x,3/4+y,3/4+z
3/4+x,-y,3/4+z
x,1/2+y,1/2+z
1/4-x,3/4-y,1/2+z
x,3/4-y,3/4-z
1/4-x,1/2+y,3/4-z
-x,1/2-y,1/2-z
3/4+x,1/4+y,1/2-z
-x,1/4+y,1/4+z
3/4+x,1/2-y,1/4+z
1/2+x,y,1/2+z
3/4-x,1/4-y,1/2+z
1/2+x,1/4-y,3/4-z
3/4-x,y,3/4-z
1/2-x,-y,1/2-z
1/4+x,3/4+y,1/2-z
1/2-x,3/4+y,1/4+z
1/4+x,-y,1/4+z
1/2+x,1/2+y,z
3/4-x,3/4-y,z
1/2+x,3/4-y,1/4-z
3/4-x,1/2+y,1/4-z
1/2-x,1/2-y,-z
1/4+x,1/4+y,-z
1/2-x,1/4+y,3/4+z
1/4+x,1/2-y,3/4+z
loop_
_atom_site_type_symbol
_atom_site_label
_atom_site_fract_x
_atom_site_fract_y
_atom_site_fract_z
Si Si1 0.993689 0.800320 0.162174
Si Si2 0.176146 0.389497 0.636958
Si Si3 0.625000 0.125000 0.125000
Si Si4 0.917800 0.051509 0.084925
Si Si5 0.580026 0.664058 0.446500
Si Si6 0.812606 0.559133 0.566335
O O1 0.962141 0.863650 0.191859
O O2 0.966021 0.756429 0.089376
O O3 0.000000 0.750000 0.250000
O O4 0.038919 0.827280 0.115289
O O5 0.125000 0.364663 0.625000
O O6 0.178541 0.439699 0.725792
O O7 0.187311 0.427904 0.542079
O O8 0.595129 0.079348 0.195462
O O9 0.933693 0.125000 0.125000
O O10 0.864007 0.049708 0.096105
O O11 0.931756 0.983587 0.141114
O O12 0.625000 0.625000 0.406451
O O13 0.795686 0.625000 0.625000
#
# Coordination Sequence:
#
# PCOD9514706 Si02
#       6
#    32  32   8  32  32  32
#     4  12  24  41  70 107 141 181 228 304 361 430
#     4  10  24  42  66  96 137 191 237 275 358 429
#     4   8  20  40  72 112 138 172 218 312 392 416
#     4  10  22  43  67  93 137 187 229 284 344 427
#     4  10  22  43  67 100 142 177 230 295 359 425
#     4  10  19  41  65  96 136 176 222 280 351 423
#
# _framework density 20.076781
#
# number of rings (size 3 to 8) (size 9 to 14) (size 15 to 20)
#    0.571    1.143    3.810    0.000    0.000    5.333 
#   10.286    0.952    0.000    0.000    0.000    0.000 
#    0.000    0.000    0.000    0.000    0.000    0.000 
#
# Total GULP energy -234312.057976 kJ/mol
# GULP energy per Si atom -5578.858523 kJ/mol
# Density = 2.003109 g / cm^3
# Si number density = 20.076781 Si / 1000 Ang^3
#
#
#
# Elastic Constant Matrix: (Units=GPa)
#
#
# Indices 1 2 3 4 5 6 
#
# 1 94.5263 64.0013 55.2128 0.0000 0.0000 0.0000
# 2 64.0013 151.0024 78.6440 0.0000 0.0000 0.0000
# 3 55.2128 78.6440 125.7058 0.0000 0.0000 0.0000
# 4 0.0000 0.0000 0.0000 26.0210 0.0000 0.0000
# 5 0.0000 0.0000 0.0000 0.0000 -12.0358 0.0000
# 6 0.0000 0.0000 0.0000 0.0000 0.0000 48.1482
#
#
#
# Elastic Compliance Matrix: (Units=1/GPa)
#
#
# Indices 1 2 3 4 5 6 
#
# 1 0.016194 -0.004686 -0.004181 0.000000 0.000000 0.000000
# 2 -0.004686 0.011179 -0.004936 0.000000 0.000000 0.000000
# 3 -0.004181 -0.004936 0.012879 0.000000 0.000000 0.000000
# 4 0.000000 0.000000 0.000000 0.038431 0.000000 0.000000
# 5 0.000000 0.000000 0.000000 0.000000 -0.083085 0.000000
# 6 0.000000 0.000000 0.000000 0.000000 0.000000 0.020769
#
#
# Mechanical properties :
#
#
# Convention : Reuss Voigt Hill
#
# Bulk Modulus (GPa) = 79.07102 85.21675 82.14388
# Shear Modulus (GPa) = 103.75911 23.98510 63.87210
#
# Velocity S-wave (km/s) = 7.19676 3.46015 5.64650
# Velocity P-wave (km/s) = 10.41766 7.64860 9.13862
#
# Compressibility (1/GPa) = 0.01264686
#
# Stress axis : x y z
#
# Youngs Moduli (GPa) = 61.75081 89.45206 77.64403
#
# Poissons Ratio (x) = 0.41919 0.32463
# Poissons Ratio (y) = 0.28938 0.38322
# Poissons Ratio (z) = 0.25818 0.44150
#
# Static dielectric constant tensor:
#      x y z
#    x 1.772190 0.000000 0.000000 
#    y 0.000000 1.510500 0.000000 
#    z 0.000000 0.000000 1.730630 
# 
# From -- ./inp_files/29863.got.cif
#   From: 2010.05.17/outbox.cif.g08.bks.cpg/sg70_15_cif.got.tgz:29863.got - 2010.06.03 15:57:51.
