data_PCOD9514806
_publ_section_title
;
Structure prediction by ZEFSAII (Michael W. Deem and Ramdas Pophale) SiO2 
 PCOD9514806
Probable space group: F D D D
;
_chemical_formula_sum "Si O2"
_cell_formula_units_Z 208
_cell_length_a 14.361058
_cell_length_b 32.830309
_cell_length_c 19.866966
_cell_angle_alpha 90.000000
_cell_angle_beta 90.000000
_cell_angle_gamma 90.000000
_cell_volume 9366.836834
_symmetry_space_group_name_H-M "F D D D"
_symmetry_group_IT_number 70
_space_group.IT_coordinate_system_code '2'
_symmetry_cell_setting 'orthorhombic'
loop_
_space_group_symop_operation_xyz
x,y,z
1/4-x,1/4-y,z
x,1/4-y,1/4-z
1/4-x,y,1/4-z
-x,-y,-z
3/4+x,3/4+y,-z
-x,3/4+y,3/4+z
3/4+x,-y,3/4+z
x,1/2+y,1/2+z
1/4-x,3/4-y,1/2+z
x,3/4-y,3/4-z
1/4-x,1/2+y,3/4-z
-x,1/2-y,1/2-z
3/4+x,1/4+y,1/2-z
-x,1/4+y,1/4+z
3/4+x,1/2-y,1/4+z
1/2+x,y,1/2+z
3/4-x,1/4-y,1/2+z
1/2+x,1/4-y,3/4-z
3/4-x,y,3/4-z
1/2-x,-y,1/2-z
1/4+x,3/4+y,1/2-z
1/2-x,3/4+y,1/4+z
1/4+x,-y,1/4+z
1/2+x,1/2+y,z
3/4-x,3/4-y,z
1/2+x,3/4-y,1/4-z
3/4-x,1/2+y,1/4-z
1/2-x,1/2-y,-z
1/4+x,1/4+y,-z
1/2-x,1/4+y,3/4+z
1/4+x,1/2-y,3/4+z
loop_
_atom_site_type_symbol
_atom_site_label
_atom_site_fract_x
_atom_site_fract_y
_atom_site_fract_z
Si Si1 0.875000 0.375000 0.236433
Si Si2 0.679303 0.047864 0.398694
Si Si3 0.877354 0.235881 0.489647
Si Si4 0.625000 0.994883 0.125000
Si Si5 0.651015 0.518899 0.481553
Si Si6 0.672989 0.318789 0.322437
Si Si7 0.625000 0.544660 0.125000
Si Si8 0.565273 0.903468 0.467809
O O1 0.831793 0.339862 0.188982
O O2 0.795923 0.396385 0.281390
O O3 0.639655 0.049115 0.323563
O O4 0.625717 0.012689 0.441817
O O5 0.785357 0.032658 0.391698
O O6 0.834887 0.264521 0.432273
O O7 0.834007 0.191163 0.484530
O O8 0.987497 0.228498 0.480313
O O9 0.637489 0.021346 0.192785
O O10 0.632459 0.472744 0.455415
O O11 0.785337 0.314075 0.336604
O O12 0.642431 0.330838 0.397388
O O13 0.650816 0.357111 0.274592
#
# Coordination Sequence:
#
# PCOD9514806 Si02
#       8
#    16  32  32  16  32  32  16  32
#     4  12  26  37  62  97 142 168 214 262 336 400
#     4  11  23  45  63  97 127 174 220 277 328 393
#     4  10  22  37  65  95 133 169 223 258 331 394
#     4  10  22  42  73  89 121 164 227 276 327 389
#     4  10  21  42  67  97 119 173 220 277 321 398
#     4  10  20  35  61  91 131 168 215 251 326 388
#     4  10  20  35  57  92 125 182 205 256 314 402
#     4  11  21  37  57  95 136 176 201 270 314 400
#
# _framework density 22.206002000000002
#
# number of rings (size 3 to 8) (size 9 to 14) (size 15 to 20)
#    0.000    1.538    1.538    5.077    4.308    2.462 
#    5.538    0.769    0.000    0.462    0.000    0.000 
#    0.000    0.000    0.000    0.000    0.000    0.000 
#
# Total GULP energy -290284.938930 kJ/mol
# GULP energy per Si atom -5582.402672 kJ/mol
# Density = 2.215546 g / cm^3
# Si number density = 22.206002 Si / 1000 Ang^3
#
#
#
# Elastic Constant Matrix: (Units=GPa)
#
#
# Indices 1 2 3 4 5 6 
#
# 1 52.2943 3.9189 6.4252 0.0000 0.0000 0.0000
# 2 3.9189 104.6824 23.8768 0.0000 0.0000 0.0000
# 3 6.4252 23.8768 121.8232 0.0000 0.0000 0.0000
# 4 0.0000 0.0000 0.0000 33.0755 0.0000 0.0000
# 5 0.0000 0.0000 0.0000 0.0000 20.9726 0.0000
# 6 0.0000 0.0000 0.0000 0.0000 0.0000 22.3668
#
#
#
# Elastic Compliance Matrix: (Units=1/GPa)
#
#
# Indices 1 2 3 4 5 6 
#
# 1 0.019273 -0.000513 -0.000916 0.000000 0.000000 0.000000
# 2 -0.000513 0.010013 -0.001936 0.000000 0.000000 0.000000
# 3 -0.000916 -0.001936 0.008636 0.000000 0.000000 0.000000
# 4 0.000000 0.000000 0.000000 0.030234 0.000000 0.000000
# 5 0.000000 0.000000 0.000000 0.000000 0.047681 0.000000
# 6 0.000000 0.000000 0.000000 0.000000 0.000000 0.044709
#
#
# Mechanical properties :
#
#
# Convention : Reuss Voigt Hill
#
# Bulk Modulus (GPa) = 32.05663 38.58241 35.31952
# Shear Modulus (GPa) = 28.14140 31.58824 29.86482
#
# Velocity S-wave (km/s) = 3.56376 3.77571 3.67126
# Velocity P-wave (km/s) = 5.60368 6.03494 5.82330
#
# Compressibility (1/GPa) = 0.03119480
#
# Stress axis : x y z
#
# Youngs Moduli (GPa) = 51.88473 99.86653 115.79042
#
# Poissons Ratio (x) = 0.05119 0.10607
# Poissons Ratio (y) = 0.02659 0.22412
# Poissons Ratio (z) = 0.04753 0.19330
#
# Static dielectric constant tensor:
#      x y z
#    x 1.859880 0.000000 0.000000 
#    y 0.000000 1.831780 0.000000 
#    z 0.000000 0.000000 1.881080 
# 
# From -- ./inp_files/43988.got.cif
#   From: 2010.05.17/outbox.cif.g08.bks.cpg/sg70_22_cif.got.tgz:43988.got - 2010.06.03 15:57:51.
