data_PCOD9514075
_publ_section_title
;
Structure prediction by ZEFSAII (Michael W. Deem and Ramdas Pophale) SiO2 
 PCOD9514075
Probable space group: F D D D
;
_chemical_formula_sum "Si O2"
_cell_formula_units_Z 112
_cell_length_a 18.094602
_cell_length_b 10.162664
_cell_length_c 24.931932
_cell_angle_alpha 90.000000
_cell_angle_beta 90.000000
_cell_angle_gamma 90.000000
_cell_volume 4584.717028
_symmetry_space_group_name_H-M "F D D D"
_symmetry_group_IT_number 70
_space_group.IT_coordinate_system_code '2'
_symmetry_cell_setting 'orthorhombic'
loop_
_space_group_symop_operation_xyz
x,y,z
1/4-x,1/4-y,z
x,1/4-y,1/4-z
1/4-x,y,1/4-z
-x,-y,-z
3/4+x,3/4+y,-z
-x,3/4+y,3/4+z
3/4+x,-y,3/4+z
x,1/2+y,1/2+z
1/4-x,3/4-y,1/2+z
x,3/4-y,3/4-z
1/4-x,1/2+y,3/4-z
-x,1/2-y,1/2-z
3/4+x,1/4+y,1/2-z
-x,1/4+y,1/4+z
3/4+x,1/2-y,1/4+z
1/2+x,y,1/2+z
3/4-x,1/4-y,1/2+z
1/2+x,1/4-y,3/4-z
3/4-x,y,3/4-z
1/2-x,-y,1/2-z
1/4+x,3/4+y,1/2-z
1/2-x,3/4+y,1/4+z
1/4+x,-y,1/4+z
1/2+x,1/2+y,z
3/4-x,3/4-y,z
1/2+x,3/4-y,1/4-z
3/4-x,1/2+y,1/4-z
1/2-x,1/2-y,-z
1/4+x,1/4+y,-z
1/2-x,1/4+y,3/4+z
1/4+x,1/2-y,3/4+z
loop_
_atom_site_type_symbol
_atom_site_label
_atom_site_fract_x
_atom_site_fract_y
_atom_site_fract_z
Si Si1 0.982014 0.765797 0.111557
Si Si2 0.625000 0.125000 0.952151
Si Si3 0.700186 0.024728 0.674384
Si Si4 0.360390 0.081327 0.225976
O O1 0.015828 0.625000 0.125000
O O2 0.940682 0.834100 0.161704
O O3 0.920116 0.727018 0.066184
O O4 0.038276 0.875556 0.094483
O O5 0.615795 0.261163 0.983829
O O6 0.693851 0.125000 0.625000
O O7 0.778864 0.061382 0.701280
O O8 0.637298 0.998896 0.719001
#
# Coordination Sequence:
#
# PCOD9514075 Si02
#       4
#    32  16  32  32
#     4  10  18  34  59  85 121 159 205 255 306 362
#     4  10  16  34  56  90 118 164 200 262 290 370
#     4  11  19  35  60  92 123 157 207 263 308 369
#     4  10  20  31  60  92 121 157 216 251 312 360
#
# _framework density 24.428989999999999
#
# number of rings (size 3 to 8) (size 9 to 14) (size 15 to 20)
#    0.000    1.714    5.714    0.857    0.000    0.000 
#    0.000    5.714    6.286   18.857    0.000    0.000 
#    0.000    0.000    0.000    0.000    0.000    0.000 
#
# Total GULP energy -156471.404436 kJ/mol
# GULP energy per Si atom -5588.264444 kJ/mol
# Density = 2.437339 g / cm^3
# Si number density = 24.428990 Si / 1000 Ang^3
#
#
#
# Elastic Constant Matrix: (Units=GPa)
#
#
# Indices 1 2 3 4 5 6 
#
# 1 25.0721 25.4410 16.4282 0.0000 0.0000 0.0000
# 2 25.4410 278.8907 89.6408 0.0000 0.0000 0.0000
# 3 16.4282 89.6408 132.7811 0.0000 0.0000 0.0000
# 4 0.0000 0.0000 0.0000 70.2078 0.0000 0.0000
# 5 0.0000 0.0000 0.0000 0.0000 -20.2135 0.0000
# 6 0.0000 0.0000 0.0000 0.0000 0.0000 -9.9216
#
#
#
# Elastic Compliance Matrix: (Units=1/GPa)
#
#
# Indices 1 2 3 4 5 6 
#
# 1 0.045256 -0.002974 -0.003591 0.000000 0.000000 0.000000
# 2 -0.002974 0.004775 -0.002855 0.000000 0.000000 0.000000
# 3 -0.003591 -0.002855 0.009903 0.000000 0.000000 0.000000
# 4 0.000000 0.000000 0.000000 0.014243 0.000000 0.000000
# 5 0.000000 0.000000 0.000000 0.000000 -0.049472 0.000000
# 6 0.000000 0.000000 0.000000 0.000000 0.000000 -0.100790
#
#
# Mechanical properties :
#
#
# Convention : Reuss Voigt Hill
#
# Bulk Modulus (GPa) = 24.33562 77.75155 51.04359
# Shear Modulus (GPa) = -114.82264 28.36348 -43.22958
#
# Velocity S-wave (km/s) = -6.86328 3.41113 -4.21123
# Velocity P-wave (km/s) = 7.26793 6.88557 1.64495
#
# Compressibility (1/GPa) = 0.04109203
#
# Stress axis : x y z
#
# Youngs Moduli (GPa) = 22.09657 209.43577 100.97652
#
# Poissons Ratio (x) = 0.62285 0.36266
# Poissons Ratio (y) = 0.06571 0.28834
# Poissons Ratio (z) = 0.07936 0.59804
#
# Static dielectric constant tensor:
#      x y z
#    x 2.147500 0.000000 0.000000 
#    y 0.000000 1.936040 0.000000 
#    z 0.000000 0.000000 1.004130 
# 
# From -- ./inp_files/49765.got.cif
#   From: 2010.05.17/outbox.cif.g08.bks.cpg/sg70_25_cif.got.tgz:49765.got - 2010.06.03 15:57:51.
