data_PCOD9514086
_publ_section_title
;
Structure prediction by ZEFSAII (Michael W. Deem and Ramdas Pophale) SiO2 
 PCOD9514086
Probable space group: F D D D
;
_chemical_formula_sum "Si O2"
_cell_formula_units_Z 208
_cell_length_a 27.244223
_cell_length_b 21.599324
_cell_length_c 17.667566
_cell_angle_alpha 90.000000
_cell_angle_beta 90.000000
_cell_angle_gamma 90.000000
_cell_volume 10396.599347
_symmetry_space_group_name_H-M "F D D D"
_symmetry_group_IT_number 70
_space_group.IT_coordinate_system_code '2'
_symmetry_cell_setting 'orthorhombic'
loop_
_space_group_symop_operation_xyz
x,y,z
1/4-x,1/4-y,z
x,1/4-y,1/4-z
1/4-x,y,1/4-z
-x,-y,-z
3/4+x,3/4+y,-z
-x,3/4+y,3/4+z
3/4+x,-y,3/4+z
x,1/2+y,1/2+z
1/4-x,3/4-y,1/2+z
x,3/4-y,3/4-z
1/4-x,1/2+y,3/4-z
-x,1/2-y,1/2-z
3/4+x,1/4+y,1/2-z
-x,1/4+y,1/4+z
3/4+x,1/2-y,1/4+z
1/2+x,y,1/2+z
3/4-x,1/4-y,1/2+z
1/2+x,1/4-y,3/4-z
3/4-x,y,3/4-z
1/2-x,-y,1/2-z
1/4+x,3/4+y,1/2-z
1/2-x,3/4+y,1/4+z
1/4+x,-y,1/4+z
1/2+x,1/2+y,z
3/4-x,3/4-y,z
1/2+x,3/4-y,1/4-z
3/4-x,1/2+y,1/4-z
1/2-x,1/2-y,-z
1/4+x,1/4+y,-z
1/2-x,1/4+y,3/4+z
1/4+x,1/2-y,3/4+z
loop_
_atom_site_type_symbol
_atom_site_label
_atom_site_fract_x
_atom_site_fract_y
_atom_site_fract_z
Si Si1 0.907592 0.056653 0.101534
Si Si2 0.727277 0.669849 0.465735
Si Si3 0.471889 0.713456 0.933383
Si Si4 0.578276 0.328588 0.679789
Si Si5 0.625000 0.272033 0.125000
Si Si6 0.239743 0.219471 0.831000
Si Si7 0.075767 0.464321 0.974099
O O1 0.926261 0.125000 0.125000
O O2 0.945691 0.004812 0.127801
O O3 0.857898 0.048411 0.150536
O O4 0.904065 0.054490 0.011300
O O5 0.743518 0.704311 0.388116
O O6 0.722784 0.598364 0.447048
O O7 0.772877 0.681242 0.522660
O O8 0.681513 0.712021 0.488455
O O9 0.447935 0.645321 0.944409
O O10 0.424647 0.756041 0.911255
O O11 0.499101 0.740191 0.005699
O O12 0.625000 0.329905 0.625000
O O13 0.535977 0.289433 0.636509
O O14 0.602510 0.307061 0.198668
#
# Coordination Sequence:
#
# PCOD9514086 Si02
#       7
#    32  32  32  32  16  32  32
#     4  12  24  40  68  98 125 176 231 272 323 413
#     4   9  23  39  62  96 135 169 207 276 332 394
#     4  10  19  38  63  92 124 164 211 267 323 390
#     4  11  24  42  69  95 126 170 228 281 329 398
#     4  10  16  36  61  82 126 160 201 250 314 378
#     4  11  23  40  65  95 132 171 215 275 344 386
#     4  10  21  40  64  94 128 167 219 261 323 404
#
# _framework density 20.006542
#
# number of rings (size 3 to 8) (size 9 to 14) (size 15 to 20)
#    0.000    1.538    3.846    0.462    6.462    0.615 
#    0.000    6.923    0.000    0.462    0.000    0.000 
#    0.000    0.000    0.000    0.000    0.000    0.000 
#
# Total GULP energy -289830.522222 kJ/mol
# GULP energy per Si atom -5573.663889 kJ/mol
# Density = 1.996101 g / cm^3
# Si number density = 20.006542 Si / 1000 Ang^3
#
#
#
# Elastic Constant Matrix: (Units=GPa)
#
#
# Indices 1 2 3 4 5 6 
#
# 1 71.9854 55.1952 60.7260 0.0000 0.0000 0.0000
# 2 55.1952 108.3152 56.3267 0.0000 0.0000 0.0000
# 3 60.7260 56.3267 159.8330 0.0000 0.0000 0.0000
# 4 0.0000 0.0000 0.0000 29.1052 0.0000 0.0000
# 5 0.0000 0.0000 0.0000 0.0000 45.4403 0.0000
# 6 0.0000 0.0000 0.0000 0.0000 0.0000 22.9656
#
#
#
# Elastic Compliance Matrix: (Units=1/GPa)
#
#
# Indices 1 2 3 4 5 6 
#
# 1 0.027775 -0.010610 -0.006813 0.000000 0.000000 0.000000
# 2 -0.010610 0.015357 -0.001381 0.000000 0.000000 0.000000
# 3 -0.006813 -0.001381 0.009332 0.000000 0.000000 0.000000
# 4 0.000000 0.000000 0.000000 0.034358 0.000000 0.000000
# 5 0.000000 0.000000 0.000000 0.000000 0.022007 0.000000
# 6 0.000000 0.000000 0.000000 0.000000 0.000000 0.043543
#
#
# Mechanical properties :
#
#
# Convention : Reuss Voigt Hill
#
# Bulk Modulus (GPa) = 67.31860 76.06993 71.69427
# Shear Modulus (GPa) = 25.64978 30.69460 28.17219
#
# Velocity S-wave (km/s) = 3.58448 3.92117 3.75660
# Velocity P-wave (km/s) = 7.13111 7.65545 7.39792
#
# Compressibility (1/GPa) = 0.01485474
#
# Stress axis : x y z
#
# Youngs Moduli (GPa) = 36.00349 65.11609 107.16038
#
# Poissons Ratio (x) = 0.69091 0.73014
# Poissons Ratio (y) = 0.38201 0.14796
# Poissons Ratio (z) = 0.24531 0.08991
#
# Static dielectric constant tensor:
#      x y z
#    x 1.754600 0.000000 0.000000 
#    y 0.000000 1.761000 0.000000 
#    z 0.000000 0.000000 1.756840 
# 
# From -- ./inp_files/38709.got.cif
#   From: 2010.05.17/outbox.cif.g08.bks.cpg/sg70_20_cif.got.tgz:38709.got - 2010.06.03 15:57:51.
