data_PCOD9514255
_publ_section_title
;
Structure prediction by ZEFSAII (Michael W. Deem and Ramdas Pophale) SiO2 
 PCOD9514255
Probable space group: F D D D
;
_chemical_formula_sum "Si O2"
_cell_formula_units_Z 208
_cell_length_a 21.828802
_cell_length_b 30.019833
_cell_length_c 16.871683
_cell_angle_alpha 90.000000
_cell_angle_beta 90.000000
_cell_angle_gamma 90.000000
_cell_volume 11055.963097
_symmetry_space_group_name_H-M "F D D D"
_symmetry_group_IT_number 70
_space_group.IT_coordinate_system_code '2'
_symmetry_cell_setting 'orthorhombic'
loop_
_space_group_symop_operation_xyz
x,y,z
1/4-x,1/4-y,z
x,1/4-y,1/4-z
1/4-x,y,1/4-z
-x,-y,-z
3/4+x,3/4+y,-z
-x,3/4+y,3/4+z
3/4+x,-y,3/4+z
x,1/2+y,1/2+z
1/4-x,3/4-y,1/2+z
x,3/4-y,3/4-z
1/4-x,1/2+y,3/4-z
-x,1/2-y,1/2-z
3/4+x,1/4+y,1/2-z
-x,1/4+y,1/4+z
3/4+x,1/2-y,1/4+z
1/2+x,y,1/2+z
3/4-x,1/4-y,1/2+z
1/2+x,1/4-y,3/4-z
3/4-x,y,3/4-z
1/2-x,-y,1/2-z
1/4+x,3/4+y,1/2-z
1/2-x,3/4+y,1/4+z
1/4+x,-y,1/4+z
1/2+x,1/2+y,z
3/4-x,3/4-y,z
1/2+x,3/4-y,1/4-z
3/4-x,1/2+y,1/4-z
1/2-x,1/2-y,-z
1/4+x,1/4+y,-z
1/2-x,1/4+y,3/4+z
1/4+x,1/2-y,3/4+z
loop_
_atom_site_type_symbol
_atom_site_label
_atom_site_fract_x
_atom_site_fract_y
_atom_site_fract_z
Si Si1 0.937759 0.854560 0.209629
Si Si2 0.560844 0.455940 0.953237
Si Si3 0.861133 0.271425 0.095781
Si Si4 0.376790 0.625000 0.625000
Si Si5 0.273144 0.192308 0.582335
Si Si6 0.056573 0.748287 0.634203
Si Si7 0.519096 0.197656 0.986362
O O1 0.875000 0.875000 0.244359
O O2 0.916418 0.820879 0.140055
O O3 0.977322 0.898866 0.194967
O O4 0.971625 0.823553 0.272419
O O5 0.604351 0.495050 0.916187
O O6 0.587772 0.408639 0.928157
O O7 0.494293 0.463580 0.914386
O O8 0.557862 0.464566 0.046349
O O9 0.806039 0.239418 0.069513
O O10 0.915144 0.279295 0.031226
O O11 0.422006 0.593443 0.575566
O O12 0.246622 0.191415 0.671714
O O13 0.125000 0.730466 0.625000
O O14 0.031673 0.771713 0.555087
#
# Coordination Sequence:
#
# PCOD9514255 Si02
#       7
#    32  32  32  16  32  32  32
#     4  10  20  34  53  83 113 145 188 230 279 352
#     4   9  20  36  55  81 106 146 183 235 285 327
#     4   9  20  34  53  78 115 146 186 230 282 343
#     4  10  18  34  56  80 110 138 184 222 276 344
#     4  11  19  34  57  81 112 155 183 227 294 340
#     4  10  19  35  58  78 105 142 193 233 278 337
#     4  10  20  35  55  83 108 149 192 234 283 344
#
# _framework density 18.813376999999999
#
# number of rings (size 3 to 8) (size 9 to 14) (size 15 to 20)
#    0.000    2.154    1.538    2.308    0.000    4.308 
#    0.000    6.538    0.000    3.692    0.000    0.000 
#    0.000    0.000    0.000    0.000    0.000    0.000 
#
# Total GULP energy -289730.394717 kJ/mol
# GULP energy per Si atom -5571.738360 kJ/mol
# Density = 1.877056 g / cm^3
# Si number density = 18.813377 Si / 1000 Ang^3
#
#
#
# Elastic Constant Matrix: (Units=GPa)
#
#
# Indices 1 2 3 4 5 6 
#
# 1 71.7451 26.8169 -1.1730 0.0000 0.0000 0.0000
# 2 26.8169 90.8868 7.2148 0.0000 0.0000 0.0000
# 3 -1.1730 7.2148 32.0493 0.0000 0.0000 0.0000
# 4 0.0000 0.0000 0.0000 12.2774 0.0000 0.0000
# 5 0.0000 0.0000 0.0000 0.0000 17.1387 0.0000
# 6 0.0000 0.0000 0.0000 0.0000 0.0000 36.4847
#
#
#
# Elastic Compliance Matrix: (Units=1/GPa)
#
#
# Indices 1 2 3 4 5 6 
#
# 1 0.015751 -0.004779 0.001652 0.000000 0.000000 0.000000
# 2 -0.004779 0.012653 -0.003023 0.000000 0.000000 0.000000
# 3 0.001652 -0.003023 0.031943 0.000000 0.000000 0.000000
# 4 0.000000 0.000000 0.000000 0.081450 0.000000 0.000000
# 5 0.000000 0.000000 0.000000 0.000000 0.058348 0.000000
# 6 0.000000 0.000000 0.000000 0.000000 0.000000 0.027409
#
#
# Mechanical properties :
#
#
# Convention : Reuss Voigt Hill
#
# Bulk Modulus (GPa) = 20.81264 28.93317 24.87291
# Shear Modulus (GPa) = 19.54124 23.96833 21.75478
#
# Velocity S-wave (km/s) = 3.22637 3.57319 3.40420
# Velocity P-wave (km/s) = 4.99659 5.69526 5.35733
#
# Compressibility (1/GPa) = 0.04804772
#
# Stress axis : x y z
#
# Youngs Moduli (GPa) = 63.48618 79.03449 31.30578
#
# Poissons Ratio (x) = 0.37769 -0.05173
# Poissons Ratio (y) = 0.30339 0.09464
# Poissons Ratio (z) = -0.10490 0.23894
#
# Static dielectric constant tensor:
#      x y z
#    x 1.698220 0.000000 0.000000 
#    y 0.000000 1.673030 0.000000 
#    z 0.000000 0.000000 1.632440 
# 
# From -- ./inp_files/37806.got.cif
#   From: 2010.05.17/outbox.cif.g08.bks.cpg/sg70_19_cif.got.tgz:37806.got - 2010.06.03 15:57:51.
