data_PCOD9514773
_publ_section_title
;
Structure prediction by ZEFSAII (Michael W. Deem and Ramdas Pophale) SiO2 
 PCOD9514773
Probable space group: F D D D
;
_chemical_formula_sum "Si O2"
_cell_formula_units_Z 144
_cell_length_a 13.569192
_cell_length_b 27.634969
_cell_length_c 21.294427
_cell_angle_alpha 90.000000
_cell_angle_beta 90.000000
_cell_angle_gamma 90.000000
_cell_volume 7985.073679
_symmetry_space_group_name_H-M "F D D D"
_symmetry_group_IT_number 70
_space_group.IT_coordinate_system_code '2'
_symmetry_cell_setting 'orthorhombic'
loop_
_space_group_symop_operation_xyz
x,y,z
1/4-x,1/4-y,z
x,1/4-y,1/4-z
1/4-x,y,1/4-z
-x,-y,-z
3/4+x,3/4+y,-z
-x,3/4+y,3/4+z
3/4+x,-y,3/4+z
x,1/2+y,1/2+z
1/4-x,3/4-y,1/2+z
x,3/4-y,3/4-z
1/4-x,1/2+y,3/4-z
-x,1/2-y,1/2-z
3/4+x,1/4+y,1/2-z
-x,1/4+y,1/4+z
3/4+x,1/2-y,1/4+z
1/2+x,y,1/2+z
3/4-x,1/4-y,1/2+z
1/2+x,1/4-y,3/4-z
3/4-x,y,3/4-z
1/2-x,-y,1/2-z
1/4+x,3/4+y,1/2-z
1/2-x,3/4+y,1/4+z
1/4+x,-y,1/4+z
1/2+x,1/2+y,z
3/4-x,3/4-y,z
1/2+x,3/4-y,1/4-z
3/4-x,1/2+y,1/4-z
1/2-x,1/2-y,-z
1/4+x,1/4+y,-z
1/2-x,1/4+y,3/4+z
1/4+x,1/2-y,3/4+z
loop_
_atom_site_type_symbol
_atom_site_label
_atom_site_fract_x
_atom_site_fract_y
_atom_site_fract_z
Si Si1 0.125000 0.786875 0.125000
Si Si2 0.595025 0.255223 0.792675
Si Si3 0.737832 0.568576 0.109273
Si Si4 0.949374 0.751490 0.505913
Si Si5 0.591593 0.069899 0.893585
O O1 0.150085 0.756710 0.188110
O O2 0.223433 0.816514 0.109258
O O3 0.500000 0.250000 0.750000
O O4 0.564493 0.293402 0.844754
O O5 0.691562 0.272394 0.756044
O O6 0.619922 0.205465 0.829370
O O7 0.739359 0.625000 0.125000
O O8 0.625000 0.552007 0.125000
O O9 0.773992 0.549247 0.041497
O O10 0.885320 0.786199 0.550566
O O11 0.625000 0.125000 0.899388
#
# Coordination Sequence:
#
# PCOD9514773 Si02
#       5
#    16  32  32  32  32
#     4  10  22  42  59  84 116 162 201 246 302 368
#     4  10  20  35  56  84 118 154 194 243 304 359
#     4  10  20  34  55  86 117 153 195 246 304 358
#     4  10  21  39  59  82 118 161 200 245 304 358
#     4  10  23  38  59  87 117 155 200 255 304 361
#
# _framework density 18.033646999999998
#
# number of rings (size 3 to 8) (size 9 to 14) (size 15 to 20)
#    0.000    2.000    2.222    0.667    0.000    7.111 
#    0.000    0.556    0.000    0.000    0.000    0.000 
#    0.000    0.000    0.000    0.000    0.000    0.000 
#
# Total GULP energy -200598.660728 kJ/mol
# GULP energy per Si atom -5572.185020 kJ/mol
# Density = 1.799260 g / cm^3
# Si number density = 18.033647 Si / 1000 Ang^3
#
#
#
# Elastic Constant Matrix: (Units=GPa)
#
#
# Indices 1 2 3 4 5 6 
#
# 1 160.9125 53.3638 56.7457 0.0000 0.0000 0.0000
# 2 53.3638 90.8363 32.0440 0.0000 0.0000 0.0000
# 3 56.7457 32.0440 109.2105 0.0000 0.0000 0.0000
# 4 0.0000 0.0000 0.0000 5.4447 0.0000 0.0000
# 5 0.0000 0.0000 0.0000 0.0000 41.6964 0.0000
# 6 0.0000 0.0000 0.0000 0.0000 0.0000 18.1965
#
#
#
# Elastic Compliance Matrix: (Units=1/GPa)
#
#
# Indices 1 2 3 4 5 6 
#
# 1 0.008705 -0.003925 -0.003372 0.000000 0.000000 0.000000
# 2 -0.003925 0.014049 -0.002083 0.000000 0.000000 0.000000
# 3 -0.003372 -0.002083 0.011520 0.000000 0.000000 0.000000
# 4 0.000000 0.000000 0.000000 0.183665 0.000000 0.000000
# 5 0.000000 0.000000 0.000000 0.000000 0.023983 0.000000
# 6 0.000000 0.000000 0.000000 0.000000 0.000000 0.054956
#
#
# Mechanical properties :
#
#
# Convention : Reuss Voigt Hill
#
# Bulk Modulus (GPa) = 64.45158 71.69626 68.07392
# Shear Modulus (GPa) = 15.58563 27.65456 21.62009
#
# Velocity S-wave (km/s) = 2.94301 3.92024 3.46623
# Velocity P-wave (km/s) = 6.88227 7.76751 7.33825
#
# Compressibility (1/GPa) = 0.01551552
#
# Stress axis : x y z
#
# Youngs Moduli (GPa) = 114.87540 71.17823 86.80769
#
# Poissons Ratio (x) = 0.27935 0.29268
# Poissons Ratio (y) = 0.45084 0.18082
# Poissons Ratio (z) = 0.38732 0.14827
#
# Static dielectric constant tensor:
#      x y z
#    x 1.621740 0.000000 0.000000 
#    y 0.000000 1.600420 0.000000 
#    z 0.000000 0.000000 1.664950 
# 
# From -- ./inp_files/19179.got.cif
#   From: 2010.05.17/outbox.cif.g08.bks.cpg/sg70_10_cif.got.tgz:19179.got - 2010.06.03 15:57:51.
