data_PCOD9514847
_publ_section_title
;
Structure prediction by ZEFSAII (Michael W. Deem and Ramdas Pophale) SiO2 
 PCOD9514847
Probable space group: F D D D
;
_chemical_formula_sum "Si O2"
_cell_formula_units_Z 176
_cell_length_a 11.835514
_cell_length_b 31.059478
_cell_length_c 23.819950
_cell_angle_alpha 90.000000
_cell_angle_beta 90.000000
_cell_angle_gamma 90.000000
_cell_volume 8756.330021
_symmetry_space_group_name_H-M "F D D D"
_symmetry_group_IT_number 70
_space_group.IT_coordinate_system_code '2'
_symmetry_cell_setting 'orthorhombic'
loop_
_space_group_symop_operation_xyz
x,y,z
1/4-x,1/4-y,z
x,1/4-y,1/4-z
1/4-x,y,1/4-z
-x,-y,-z
3/4+x,3/4+y,-z
-x,3/4+y,3/4+z
3/4+x,-y,3/4+z
x,1/2+y,1/2+z
1/4-x,3/4-y,1/2+z
x,3/4-y,3/4-z
1/4-x,1/2+y,3/4-z
-x,1/2-y,1/2-z
3/4+x,1/4+y,1/2-z
-x,1/4+y,1/4+z
3/4+x,1/2-y,1/4+z
1/2+x,y,1/2+z
3/4-x,1/4-y,1/2+z
1/2+x,1/4-y,3/4-z
3/4-x,y,3/4-z
1/2-x,-y,1/2-z
1/4+x,3/4+y,1/2-z
1/2-x,3/4+y,1/4+z
1/4+x,-y,1/4+z
1/2+x,1/2+y,z
3/4-x,3/4-y,z
1/2+x,3/4-y,1/4-z
3/4-x,1/2+y,1/4-z
1/2-x,1/2-y,-z
1/4+x,1/4+y,-z
1/2-x,1/4+y,3/4+z
1/4+x,1/2-y,3/4+z
loop_
_atom_site_type_symbol
_atom_site_label
_atom_site_fract_x
_atom_site_fract_y
_atom_site_fract_z
Si Si1 0.254784 0.554114 0.397649
Si Si2 0.125000 0.625000 0.926032
Si Si3 0.320145 0.012920 0.112733
Si Si4 0.766076 0.671046 0.225786
Si Si5 0.674916 0.316376 0.683321
Si Si6 0.747082 0.321955 0.466028
O O1 0.375000 0.540815 0.375000
O O2 0.191199 0.591035 0.362621
O O3 0.172237 0.513619 0.390234
O O4 0.283997 0.572801 0.458525
O O5 0.224543 0.597507 0.955972
O O6 0.338087 0.045802 0.061163
O O7 0.276300 0.042223 0.163146
O O8 0.233415 0.977736 0.087365
O O9 0.631739 0.680119 0.222446
O O10 0.783644 0.622062 0.206614
O O11 0.625000 0.335569 0.625000
O O12 0.575781 0.309272 0.728673
#
# Coordination Sequence:
#
# PCOD9514847 Si02
#       6
#    32  16  32  32  32  32
#     4  11  23  40  61  87 122 159 202 248 296 355
#     4  10  20  36  58  88 116 156 204 248 298 350
#     4  11  24  38  59  90 121 157 197 245 304 359
#     4  11  22  38  62  88 119 158 199 248 303 357
#     4  11  21  35  58  87 121 155 197 247 298 356
#     4  11  22  39  61  89 122 155 198 251 304 356
#
# _framework density 20.099744000000001
#
# number of rings (size 3 to 8) (size 9 to 14) (size 15 to 20)
#    0.000    1.091    0.000    9.273    0.000    4.364 
#    0.000    1.818    0.000    1.091    0.000    0.000 
#    0.000    0.000    0.000    0.000    0.000    0.000 
#
# Total GULP energy -245715.824122 kJ/mol
# GULP energy per Si atom -5584.450548 kJ/mol
# Density = 2.005400 g / cm^3
# Si number density = 20.099744 Si / 1000 Ang^3
#
#
#
# Elastic Constant Matrix: (Units=GPa)
#
#
# Indices 1 2 3 4 5 6 
#
# 1 51.1046 33.9468 9.9401 0.0000 0.0000 0.0000
# 2 33.9468 98.0158 20.5363 0.0000 0.0000 0.0000
# 3 9.9401 20.5363 38.1322 0.0000 0.0000 0.0000
# 4 0.0000 0.0000 0.0000 28.6159 0.0000 0.0000
# 5 0.0000 0.0000 0.0000 0.0000 23.2594 0.0000
# 6 0.0000 0.0000 0.0000 0.0000 0.0000 18.4890
#
#
#
# Elastic Compliance Matrix: (Units=1/GPa)
#
#
# Indices 1 2 3 4 5 6 
#
# 1 0.025568 -0.008408 -0.002137 0.000000 0.000000 0.000000
# 2 -0.008408 0.014265 -0.005491 0.000000 0.000000 0.000000
# 3 -0.002137 -0.005491 0.029739 0.000000 0.000000 0.000000
# 4 0.000000 0.000000 0.000000 0.034946 0.000000 0.000000
# 5 0.000000 0.000000 0.000000 0.000000 0.042993 0.000000
# 6 0.000000 0.000000 0.000000 0.000000 0.000000 0.054086
#
#
# Mechanical properties :
#
#
# Convention : Reuss Voigt Hill
#
# Bulk Modulus (GPa) = 26.66595 35.12210 30.89402
# Shear Modulus (GPa) = 20.31134 22.26147 21.28640
#
# Velocity S-wave (km/s) = 3.18233 3.33160 3.25782
# Velocity P-wave (km/s) = 5.17673 5.68430 5.43644
#
# Compressibility (1/GPa) = 0.03750101
#
# Stress axis : x y z
#
# Youngs Moduli (GPa) = 39.11108 70.10308 33.62620
#
# Poissons Ratio (x) = 0.58939 0.07186
# Poissons Ratio (y) = 0.32883 0.18463
# Poissons Ratio (z) = 0.08358 0.38491
#
# Static dielectric constant tensor:
#      x y z
#    x 1.758800 0.000000 0.000000 
#    y 0.000000 1.746820 0.000000 
#    z 0.000000 0.000000 1.723760 
# 
# From -- ./inp_files/22296.got.cif
#   From: 2010.05.17/outbox.cif.g08.bks.cpg/sg70_12_cif.got.tgz:22296.got - 2010.06.03 15:57:51.
