data_PCOD9514278
_publ_section_title
;
Structure prediction by ZEFSAII (Michael W. Deem and Ramdas Pophale) SiO2 
 PCOD9514278
Probable space group: F D D D
;
_chemical_formula_sum "Si O2"
_cell_formula_units_Z 216
_cell_length_a 30.526652
_cell_length_b 11.344357
_cell_length_c 28.520277
_cell_angle_alpha 90.000000
_cell_angle_beta 90.000000
_cell_angle_gamma 90.000000
_cell_volume 9876.721323
_symmetry_space_group_name_H-M "F D D D"
_symmetry_group_IT_number 70
_space_group.IT_coordinate_system_code '2'
_symmetry_cell_setting 'orthorhombic'
loop_
_space_group_symop_operation_xyz
x,y,z
1/4-x,1/4-y,z
x,1/4-y,1/4-z
1/4-x,y,1/4-z
-x,-y,-z
3/4+x,3/4+y,-z
-x,3/4+y,3/4+z
3/4+x,-y,3/4+z
x,1/2+y,1/2+z
1/4-x,3/4-y,1/2+z
x,3/4-y,3/4-z
1/4-x,1/2+y,3/4-z
-x,1/2-y,1/2-z
3/4+x,1/4+y,1/2-z
-x,1/4+y,1/4+z
3/4+x,1/2-y,1/4+z
1/2+x,y,1/2+z
3/4-x,1/4-y,1/2+z
1/2+x,1/4-y,3/4-z
3/4-x,y,3/4-z
1/2-x,-y,1/2-z
1/4+x,3/4+y,1/2-z
1/2-x,3/4+y,1/4+z
1/4+x,-y,1/4+z
1/2+x,1/2+y,z
3/4-x,3/4-y,z
1/2+x,3/4-y,1/4-z
3/4-x,1/2+y,1/4-z
1/2-x,1/2-y,-z
1/4+x,1/4+y,-z
1/2-x,1/4+y,3/4+z
1/4+x,1/2-y,3/4+z
loop_
_atom_site_type_symbol
_atom_site_label
_atom_site_fract_x
_atom_site_fract_y
_atom_site_fract_z
Si Si1 0.293377 0.179859 0.375603
Si Si2 0.689888 0.622962 0.883727
Si Si3 0.467218 0.625000 0.125000
Si Si4 0.800901 0.946784 0.931211
Si Si5 0.534381 0.108644 0.197346
Si Si6 0.164985 0.548392 0.280427
Si Si7 0.625000 0.125000 0.625000
Si Si8 0.813934 0.041585 0.034061
O O1 0.242404 0.147761 0.368368
O O2 0.306103 0.241050 0.325875
O O3 0.296984 0.283767 0.413567
O O4 0.313270 0.064794 0.400795
O O5 0.687401 0.763562 0.886949
O O6 0.671735 0.576495 0.834791
O O7 0.670501 0.549516 0.926689
O O8 0.501951 0.657054 0.083485
O O9 0.836803 0.851848 0.914967
O O10 0.804350 0.976891 0.985396
O O11 0.545468 0.149771 0.249624
O O12 0.482231 0.091773 0.196202
O O13 0.125000 0.625000 0.262024
O O14 0.158396 0.409159 0.274987
#
# Coordination Sequence:
#
# PCOD9514278 Si02
#       8
#    32  32  16  32  32  32   8  32
#     4   9  17  33  63  92 114 147 202 260 303 365
#     4  10  21  40  62  88 120 159 208 259 306 372
#     4   9  20  39  64  94 116 152 210 276 312 354
#     4  10  20  38  61  87 122 160 203 257 318 377
#     4  10  18  34  63  95 117 151 204 256 316 368
#     4  12  24  38  56  92 135 167 200 257 322 388
#     4  10  24  40  52  74 124 168 200 240 308 388
#     4  11  21  39  69  89 115 166 218 256 310 385
#
# _framework density 21.869605
#
# number of rings (size 3 to 8) (size 9 to 14) (size 15 to 20)
#    0.000    1.778    2.963    2.667    0.000    1.778 
#    4.000    3.704    0.000    0.000    0.000    0.000 
#    0.000    0.000    0.000    0.000    0.000    0.000 
#
# Total GULP energy -300852.857329 kJ/mol
# GULP energy per Si atom -5571.349210 kJ/mol
# Density = 2.181983 g / cm^3
# Si number density = 21.869605 Si / 1000 Ang^3
#
#
#
# Elastic Constant Matrix: (Units=GPa)
#
#
# Indices 1 2 3 4 5 6 
#
# 1 22.6268 8.1516 -4.9045 0.0000 0.0000 0.0000
# 2 8.1516 26.6352 29.8101 0.0000 0.0000 0.0000
# 3 -4.9045 29.8101 109.6507 0.0000 0.0000 0.0000
# 4 0.0000 0.0000 0.0000 32.8670 0.0000 0.0000
# 5 0.0000 0.0000 0.0000 0.0000 -25.6351 0.0000
# 6 0.0000 0.0000 0.0000 0.0000 0.0000 -2.7412
#
#
#
# Elastic Compliance Matrix: (Units=1/GPa)
#
#
# Indices 1 2 3 4 5 6 
#
# 1 0.056972 -0.029160 0.010476 0.000000 0.000000 0.000000
# 2 -0.029160 0.068889 -0.020033 0.000000 0.000000 0.000000
# 3 0.010476 -0.020033 0.015035 0.000000 0.000000 0.000000
# 4 0.000000 0.000000 0.000000 0.030426 0.000000 0.000000
# 5 0.000000 0.000000 0.000000 0.000000 -0.039009 0.000000
# 6 0.000000 0.000000 0.000000 0.000000 0.000000 -0.364807
#
#
# Mechanical properties :
#
#
# Convention : Reuss Voigt Hill
#
# Bulk Modulus (GPa) = 15.75775 25.00299 20.38037
# Shear Modulus (GPa) = -37.33958 9.28850 -14.02554
#
# Velocity S-wave (km/s) = -4.13652 2.06311 -2.53519
# Velocity P-wave (km/s) = 3.94885 4.13918 0.87732
#
# Compressibility (1/GPa) = 0.06346085
#
# Stress axis : x y z
#
# Youngs Moduli (GPa) = 17.55262 14.51602 66.51305
#
# Poissons Ratio (x) = 0.42329 -0.69679
# Poissons Ratio (y) = 0.51184 1.33245
# Poissons Ratio (z) = -0.18388 0.29080
#
# Static dielectric constant tensor:
#      x y z
#    x 1.849600 0.000000 0.000000 
#    y 0.000000 2.061360 0.000000 
#    z 0.000000 0.000000 1.805420 
# 
# From -- ./inp_files/69018.got.cif
#   From: 2010.05.17/outbox.cif.g08.bks.cpg/sg70_35_cif.got.tgz:69018.got - 2010.06.03 15:57:51.
