data_PCOD9514407
_publ_section_title
;
Structure prediction by ZEFSAII (Michael W. Deem and Ramdas Pophale) SiO2 
 PCOD9514407
Probable space group: F D D D
;
_chemical_formula_sum "Si O2"
_cell_formula_units_Z 160
_cell_length_a 14.325155
_cell_length_b 22.933675
_cell_length_c 19.844048
_cell_angle_alpha 90.000000
_cell_angle_beta 90.000000
_cell_angle_gamma 90.000000
_cell_volume 6519.334313
_symmetry_space_group_name_H-M "F D D D"
_symmetry_group_IT_number 70
_space_group.IT_coordinate_system_code '2'
_symmetry_cell_setting 'orthorhombic'
loop_
_space_group_symop_operation_xyz
x,y,z
1/4-x,1/4-y,z
x,1/4-y,1/4-z
1/4-x,y,1/4-z
-x,-y,-z
3/4+x,3/4+y,-z
-x,3/4+y,3/4+z
3/4+x,-y,3/4+z
x,1/2+y,1/2+z
1/4-x,3/4-y,1/2+z
x,3/4-y,3/4-z
1/4-x,1/2+y,3/4-z
-x,1/2-y,1/2-z
3/4+x,1/4+y,1/2-z
-x,1/4+y,1/4+z
3/4+x,1/2-y,1/4+z
1/2+x,y,1/2+z
3/4-x,1/4-y,1/2+z
1/2+x,1/4-y,3/4-z
3/4-x,y,3/4-z
1/2-x,-y,1/2-z
1/4+x,3/4+y,1/2-z
1/2-x,3/4+y,1/4+z
1/4+x,-y,1/4+z
1/2+x,1/2+y,z
3/4-x,3/4-y,z
1/2+x,3/4-y,1/4-z
3/4-x,1/2+y,1/4-z
1/2-x,1/2-y,-z
1/4+x,1/4+y,-z
1/2-x,1/4+y,3/4+z
1/4+x,1/2-y,3/4+z
loop_
_atom_site_type_symbol
_atom_site_label
_atom_site_fract_x
_atom_site_fract_y
_atom_site_fract_z
Si Si1 0.522122 0.454265 0.386591
Si Si2 0.052374 0.286869 0.175783
Si Si3 0.032025 0.293979 0.430814
Si Si4 0.144642 0.686106 0.234081
Si Si5 0.392836 0.791502 0.536585
O O1 0.619219 0.428162 0.413214
O O2 0.468593 0.422430 0.325562
O O3 0.447013 0.460051 0.445988
O O4 0.551409 0.515562 0.350379
O O5 0.125000 0.317134 0.125000
O O6 0.104521 0.264809 0.242683
O O7 0.021041 0.227711 0.135714
O O8 0.954776 0.318773 0.189441
O O9 0.062859 0.234615 0.468735
O O10 0.960775 0.322587 0.483215
O O11 0.125000 0.625000 0.269435
#
# Coordination Sequence:
#
# PCOD9514407 Si02
#       5
#    32  32  32  32  32
#     4   9  16  27  43  65  88 118 157 200 235 286
#     4   8  13  23  39  64  92 113 143 187 239 275
#     4   9  16  26  43  67  89 121 153 198 243 283
#     4  10  19  30  44  68  94 128 162 200 254 296
#     4   8  14  23  39  66  91 111 146 191 237 275
#
# _framework density 24.542382
#
# number of rings (size 3 to 8) (size 9 to 14) (size 15 to 20)
#    0.000    3.200    0.000    1.800    0.000    0.000 
#    0.000    0.000    0.000    0.000  119.600    0.000 
#    0.000  315.000    0.000    0.000    0.000    0.000 
#
# Total GULP energy -223204.028671 kJ/mol
# GULP energy per Si atom -5580.100717 kJ/mol
# Density = 2.448652 g / cm^3
# Si number density = 24.542382 Si / 1000 Ang^3
#
#
#
# Elastic Constant Matrix: (Units=GPa)
#
#
# Indices 1 2 3 4 5 6 
#
# 1 200.5773 16.5314 47.8498 0.0000 0.0000 0.0000
# 2 16.5314 55.5107 22.3659 0.0000 0.0000 0.0000
# 3 47.8498 22.3659 89.9220 0.0000 0.0000 0.0000
# 4 0.0000 0.0000 0.0000 23.4346 0.0000 0.0000
# 5 0.0000 0.0000 0.0000 0.0000 62.3884 0.0000
# 6 0.0000 0.0000 0.0000 0.0000 0.0000 -2.4762
#
#
#
# Elastic Compliance Matrix: (Units=1/GPa)
#
#
# Indices 1 2 3 4 5 6 
#
# 1 0.005725 -0.000531 -0.002914 0.000000 0.000000 0.000000
# 2 -0.000531 0.020070 -0.004710 0.000000 0.000000 0.000000
# 3 -0.002914 -0.004710 0.013843 0.000000 0.000000 0.000000
# 4 0.000000 0.000000 0.000000 0.042672 0.000000 0.000000
# 5 0.000000 0.000000 0.000000 0.000000 0.016029 0.000000
# 6 0.000000 0.000000 0.000000 0.000000 0.000000 -0.403852
#
#
# Mechanical properties :
#
#
# Convention : Reuss Voigt Hill
#
# Bulk Modulus (GPa) = 42.86567 57.72269 50.29418
# Shear Modulus (GPa) = -17.76647 33.95356 8.09354
#
# Velocity S-wave (km/s) = -2.69348 3.72353 1.81795
# Velocity P-wave (km/s) = 2.79836 6.48513 4.99438
#
# Compressibility (1/GPa) = 0.02332869
#
# Stress axis : x y z
#
# Youngs Moduli (GPa) = 174.68604 49.82536 72.23939
#
# Poissons Ratio (x) = 0.02644 0.21052
# Poissons Ratio (y) = 0.09270 0.34022
# Poissons Ratio (z) = 0.50907 0.23466
#
# Static dielectric constant tensor:
#      x y z
#    x 2.032380 0.000000 0.000000 
#    y 0.000000 1.891380 0.000000 
#    z 0.000000 0.000000 1.971160 
# 
# From -- ./inp_files/50296.got.cif
#   From: 2010.05.17/outbox.cif.g08.bks.cpg/sg70_26_cif.got.tgz:50296.got - 2010.06.03 15:57:51.
