data_PCOD9514057
_publ_section_title
;
Structure prediction by ZEFSAII (Michael W. Deem and Ramdas Pophale) SiO2 
 PCOD9514057
Probable space group: F D D D
;
_chemical_formula_sum "Si O2"
_cell_formula_units_Z 136
_cell_length_a 37.130127
_cell_length_b 7.131396
_cell_length_c 20.145549
_cell_angle_alpha 90.000000
_cell_angle_beta 90.000000
_cell_angle_gamma 90.000000
_cell_volume 5334.332651
_symmetry_space_group_name_H-M "F D D D"
_symmetry_group_IT_number 70
_space_group.IT_coordinate_system_code '2'
_symmetry_cell_setting 'orthorhombic'
loop_
_space_group_symop_operation_xyz
x,y,z
1/4-x,1/4-y,z
x,1/4-y,1/4-z
1/4-x,y,1/4-z
-x,-y,-z
3/4+x,3/4+y,-z
-x,3/4+y,3/4+z
3/4+x,-y,3/4+z
x,1/2+y,1/2+z
1/4-x,3/4-y,1/2+z
x,3/4-y,3/4-z
1/4-x,1/2+y,3/4-z
-x,1/2-y,1/2-z
3/4+x,1/4+y,1/2-z
-x,1/4+y,1/4+z
3/4+x,1/2-y,1/4+z
1/2+x,y,1/2+z
3/4-x,1/4-y,1/2+z
1/2+x,1/4-y,3/4-z
3/4-x,y,3/4-z
1/2-x,-y,1/2-z
1/4+x,3/4+y,1/2-z
1/2-x,3/4+y,1/4+z
1/4+x,-y,1/4+z
1/2+x,1/2+y,z
3/4-x,3/4-y,z
1/2+x,3/4-y,1/4-z
3/4-x,1/2+y,1/4-z
1/2-x,1/2-y,-z
1/4+x,1/4+y,-z
1/2-x,1/4+y,3/4+z
1/4+x,1/2-y,3/4+z
loop_
_atom_site_type_symbol
_atom_site_label
_atom_site_fract_x
_atom_site_fract_y
_atom_site_fract_z
Si Si1 0.875000 0.875000 0.875000
Si Si2 0.429399 0.613959 0.959916
Si Si3 0.210584 0.995541 0.975745
Si Si4 0.508507 0.850225 0.114023
Si Si5 0.118471 0.402125 0.797246
O O1 0.849231 0.741676 0.914796
O O2 0.457943 0.686144 0.906291
O O3 0.451844 0.456157 0.998815
O O4 0.401675 0.707632 0.011958
O O5 0.226225 0.045972 0.902817
O O6 0.173036 0.881308 0.974644
O O7 0.234555 0.900572 0.034578
O O8 0.505785 0.625000 0.125000
O O9 0.125000 0.625000 0.786264
O O10 0.121077 0.375000 0.875000
#
# Coordination Sequence:
#
# PCOD9514057 Si02
#       5
#     8  32  32  32  32
#     4  12  12  28  52  76 106 128 184 238 286 312
#     4  10  16  28  50  75 105 136 178 234 283 322
#     4  10  19  31  47  76 109 144 182 228 285 343
#     4  10  18  29  49  78 112 145 187 236 285 343
#     4  10  21  36  55  80 111 145 189 237 292 340
#
# _framework density 25.495221999999998
#
# number of rings (size 3 to 8) (size 9 to 14) (size 15 to 20)
#    0.000    1.882    7.059    2.824    0.000    7.529 
#    0.000    1.176    0.000    0.000    0.000    9.059 
#    0.000    0.000    0.000    0.000    0.000    0.000 
#
# Total GULP energy -189463.214647 kJ/mol
# GULP energy per Si atom -5572.447490 kJ/mol
# Density = 2.543719 g / cm^3
# Si number density = 25.495222 Si / 1000 Ang^3
#
#
#
# Elastic Constant Matrix: (Units=GPa)
#
#
# Indices 1 2 3 4 5 6 
#
# 1 93.3697 53.7629 43.7529 0.0001 -0.0002 -0.0001
# 2 53.7629 81.2142 62.6507 -0.0008 -0.0002 -0.0001
# 3 43.7529 62.6507 89.4864 -0.0004 0.0000 0.0000
# 4 0.0001 -0.0008 -0.0004 67.6527 -0.0002 0.0002
# 5 -0.0002 -0.0002 0.0000 -0.0002 44.4596 0.0002
# 6 -0.0001 -0.0001 0.0000 0.0002 0.0002 5.2082
#
#
#
# Elastic Compliance Matrix: (Units=1/GPa)
#
#
# Indices 1 2 3 4 5 6 
#
# 1 0.017345 -0.010741 -0.000960 0.000000 0.000000 0.000000
# 2 -0.010741 0.033425 -0.018149 0.000000 0.000000 0.000001
# 3 -0.000960 -0.018149 0.024351 0.000000 0.000000 0.000000
# 4 0.000000 0.000000 0.000000 0.014781 0.000000 0.000000
# 5 0.000000 0.000000 0.000000 0.000000 0.022492 -0.000001
# 6 0.000000 0.000001 0.000000 0.000000 -0.000001 0.192005
#
#
# Mechanical properties :
#
#
# Convention : Reuss Voigt Hill
#
# Bulk Modulus (GPa) = 64.85645 64.93370 64.89508
# Shear Modulus (GPa) = 13.54131 30.39103 21.96617
#
# Velocity S-wave (km/s) = 2.30713 3.45632 2.93845
# Velocity P-wave (km/s) = 5.70885 6.43836 6.08455
#
# Compressibility (1/GPa) = 0.01541867
#
# Stress axis : x y z
#
# Youngs Moduli (GPa) = 57.65309 29.91810 41.06611
#
# Poissons Ratio (x) = 0.32136 0.03944
# Poissons Ratio (y) = 0.61927 0.74532
# Poissons Ratio (z) = 0.05537 0.54299
#
# Static dielectric constant tensor:
#      x y z
#    x 2.117120 0.000000 0.000000 
#    y 0.000000 2.061840 0.000000 
#    z 0.000000 0.000000 2.127310 
# 
# From -- ./inp_files/22025.got.cif
#   From: 2010.05.17/outbox.cif.g08.bks.cpg/sg70_12_cif.got.tgz:22025.got - 2010.06.03 15:57:51.
