data_PCOD9514621
_publ_section_title
;
Structure prediction by ZEFSAII (Michael W. Deem and Ramdas Pophale) SiO2 
 PCOD9514621
Probable space group: F D D D
;
_chemical_formula_sum "Si O2"
_cell_formula_units_Z 160
_cell_length_a 14.377048
_cell_length_b 17.756461
_cell_length_c 28.246475
_cell_angle_alpha 90.000000
_cell_angle_beta 90.000000
_cell_angle_gamma 90.000000
_cell_volume 7210.915271
_symmetry_space_group_name_H-M "F D D D"
_symmetry_group_IT_number 70
_space_group.IT_coordinate_system_code '2'
_symmetry_cell_setting 'orthorhombic'
loop_
_space_group_symop_operation_xyz
x,y,z
1/4-x,1/4-y,z
x,1/4-y,1/4-z
1/4-x,y,1/4-z
-x,-y,-z
3/4+x,3/4+y,-z
-x,3/4+y,3/4+z
3/4+x,-y,3/4+z
x,1/2+y,1/2+z
1/4-x,3/4-y,1/2+z
x,3/4-y,3/4-z
1/4-x,1/2+y,3/4-z
-x,1/2-y,1/2-z
3/4+x,1/4+y,1/2-z
-x,1/4+y,1/4+z
3/4+x,1/2-y,1/4+z
1/2+x,y,1/2+z
3/4-x,1/4-y,1/2+z
1/2+x,1/4-y,3/4-z
3/4-x,y,3/4-z
1/2-x,-y,1/2-z
1/4+x,3/4+y,1/2-z
1/2-x,3/4+y,1/4+z
1/4+x,-y,1/4+z
1/2+x,1/2+y,z
3/4-x,3/4-y,z
1/2+x,3/4-y,1/4-z
3/4-x,1/2+y,1/4-z
1/2-x,1/2-y,-z
1/4+x,1/4+y,-z
1/2-x,1/4+y,3/4+z
1/4+x,1/2-y,3/4+z
loop_
_atom_site_type_symbol
_atom_site_label
_atom_site_fract_x
_atom_site_fract_y
_atom_site_fract_z
Si Si1 0.981729 0.177320 0.553954
Si Si2 0.967524 0.596231 0.573813
Si Si3 0.481072 0.999708 0.055631
Si Si4 0.772694 0.764877 0.200221
Si Si5 0.125000 0.746853 0.625000
Si Si6 0.625000 0.990767 0.125000
O O1 0.871866 0.198687 0.555377
O O2 0.987812 0.088966 0.566000
O O3 0.011705 0.194723 0.500308
O O4 0.050668 0.217219 0.590659
O O5 0.934371 0.625000 0.625000
O O6 0.985123 0.672775 0.544241
O O7 0.059936 0.551095 0.588458
O O8 0.377926 0.972271 0.066430
O O9 0.557018 0.955479 0.085931
O O10 0.500000 0.000000 0.000000
O O11 0.698381 0.785445 0.159939
#
# Coordination Sequence:
#
# PCOD9514621 Si02
#       6
#    32  32  32  32  16  16
#     4  11  21  33  57  87 112 146 196 236 285 350
#     4   9  18  35  57  82 110 145 198 241 278 337
#     4  11  22  37  56  85 116 150 191 239 290 341
#     4  10  20  34  56  85 114 146 189 240 290 329
#     4  10  19  38  61  82 111 154 194 243 278 335
#     4  12  21  36  61  84 109 152 196 238 285 340
#
# _framework density 22.188583999999999
#
# number of rings (size 3 to 8) (size 9 to 14) (size 15 to 20)
#    0.000    1.600    2.000    8.100    0.000    0.800 
#    0.000    1.000    0.000    0.000    0.000    0.000 
#    0.000    0.000    0.000    0.000    0.000    0.000 
#
# Total GULP energy -223077.269950 kJ/mol
# GULP energy per Si atom -5576.931749 kJ/mol
# Density = 2.213808 g / cm^3
# Si number density = 22.188584 Si / 1000 Ang^3
#
#
#
# Elastic Constant Matrix: (Units=GPa)
#
#
# Indices 1 2 3 4 5 6 
#
# 1 192.0907 40.1869 62.4967 0.0000 0.0000 0.0000
# 2 40.1869 64.1607 13.4085 0.0000 0.0000 0.0000
# 3 62.4967 13.4085 113.8437 0.0000 0.0000 0.0000
# 4 0.0000 0.0000 0.0000 21.9956 0.0000 0.0000
# 5 0.0000 0.0000 0.0000 0.0000 48.5809 0.0000
# 6 0.0000 0.0000 0.0000 0.0000 0.0000 1.2927
#
#
#
# Elastic Compliance Matrix: (Units=1/GPa)
#
#
# Indices 1 2 3 4 5 6 
#
# 1 0.007114 -0.003732 -0.003466 0.000000 0.000000 0.000000
# 2 -0.003732 0.017937 -0.000064 0.000000 0.000000 0.000000
# 3 -0.003466 -0.000064 0.010694 0.000000 0.000000 0.000000
# 4 0.000000 0.000000 0.000000 0.045464 0.000000 0.000000
# 5 0.000000 0.000000 0.000000 0.000000 0.020584 0.000000
# 6 0.000000 0.000000 0.000000 0.000000 0.000000 0.773593
#
#
# Mechanical properties :
#
#
# Convention : Reuss Voigt Hill
#
# Bulk Modulus (GPa) = 47.12145 66.91991 57.02068
# Shear Modulus (GPa) = 5.57424 31.30737 18.44080
#
# Velocity S-wave (km/s) = 1.58672 3.76036 2.88600
# Velocity P-wave (km/s) = 4.96385 7.00563 6.07119
#
# Compressibility (1/GPa) = 0.02122176
#
# Stress axis : x y z
#
# Youngs Moduli (GPa) = 140.56359 55.75206 93.50841
#
# Poissons Ratio (x) = 0.20805 0.32410
# Poissons Ratio (y) = 0.52453 0.00598
# Poissons Ratio (z) = 0.48719 0.00357
#
# Static dielectric constant tensor:
#      x y z
#    x 1.896160 0.000000 0.000000 
#    y 0.000000 1.880700 0.000000 
#    z 0.000000 0.000000 1.801760 
# 
# From -- ./inp_files/54274.got.cif
#   From: 2010.05.17/outbox.cif.g08.bks.cpg/sg70_28_cif.got.tgz:54274.got - 2010.06.03 15:57:51.
