data_PCOD9514560
_publ_section_title
;
Structure prediction by ZEFSAII (Michael W. Deem and Ramdas Pophale) SiO2 
 PCOD9514560
Probable space group: F D D D
;
_chemical_formula_sum "Si O2"
_cell_formula_units_Z 112
_cell_length_a 31.028781
_cell_length_b 10.981969
_cell_length_c 15.175593
_cell_angle_alpha 90.000000
_cell_angle_beta 90.000000
_cell_angle_gamma 90.000000
_cell_volume 5171.191229
_symmetry_space_group_name_H-M "F D D D"
_symmetry_group_IT_number 70
_space_group.IT_coordinate_system_code '2'
_symmetry_cell_setting 'orthorhombic'
loop_
_space_group_symop_operation_xyz
x,y,z
1/4-x,1/4-y,z
x,1/4-y,1/4-z
1/4-x,y,1/4-z
-x,-y,-z
3/4+x,3/4+y,-z
-x,3/4+y,3/4+z
3/4+x,-y,3/4+z
x,1/2+y,1/2+z
1/4-x,3/4-y,1/2+z
x,3/4-y,3/4-z
1/4-x,1/2+y,3/4-z
-x,1/2-y,1/2-z
3/4+x,1/4+y,1/2-z
-x,1/4+y,1/4+z
3/4+x,1/2-y,1/4+z
1/2+x,y,1/2+z
3/4-x,1/4-y,1/2+z
1/2+x,1/4-y,3/4-z
3/4-x,y,3/4-z
1/2-x,-y,1/2-z
1/4+x,3/4+y,1/2-z
1/2-x,3/4+y,1/4+z
1/4+x,-y,1/4+z
1/2+x,1/2+y,z
3/4-x,3/4-y,z
1/2+x,3/4-y,1/4-z
3/4-x,1/2+y,1/4-z
1/2-x,1/2-y,-z
1/4+x,1/4+y,-z
1/2-x,1/4+y,3/4+z
1/4+x,1/2-y,3/4+z
loop_
_atom_site_type_symbol
_atom_site_label
_atom_site_fract_x
_atom_site_fract_y
_atom_site_fract_z
Si Si1 0.789352 0.249457 0.428914
Si Si2 0.099784 0.252696 0.335275
Si Si3 0.774485 0.879006 0.566490
Si Si4 0.241138 0.875000 0.875000
O O1 0.792617 0.375000 0.375000
O O2 0.750000 0.250000 0.500000
O O3 0.831636 0.226536 0.486532
O O4 0.773059 0.153934 0.356721
O O5 0.120331 0.375000 0.375000
O O6 0.058093 0.226386 0.397303
O O7 0.125000 0.125000 0.336186
O O8 0.785791 0.746702 0.604994
O O9 0.769827 0.887507 0.462496
#
# Coordination Sequence:
#
# PCOD9514560 Si02
#       4
#    32  32  32  16
#     4  10  19  37  66  92 120 162 217 268 313 382
#     4  11  24  41  64  88 132 172 215 266 333 391
#     4  10  19  36  60  92 124 161 211 261 318 377
#     4  10  20  32  61  94 124 156 204 264 318 372
#
# _framework density 21.658452
#
# number of rings (size 3 to 8) (size 9 to 14) (size 15 to 20)
#    0.000    1.714    0.000    8.571    2.000    0.571 
#    0.000    0.714    6.286    0.000    0.000    0.000 
#    0.000    0.000    0.000    0.000    0.000    0.000 
#
# Total GULP energy -156227.156444 kJ/mol
# GULP energy per Si atom -5579.541302 kJ/mol
# Density = 2.160916 g / cm^3
# Si number density = 21.658452 Si / 1000 Ang^3
#
#
#
# Elastic Constant Matrix: (Units=GPa)
#
#
# Indices 1 2 3 4 5 6 
#
# 1 50.1467 35.1823 29.0802 0.0000 0.0000 0.0000
# 2 35.1823 133.2912 57.6935 0.0000 0.0000 0.0000
# 3 29.0802 57.6935 155.5113 0.0000 0.0000 0.0000
# 4 0.0000 0.0000 0.0000 45.4371 0.0000 0.0000
# 5 0.0000 0.0000 0.0000 0.0000 -5.2411 0.0000
# 6 0.0000 0.0000 0.0000 0.0000 0.0000 25.8924
#
#
#
# Elastic Compliance Matrix: (Units=1/GPa)
#
#
# Indices 1 2 3 4 5 6 
#
# 1 0.025387 -0.005535 -0.002694 0.000000 0.000000 0.000000
# 2 -0.005535 0.010144 -0.002728 0.000000 0.000000 0.000000
# 3 -0.002694 -0.002728 0.007946 0.000000 0.000000 0.000000
# 4 0.000000 0.000000 0.000000 0.022008 0.000000 0.000000
# 5 0.000000 0.000000 0.000000 0.000000 -0.190799 0.000000
# 6 0.000000 0.000000 0.000000 0.000000 0.000000 0.038621
#
#
# Mechanical properties :
#
#
# Convention : Reuss Voigt Hill
#
# Bulk Modulus (GPa) = 46.37543 64.76234 55.56889
# Shear Modulus (GPa) = -86.82152 27.68391 -29.56880
#
# Velocity S-wave (km/s) = -6.33827 3.57908 -3.69891
# Velocity P-wave (km/s) = 5.66624 6.85903 2.73313
#
# Compressibility (1/GPa) = 0.02156314
#
# Stress axis : x y z
#
# Youngs Moduli (GPa) = 39.39049 98.57784 125.84347
#
# Poissons Ratio (x) = 0.54561 0.33901
# Poissons Ratio (y) = 0.21802 0.34336
# Poissons Ratio (z) = 0.10611 0.26896
#
# Static dielectric constant tensor:
#      x y z
#    x 1.800790 0.000000 0.000000 
#    y 0.000000 0.974110 0.000000 
#    z 0.000000 0.000000 1.810510 
# 
# From -- ./inp_files/16283.got.cif
#   From: 2010.05.17/outbox.cif.g08.bks.cpg/sg70_9_cif.got.tgz:16283.got - 2010.06.03 15:57:51.
