data_PCOD9514288
_publ_section_title
;
Structure prediction by ZEFSAII (Michael W. Deem and Ramdas Pophale) SiO2 
 PCOD9514288
Probable space group: F D D D
;
_chemical_formula_sum "Si O2"
_cell_formula_units_Z 160
_cell_length_a 23.590551
_cell_length_b 13.708048
_cell_length_c 18.825178
_cell_angle_alpha 90.000000
_cell_angle_beta 90.000000
_cell_angle_gamma 90.000000
_cell_volume 6087.693694
_symmetry_space_group_name_H-M "F D D D"
_symmetry_group_IT_number 70
_space_group.IT_coordinate_system_code '2'
_symmetry_cell_setting 'orthorhombic'
loop_
_space_group_symop_operation_xyz
x,y,z
1/4-x,1/4-y,z
x,1/4-y,1/4-z
1/4-x,y,1/4-z
-x,-y,-z
3/4+x,3/4+y,-z
-x,3/4+y,3/4+z
3/4+x,-y,3/4+z
x,1/2+y,1/2+z
1/4-x,3/4-y,1/2+z
x,3/4-y,3/4-z
1/4-x,1/2+y,3/4-z
-x,1/2-y,1/2-z
3/4+x,1/4+y,1/2-z
-x,1/4+y,1/4+z
3/4+x,1/2-y,1/4+z
1/2+x,y,1/2+z
3/4-x,1/4-y,1/2+z
1/2+x,1/4-y,3/4-z
3/4-x,y,3/4-z
1/2-x,-y,1/2-z
1/4+x,3/4+y,1/2-z
1/2-x,3/4+y,1/4+z
1/4+x,-y,1/4+z
1/2+x,1/2+y,z
3/4-x,3/4-y,z
1/2+x,3/4-y,1/4-z
3/4-x,1/2+y,1/4-z
1/2-x,1/2-y,-z
1/4+x,1/4+y,-z
1/2-x,1/4+y,3/4+z
1/4+x,1/2-y,3/4+z
loop_
_atom_site_type_symbol
_atom_site_label
_atom_site_fract_x
_atom_site_fract_y
_atom_site_fract_z
Si Si1 0.755522 0.017202 0.410344
Si Si2 0.482804 0.107849 0.283540
Si Si3 0.845238 0.775528 0.169936
Si Si4 0.645508 0.378039 0.218460
Si Si5 0.574410 0.571783 0.985413
O O1 0.748339 0.044448 0.327071
O O2 0.820877 0.044408 0.426079
O O3 0.718667 0.097200 0.455914
O O4 0.741481 0.916194 0.450007
O O5 0.527766 0.031986 0.317284
O O6 0.417410 0.090577 0.303532
O O7 0.875000 0.875000 0.198357
O O8 0.865968 0.679514 0.208010
O O9 0.853483 0.778283 0.086233
O O10 0.686992 0.471820 0.223427
O O11 0.625000 0.625000 0.026356
#
# Coordination Sequence:
#
# PCOD9514288 Si02
#       5
#    32  32  32  32  32
#     4  10  21  38  60  93 134 173 219 280 347 414
#     4  10  21  38  63  92 129 174 222 281 345 417
#     4   9  21  37  58  86 125 168 222 276 333 408
#     4  11  20  35  62  89 125 171 220 272 346 401
#     4  10  18  35  58  86 126 166 217 268 330 415
#
# _framework density 26.282530000000001
#
# number of rings (size 3 to 8) (size 9 to 14) (size 15 to 20)
#    0.000    2.000    2.000    1.800    0.000    0.800 
#    0.000    3.000    0.000    8.400    0.000    0.000 
#    0.000    0.000    0.000    0.000    0.000    0.000 
#
# Total GULP energy -222877.405629 kJ/mol
# GULP energy per Si atom -5571.935141 kJ/mol
# Density = 2.622271 g / cm^3
# Si number density = 26.282530 Si / 1000 Ang^3
#
#
#
# Elastic Constant Matrix: (Units=GPa)
#
#
# Indices 1 2 3 4 5 6 
#
# 1 155.1407 30.6459 7.4775 0.0000 0.0000 0.0000
# 2 30.6459 154.3394 40.3812 0.0000 0.0000 0.0000
# 3 7.4775 40.3812 107.3886 0.0000 0.0000 0.0000
# 4 0.0000 0.0000 0.0000 41.3181 0.0000 0.0000
# 5 0.0000 0.0000 0.0000 0.0000 24.9751 0.0000
# 6 0.0000 0.0000 0.0000 0.0000 0.0000 5.6890
#
#
#
# Elastic Compliance Matrix: (Units=1/GPa)
#
#
# Indices 1 2 3 4 5 6 
#
# 1 0.006709 -0.001342 0.000037 0.000000 0.000000 0.000000
# 2 -0.001342 0.007455 -0.002710 0.000000 0.000000 0.000000
# 3 0.000037 -0.002710 0.010328 0.000000 0.000000 0.000000
# 4 0.000000 0.000000 0.000000 0.024202 0.000000 0.000000
# 5 0.000000 0.000000 0.000000 0.000000 0.040040 0.000000
# 6 0.000000 0.000000 0.000000 0.000000 0.000000 0.175778
#
#
# Mechanical properties :
#
#
# Convention : Reuss Voigt Hill
#
# Bulk Modulus (GPa) = 60.74020 63.76419 62.25219
# Shear Modulus (GPa) = 17.98376 36.95405 27.46890
#
# Velocity S-wave (km/s) = 2.61865 3.75378 3.23637
# Velocity P-wave (km/s) = 5.68364 6.56517 6.14025
#
# Compressibility (1/GPa) = 0.01646356
#
# Stress axis : x y z
#
# Youngs Moduli (GPa) = 149.05264 134.14431 96.82131
#
# Poissons Ratio (x) = 0.18002 -0.00363
# Poissons Ratio (y) = 0.20002 0.26236
# Poissons Ratio (z) = -0.00558 0.36349
#
# Static dielectric constant tensor:
#      x y z
#    x 2.049540 0.000000 0.000000 
#    y 0.000000 2.099880 0.000000 
#    z 0.000000 0.000000 2.206560 
# 
# From -- ./inp_files/28637.got.cif
#   From: 2010.05.17/outbox.cif.g08.bks.cpg/sg70_15_cif.got.tgz:28637.got - 2010.06.03 15:57:51.
