data_PCOD9514216
_publ_section_title
;
Structure prediction by ZEFSAII (Michael W. Deem and Ramdas Pophale) SiO2 
 PCOD9514216
Probable space group: F D D D
;
_chemical_formula_sum "Si O2"
_cell_formula_units_Z 208
_cell_length_a 21.136012
_cell_length_b 23.182976
_cell_length_c 19.574726
_cell_angle_alpha 90.000000
_cell_angle_beta 90.000000
_cell_angle_gamma 90.000000
_cell_volume 9591.530765
_symmetry_space_group_name_H-M "F D D D"
_symmetry_group_IT_number 70
_space_group.IT_coordinate_system_code '2'
_symmetry_cell_setting 'orthorhombic'
loop_
_space_group_symop_operation_xyz
x,y,z
1/4-x,1/4-y,z
x,1/4-y,1/4-z
1/4-x,y,1/4-z
-x,-y,-z
3/4+x,3/4+y,-z
-x,3/4+y,3/4+z
3/4+x,-y,3/4+z
x,1/2+y,1/2+z
1/4-x,3/4-y,1/2+z
x,3/4-y,3/4-z
1/4-x,1/2+y,3/4-z
-x,1/2-y,1/2-z
3/4+x,1/4+y,1/2-z
-x,1/4+y,1/4+z
3/4+x,1/2-y,1/4+z
1/2+x,y,1/2+z
3/4-x,1/4-y,1/2+z
1/2+x,1/4-y,3/4-z
3/4-x,y,3/4-z
1/2-x,-y,1/2-z
1/4+x,3/4+y,1/2-z
1/2-x,3/4+y,1/4+z
1/4+x,-y,1/4+z
1/2+x,1/2+y,z
3/4-x,3/4-y,z
1/2+x,3/4-y,1/4-z
3/4-x,1/2+y,1/4-z
1/2-x,1/2-y,-z
1/4+x,1/4+y,-z
1/2-x,1/4+y,3/4+z
1/4+x,1/2-y,3/4+z
loop_
_atom_site_type_symbol
_atom_site_label
_atom_site_fract_x
_atom_site_fract_y
_atom_site_fract_z
Si Si1 0.425351 0.250162 0.089380
Si Si2 0.359731 0.125000 0.625000
Si Si3 0.665957 0.981492 0.566606
Si Si4 0.620124 0.020996 0.200255
Si Si5 0.366452 0.605899 0.269540
Si Si6 0.944955 0.804555 0.580947
Si Si7 0.273219 0.430301 0.199837
O O1 0.427726 0.181715 0.102363
O O2 0.360483 0.274527 0.125068
O O3 0.481083 0.277450 0.134797
O O4 0.422585 0.260100 0.008280
O O5 0.395916 0.108269 0.693943
O O6 0.625000 0.012023 0.625000
O O7 0.631568 0.919129 0.552089
O O8 0.735627 0.969305 0.596162
O O9 0.625000 0.045714 0.125000
O O10 0.566242 0.043954 0.250197
O O11 0.682606 0.039056 0.243934
O O12 0.609069 0.952109 0.196030
O O13 0.291493 0.590928 0.266660
O O14 0.946097 0.873495 0.584184
#
# Coordination Sequence:
#
# PCOD9514216 Si02
#       7
#    32  16  32  32  32  32  32
#     4  10  20  37  60  82 120 155 191 246 299 350
#     4  10  18  32  56  84 118 156 200 240 284 350
#     4  10  23  40  60  88 112 150 208 252 297 353
#     4  11  21  31  55  86 126 155 199 233 288 357
#     4  10  20  35  57  85 121 156 200 239 294 355
#     4  10  22  40  58  86 120 160 199 241 300 358
#     4  10  21  36  56  84 120 163 196 234 299 361
#
# _framework density 21.685797999999998
#
# number of rings (size 3 to 8) (size 9 to 14) (size 15 to 20)
#    0.000    1.846    3.077    2.769    2.154    4.308 
#    0.000    0.000    0.000    3.692    0.000    0.000 
#    0.000    0.000    0.000    0.000    0.000    0.000 
#
# Total GULP energy -290056.997180 kJ/mol
# GULP energy per Si atom -5578.019177 kJ/mol
# Density = 2.163644 g / cm^3
# Si number density = 21.685798 Si / 1000 Ang^3
#
#
#
# Elastic Constant Matrix: (Units=GPa)
#
#
# Indices 1 2 3 4 5 6 
#
# 1 67.7528 -2.4414 25.6521 0.0000 0.0000 0.0000
# 2 -2.4414 74.7432 13.2676 0.0000 0.0000 0.0000
# 3 25.6521 13.2676 154.9265 0.0000 0.0000 0.0000
# 4 0.0000 0.0000 0.0000 10.9504 0.0000 0.0000
# 5 0.0000 0.0000 0.0000 0.0000 16.5490 0.0000
# 6 0.0000 0.0000 0.0000 0.0000 0.0000 10.7465
#
#
#
# Elastic Compliance Matrix: (Units=1/GPa)
#
#
# Indices 1 2 3 4 5 6 
#
# 1 0.015819 0.000997 -0.002705 0.000000 0.000000 0.000000
# 2 0.000997 0.013648 -0.001334 0.000000 0.000000 0.000000
# 3 -0.002705 -0.001334 0.007017 0.000000 0.000000 0.000000
# 4 0.000000 0.000000 0.000000 0.091321 0.000000 0.000000
# 5 0.000000 0.000000 0.000000 0.000000 0.060427 0.000000
# 6 0.000000 0.000000 0.000000 0.000000 0.000000 0.093054
#
#
# Mechanical properties :
#
#
# Convention : Reuss Voigt Hill
#
# Bulk Modulus (GPa) = 32.89339 41.15323 37.02331
# Shear Modulus (GPa) = 16.80653 25.04544 20.92599
#
# Velocity S-wave (km/s) = 2.78690 3.40210 3.10975
# Velocity P-wave (km/s) = 5.05538 5.86947 5.47757
#
# Compressibility (1/GPa) = 0.03040125
#
# Stress axis : x y z
#
# Youngs Moduli (GPa) = 63.21313 73.26823 142.51642
#
# Poissons Ratio (x) = -0.07304 0.38546
# Poissons Ratio (y) = -0.06301 0.19010
# Poissons Ratio (z) = 0.17097 0.09773
#
# Static dielectric constant tensor:
#      x y z
#    x 1.828090 0.000000 0.000000 
#    y 0.000000 1.809380 0.000000 
#    z 0.000000 0.000000 1.853800 
# 
# From -- ./inp_files/37709.got.cif
#   From: 2010.05.17/outbox.cif.g08.bks.cpg/sg70_19_cif.got.tgz:37709.got - 2010.06.03 15:57:51.
