data_PCOD9514553
_publ_section_title
;
Structure prediction by ZEFSAII (Michael W. Deem and Ramdas Pophale) SiO2 
 PCOD9514553
Probable space group: F D D D
;
_chemical_formula_sum "Si O2"
_cell_formula_units_Z 192
_cell_length_a 10.719619
_cell_length_b 29.187406
_cell_length_c 24.840205
_cell_angle_alpha 90.000000
_cell_angle_beta 90.000000
_cell_angle_gamma 90.000000
_cell_volume 7771.950478
_symmetry_space_group_name_H-M "F D D D"
_symmetry_group_IT_number 70
_space_group.IT_coordinate_system_code '2'
_symmetry_cell_setting 'orthorhombic'
loop_
_space_group_symop_operation_xyz
x,y,z
1/4-x,1/4-y,z
x,1/4-y,1/4-z
1/4-x,y,1/4-z
-x,-y,-z
3/4+x,3/4+y,-z
-x,3/4+y,3/4+z
3/4+x,-y,3/4+z
x,1/2+y,1/2+z
1/4-x,3/4-y,1/2+z
x,3/4-y,3/4-z
1/4-x,1/2+y,3/4-z
-x,1/2-y,1/2-z
3/4+x,1/4+y,1/2-z
-x,1/4+y,1/4+z
3/4+x,1/2-y,1/4+z
1/2+x,y,1/2+z
3/4-x,1/4-y,1/2+z
1/2+x,1/4-y,3/4-z
3/4-x,y,3/4-z
1/2-x,-y,1/2-z
1/4+x,3/4+y,1/2-z
1/2-x,3/4+y,1/4+z
1/4+x,-y,1/4+z
1/2+x,1/2+y,z
3/4-x,3/4-y,z
1/2+x,3/4-y,1/4-z
3/4-x,1/2+y,1/4-z
1/2-x,1/2-y,-z
1/4+x,1/4+y,-z
1/2-x,1/4+y,3/4+z
1/4+x,1/2-y,3/4+z
loop_
_atom_site_type_symbol
_atom_site_label
_atom_site_fract_x
_atom_site_fract_y
_atom_site_fract_z
Si Si1 0.031065 0.160656 0.082768
Si Si2 0.734258 0.516512 0.992908
Si Si3 0.103016 0.709958 0.375616
Si Si4 0.125000 0.625000 0.225792
Si Si5 0.047790 0.217140 0.679793
Si Si6 0.625000 0.357576 0.125000
Si Si7 0.815278 0.571036 0.448930
O O1 0.125000 0.125000 0.054538
O O2 0.959453 0.125000 0.125000
O O3 0.125000 0.186762 0.125000
O O4 0.989255 0.192898 0.034856
O O5 0.662120 0.531278 0.938805
O O6 0.867248 0.495655 0.972085
O O7 0.654321 0.476213 0.021539
O O8 0.233457 0.692978 0.353203
O O9 0.071750 0.755101 0.340676
O O10 0.993628 0.673774 0.361893
O O11 0.044888 0.663962 0.195471
O O12 0.221138 0.653673 0.260846
O O13 0.125000 0.217685 0.625000
O O14 0.652904 0.388696 0.177341
#
# Coordination Sequence:
#
# PCOD9514553 Si02
#       7
#    32  32  32  16  32  16  32
#     4   6  16  32  55  86 115 161 215 254 301 365
#     4  10  19  38  63  89 124 167 213 256 329 367
#     4  11  22  43  61  97 129 173 210 266 330 383
#     4  10  19  36  58  98 118 168 205 256 326 368
#     4   9  19  34  62  90 127 160 207 253 314 385
#     4  12  22  42  58  91 133 162 210 272 310 382
#     4  11  25  38  64  92 128 165 220 263 316 394
#
# _framework density 24.704224
#
# number of rings (size 3 to 8) (size 9 to 14) (size 15 to 20)
#    1.000    1.333    4.167    0.250    1.167    5.333 
#    0.000    2.500    0.000    2.000    0.000    0.000 
#    0.000    0.000    0.000    0.000    0.000    0.000 
#
# Total GULP energy -267630.572295 kJ/mol
# GULP energy per Si atom -5575.636923 kJ/mol
# Density = 2.464800 g / cm^3
# Si number density = 24.704224 Si / 1000 Ang^3
#
#
#
# Elastic Constant Matrix: (Units=GPa)
#
#
# Indices 1 2 3 4 5 6 
#
# 1 31.3729 22.9270 21.8327 0.0000 0.0000 0.0000
# 2 22.9270 147.2670 84.0206 0.0000 0.0000 0.0000
# 3 21.8327 84.0206 156.1777 0.0000 0.0000 0.0000
# 4 0.0000 0.0000 0.0000 98.3474 0.0000 0.0000
# 5 0.0000 0.0000 0.0000 0.0000 62.5053 0.0000
# 6 0.0000 0.0000 0.0000 0.0000 0.0000 15.1983
#
#
#
# Elastic Compliance Matrix: (Units=1/GPa)
#
#
# Indices 1 2 3 4 5 6 
#
# 1 0.036906 -0.004043 -0.002984 0.000000 0.000000 0.000000
# 2 -0.004043 0.010241 -0.004944 0.000000 0.000000 0.000000
# 3 -0.002984 -0.004944 0.009480 0.000000 0.000000 0.000000
# 4 0.000000 0.000000 0.000000 0.010168 0.000000 0.000000
# 5 0.000000 0.000000 0.000000 0.000000 0.015999 0.000000
# 6 0.000000 0.000000 0.000000 0.000000 0.000000 0.065797
#
#
# Mechanical properties :
#
#
# Convention : Reuss Voigt Hill
#
# Bulk Modulus (GPa) = 30.59606 65.81979 48.20793
# Shear Modulus (GPa) = 27.25879 48.94604 38.10241
#
# Velocity S-wave (km/s) = 3.32536 4.45599 3.93153
# Velocity P-wave (km/s) = 5.21113 7.29215 6.33764
#
# Compressibility (1/GPa) = 0.03268394
#
# Stress axis : x y z
#
# Youngs Moduli (GPa) = 27.09590 97.65103 105.48625
#
# Poissons Ratio (x) = 0.39481 0.31478
# Poissons Ratio (y) = 0.10955 0.52153
# Poissons Ratio (z) = 0.08086 0.48279
#
# Static dielectric constant tensor:
#      x y z
#    x 2.214140 0.000000 0.000000 
#    y 0.000000 2.045490 0.000000 
#    z 0.000000 0.000000 1.949190 
# 
# From -- ./inp_files/57843.got.cif
#   From: 2010.05.17/outbox.cif.g08.bks.cpg/sg70_29_cif.got.tgz:57843.got - 2010.06.03 15:57:51.
