data_PCOD9514716
_publ_section_title
;
Structure prediction by ZEFSAII (Michael W. Deem and Ramdas Pophale) SiO2 
 PCOD9514716
Probable space group: F D D D
;
_chemical_formula_sum "Si O2"
_cell_formula_units_Z 208
_cell_length_a 14.709872
_cell_length_b 23.213139
_cell_length_c 25.727547
_cell_angle_alpha 90.000000
_cell_angle_beta 90.000000
_cell_angle_gamma 90.000000
_cell_volume 8784.987460
_symmetry_space_group_name_H-M "F D D D"
_symmetry_group_IT_number 70
_space_group.IT_coordinate_system_code '2'
_symmetry_cell_setting 'orthorhombic'
loop_
_space_group_symop_operation_xyz
x,y,z
1/4-x,1/4-y,z
x,1/4-y,1/4-z
1/4-x,y,1/4-z
-x,-y,-z
3/4+x,3/4+y,-z
-x,3/4+y,3/4+z
3/4+x,-y,3/4+z
x,1/2+y,1/2+z
1/4-x,3/4-y,1/2+z
x,3/4-y,3/4-z
1/4-x,1/2+y,3/4-z
-x,1/2-y,1/2-z
3/4+x,1/4+y,1/2-z
-x,1/4+y,1/4+z
3/4+x,1/2-y,1/4+z
1/2+x,y,1/2+z
3/4-x,1/4-y,1/2+z
1/2+x,1/4-y,3/4-z
3/4-x,y,3/4-z
1/2-x,-y,1/2-z
1/4+x,3/4+y,1/2-z
1/2-x,3/4+y,1/4+z
1/4+x,-y,1/4+z
1/2+x,1/2+y,z
3/4-x,3/4-y,z
1/2+x,3/4-y,1/4-z
3/4-x,1/2+y,1/4-z
1/2-x,1/2-y,-z
1/4+x,1/4+y,-z
1/2-x,1/4+y,3/4+z
1/4+x,1/2-y,3/4+z
loop_
_atom_site_type_symbol
_atom_site_label
_atom_site_fract_x
_atom_site_fract_y
_atom_site_fract_z
Si Si1 0.451293 0.078557 0.330063
Si Si2 0.104725 0.875000 0.875000
Si Si3 0.297560 0.497514 0.497760
Si Si4 0.316348 0.816443 0.569765
Si Si5 0.514879 0.624466 0.023617
Si Si6 0.043321 0.263948 0.897984
Si Si7 0.947131 0.321257 0.696092
O O1 0.375000 0.079830 0.375000
O O2 0.471928 0.031784 0.285851
O O3 0.530055 0.063800 0.372202
O O4 0.461931 0.139556 0.300058
O O5 0.169305 0.930187 0.869455
O O6 0.039943 0.885928 0.923983
O O7 0.273894 0.564814 0.502541
O O8 0.287669 0.477009 0.438231
O O9 0.396559 0.475602 0.517654
O O10 0.375000 0.875000 0.568206
O O11 0.249390 0.827122 0.521796
O O12 0.377678 0.760810 0.564166
O O13 0.625000 0.625000 0.034605
O O14 0.030943 0.213075 0.856804
O O15 0.875000 0.375000 0.698240
#
# Coordination Sequence:
#
# PCOD9514716 Si02
#       7
#    32  16  32  32  32  32  32
#     4  11  22  36  64 102 128 169 237 292 330 403
#     4  12  27  36  56  96 151 168 210 288 357 406
#     4  11  21  38  66  96 136 179 228 279 347 425
#     4  11  18  39  66  88 124 175 226 263 337 415
#     4  11  22  38  60  94 136 184 212 261 354 451
#     4  12  21  41  65  93 133 187 223 283 357 423
#     4  10  19  43  68  90 129 185 233 286 330 403
#
# _framework density 23.676756000000001
#
# number of rings (size 3 to 8) (size 9 to 14) (size 15 to 20)
#    0.000    0.923    9.231    0.231    2.154    3.077 
#    0.000    0.000    0.000   18.462    0.000    0.000 
#    0.000    0.000    0.000    0.000    0.000    0.000 
#
# Total GULP energy -289629.758734 kJ/mol
# GULP energy per Si atom -5569.803053 kJ/mol
# Density = 2.362287 g / cm^3
# Si number density = 23.676756 Si / 1000 Ang^3
#
#
#
# Elastic Constant Matrix: (Units=GPa)
#
#
# Indices 1 2 3 4 5 6 
#
# 1 41.9604 -0.6975 0.3641 0.0000 0.0000 0.0000
# 2 -0.6975 78.4935 9.5631 0.0000 0.0000 0.0000
# 3 0.3641 9.5631 85.6414 0.0000 0.0000 0.0000
# 4 0.0000 0.0000 0.0000 -1.4240 0.0000 0.0000
# 5 0.0000 0.0000 0.0000 0.0000 30.9215 0.0000
# 6 0.0000 0.0000 0.0000 0.0000 0.0000 21.1850
#
#
#
# Elastic Compliance Matrix: (Units=1/GPa)
#
#
# Indices 1 2 3 4 5 6 
#
# 1 0.023837 0.000227 -0.000127 0.000000 0.000000 0.000000
# 2 0.000227 0.012918 -0.001443 0.000000 0.000000 0.000000
# 3 -0.000127 -0.001443 0.011838 0.000000 0.000000 0.000000
# 4 0.000000 0.000000 0.000000 -0.702247 0.000000 0.000000
# 5 0.000000 0.000000 0.000000 0.000000 0.032340 0.000000
# 6 0.000000 0.000000 0.000000 0.000000 0.000000 0.047203
#
#
# Mechanical properties :
#
#
# Convention : Reuss Voigt Hill
#
# Bulk Modulus (GPa) = 21.78305 24.95050 23.36678
# Shear Modulus (GPa) = -8.99083 23.26086 7.13501
#
# Velocity S-wave (km/s) = -1.95079 3.13778 1.73783
# Velocity P-wave (km/s) = 2.03619 4.86707 3.73058
#
# Compressibility (1/GPa) = 0.04590725
#
# Stress axis : x y z
#
# Youngs Moduli (GPa) = 41.95177 77.41261 84.47151
#
# Poissons Ratio (x) = -0.01759 0.01070
# Poissons Ratio (y) = -0.00953 0.12193
# Poissons Ratio (z) = 0.00532 0.11174
#
# Static dielectric constant tensor:
#      x y z
#    x 2.310260 0.000000 0.000000 
#    y 0.000000 1.874200 0.000000 
#    z 0.000000 0.000000 1.925710 
# 
# From -- ./inp_files/59732.got.cif
#   From: 2010.05.17/outbox.cif.g08.bks.cpg/sg70_30_cif.got.tgz:59732.got - 2010.06.03 15:57:51.
