data_PCOD9514394
_publ_section_title
;
Structure prediction by ZEFSAII (Michael W. Deem and Ramdas Pophale) SiO2 
 PCOD9514394
Probable space group: F D D D
;
_chemical_formula_sum "Si O2"
_cell_formula_units_Z 160
_cell_length_a 17.463749
_cell_length_b 17.685239
_cell_length_c 22.671774
_cell_angle_alpha 90.000000
_cell_angle_beta 90.000000
_cell_angle_gamma 90.000000
_cell_volume 7002.190434
_symmetry_space_group_name_H-M "F D D D"
_symmetry_group_IT_number 70
_space_group.IT_coordinate_system_code '2'
_symmetry_cell_setting 'orthorhombic'
loop_
_space_group_symop_operation_xyz
x,y,z
1/4-x,1/4-y,z
x,1/4-y,1/4-z
1/4-x,y,1/4-z
-x,-y,-z
3/4+x,3/4+y,-z
-x,3/4+y,3/4+z
3/4+x,-y,3/4+z
x,1/2+y,1/2+z
1/4-x,3/4-y,1/2+z
x,3/4-y,3/4-z
1/4-x,1/2+y,3/4-z
-x,1/2-y,1/2-z
3/4+x,1/4+y,1/2-z
-x,1/4+y,1/4+z
3/4+x,1/2-y,1/4+z
1/2+x,y,1/2+z
3/4-x,1/4-y,1/2+z
1/2+x,1/4-y,3/4-z
3/4-x,y,3/4-z
1/2-x,-y,1/2-z
1/4+x,3/4+y,1/2-z
1/2-x,3/4+y,1/4+z
1/4+x,-y,1/4+z
1/2+x,1/2+y,z
3/4-x,3/4-y,z
1/2+x,3/4-y,1/4-z
3/4-x,1/2+y,1/4-z
1/2-x,1/2-y,-z
1/4+x,1/4+y,-z
1/2-x,1/4+y,3/4+z
1/4+x,1/2-y,3/4+z
loop_
_atom_site_type_symbol
_atom_site_label
_atom_site_fract_x
_atom_site_fract_y
_atom_site_fract_z
Si Si1 0.239199 0.573800 0.529095
Si Si2 0.343355 0.038209 0.686933
Si Si3 0.875000 0.875000 0.171340
Si Si4 0.475218 0.299381 0.680495
Si Si5 0.125000 0.726945 0.625000
Si Si6 0.424957 0.699917 0.552115
O O1 0.317826 0.563929 0.564091
O O2 0.230750 0.644374 0.485772
O O3 0.174217 0.567239 0.577293
O O4 0.228401 0.502327 0.486490
O O5 0.307579 0.041844 0.621671
O O6 0.313212 0.113529 0.719349
O O7 0.344589 0.950037 0.705143
O O8 0.810931 0.843064 0.125877
O O9 0.559242 0.272650 0.660755
O O10 0.411501 0.236014 0.698242
#
# Coordination Sequence:
#
# PCOD9514394 Si02
#       6
#    32  32  16  32  16  32
#     4  12  22  40  66  97 136 182 217 272 346 405
#     4  10  21  39  65  91 128 174 224 267 331 403
#     4  10  18  46  66  85 130 187 204 276 340 388
#     4  11  22  44  65  96 144 179 217 283 345 397
#     4  12  26  40  67 106 139 176 236 273 328 426
#     4  10  21  41  60  94 131 174 215 274 329 404
#
# _framework density 22.849993999999999
#
# number of rings (size 3 to 8) (size 9 to 14) (size 15 to 20)
#    0.000    1.200    8.000    1.200    0.000    4.800 
#    0.000    2.000    0.000    0.000    0.000    0.000 
#    0.000    0.000    0.000    0.000    0.000    0.000 
#
# Total GULP energy -223290.901584 kJ/mol
# GULP energy per Si atom -5582.272540 kJ/mol
# Density = 2.279799 g / cm^3
# Si number density = 22.849994 Si / 1000 Ang^3
#
#
#
# Elastic Constant Matrix: (Units=GPa)
#
#
# Indices 1 2 3 4 5 6 
#
# 1 54.5343 -12.2355 15.1205 0.0000 0.0000 0.0000
# 2 -12.2355 173.2656 25.2780 0.0000 0.0000 0.0000
# 3 15.1205 25.2780 78.5507 0.0000 0.0000 0.0000
# 4 0.0000 0.0000 0.0000 39.8122 0.0000 0.0000
# 5 0.0000 0.0000 0.0000 0.0000 12.3997 0.0000
# 6 0.0000 0.0000 0.0000 0.0000 0.0000 8.1777
#
#
#
# Elastic Compliance Matrix: (Units=1/GPa)
#
#
# Indices 1 2 3 4 5 6 
#
# 1 0.020059 0.002077 -0.004530 0.000000 0.000000 0.000000
# 2 0.002077 0.006271 -0.002418 0.000000 0.000000 0.000000
# 3 -0.004530 -0.002418 0.014381 0.000000 0.000000 0.000000
# 4 0.000000 0.000000 0.000000 0.025118 0.000000 0.000000
# 5 0.000000 0.000000 0.000000 0.000000 0.080647 0.000000
# 6 0.000000 0.000000 0.000000 0.000000 0.000000 0.122284
#
#
# Mechanical properties :
#
#
# Convention : Reuss Voigt Hill
#
# Bulk Modulus (GPa) = 32.28917 40.29741 36.29329
# Shear Modulus (GPa) = 17.31161 30.62376 23.96768
#
# Velocity S-wave (km/s) = 2.75548 3.66486 3.24221
# Velocity P-wave (km/s) = 4.92800 5.96508 5.47117
#
# Compressibility (1/GPa) = 0.03097013
#
# Stress axis : x y z
#
# Youngs Moduli (GPa) = 49.85266 159.46585 69.53773
#
# Poissons Ratio (x) = -0.33127 0.31499
# Poissons Ratio (y) = -0.10356 0.16814
# Poissons Ratio (z) = 0.22582 0.38557
#
# Static dielectric constant tensor:
#      x y z
#    x 1.843880 0.000000 0.000000 
#    y 0.000000 1.993470 0.000000 
#    z 0.000000 0.000000 1.865790 
# 
# From -- ./inp_files/59436.got.cif
#   From: 2010.05.17/outbox.cif.g08.bks.cpg/sg70_30_cif.got.tgz:59436.got - 2010.06.03 15:57:51.
