data_PCOD9514067
_publ_section_title
;
Structure prediction by ZEFSAII (Michael W. Deem and Ramdas Pophale) SiO2 
 PCOD9514067
Probable space group: F D D D
;
_chemical_formula_sum "Si O2"
_cell_formula_units_Z 160
_cell_length_a 39.362653
_cell_length_b 9.950004
_cell_length_c 25.445690
_cell_angle_alpha 90.000000
_cell_angle_beta 90.000000
_cell_angle_gamma 90.000000
_cell_volume 9966.022171
_symmetry_space_group_name_H-M "F D D D"
_symmetry_group_IT_number 70
_space_group.IT_coordinate_system_code '2'
_symmetry_cell_setting 'orthorhombic'
loop_
_space_group_symop_operation_xyz
x,y,z
1/4-x,1/4-y,z
x,1/4-y,1/4-z
1/4-x,y,1/4-z
-x,-y,-z
3/4+x,3/4+y,-z
-x,3/4+y,3/4+z
3/4+x,-y,3/4+z
x,1/2+y,1/2+z
1/4-x,3/4-y,1/2+z
x,3/4-y,3/4-z
1/4-x,1/2+y,3/4-z
-x,1/2-y,1/2-z
3/4+x,1/4+y,1/2-z
-x,1/4+y,1/4+z
3/4+x,1/2-y,1/4+z
1/2+x,y,1/2+z
3/4-x,1/4-y,1/2+z
1/2+x,1/4-y,3/4-z
3/4-x,y,3/4-z
1/2-x,-y,1/2-z
1/4+x,3/4+y,1/2-z
1/2-x,3/4+y,1/4+z
1/4+x,-y,1/4+z
1/2+x,1/2+y,z
3/4-x,3/4-y,z
1/2+x,3/4-y,1/4-z
3/4-x,1/2+y,1/4-z
1/2-x,1/2-y,-z
1/4+x,1/4+y,-z
1/2-x,1/4+y,3/4+z
1/4+x,1/2-y,3/4+z
loop_
_atom_site_type_symbol
_atom_site_label
_atom_site_fract_x
_atom_site_fract_y
_atom_site_fract_z
Si Si1 0.517057 0.656873 0.683039
Si Si2 0.783478 0.414775 0.540784
Si Si3 0.254313 0.391232 0.816828
Si Si4 0.158605 0.535355 0.379247
Si Si5 0.963861 0.868246 0.546383
O O1 0.530970 0.625000 0.625000
O O2 0.487473 0.547682 0.694023
O O3 0.540875 0.643813 0.734100
O O4 0.497537 0.798522 0.686166
O O5 0.761853 0.288491 0.561946
O O6 0.781582 0.391530 0.478328
O O7 0.819548 0.429820 0.568535
O O8 0.268183 0.375000 0.875000
O O9 0.223524 0.285942 0.807075
O O10 0.125000 0.625000 0.378117
O O11 0.152309 0.375000 0.375000
O O12 0.183083 0.579597 0.331261
#
# Coordination Sequence:
#
# PCOD9514067 Si02
#       5
#    32  32  32  32  32
#     4  10  16  31  53  77 104 131 162 223 270 307
#     4  10  19  32  48  78 108 133 171 209 258 310
#     4  10  18  29  53  79 108 133 160 216 266 310
#     4  12  24  38  53  74 108 144 179 213 249 314
#     4  10  19  30  52  76 104 135 173 207 264 311
#
# _framework density 16.054549999999999
#
# number of rings (size 3 to 8) (size 9 to 14) (size 15 to 20)
#    0.000    1.600    6.000    0.000    2.800    0.000 
#    0.000    0.000    0.000    1.200    0.000    2.800 
#    0.000    0.000    0.000    0.000    0.000    0.000 
#
# Total GULP energy -222968.570463 kJ/mol
# GULP energy per Si atom -5574.214262 kJ/mol
# Density = 1.601801 g / cm^3
# Si number density = 16.054550 Si / 1000 Ang^3
#
#
#
# Elastic Constant Matrix: (Units=GPa)
#
#
# Indices 1 2 3 4 5 6 
#
# 1 71.2447 20.3984 41.3985 0.0000 0.0000 0.0000
# 2 20.3984 57.6675 9.5006 0.0000 0.0000 0.0000
# 3 41.3985 9.5006 158.8056 0.0000 0.0000 0.0000
# 4 0.0000 0.0000 0.0000 21.3162 0.0000 0.0000
# 5 0.0000 0.0000 0.0000 0.0000 15.3904 0.0000
# 6 0.0000 0.0000 0.0000 0.0000 0.0000 17.3967
#
#
#
# Elastic Compliance Matrix: (Units=1/GPa)
#
#
# Indices 1 2 3 4 5 6 
#
# 1 0.018239 -0.005725 -0.004412 0.000000 0.000000 0.000000
# 2 -0.005725 0.019310 0.000337 0.000000 0.000000 0.000000
# 3 -0.004412 0.000337 0.007427 0.000000 0.000000 0.000000
# 4 0.000000 0.000000 0.000000 0.046913 0.000000 0.000000
# 5 0.000000 0.000000 0.000000 0.000000 0.064975 0.000000
# 6 0.000000 0.000000 0.000000 0.000000 0.000000 0.057482
#
#
# Mechanical properties :
#
#
# Convention : Reuss Voigt Hill
#
# Bulk Modulus (GPa) = 39.40616 47.81253 43.60934
# Shear Modulus (GPa) = 20.62663 25.24868 22.93765
#
# Velocity S-wave (km/s) = 3.58828 3.97001 3.78396
# Velocity P-wave (km/s) = 6.46267 7.13166 6.80539
#
# Compressibility (1/GPa) = 0.02537674
#
# Stress axis : x y z
#
# Youngs Moduli (GPa) = 54.82756 51.78605 134.64329
#
# Poissons Ratio (x) = 0.29646 0.59407
# Poissons Ratio (y) = 0.31387 -0.04539
# Poissons Ratio (z) = 0.24191 -0.01746
#
# Static dielectric constant tensor:
#      x y z
#    x 1.482080 0.000000 0.000000 
#    y 0.000000 1.550870 0.000000 
#    z 0.000000 0.000000 1.601570 
# 
# From -- ./inp_files/62139.got.cif
#   From: 2010.05.17/outbox.cif.g08.bks.cpg/sg70_32_cif.got.tgz:62139.got - 2010.06.03 15:57:51.
