data_PCOD9514664
_publ_section_title
;
Structure prediction by ZEFSAII (Michael W. Deem and Ramdas Pophale) SiO2 
 PCOD9514664
Probable space group: F D D D
;
_chemical_formula_sum "Si O2"
_cell_formula_units_Z 176
_cell_length_a 13.617237
_cell_length_b 26.148769
_cell_length_c 21.049615
_cell_angle_alpha 90.000000
_cell_angle_beta 90.000000
_cell_angle_gamma 90.000000
_cell_volume 7495.220290
_symmetry_space_group_name_H-M "F D D D"
_symmetry_group_IT_number 70
_space_group.IT_coordinate_system_code '2'
_symmetry_cell_setting 'orthorhombic'
loop_
_space_group_symop_operation_xyz
x,y,z
1/4-x,1/4-y,z
x,1/4-y,1/4-z
1/4-x,y,1/4-z
-x,-y,-z
3/4+x,3/4+y,-z
-x,3/4+y,3/4+z
3/4+x,-y,3/4+z
x,1/2+y,1/2+z
1/4-x,3/4-y,1/2+z
x,3/4-y,3/4-z
1/4-x,1/2+y,3/4-z
-x,1/2-y,1/2-z
3/4+x,1/4+y,1/2-z
-x,1/4+y,1/4+z
3/4+x,1/2-y,1/4+z
1/2+x,y,1/2+z
3/4-x,1/4-y,1/2+z
1/2+x,1/4-y,3/4-z
3/4-x,y,3/4-z
1/2-x,-y,1/2-z
1/4+x,3/4+y,1/2-z
1/2-x,3/4+y,1/4+z
1/4+x,-y,1/4+z
1/2+x,1/2+y,z
3/4-x,3/4-y,z
1/2+x,3/4-y,1/4-z
3/4-x,1/2+y,1/4-z
1/2-x,1/2-y,-z
1/4+x,1/4+y,-z
1/2-x,1/4+y,3/4+z
1/4+x,1/2-y,3/4+z
loop_
_atom_site_type_symbol
_atom_site_label
_atom_site_fract_x
_atom_site_fract_y
_atom_site_fract_z
Si Si1 0.875000 0.375000 0.559221
Si Si2 0.711379 0.923648 0.462968
Si Si3 0.259963 0.316046 0.144989
Si Si4 0.317358 0.669923 0.744595
Si Si5 0.625000 0.914001 0.125000
Si Si6 0.375000 0.875000 0.875000
Si Si7 0.625000 0.125000 0.625000
Si Si8 0.475451 0.538268 0.107479
O O1 0.890594 0.422553 0.607353
O O2 0.783327 0.391729 0.515641
O O3 0.752178 0.943083 0.530357
O O4 0.650239 0.871509 0.476481
O O5 0.801844 0.909498 0.417617
O O6 0.625160 0.958067 0.432231
O O7 0.208810 0.370966 0.135771
O O8 0.224162 0.267120 0.104766
O O9 0.354735 0.694711 0.810706
O O10 0.301220 0.702504 0.681639
O O11 0.550412 0.084169 0.592601
#
# Coordination Sequence:
#
# PCOD9514664 Si02
#       8
#    16  32  32  32  16   8   8  32
#     4  10  22  42  69  99 134 182 218 272 352 410
#     4  11  23  42  67  94 130 178 226 283 334 406
#     4  10  23  41  65  95 135 177 228 274 339 415
#     4  10  19  39  64  95 127 169 216 274 336 397
#     4   8  19  40  59  87 128 179 212 263 335 408
#     4  12  20  44  70  84 122 186 226 266 354 398
#     4  12  22  40  64 104 138 174 214 276 356 408
#     4  12  23  40  63 104 135 171 223 286 345 409
#
# _framework density 23.481632000000001
#
# number of rings (size 3 to 8) (size 9 to 14) (size 15 to 20)
#    0.000    1.455    3.636    1.636    2.545    0.000 
#    0.000    5.455    0.000    0.000    0.000    0.000 
#    0.000    0.000    0.000    0.000    0.000    0.000 
#
# Total GULP energy -245123.011203 kJ/mol
# GULP energy per Si atom -5570.977527 kJ/mol
# Density = 2.342819 g / cm^3
# Si number density = 23.481632 Si / 1000 Ang^3
#
#
#
# Elastic Constant Matrix: (Units=GPa)
#
#
# Indices 1 2 3 4 5 6 
#
# 1 128.1588 21.2611 32.1497 0.0000 0.0000 0.0000
# 2 21.2611 53.3117 2.2376 0.0000 0.0000 0.0000
# 3 32.1497 2.2376 129.4393 0.0000 0.0000 0.0000
# 4 0.0000 0.0000 0.0000 11.7999 0.0000 0.0000
# 5 0.0000 0.0000 0.0000 0.0000 31.3463 0.0000
# 6 0.0000 0.0000 0.0000 0.0000 0.0000 -10.0004
#
#
#
# Elastic Compliance Matrix: (Units=1/GPa)
#
#
# Indices 1 2 3 4 5 6 
#
# 1 0.008919 -0.003466 -0.002155 0.000000 0.000000 0.000000
# 2 -0.003466 0.020118 0.000513 0.000000 0.000000 0.000000
# 3 -0.002155 0.000513 0.008252 0.000000 0.000000 0.000000
# 4 0.000000 0.000000 0.000000 0.084746 0.000000 0.000000
# 5 0.000000 0.000000 0.000000 0.000000 0.031902 0.000000
# 6 0.000000 0.000000 0.000000 0.000000 0.000000 -0.099996
#
#
# Mechanical properties :
#
#
# Convention : Reuss Voigt Hill
#
# Bulk Modulus (GPa) = 36.93817 46.91187 41.92502
# Shear Modulus (GPa) = 68.32273 23.64659 45.98466
#
# Velocity S-wave (km/s) = 5.39995 3.17681 4.43010
# Velocity P-wave (km/s) = 7.39216 5.78599 6.63783
#
# Compressibility (1/GPa) = 0.02707227
#
# Stress axis : x y z
#
# Youngs Moduli (GPa) = 112.12616 49.70564 121.18178
#
# Poissons Ratio (x) = 0.17230 0.26117
# Poissons Ratio (y) = 0.38866 -0.06219
# Poissons Ratio (z) = 0.24166 -0.02551
#
# Static dielectric constant tensor:
#      x y z
#    x 1.725970 0.000000 0.000000 
#    y 0.000000 2.046950 0.000000 
#    z 0.000000 0.000000 1.978740 
# 
# From -- ./inp_files/51414.got.cif
#   From: 2010.05.17/outbox.cif.g08.bks.cpg/sg70_26_cif.got.tgz:51414.got - 2010.06.03 15:57:51.
