data_PCOD9514559
_publ_section_title
;
Structure prediction by ZEFSAII (Michael W. Deem and Ramdas Pophale) SiO2 
 PCOD9514559
Probable space group: F D D D
;
_chemical_formula_sum "Si O2"
_cell_formula_units_Z 240
_cell_length_a 27.761376
_cell_length_b 21.241792
_cell_length_c 20.491691
_cell_angle_alpha 90.000000
_cell_angle_beta 90.000000
_cell_angle_gamma 90.000000
_cell_volume 12083.978351
_symmetry_space_group_name_H-M "F D D D"
_symmetry_group_IT_number 70
_space_group.IT_coordinate_system_code '2'
_symmetry_cell_setting 'orthorhombic'
loop_
_space_group_symop_operation_xyz
x,y,z
1/4-x,1/4-y,z
x,1/4-y,1/4-z
1/4-x,y,1/4-z
-x,-y,-z
3/4+x,3/4+y,-z
-x,3/4+y,3/4+z
3/4+x,-y,3/4+z
x,1/2+y,1/2+z
1/4-x,3/4-y,1/2+z
x,3/4-y,3/4-z
1/4-x,1/2+y,3/4-z
-x,1/2-y,1/2-z
3/4+x,1/4+y,1/2-z
-x,1/4+y,1/4+z
3/4+x,1/2-y,1/4+z
1/2+x,y,1/2+z
3/4-x,1/4-y,1/2+z
1/2+x,1/4-y,3/4-z
3/4-x,y,3/4-z
1/2-x,-y,1/2-z
1/4+x,3/4+y,1/2-z
1/2-x,3/4+y,1/4+z
1/4+x,-y,1/4+z
1/2+x,1/2+y,z
3/4-x,3/4-y,z
1/2+x,3/4-y,1/4-z
3/4-x,1/2+y,1/4-z
1/2-x,1/2-y,-z
1/4+x,1/4+y,-z
1/2-x,1/4+y,3/4+z
1/4+x,1/2-y,3/4+z
loop_
_atom_site_type_symbol
_atom_site_label
_atom_site_fract_x
_atom_site_fract_y
_atom_site_fract_z
Si Si1 0.171172 0.579163 0.796922
Si Si2 0.732724 0.294854 0.941772
Si Si3 0.489215 0.557788 0.703542
Si Si4 0.119650 0.798574 0.493424
Si Si5 0.525714 0.180078 0.668929
Si Si6 0.961496 0.478304 0.660547
Si Si7 0.125000 0.016590 0.125000
Si Si8 0.621131 0.921489 0.312944
O O1 0.125000 0.625000 0.785567
O O2 0.152528 0.507107 0.785788
O O3 0.214367 0.588269 0.744110
O O4 0.189808 0.581468 0.871282
O O5 0.750726 0.278601 0.867949
O O6 0.749052 0.367332 0.951812
O O7 0.674278 0.299203 0.943900
O O8 0.750000 0.250000 0.000000
O O9 0.431723 0.549356 0.708625
O O10 0.511933 0.533088 0.770850
O O11 0.109971 0.776950 0.566052
O O12 0.140216 0.869123 0.492061
O O13 0.503886 0.125000 0.625000
O O14 0.496016 0.240453 0.644991
O O15 0.579987 0.192178 0.645325
O O16 0.918329 0.525574 0.678112
O O17 0.620821 0.875000 0.375000
#
# Coordination Sequence:
#
# PCOD9514559 Si02
#       8
#    32  32  32  32  32  32  16  32
#     4  11  24  39  60  87 127 177 214 248 322 391
#     4  10  21  44  73  91 122 174 224 262 335 405
#     4  10  21  41  63  97 129 161 216 280 323 381
#     4  10  19  40  60  84 122 171 208 252 314 383
#     4  11  22  38  59  88 128 168 211 254 316 376
#     4  12  24  39  62  99 128 162 216 273 323 384
#     4  10  19  36  60  84 126 164 209 258 300 378
#     4  11  20  42  68  85 126 172 203 262 336 387
#
# _framework density 19.861008000000002
#
# number of rings (size 3 to 8) (size 9 to 14) (size 15 to 20)
#    0.000    1.333    5.333    2.600    0.000    2.133 
#    4.800    0.000    0.000    1.600    0.000    0.000 
#    0.000    0.000    0.000    0.000    0.000    0.000 
#
# Total GULP energy -334420.857371 kJ/mol
# GULP energy per Si atom -5573.680956 kJ/mol
# Density = 1.981580 g / cm^3
# Si number density = 19.861008 Si / 1000 Ang^3
#
#
#
# Elastic Constant Matrix: (Units=GPa)
#
#
# Indices 1 2 3 4 5 6 
#
# 1 70.3677 23.3467 27.2092 0.0000 0.0000 0.0000
# 2 23.3467 49.1750 42.4152 0.0000 0.0000 0.0000
# 3 27.2092 42.4152 134.5716 0.0000 0.0000 0.0000
# 4 0.0000 0.0000 0.0000 27.0239 0.0000 0.0000
# 5 0.0000 0.0000 0.0000 0.0000 22.4067 0.0000
# 6 0.0000 0.0000 0.0000 0.0000 0.0000 17.8511
#
#
#
# Elastic Compliance Matrix: (Units=1/GPa)
#
#
# Indices 1 2 3 4 5 6 
#
# 1 0.017015 -0.007019 -0.001228 0.000000 0.000000 0.000000
# 2 -0.007019 0.030823 -0.008296 0.000000 0.000000 0.000000
# 3 -0.001228 -0.008296 0.010294 0.000000 0.000000 0.000000
# 4 0.000000 0.000000 0.000000 0.037004 0.000000 0.000000
# 5 0.000000 0.000000 0.000000 0.000000 0.044630 0.000000
# 6 0.000000 0.000000 0.000000 0.000000 0.000000 0.056019
#
#
# Mechanical properties :
#
#
# Convention : Reuss Voigt Hill
#
# Bulk Modulus (GPa) = 39.92568 48.89518 44.41043
# Shear Modulus (GPa) = 21.07754 24.19921 22.63837
#
# Velocity S-wave (km/s) = 3.26122 3.49439 3.37981
# Velocity P-wave (km/s) = 5.85892 6.39946 6.13515
#
# Compressibility (1/GPa) = 0.02504653
#
# Stress axis : x y z
#
# Youngs Moduli (GPa) = 58.77311 32.44289 97.14333
#
# Poissons Ratio (x) = 0.22771 0.11929
# Poissons Ratio (y) = 0.41252 0.80590
# Poissons Ratio (z) = 0.07217 0.26915
#
# Static dielectric constant tensor:
#      x y z
#    x 1.705150 0.000000 0.000000 
#    y 0.000000 1.783710 0.000000 
#    z 0.000000 0.000000 1.796900 
# 
# From -- ./inp_files/47846.got.cif
#   From: 2010.05.17/outbox.cif.g08.bks.cpg/sg70_24_cif.got.tgz:47846.got - 2010.06.03 15:57:51.
