data_PCOD9514703
_publ_section_title
;
Structure prediction by ZEFSAII (Michael W. Deem and Ramdas Pophale) SiO2 
 PCOD9514703
Probable space group: F D D D
;
_chemical_formula_sum "Si O2"
_cell_formula_units_Z 168
_cell_length_a 25.637157
_cell_length_b 18.401357
_cell_length_c 16.129717
_cell_angle_alpha 90.000000
_cell_angle_beta 90.000000
_cell_angle_gamma 90.000000
_cell_volume 7609.330749
_symmetry_space_group_name_H-M "F D D D"
_symmetry_group_IT_number 70
_space_group.IT_coordinate_system_code '2'
_symmetry_cell_setting 'orthorhombic'
loop_
_space_group_symop_operation_xyz
x,y,z
1/4-x,1/4-y,z
x,1/4-y,1/4-z
1/4-x,y,1/4-z
-x,-y,-z
3/4+x,3/4+y,-z
-x,3/4+y,3/4+z
3/4+x,-y,3/4+z
x,1/2+y,1/2+z
1/4-x,3/4-y,1/2+z
x,3/4-y,3/4-z
1/4-x,1/2+y,3/4-z
-x,1/2-y,1/2-z
3/4+x,1/4+y,1/2-z
-x,1/4+y,1/4+z
3/4+x,1/2-y,1/4+z
1/2+x,y,1/2+z
3/4-x,1/4-y,1/2+z
1/2+x,1/4-y,3/4-z
3/4-x,y,3/4-z
1/2-x,-y,1/2-z
1/4+x,3/4+y,1/2-z
1/2-x,3/4+y,1/4+z
1/4+x,-y,1/4+z
1/2+x,1/2+y,z
3/4-x,3/4-y,z
1/2+x,3/4-y,1/4-z
3/4-x,1/2+y,1/4-z
1/2-x,1/2-y,-z
1/4+x,1/4+y,-z
1/2-x,1/4+y,3/4+z
1/4+x,1/2-y,3/4+z
loop_
_atom_site_type_symbol
_atom_site_label
_atom_site_fract_x
_atom_site_fract_y
_atom_site_fract_z
Si Si1 0.931327 0.728526 0.848932
Si Si2 0.146032 0.755966 0.893016
Si Si3 0.039509 0.069272 0.504437
Si Si4 0.437288 0.141272 0.004543
Si Si5 0.957741 0.044233 0.094704
Si Si6 0.375000 0.875000 0.875000
O O1 0.875000 0.762549 0.875000
O O2 0.931597 0.657562 0.907859
O O3 0.942741 0.710488 0.752786
O O4 0.983097 0.775149 0.868001
O O5 0.165790 0.791562 0.807728
O O6 0.084752 0.743118 0.888810
O O7 0.180240 0.687293 0.917818
O O8 0.158152 0.819895 0.960642
O O9 0.086130 0.075508 0.570163
O O10 0.998831 0.133151 0.520775
O O11 0.000000 0.000000 0.500000
O O12 0.946475 0.125000 0.125000
#
# Coordination Sequence:
#
# PCOD9514703 Si02
#       6
#    32  32  32  32  32   8
#     4  11  23  41  65  91 124 164 214 266 317 373
#     4  10  19  41  63  89 132 163 205 260 320 378
#     4  10  23  40  61  97 130 168 209 260 327 380
#     4  10  20  41  66  88 126 165 209 264 314 383
#     4  11  23  42  64  91 122 169 214 260 319 383
#     4  12  24  44  68  96 144 166 224 276 320 408
#
# _framework density 22.078157999999998
#
# number of rings (size 3 to 8) (size 9 to 14) (size 15 to 20)
#    0.000    1.524    3.810    2.286    2.667    1.905 
#   13.714    0.000    0.000    0.000    0.000    0.000 
#    0.000    0.000    0.000    0.000    0.000    0.000 
#
# Total GULP energy -233993.330782 kJ/mol
# GULP energy per Si atom -5571.269781 kJ/mol
# Density = 2.202791 g / cm^3
# Si number density = 22.078158 Si / 1000 Ang^3
#
#
#
# Elastic Constant Matrix: (Units=GPa)
#
#
# Indices 1 2 3 4 5 6 
#
# 1 220.1854 29.7401 48.7948 0.0000 0.0000 0.0000
# 2 29.7401 33.0794 13.3007 0.0000 0.0000 0.0000
# 3 48.7948 13.3007 59.2861 0.0000 0.0000 0.0000
# 4 0.0000 0.0000 0.0000 22.6178 0.0000 0.0000
# 5 0.0000 0.0000 0.0000 0.0000 43.4947 0.0000
# 6 0.0000 0.0000 0.0000 0.0000 0.0000 22.3085
#
#
#
# Elastic Compliance Matrix: (Units=1/GPa)
#
#
# Indices 1 2 3 4 5 6 
#
# 1 0.005942 -0.003711 -0.004058 0.000000 0.000000 0.000000
# 2 -0.003711 0.035545 -0.004920 0.000000 0.000000 0.000000
# 3 -0.004058 -0.004920 0.021311 0.000000 0.000000 0.000000
# 4 0.000000 0.000000 0.000000 0.044213 0.000000 0.000000
# 5 0.000000 0.000000 0.000000 0.000000 0.022991 0.000000
# 6 0.000000 0.000000 0.000000 0.000000 0.000000 0.044826
#
#
# Mechanical properties :
#
#
# Convention : Reuss Voigt Hill
#
# Bulk Modulus (GPa) = 26.72385 55.13579 40.92982
# Shear Modulus (GPa) = 23.50952 32.39856 27.95404
#
# Velocity S-wave (km/s) = 3.26672 3.83489 3.56215
# Velocity P-wave (km/s) = 5.13411 6.68099 5.95797
#
# Compressibility (1/GPa) = 0.03741975
#
# Stress axis : x y z
#
# Youngs Moduli (GPa) = 168.29014 28.13361 46.92359
#
# Poissons Ratio (x) = 0.10439 0.19042
# Poissons Ratio (y) = 0.62445 0.23089
# Poissons Ratio (z) = 0.68294 0.13843
#
# Static dielectric constant tensor:
#      x y z
#    x 1.885100 0.000000 0.000000 
#    y 0.000000 1.855550 0.000000 
#    z 0.000000 0.000000 1.877610 
# 
# From -- ./inp_files/29847.got.cif
#   From: 2010.05.17/outbox.cif.g08.bks.cpg/sg70_15_cif.got.tgz:29847.got - 2010.06.03 15:57:51.
