data_PCOD9514108
_publ_section_title
;
Structure prediction by ZEFSAII (Michael W. Deem and Ramdas Pophale) SiO2 
 PCOD9514108
Probable space group: F D D D
;
_chemical_formula_sum "Si O2"
_cell_formula_units_Z 160
_cell_length_a 22.290137
_cell_length_b 20.262059
_cell_length_c 16.547668
_cell_angle_alpha 90.000000
_cell_angle_beta 90.000000
_cell_angle_gamma 90.000000
_cell_volume 7473.656141
_symmetry_space_group_name_H-M "F D D D"
_symmetry_group_IT_number 70
_space_group.IT_coordinate_system_code '2'
_symmetry_cell_setting 'orthorhombic'
loop_
_space_group_symop_operation_xyz
x,y,z
1/4-x,1/4-y,z
x,1/4-y,1/4-z
1/4-x,y,1/4-z
-x,-y,-z
3/4+x,3/4+y,-z
-x,3/4+y,3/4+z
3/4+x,-y,3/4+z
x,1/2+y,1/2+z
1/4-x,3/4-y,1/2+z
x,3/4-y,3/4-z
1/4-x,1/2+y,3/4-z
-x,1/2-y,1/2-z
3/4+x,1/4+y,1/2-z
-x,1/4+y,1/4+z
3/4+x,1/2-y,1/4+z
1/2+x,y,1/2+z
3/4-x,1/4-y,1/2+z
1/2+x,1/4-y,3/4-z
3/4-x,y,3/4-z
1/2-x,-y,1/2-z
1/4+x,3/4+y,1/2-z
1/2-x,3/4+y,1/4+z
1/4+x,-y,1/4+z
1/2+x,1/2+y,z
3/4-x,3/4-y,z
1/2+x,3/4-y,1/4-z
3/4-x,1/2+y,1/4-z
1/2-x,1/2-y,-z
1/4+x,1/4+y,-z
1/2-x,1/4+y,3/4+z
1/4+x,1/2-y,3/4+z
loop_
_atom_site_type_symbol
_atom_site_label
_atom_site_fract_x
_atom_site_fract_y
_atom_site_fract_z
Si Si1 0.965264 0.957323 0.066193
Si Si2 0.854855 0.055717 0.579571
Si Si3 0.424685 0.192682 0.314093
Si Si4 0.425334 0.709884 0.435806
Si Si5 0.488444 0.937314 0.208267
O O1 0.954988 0.883146 0.036362
O O2 0.014168 0.950242 0.136065
O O3 0.913316 0.000789 0.104972
O O4 0.000000 0.000000 0.000000
O O5 0.865215 0.125000 0.625000
O O6 0.910520 0.030410 0.524726
O O7 0.796655 0.065040 0.519233
O O8 0.375000 0.221359 0.375000
O O9 0.407402 0.115509 0.297257
O O10 0.484589 0.197263 0.367773
O O11 0.375000 0.738752 0.375000
O O12 0.445246 0.755604 0.509173
#
# Coordination Sequence:
#
# PCOD9514108 Si02
#       5
#    32  32  32  32  32
#     4  10  18  29  47  73 106 138 176 220 274 326
#     4  10  17  27  51  70  99 144 182 221 268 325
#     4   8  16  30  48  74 101 141 188 217 256 327
#     4   9  18  30  50  73 109 146 175 214 276 333
#     4   9  17  31  47  71 109 140 175 226 272 323
#
# _framework density 21.408531
#
# number of rings (size 3 to 8) (size 9 to 14) (size 15 to 20)
#    0.000    2.800    2.000    1.200    0.000    0.000 
#    0.000    2.000    0.000    1.200    0.000    0.000 
#    0.000    1.200    0.000   16.200    0.000    0.000 
#
# Total GULP energy -222840.038806 kJ/mol
# GULP energy per Si atom -5571.000970 kJ/mol
# Density = 2.135980 g / cm^3
# Si number density = 21.408531 Si / 1000 Ang^3
#
#
#
# Elastic Constant Matrix: (Units=GPa)
#
#
# Indices 1 2 3 4 5 6 
#
# 1 60.5978 20.6746 47.2396 0.0000 0.0000 0.0000
# 2 20.6746 49.5304 24.7720 0.0000 0.0000 0.0000
# 3 47.2396 24.7720 116.5580 0.0000 0.0000 0.0000
# 4 0.0000 0.0000 0.0000 29.5255 0.0000 0.0000
# 5 0.0000 0.0000 0.0000 0.0000 51.8238 0.0000
# 6 0.0000 0.0000 0.0000 0.0000 0.0000 11.0693
#
#
#
# Elastic Compliance Matrix: (Units=1/GPa)
#
#
# Indices 1 2 3 4 5 6 
#
# 1 0.025709 -0.006177 -0.009107 0.000000 0.000000 0.000000
# 2 -0.006177 0.024075 -0.002613 0.000000 0.000000 0.000000
# 3 -0.009107 -0.002613 0.012826 0.000000 0.000000 0.000000
# 4 0.000000 0.000000 0.000000 0.033869 0.000000 0.000000
# 5 0.000000 0.000000 0.000000 0.000000 0.019296 0.000000
# 6 0.000000 0.000000 0.000000 0.000000 0.000000 0.090340
#
#
# Mechanical properties :
#
#
# Convention : Reuss Voigt Hill
#
# Bulk Modulus (GPa) = 37.29113 45.78428 41.53770
# Shear Modulus (GPa) = 19.93252 27.41705 23.67478
#
# Velocity S-wave (km/s) = 3.05463 3.58251 3.32905
# Velocity P-wave (km/s) = 5.46787 6.20846 5.84990
#
# Compressibility (1/GPa) = 0.02681603
#
# Stress axis : x y z
#
# Youngs Moduli (GPa) = 38.89709 41.53725 77.96834
#
# Poissons Ratio (x) = 0.25656 0.71004
# Poissons Ratio (y) = 0.24025 0.20376
# Poissons Ratio (z) = 0.35423 0.10855
#
# Static dielectric constant tensor:
#      x y z
#    x 1.843570 0.000000 0.000000 
#    y 0.000000 1.827490 0.000000 
#    z 0.000000 0.000000 1.588880 
# 
# From -- ./inp_files/28646.got.cif
#   From: 2010.05.17/outbox.cif.g08.bks.cpg/sg70_15_cif.got.tgz:28646.got - 2010.06.03 15:57:51.
