data_PCOD9514412
_publ_section_title
;
Structure prediction by ZEFSAII (Michael W. Deem and Ramdas Pophale) SiO2 
 PCOD9514412
Probable space group: F D D D
;
_chemical_formula_sum "Si O2"
_cell_formula_units_Z 176
_cell_length_a 23.407483
_cell_length_b 18.754310
_cell_length_c 17.253136
_cell_angle_alpha 90.000000
_cell_angle_beta 90.000000
_cell_angle_gamma 90.000000
_cell_volume 7573.974747
_symmetry_space_group_name_H-M "F D D D"
_symmetry_group_IT_number 70
_space_group.IT_coordinate_system_code '2'
_symmetry_cell_setting 'orthorhombic'
loop_
_space_group_symop_operation_xyz
x,y,z
1/4-x,1/4-y,z
x,1/4-y,1/4-z
1/4-x,y,1/4-z
-x,-y,-z
3/4+x,3/4+y,-z
-x,3/4+y,3/4+z
3/4+x,-y,3/4+z
x,1/2+y,1/2+z
1/4-x,3/4-y,1/2+z
x,3/4-y,3/4-z
1/4-x,1/2+y,3/4-z
-x,1/2-y,1/2-z
3/4+x,1/4+y,1/2-z
-x,1/4+y,1/4+z
3/4+x,1/2-y,1/4+z
1/2+x,y,1/2+z
3/4-x,1/4-y,1/2+z
1/2+x,1/4-y,3/4-z
3/4-x,y,3/4-z
1/2-x,-y,1/2-z
1/4+x,3/4+y,1/2-z
1/2-x,3/4+y,1/4+z
1/4+x,-y,1/4+z
1/2+x,1/2+y,z
3/4-x,3/4-y,z
1/2+x,3/4-y,1/4-z
3/4-x,1/2+y,1/4-z
1/2-x,1/2-y,-z
1/4+x,1/4+y,-z
1/2-x,1/4+y,3/4+z
1/4+x,1/2-y,3/4+z
loop_
_atom_site_type_symbol
_atom_site_label
_atom_site_fract_x
_atom_site_fract_y
_atom_site_fract_z
Si Si1 0.028359 0.580938 0.286654
Si Si2 0.464488 0.625000 0.625000
Si Si3 0.030317 0.520380 0.920810
Si Si4 0.067701 0.455581 0.583211
Si Si5 0.294729 0.189604 0.281131
Si Si6 0.186599 0.106422 0.215703
O O1 0.999823 0.605331 0.204071
O O2 0.980496 0.559853 0.351433
O O3 0.058265 0.652168 0.318820
O O4 0.062389 0.508321 0.268145
O O5 0.434861 0.549024 0.607250
O O6 0.975991 0.531498 0.863855
O O7 0.000000 0.500000 0.000000
O O8 0.125000 0.480195 0.625000
O O9 0.082658 0.380642 0.541367
O O10 0.053093 0.522047 0.528460
O O11 0.236235 0.155135 0.248973
O O12 0.125000 0.125000 0.249601
O O13 0.186394 0.125000 0.125000
#
# Coordination Sequence:
#
# PCOD9514412 Si02
#       6
#    32  16  32  32  32  32
#     4   9  16  29  48  73 100 131 178 224 272 333
#     4   8  14  26  46  72  93 124 170 228 267 324
#     4   8  15  27  47  73  98 129 174 226 279 329
#     4  11  20  33  52  76 107 148 186 228 286 354
#     4  10  19  30  52  77 102 139 188 232 279 340
#     4  11  19  34  54  75 109 148 192 234 284 350
#
# _framework density 23.237468
#
# number of rings (size 3 to 8) (size 9 to 14) (size 15 to 20)
#    0.000    2.364    3.636    0.545    0.000    0.000 
#    0.000    0.000    2.000   17.455    0.000  131.727 
#    0.000    0.000    0.000    0.000    0.000    0.000 
#
# Total GULP energy -245091.863613 kJ/mol
# GULP energy per Si atom -5570.269628 kJ/mol
# Density = 2.318458 g / cm^3
# Si number density = 23.237468 Si / 1000 Ang^3
#
#
#
# Elastic Constant Matrix: (Units=GPa)
#
#
# Indices 1 2 3 4 5 6 
#
# 1 34.4222 13.1522 7.5140 0.0000 0.0000 0.0000
# 2 13.1522 259.0092 34.9424 0.0000 0.0000 0.0000
# 3 7.5140 34.9424 58.0101 0.0000 0.0000 0.0000
# 4 0.0000 0.0000 0.0000 89.1588 0.0000 0.0000
# 5 0.0000 0.0000 0.0000 0.0000 -4.9219 0.0000
# 6 0.0000 0.0000 0.0000 0.0000 0.0000 964.2979
#
#
#
# Elastic Compliance Matrix: (Units=1/GPa)
#
#
# Indices 1 2 3 4 5 6 
#
# 1 0.030178 -0.001094 -0.003250 0.000000 0.000000 0.000000
# 2 -0.001094 0.004242 -0.002413 0.000000 0.000000 0.000000
# 3 -0.003250 -0.002413 0.019113 0.000000 0.000000 0.000000
# 4 0.000000 0.000000 0.000000 0.011216 0.000000 0.000000
# 5 0.000000 0.000000 0.000000 0.000000 -0.203174 0.000000
# 6 0.000000 0.000000 0.000000 0.000000 0.000000 0.001037
#
#
# Mechanical properties :
#
#
# Convention : Reuss Voigt Hill
#
# Bulk Modulus (GPa) = 24.98835 51.40652 38.19744
# Shear Modulus (GPa) = -45.23546 229.42915 92.09685
#
# Velocity S-wave (km/s) = -4.41688 9.94720 6.30230
# Velocity P-wave (km/s) = 3.90320 12.41367 8.33260
#
# Compressibility (1/GPa) = 0.04001865
#
# Stress axis : x y z
#
# Youngs Moduli (GPa) = 33.13620 235.73701 52.32013
#
# Poissons Ratio (x) = 0.25789 0.17004
# Poissons Ratio (y) = 0.03625 0.12627
# Poissons Ratio (z) = 0.10769 0.56895
#
# Static dielectric constant tensor:
#      x y z
#    x 1.798270 0.000000 0.000000 
#    y 0.000000 2.067000 0.000000 
#    z 0.000000 0.000000 1.891300 
# 
# From -- ./inp_files/35243.got.cif
#   From: 2010.05.17/outbox.cif.g08.bks.cpg/sg70_18_cif.got.tgz:35243.got - 2010.06.03 15:57:51.
