data_PCOD9514109
_publ_section_title
;
Structure prediction by ZEFSAII (Michael W. Deem and Ramdas Pophale) SiO2 
 PCOD9514109
Probable space group: F D D D
;
_chemical_formula_sum "Si O2"
_cell_formula_units_Z 168
_cell_length_a 27.207579
_cell_length_b 19.668927
_cell_length_c 15.997050
_cell_angle_alpha 90.000000
_cell_angle_beta 90.000000
_cell_angle_gamma 90.000000
_cell_volume 8560.723489
_symmetry_space_group_name_H-M "F D D D"
_symmetry_group_IT_number 70
_space_group.IT_coordinate_system_code '2'
_symmetry_cell_setting 'orthorhombic'
loop_
_space_group_symop_operation_xyz
x,y,z
1/4-x,1/4-y,z
x,1/4-y,1/4-z
1/4-x,y,1/4-z
-x,-y,-z
3/4+x,3/4+y,-z
-x,3/4+y,3/4+z
3/4+x,-y,3/4+z
x,1/2+y,1/2+z
1/4-x,3/4-y,1/2+z
x,3/4-y,3/4-z
1/4-x,1/2+y,3/4-z
-x,1/2-y,1/2-z
3/4+x,1/4+y,1/2-z
-x,1/4+y,1/4+z
3/4+x,1/2-y,1/4+z
1/2+x,y,1/2+z
3/4-x,1/4-y,1/2+z
1/2+x,1/4-y,3/4-z
3/4-x,y,3/4-z
1/2-x,-y,1/2-z
1/4+x,3/4+y,1/2-z
1/2-x,3/4+y,1/4+z
1/4+x,-y,1/4+z
1/2+x,1/2+y,z
3/4-x,3/4-y,z
1/2+x,3/4-y,1/4-z
3/4-x,1/2+y,1/4-z
1/2-x,1/2-y,-z
1/4+x,1/4+y,-z
1/2-x,1/4+y,3/4+z
1/4+x,1/2-y,3/4+z
loop_
_atom_site_type_symbol
_atom_site_label
_atom_site_fract_x
_atom_site_fract_y
_atom_site_fract_z
Si Si1 0.256653 0.684519 0.333351
Si Si2 0.125000 0.125000 0.625000
Si Si3 0.231734 0.031123 0.835682
Si Si4 0.934395 0.754460 0.469815
Si Si5 0.911229 0.098884 0.953327
Si Si6 0.583933 0.808052 0.929512
O O1 0.232641 0.610835 0.326459
O O2 0.212716 0.734430 0.307556
O O3 0.286805 0.680479 0.420372
O O4 0.297160 0.691514 0.259209
O O5 0.095169 0.179221 0.565202
O O6 0.250000 0.000000 0.750000
O O7 0.272781 0.007717 0.901665
O O8 0.180153 0.003608 0.869323
O O9 0.908787 0.680357 0.470937
O O10 0.875000 0.088692 0.875000
O O11 0.888085 0.061176 0.032366
O O12 0.574073 0.875000 0.875000
#
# Coordination Sequence:
#
# PCOD9514109 Si02
#       6
#    32   8  32  32  32  32
#     4   9  18  31  47  67 102 142 171 215 264 317
#     4  12  20  24  40  72 104 136 186 216 280 338
#     4  10  17  28  45  71 104 137 176 213 265 328
#     4  10  20  29  44  69 104 146 172 216 269 321
#     4   9  18  33  46  69 103 138 179 219 253 316
#     4  10  18  27  48  73  98 137 176 215 262 314
#
# _framework density 19.624510000000001
#
# number of rings (size 3 to 8) (size 9 to 14) (size 15 to 20)
#    0.000    2.286    2.857    1.143    2.667    1.524 
#    0.000    0.000    0.000    1.143    0.000    0.000 
#    0.000    0.000    0.000   14.857    0.000    0.000 
#
# Total GULP energy -233829.959915 kJ/mol
# GULP energy per Si atom -5567.379998 kJ/mol
# Density = 1.957984 g / cm^3
# Si number density = 19.624510 Si / 1000 Ang^3
#
#
#
# Elastic Constant Matrix: (Units=GPa)
#
#
# Indices 1 2 3 4 5 6 
#
# 1 43.6298 15.1582 34.1867 0.0000 0.0000 0.0000
# 2 15.1582 24.4797 32.4302 0.0000 0.0000 0.0000
# 3 34.1867 32.4302 57.6150 0.0000 0.0000 0.0000
# 4 0.0000 0.0000 0.0000 19.4995 0.0000 0.0000
# 5 0.0000 0.0000 0.0000 0.0000 11.5801 0.0000
# 6 0.0000 0.0000 0.0000 0.0000 0.0000 177.6074
#
#
#
# Elastic Compliance Matrix: (Units=1/GPa)
#
#
# Indices 1 2 3 4 5 6 
#
# 1 0.048393 0.031752 -0.046587 0.000000 0.000000 0.000000
# 2 0.031752 0.181464 -0.120983 0.000000 0.000000 0.000000
# 3 -0.046587 -0.120983 0.113098 0.000000 0.000000 0.000000
# 4 0.000000 0.000000 0.000000 0.051283 0.000000 0.000000
# 5 0.000000 0.000000 0.000000 0.000000 0.086355 0.000000
# 6 0.000000 0.000000 0.000000 0.000000 0.000000 0.005630
#
#
# Mechanical properties :
#
#
# Convention : Reuss Voigt Hill
#
# Bulk Modulus (GPa) = 14.02136 32.14162 23.08149
# Shear Modulus (GPa) = 6.39687 44.66736 25.53212
#
# Velocity S-wave (km/s) = 1.80740 4.77603 3.61090
# Velocity P-wave (km/s) = 3.39351 6.84308 5.40110
#
# Compressibility (1/GPa) = 0.07131977
#
# Stress axis : x y z
#
# Youngs Moduli (GPa) = 20.66434 5.51073 8.84186
#
# Poissons Ratio (x) = -0.17498 0.41192
# Poissons Ratio (y) = -0.65614 1.06971
# Poissons Ratio (z) = 0.96269 0.66670
#
# Static dielectric constant tensor:
#      x y z
#    x 1.740010 0.000000 0.000000 
#    y 0.000000 1.665430 0.000000 
#    z 0.000000 0.000000 1.710480 
# 
# From -- ./inp_files/27796.got.cif
#   From: 2010.05.17/outbox.cif.g08.bks.cpg/sg70_14_cif.got.tgz:27796.got - 2010.06.03 15:57:51.
