data_PCOD9514540
_publ_section_title
;
Structure prediction by ZEFSAII (Michael W. Deem and Ramdas Pophale) SiO2 
 PCOD9514540
Probable space group: F D D D
;
_chemical_formula_sum "Si O2"
_cell_formula_units_Z 192
_cell_length_a 26.491599
_cell_length_b 11.494853
_cell_length_c 28.305929
_cell_angle_alpha 90.000000
_cell_angle_beta 90.000000
_cell_angle_gamma 90.000000
_cell_volume 8619.637607
_symmetry_space_group_name_H-M "F D D D"
_symmetry_group_IT_number 70
_space_group.IT_coordinate_system_code '2'
_symmetry_cell_setting 'orthorhombic'
loop_
_space_group_symop_operation_xyz
x,y,z
1/4-x,1/4-y,z
x,1/4-y,1/4-z
1/4-x,y,1/4-z
-x,-y,-z
3/4+x,3/4+y,-z
-x,3/4+y,3/4+z
3/4+x,-y,3/4+z
x,1/2+y,1/2+z
1/4-x,3/4-y,1/2+z
x,3/4-y,3/4-z
1/4-x,1/2+y,3/4-z
-x,1/2-y,1/2-z
3/4+x,1/4+y,1/2-z
-x,1/4+y,1/4+z
3/4+x,1/2-y,1/4+z
1/2+x,y,1/2+z
3/4-x,1/4-y,1/2+z
1/2+x,1/4-y,3/4-z
3/4-x,y,3/4-z
1/2-x,-y,1/2-z
1/4+x,3/4+y,1/2-z
1/2-x,3/4+y,1/4+z
1/4+x,-y,1/4+z
1/2+x,1/2+y,z
3/4-x,3/4-y,z
1/2+x,3/4-y,1/4-z
3/4-x,1/2+y,1/4-z
1/2-x,1/2-y,-z
1/4+x,1/4+y,-z
1/2-x,1/4+y,3/4+z
1/4+x,1/2-y,3/4+z
loop_
_atom_site_type_symbol
_atom_site_label
_atom_site_fract_x
_atom_site_fract_y
_atom_site_fract_z
Si Si1 0.790271 0.435724 0.083417
Si Si2 0.914603 0.271279 0.542291
Si Si3 0.203436 0.503910 0.652166
Si Si4 0.380658 0.625000 0.125000
Si Si5 0.501939 0.895542 0.262867
Si Si6 0.358451 0.121183 0.972046
Si Si7 0.125000 0.125000 0.480752
O O1 0.746453 0.432352 0.123221
O O2 0.830669 0.530321 0.103096
O O3 0.758637 0.483772 0.039687
O O4 0.828336 0.348842 0.055815
O O5 0.875000 0.375000 0.548309
O O6 0.904453 0.186617 0.586050
O O7 0.968751 0.328119 0.532937
O O8 0.900704 0.203015 0.494318
O O9 0.188713 0.625000 0.625000
O O10 0.228039 0.559401 0.699299
O O11 0.159099 0.418928 0.670981
O O12 0.558772 0.857483 0.253722
O O13 0.369184 0.986712 0.984807
#
# Coordination Sequence:
#
# PCOD9514540 Si02
#       7
#    32  32  32  16  32  32  16
#     4  10  20  40  65 101 139 187 232 299 358 416
#     4  12  25  36  67 104 137 179 231 300 367 423
#     4  10  19  35  66 102 139 174 235 305 359 401
#     4  12  22  38  60 104 143 169 232 308 354 424
#     4  10  20  39  63  99 138 188 222 295 372 419
#     4  11  22  42  61 101 146 187 234 287 356 444
#     4  10  22  40  68  94 149 206 228 281 366 438
#
# _framework density 22.274719000000001
#
# number of rings (size 3 to 8) (size 9 to 14) (size 15 to 20)
#    0.000    1.333    7.500    0.500    3.500    0.000 
#    0.000    9.167    0.000    0.000   17.333    0.000 
#    0.000    0.000    0.000    0.000    0.000    0.000 
#
# Total GULP energy -267383.331531 kJ/mol
# GULP energy per Si atom -5570.486074 kJ/mol
# Density = 2.222402 g / cm^3
# Si number density = 22.274719 Si / 1000 Ang^3
#
#
#
# Elastic Constant Matrix: (Units=GPa)
#
#
# Indices 1 2 3 4 5 6 
#
# 1 69.0852 22.8531 42.0524 0.0000 0.0000 0.0000
# 2 22.8531 100.6967 36.3354 0.0000 0.0000 0.0000
# 3 42.0524 36.3354 92.8725 0.0000 0.0000 0.0000
# 4 0.0000 0.0000 0.0000 35.5761 0.0000 0.0000
# 5 0.0000 0.0000 0.0000 0.0000 29.2830 0.0000
# 6 0.0000 0.0000 0.0000 0.0000 0.0000 35.2631
#
#
#
# Elastic Compliance Matrix: (Units=1/GPa)
#
#
# Indices 1 2 3 4 5 6 
#
# 1 0.020173 -0.001493 -0.008550 0.000000 0.000000 0.000000
# 2 -0.001493 0.011674 -0.003891 0.000000 0.000000 0.000000
# 3 -0.008550 -0.003891 0.016161 0.000000 0.000000 0.000000
# 4 0.000000 0.000000 0.000000 0.028109 0.000000 0.000000
# 5 0.000000 0.000000 0.000000 0.000000 0.034149 0.000000
# 6 0.000000 0.000000 0.000000 0.000000 0.000000 0.028358
#
#
# Mechanical properties :
#
#
# Convention : Reuss Voigt Hill
#
# Bulk Modulus (GPa) = 49.65381 51.68178 50.66780
# Shear Modulus (GPa) = 28.86715 30.78534 29.82625
#
# Velocity S-wave (km/s) = 3.60385 3.72166 3.66323
# Velocity P-wave (km/s) = 6.29737 6.45911 6.37875
#
# Compressibility (1/GPa) = 0.02013944
#
# Stress axis : x y z
#
# Youngs Moduli (GPa) = 49.57028 85.66227 61.87583
#
# Poissons Ratio (x) = 0.12790 0.52906
# Poissons Ratio (y) = 0.07401 0.24077
# Poissons Ratio (z) = 0.42384 0.33333
#
# Static dielectric constant tensor:
#      x y z
#    x 1.887900 0.000000 0.000000 
#    y 0.000000 1.892220 0.000000 
#    z 0.000000 0.000000 1.879680 
# 
# From -- ./inp_files/68421.got.cif
#   From: 2010.05.17/outbox.cif.g08.bks.cpg/sg70_35_cif.got.tgz:68421.got - 2010.06.03 15:57:51.
