data_PCOD9514719
_publ_section_title
;
Structure prediction by ZEFSAII (Michael W. Deem and Ramdas Pophale) SiO2 
 PCOD9514719
Probable space group: F D D D
;
_chemical_formula_sum "Si O2"
_cell_formula_units_Z 184
_cell_length_a 20.884983
_cell_length_b 21.817728
_cell_length_c 17.297120
_cell_angle_alpha 90.000000
_cell_angle_beta 90.000000
_cell_angle_gamma 90.000000
_cell_volume 7881.655487
_symmetry_space_group_name_H-M "F D D D"
_symmetry_group_IT_number 70
_space_group.IT_coordinate_system_code '2'
_symmetry_cell_setting 'orthorhombic'
loop_
_space_group_symop_operation_xyz
x,y,z
1/4-x,1/4-y,z
x,1/4-y,1/4-z
1/4-x,y,1/4-z
-x,-y,-z
3/4+x,3/4+y,-z
-x,3/4+y,3/4+z
3/4+x,-y,3/4+z
x,1/2+y,1/2+z
1/4-x,3/4-y,1/2+z
x,3/4-y,3/4-z
1/4-x,1/2+y,3/4-z
-x,1/2-y,1/2-z
3/4+x,1/4+y,1/2-z
-x,1/4+y,1/4+z
3/4+x,1/2-y,1/4+z
1/2+x,y,1/2+z
3/4-x,1/4-y,1/2+z
1/2+x,1/4-y,3/4-z
3/4-x,y,3/4-z
1/2-x,-y,1/2-z
1/4+x,3/4+y,1/2-z
1/2-x,3/4+y,1/4+z
1/4+x,-y,1/4+z
1/2+x,1/2+y,z
3/4-x,3/4-y,z
1/2+x,3/4-y,1/4-z
3/4-x,1/2+y,1/4-z
1/2-x,1/2-y,-z
1/4+x,1/4+y,-z
1/2-x,1/4+y,3/4+z
1/4+x,1/2-y,3/4+z
loop_
_atom_site_type_symbol
_atom_site_label
_atom_site_fract_x
_atom_site_fract_y
_atom_site_fract_z
Si Si1 0.192787 0.790472 0.028326
Si Si2 0.739383 0.915606 0.536634
Si Si3 0.125000 0.625000 0.359296
Si Si4 0.406688 0.287830 0.735485
Si Si5 0.875000 0.375000 0.375000
Si Si6 0.951930 0.671441 0.795510
Si Si7 0.699847 0.967349 0.035016
O O1 0.205735 0.858427 0.994835
O O2 0.122293 0.766829 0.007994
O O3 0.198065 0.787304 0.121929
O O4 0.250000 0.750000 0.000000
O O5 0.810668 0.889780 0.561555
O O6 0.694514 0.920316 0.612319
O O7 0.752625 0.980843 0.496756
O O8 0.112598 0.681383 0.419803
O O9 0.405475 0.327059 0.814338
O O10 0.478142 0.298215 0.705722
O O11 0.402866 0.215991 0.752292
O O12 0.959354 0.603475 0.760953
#
# Coordination Sequence:
#
# PCOD9514719 Si02
#       7
#    32  32  16  32   8  32  32
#     4  10  22  41  63  95 126 160 224 268 329 401
#     4  10  20  37  64  85 125 168 204 265 329 386
#     4   9  18  37  56  87 116 167 204 254 323 372
#     4   9  19  35  54  83 119 157 208 257 300 386
#     4  10  20  28  56  84 108 162 204 252 318 374
#     4   9  20  38  56  85 122 158 207 257 317 379
#     4  10  22  40  64  92 126 171 209 273 330 389
#
# _framework density 23.345348999999999
#
# number of rings (size 3 to 8) (size 9 to 14) (size 15 to 20)
#    0.000    2.435    0.000    1.043    2.435    3.478 
#    9.391    1.739   11.478    0.000    0.000    0.000 
#    0.000    0.000    0.000    0.000    0.000    0.000 
#
# Total GULP energy -256590.387590 kJ/mol
# GULP energy per Si atom -5578.051904 kJ/mol
# Density = 2.329221 g / cm^3
# Si number density = 23.345349 Si / 1000 Ang^3
#
#
#
# Elastic Constant Matrix: (Units=GPa)
#
#
# Indices 1 2 3 4 5 6 
#
# 1 79.8286 28.4524 4.6888 0.0000 0.0000 0.0000
# 2 28.4524 172.7585 20.2142 0.0000 0.0000 0.0000
# 3 4.6888 20.2142 18.6511 0.0000 0.0000 0.0000
# 4 0.0000 0.0000 0.0000 160.2238 0.0000 0.0000
# 5 0.0000 0.0000 0.0000 0.0000 33.1435 0.0000
# 6 0.0000 0.0000 0.0000 0.0000 0.0000 64.2705
#
#
#
# Elastic Compliance Matrix: (Units=1/GPa)
#
#
# Indices 1 2 3 4 5 6 
#
# 1 0.013328 -0.002065 -0.001113 0.000000 0.000000 0.000000
# 2 -0.002065 0.006949 -0.007012 0.000000 0.000000 0.000000
# 3 -0.001113 -0.007012 0.061496 0.000000 0.000000 0.000000
# 4 0.000000 0.000000 0.000000 0.006241 0.000000 0.000000
# 5 0.000000 0.000000 0.000000 0.000000 0.030172 0.000000
# 6 0.000000 0.000000 0.000000 0.000000 0.000000 0.015559
#
#
# Mechanical properties :
#
#
# Convention : Reuss Voigt Hill
#
# Bulk Modulus (GPa) = 16.28841 41.99431 29.14136
# Shear Modulus (GPa) = 28.63861 66.05307 47.34584
#
# Velocity S-wave (km/s) = 3.50628 5.32497 4.50829
# Velocity P-wave (km/s) = 4.83573 7.47224 6.29360
#
# Compressibility (1/GPa) = 0.06139335
#
# Stress axis : x y z
#
# Youngs Moduli (GPa) = 75.02915 143.90566 16.26126
#
# Poissons Ratio (x) = 0.29715 0.01809
# Poissons Ratio (y) = 0.15493 0.11403
# Poissons Ratio (z) = 0.08348 1.00911
#
# Static dielectric constant tensor:
#      x y z
#    x 1.924040 0.000000 0.000000 
#    y 0.000000 1.964890 0.000000 
#    z 0.000000 0.000000 1.993590 
# 
# From -- ./inp_files/37611.got.cif
#   From: 2010.05.17/outbox.cif.g08.bks.cpg/sg70_19_cif.got.tgz:37611.got - 2010.06.03 15:57:51.
