data_PCOD9514609
_publ_section_title
;
Structure prediction by ZEFSAII (Michael W. Deem and Ramdas Pophale) SiO2 
 PCOD9514609
Probable space group: F D D D
;
_chemical_formula_sum "Si O2"
_cell_formula_units_Z 192
_cell_length_a 14.726040
_cell_length_b 20.532176
_cell_length_c 24.539062
_cell_angle_alpha 90.000000
_cell_angle_beta 90.000000
_cell_angle_gamma 90.000000
_cell_volume 7419.572998
_symmetry_space_group_name_H-M "F D D D"
_symmetry_group_IT_number 70
_space_group.IT_coordinate_system_code '2'
_symmetry_cell_setting 'orthorhombic'
loop_
_space_group_symop_operation_xyz
x,y,z
1/4-x,1/4-y,z
x,1/4-y,1/4-z
1/4-x,y,1/4-z
-x,-y,-z
3/4+x,3/4+y,-z
-x,3/4+y,3/4+z
3/4+x,-y,3/4+z
x,1/2+y,1/2+z
1/4-x,3/4-y,1/2+z
x,3/4-y,3/4-z
1/4-x,1/2+y,3/4-z
-x,1/2-y,1/2-z
3/4+x,1/4+y,1/2-z
-x,1/4+y,1/4+z
3/4+x,1/2-y,1/4+z
1/2+x,y,1/2+z
3/4-x,1/4-y,1/2+z
1/2+x,1/4-y,3/4-z
3/4-x,y,3/4-z
1/2-x,-y,1/2-z
1/4+x,3/4+y,1/2-z
1/2-x,3/4+y,1/4+z
1/4+x,-y,1/4+z
1/2+x,1/2+y,z
3/4-x,3/4-y,z
1/2+x,3/4-y,1/4-z
3/4-x,1/2+y,1/4-z
1/2-x,1/2-y,-z
1/4+x,1/4+y,-z
1/2-x,1/4+y,3/4+z
1/4+x,1/2-y,3/4+z
loop_
_atom_site_type_symbol
_atom_site_label
_atom_site_fract_x
_atom_site_fract_y
_atom_site_fract_z
Si Si1 0.967632 0.933496 0.340234
Si Si2 0.912483 0.998526 0.188744
Si Si3 0.625000 0.625000 0.487345
Si Si4 0.946484 0.570645 0.789220
Si Si5 0.375000 0.875000 0.539856
Si Si6 0.370788 0.544002 0.956861
Si Si7 0.195344 0.260605 0.926459
O O1 0.014036 0.875000 0.375000
O O2 0.875000 0.940551 0.375000
O O3 0.948657 0.902313 0.280454
O O4 0.981622 0.011023 0.327078
O O5 0.018296 0.974850 0.193121
O O6 0.851395 0.934603 0.197878
O O7 0.909969 0.034018 0.131294
O O8 0.887915 0.041414 0.240693
O O9 0.038376 0.596750 0.759641
O O10 0.895681 0.633149 0.813021
O O11 0.332783 0.815707 0.573113
O O12 0.445951 0.492784 0.933969
O O13 0.396502 0.542614 0.021600
#
# Coordination Sequence:
#
# PCOD9514609 Si02
#       7
#    32  32  16  32  16  32  32
#     4   8  16  35  59  88 123 157 201 250 313 401
#     4  11  20  39  61  87 127 166 206 283 328 389
#     4   8  18  34  60  91 121 152 205 255 314 396
#     4  10  21  36  62  87 124 168 210 266 331 387
#     4  10  19  38  58  86 123 168 205 267 330 378
#     4  10  22  39  58  86 125 166 220 276 326 390
#     4  10  21  37  60  87 119 166 226 266 330 398
#
# _framework density 25.877500000000001
#
# number of rings (size 3 to 8) (size 9 to 14) (size 15 to 20)
#    0.000    2.500    1.667    1.000    0.000    3.333 
#    0.000    8.333    0.000    0.000    0.000    0.000 
#    0.000    0.000    0.000    0.000    0.000    0.000 
#
# Total GULP energy -267575.805117 kJ/mol
# GULP energy per Si atom -5574.495940 kJ/mol
# Density = 2.581860 g / cm^3
# Si number density = 25.877500 Si / 1000 Ang^3
#
#
#
# Elastic Constant Matrix: (Units=GPa)
#
#
# Indices 1 2 3 4 5 6 
#
# 1 64.9671 45.7183 1.5371 0.0000 0.0000 0.0000
# 2 45.7183 125.7394 26.2607 0.0000 0.0000 0.0000
# 3 1.5371 26.2607 137.9194 0.0000 0.0000 0.0000
# 4 0.0000 0.0000 0.0000 15.9478 0.0000 0.0000
# 5 0.0000 0.0000 0.0000 0.0000 12.4558 0.0000
# 6 0.0000 0.0000 0.0000 0.0000 0.0000 33.2195
#
#
#
# Elastic Compliance Matrix: (Units=1/GPa)
#
#
# Indices 1 2 3 4 5 6 
#
# 1 0.020895 -0.007861 0.001264 0.000000 0.000000 0.000000
# 2 -0.007861 0.011240 -0.002053 0.000000 0.000000 0.000000
# 3 0.001264 -0.002053 0.007627 0.000000 0.000000 0.000000
# 4 0.000000 0.000000 0.000000 0.062704 0.000000 0.000000
# 5 0.000000 0.000000 0.000000 0.000000 0.080284 0.000000
# 6 0.000000 0.000000 0.000000 0.000000 0.000000 0.030103
#
#
# Mechanical properties :
#
#
# Convention : Reuss Voigt Hill
#
# Bulk Modulus (GPa) = 44.51903 52.85089 48.68496
# Shear Modulus (GPa) = 21.04028 29.33196 25.18612
#
# Velocity S-wave (km/s) = 2.85454 3.37039 3.12313
# Velocity P-wave (km/s) = 5.30147 5.96774 5.64444
#
# Compressibility (1/GPa) = 0.02246230
#
# Stress axis : x y z
#
# Youngs Moduli (GPa) = 47.85946 88.96873 131.10731
#
# Poissons Ratio (x) = 0.69939 -0.16571
# Poissons Ratio (y) = 0.37623 0.26910
# Poissons Ratio (z) = -0.06049 0.18261
#
# Static dielectric constant tensor:
#      x y z
#    x 2.203790 0.000000 0.000000 
#    y 0.000000 2.128420 0.000000 
#    z 0.000000 0.000000 2.086590 
# 
# From -- ./inp_files/53027.got.cif
#   From: 2010.05.17/outbox.cif.g08.bks.cpg/sg70_27_cif.got.tgz:53027.got - 2010.06.03 15:57:51.
