data_PCOD9514462
_publ_section_title
;
Structure prediction by ZEFSAII (Michael W. Deem and Ramdas Pophale) SiO2 
 PCOD9514462
Probable space group: F D D D
;
_chemical_formula_sum "Si O2"
_cell_formula_units_Z 144
_cell_length_a 22.858543
_cell_length_b 10.697893
_cell_length_c 35.811279
_cell_angle_alpha 90.000000
_cell_angle_beta 90.000000
_cell_angle_gamma 90.000000
_cell_volume 8757.227395
_symmetry_space_group_name_H-M "F D D D"
_symmetry_group_IT_number 70
_space_group.IT_coordinate_system_code '2'
_symmetry_cell_setting 'orthorhombic'
loop_
_space_group_symop_operation_xyz
x,y,z
1/4-x,1/4-y,z
x,1/4-y,1/4-z
1/4-x,y,1/4-z
-x,-y,-z
3/4+x,3/4+y,-z
-x,3/4+y,3/4+z
3/4+x,-y,3/4+z
x,1/2+y,1/2+z
1/4-x,3/4-y,1/2+z
x,3/4-y,3/4-z
1/4-x,1/2+y,3/4-z
-x,1/2-y,1/2-z
3/4+x,1/4+y,1/2-z
-x,1/4+y,1/4+z
3/4+x,1/2-y,1/4+z
1/2+x,y,1/2+z
3/4-x,1/4-y,1/2+z
1/2+x,1/4-y,3/4-z
3/4-x,y,3/4-z
1/2-x,-y,1/2-z
1/4+x,3/4+y,1/2-z
1/2-x,3/4+y,1/4+z
1/4+x,-y,1/4+z
1/2+x,1/2+y,z
3/4-x,3/4-y,z
1/2+x,3/4-y,1/4-z
3/4-x,1/2+y,1/4-z
1/2-x,1/2-y,-z
1/4+x,1/4+y,-z
1/2-x,1/4+y,3/4+z
1/4+x,1/2-y,3/4+z
loop_
_atom_site_type_symbol
_atom_site_label
_atom_site_fract_x
_atom_site_fract_y
_atom_site_fract_z
Si Si1 0.749334 0.811646 0.459666
Si Si2 0.125000 0.625000 0.185608
Si Si3 0.493984 0.371131 0.611386
Si Si4 0.584857 0.738445 0.928092
Si Si5 0.125000 0.410410 0.125000
Si Si6 0.674431 0.375000 0.375000
O O1 0.750000 0.750000 0.500000
O O2 0.814290 0.866846 0.456465
O O3 0.740381 0.712960 0.424917
O O4 0.701985 0.922301 0.455160
O O5 0.120450 0.502981 0.159989
O O6 0.460774 0.438106 0.646326
O O7 0.562254 0.345629 0.620542
O O8 0.461899 0.238519 0.608007
O O9 0.625000 0.625000 0.943859
O O10 0.632171 0.821630 0.906603
#
# Coordination Sequence:
#
# PCOD9514462 Si02
#       6
#    32  16  32  32  16  16
#     4  11  21  34  57  83 111 144 186 229 281 345
#     4   9  18  32  50  80 100 136 180 228 262 308
#     4  10  19  34  55  82 105 142 187 228 279 318
#     4  10  19  35  57  81 110 142 188 234 280 322
#     4   9  16  31  58  70 104 135 185 224 256 324
#     4  10  20  31  56  83 110 138 182 244 262 328
#
# _framework density 16.443560000000002
#
# number of rings (size 3 to 8) (size 9 to 14) (size 15 to 20)
#    0.000    2.000    4.444    0.000    0.000    2.222 
#    0.000    0.000    9.778    4.000    0.000    0.000 
#    0.000    0.000    0.000    0.000    0.000    0.000 
#
# Total GULP energy -200402.254393 kJ/mol
# GULP energy per Si atom -5566.729289 kJ/mol
# Density = 1.640613 g / cm^3
# Si number density = 16.443560 Si / 1000 Ang^3
#
#
#
# Elastic Constant Matrix: (Units=GPa)
#
#
# Indices 1 2 3 4 5 6 
#
# 1 160.7052 67.1940 43.3170 0.0000 0.0000 0.0000
# 2 67.1940 90.3665 30.4368 0.0000 0.0000 0.0000
# 3 43.3170 30.4368 62.3285 0.0000 0.0000 0.0000
# 4 0.0000 0.0000 0.0000 18.0805 0.0000 0.0000
# 5 0.0000 0.0000 0.0000 0.0000 3.4839 0.0000
# 6 0.0000 0.0000 0.0000 0.0000 0.0000 33.3972
#
#
#
# Elastic Compliance Matrix: (Units=1/GPa)
#
#
# Indices 1 2 3 4 5 6 
#
# 1 0.009754 -0.005948 -0.003874 0.000000 0.000000 0.000000
# 2 -0.005948 0.016871 -0.004105 0.000000 0.000000 0.000000
# 3 -0.003874 -0.004105 0.020741 0.000000 0.000000 0.000000
# 4 0.000000 0.000000 0.000000 0.055308 0.000000 0.000000
# 5 0.000000 0.000000 0.000000 0.000000 0.287032 0.000000
# 6 0.000000 0.000000 0.000000 0.000000 0.000000 0.029943
#
#
# Mechanical properties :
#
#
# Convention : Reuss Voigt Hill
#
# Bulk Modulus (GPa) = 51.25051 66.14397 58.69724
# Shear Modulus (GPa) = 11.01305 22.48917 16.75111
#
# Velocity S-wave (km/s) = 2.59076 3.70220 3.19518
# Velocity P-wave (km/s) = 6.33913 7.65423 7.02751
#
# Compressibility (1/GPa) = 0.01951200
#
# Stress axis : x y z
#
# Youngs Moduli (GPa) = 102.52555 59.27236 48.21319
#
# Poissons Ratio (x) = 0.35253 0.18679
# Poissons Ratio (y) = 0.60979 0.19793
# Poissons Ratio (z) = 0.39720 0.24333
#
# Static dielectric constant tensor:
#      x y z
#    x 1.597280 0.000000 0.000000 
#    y 0.000000 1.603020 0.000000 
#    z 0.000000 0.000000 1.600050 
# 
# From -- ./inp_files/20700.got.cif
#   From: 2010.05.17/outbox.cif.g08.bks.cpg/sg70_11_cif.got.tgz:20700.got - 2010.06.03 15:57:51.
