data_PCOD9514840
_publ_section_title
;
Structure prediction by ZEFSAII (Michael W. Deem and Ramdas Pophale) SiO2 
 PCOD9514840
Probable space group: F D D D
;
_chemical_formula_sum "Si O2"
_cell_formula_units_Z 112
_cell_length_a 19.230177
_cell_length_b 31.002797
_cell_length_c 10.298856
_cell_angle_alpha 90.000000
_cell_angle_beta 90.000000
_cell_angle_gamma 90.000000
_cell_volume 6140.067480
_symmetry_space_group_name_H-M "F D D D"
_symmetry_group_IT_number 70
_space_group.IT_coordinate_system_code '2'
_symmetry_cell_setting 'orthorhombic'
loop_
_space_group_symop_operation_xyz
x,y,z
1/4-x,1/4-y,z
x,1/4-y,1/4-z
1/4-x,y,1/4-z
-x,-y,-z
3/4+x,3/4+y,-z
-x,3/4+y,3/4+z
3/4+x,-y,3/4+z
x,1/2+y,1/2+z
1/4-x,3/4-y,1/2+z
x,3/4-y,3/4-z
1/4-x,1/2+y,3/4-z
-x,1/2-y,1/2-z
3/4+x,1/4+y,1/2-z
-x,1/4+y,1/4+z
3/4+x,1/2-y,1/4+z
1/2+x,y,1/2+z
3/4-x,1/4-y,1/2+z
1/2+x,1/4-y,3/4-z
3/4-x,y,3/4-z
1/2-x,-y,1/2-z
1/4+x,3/4+y,1/2-z
1/2-x,3/4+y,1/4+z
1/4+x,-y,1/4+z
1/2+x,1/2+y,z
3/4-x,3/4-y,z
1/2+x,3/4-y,1/4-z
3/4-x,1/2+y,1/4-z
1/2-x,1/2-y,-z
1/4+x,1/4+y,-z
1/2-x,1/4+y,3/4+z
1/4+x,1/2-y,3/4+z
loop_
_atom_site_type_symbol
_atom_site_label
_atom_site_fract_x
_atom_site_fract_y
_atom_site_fract_z
Si Si1 0.515829 0.122599 0.970069
Si Si2 0.582807 0.490154 0.998127
Si Si3 0.125000 0.844067 0.625000
Si Si4 0.375263 0.302049 0.219624
O O1 0.440440 0.127927 0.912845
O O2 0.555192 0.078612 0.936103
O O3 0.563601 0.163989 0.935789
O O4 0.511926 0.125000 0.125000
O O5 0.614197 0.510641 0.868474
O O6 0.625000 0.508450 0.125000
O O7 0.500000 0.500000 0.000000
O O8 0.599972 0.439379 0.012714
O O9 0.375000 0.294119 0.375000
#
# Coordination Sequence:
#
# PCOD9514840 Si02
#       4
#    32  32  16  32
#     4   9  18  35  56  81 114 157 201 250 291 361
#     4  10  20  37  60  87 124 154 191 255 319 357
#     4  10  20  36  58  81 130 148 200 252 315 338
#     4   9  17  36  63  84 108 157 209 240 298 369
#
# _framework density 18.240842000000001
#
# number of rings (size 3 to 8) (size 9 to 14) (size 15 to 20)
#    0.857    1.714    2.857    1.714    0.000    0.000 
#    5.143   15.714    0.000    0.000    0.000    0.000 
#    0.000    0.000    0.000    0.000    0.000    0.000 
#
# Total GULP energy -155894.200148 kJ/mol
# GULP energy per Si atom -5567.650005 kJ/mol
# Density = 1.819933 g / cm^3
# Si number density = 18.240842 Si / 1000 Ang^3
#
#
#
# Elastic Constant Matrix: (Units=GPa)
#
#
# Indices 1 2 3 4 5 6 
#
# 1 161.9679 34.1424 33.4392 0.0000 0.0000 0.0000
# 2 34.1424 30.3965 15.8907 0.0000 0.0000 0.0000
# 3 33.4392 15.8907 37.5998 0.0000 0.0000 0.0000
# 4 0.0000 0.0000 0.0000 -91.9405 0.0000 0.0000
# 5 0.0000 0.0000 0.0000 0.0000 26.8098 0.0000
# 6 0.0000 0.0000 0.0000 0.0000 0.0000 13.1457
#
#
#
# Elastic Compliance Matrix: (Units=1/GPa)
#
#
# Indices 1 2 3 4 5 6 
#
# 1 0.008671 -0.007327 -0.004615 0.000000 0.000000 0.000000
# 2 -0.007327 0.048420 -0.013947 0.000000 0.000000 0.000000
# 3 -0.004615 -0.013947 0.036595 0.000000 0.000000 0.000000
# 4 0.000000 0.000000 0.000000 -0.010877 0.000000 0.000000
# 5 0.000000 0.000000 0.000000 0.000000 0.037300 0.000000
# 6 0.000000 0.000000 0.000000 0.000000 0.000000 0.076070
#
#
# Mechanical properties :
#
#
# Convention : Reuss Voigt Hill
#
# Bulk Modulus (GPa) = 23.86231 44.10098 33.98165
# Shear Modulus (GPa) = 19.08916 -0.63088 9.22914
#
# Velocity S-wave (km/s) = 3.23848 -0.58874 2.25180
# Velocity P-wave (km/s) = 5.20518 4.87518 5.04288
#
# Compressibility (1/GPa) = 0.04190710
#
# Stress axis : x y z
#
# Youngs Moduli (GPa) = 115.32046 20.65251 27.32625
#
# Poissons Ratio (x) = 0.15133 0.12612
# Poissons Ratio (y) = 0.84500 0.38112
# Poissons Ratio (z) = 0.53223 0.28804
#
# Static dielectric constant tensor:
#      x y z
#    x 2.032770 0.000000 0.000000 
#    y 0.000000 1.626000 0.000000 
#    z 0.000000 0.000000 1.620290 
# 
# From -- ./inp_files/16302.got.cif
#   From: 2010.05.17/outbox.cif.g08.bks.cpg/sg70_9_cif.got.tgz:16302.got - 2010.06.03 15:57:51.
