data_PCOD9514754
_publ_section_title
;
Structure prediction by ZEFSAII (Michael W. Deem and Ramdas Pophale) SiO2 
 PCOD9514754
Probable space group: F D D D
;
_chemical_formula_sum "Si O2"
_cell_formula_units_Z 160
_cell_length_a 10.467037
_cell_length_b 27.751867
_cell_length_c 28.026964
_cell_angle_alpha 90.000000
_cell_angle_beta 90.000000
_cell_angle_gamma 90.000000
_cell_volume 8141.267422
_symmetry_space_group_name_H-M "F D D D"
_symmetry_group_IT_number 70
_space_group.IT_coordinate_system_code '2'
_symmetry_cell_setting 'orthorhombic'
loop_
_space_group_symop_operation_xyz
x,y,z
1/4-x,1/4-y,z
x,1/4-y,1/4-z
1/4-x,y,1/4-z
-x,-y,-z
3/4+x,3/4+y,-z
-x,3/4+y,3/4+z
3/4+x,-y,3/4+z
x,1/2+y,1/2+z
1/4-x,3/4-y,1/2+z
x,3/4-y,3/4-z
1/4-x,1/2+y,3/4-z
-x,1/2-y,1/2-z
3/4+x,1/4+y,1/2-z
-x,1/4+y,1/4+z
3/4+x,1/2-y,1/4+z
1/2+x,y,1/2+z
3/4-x,1/4-y,1/2+z
1/2+x,1/4-y,3/4-z
3/4-x,y,3/4-z
1/2-x,-y,1/2-z
1/4+x,3/4+y,1/2-z
1/2-x,3/4+y,1/4+z
1/4+x,-y,1/4+z
1/2+x,1/2+y,z
3/4-x,3/4-y,z
1/2+x,3/4-y,1/4-z
3/4-x,1/2+y,1/4-z
1/2-x,1/2-y,-z
1/4+x,1/4+y,-z
1/2-x,1/4+y,3/4+z
1/4+x,1/2-y,3/4+z
loop_
_atom_site_type_symbol
_atom_site_label
_atom_site_fract_x
_atom_site_fract_y
_atom_site_fract_z
Si Si1 0.733266 0.242490 0.880241
Si Si2 0.864789 0.510128 0.526523
Si Si3 0.256689 0.617099 0.346805
Si Si4 0.634140 0.779723 0.474453
Si Si5 0.018176 0.864839 0.488419
O O1 0.875000 0.265420 0.875000
O O2 0.661122 0.238845 0.829683
O O3 0.764491 0.190709 0.904759
O O4 0.648975 0.270287 0.918428
O O5 0.748967 0.488998 0.494889
O O6 0.836129 0.567420 0.531038
O O7 0.000000 0.500000 0.500000
O O8 0.125000 0.625000 0.373763
O O9 0.375000 0.637003 0.375000
O O10 0.251220 0.641692 0.295498
O O11 0.750000 0.750000 0.500000
O O12 0.652968 0.836219 0.483281
O O13 0.875000 0.875000 0.468932
#
# Coordination Sequence:
#
# PCOD9514754 Si02
#       5
#    32  32  32  32  32
#     4  11  21  41  67  95 128 179 230 276 345 409
#     4  12  28  43  63 105 145 177 225 292 359 411
#     4  10  20  33  58  91 120 164 226 276 326 388
#     4  12  20  43  69  91 135 174 222 292 322 414
#     4  11  21  41  67  95 128 179 230 276 345 409
#
# _framework density 19.65296
#
# number of rings (size 3 to 8) (size 9 to 14) (size 15 to 20)
#    0.000    0.800    6.000    2.400    2.800    2.400 
#    0.000    2.000    0.000    2.400    0.000    0.000 
#    0.000    0.000    0.000    0.000    0.000    0.000 
#
# Total GULP energy -223198.411819 kJ/mol
# GULP energy per Si atom -5579.960295 kJ/mol
# Density = 1.960823 g / cm^3
# Si number density = 19.652960 Si / 1000 Ang^3
#
#
#
# Elastic Constant Matrix: (Units=GPa)
#
#
# Indices 1 2 3 4 5 6 
#
# 1 134.1399 4.1972 34.1104 0.0000 0.0000 0.0000
# 2 4.1972 77.9859 -13.8041 0.0000 0.0000 0.0000
# 3 34.1104 -13.8041 95.5307 0.0000 0.0000 0.0000
# 4 0.0000 0.0000 0.0000 23.4754 0.0000 0.0000
# 5 0.0000 0.0000 0.0000 0.0000 19.8607 0.0000
# 6 0.0000 0.0000 0.0000 0.0000 0.0000 24.4067
#
#
#
# Elastic Compliance Matrix: (Units=1/GPa)
#
#
# Indices 1 2 3 4 5 6 
#
# 1 0.008274 -0.000994 -0.003098 0.000000 0.000000 0.000000
# 2 -0.000994 0.013279 0.002274 0.000000 0.000000 0.000000
# 3 -0.003098 0.002274 0.011902 0.000000 0.000000 0.000000
# 4 0.000000 0.000000 0.000000 0.042598 0.000000 0.000000
# 5 0.000000 0.000000 0.000000 0.000000 0.050351 0.000000
# 6 0.000000 0.000000 0.000000 0.000000 0.000000 0.040972
#
#
# Mechanical properties :
#
#
# Convention : Reuss Voigt Hill
#
# Bulk Modulus (GPa) = 33.53545 39.62926 36.58235
# Shear Modulus (GPa) = 27.63174 32.42542 30.02858
#
# Velocity S-wave (km/s) = 3.75371 4.06630 3.91313
# Velocity P-wave (km/s) = 5.99066 6.50036 6.25071
#
# Compressibility (1/GPa) = 0.02981919
#
# Stress axis : x y z
#
# Youngs Moduli (GPa) = 120.86440 75.30830 84.01612
#
# Poissons Ratio (x) = 0.07483 0.26027
# Poissons Ratio (y) = 0.12009 -0.19101
# Poissons Ratio (z) = 0.37442 -0.17122
#
# Static dielectric constant tensor:
#      x y z
#    x 1.754210 0.000000 0.000000 
#    y 0.000000 1.813780 0.000000 
#    z 0.000000 0.000000 1.725050 
# 
# From -- ./inp_files/64857.got.cif
#   From: 2010.05.17/outbox.cif.g08.bks.cpg/sg70_33_cif.got.tgz:64857.got - 2010.06.03 15:57:51.
