data_PCOD9514287
_publ_section_title
;
Structure prediction by ZEFSAII (Michael W. Deem and Ramdas Pophale) SiO2 
 PCOD9514287
Probable space group: F D D D
;
_chemical_formula_sum "Si O2"
_cell_formula_units_Z 240
_cell_length_a 31.501699
_cell_length_b 17.634634
_cell_length_c 21.671982
_cell_angle_alpha 90.000000
_cell_angle_beta 90.000000
_cell_angle_gamma 90.000000
_cell_volume 12039.239644
_symmetry_space_group_name_H-M "F D D D"
_symmetry_group_IT_number 70
_space_group.IT_coordinate_system_code '2'
_symmetry_cell_setting 'orthorhombic'
loop_
_space_group_symop_operation_xyz
x,y,z
1/4-x,1/4-y,z
x,1/4-y,1/4-z
1/4-x,y,1/4-z
-x,-y,-z
3/4+x,3/4+y,-z
-x,3/4+y,3/4+z
3/4+x,-y,3/4+z
x,1/2+y,1/2+z
1/4-x,3/4-y,1/2+z
x,3/4-y,3/4-z
1/4-x,1/2+y,3/4-z
-x,1/2-y,1/2-z
3/4+x,1/4+y,1/2-z
-x,1/4+y,1/4+z
3/4+x,1/2-y,1/4+z
1/2+x,y,1/2+z
3/4-x,1/4-y,1/2+z
1/2+x,1/4-y,3/4-z
3/4-x,y,3/4-z
1/2-x,-y,1/2-z
1/4+x,3/4+y,1/2-z
1/2-x,3/4+y,1/4+z
1/4+x,-y,1/4+z
1/2+x,1/2+y,z
3/4-x,3/4-y,z
1/2+x,3/4-y,1/4-z
3/4-x,1/2+y,1/4-z
1/2-x,1/2-y,-z
1/4+x,1/4+y,-z
1/2-x,1/4+y,3/4+z
1/4+x,1/2-y,3/4+z
loop_
_atom_site_type_symbol
_atom_site_label
_atom_site_fract_x
_atom_site_fract_y
_atom_site_fract_z
Si Si1 0.441041 0.674724 0.220315
Si Si2 0.653061 0.320489 0.743977
Si Si3 0.228490 0.291292 0.306987
Si Si4 0.671735 0.473109 0.821958
Si Si5 0.177723 0.988092 0.405757
Si Si6 0.774180 0.368029 0.041648
Si Si7 0.125000 0.886320 0.625000
Si Si8 0.214327 0.347468 0.661314
O O1 0.393394 0.701936 0.235292
O O2 0.450825 0.726304 0.160724
O O3 0.437346 0.589109 0.193310
O O4 0.464692 0.663729 0.286060
O O5 0.691177 0.266360 0.760548
O O6 0.664061 0.400944 0.777555
O O7 0.649498 0.334494 0.672606
O O8 0.202459 0.297525 0.370826
O O9 0.252207 0.361550 0.273697
O O10 0.261438 0.224819 0.313375
O O11 0.624105 0.492958 0.846438
O O12 0.696498 0.542916 0.789987
O O13 0.196316 0.061632 0.438640
O O14 0.738241 0.362300 0.095855
O O15 0.085446 0.927385 0.656120
#
# Coordination Sequence:
#
# PCOD9514287 Si02
#       8
#    32  32  32  32  32  32  16  32
#     4   9  18  33  59  81 105 150 196 240 292 361
#     4  10  19  37  60  81 112 151 204 240 282 355
#     4  11  20  37  55  85 117 155 197 248 291 345
#     4  10  22  37  58  84 116 162 201 240 297 364
#     4  10  18  35  58  84 110 150 199 248 298 355
#     4  11  22  35  56  86 121 152 194 255 306 341
#     4  10  20  38  60  83 116 157 198 240 294 354
#     4  10  21  36  56  85 118 154 196 248 299 362
#
# _framework density 19.934813999999999
#
# number of rings (size 3 to 8) (size 9 to 14) (size 15 to 20)
#    0.000    1.867    4.000    0.800    0.000    1.067 
#    2.400    0.000    0.000    0.800    0.000    0.000 
#    0.000    0.000    0.000    0.000    0.000    0.000 
#
# Total GULP energy -334012.979462 kJ/mol
# GULP energy per Si atom -5566.882991 kJ/mol
# Density = 1.988944 g / cm^3
# Si number density = 19.934814 Si / 1000 Ang^3
#
#
#
# Elastic Constant Matrix: (Units=GPa)
#
#
# Indices 1 2 3 4 5 6 
#
# 1 63.2777 10.8334 24.3119 0.0000 0.0000 0.0000
# 2 10.8334 26.5348 8.6447 0.0000 0.0000 0.0000
# 3 24.3119 8.6447 87.0910 0.0000 0.0000 0.0000
# 4 0.0000 0.0000 0.0000 14.0486 0.0000 0.0000
# 5 0.0000 0.0000 0.0000 0.0000 39.5191 0.0000
# 6 0.0000 0.0000 0.0000 0.0000 0.0000 15.9763
#
#
#
# Elastic Compliance Matrix: (Units=1/GPa)
#
#
# Indices 1 2 3 4 5 6 
#
# 1 0.018612 -0.006103 -0.004590 0.000000 0.000000 0.000000
# 2 -0.006103 0.040947 -0.002361 0.000000 0.000000 0.000000
# 3 -0.004590 -0.002361 0.012998 0.000000 0.000000 0.000000
# 4 0.000000 0.000000 0.000000 0.071181 0.000000 0.000000
# 5 0.000000 0.000000 0.000000 0.000000 0.025304 0.000000
# 6 0.000000 0.000000 0.000000 0.000000 0.000000 0.062593
#
#
# Mechanical properties :
#
#
# Convention : Reuss Voigt Hill
#
# Bulk Modulus (GPa) = 21.52887 29.38705 25.45796
# Shear Modulus (GPa) = 18.29990 22.78304 20.54147
#
# Velocity S-wave (km/s) = 3.03312 3.38431 3.21352
# Velocity P-wave (km/s) = 4.80515 5.48133 5.15434
#
# Compressibility (1/GPa) = 0.04644926
#
# Stress axis : x y z
#
# Youngs Moduli (GPa) = 53.72969 24.42167 76.93603
#
# Poissons Ratio (x) = 0.14905 0.35312
# Poissons Ratio (y) = 0.32793 0.18162
# Poissons Ratio (z) = 0.24660 0.05765
#
# Static dielectric constant tensor:
#      x y z
#    x 1.747920 0.000000 0.000000 
#    y 0.000000 1.691270 0.000000 
#    z 0.000000 0.000000 1.820850 
# 
# From -- ./inp_files/55243.got.cif
#   From: 2010.05.17/outbox.cif.g08.bks.cpg/sg70_28_cif.got.tgz:55243.got - 2010.06.03 15:57:51.
