data_PCOD9514639
_publ_section_title
;
Structure prediction by ZEFSAII (Michael W. Deem and Ramdas Pophale) SiO2 
 PCOD9514639
Probable space group: F D D D
;
_chemical_formula_sum "Si O2"
_cell_formula_units_Z 208
_cell_length_a 15.307384
_cell_length_b 19.600234
_cell_length_c 30.652509
_cell_angle_alpha 90.000000
_cell_angle_beta 90.000000
_cell_angle_gamma 90.000000
_cell_volume 9196.620421
_symmetry_space_group_name_H-M "F D D D"
_symmetry_group_IT_number 70
_space_group.IT_coordinate_system_code '2'
_symmetry_cell_setting 'orthorhombic'
loop_
_space_group_symop_operation_xyz
x,y,z
1/4-x,1/4-y,z
x,1/4-y,1/4-z
1/4-x,y,1/4-z
-x,-y,-z
3/4+x,3/4+y,-z
-x,3/4+y,3/4+z
3/4+x,-y,3/4+z
x,1/2+y,1/2+z
1/4-x,3/4-y,1/2+z
x,3/4-y,3/4-z
1/4-x,1/2+y,3/4-z
-x,1/2-y,1/2-z
3/4+x,1/4+y,1/2-z
-x,1/4+y,1/4+z
3/4+x,1/2-y,1/4+z
1/2+x,y,1/2+z
3/4-x,1/4-y,1/2+z
1/2+x,1/4-y,3/4-z
3/4-x,y,3/4-z
1/2-x,-y,1/2-z
1/4+x,3/4+y,1/2-z
1/2-x,3/4+y,1/4+z
1/4+x,-y,1/4+z
1/2+x,1/2+y,z
3/4-x,3/4-y,z
1/2+x,3/4-y,1/4-z
3/4-x,1/2+y,1/4-z
1/2-x,1/2-y,-z
1/4+x,1/4+y,-z
1/2-x,1/4+y,3/4+z
1/4+x,1/2-y,3/4+z
loop_
_atom_site_type_symbol
_atom_site_label
_atom_site_fract_x
_atom_site_fract_y
_atom_site_fract_z
Si Si1 0.439027 0.200043 0.904827
Si Si2 0.125000 0.625000 0.974017
Si Si3 0.486172 0.795601 0.955188
Si Si4 0.996379 0.840902 0.084551
Si Si5 0.101588 0.767596 0.740417
Si Si6 0.386731 0.485048 0.594878
Si Si7 0.531395 0.875000 0.875000
Si Si8 0.375000 0.875000 0.510521
O O1 0.375000 0.245107 0.875000
O O2 0.460698 0.136378 0.872240
O O3 0.385617 0.188256 0.949460
O O4 0.533133 0.232253 0.912021
O O5 0.187987 0.581263 0.004890
O O6 0.170017 0.682737 0.943093
O O7 0.453585 0.720706 0.940076
O O8 0.476158 0.840928 0.912795
O O9 0.589551 0.791407 0.968478
O O10 0.918849 0.801729 0.110819
O O11 0.954978 0.882242 0.044490
O O12 0.139327 0.691492 0.732243
O O13 0.000000 0.750000 0.750000
O O14 0.417164 0.562792 0.601041
#
# Coordination Sequence:
#
# PCOD9514639 Si02
#       8
#    32  16  32  32  32  32  16  16
#     4  12  23  40  65 104 130 184 241 286 348 440
#     4  12  21  47  74 100 141 187 250 288 365 425
#     4  10  24  44  70 102 141 187 232 305 360 428
#     4  10  19  42  69  93 132 184 235 284 355 420
#     4  11  24  40  66 102 139 178 233 293 360 436
#     4  11  21  44  71  98 138 189 230 293 353 434
#     4  10  26  43  67 102 152 180 228 294 378 416
#     4  10  19  38  65  90 131 185 216 289 356 403
#
# _framework density 22.617003
#
# number of rings (size 3 to 8) (size 9 to 14) (size 15 to 20)
#    0.000    1.231    4.615    0.923    4.308    2.154 
#    8.308    0.000    0.000    0.000    0.000    0.000 
#    0.000    0.000    0.000    0.000    0.000    0.000 
#
# Total GULP energy -289535.828057 kJ/mol
# GULP energy per Si atom -5567.996693 kJ/mol
# Density = 2.256553 g / cm^3
# Si number density = 22.617003 Si / 1000 Ang^3
#
#
#
# Elastic Constant Matrix: (Units=GPa)
#
#
# Indices 1 2 3 4 5 6 
#
# 1 69.0910 17.7387 23.7609 0.0000 0.0000 0.0000
# 2 17.7387 142.7545 60.2976 0.0000 0.0000 0.0000
# 3 23.7609 60.2976 133.5266 0.0000 0.0000 0.0000
# 4 0.0000 0.0000 0.0000 48.0896 0.0000 0.0000
# 5 0.0000 0.0000 0.0000 0.0000 31.8967 0.0000
# 6 0.0000 0.0000 0.0000 0.0000 0.0000 12.0451
#
#
#
# Elastic Compliance Matrix: (Units=1/GPa)
#
#
# Indices 1 2 3 4 5 6 
#
# 1 0.015519 -0.000942 -0.002336 0.000000 0.000000 0.000000
# 2 -0.000942 0.008713 -0.003767 0.000000 0.000000 0.000000
# 3 -0.002336 -0.003767 0.009606 0.000000 0.000000 0.000000
# 4 0.000000 0.000000 0.000000 0.020795 0.000000 0.000000
# 5 0.000000 0.000000 0.000000 0.000000 0.031351 0.000000
# 6 0.000000 0.000000 0.000000 0.000000 0.000000 0.083021
#
#
# Mechanical properties :
#
#
# Convention : Reuss Voigt Hill
#
# Bulk Modulus (GPa) = 50.63795 60.99631 55.81713
# Shear Modulus (GPa) = 26.36047 34.64461 30.50254
#
# Velocity S-wave (km/s) = 3.41767 3.91806 3.67639
# Velocity P-wave (km/s) = 6.16538 6.89174 6.53865
#
# Compressibility (1/GPa) = 0.01974803
#
# Stress axis : x y z
#
# Youngs Moduli (GPa) = 64.43755 114.76814 104.10090
#
# Poissons Ratio (x) = 0.10806 0.24322
# Poissons Ratio (y) = 0.06067 0.39216
# Poissons Ratio (z) = 0.15055 0.43235
#
# Static dielectric constant tensor:
#      x y z
#    x 1.953680 0.000000 0.000000 
#    y 0.000000 1.909440 0.000000 
#    z 0.000000 0.000000 1.844660 
# 
# From -- ./inp_files/59653.got.cif
#   From: 2010.05.17/outbox.cif.g08.bks.cpg/sg70_30_cif.got.tgz:59653.got - 2010.06.03 15:57:51.
