data_PCOD9514484
_publ_section_title
;
Structure prediction by ZEFSAII (Michael W. Deem and Ramdas Pophale) SiO2 
 PCOD9514484
Probable space group: F D D D
;
_chemical_formula_sum "Si O2"
_cell_formula_units_Z 192
_cell_length_a 21.839342
_cell_length_b 24.398971
_cell_length_c 15.664233
_cell_angle_alpha 90.000000
_cell_angle_beta 90.000000
_cell_angle_gamma 90.000000
_cell_volume 8346.803599
_symmetry_space_group_name_H-M "F D D D"
_symmetry_group_IT_number 70
_space_group.IT_coordinate_system_code '2'
_symmetry_cell_setting 'orthorhombic'
loop_
_space_group_symop_operation_xyz
x,y,z
1/4-x,1/4-y,z
x,1/4-y,1/4-z
1/4-x,y,1/4-z
-x,-y,-z
3/4+x,3/4+y,-z
-x,3/4+y,3/4+z
3/4+x,-y,3/4+z
x,1/2+y,1/2+z
1/4-x,3/4-y,1/2+z
x,3/4-y,3/4-z
1/4-x,1/2+y,3/4-z
-x,1/2-y,1/2-z
3/4+x,1/4+y,1/2-z
-x,1/4+y,1/4+z
3/4+x,1/2-y,1/4+z
1/2+x,y,1/2+z
3/4-x,1/4-y,1/2+z
1/2+x,1/4-y,3/4-z
3/4-x,y,3/4-z
1/2-x,-y,1/2-z
1/4+x,3/4+y,1/2-z
1/2-x,3/4+y,1/4+z
1/4+x,-y,1/4+z
1/2+x,1/2+y,z
3/4-x,3/4-y,z
1/2+x,3/4-y,1/4-z
3/4-x,1/2+y,1/4-z
1/2-x,1/2-y,-z
1/4+x,1/4+y,-z
1/2-x,1/4+y,3/4+z
1/4+x,1/2-y,3/4+z
loop_
_atom_site_type_symbol
_atom_site_label
_atom_site_fract_x
_atom_site_fract_y
_atom_site_fract_z
Si Si1 0.568723 0.017210 0.484803
Si Si2 0.875000 0.875000 0.062213
Si Si3 0.571063 0.761016 0.564753
Si Si4 0.973855 0.933178 0.566343
Si Si5 0.775850 0.083565 0.014488
Si Si6 0.625000 0.440371 0.125000
Si Si7 0.892403 0.716309 0.163315
O O1 0.589801 0.079674 0.493170
O O2 0.500000 0.000000 0.500000
O O3 0.602700 0.979949 0.551488
O O4 0.592933 0.999393 0.392550
O O5 0.926136 0.849202 0.123758
O O6 0.625000 0.736925 0.625000
O O7 0.529146 0.798224 0.624090
O O8 0.526725 0.713913 0.523327
O O9 0.602829 0.801520 0.494715
O O10 0.993661 0.893186 0.489763
O O11 0.939347 0.989838 0.546344
O O12 0.816044 0.085187 0.925702
O O13 0.821713 0.070196 0.093576
#
# Coordination Sequence:
#
# PCOD9514484 Si02
#       7
#    32  16  32  32  32  16  32
#     4  10  19  34  59  88 126 173 216 278 345 410
#     4  10  20  35  60  96 131 172 240 278 339 430
#     4  11  24  43  67  96 143 178 225 298 360 406
#     4  10  21  40  70  98 132 181 230 285 345 420
#     4  10  21  40  70  97 132 184 233 279 355 428
#     4  10  20  35  62  90 130 174 222 283 354 408
#     4   9  21  41  63  95 133 175 221 283 346 416
#
# _framework density 23.002818000000001
#
# number of rings (size 3 to 8) (size 9 to 14) (size 15 to 20)
#    0.000    2.000    0.000    5.000    1.167    3.000 
#    0.000    4.167    3.667    0.000    0.000    0.000 
#    0.000    0.000    0.000    0.000    0.000    0.000 
#
# Total GULP energy -267777.340523 kJ/mol
# GULP energy per Si atom -5578.694594 kJ/mol
# Density = 2.295046 g / cm^3
# Si number density = 23.002818 Si / 1000 Ang^3
#
#
#
# Elastic Constant Matrix: (Units=GPa)
#
#
# Indices 1 2 3 4 5 6 
#
# 1 144.5398 52.7708 57.9185 0.0000 0.0000 0.0000
# 2 52.7708 113.5194 32.2909 0.0000 0.0000 0.0000
# 3 57.9185 32.2909 102.6510 0.0000 0.0000 0.0000
# 4 0.0000 0.0000 0.0000 39.4538 0.0000 0.0000
# 5 0.0000 0.0000 0.0000 0.0000 54.6867 0.0000
# 6 0.0000 0.0000 0.0000 0.0000 0.0000 -0.9979
#
#
#
# Elastic Compliance Matrix: (Units=1/GPa)
#
#
# Indices 1 2 3 4 5 6 
#
# 1 0.009969 -0.003332 -0.004577 0.000000 0.000000 0.000000
# 2 -0.003332 0.010789 -0.001514 0.000000 0.000000 0.000000
# 3 -0.004577 -0.001514 0.012800 0.000000 0.000000 0.000000
# 4 0.000000 0.000000 0.000000 0.025346 0.000000 0.000000
# 5 0.000000 0.000000 0.000000 0.000000 0.018286 0.000000
# 6 0.000000 0.000000 0.000000 0.000000 0.000000 -1.002066
#
#
# Mechanical properties :
#
#
# Convention : Reuss Voigt Hill
#
# Bulk Modulus (GPa) = 67.96797 71.85227 69.91012
# Shear Modulus (GPa) = -5.54861 33.14384 13.79762
#
# Velocity S-wave (km/s) = -1.55479 3.79998 2.45179
# Velocity P-wave (km/s) = 5.13699 7.11036 6.20266
#
# Compressibility (1/GPa) = 0.01471281
#
# Stress axis : x y z
#
# Youngs Moduli (GPa) = 100.31093 92.68943 78.12459
#
# Poissons Ratio (x) = 0.30888 0.35754
# Poissons Ratio (y) = 0.33428 0.11825
# Poissons Ratio (z) = 0.45907 0.14029
#
# Static dielectric constant tensor:
#      x y z
#    x 1.931300 0.000000 0.000000 
#    y 0.000000 1.934660 0.000000 
#    z 0.000000 0.000000 1.869030 
# 
# From -- ./inp_files/29003.got.cif
#   From: 2010.05.17/outbox.cif.g08.bks.cpg/sg70_15_cif.got.tgz:29003.got - 2010.06.03 15:57:51.
