data_PCOD9514027
_publ_section_title
;
Structure prediction by ZEFSAII (Michael W. Deem and Ramdas Pophale) SiO2 
 PCOD9514027
Probable space group: F M M M
;
_chemical_formula_sum "Si O2"
_cell_formula_units_Z 40
_cell_length_a 15.000000
_cell_length_b 30.000000
_cell_length_c 18.000000
_cell_angle_alpha 90.000000
_cell_angle_beta 90.000000
_cell_angle_gamma 90.000000
_cell_volume 8100.000000
_symmetry_space_group_name_H-M "F M M M"
_symmetry_group_IT_number 69
_symmetry_cell_setting 'orthorhombic'
loop_
_space_group_symop_operation_xyz
x,y,z
-x,-y,z
x,-y,-z
-x,y,-z
-x,-y,-z
x,y,-z
-x,y,z
x,-y,z
x,1/2+y,1/2+z
-x,1/2-y,1/2+z
x,1/2-y,1/2-z
-x,1/2+y,1/2-z
-x,1/2-y,1/2-z
x,1/2+y,1/2-z
-x,1/2+y,1/2+z
x,1/2-y,1/2+z
1/2+x,y,1/2+z
1/2-x,-y,1/2+z
1/2+x,-y,1/2-z
1/2-x,y,1/2-z
1/2-x,-y,1/2-z
1/2+x,y,1/2-z
1/2-x,y,1/2+z
1/2+x,-y,1/2+z
1/2+x,1/2+y,z
1/2-x,1/2-y,z
1/2+x,1/2-y,-z
1/2-x,1/2+y,-z
1/2-x,1/2-y,-z
1/2+x,1/2+y,-z
1/2-x,1/2+y,z
1/2+x,1/2-y,z
loop_
_atom_site_type_symbol
_atom_site_label
_atom_site_fract_x
_atom_site_fract_y
_atom_site_fract_z
Si Si1 0.814701 0.632709 0.176904
Si Si2 0.000000 0.812347 0.687064
Si Si3 0.892616 0.951165 0.087408
Si Si4 0.607182 0.552485 0.413189
Si Si5 0.500000 0.286003 0.142279
Si Si6 0.845374 0.148650 0.088092
O O1 0.750000 0.631062 0.250000
O O2 0.839835 0.584367 0.142592
O O3 0.752858 0.658240 0.117582
O O4 0.909332 0.658352 0.182218
O O5 0.000000 0.767993 0.634186
O O6 0.000000 0.794688 0.770492
O O7 0.866188 0.902202 0.117437
O O8 0.000000 0.951588 0.090869
O O9 0.862320 0.000000 0.118340
O O10 0.867019 0.951562 0.000000
O O11 0.628704 0.562972 0.500000
O O12 0.500000 0.558724 0.404406
O O13 0.625693 0.500000 0.401715
O O14 0.585146 0.313426 0.111932
O O15 0.849694 0.145778 0.000000
#
# Coordination Sequence:
#
# PCOD9514027 Si02
#       6
#    32  16  32  32  16  32
#     4  12  24  42  68  97 133 171 225 272 325 398
#     4  11  26  48  67  90 123 172 223 266 331 408
#     4   8  14  27  52  86 127 170 202 239 305 382
#     4   9  19  39  67  96 133 182 226 267 320 383
#     4  11  23  46  71  90 124 173 214 271 339 403
#     4  11  22  39  65 101 135 168 214 275 332 384
#
# _framework density 4.9382720000000004
#
# number of rings (size 3 to 8) (size 9 to 14) (size 15 to 20)
#    0.000    1.800    4.000    2.100    0.000    2.000 
#    0.000    7.000    0.000    3.600    0.000    0.000 
#    0.000    0.000    0.000    0.000    0.000    0.000 
#
# Total GULP energy -222976.765977 kJ/mol
# GULP energy per Si atom -5574.419149 kJ/mol
# Density = 0.492703 g / cm^3
# Si number density = 4.938272 Si / 1000 Ang^3
#
#
#
# Elastic Constant Matrix: (Units=GPa)
#
#
# Indices 1 2 3 4 5 6 
#
# 1 141.6218 73.5584 39.6806 0.0000 0.0000 0.0000
# 2 73.5584 131.9274 68.4368 0.0000 0.0000 0.0000
# 3 39.6806 68.4368 50.2664 0.0000 0.0000 0.0000
# 4 0.0000 0.0000 0.0000 34.9103 0.0000 0.0000
# 5 0.0000 0.0000 0.0000 0.0000 39.0891 0.0000
# 6 0.0000 0.0000 0.0000 0.0000 0.0000 14.4181
#
#
#
# Elastic Compliance Matrix: (Units=1/GPa)
#
#
# Indices 1 2 3 4 5 6 
#
# 1 0.009955 -0.005018 -0.001026 0.000000 0.000000 0.000000
# 2 -0.005018 0.028335 -0.034616 0.000000 0.000000 0.000000
# 3 -0.001026 -0.034616 0.067833 0.000000 0.000000 0.000000
# 4 0.000000 0.000000 0.000000 0.028645 0.000000 0.000000
# 5 0.000000 0.000000 0.000000 0.000000 0.025583 0.000000
# 6 0.000000 0.000000 0.000000 0.000000 0.000000 0.069357
#
#
# Mechanical properties :
#
#
# Convention : Reuss Voigt Hill
#
# Bulk Modulus (GPa) = 40.31935 76.35192 58.33564
# Shear Modulus (GPa) = 15.65948 27.15950 21.40949
#
# Velocity S-wave (km/s) = 2.81866 3.71205 3.29577
# Velocity P-wave (km/s) = 5.57217 7.55708 6.63922
#
# Compressibility (1/GPa) = 0.02480199
#
# Stress axis : x y z
#
# Youngs Moduli (GPa) = 100.45106 35.29250 14.74209
#
# Poissons Ratio (x) = 0.17710 0.01513
# Poissons Ratio (y) = 0.50408 0.51031
# Poissons Ratio (z) = 0.10311 1.22168
#
# Static dielectric constant tensor:
#      x y z
#    x 1.723940 0.000000 0.000000 
#    y 0.000000 1.742700 0.000000 
#    z 0.000000 0.000000 1.709570 
# 
# From -- ./inp_files/21841.got.cif
#   From: 2010.05.17/outbox.ucp.g08.bks.cvg/sg69_11_cif.got.tgz:21841.got - 2010.06.11 16:51:34.
