data_PCOD9514118
_publ_section_title
;
Structure prediction by ZEFSAII (Michael W. Deem and Ramdas Pophale) SiO2 
 PCOD9514118
Probable space group: F D D D
;
_chemical_formula_sum "Si O2"
_cell_formula_units_Z 128
_cell_length_a 18.767832
_cell_length_b 17.923443
_cell_length_c 13.996775
_cell_angle_alpha 90.000000
_cell_angle_beta 90.000000
_cell_angle_gamma 90.000000
_cell_volume 4708.293500
_symmetry_space_group_name_H-M "F D D D"
_symmetry_group_IT_number 70
_space_group.IT_coordinate_system_code '2'
_symmetry_cell_setting 'orthorhombic'
loop_
_space_group_symop_operation_xyz
x,y,z
1/4-x,1/4-y,z
x,1/4-y,1/4-z
1/4-x,y,1/4-z
-x,-y,-z
3/4+x,3/4+y,-z
-x,3/4+y,3/4+z
3/4+x,-y,3/4+z
x,1/2+y,1/2+z
1/4-x,3/4-y,1/2+z
x,3/4-y,3/4-z
1/4-x,1/2+y,3/4-z
-x,1/2-y,1/2-z
3/4+x,1/4+y,1/2-z
-x,1/4+y,1/4+z
3/4+x,1/2-y,1/4+z
1/2+x,y,1/2+z
3/4-x,1/4-y,1/2+z
1/2+x,1/4-y,3/4-z
3/4-x,y,3/4-z
1/2-x,-y,1/2-z
1/4+x,3/4+y,1/2-z
1/2-x,3/4+y,1/4+z
1/4+x,-y,1/4+z
1/2+x,1/2+y,z
3/4-x,3/4-y,z
1/2+x,3/4-y,1/4-z
3/4-x,1/2+y,1/4-z
1/2-x,1/2-y,-z
1/4+x,1/4+y,-z
1/2-x,1/4+y,3/4+z
1/4+x,1/2-y,3/4+z
loop_
_atom_site_type_symbol
_atom_site_label
_atom_site_fract_x
_atom_site_fract_y
_atom_site_fract_z
Si Si1 0.610176 0.451471 0.019463
Si Si2 0.290649 0.336113 0.051486
Si Si3 0.530153 0.495457 0.369956
Si Si4 0.147348 0.710678 0.250515
O O1 0.625000 0.424620 0.125000
O O2 0.534609 0.415487 0.997705
O O3 0.591308 0.539971 0.019191
O O4 0.675136 0.440554 0.949152
O O5 0.297531 0.419868 0.087373
O O6 0.303319 0.289945 0.151815
O O7 0.575365 0.493341 0.469463
O O8 0.448710 0.483089 0.336917
O O9 0.125000 0.625000 0.235699
#
# Coordination Sequence:
#
# PCOD9514118 Si02
#       4
#    32  32  32  32
#     4  10  17  30  47  75 113 149 190 246 306 367
#     4   9  19  31  46  80 116 148 191 245 310 370
#     4  10  19  33  52  80 117 155 194 252 308 372
#     4   9  18  34  55  83 118 152 198 252 311 368
#
# _framework density 27.186071999999999
#
# number of rings (size 3 to 8) (size 9 to 14) (size 15 to 20)
#    0.000    2.500    2.500    2.250    0.000    2.000 
#    0.000    0.000    0.000    1.500    6.500    0.000 
#    0.000    0.000    0.000    0.000    0.000    0.000 
#
# Total GULP energy -178431.681867 kJ/mol
# GULP energy per Si atom -5575.990058 kJ/mol
# Density = 2.712420 g / cm^3
# Si number density = 27.186072 Si / 1000 Ang^3
#
#
#
# Elastic Constant Matrix: (Units=GPa)
#
#
# Indices 1 2 3 4 5 6 
#
# 1 198.8557 -1.3997 64.6578 0.0000 0.0000 0.0000
# 2 -1.3997 65.2273 12.7684 0.0000 0.0000 0.0000
# 3 64.6578 12.7684 152.6269 0.0000 0.0000 0.0000
# 4 0.0000 0.0000 0.0000 14.4382 0.0000 0.0000
# 5 0.0000 0.0000 0.0000 0.0000 29.6626 0.0000
# 6 0.0000 0.0000 0.0000 0.0000 0.0000 -11.6007
#
#
#
# Elastic Compliance Matrix: (Units=1/GPa)
#
#
# Indices 1 2 3 4 5 6 
#
# 1 0.005857 0.000622 -0.002533 0.000000 0.000000 0.000000
# 2 0.000622 0.015652 -0.001573 0.000000 0.000000 0.000000
# 3 -0.002533 -0.001573 0.007757 0.000000 0.000000 0.000000
# 4 0.000000 0.000000 0.000000 0.069261 0.000000 0.000000
# 5 0.000000 0.000000 0.000000 0.000000 0.033712 0.000000
# 6 0.000000 0.000000 0.000000 0.000000 0.000000 -0.086201
#
#
# Mechanical properties :
#
#
# Convention : Reuss Voigt Hill
#
# Bulk Modulus (GPa) = 44.84913 63.19589 54.02251
# Shear Modulus (GPa) = 82.72902 29.21224 55.97063
#
# Velocity S-wave (km/s) = 5.52238 3.28156 4.54232
# Velocity P-wave (km/s) = 7.56275 6.13631 6.88656
#
# Compressibility (1/GPa) = 0.02229698
#
# Stress axis : x y z
#
# Youngs Moduli (GPa) = 170.74192 63.88874 128.92222
#
# Poissons Ratio (x) = -0.03971 0.32658
# Poissons Ratio (y) = -0.10612 0.20276
# Poissons Ratio (z) = 0.43251 0.10048
#
# Static dielectric constant tensor:
#      x y z
#    x 2.282530 0.000000 0.000000 
#    y 0.000000 2.112300 0.000000 
#    z 0.000000 0.000000 2.149350 
# 
# From -- ./inp_files/36412.got.cif
#   From: 2010.05.17/outbox.cif.g08.bks.cpg/sg70_19_cif.got.tgz:36412.got - 2010.06.03 15:57:51.
