data_PCOD9514646
_publ_section_title
;
Structure prediction by ZEFSAII (Michael W. Deem and Ramdas Pophale) SiO2 
 PCOD9514646
Probable space group: F D D D
;
_chemical_formula_sum "Si O2"
_cell_formula_units_Z 160
_cell_length_a 26.724905
_cell_length_b 23.019721
_cell_length_c 13.218799
_cell_angle_alpha 90.000000
_cell_angle_beta 90.000000
_cell_angle_gamma 90.000000
_cell_volume 8132.203253
_symmetry_space_group_name_H-M "F D D D"
_symmetry_group_IT_number 70
_space_group.IT_coordinate_system_code '2'
_symmetry_cell_setting 'orthorhombic'
loop_
_space_group_symop_operation_xyz
x,y,z
1/4-x,1/4-y,z
x,1/4-y,1/4-z
1/4-x,y,1/4-z
-x,-y,-z
3/4+x,3/4+y,-z
-x,3/4+y,3/4+z
3/4+x,-y,3/4+z
x,1/2+y,1/2+z
1/4-x,3/4-y,1/2+z
x,3/4-y,3/4-z
1/4-x,1/2+y,3/4-z
-x,1/2-y,1/2-z
3/4+x,1/4+y,1/2-z
-x,1/4+y,1/4+z
3/4+x,1/2-y,1/4+z
1/2+x,y,1/2+z
3/4-x,1/4-y,1/2+z
1/2+x,1/4-y,3/4-z
3/4-x,y,3/4-z
1/2-x,-y,1/2-z
1/4+x,3/4+y,1/2-z
1/2-x,3/4+y,1/4+z
1/4+x,-y,1/4+z
1/2+x,1/2+y,z
3/4-x,3/4-y,z
1/2+x,3/4-y,1/4-z
3/4-x,1/2+y,1/4-z
1/2-x,1/2-y,-z
1/4+x,1/4+y,-z
1/2-x,1/4+y,3/4+z
1/4+x,1/2-y,3/4+z
loop_
_atom_site_type_symbol
_atom_site_label
_atom_site_fract_x
_atom_site_fract_y
_atom_site_fract_z
Si Si1 0.306578 0.612656 0.305586
Si Si2 0.845035 0.690782 0.250253
Si Si3 0.841127 0.432297 0.020745
Si Si4 0.232166 0.625000 0.125000
Si Si5 0.007913 0.690564 0.810790
Si Si6 0.520553 0.875000 0.375000
O O1 0.361711 0.608088 0.256769
O O2 0.312988 0.566390 0.396612
O O3 0.266879 0.602070 0.216535
O O4 0.287932 0.670536 0.365023
O O5 0.867023 0.755216 0.241395
O O6 0.807526 0.676517 0.159681
O O7 0.875000 0.375000 0.026203
O O8 0.806456 0.437528 0.119504
O O9 0.803943 0.422288 0.926047
O O10 0.010495 0.642973 0.722080
O O11 0.000000 0.750000 0.750000
#
# Coordination Sequence:
#
# PCOD9514646 Si02
#       6
#    32  32  32  16  32  16
#     4   9  21  36  60  93 120 159 209 252 307 368
#     4  10  20  38  62  92 124 159 207 262 307 366
#     4  11  24  40  62  90 127 170 205 259 314 370
#     4  10  22  40  58  85 130 163 210 246 310 380
#     4  10  20  42  65  90 120 164 211 253 316 375
#     4  10  19  38  69  87 122 157 205 262 315 360
#
# _framework density 19.674865
#
# number of rings (size 3 to 8) (size 9 to 14) (size 15 to 20)
#    0.000    2.000    2.000    0.900    5.600    0.800 
#    7.200    2.500    4.400    0.000    0.000    0.000 
#    0.000    0.000    0.000    0.000    0.000    0.000 
#
# Total GULP energy -222711.073855 kJ/mol
# GULP energy per Si atom -5567.776846 kJ/mol
# Density = 1.963008 g / cm^3
# Si number density = 19.674865 Si / 1000 Ang^3
#
#
#
# Elastic Constant Matrix: (Units=GPa)
#
#
# Indices 1 2 3 4 5 6 
#
# 1 75.0995 44.2729 43.9699 0.0000 0.0000 0.0000
# 2 44.2729 103.2586 33.7037 0.0000 0.0000 0.0000
# 3 43.9699 33.7037 110.7699 0.0000 0.0000 0.0000
# 4 0.0000 0.0000 0.0000 18.3142 0.0000 0.0000
# 5 0.0000 0.0000 0.0000 0.0000 24.6491 0.0000
# 6 0.0000 0.0000 0.0000 0.0000 0.0000 20.4534
#
#
#
# Elastic Compliance Matrix: (Units=1/GPa)
#
#
# Indices 1 2 3 4 5 6 
#
# 1 0.021105 -0.007011 -0.006244 0.000000 0.000000 0.000000
# 2 -0.007011 0.013081 -0.001197 0.000000 0.000000 0.000000
# 3 -0.006244 -0.001197 0.011871 0.000000 0.000000 0.000000
# 4 0.000000 0.000000 0.000000 0.054602 0.000000 0.000000
# 5 0.000000 0.000000 0.000000 0.000000 0.040569 0.000000
# 6 0.000000 0.000000 0.000000 0.000000 0.000000 0.048892
#
#
# Mechanical properties :
#
#
# Convention : Reuss Voigt Hill
#
# Bulk Modulus (GPa) = 58.30260 59.22455 58.76358
# Shear Modulus (GPa) = 22.24778 23.82877 23.03828
#
# Velocity S-wave (km/s) = 3.36634 3.48390 3.42563
# Velocity P-wave (km/s) = 6.69381 6.80811 6.75120
#
# Compressibility (1/GPa) = 0.01715189
#
# Stress axis : x y z
#
# Youngs Moduli (GPa) = 47.38320 76.44639 84.24112
#
# Poissons Ratio (x) = 0.53593 0.52603
# Poissons Ratio (y) = 0.33218 0.10086
# Poissons Ratio (z) = 0.29588 0.09153
#
# Static dielectric constant tensor:
#      x y z
#    x 1.698620 0.000000 0.000000 
#    y 0.000000 1.733170 0.000000 
#    z 0.000000 0.000000 1.716860 
# 
# From -- ./inp_files/22236.got.cif
#   From: 2010.05.17/outbox.cif.g08.bks.cpg/sg70_12_cif.got.tgz:22236.got - 2010.06.03 15:57:51.
