data_PCOD9514076
_publ_section_title
;
Structure prediction by ZEFSAII (Michael W. Deem and Ramdas Pophale) SiO2 
 PCOD9514076
Probable space group: F D D D
;
_chemical_formula_sum "Si O2"
_cell_formula_units_Z 216
_cell_length_a 26.930238
_cell_length_b 14.012664
_cell_length_c 24.333306
_cell_angle_alpha 90.000000
_cell_angle_beta 90.000000
_cell_angle_gamma 90.000000
_cell_volume 9182.522848
_symmetry_space_group_name_H-M "F D D D"
_symmetry_group_IT_number 70
_space_group.IT_coordinate_system_code '2'
_symmetry_cell_setting 'orthorhombic'
loop_
_space_group_symop_operation_xyz
x,y,z
1/4-x,1/4-y,z
x,1/4-y,1/4-z
1/4-x,y,1/4-z
-x,-y,-z
3/4+x,3/4+y,-z
-x,3/4+y,3/4+z
3/4+x,-y,3/4+z
x,1/2+y,1/2+z
1/4-x,3/4-y,1/2+z
x,3/4-y,3/4-z
1/4-x,1/2+y,3/4-z
-x,1/2-y,1/2-z
3/4+x,1/4+y,1/2-z
-x,1/4+y,1/4+z
3/4+x,1/2-y,1/4+z
1/2+x,y,1/2+z
3/4-x,1/4-y,1/2+z
1/2+x,1/4-y,3/4-z
3/4-x,y,3/4-z
1/2-x,-y,1/2-z
1/4+x,3/4+y,1/2-z
1/2-x,3/4+y,1/4+z
1/4+x,-y,1/4+z
1/2+x,1/2+y,z
3/4-x,3/4-y,z
1/2+x,3/4-y,1/4-z
3/4-x,1/2+y,1/4-z
1/2-x,1/2-y,-z
1/4+x,1/4+y,-z
1/2-x,1/4+y,3/4+z
1/4+x,1/2-y,3/4+z
loop_
_atom_site_type_symbol
_atom_site_label
_atom_site_fract_x
_atom_site_fract_y
_atom_site_fract_z
Si Si1 0.560619 0.389841 0.574645
Si Si2 0.264371 0.903196 0.813301
Si Si3 0.451986 0.728535 0.325303
Si Si4 0.553048 0.317790 0.801358
Si Si5 0.601946 0.905772 0.964124
Si Si6 0.625000 0.625000 0.125000
Si Si7 0.875000 0.375000 0.066381
Si Si8 0.466972 0.290653 0.544826
O O1 0.532330 0.487717 0.559942
O O2 0.562807 0.365954 0.639119
O O3 0.603993 0.386198 0.529853
O O4 0.524291 0.305574 0.556833
O O5 0.278162 0.875000 0.875000
O O6 0.204907 0.895023 0.805482
O O7 0.289960 0.839676 0.765615
O O8 0.448836 0.719814 0.260224
O O9 0.509412 0.764523 0.334507
O O10 0.411925 0.807303 0.341772
O O11 0.611665 0.329744 0.816508
O O12 0.540585 0.429210 0.796946
O O13 0.616172 0.017828 0.958148
O O14 0.819016 0.399368 0.086080
#
# Coordination Sequence:
#
# PCOD9514076 Si02
#       8
#    32  32  32  32  32   8  16  32
#     4  11  20  39  65  91 125 171 214 265 323 392
#     4  11  21  37  58  93 129 171 208 262 324 390
#     4  11  24  42  63  95 124 166 219 268 319 383
#     4  10  23  41  62  91 127 161 210 275 322 375
#     4  10  20  38  62  89 124 169 212 265 327 394
#     4  12  24  44  68  94 118 180 218 260 320 390
#     4  10  16  34  57  87 116 156 209 252 317 376
#     4  10  19  36  61  86 121 161 208 256 319 379
#
# _framework density 23.522946000000001
#
# number of rings (size 3 to 8) (size 9 to 14) (size 15 to 20)
#    0.000    1.481    2.963    3.556    0.000    1.185 
#    6.667    0.370    0.000    0.889    0.000    0.000 
#    0.000    0.000    0.000    0.000    0.000    0.000 
#
# Total GULP energy -300788.458483 kJ/mol
# GULP energy per Si atom -5570.156639 kJ/mol
# Density = 2.346941 g / cm^3
# Si number density = 23.522946 Si / 1000 Ang^3
#
#
#
# Elastic Constant Matrix: (Units=GPa)
#
#
# Indices 1 2 3 4 5 6 
#
# 1 96.6056 9.1858 -0.4803 0.0000 0.0000 0.0000
# 2 9.1858 38.0126 -2.4404 0.0000 0.0000 0.0000
# 3 -0.4803 -2.4404 79.5029 0.0000 0.0000 0.0000
# 4 0.0000 0.0000 0.0000 16.0738 0.0000 0.0000
# 5 0.0000 0.0000 0.0000 0.0000 29.5747 0.0000
# 6 0.0000 0.0000 0.0000 0.0000 0.0000 -85.9694
#
#
#
# Elastic Compliance Matrix: (Units=1/GPa)
#
#
# Indices 1 2 3 4 5 6 
#
# 1 0.010595 -0.002561 -0.000015 0.000000 0.000000 0.000000
# 2 -0.002561 0.026978 0.000813 0.000000 0.000000 0.000000
# 3 -0.000015 0.000813 0.012603 0.000000 0.000000 0.000000
# 4 0.000000 0.000000 0.000000 0.062213 0.000000 0.000000
# 5 0.000000 0.000000 0.000000 0.000000 0.033813 0.000000
# 6 0.000000 0.000000 0.000000 0.000000 0.000000 -0.011632
#
#
# Mechanical properties :
#
#
# Convention : Reuss Voigt Hill
#
# Bulk Modulus (GPa) = 21.43639 25.18348 23.30994
# Shear Modulus (GPa) = 32.54237 5.79289 19.16763
#
# Velocity S-wave (km/s) = 3.72349 1.57099 2.85765
# Velocity P-wave (km/s) = 5.25533 3.74431 4.56280
#
# Compressibility (1/GPa) = 0.04664964
#
# Stress axis : x y z
#
# Youngs Moduli (GPa) = 94.38568 37.06705 79.34606
#
# Poissons Ratio (x) = 0.09494 0.00116
# Poissons Ratio (y) = 0.24174 -0.06448
# Poissons Ratio (z) = 0.00138 -0.03012
#
# Static dielectric constant tensor:
#      x y z
#    x 2.059730 0.000000 0.000000 
#    y 0.000000 1.854510 0.000000 
#    z 0.000000 0.000000 2.003450 
# 
# From -- ./inp_files/62376.got.cif
#   From: 2010.05.17/outbox.cif.g08.bks.cpg/sg70_32_cif.got.tgz:62376.got - 2010.06.03 15:57:51.
