data_PCOD9514982
_publ_section_title
;
Structure prediction by ZEFSAII (Michael W. Deem and Ramdas Pophale) SiO2 
 PCOD9514982
Probable space group: F D D D
;
_chemical_formula_sum "Si O2"
_cell_formula_units_Z 216
_cell_length_a 18.131039
_cell_length_b 27.280393
_cell_length_c 23.207349
_cell_angle_alpha 90.000000
_cell_angle_beta 90.000000
_cell_angle_gamma 90.000000
_cell_volume 11478.862347
_symmetry_space_group_name_H-M "F D D D"
_symmetry_group_IT_number 70
_space_group.IT_coordinate_system_code '2'
_symmetry_cell_setting 'orthorhombic'
loop_
_space_group_symop_operation_xyz
x,y,z
1/4-x,1/4-y,z
x,1/4-y,1/4-z
1/4-x,y,1/4-z
-x,-y,-z
3/4+x,3/4+y,-z
-x,3/4+y,3/4+z
3/4+x,-y,3/4+z
x,1/2+y,1/2+z
1/4-x,3/4-y,1/2+z
x,3/4-y,3/4-z
1/4-x,1/2+y,3/4-z
-x,1/2-y,1/2-z
3/4+x,1/4+y,1/2-z
-x,1/4+y,1/4+z
3/4+x,1/2-y,1/4+z
1/2+x,y,1/2+z
3/4-x,1/4-y,1/2+z
1/2+x,1/4-y,3/4-z
3/4-x,y,3/4-z
1/2-x,-y,1/2-z
1/4+x,3/4+y,1/2-z
1/2-x,3/4+y,1/4+z
1/4+x,-y,1/4+z
1/2+x,1/2+y,z
3/4-x,3/4-y,z
1/2+x,3/4-y,1/4-z
3/4-x,1/2+y,1/4-z
1/2-x,1/2-y,-z
1/4+x,1/4+y,-z
1/2-x,1/4+y,3/4+z
1/4+x,1/2-y,3/4+z
loop_
_atom_site_type_symbol
_atom_site_label
_atom_site_fract_x
_atom_site_fract_y
_atom_site_fract_z
Si Si1 0.938396 0.916540 0.162609
Si Si2 0.390441 0.125000 0.125000
Si Si3 0.535750 0.623649 0.950183
Si Si4 0.211678 0.726052 0.761749
Si Si5 0.797230 0.026346 0.605996
Si Si6 0.502859 0.168875 0.042562
Si Si7 0.625000 0.125000 0.125000
Si Si8 0.795498 0.959636 0.783957
O O1 0.875000 0.875000 0.166390
O O2 0.989759 0.901711 0.108494
O O3 0.976795 0.914586 0.224994
O O4 0.914864 0.971948 0.142584
O O5 0.345357 0.074654 0.117368
O O6 0.441720 0.132556 0.068632
O O7 0.625000 0.625000 0.948720
O O8 0.514505 0.679667 0.951105
O O9 0.519350 0.592712 0.007725
O O10 0.265509 0.724406 0.707692
O O11 0.220221 0.776298 0.796118
O O12 0.130107 0.717937 0.734688
O O13 0.728712 0.032170 0.650518
O O14 0.573742 0.092042 0.167091
O O15 0.750000 0.000000 0.750000
#
# Coordination Sequence:
#
# PCOD9514982 Si02
#       8
#    32  16  32  32  32  32   8  32
#     4  10  20  38  62  85 115 159 201 245 309 375
#     4  11  24  39  61  92 121 158 204 262 307 362
#     4   9  19  33  55  84 116 155 195 236 299 361
#     4  10  22  37  58  90 121 161 204 249 300 366
#     4  11  22  38  60  86 124 164 200 249 300 367
#     4  10  22  40  64  86 120 153 210 258 315 373
#     4  10  20  44  64  88 110 168 198 266 326 366
#     4  11  19  34  58  88 122 160 197 243 295 360
#
# _framework density 18.817195000000002
#
# number of rings (size 3 to 8) (size 9 to 14) (size 15 to 20)
#    0.000    1.778    2.222    2.222    4.148    0.000 
#    0.000    6.667    0.000    0.000    0.000    0.000 
#    0.000    0.000    0.000    0.000    0.000    0.000 
#
# Total GULP energy -300607.414595 kJ/mol
# GULP energy per Si atom -5566.803974 kJ/mol
# Density = 1.877437 g / cm^3
# Si number density = 18.817195 Si / 1000 Ang^3
#
#
#
# Elastic Constant Matrix: (Units=GPa)
#
#
# Indices 1 2 3 4 5 6 
#
# 1 53.4563 42.1218 11.7057 0.0000 0.0000 0.0000
# 2 42.1218 150.8412 44.3190 0.0000 0.0000 0.0000
# 3 11.7057 44.3190 91.3270 0.0000 0.0000 0.0000
# 4 0.0000 0.0000 0.0000 33.2128 0.0000 0.0000
# 5 0.0000 0.0000 0.0000 0.0000 7.2631 0.0000
# 6 0.0000 0.0000 0.0000 0.0000 0.0000 26.2598
#
#
#
# Elastic Compliance Matrix: (Units=1/GPa)
#
#
# Indices 1 2 3 4 5 6 
#
# 1 0.023988 -0.006759 0.000205 0.000000 0.000000 0.000000
# 2 -0.006759 0.009636 -0.003810 0.000000 0.000000 0.000000
# 3 0.000205 -0.003810 0.012772 0.000000 0.000000 0.000000
# 4 0.000000 0.000000 0.000000 0.030109 0.000000 0.000000
# 5 0.000000 0.000000 0.000000 0.000000 0.137682 0.000000
# 6 0.000000 0.000000 0.000000 0.000000 0.000000 0.038081
#
#
# Mechanical properties :
#
#
# Convention : Reuss Voigt Hill
#
# Bulk Modulus (GPa) = 38.95715 54.65750 46.80733
# Shear Modulus (GPa) = 17.75874 26.51236 22.13555
#
# Velocity S-wave (km/s) = 3.07539 3.75766 3.43351
# Velocity P-wave (km/s) = 5.77569 6.92361 6.37553
#
# Compressibility (1/GPa) = 0.02566923
#
# Stress axis : x y z
#
# Youngs Moduli (GPa) = 41.68827 103.77466 78.29475
#
# Poissons Ratio (x) = 0.70139 -0.01607
# Poissons Ratio (y) = 0.28176 0.29830
# Poissons Ratio (z) = -0.00856 0.39538
#
# Static dielectric constant tensor:
#      x y z
#    x 1.641400 0.000000 0.000000 
#    y 0.000000 1.696810 0.000000 
#    z 0.000000 0.000000 1.790640 
# 
# From -- ./inp_files/53094.got.cif
#   From: 2010.05.17/outbox.cif.g08.bks.cpg/sg70_27_cif.got.tgz:53094.got - 2010.06.03 15:57:51.
