data_PCOD9514187
_publ_section_title
;
Structure prediction by ZEFSAII (Michael W. Deem and Ramdas Pophale) SiO2 
 PCOD9514187
Probable space group: F D D D
;
_chemical_formula_sum "Si O2"
_cell_formula_units_Z 160
_cell_length_a 24.540082
_cell_length_b 29.967498
_cell_length_c 11.009326
_cell_angle_alpha 90.000000
_cell_angle_beta 90.000000
_cell_angle_gamma 90.000000
_cell_volume 8096.311827
_symmetry_space_group_name_H-M "F D D D"
_symmetry_group_IT_number 70
_space_group.IT_coordinate_system_code '2'
_symmetry_cell_setting 'orthorhombic'
loop_
_space_group_symop_operation_xyz
x,y,z
1/4-x,1/4-y,z
x,1/4-y,1/4-z
1/4-x,y,1/4-z
-x,-y,-z
3/4+x,3/4+y,-z
-x,3/4+y,3/4+z
3/4+x,-y,3/4+z
x,1/2+y,1/2+z
1/4-x,3/4-y,1/2+z
x,3/4-y,3/4-z
1/4-x,1/2+y,3/4-z
-x,1/2-y,1/2-z
3/4+x,1/4+y,1/2-z
-x,1/4+y,1/4+z
3/4+x,1/2-y,1/4+z
1/2+x,y,1/2+z
3/4-x,1/4-y,1/2+z
1/2+x,1/4-y,3/4-z
3/4-x,y,3/4-z
1/2-x,-y,1/2-z
1/4+x,3/4+y,1/2-z
1/2-x,3/4+y,1/4+z
1/4+x,-y,1/4+z
1/2+x,1/2+y,z
3/4-x,3/4-y,z
1/2+x,3/4-y,1/4-z
3/4-x,1/2+y,1/4-z
1/2-x,1/2-y,-z
1/4+x,1/4+y,-z
1/2-x,1/4+y,3/4+z
1/4+x,1/2-y,3/4+z
loop_
_atom_site_type_symbol
_atom_site_label
_atom_site_fract_x
_atom_site_fract_y
_atom_site_fract_z
Si Si1 0.852027 0.324473 0.750082
Si Si2 0.254346 0.194314 0.141177
Si Si3 0.497446 0.049592 0.366504
Si Si4 0.652247 0.375000 0.375000
Si Si5 0.375000 0.584059 0.875000
Si Si6 0.395609 0.926083 0.249020
O O1 0.875000 0.375000 0.749605
O O2 0.786766 0.323829 0.730445
O O3 0.875887 0.302691 0.626674
O O4 0.875000 0.304156 0.875000
O O5 0.259147 0.247294 0.150094
O O6 0.309426 0.167199 0.155381
O O7 0.210305 0.177071 0.236638
O O8 0.234899 0.185425 0.002263
O O9 0.432345 0.057376 0.368184
O O10 0.623263 0.387633 0.249628
O O11 0.375000 0.947968 0.375000
O O12 0.375000 0.875000 0.249859
#
# Coordination Sequence:
#
# PCOD9514187 Si02
#       6
#    32  32  32  16  16  32
#     4  10  22  38  60  91 125 159 198 252 306 362
#     4  10  21  36  63  89 120 154 208 263 294 357
#     4  10  22  40  59  93 125 159 203 256 314 360
#     4  10  22  42  61  90 117 170 202 250 306 372
#     4  10  24  40  66  85 128 168 205 250 312 382
#     4  10  18  30  59  90 106 146 199 250 286 342
#
# _framework density 19.762084999999999
#
# number of rings (size 3 to 8) (size 9 to 14) (size 15 to 20)
#    0.000    2.000    2.000    1.200    9.800    3.200 
#    1.800    1.000    0.000    0.000    0.000    0.000 
#    0.000    0.000    0.000    0.000    0.000    0.000 
#
# Total GULP energy -222888.872046 kJ/mol
# GULP energy per Si atom -5572.221801 kJ/mol
# Density = 1.971711 g / cm^3
# Si number density = 19.762085 Si / 1000 Ang^3
#
#
#
# Elastic Constant Matrix: (Units=GPa)
#
#
# Indices 1 2 3 4 5 6 
#
# 1 102.0309 26.8631 43.0773 -0.0001 0.0001 -0.0003
# 2 26.8631 72.5350 9.2203 -0.0002 0.0001 -0.0002
# 3 43.0773 9.2203 136.2758 -0.0009 0.0005 -0.0005
# 4 -0.0001 -0.0002 -0.0009 4.2297 0.0003 -0.0005
# 5 0.0001 0.0001 0.0005 0.0003 17.5362 0.0003
# 6 -0.0003 -0.0002 -0.0005 -0.0005 0.0003 -128.5924
#
#
#
# Elastic Compliance Matrix: (Units=1/GPa)
#
#
# Indices 1 2 3 4 5 6 
#
# 1 0.012432 -0.004140 -0.003650 -0.000001 0.000000 0.000000
# 2 -0.004140 0.015285 0.000275 0.000001 0.000000 0.000000
# 3 -0.003650 0.000275 0.008473 0.000002 0.000000 0.000000
# 4 -0.000001 0.000001 0.000002 0.236425 -0.000004 -0.000001
# 5 0.000000 0.000000 0.000000 -0.000004 0.057025 0.000000
# 6 0.000000 0.000000 0.000000 -0.000001 0.000000 -0.007777
#
#
# Mechanical properties :
#
#
# Convention : Reuss Voigt Hill
#
# Bulk Modulus (GPa) = 47.26040 52.12923 49.69481
# Shear Modulus (GPa) = 14.53712 -5.91990 4.30861
#
# Velocity S-wave (km/s) = 2.71515 -1.73265 1.47817
# Velocity P-wave (km/s) = 5.81343 4.73634 5.30230
#
# Compressibility (1/GPa) = 0.02115936
#
# Stress axis : x y z
#
# Youngs Moduli (GPa) = 80.43842 65.42423 118.01996
#
# Poissons Ratio (x) = 0.27087 0.43073
# Poissons Ratio (y) = 0.33303 -0.03240
# Poissons Ratio (z) = 0.29357 -0.01796
#
# Static dielectric constant tensor:
#      x y z
#    x 1.760500 0.000000 0.000000 
#    y 0.000000 1.753520 0.000000 
#    z 0.000000 0.000000 1.768920 
# 
# From -- ./inp_files/19553.got.cif
#   From: 2010.05.17/outbox.cif.g08.bks.cpg/sg70_10_cif.got.tgz:19553.got - 2010.06.03 15:57:51.
