data_PCOD9514420
_publ_section_title
;
Structure prediction by ZEFSAII (Michael W. Deem and Ramdas Pophale) SiO2 
 PCOD9514420
Probable space group: F D D D
;
_chemical_formula_sum "Si O2"
_cell_formula_units_Z 232
_cell_length_a 16.788035
_cell_length_b 30.529374
_cell_length_c 22.693457
_cell_angle_alpha 90.000000
_cell_angle_beta 90.000000
_cell_angle_gamma 90.000000
_cell_volume 11631.036651
_symmetry_space_group_name_H-M "F D D D"
_symmetry_group_IT_number 70
_space_group.IT_coordinate_system_code '2'
_symmetry_cell_setting 'orthorhombic'
loop_
_space_group_symop_operation_xyz
x,y,z
1/4-x,1/4-y,z
x,1/4-y,1/4-z
1/4-x,y,1/4-z
-x,-y,-z
3/4+x,3/4+y,-z
-x,3/4+y,3/4+z
3/4+x,-y,3/4+z
x,1/2+y,1/2+z
1/4-x,3/4-y,1/2+z
x,3/4-y,3/4-z
1/4-x,1/2+y,3/4-z
-x,1/2-y,1/2-z
3/4+x,1/4+y,1/2-z
-x,1/4+y,1/4+z
3/4+x,1/2-y,1/4+z
1/2+x,y,1/2+z
3/4-x,1/4-y,1/2+z
1/2+x,1/4-y,3/4-z
3/4-x,y,3/4-z
1/2-x,-y,1/2-z
1/4+x,3/4+y,1/2-z
1/2-x,3/4+y,1/4+z
1/4+x,-y,1/4+z
1/2+x,1/2+y,z
3/4-x,3/4-y,z
1/2+x,3/4-y,1/4-z
3/4-x,1/2+y,1/4-z
1/2-x,1/2-y,-z
1/4+x,1/4+y,-z
1/2-x,1/4+y,3/4+z
1/4+x,1/2-y,3/4+z
loop_
_atom_site_type_symbol
_atom_site_label
_atom_site_fract_x
_atom_site_fract_y
_atom_site_fract_z
Si Si1 0.581028 0.359926 0.935529
Si Si2 0.513163 0.419571 0.296250
Si Si3 0.782969 0.389192 0.077766
Si Si4 0.999434 0.043941 0.444115
Si Si5 0.620088 0.768042 0.783611
Si Si6 0.991259 0.514629 0.823297
Si Si7 0.625000 0.125000 0.125000
Si Si8 0.536390 0.136223 0.455625
O O1 0.541407 0.375000 0.875000
O O2 0.664626 0.385954 0.941652
O O3 0.594157 0.307621 0.930087
O O4 0.528777 0.368743 0.993509
O O5 0.493666 0.419722 0.226043
O O6 0.536497 0.468580 0.316497
O O7 0.434774 0.403276 0.332880
O O8 0.875000 0.375000 0.069825
O O9 0.734850 0.344461 0.066565
O O10 0.771577 0.394771 0.148070
O O11 0.961266 0.017660 0.390231
O O12 0.963397 0.036466 0.508220
O O13 0.091366 0.027799 0.439910
O O14 0.674844 0.761892 0.726965
O O15 0.033296 0.562065 0.813459
O O16 0.625000 0.125000 0.476739
#
# Coordination Sequence:
#
# PCOD9514420 Si02
#       8
#    32  32  32  32  32  32   8  32
#     4  11  22  38  59  87 121 157 203 263 315 376
#     4  12  23  37  55  93 136 172 199 238 304 379
#     4  10  19  35  57  82 118 162 203 247 299 369
#     4  10  19  31  52  77 115 160 199 235 280 356
#     4  10  20  32  52  79 115 157 199 232 288 357
#     4  10  22  35  58  86 119 152 203 255 297 367
#     4  12  28  32  56  88 146 184 194 212 296 396
#     4   9  22  44  66  87 108 156 220 273 328 366
#
# _framework density 19.946631
#
# number of rings (size 3 to 8) (size 9 to 14) (size 15 to 20)
#    0.000    1.655    2.759    2.069    1.931    0.828 
#    0.000    0.690    0.000    3.310    0.000    0.000 
#    0.000    0.000    0.000    0.000    0.000    0.000 
#
# Total GULP energy -322995.681745 kJ/mol
# GULP energy per Si atom -5568.891065 kJ/mol
# Density = 1.990123 g / cm^3
# Si number density = 19.946631 Si / 1000 Ang^3
#
#
#
# Elastic Constant Matrix: (Units=GPa)
#
#
# Indices 1 2 3 4 5 6 
#
# 1 59.0566 14.5569 25.6709 0.0000 0.0000 0.0000
# 2 14.5569 70.3312 31.6301 0.0000 0.0000 0.0000
# 3 25.6709 31.6301 109.1997 0.0000 0.0000 0.0000
# 4 0.0000 0.0000 0.0000 28.5602 0.0000 0.0000
# 5 0.0000 0.0000 0.0000 0.0000 35.6987 0.0000
# 6 0.0000 0.0000 0.0000 0.0000 0.0000 11.6650
#
#
#
# Elastic Compliance Matrix: (Units=1/GPa)
#
#
# Indices 1 2 3 4 5 6 
#
# 1 0.019160 -0.002231 -0.003858 0.000000 0.000000 0.000000
# 2 -0.002231 0.016608 -0.004286 0.000000 0.000000 0.000000
# 3 -0.003858 -0.004286 0.011306 0.000000 0.000000 0.000000
# 4 0.000000 0.000000 0.000000 0.035014 0.000000 0.000000
# 5 0.000000 0.000000 0.000000 0.000000 0.028012 0.000000
# 6 0.000000 0.000000 0.000000 0.000000 0.000000 0.085727
#
#
# Mechanical properties :
#
#
# Convention : Reuss Voigt Hill
#
# Bulk Modulus (GPa) = 37.98808 42.47813 40.23311
# Shear Modulus (GPa) = 22.18770 26.30010 24.24390
#
# Velocity S-wave (km/s) = 3.33881 3.63509 3.49010
# Velocity P-wave (km/s) = 5.82664 6.24184 6.03781
#
# Compressibility (1/GPa) = 0.02632404
#
# Stress axis : x y z
#
# Youngs Moduli (GPa) = 52.19286 60.21304 88.44878
#
# Poissons Ratio (x) = 0.13431 0.34124
# Poissons Ratio (y) = 0.11642 0.37910
# Poissons Ratio (z) = 0.20136 0.25808
#
# Static dielectric constant tensor:
#      x y z
#    x 1.735160 0.000000 0.000000 
#    y 0.000000 1.805020 0.000000 
#    z 0.000000 0.000000 1.768480 
# 
# From -- ./inp_files/37878.got.cif
#   From: 2010.05.17/outbox.cif.g08.bks.cpg/sg70_19_cif.got.tgz:37878.got - 2010.06.03 15:57:51.
