data_PCOD9514241
_publ_section_title
;
Structure prediction by ZEFSAII (Michael W. Deem and Ramdas Pophale) SiO2 
 PCOD9514241
Probable space group: F D D D
;
_chemical_formula_sum "Si O2"
_cell_formula_units_Z 160
_cell_length_a 27.379113
_cell_length_b 31.617903
_cell_length_c 8.316517
_cell_angle_alpha 90.000000
_cell_angle_beta 90.000000
_cell_angle_gamma 90.000000
_cell_volume 7199.360428
_symmetry_space_group_name_H-M "F D D D"
_symmetry_group_IT_number 70
_space_group.IT_coordinate_system_code '2'
_symmetry_cell_setting 'orthorhombic'
loop_
_space_group_symop_operation_xyz
x,y,z
1/4-x,1/4-y,z
x,1/4-y,1/4-z
1/4-x,y,1/4-z
-x,-y,-z
3/4+x,3/4+y,-z
-x,3/4+y,3/4+z
3/4+x,-y,3/4+z
x,1/2+y,1/2+z
1/4-x,3/4-y,1/2+z
x,3/4-y,3/4-z
1/4-x,1/2+y,3/4-z
-x,1/2-y,1/2-z
3/4+x,1/4+y,1/2-z
-x,1/4+y,1/4+z
3/4+x,1/2-y,1/4+z
1/2+x,y,1/2+z
3/4-x,1/4-y,1/2+z
1/2+x,1/4-y,3/4-z
3/4-x,y,3/4-z
1/2-x,-y,1/2-z
1/4+x,3/4+y,1/2-z
1/2-x,3/4+y,1/4+z
1/4+x,-y,1/4+z
1/2+x,1/2+y,z
3/4-x,3/4-y,z
1/2+x,3/4-y,1/4-z
3/4-x,1/2+y,1/4-z
1/2-x,1/2-y,-z
1/4+x,1/4+y,-z
1/2-x,1/4+y,3/4+z
1/4+x,1/2-y,3/4+z
loop_
_atom_site_type_symbol
_atom_site_label
_atom_site_fract_x
_atom_site_fract_y
_atom_site_fract_z
Si Si1 0.803798 0.210744 0.308167
Si Si2 0.173369 0.542120 0.383542
Si Si3 0.604152 0.425342 0.879157
Si Si4 0.625000 0.982488 0.125000
Si Si5 0.216692 0.667714 0.173226
Si Si6 0.875000 0.875000 0.610686
O O1 0.808500 0.260344 0.268941
O O2 0.823610 0.196623 0.478975
O O3 0.839627 0.187012 0.178734
O O4 0.748667 0.195915 0.288479
O O5 0.137714 0.513676 0.271494
O O6 0.209766 0.556962 0.242380
O O7 0.151319 0.586060 0.447404
O O8 0.598091 0.375000 0.875000
O O9 0.589725 0.448751 0.713445
O O10 0.244400 0.625000 0.125000
O O11 0.166725 0.650093 0.256044
#
# Coordination Sequence:
#
# PCOD9514241 Si02
#       6
#    32  32  32  16  32  16
#     4  10  21  34  58  93 130 153 221 285 337 398
#     4  10  18  34  59  93 120 170 217 273 326 403
#     4  10  21  38  57  85 125 174 206 274 345 410
#     4  10  18  33  62  78 114 164 220 257 334 396
#     4  10  18  33  59  95 125 172 226 273 328 417
#     4  10  19  36  66  93 129 179 232 265 334 415
#
# _framework density 22.224198000000001
#
# number of rings (size 3 to 8) (size 9 to 14) (size 15 to 20)
#    0.000    2.000    2.000    4.500    0.000    1.600 
#    0.000    1.000    0.000   10.800    0.000    0.000 
#    0.000    0.000    0.000    0.000    0.000    0.000 
#
# Total GULP energy -222757.155479 kJ/mol
# GULP energy per Si atom -5568.928887 kJ/mol
# Density = 2.217361 g / cm^3
# Si number density = 22.224198 Si / 1000 Ang^3
#
#
#
# Elastic Constant Matrix: (Units=GPa)
#
#
# Indices 1 2 3 4 5 6 
#
# 1 72.4284 46.9898 23.7459 -0.0014 -0.0109 -0.0061
# 2 46.9898 211.1255 56.0740 -0.0059 -0.0003 -0.0014
# 3 23.7459 56.0740 68.0388 0.0007 -0.0185 -0.0143
# 4 -0.0014 -0.0059 0.0007 19.4563 0.0032 -0.0011
# 5 -0.0109 -0.0003 -0.0185 0.0032 12.0116 0.0091
# 6 -0.0061 -0.0014 -0.0143 -0.0011 0.0091 16.6872
#
#
#
# Elastic Compliance Matrix: (Units=1/GPa)
#
#
# Indices 1 2 3 4 5 6 
#
# 1 0.016784 -0.002791 -0.003558 0.000001 0.000010 0.000003
# 2 -0.002791 0.006528 -0.004406 0.000002 -0.000009 -0.000004
# 3 -0.003558 -0.004406 0.019570 -0.000002 0.000027 0.000015
# 4 0.000001 0.000002 -0.000002 0.051397 -0.000014 0.000004
# 5 0.000010 -0.000009 0.000027 -0.000014 0.083253 -0.000046
# 6 0.000003 -0.000004 0.000015 0.000004 -0.000046 0.059926
#
#
# Mechanical properties :
#
#
# Convention : Reuss Voigt Hill
#
# Bulk Modulus (GPa) = 46.78746 67.24581 57.01663
# Shear Modulus (GPa) = 18.79054 24.61654 21.70354
#
# Velocity S-wave (km/s) = 2.91090 3.33174 3.12841
# Velocity P-wave (km/s) = 5.69175 6.71746 6.22576
#
# Compressibility (1/GPa) = 0.02137325
#
# Stress axis : x y z
#
# Youngs Moduli (GPa) = 59.58194 153.19053 51.09777
#
# Poissons Ratio (x) = 0.42749 0.18179
# Poissons Ratio (y) = 0.16627 0.22513
# Poissons Ratio (z) = 0.21197 0.67495
#
# Static dielectric constant tensor:
#      x y z
#    x 1.877320 0.000000 0.000010 
#    y 0.000000 1.868550 0.000000 
#    z 0.000010 0.000000 1.843080 
# 
# From -- ./inp_files/12382.got.cif
#   From: 2010.05.17/outbox.cif.g08.bks.cpg/sg70_7_cif.got.tgz:12382.got - 2010.06.03 15:57:51.
