data_PCOD9514008
_publ_section_title
;
Structure prediction by ZEFSAII (Michael W. Deem and Ramdas Pophale) SiO2 
 PCOD9514008
Probable space group: F M M M
;
_chemical_formula_sum "Si O2"
_cell_formula_units_Z 52
_cell_length_a 21.000000
_cell_length_b 18.000000
_cell_length_c 27.000000
_cell_angle_alpha 90.000000
_cell_angle_beta 90.000000
_cell_angle_gamma 90.000000
_cell_volume 10206.000000
_symmetry_space_group_name_H-M "F M M M"
_symmetry_group_IT_number 69
_symmetry_cell_setting 'orthorhombic'
loop_
_space_group_symop_operation_xyz
x,y,z
-x,-y,z
x,-y,-z
-x,y,-z
-x,-y,-z
x,y,-z
-x,y,z
x,-y,z
x,1/2+y,1/2+z
-x,1/2-y,1/2+z
x,1/2-y,1/2-z
-x,1/2+y,1/2-z
-x,1/2-y,1/2-z
x,1/2+y,1/2-z
-x,1/2+y,1/2+z
x,1/2-y,1/2+z
1/2+x,y,1/2+z
1/2-x,-y,1/2+z
1/2+x,-y,1/2-z
1/2-x,y,1/2-z
1/2-x,-y,1/2-z
1/2+x,y,1/2-z
1/2-x,y,1/2+z
1/2+x,-y,1/2+z
1/2+x,1/2+y,z
1/2-x,1/2-y,z
1/2+x,1/2-y,-z
1/2-x,1/2+y,-z
1/2-x,1/2-y,-z
1/2+x,1/2+y,-z
1/2-x,1/2+y,z
1/2+x,1/2-y,z
loop_
_atom_site_type_symbol
_atom_site_label
_atom_site_fract_x
_atom_site_fract_y
_atom_site_fract_z
Si Si1 0.072868 0.339360 0.082162
Si Si2 0.926729 0.840010 0.793839
Si Si3 0.113555 0.679110 0.811976
Si Si4 0.854452 0.582223 0.374594
Si Si5 0.319365 0.280195 0.942350
Si Si6 0.730094 0.417150 0.693387
Si Si7 0.071920 0.500000 0.941226
O O1 0.069708 0.330887 0.140922
O O2 0.124122 0.280344 0.063011
O O3 0.100579 0.421583 0.073038
O O4 0.000000 0.333399 0.061862
O O5 0.884113 0.767111 0.803195
O O6 0.911206 0.861404 0.737508
O O7 0.910744 0.898159 0.836244
O O8 0.000000 0.816809 0.796078
O O9 0.181494 0.644833 0.823733
O O10 0.862740 0.500000 0.396206
O O11 0.843263 0.647480 0.413345
O O12 0.792178 0.582152 0.340011
O O13 0.250000 0.250000 0.924556
O O14 0.311057 0.298278 0.000000
O O15 0.700667 0.500000 0.691292
O O16 0.750000 0.402996 0.750000
O O17 0.000000 0.500000 0.919803
O O18 0.067578 0.500000 0.000000
#
# Coordination Sequence:
#
# PCOD9514008 Si02
#       7
#    32  32  32  32  32  32  16
#     4  11  22  40  67  98 133 172 213 266 331 396
#     4  11  23  39  58  89 130 171 212 258 315 379
#     4  11  21  36  62  90 129 165 212 265 315 377
#     4  11  24  43  65  91 128 171 215 266 320 384
#     4  11  25  46  70  98 128 165 220 279 335 394
#     4  10  21  38  59  89 126 167 214 255 309 386
#     4   9  20  38  60  92 129 166 211 259 323 400
#
# _framework density 5.0950420000000003
#
# number of rings (size 3 to 8) (size 9 to 14) (size 15 to 20)
#    0.000    1.308    3.077    3.231    1.077    1.538 
#    1.385    0.000    0.000    0.000    0.000    2.154 
#    0.000    0.000    0.000    0.000    0.000    0.000 
#
# Total GULP energy -290159.225073 kJ/mol
# GULP energy per Si atom -5579.985098 kJ/mol
# Density = 0.508345 g / cm^3
# Si number density = 5.095042 Si / 1000 Ang^3
#
#
#
# Elastic Constant Matrix: (Units=GPa)
#
#
# Indices 1 2 3 4 5 6 
#
# 1 59.0628 17.1050 -5.2003 0.0000 0.0000 0.0000
# 2 17.1050 98.2663 24.8096 0.0000 0.0000 0.0000
# 3 -5.2003 24.8096 78.9934 0.0000 0.0000 0.0000
# 4 0.0000 0.0000 0.0000 -13.8145 0.0000 0.0000
# 5 0.0000 0.0000 0.0000 0.0000 25.5185 0.0000
# 6 0.0000 0.0000 0.0000 0.0000 0.0000 -10.5745
#
#
#
# Elastic Compliance Matrix: (Units=1/GPa)
#
#
# Indices 1 2 3 4 5 6 
#
# 1 0.018235 -0.003777 0.002387 0.000000 0.000000 0.000000
# 2 -0.003777 0.011835 -0.003966 0.000000 0.000000 0.000000
# 3 0.002387 -0.003966 0.014062 0.000000 0.000000 0.000000
# 4 0.000000 0.000000 0.000000 -0.072387 0.000000 0.000000
# 5 0.000000 0.000000 0.000000 0.000000 0.039187 0.000000
# 6 0.000000 0.000000 0.000000 0.000000 0.000000 -0.094568
#
#
# Mechanical properties :
#
#
# Convention : Reuss Voigt Hill
#
# Bulk Modulus (GPa) = 29.92180 34.41678 32.16929
# Shear Modulus (GPa) = -80.92685 13.53313 -33.69686
#
# Velocity S-wave (km/s) = -6.30831 2.57968 -4.07063
# Velocity P-wave (km/s) = 6.19242 5.07908 2.50490
#
# Compressibility (1/GPa) = 0.03342045
#
# Stress axis : x y z
#
# Youngs Moduli (GPa) = 54.83957 84.49471 71.11409
#
# Poissons Ratio (x) = 0.31911 -0.16972
# Poissons Ratio (y) = 0.20711 0.28202
# Poissons Ratio (z) = -0.13088 0.33508
#
# Static dielectric constant tensor:
#      x y z
#    x 1.728020 0.000000 0.000000 
#    y 0.000000 1.654280 0.000000 
#    z 0.000000 0.000000 1.718450 
# 
# From -- ./inp_files/42723.got.cif
#   From: 2010.05.17/outbox.ucp.g08.bks.cvg/sg69_22_cif.got.tgz:42723.got - 2010.06.11 16:51:34.
