data_PCOD9514260
_publ_section_title
;
Structure prediction by ZEFSAII (Michael W. Deem and Ramdas Pophale) SiO2 
 PCOD9514260
Probable space group: F D D D
;
_chemical_formula_sum "Si O2"
_cell_formula_units_Z 160
_cell_length_a 31.178582
_cell_length_b 12.121999
_cell_length_c 22.199590
_cell_angle_alpha 90.000000
_cell_angle_beta 90.000000
_cell_angle_gamma 90.000000
_cell_volume 8390.262666
_symmetry_space_group_name_H-M "F D D D"
_symmetry_group_IT_number 70
_space_group.IT_coordinate_system_code '2'
_symmetry_cell_setting 'orthorhombic'
loop_
_space_group_symop_operation_xyz
x,y,z
1/4-x,1/4-y,z
x,1/4-y,1/4-z
1/4-x,y,1/4-z
-x,-y,-z
3/4+x,3/4+y,-z
-x,3/4+y,3/4+z
3/4+x,-y,3/4+z
x,1/2+y,1/2+z
1/4-x,3/4-y,1/2+z
x,3/4-y,3/4-z
1/4-x,1/2+y,3/4-z
-x,1/2-y,1/2-z
3/4+x,1/4+y,1/2-z
-x,1/4+y,1/4+z
3/4+x,1/2-y,1/4+z
1/2+x,y,1/2+z
3/4-x,1/4-y,1/2+z
1/2+x,1/4-y,3/4-z
3/4-x,y,3/4-z
1/2-x,-y,1/2-z
1/4+x,3/4+y,1/2-z
1/2-x,3/4+y,1/4+z
1/4+x,-y,1/4+z
1/2+x,1/2+y,z
3/4-x,3/4-y,z
1/2+x,3/4-y,1/4-z
3/4-x,1/2+y,1/4-z
1/2-x,1/2-y,-z
1/4+x,1/4+y,-z
1/2-x,1/4+y,3/4+z
1/4+x,1/2-y,3/4+z
loop_
_atom_site_type_symbol
_atom_site_label
_atom_site_fract_x
_atom_site_fract_y
_atom_site_fract_z
Si Si1 0.281226 0.505791 0.366288
Si Si2 0.685894 0.556391 0.892466
Si Si3 0.338972 0.537894 0.468812
Si Si4 0.182522 0.203156 0.500039
Si Si5 0.601428 0.792797 0.320519
O O1 0.286596 0.375000 0.375000
O O2 0.236548 0.539240 0.396777
O O3 0.319717 0.560643 0.403268
O O4 0.284236 0.517399 0.293861
O O5 0.678529 0.530013 0.821449
O O6 0.652764 0.480652 0.929545
O O7 0.671815 0.678857 0.912075
O O8 0.313277 0.430033 0.493725
O O9 0.387456 0.493559 0.471609
O O10 0.336582 0.644975 0.510730
O O11 0.592790 0.875000 0.375000
#
# Coordination Sequence:
#
# PCOD9514260 Si02
#       5
#    32  32  32  32  32
#     4  10  22  34  52  85 117 141 184 243 297 340
#     4  11  21  34  56  84 108 146 195 239 279 346
#     4  10  19  35  56  79 113 150 181 227 291 355
#     4  10  18  34  58  81 110 145 185 236 298 343
#     4  11  19  35  56  77 109 150 187 230 285 345
#
# _framework density 19.069724000000001
#
# number of rings (size 3 to 8) (size 9 to 14) (size 15 to 20)
#    0.000    1.600    4.000    3.000    0.000    3.200 
#    0.000    0.000    0.000    0.000    0.000    5.600 
#    0.000    0.000    0.000    0.000    0.000    0.000 
#
# Total GULP energy -222815.844858 kJ/mol
# GULP energy per Si atom -5570.396121 kJ/mol
# Density = 1.902632 g / cm^3
# Si number density = 19.069724 Si / 1000 Ang^3
#
#
#
# Elastic Constant Matrix: (Units=GPa)
#
#
# Indices 1 2 3 4 5 6 
#
# 1 70.3042 17.8260 51.0757 0.0000 0.0000 0.0000
# 2 17.8260 90.9469 52.2818 0.0000 0.0000 0.0000
# 3 51.0757 52.2818 73.2401 0.0000 0.0000 0.0000
# 4 0.0000 0.0000 0.0000 3.4275 0.0000 0.0000
# 5 0.0000 0.0000 0.0000 0.0000 31.5561 0.0000
# 6 0.0000 0.0000 0.0000 0.0000 0.0000 10.0586
#
#
#
# Elastic Compliance Matrix: (Units=1/GPa)
#
#
# Indices 1 2 3 4 5 6 
#
# 1 0.035448 0.012317 -0.033513 0.000000 0.000000 0.000000
# 2 0.012317 0.022928 -0.024957 0.000000 0.000000 0.000000
# 3 -0.033513 -0.024957 0.054840 0.000000 0.000000 0.000000
# 4 0.000000 0.000000 0.000000 0.291758 0.000000 0.000000
# 5 0.000000 0.000000 0.000000 0.000000 0.031690 0.000000
# 6 0.000000 0.000000 0.000000 0.000000 0.000000 0.099417
#
#
# Mechanical properties :
#
#
# Convention : Reuss Voigt Hill
#
# Bulk Modulus (GPa) = 47.82178 52.98426 50.40302
# Shear Modulus (GPa) = 7.86961 16.56228 12.21595
#
# Velocity S-wave (km/s) = 2.03365 2.95025 2.53374
# Velocity P-wave (km/s) = 5.53589 6.28093 5.92014
#
# Compressibility (1/GPa) = 0.02091097
#
# Stress axis : x y z
#
# Youngs Moduli (GPa) = 28.21040 43.61540 18.23491
#
# Poissons Ratio (x) = -0.53723 0.61111
# Poissons Ratio (y) = -0.34748 0.45508
# Poissons Ratio (z) = 0.94542 1.08849
#
# Static dielectric constant tensor:
#      x y z
#    x 1.721490 0.000000 0.000000 
#    y 0.000000 1.652660 0.000000 
#    z 0.000000 0.000000 1.721380 
# 
# From -- ./inp_files/22184.got.cif
#   From: 2010.05.17/outbox.cif.g08.bks.cpg/sg70_12_cif.got.tgz:22184.got - 2010.06.03 15:57:51.
