data_PCOD9514422
_publ_section_title
;
Structure prediction by ZEFSAII (Michael W. Deem and Ramdas Pophale) SiO2 
 PCOD9514422
Probable space group: F D D D
;
_chemical_formula_sum "Si O2"
_cell_formula_units_Z 240
_cell_length_a 22.864832
_cell_length_b 24.396168
_cell_length_c 23.971647
_cell_angle_alpha 90.000000
_cell_angle_beta 90.000000
_cell_angle_gamma 90.000000
_cell_volume 13371.727078
_symmetry_space_group_name_H-M "F D D D"
_symmetry_group_IT_number 70
_space_group.IT_coordinate_system_code '2'
_symmetry_cell_setting 'orthorhombic'
loop_
_space_group_symop_operation_xyz
x,y,z
1/4-x,1/4-y,z
x,1/4-y,1/4-z
1/4-x,y,1/4-z
-x,-y,-z
3/4+x,3/4+y,-z
-x,3/4+y,3/4+z
3/4+x,-y,3/4+z
x,1/2+y,1/2+z
1/4-x,3/4-y,1/2+z
x,3/4-y,3/4-z
1/4-x,1/2+y,3/4-z
-x,1/2-y,1/2-z
3/4+x,1/4+y,1/2-z
-x,1/4+y,1/4+z
3/4+x,1/2-y,1/4+z
1/2+x,y,1/2+z
3/4-x,1/4-y,1/2+z
1/2+x,1/4-y,3/4-z
3/4-x,y,3/4-z
1/2-x,-y,1/2-z
1/4+x,3/4+y,1/2-z
1/2-x,3/4+y,1/4+z
1/4+x,-y,1/4+z
1/2+x,1/2+y,z
3/4-x,3/4-y,z
1/2+x,3/4-y,1/4-z
3/4-x,1/2+y,1/4-z
1/2-x,1/2-y,-z
1/4+x,1/4+y,-z
1/2-x,1/4+y,3/4+z
1/4+x,1/2-y,3/4+z
loop_
_atom_site_type_symbol
_atom_site_label
_atom_site_fract_x
_atom_site_fract_y
_atom_site_fract_z
Si Si1 0.126431 0.282623 0.377672
Si Si2 0.317762 0.629988 0.834736
Si Si3 0.303885 0.035877 0.479786
Si Si4 0.370018 0.625463 0.218535
Si Si5 0.344410 0.288883 0.933973
Si Si6 0.283714 0.793198 0.168213
Si Si7 0.625000 0.125000 0.776923
Si Si8 0.257026 0.974577 0.135678
O O1 0.119611 0.326198 0.326797
O O2 0.128079 0.319723 0.433033
O O3 0.184761 0.246354 0.375600
O O4 0.074410 0.239796 0.365411
O O5 0.375000 0.623619 0.875000
O O6 0.336525 0.631584 0.770235
O O7 0.278817 0.683151 0.848513
O O8 0.272009 0.580272 0.840820
O O9 0.312743 0.097895 0.501201
O O10 0.261472 0.028766 0.428473
O O11 0.366454 0.012111 0.456958
O O12 0.281695 0.995645 0.527579
O O13 0.375000 0.306119 0.875000
O O14 0.345338 0.332418 0.983594
O O15 0.279400 0.271691 0.917430
O O16 0.327823 0.842270 0.186433
#
# Coordination Sequence:
#
# PCOD9514422 Si02
#       8
#    32  32  32  32  32  32  16  32
#     4  10  23  37  57  84 119 152 189 236 285 342
#     4  12  22  37  62  83 110 151 196 238 289 348
#     4   9  17  36  55  77 110 150 192 232 274 330
#     4  10  20  39  57  84 111 155 199 223 280 343
#     4   9  17  29  46  78 118 157 194 222 264 323
#     4  10  22  36  51  79 112 147 192 237 284 333
#     4  10  19  32  48  76 120 164 185 228 276 332
#     4  11  19  33  55  84 120 151 189 232 280 339
#
# _framework density 17.948316999999999
#
# number of rings (size 3 to 8) (size 9 to 14) (size 15 to 20)
#    0.000    1.867    2.667    2.200    1.867    0.533 
#    4.800    0.667    0.000    0.000    0.000    6.533 
#    0.000    0.000    0.000    0.000    0.000    0.000 
#
# Total GULP energy -334226.277182 kJ/mol
# GULP energy per Si atom -5570.437953 kJ/mol
# Density = 1.790747 g / cm^3
# Si number density = 17.948317 Si / 1000 Ang^3
#
#
#
# Elastic Constant Matrix: (Units=GPa)
#
#
# Indices 1 2 3 4 5 6 
#
# 1 57.4481 46.0330 14.9932 0.0000 0.0000 0.0000
# 2 46.0330 85.7583 38.8545 0.0000 0.0000 0.0000
# 3 14.9932 38.8545 61.1874 0.0000 0.0000 0.0000
# 4 0.0000 0.0000 0.0000 17.4865 0.0000 0.0000
# 5 0.0000 0.0000 0.0000 0.0000 -0.1785 0.0000
# 6 0.0000 0.0000 0.0000 0.0000 0.0000 19.2912
#
#
#
# Elastic Compliance Matrix: (Units=1/GPa)
#
#
# Indices 1 2 3 4 5 6 
#
# 1 0.031299 -0.018708 0.004210 0.000000 0.000000 0.000000
# 2 -0.018708 0.027553 -0.012912 0.000000 0.000000 0.000000
# 3 0.004210 -0.012912 0.023511 0.000000 0.000000 0.000000
# 4 0.000000 0.000000 0.000000 0.057187 0.000000 0.000000
# 5 0.000000 0.000000 0.000000 0.000000 -5.603424 0.000000
# 6 0.000000 0.000000 0.000000 0.000000 0.000000 0.051837
#
#
# Mechanical properties :
#
#
# Convention : Reuss Voigt Hill
#
# Bulk Modulus (GPa) = 36.30697 44.90614 40.60655
# Shear Modulus (GPa) = -0.93492 14.28738 6.67623
#
# Velocity S-wave (km/s) = -0.72251 2.82446 1.93074
# Velocity P-wave (km/s) = 4.42453 5.97585 5.25772
#
# Compressibility (1/GPa) = 0.02754292
#
# Stress axis : x y z
#
# Youngs Moduli (GPa) = 31.95005 36.29396 42.53365
#
# Poissons Ratio (x) = 0.67899 -0.17908
# Poissons Ratio (y) = 0.59772 0.54920
# Poissons Ratio (z) = -0.13452 0.46863
#
# Static dielectric constant tensor:
#      x y z
#    x 1.626190 0.000000 0.000000 
#    y 0.000000 1.655480 0.000000 
#    z 0.000000 0.000000 1.627280 
# 
# From -- ./inp_files/53193.got.cif
#   From: 2010.05.17/outbox.cif.g08.bks.cpg/sg70_27_cif.got.tgz:53193.got - 2010.06.03 15:57:51.
