data_PCOD9514242
_publ_section_title
;
Structure prediction by ZEFSAII (Michael W. Deem and Ramdas Pophale) SiO2 
 PCOD9514242
Probable space group: F D D D
;
_chemical_formula_sum "Si O2"
_cell_formula_units_Z 160
_cell_length_a 18.966785
_cell_length_b 28.074889
_cell_length_c 12.045306
_cell_angle_alpha 90.000000
_cell_angle_beta 90.000000
_cell_angle_gamma 90.000000
_cell_volume 6414.009612
_symmetry_space_group_name_H-M "F D D D"
_symmetry_group_IT_number 70
_space_group.IT_coordinate_system_code '2'
_symmetry_cell_setting 'orthorhombic'
loop_
_space_group_symop_operation_xyz
x,y,z
1/4-x,1/4-y,z
x,1/4-y,1/4-z
1/4-x,y,1/4-z
-x,-y,-z
3/4+x,3/4+y,-z
-x,3/4+y,3/4+z
3/4+x,-y,3/4+z
x,1/2+y,1/2+z
1/4-x,3/4-y,1/2+z
x,3/4-y,3/4-z
1/4-x,1/2+y,3/4-z
-x,1/2-y,1/2-z
3/4+x,1/4+y,1/2-z
-x,1/4+y,1/4+z
3/4+x,1/2-y,1/4+z
1/2+x,y,1/2+z
3/4-x,1/4-y,1/2+z
1/2+x,1/4-y,3/4-z
3/4-x,y,3/4-z
1/2-x,-y,1/2-z
1/4+x,3/4+y,1/2-z
1/2-x,3/4+y,1/4+z
1/4+x,-y,1/4+z
1/2+x,1/2+y,z
3/4-x,3/4-y,z
1/2+x,3/4-y,1/4-z
3/4-x,1/2+y,1/4-z
1/2-x,1/2-y,-z
1/4+x,1/4+y,-z
1/2-x,1/4+y,3/4+z
1/4+x,1/2-y,3/4+z
loop_
_atom_site_type_symbol
_atom_site_label
_atom_site_fract_x
_atom_site_fract_y
_atom_site_fract_z
Si Si1 0.625000 0.464368 0.625000
Si Si2 0.565487 0.213003 0.264938
Si Si3 0.760486 0.411066 0.543205
Si Si4 0.264173 0.375000 0.375000
Si Si5 0.210653 0.228851 0.111757
Si Si6 0.455724 0.671123 0.413853
O O1 0.624490 0.500658 0.728669
O O2 0.690963 0.430690 0.605456
O O3 0.500000 0.250000 0.250000
O O4 0.570424 0.188538 0.385208
O O5 0.556176 0.168656 0.180996
O O6 0.760268 0.430927 0.419127
O O7 0.755965 0.355435 0.573511
O O8 0.215812 0.394130 0.472331
O O9 0.125000 0.223247 0.125000
O O10 0.225128 0.274650 0.188825
O O11 0.250000 0.250000 0.000000
O O12 0.375000 0.670642 0.375000
#
# Coordination Sequence:
#
# PCOD9514242 Si02
#       6
#    16  32  32  16  32  32
#     4  10  18  33  62  90 128 162 212 277 354 408
#     4   9  19  33  55  88 123 162 199 272 342 410
#     4  10  21  39  64  97 129 172 233 287 360 417
#     4  10  20  37  58  92 132 160 221 284 354 412
#     4  11  27  47  70  98 142 195 242 296 364 445
#     4  10  21  40  66 101 131 181 238 298 351 435
#
# _framework density 24.945394
#
# number of rings (size 3 to 8) (size 9 to 14) (size 15 to 20)
#    0.000    2.000    1.000    2.400    2.800    4.400 
#    0.000    2.000    0.000    0.000    0.000    0.000 
#    0.000    0.000    0.000    0.000    0.000    0.000 
#
# Total GULP energy -223023.841510 kJ/mol
# GULP energy per Si atom -5575.596038 kJ/mol
# Density = 2.488862 g / cm^3
# Si number density = 24.945394 Si / 1000 Ang^3
#
#
#
# Elastic Constant Matrix: (Units=GPa)
#
#
# Indices 1 2 3 4 5 6 
#
# 1 75.1262 4.2323 17.0387 0.0000 0.0000 0.0000
# 2 4.2323 119.6221 13.1044 0.0000 0.0000 0.0000
# 3 17.0387 13.1044 122.6687 0.0000 0.0000 0.0000
# 4 0.0000 0.0000 0.0000 33.9320 0.0000 0.0000
# 5 0.0000 0.0000 0.0000 0.0000 24.0332 0.0000
# 6 0.0000 0.0000 0.0000 0.0000 0.0000 8.1913
#
#
#
# Elastic Compliance Matrix: (Units=1/GPa)
#
#
# Indices 1 2 3 4 5 6 
#
# 1 0.013753 -0.000281 -0.001880 0.000000 0.000000 0.000000
# 2 -0.000281 0.008464 -0.000865 0.000000 0.000000 0.000000
# 3 -0.001880 -0.000865 0.008506 0.000000 0.000000 0.000000
# 4 0.000000 0.000000 0.000000 0.029471 0.000000 0.000000
# 5 0.000000 0.000000 0.000000 0.000000 0.041609 0.000000
# 6 0.000000 0.000000 0.000000 0.000000 0.000000 0.122081
#
#
# Mechanical properties :
#
#
# Convention : Reuss Voigt Hill
#
# Bulk Modulus (GPa) = 40.53372 42.90755 41.72064
# Shear Modulus (GPa) = 20.99432 32.10075 26.54754
#
# Velocity S-wave (km/s) = 2.90420 3.59115 3.26579
# Velocity P-wave (km/s) = 5.24691 5.86797 5.56611
#
# Compressibility (1/GPa) = 0.02467081
#
# Stress axis : x y z
#
# Youngs Moduli (GPa) = 72.71033 118.14224 117.56886
#
# Poissons Ratio (x) = 0.03315 0.22107
# Poissons Ratio (y) = 0.02040 0.10173
# Poissons Ratio (z) = 0.13672 0.10222
#
# Static dielectric constant tensor:
#      x y z
#    x 1.064750 0.000000 0.000000 
#    y 0.000000 1.973780 0.000000 
#    z 0.000000 0.000000 2.062380 
# 
# From -- ./inp_files/19563.got.cif
#   From: 2010.05.17/outbox.cif.g08.bks.cpg/sg70_10_cif.got.tgz:19563.got - 2010.06.03 15:57:51.
