data_PCOD9514203
_publ_section_title
;
Structure prediction by ZEFSAII (Michael W. Deem and Ramdas Pophale) SiO2 
 PCOD9514203
Probable space group: F D D D
;
_chemical_formula_sum "Si O2"
_cell_formula_units_Z 160
_cell_length_a 11.577855
_cell_length_b 25.260435
_cell_length_c 27.691205
_cell_angle_alpha 90.000000
_cell_angle_beta 90.000000
_cell_angle_gamma 90.000000
_cell_volume 8098.615606
_symmetry_space_group_name_H-M "F D D D"
_symmetry_group_IT_number 70
_space_group.IT_coordinate_system_code '2'
_symmetry_cell_setting 'orthorhombic'
loop_
_space_group_symop_operation_xyz
x,y,z
1/4-x,1/4-y,z
x,1/4-y,1/4-z
1/4-x,y,1/4-z
-x,-y,-z
3/4+x,3/4+y,-z
-x,3/4+y,3/4+z
3/4+x,-y,3/4+z
x,1/2+y,1/2+z
1/4-x,3/4-y,1/2+z
x,3/4-y,3/4-z
1/4-x,1/2+y,3/4-z
-x,1/2-y,1/2-z
3/4+x,1/4+y,1/2-z
-x,1/4+y,1/4+z
3/4+x,1/2-y,1/4+z
1/2+x,y,1/2+z
3/4-x,1/4-y,1/2+z
1/2+x,1/4-y,3/4-z
3/4-x,y,3/4-z
1/2-x,-y,1/2-z
1/4+x,3/4+y,1/2-z
1/2-x,3/4+y,1/4+z
1/4+x,-y,1/4+z
1/2+x,1/2+y,z
3/4-x,3/4-y,z
1/2+x,3/4-y,1/4-z
3/4-x,1/2+y,1/4-z
1/2-x,1/2-y,-z
1/4+x,1/4+y,-z
1/2-x,1/4+y,3/4+z
1/4+x,1/2-y,3/4+z
loop_
_atom_site_type_symbol
_atom_site_label
_atom_site_fract_x
_atom_site_fract_y
_atom_site_fract_z
Si Si1 0.875000 0.375000 0.449376
Si Si2 0.125000 0.435244 0.625000
Si Si3 0.937957 0.503908 0.230059
Si Si4 0.003079 0.926661 0.033783
Si Si5 0.254610 0.562344 0.115431
Si Si6 0.524315 0.474087 0.825567
O O1 0.975933 0.393496 0.486002
O O2 0.816898 0.424544 0.422096
O O3 0.187981 0.403685 0.668223
O O4 0.220645 0.475314 0.602989
O O5 0.843929 0.529416 0.266172
O O6 0.869620 0.455010 0.205730
O O7 0.969596 0.545694 0.189524
O O8 0.034602 0.485703 0.268070
O O9 0.255964 0.625000 0.125000
O O10 0.355791 0.539721 0.149155
O O11 0.125000 0.542417 0.125000
#
# Coordination Sequence:
#
# PCOD9514203 Si02
#       6
#    16  16  32  32  32  32
#     4  10  20  31  54  86 116 136 184 246 277 330
#     4  10  18  31  58  82 108 144 178 232 289 332
#     4   9  18  35  53  80 109 140 186 232 282 324
#     4   9  17  32  53  80 111 138 176 239 280 322
#     4  11  23  36  54  82 120 151 188 228 272 348
#     4  10  21  33  58  85 106 149 184 234 286 328
#
# _framework density 19.756463
#
# number of rings (size 3 to 8) (size 9 to 14) (size 15 to 20)
#    0.000    2.200    2.000    2.400    2.800    0.800 
#    0.000    0.000    8.800    9.600    0.000    0.000 
#    0.000    0.000    0.000    0.000    0.000    0.000 
#
# Total GULP energy -222726.688439 kJ/mol
# GULP energy per Si atom -5568.167211 kJ/mol
# Density = 1.971150 g / cm^3
# Si number density = 19.756463 Si / 1000 Ang^3
#
#
#
# Elastic Constant Matrix: (Units=GPa)
#
#
# Indices 1 2 3 4 5 6 
#
# 1 97.3418 6.6067 59.3355 0.0000 0.0000 0.0000
# 2 6.6067 24.5778 11.3239 0.0000 0.0000 0.0000
# 3 59.3355 11.3239 115.7302 0.0000 0.0000 0.0000
# 4 0.0000 0.0000 0.0000 18.5863 0.0000 0.0000
# 5 0.0000 0.0000 0.0000 0.0000 23.5074 0.0000
# 6 0.0000 0.0000 0.0000 0.0000 0.0000 19.6689
#
#
#
# Elastic Compliance Matrix: (Units=1/GPa)
#
#
# Indices 1 2 3 4 5 6 
#
# 1 0.014949 -0.000510 -0.007615 0.000000 0.000000 0.000000
# 2 -0.000510 0.042625 -0.003909 0.000000 0.000000 0.000000
# 3 -0.007615 -0.003909 0.012927 0.000000 0.000000 0.000000
# 4 0.000000 0.000000 0.000000 0.053803 0.000000 0.000000
# 5 0.000000 0.000000 0.000000 0.000000 0.042540 0.000000
# 6 0.000000 0.000000 0.000000 0.000000 0.000000 0.050842
#
#
# Mechanical properties :
#
#
# Convention : Reuss Voigt Hill
#
# Bulk Modulus (GPa) = 21.53596 43.57579 32.55588
# Shear Modulus (GPa) = 19.43767 23.04478 21.24122
#
# Velocity S-wave (km/s) = 3.14006 3.41903 3.28251
# Velocity P-wave (km/s) = 4.90623 6.13927 5.55706
#
# Compressibility (1/GPa) = 0.04643395
#
# Stress axis : x y z
#
# Youngs Moduli (GPa) = 66.89276 23.46023 77.35516
#
# Poissons Ratio (x) = 0.01197 0.58903
# Poissons Ratio (y) = 0.03412 0.30240
# Poissons Ratio (z) = 0.50937 0.09171
#
# Static dielectric constant tensor:
#      x y z
#    x 1.747600 0.000000 0.000000 
#    y 0.000000 1.745470 0.000000 
#    z 0.000000 0.000000 1.763770 
# 
# From -- ./inp_files/12345.got.cif
#   From: 2010.05.17/outbox.cif.g08.bks.cpg/sg70_7_cif.got.tgz:12345.got - 2010.06.03 15:57:51.
