data_PCOD9514380
_publ_section_title
;
Structure prediction by ZEFSAII (Michael W. Deem and Ramdas Pophale) SiO2 
 PCOD9514380
Probable space group: F D D D
;
_chemical_formula_sum "Si O2"
_cell_formula_units_Z 128
_cell_length_a 11.001936
_cell_length_b 24.930591
_cell_length_c 19.066426
_cell_angle_alpha 90.000000
_cell_angle_beta 90.000000
_cell_angle_gamma 90.000000
_cell_volume 5229.630206
_symmetry_space_group_name_H-M "F D D D"
_symmetry_group_IT_number 70
_space_group.IT_coordinate_system_code '2'
_symmetry_cell_setting 'orthorhombic'
loop_
_space_group_symop_operation_xyz
x,y,z
1/4-x,1/4-y,z
x,1/4-y,1/4-z
1/4-x,y,1/4-z
-x,-y,-z
3/4+x,3/4+y,-z
-x,3/4+y,3/4+z
3/4+x,-y,3/4+z
x,1/2+y,1/2+z
1/4-x,3/4-y,1/2+z
x,3/4-y,3/4-z
1/4-x,1/2+y,3/4-z
-x,1/2-y,1/2-z
3/4+x,1/4+y,1/2-z
-x,1/4+y,1/4+z
3/4+x,1/2-y,1/4+z
1/2+x,y,1/2+z
3/4-x,1/4-y,1/2+z
1/2+x,1/4-y,3/4-z
3/4-x,y,3/4-z
1/2-x,-y,1/2-z
1/4+x,3/4+y,1/2-z
1/2-x,3/4+y,1/4+z
1/4+x,-y,1/4+z
1/2+x,1/2+y,z
3/4-x,3/4-y,z
1/2+x,3/4-y,1/4-z
3/4-x,1/2+y,1/4-z
1/2-x,1/2-y,-z
1/4+x,1/4+y,-z
1/2-x,1/4+y,3/4+z
1/4+x,1/2-y,3/4+z
loop_
_atom_site_type_symbol
_atom_site_label
_atom_site_fract_x
_atom_site_fract_y
_atom_site_fract_z
Si Si1 0.502107 0.159178 0.785478
Si Si2 0.875000 0.375000 0.973349
Si Si3 0.367454 0.284110 0.590466
Si Si4 0.875000 0.670107 0.375000
Si Si5 0.370374 0.573689 0.095523
O O1 0.625000 0.125000 0.768989
O O2 0.533843 0.191031 0.856745
O O3 0.395709 0.118138 0.808397
O O4 0.445437 0.193816 0.723096
O O5 0.897843 0.426901 0.023945
O O6 0.760595 0.402228 0.930971
O O7 0.239726 0.292443 0.628241
O O8 0.376365 0.220284 0.592805
O O9 0.439279 0.625000 0.125000
#
# Coordination Sequence:
#
# PCOD9514380 Si02
#       5
#    32  16  32  16  32
#     4  10  20  43  72 101 140 182 241 287 355 431
#     4  12  25  50  72 106 143 186 250 294 356 438
#     4  11  23  43  75  99 138 194 225 301 356 420
#     4  10  18  40  73 100 133 184 236 282 358 418
#     4  12  28  44  67 110 146 186 241 295 358 431
#
# _framework density 24.475918
#
# number of rings (size 3 to 8) (size 9 to 14) (size 15 to 20)
#    0.000    1.000    6.250    1.125    3.500    5.500 
#    0.000    5.000    0.000    0.000    0.000    0.000 
#    0.000    0.000    0.000    0.000    0.000    0.000 
#
# Total GULP energy -178136.475288 kJ/mol
# GULP energy per Si atom -5566.764853 kJ/mol
# Density = 2.442021 g / cm^3
# Si number density = 24.475918 Si / 1000 Ang^3
#
#
#
# Elastic Constant Matrix: (Units=GPa)
#
#
# Indices 1 2 3 4 5 6 
#
# 1 79.9020 18.3269 21.1022 0.0000 0.0000 0.0000
# 2 18.3269 147.4492 23.6275 0.0000 0.0000 0.0000
# 3 21.1022 23.6275 39.6770 0.0000 0.0000 0.0000
# 4 0.0000 0.0000 0.0000 9.9567 0.0000 0.0000
# 5 0.0000 0.0000 0.0000 0.0000 178.0930 0.0000
# 6 0.0000 0.0000 0.0000 0.0000 0.0000 6.9090
#
#
#
# Elastic Compliance Matrix: (Units=1/GPa)
#
#
# Indices 1 2 3 4 5 6 
#
# 1 0.014613 -0.000631 -0.007396 0.000000 0.000000 0.000000
# 2 -0.000631 0.007525 -0.004145 0.000000 0.000000 0.000000
# 3 -0.007396 -0.004145 0.031606 0.000000 0.000000 0.000000
# 4 0.000000 0.000000 0.000000 0.100435 0.000000 0.000000
# 5 0.000000 0.000000 0.000000 0.000000 0.005615 0.000000
# 6 0.000000 0.000000 0.000000 0.000000 0.000000 0.144738
#
#
# Mechanical properties :
#
#
# Convention : Reuss Voigt Hill
#
# Bulk Modulus (GPa) = 34.01542 43.68237 38.84889
# Shear Modulus (GPa) = 14.76335 52.58986 33.67660
#
# Velocity S-wave (km/s) = 2.45863 4.64037 3.71335
# Velocity P-wave (km/s) = 4.68908 6.82616 5.85594
#
# Compressibility (1/GPa) = 0.02939844
#
# Stress axis : x y z
#
# Youngs Moduli (GPa) = 68.42992 132.89590 31.63982
#
# Poissons Ratio (x) = 0.08388 0.23402
# Poissons Ratio (y) = 0.04319 0.13115
# Poissons Ratio (z) = 0.50613 0.55089
#
# Static dielectric constant tensor:
#      x y z
#    x 1.981010 0.000000 0.000000 
#    y 0.000000 2.034800 0.000000 
#    z 0.000000 0.000000 2.105220 
# 
# From -- ./inp_files/49967.got.cif
#   From: 2010.05.17/outbox.cif.g08.bks.cpg/sg70_25_cif.got.tgz:49967.got - 2010.06.03 15:57:51.
