data_PCOD9514364
_publ_section_title
;
Structure prediction by ZEFSAII (Michael W. Deem and Ramdas Pophale) SiO2 
 PCOD9514364
Probable space group: F D D D
;
_chemical_formula_sum "Si O2"
_cell_formula_units_Z 128
_cell_length_a 17.165376
_cell_length_b 11.552180
_cell_length_c 25.571262
_cell_angle_alpha 90.000000
_cell_angle_beta 90.000000
_cell_angle_gamma 90.000000
_cell_volume 5070.717667
_symmetry_space_group_name_H-M "F D D D"
_symmetry_group_IT_number 70
_space_group.IT_coordinate_system_code '2'
_symmetry_cell_setting 'orthorhombic'
loop_
_space_group_symop_operation_xyz
x,y,z
1/4-x,1/4-y,z
x,1/4-y,1/4-z
1/4-x,y,1/4-z
-x,-y,-z
3/4+x,3/4+y,-z
-x,3/4+y,3/4+z
3/4+x,-y,3/4+z
x,1/2+y,1/2+z
1/4-x,3/4-y,1/2+z
x,3/4-y,3/4-z
1/4-x,1/2+y,3/4-z
-x,1/2-y,1/2-z
3/4+x,1/4+y,1/2-z
-x,1/4+y,1/4+z
3/4+x,1/2-y,1/4+z
1/2+x,y,1/2+z
3/4-x,1/4-y,1/2+z
1/2+x,1/4-y,3/4-z
3/4-x,y,3/4-z
1/2-x,-y,1/2-z
1/4+x,3/4+y,1/2-z
1/2-x,3/4+y,1/4+z
1/4+x,-y,1/4+z
1/2+x,1/2+y,z
3/4-x,3/4-y,z
1/2+x,3/4-y,1/4-z
3/4-x,1/2+y,1/4-z
1/2-x,1/2-y,-z
1/4+x,1/4+y,-z
1/2-x,1/4+y,3/4+z
1/4+x,1/2-y,3/4+z
loop_
_atom_site_type_symbol
_atom_site_label
_atom_site_fract_x
_atom_site_fract_y
_atom_site_fract_z
Si Si1 0.431583 0.125000 0.125000
Si Si2 0.875000 0.375000 0.974195
Si Si3 0.348789 0.127130 0.315047
Si Si4 0.314313 0.467282 0.671438
Si Si5 0.262913 0.402499 0.184353
O O1 0.369223 0.171104 0.081685
O O2 0.483724 0.226650 0.150987
O O3 0.911065 0.264443 0.945026
O O4 0.936614 0.423136 0.015109
O O5 0.375000 0.113104 0.375000
O O6 0.271745 0.052365 0.304548
O O7 0.433248 0.099196 0.292190
O O8 0.375000 0.375000 0.694038
O O9 0.298031 0.433786 0.609838
#
# Coordination Sequence:
#
# PCOD9514364 Si02
#       5
#    16  16  32  32  32
#     4  10  18  38  74  82 122 174 206 252 321 375
#     4  12  21  38  62  92 126 158 204 274 307 360
#     4  10  23  37  60  91 122 160 210 254 309 375
#     4   9  19  39  63  87 120 163 207 248 313 381
#     4  10  21  39  61  91 121 159 209 255 314 371
#
# _framework density 25.242975000000001
#
# number of rings (size 3 to 8) (size 9 to 14) (size 15 to 20)
#    0.000    2.000    3.750    1.125   10.500    0.000 
#    0.000    6.875    0.000    0.000    0.000    0.000 
#    0.000    0.000    0.000    0.000    0.000    0.000 
#
# Total GULP energy -178141.753084 kJ/mol
# GULP energy per Si atom -5566.929784 kJ/mol
# Density = 2.518552 g / cm^3
# Si number density = 25.242975 Si / 1000 Ang^3
#
#
#
# Elastic Constant Matrix: (Units=GPa)
#
#
# Indices 1 2 3 4 5 6 
#
# 1 185.4268 12.2227 35.4598 0.0000 0.0000 0.0000
# 2 12.2227 45.6912 6.7672 0.0000 0.0000 0.0000
# 3 35.4598 6.7672 54.0012 0.0000 0.0000 0.0000
# 4 0.0000 0.0000 0.0000 26.0207 0.0000 0.0000
# 5 0.0000 0.0000 0.0000 0.0000 18.2178 0.0000
# 6 0.0000 0.0000 0.0000 0.0000 0.0000 38.2279
#
#
#
# Elastic Compliance Matrix: (Units=1/GPa)
#
#
# Indices 1 2 3 4 5 6 
#
# 1 0.006219 -0.001079 -0.003949 0.000000 0.000000 0.000000
# 2 -0.001079 0.022487 -0.002110 0.000000 0.000000 0.000000
# 3 -0.003949 -0.002110 0.021375 0.000000 0.000000 0.000000
# 4 0.000000 0.000000 0.000000 0.038431 0.000000 0.000000
# 5 0.000000 0.000000 0.000000 0.000000 0.054891 0.000000
# 6 0.000000 0.000000 0.000000 0.000000 0.000000 0.026159
#
#
# Mechanical properties :
#
#
# Convention : Reuss Voigt Hill
#
# Bulk Modulus (GPa) = 27.92709 43.77986 35.85347
# Shear Modulus (GPa) = 25.53981 31.87124 28.70553
#
# Velocity S-wave (km/s) = 3.18427 3.55713 3.37585
# Velocity P-wave (km/s) = 4.96052 5.85252 5.42488
#
# Compressibility (1/GPa) = 0.03580753
#
# Stress axis : x y z
#
# Youngs Moduli (GPa) = 160.79261 44.47000 46.78290
#
# Poissons Ratio (x) = 0.04798 0.18473
# Poissons Ratio (y) = 0.17347 0.09869
# Poissons Ratio (z) = 0.63491 0.09381
#
# Static dielectric constant tensor:
#      x y z
#    x 2.329480 0.000000 0.000000 
#    y 0.000000 2.009640 0.000000 
#    z 0.000000 0.000000 2.028670 
# 
# From -- ./inp_files/66454.got.cif
#   From: 2010.05.17/outbox.cif.g08.bks.cpg/sg70_34_cif.got.tgz:66454.got - 2010.06.03 15:57:51.
