data_PCOD9514105
_publ_section_title
;
Structure prediction by ZEFSAII (Michael W. Deem and Ramdas Pophale) SiO2 
 PCOD9514105
Probable space group: F D D D
;
_chemical_formula_sum "Si O2"
_cell_formula_units_Z 152
_cell_length_a 21.292885
_cell_length_b 15.080912
_cell_length_c 30.063203
_cell_angle_alpha 90.000000
_cell_angle_beta 90.000000
_cell_angle_gamma 90.000000
_cell_volume 9653.779250
_symmetry_space_group_name_H-M "F D D D"
_symmetry_group_IT_number 70
_space_group.IT_coordinate_system_code '2'
_symmetry_cell_setting 'orthorhombic'
loop_
_space_group_symop_operation_xyz
x,y,z
1/4-x,1/4-y,z
x,1/4-y,1/4-z
1/4-x,y,1/4-z
-x,-y,-z
3/4+x,3/4+y,-z
-x,3/4+y,3/4+z
3/4+x,-y,3/4+z
x,1/2+y,1/2+z
1/4-x,3/4-y,1/2+z
x,3/4-y,3/4-z
1/4-x,1/2+y,3/4-z
-x,1/2-y,1/2-z
3/4+x,1/4+y,1/2-z
-x,1/4+y,1/4+z
3/4+x,1/2-y,1/4+z
1/2+x,y,1/2+z
3/4-x,1/4-y,1/2+z
1/2+x,1/4-y,3/4-z
3/4-x,y,3/4-z
1/2-x,-y,1/2-z
1/4+x,3/4+y,1/2-z
1/2-x,3/4+y,1/4+z
1/4+x,-y,1/4+z
1/2+x,1/2+y,z
3/4-x,3/4-y,z
1/2+x,3/4-y,1/4-z
3/4-x,1/2+y,1/4-z
1/2-x,1/2-y,-z
1/4+x,1/4+y,-z
1/2-x,1/4+y,3/4+z
1/4+x,1/2-y,3/4+z
loop_
_atom_site_type_symbol
_atom_site_label
_atom_site_fract_x
_atom_site_fract_y
_atom_site_fract_z
Si Si1 0.067097 0.379394 0.323351
Si Si2 0.125000 0.625000 0.468611
Si Si3 0.999881 0.810805 0.678024
Si Si4 0.622222 0.315899 0.738188
Si Si5 0.035324 0.479311 0.668266
Si Si6 0.875000 0.375000 0.375000
O O1 0.088699 0.375000 0.375000
O O2 0.021840 0.292676 0.317744
O O3 0.117855 0.368838 0.284452
O O4 0.026992 0.468499 0.317039
O O5 0.061555 0.617198 0.439948
O O6 0.126172 0.537072 0.497876
O O7 0.057327 0.828981 0.711164
O O8 0.021445 0.822045 0.627357
O O9 0.680611 0.328946 0.705356
O O10 0.082491 0.559213 0.653984
#
# Coordination Sequence:
#
# PCOD9514105 Si02
#       6
#    32  16  32  32  32   8
#     4   9  17  26  36  53  82 107 132 159 194 234
#     4  10  19  24  35  56  84 108 133 162 192 233
#     4  10  17  26  36  55  80 108 134 160 193 238
#     4  11  17  25  39  58  77 107 138 165 189 238
#     4  11  17  26  40  58  82 112 136 162 196 236
#     4  12  14  24  40  56  84 112 136 152 196 234
#
# _framework density 15.74513
#
# number of rings (size 3 to 8) (size 9 to 14) (size 15 to 20)
#    0.000    1.684    5.263    5.684    0.000    0.000 
#    0.000    0.000    0.000    0.000    0.000   13.263 
#    0.000    0.000    0.000    0.000    0.000    0.000 
#
# Total GULP energy -211797.839499 kJ/mol
# GULP energy per Si atom -5573.627355 kJ/mol
# Density = 1.570929 g / cm^3
# Si number density = 15.745130 Si / 1000 Ang^3
#
#
#
# Elastic Constant Matrix: (Units=GPa)
#
#
# Indices 1 2 3 4 5 6 
#
# 1 73.1661 20.2950 62.2436 0.0000 0.0000 0.0000
# 2 20.2950 16.5788 18.4663 0.0000 0.0000 0.0000
# 3 62.2436 18.4663 130.3514 0.0000 0.0000 0.0000
# 4 0.0000 0.0000 0.0000 12.4211 0.0000 0.0000
# 5 0.0000 0.0000 0.0000 0.0000 23.5880 0.0000
# 6 0.0000 0.0000 0.0000 0.0000 0.0000 17.4108
#
#
#
# Elastic Compliance Matrix: (Units=1/GPa)
#
#
# Indices 1 2 3 4 5 6 
#
# 1 0.029403 -0.024169 -0.010616 0.000000 0.000000 0.000000
# 2 -0.024169 0.091486 -0.001420 0.000000 0.000000 0.000000
# 3 -0.010616 -0.001420 0.012942 0.000000 0.000000 0.000000
# 4 0.000000 0.000000 0.000000 0.080508 0.000000 0.000000
# 5 0.000000 0.000000 0.000000 0.000000 0.042394 0.000000
# 6 0.000000 0.000000 0.000000 0.000000 0.000000 0.057436
#
#
# Mechanical properties :
#
#
# Convention : Reuss Voigt Hill
#
# Bulk Modulus (GPa) = 16.28100 46.90068 31.59084
# Shear Modulus (GPa) = 12.28345 18.62341 15.45343
#
# Velocity S-wave (km/s) = 2.79613 3.44292 3.13625
# Velocity P-wave (km/s) = 4.55931 6.75700 5.76387
#
# Compressibility (1/GPa) = 0.06142129
#
# Stress axis : x y z
#
# Youngs Moduli (GPa) = 34.01029 10.93067 77.26808
#
# Poissons Ratio (x) = 0.26418 0.82029
# Poissons Ratio (y) = 0.82199 0.10969
# Poissons Ratio (z) = 0.36106 0.01552
#
# Static dielectric constant tensor:
#      x y z
#    x 1.556840 0.000000 0.000000 
#    y 0.000000 1.504760 0.000000 
#    z 0.000000 0.000000 1.592820 
# 
# From -- ./inp_files/27658.got.cif
#   From: 2010.05.17/outbox.cif.g08.bks.cpg/sg70_14_cif.got.tgz:27658.got - 2010.06.03 15:57:51.
