data_PCOD9514411
_publ_section_title
;
Structure prediction by ZEFSAII (Michael W. Deem and Ramdas Pophale) SiO2 
 PCOD9514411
Probable space group: F D D D
;
_chemical_formula_sum "Si O2"
_cell_formula_units_Z 120
_cell_length_a 12.324696
_cell_length_b 12.565157
_cell_length_c 28.335670
_cell_angle_alpha 90.000000
_cell_angle_beta 90.000000
_cell_angle_gamma 90.000000
_cell_volume 4388.111166
_symmetry_space_group_name_H-M "F D D D"
_symmetry_group_IT_number 70
_space_group.IT_coordinate_system_code '2'
_symmetry_cell_setting 'orthorhombic'
loop_
_space_group_symop_operation_xyz
x,y,z
1/4-x,1/4-y,z
x,1/4-y,1/4-z
1/4-x,y,1/4-z
-x,-y,-z
3/4+x,3/4+y,-z
-x,3/4+y,3/4+z
3/4+x,-y,3/4+z
x,1/2+y,1/2+z
1/4-x,3/4-y,1/2+z
x,3/4-y,3/4-z
1/4-x,1/2+y,3/4-z
-x,1/2-y,1/2-z
3/4+x,1/4+y,1/2-z
-x,1/4+y,1/4+z
3/4+x,1/2-y,1/4+z
1/2+x,y,1/2+z
3/4-x,1/4-y,1/2+z
1/2+x,1/4-y,3/4-z
3/4-x,y,3/4-z
1/2-x,-y,1/2-z
1/4+x,3/4+y,1/2-z
1/2-x,3/4+y,1/4+z
1/4+x,-y,1/4+z
1/2+x,1/2+y,z
3/4-x,3/4-y,z
1/2+x,3/4-y,1/4-z
3/4-x,1/2+y,1/4-z
1/2-x,1/2-y,-z
1/4+x,1/4+y,-z
1/2-x,1/4+y,3/4+z
1/4+x,1/2-y,3/4+z
loop_
_atom_site_type_symbol
_atom_site_label
_atom_site_fract_x
_atom_site_fract_y
_atom_site_fract_z
Si Si1 0.375000 0.375000 0.875000
Si Si2 0.064594 0.527614 0.814802
Si Si3 0.875000 0.738906 0.375000
Si Si4 0.260664 0.684245 0.314276
Si Si5 0.910129 0.651281 0.517073
O O1 0.315153 0.460224 0.910514
O O2 0.125000 0.625000 0.840657
O O3 0.159594 0.444951 0.803876
O O4 0.962639 0.463990 0.838314
O O5 0.010289 0.584087 0.768825
O O6 0.956693 0.660687 0.348128
O O7 0.314557 0.638024 0.266476
O O8 0.150189 0.739069 0.295819
#
# Coordination Sequence:
#
# PCOD9514411 Si02
#       5
#     8  32  16  32  32
#     4  10  20  24  40  68 124 140 172 232 292 320
#     4  10  19  30  51  79 118 154 191 239 290 344
#     4   9  20  35  46  82 127 149 184 239 295 338
#     4   9  19  30  46  74 114 149 183 231 281 335
#     4   9  19  30  50  77 111 155 194 225 284 349
#
# _framework density 27.346616000000001
#
# number of rings (size 3 to 8) (size 9 to 14) (size 15 to 20)
#    0.000    2.667    0.000    0.800   18.667    0.000 
#    0.000    0.000    0.000    0.000    0.000   33.600 
#    0.000    0.000    0.000    2.667    0.000    0.000 
#
# Total GULP energy -167007.881491 kJ/mol
# GULP energy per Si atom -5566.929383 kJ/mol
# Density = 2.728437 g / cm^3
# Si number density = 27.346616 Si / 1000 Ang^3
#
#
#
# Elastic Constant Matrix: (Units=GPa)
#
#
# Indices 1 2 3 4 5 6 
#
# 1 114.3108 38.6467 34.8372 0.0000 0.0000 0.0000
# 2 38.6467 91.5347 18.1902 0.0000 0.0000 0.0000
# 3 34.8372 18.1902 65.4079 0.0000 0.0000 0.0000
# 4 0.0000 0.0000 0.0000 -28.2396 0.0000 0.0000
# 5 0.0000 0.0000 0.0000 0.0000 1.5369 0.0000
# 6 0.0000 0.0000 0.0000 0.0000 0.0000 47.7982
#
#
#
# Elastic Compliance Matrix: (Units=1/GPa)
#
#
# Indices 1 2 3 4 5 6 
#
# 1 0.011620 -0.003891 -0.005107 0.000000 0.000000 0.000000
# 2 -0.003891 0.012867 -0.001506 0.000000 0.000000 0.000000
# 3 -0.005107 -0.001506 0.018427 0.000000 0.000000 0.000000
# 4 0.000000 0.000000 0.000000 -0.035411 0.000000 0.000000
# 5 0.000000 0.000000 0.000000 0.000000 0.650657 0.000000
# 6 0.000000 0.000000 0.000000 0.000000 0.000000 0.020921
#
#
# Mechanical properties :
#
#
# Convention : Reuss Voigt Hill
#
# Bulk Modulus (GPa) = 45.64824 50.51129 48.07977
# Shear Modulus (GPa) = 7.06823 16.19107 11.62965
#
# Velocity S-wave (km/s) = 1.60944 2.43589 2.06444
# Velocity P-wave (km/s) = 4.49249 5.14026 4.82725
#
# Compressibility (1/GPa) = 0.02190665
#
# Stress axis : x y z
#
# Youngs Moduli (GPa) = 86.05868 77.71847 54.26695
#
# Poissons Ratio (x) = 0.30242 0.27713
# Poissons Ratio (y) = 0.33487 0.08172
# Poissons Ratio (z) = 0.43949 0.11703
#
# Static dielectric constant tensor:
#      x y z
#    x 2.271700 0.000000 0.000000 
#    y 0.000000 2.346950 0.000000 
#    z 0.000000 0.000000 2.468960 
# 
# From -- ./inp_files/25510.got.cif
#   From: 2010.05.17/outbox.cif.g08.bks.cpg/sg70_13_cif.got.tgz:25510.got - 2010.06.03 15:57:51.
