data_PCOD9514654
_publ_section_title
;
Structure prediction by ZEFSAII (Michael W. Deem and Ramdas Pophale) SiO2 
 PCOD9514654
Probable space group: F D D D
;
_chemical_formula_sum "Si O2"
_cell_formula_units_Z 208
_cell_length_a 23.306787
_cell_length_b 15.335797
_cell_length_c 26.407862
_cell_angle_alpha 90.000000
_cell_angle_beta 90.000000
_cell_angle_gamma 90.000000
_cell_volume 9438.913370
_symmetry_space_group_name_H-M "F D D D"
_symmetry_group_IT_number 70
_space_group.IT_coordinate_system_code '2'
_symmetry_cell_setting 'orthorhombic'
loop_
_space_group_symop_operation_xyz
x,y,z
1/4-x,1/4-y,z
x,1/4-y,1/4-z
1/4-x,y,1/4-z
-x,-y,-z
3/4+x,3/4+y,-z
-x,3/4+y,3/4+z
3/4+x,-y,3/4+z
x,1/2+y,1/2+z
1/4-x,3/4-y,1/2+z
x,3/4-y,3/4-z
1/4-x,1/2+y,3/4-z
-x,1/2-y,1/2-z
3/4+x,1/4+y,1/2-z
-x,1/4+y,1/4+z
3/4+x,1/2-y,1/4+z
1/2+x,y,1/2+z
3/4-x,1/4-y,1/2+z
1/2+x,1/4-y,3/4-z
3/4-x,y,3/4-z
1/2-x,-y,1/2-z
1/4+x,3/4+y,1/2-z
1/2-x,3/4+y,1/4+z
1/4+x,-y,1/4+z
1/2+x,1/2+y,z
3/4-x,3/4-y,z
1/2+x,3/4-y,1/4-z
3/4-x,1/2+y,1/4-z
1/2-x,1/2-y,-z
1/4+x,1/4+y,-z
1/2-x,1/4+y,3/4+z
1/4+x,1/2-y,3/4+z
loop_
_atom_site_type_symbol
_atom_site_label
_atom_site_fract_x
_atom_site_fract_y
_atom_site_fract_z
Si Si1 0.315124 0.917923 0.126288
Si Si2 0.780601 0.523238 0.890595
Si Si3 0.143477 0.956265 0.447540
Si Si4 0.059170 0.982043 0.529510
Si Si5 0.120371 0.911944 0.067538
Si Si6 0.186588 0.767183 0.480855
Si Si7 0.797570 0.125000 0.125000
O O1 0.375000 0.875000 0.111829
O O2 0.265113 0.848214 0.126717
O O3 0.309438 0.992420 0.084506
O O4 0.323407 0.958608 0.181962
O O5 0.807028 0.486126 0.837747
O O6 0.826129 0.577792 0.924339
O O7 0.741621 0.441664 0.907885
O O8 0.111892 0.008060 0.492934
O O9 0.172552 0.866816 0.465689
O O10 0.090272 0.928982 0.411091
O O11 0.073890 0.880320 0.541264
O O12 0.000000 0.000000 0.500000
O O13 0.125000 0.942280 0.125000
O O14 0.100841 0.989474 0.031504
O O15 0.250000 0.750000 0.500000
#
# Coordination Sequence:
#
# PCOD9514654 Si02
#       7
#    32  32  32  32  32  32  16
#     4  12  21  39  66  94 128 168 226 273 330 403
#     4  11  22  39  60  91 127 173 204 272 331 404
#     4  11  22  39  62  93 127 169 210 277 324 389
#     4  10  19  39  60  87 125 162 212 256 328 396
#     4   9  21  39  61  91 133 173 208 268 344 393
#     4  11  21  39  66  93 129 168 220 273 328 401
#     4  12  20  38  63  86 128 162 211 262 332 374
#
# _framework density 22.036435000000001
#
# number of rings (size 3 to 8) (size 9 to 14) (size 15 to 20)
#    0.000    1.231    6.154    0.000    0.000    0.000 
#    5.538    8.077    0.000    0.000    0.000    0.000 
#    0.000    0.000    0.000    0.000    0.000    0.000 
#
# Total GULP energy -289734.889319 kJ/mol
# GULP energy per Si atom -5571.824795 kJ/mol
# Density = 2.198628 g / cm^3
# Si number density = 22.036435 Si / 1000 Ang^3
#
#
#
# Elastic Constant Matrix: (Units=GPa)
#
#
# Indices 1 2 3 4 5 6 
#
# 1 67.9143 22.3702 10.4842 0.0000 0.0000 0.0000
# 2 22.3702 61.0888 18.9590 0.0000 0.0000 0.0000
# 3 10.4842 18.9590 106.9438 0.0000 0.0000 0.0000
# 4 0.0000 0.0000 0.0000 5.7969 0.0000 0.0000
# 5 0.0000 0.0000 0.0000 0.0000 33.7215 0.0000
# 6 0.0000 0.0000 0.0000 0.0000 0.0000 43.3854
#
#
#
# Elastic Compliance Matrix: (Units=1/GPa)
#
#
# Indices 1 2 3 4 5 6 
#
# 1 0.016779 -0.005962 -0.000588 0.000000 0.000000 0.000000
# 2 -0.005962 0.019441 -0.002862 0.000000 0.000000 0.000000
# 3 -0.000588 -0.002862 0.009916 0.000000 0.000000 0.000000
# 4 0.000000 0.000000 0.000000 0.172507 0.000000 0.000000
# 5 0.000000 0.000000 0.000000 0.000000 0.029655 0.000000
# 6 0.000000 0.000000 0.000000 0.000000 0.000000 0.023049
#
#
# Mechanical properties :
#
#
# Convention : Reuss Voigt Hill
#
# Bulk Modulus (GPa) = 36.61395 37.73039 37.17217
# Shear Modulus (GPa) = 16.70708 28.85632 22.78170
#
# Velocity S-wave (km/s) = 2.75645 3.62260 3.21879
# Velocity P-wave (km/s) = 5.17513 5.88699 5.54250
#
# Compressibility (1/GPa) = 0.02731199
#
# Stress axis : x y z
#
# Youngs Moduli (GPa) = 59.59844 51.43764 100.84981
#
# Poissons Ratio (x) = 0.30666 0.05930
# Poissons Ratio (y) = 0.35531 0.28864
# Poissons Ratio (z) = 0.03504 0.14722
#
# Static dielectric constant tensor:
#      x y z
#    x 1.892570 0.000000 0.000000 
#    y 0.000000 2.234460 0.000000 
#    z 0.000000 0.000000 0.068750 
# 
# From -- ./inp_files/61271.got.cif
#   From: 2010.05.17/outbox.cif.g08.bks.cpg/sg70_31_cif.got.tgz:61271.got - 2010.06.03 15:57:51.
