data_PCOD9514225
_publ_section_title
;
Structure prediction by ZEFSAII (Michael W. Deem and Ramdas Pophale) SiO2 
 PCOD9514225
Probable space group: F D D D
;
_chemical_formula_sum "Si O2"
_cell_formula_units_Z 168
_cell_length_a 25.223958
_cell_length_b 31.568755
_cell_length_c 13.591273
_cell_angle_alpha 90.000000
_cell_angle_beta 90.000000
_cell_angle_gamma 90.000000
_cell_volume 10822.580509
_symmetry_space_group_name_H-M "F D D D"
_symmetry_group_IT_number 70
_space_group.IT_coordinate_system_code '2'
_symmetry_cell_setting 'orthorhombic'
loop_
_space_group_symop_operation_xyz
x,y,z
1/4-x,1/4-y,z
x,1/4-y,1/4-z
1/4-x,y,1/4-z
-x,-y,-z
3/4+x,3/4+y,-z
-x,3/4+y,3/4+z
3/4+x,-y,3/4+z
x,1/2+y,1/2+z
1/4-x,3/4-y,1/2+z
x,3/4-y,3/4-z
1/4-x,1/2+y,3/4-z
-x,1/2-y,1/2-z
3/4+x,1/4+y,1/2-z
-x,1/4+y,1/4+z
3/4+x,1/2-y,1/4+z
1/2+x,y,1/2+z
3/4-x,1/4-y,1/2+z
1/2+x,1/4-y,3/4-z
3/4-x,y,3/4-z
1/2-x,-y,1/2-z
1/4+x,3/4+y,1/2-z
1/2-x,3/4+y,1/4+z
1/4+x,-y,1/4+z
1/2+x,1/2+y,z
3/4-x,3/4-y,z
1/2+x,3/4-y,1/4-z
3/4-x,1/2+y,1/4-z
1/2-x,1/2-y,-z
1/4+x,1/4+y,-z
1/2-x,1/4+y,3/4+z
1/4+x,1/2-y,3/4+z
loop_
_atom_site_type_symbol
_atom_site_label
_atom_site_fract_x
_atom_site_fract_y
_atom_site_fract_z
Si Si1 0.875000 0.375000 0.875000
Si Si2 0.785479 0.616809 0.838442
Si Si3 0.720519 0.044156 0.252073
Si Si4 0.035815 0.179980 0.531061
Si Si5 0.644412 0.400390 0.474788
Si Si6 0.638061 0.751963 0.741059
O O1 0.912523 0.348649 0.947182
O O2 0.745521 0.577164 0.827325
O O3 0.753728 0.657143 0.794074
O O4 0.836617 0.610096 0.769238
O O5 0.811080 0.614831 0.946803
O O6 0.732439 0.064347 0.144415
O O7 0.750000 0.000000 0.250000
O O8 0.660122 0.029404 0.271554
O O9 0.057972 0.225484 0.498449
O O10 0.651782 0.375000 0.375000
O O11 0.643403 0.451572 0.463022
O O12 0.625000 0.759430 0.625000
#
# Coordination Sequence:
#
# PCOD9514225 Si02
#       6
#     8  32  32  32  32  32
#     4  12  16  28  48  84 118 128 156 216 292 322
#     4  11  20  33  52  78 106 144 181 212 278 327
#     4  11  17  27  50  79 108 134 166 218 281 328
#     4  11  19  30  49  81 112 135 163 218 274 334
#     4  11  22  37  51  73 108 145 185 225 259 324
#     4  10  18  33  51  79 112 131 171 227 279 322
#
# _framework density 15.523099999999999
#
# number of rings (size 3 to 8) (size 9 to 14) (size 15 to 20)
#    0.000    1.143    8.571    2.286    0.000    0.000 
#    0.000    0.952    0.000    0.000    0.000    4.667 
#    0.000    0.000    0.000    0.000    0.000    0.000 
#
# Total GULP energy -233856.241534 kJ/mol
# GULP energy per Si atom -5568.005751 kJ/mol
# Density = 1.548777 g / cm^3
# Si number density = 15.523100 Si / 1000 Ang^3
#
#
#
# Elastic Constant Matrix: (Units=GPa)
#
#
# Indices 1 2 3 4 5 6 
#
# 1 68.0692 44.0887 39.6106 0.0000 0.0000 0.0000
# 2 44.0887 112.2638 53.4522 0.0000 0.0000 0.0000
# 3 39.6106 53.4522 84.1991 0.0000 0.0000 0.0000
# 4 0.0000 0.0000 0.0000 21.7579 0.0000 0.0000
# 5 0.0000 0.0000 0.0000 0.0000 24.1813 0.0000
# 6 0.0000 0.0000 0.0000 0.0000 0.0000 22.9422
#
#
#
# Elastic Compliance Matrix: (Units=1/GPa)
#
#
# Indices 1 2 3 4 5 6 
#
# 1 0.022295 -0.005391 -0.007066 0.000000 0.000000 0.000000
# 2 -0.005391 0.014070 -0.006396 0.000000 0.000000 0.000000
# 3 -0.007066 -0.006396 0.019261 0.000000 0.000000 0.000000
# 4 0.000000 0.000000 0.000000 0.045960 0.000000 0.000000
# 5 0.000000 0.000000 0.000000 0.000000 0.041354 0.000000
# 6 0.000000 0.000000 0.000000 0.000000 0.000000 0.043588
#
#
# Mechanical properties :
#
#
# Convention : Reuss Voigt Hill
#
# Bulk Modulus (GPa) = 55.80416 59.87058 57.83737
# Shear Modulus (GPa) = 21.71956 22.26831 21.99393
#
# Velocity S-wave (km/s) = 3.74462 3.79162 3.76819
# Velocity P-wave (km/s) = 7.39752 7.60401 7.50148
#
# Compressibility (1/GPa) = 0.01791981
#
# Stress axis : x y z
#
# Youngs Moduli (GPa) = 44.85392 71.07218 51.91886
#
# Poissons Ratio (x) = 0.38318 0.36684
# Poissons Ratio (y) = 0.24183 0.33206
# Poissons Ratio (z) = 0.31692 0.45457
#
# Static dielectric constant tensor:
#      x y z
#    x 1.545710 0.000000 0.000000 
#    y 0.000000 -0.787240 0.000000 
#    z 0.000000 0.000000 1.507830 
# 
# From -- ./inp_files/30234.got.cif
#   From: 2010.05.17/outbox.cif.g08.bks.cpg/sg70_16_cif.got.tgz:30234.got - 2010.06.03 15:57:51.
