data_PCOD9514498
_publ_section_title
;
Structure prediction by ZEFSAII (Michael W. Deem and Ramdas Pophale) SiO2 
 PCOD9514498
Probable space group: F D D D
;
_chemical_formula_sum "Si O2"
_cell_formula_units_Z 216
_cell_length_a 20.385823
_cell_length_b 22.221421
_cell_length_c 21.433266
_cell_angle_alpha 90.000000
_cell_angle_beta 90.000000
_cell_angle_gamma 90.000000
_cell_volume 9709.311407
_symmetry_space_group_name_H-M "F D D D"
_symmetry_group_IT_number 70
_space_group.IT_coordinate_system_code '2'
_symmetry_cell_setting 'orthorhombic'
loop_
_space_group_symop_operation_xyz
x,y,z
1/4-x,1/4-y,z
x,1/4-y,1/4-z
1/4-x,y,1/4-z
-x,-y,-z
3/4+x,3/4+y,-z
-x,3/4+y,3/4+z
3/4+x,-y,3/4+z
x,1/2+y,1/2+z
1/4-x,3/4-y,1/2+z
x,3/4-y,3/4-z
1/4-x,1/2+y,3/4-z
-x,1/2-y,1/2-z
3/4+x,1/4+y,1/2-z
-x,1/4+y,1/4+z
3/4+x,1/2-y,1/4+z
1/2+x,y,1/2+z
3/4-x,1/4-y,1/2+z
1/2+x,1/4-y,3/4-z
3/4-x,y,3/4-z
1/2-x,-y,1/2-z
1/4+x,3/4+y,1/2-z
1/2-x,3/4+y,1/4+z
1/4+x,-y,1/4+z
1/2+x,1/2+y,z
3/4-x,3/4-y,z
1/2+x,3/4-y,1/4-z
3/4-x,1/2+y,1/4-z
1/2-x,1/2-y,-z
1/4+x,1/4+y,-z
1/2-x,1/4+y,3/4+z
1/4+x,1/2-y,3/4+z
loop_
_atom_site_type_symbol
_atom_site_label
_atom_site_fract_x
_atom_site_fract_y
_atom_site_fract_z
Si Si1 0.969946 0.166502 0.301633
Si Si2 0.604631 0.225025 0.058576
Si Si3 0.408428 0.455690 0.985171
Si Si4 0.437346 0.753477 0.704543
Si Si5 0.375000 0.375000 0.875000
Si Si6 0.048741 0.492773 0.812115
Si Si7 0.625000 0.907155 0.125000
Si Si8 0.362017 0.122314 0.057831
O O1 0.935620 0.230248 0.287790
O O2 0.937836 0.134908 0.362012
O O3 0.942372 0.126266 0.245058
O O4 0.046146 0.179604 0.290823
O O5 0.625000 0.195199 0.125000
O O6 0.527135 0.228649 0.050812
O O7 0.631707 0.293571 0.070387
O O8 0.638218 0.204966 0.994806
O O9 0.335501 0.464428 0.012648
O O10 0.413808 0.415848 0.923721
O O11 0.500000 0.750000 0.750000
O O12 0.449762 0.770360 0.632363
O O13 0.405060 0.687579 0.695722
O O14 0.089839 0.430426 0.806453
O O15 0.328342 0.125000 0.125000
#
# Coordination Sequence:
#
# PCOD9514498 Si02
#       8
#    32  32  32  32   8  32  16  32
#     4  10  20  42  60  89 124 164 218 259 321 385
#     4  10  20  35  63  92 120 169 208 258 316 389
#     4  10  25  42  61  92 126 166 216 281 316 398
#     4  11  19  38  66  92 124 166 216 258 322 393
#     4  12  26  40  64  92 128 172 208 264 358 378
#     4  10  22  42  59  92 132 161 215 268 328 382
#     4  10  19  34  64  87 119 164 209 244 310 394
#     4   9  19  35  62  89 117 163 203 260 312 385
#
# _framework density 22.246687000000001
#
# number of rings (size 3 to 8) (size 9 to 14) (size 15 to 20)
#    0.444    1.481    2.963    0.444    3.111    0.000 
#   13.333    0.741    0.000    0.000    0.000    0.000 
#    0.000    0.000    0.000    0.000    0.000    0.000 
#
# Total GULP energy -300861.973607 kJ/mol
# GULP energy per Si atom -5571.518030 kJ/mol
# Density = 2.219605 g / cm^3
# Si number density = 22.246687 Si / 1000 Ang^3
#
#
#
# Elastic Constant Matrix: (Units=GPa)
#
#
# Indices 1 2 3 4 5 6 
#
# 1 107.9335 -14.0419 15.1592 0.0000 0.0000 0.0000
# 2 -14.0419 51.0410 -11.6475 0.0000 0.0000 0.0000
# 3 15.1592 -11.6475 65.4021 0.0000 0.0000 0.0000
# 4 0.0000 0.0000 0.0000 20.6571 0.0000 0.0000
# 5 0.0000 0.0000 0.0000 0.0000 35.0648 0.0000
# 6 0.0000 0.0000 0.0000 0.0000 0.0000 25.8398
#
#
#
# Elastic Compliance Matrix: (Units=1/GPa)
#
#
# Indices 1 2 3 4 5 6 
#
# 1 0.009824 0.002276 -0.001872 0.000000 0.000000 0.000000
# 2 0.002276 0.020949 0.003203 0.000000 0.000000 0.000000
# 3 -0.001872 0.003203 0.016294 0.000000 0.000000 0.000000
# 4 0.000000 0.000000 0.000000 0.048410 0.000000 0.000000
# 5 0.000000 0.000000 0.000000 0.000000 0.028519 0.000000
# 6 0.000000 0.000000 0.000000 0.000000 0.000000 0.038700
#
#
# Mechanical properties :
#
#
# Convention : Reuss Voigt Hill
#
# Bulk Modulus (GPa) = 18.42245 22.59071 20.50658
# Shear Modulus (GPa) = 28.80596 31.97278 30.38937
#
# Velocity S-wave (km/s) = 3.60230 3.79515 3.69998
# Velocity P-wave (km/s) = 5.05974 5.42041 5.24318
#
# Compressibility (1/GPa) = 0.05428160
#
# Stress axis : x y z
#
# Youngs Moduli (GPa) = 101.79258 47.73475 61.37089
#
# Poissons Ratio (x) = -0.10862 0.11487
# Poissons Ratio (y) = -0.23163 -0.19660
# Poissons Ratio (z) = 0.19053 -0.15291
#
# Static dielectric constant tensor:
#      x y z
#    x 1.826490 0.000000 0.000000 
#    y 0.000000 1.878920 0.000000 
#    z 0.000000 0.000000 1.877570 
# 
# From -- ./inp_files/53107.got.cif
#   From: 2010.05.17/outbox.cif.g08.bks.cpg/sg70_27_cif.got.tgz:53107.got - 2010.06.03 15:57:51.
