data_PCOD9514430
_publ_section_title
;
Structure prediction by ZEFSAII (Michael W. Deem and Ramdas Pophale) SiO2 
 PCOD9514430
Probable space group: F D D D
;
_chemical_formula_sum "Si O2"
_cell_formula_units_Z 96
_cell_length_a 13.705011
_cell_length_b 23.935961
_cell_length_c 11.944730
_cell_angle_alpha 90.000000
_cell_angle_beta 90.000000
_cell_angle_gamma 90.000000
_cell_volume 3918.380391
_symmetry_space_group_name_H-M "F D D D"
_symmetry_group_IT_number 70
_space_group.IT_coordinate_system_code '2'
_symmetry_cell_setting 'orthorhombic'
loop_
_space_group_symop_operation_xyz
x,y,z
1/4-x,1/4-y,z
x,1/4-y,1/4-z
1/4-x,y,1/4-z
-x,-y,-z
3/4+x,3/4+y,-z
-x,3/4+y,3/4+z
3/4+x,-y,3/4+z
x,1/2+y,1/2+z
1/4-x,3/4-y,1/2+z
x,3/4-y,3/4-z
1/4-x,1/2+y,3/4-z
-x,1/2-y,1/2-z
3/4+x,1/4+y,1/2-z
-x,1/4+y,1/4+z
3/4+x,1/2-y,1/4+z
1/2+x,y,1/2+z
3/4-x,1/4-y,1/2+z
1/2+x,1/4-y,3/4-z
3/4-x,y,3/4-z
1/2-x,-y,1/2-z
1/4+x,3/4+y,1/2-z
1/2-x,3/4+y,1/4+z
1/4+x,-y,1/4+z
1/2+x,1/2+y,z
3/4-x,3/4-y,z
1/2+x,3/4-y,1/4-z
3/4-x,1/2+y,1/4-z
1/2-x,1/2-y,-z
1/4+x,1/4+y,-z
1/2-x,1/4+y,3/4+z
1/4+x,1/2-y,3/4+z
loop_
_atom_site_type_symbol
_atom_site_label
_atom_site_fract_x
_atom_site_fract_y
_atom_site_fract_z
Si Si1 0.289041 0.751770 0.126194
Si Si2 0.044574 0.674409 0.949522
Si Si3 0.242593 0.612697 0.502308
O O1 0.261708 0.695819 0.191908
O O2 0.398074 0.773900 0.108037
O O3 0.243197 0.801055 0.202919
O O4 0.250000 0.750000 0.000000
O O5 0.125000 0.625000 0.975297
O O6 0.977686 0.651788 0.850129
O O7 0.125000 0.625000 0.510508
O O8 0.283418 0.625000 0.625000
#
# Coordination Sequence:
#
# PCOD9514430 Si02
#       3
#    32  32  32
#     4  10  19  32  57  85 118 155 203 250 310 371
#     4   9  20  36  60  89 119 160 200 256 317 374
#     4   8  17  34  56  83 114 153 198 248 308 377
#
# _framework density 24.499918000000001
#
# number of rings (size 3 to 8) (size 9 to 14) (size 15 to 20)
#    0.000    3.667    0.000    1.000    0.000   12.000 
#    0.000    0.000   29.333    0.000    0.000    0.000 
#    0.000    0.000    0.000    0.000    0.000    0.000 
#
# Total GULP energy -133845.358234 kJ/mol
# GULP energy per Si atom -5576.889926 kJ/mol
# Density = 2.444415 g / cm^3
# Si number density = 24.499918 Si / 1000 Ang^3
#
#
#
# Elastic Constant Matrix: (Units=GPa)
#
#
# Indices 1 2 3 4 5 6 
#
# 1 81.9447 44.5758 41.6149 0.0000 0.0000 0.0000
# 2 44.5758 115.1609 109.7333 0.0000 0.0000 0.0000
# 3 41.6149 109.7333 246.9733 0.0000 0.0000 0.0000
# 4 0.0000 0.0000 0.0000 62.8866 0.0000 0.0000
# 5 0.0000 0.0000 0.0000 0.0000 6.0743 0.0000
# 6 0.0000 0.0000 0.0000 0.0000 0.0000 23.2973
#
#
#
# Elastic Compliance Matrix: (Units=1/GPa)
#
#
# Indices 1 2 3 4 5 6 
#
# 1 0.015459 -0.006073 0.000093 0.000000 0.000000 0.000000
# 2 -0.006073 0.017445 -0.006728 0.000000 0.000000 0.000000
# 3 0.000093 -0.006728 0.007022 0.000000 0.000000 0.000000
# 4 0.000000 0.000000 0.000000 0.015902 0.000000 0.000000
# 5 0.000000 0.000000 0.000000 0.000000 0.164629 0.000000
# 6 0.000000 0.000000 0.000000 0.000000 0.000000 0.042923
#
#
# Mechanical properties :
#
#
# Convention : Reuss Voigt Hill
#
# Bulk Modulus (GPa) = 68.90722 92.88077 80.89400
# Shear Modulus (GPa) = 17.02809 34.99529 26.01169
#
# Velocity S-wave (km/s) = 2.63920 3.78350 3.26192
# Velocity P-wave (km/s) = 6.12158 7.55509 6.87579
#
# Compressibility (1/GPa) = 0.01451227
#
# Stress axis : x y z
#
# Youngs Moduli (GPa) = 64.68540 57.32394 142.40036
#
# Poissons Ratio (x) = 0.34812 -0.01329
# Poissons Ratio (y) = 0.39283 0.95802
# Poissons Ratio (z) = -0.00604 0.38565
#
# Static dielectric constant tensor:
#      x y z
#    x 2.058110 0.000000 0.000000 
#    y 0.000000 2.077630 0.000000 
#    z 0.000000 0.000000 1.953770 
# 
# From -- ./inp_files/15871.got.cif
#   From: 2010.05.17/outbox.cif.g08.bks.cpg/sg70_8_cif.got.tgz:15871.got - 2010.06.03 15:57:51.
