data_PCOD9514049
_publ_section_title
;
Structure prediction by ZEFSAII (Michael W. Deem and Ramdas Pophale) SiO2 
 PCOD9514049
Probable space group: F D D D
;
_chemical_formula_sum "Si O2"
_cell_formula_units_Z 152
_cell_length_a 29.954596
_cell_length_b 9.687054
_cell_length_c 23.754947
_cell_angle_alpha 90.000000
_cell_angle_beta 90.000000
_cell_angle_gamma 90.000000
_cell_volume 6893.015469
_symmetry_space_group_name_H-M "F D D D"
_symmetry_group_IT_number 70
_space_group.IT_coordinate_system_code '2'
_symmetry_cell_setting 'orthorhombic'
loop_
_space_group_symop_operation_xyz
x,y,z
1/4-x,1/4-y,z
x,1/4-y,1/4-z
1/4-x,y,1/4-z
-x,-y,-z
3/4+x,3/4+y,-z
-x,3/4+y,3/4+z
3/4+x,-y,3/4+z
x,1/2+y,1/2+z
1/4-x,3/4-y,1/2+z
x,3/4-y,3/4-z
1/4-x,1/2+y,3/4-z
-x,1/2-y,1/2-z
3/4+x,1/4+y,1/2-z
-x,1/4+y,1/4+z
3/4+x,1/2-y,1/4+z
1/2+x,y,1/2+z
3/4-x,1/4-y,1/2+z
1/2+x,1/4-y,3/4-z
3/4-x,y,3/4-z
1/2-x,-y,1/2-z
1/4+x,3/4+y,1/2-z
1/2-x,3/4+y,1/4+z
1/4+x,-y,1/4+z
1/2+x,1/2+y,z
3/4-x,3/4-y,z
1/2+x,3/4-y,1/4-z
3/4-x,1/2+y,1/4-z
1/2-x,1/2-y,-z
1/4+x,1/4+y,-z
1/2-x,1/4+y,3/4+z
1/4+x,1/2-y,3/4+z
loop_
_atom_site_type_symbol
_atom_site_label
_atom_site_fract_x
_atom_site_fract_y
_atom_site_fract_z
Si Si1 0.577074 0.358402 0.674879
Si Si2 0.075475 0.061335 0.468092
Si Si3 0.288079 0.625000 0.125000
Si Si4 0.746589 0.766664 0.733514
Si Si5 0.827389 0.202673 0.298055
Si Si6 0.625000 0.125000 0.125000
O O1 0.535871 0.361654 0.715927
O O2 0.564940 0.302804 0.613534
O O3 0.619409 0.279050 0.700291
O O4 0.595209 0.516498 0.661292
O O5 0.125000 0.125000 0.469758
O O6 0.034942 0.166929 0.479058
O O7 0.067531 0.986547 0.408419
O O8 0.071296 0.945233 0.516844
O O9 0.258859 0.693428 0.174195
O O10 0.792782 0.795874 0.764683
#
# Coordination Sequence:
#
# PCOD9514049 Si02
#       6
#    32  32  16  32  32   8
#     4  10  16  25  38  60  91 122 152 181 226 285
#     4  11  19  30  44  66  95 133 161 193 240 297
#     4  10  21  30  43  70 100 126 166 197 236 299
#     4  11  17  28  43  62  95 128 156 189 238 298
#     4   9  18  25  39  62  90 129 156 179 231 289
#     4   8  14  20  32  44  68 112 140 160 198 250
#
# _framework density 22.051307999999999
#
# number of rings (size 3 to 8) (size 9 to 14) (size 15 to 20)
#    0.000    2.105    2.105    8.211    1.474    0.000 
#    0.000    0.000    0.000    0.000    0.000    1.474 
#    0.000    0.000    0.000    0.000    0.000    0.000 
#
# Total GULP energy -212273.456833 kJ/mol
# GULP energy per Si atom -5586.143601 kJ/mol
# Density = 2.200112 g / cm^3
# Si number density = 22.051308 Si / 1000 Ang^3
#
#
#
# Elastic Constant Matrix: (Units=GPa)
#
#
# Indices 1 2 3 4 5 6 
#
# 1 168.8975 48.7013 91.7325 0.0000 0.0000 0.0000
# 2 48.7013 81.4011 28.7482 0.0000 0.0001 0.0000
# 3 91.7325 28.7482 124.8081 0.0000 0.0000 0.0000
# 4 0.0000 0.0000 0.0000 3.0941 0.0000 0.0000
# 5 0.0000 0.0001 0.0000 0.0000 -11.9593 0.0000
# 6 0.0000 0.0000 0.0000 0.0000 0.0000 12.5329
#
#
#
# Elastic Compliance Matrix: (Units=1/GPa)
#
#
# Indices 1 2 3 4 5 6 
#
# 1 0.010952 -0.004038 -0.007119 0.000000 0.000000 0.000000
# 2 -0.004038 0.014862 -0.000455 0.000000 0.000000 0.000000
# 3 -0.007119 -0.000455 0.013350 0.000000 0.000000 0.000000
# 4 0.000000 0.000000 0.000000 0.323199 0.000000 0.000000
# 5 0.000000 0.000000 0.000000 0.000000 -0.083617 0.000000
# 6 0.000000 0.000000 0.000000 0.000000 0.000000 0.079790
#
#
# Mechanical properties :
#
#
# Convention : Reuss Voigt Hill
#
# Bulk Modulus (GPa) = 62.74372 79.27450 71.00911
# Shear Modulus (GPa) = 12.91749 14.46187 13.68968
#
# Velocity S-wave (km/s) = 2.42294 2.56369 2.49431
# Velocity P-wave (km/s) = 6.02850 6.69264 6.36923
#
# Compressibility (1/GPa) = 0.01593785
#
# Stress axis : x y z
#
# Youngs Moduli (GPa) = 91.30930 67.28778 74.90754
#
# Poissons Ratio (x) = 0.27171 0.53329
# Poissons Ratio (y) = 0.36871 0.03411
# Poissons Ratio (z) = 0.65006 0.03064
#
# Static dielectric constant tensor:
#      x y z
#    x 1.824020 0.000000 0.000000 
#    y 0.000000 1.862530 0.000000 
#    z 0.000000 0.000000 1.787250 
# 
# From -- ./inp_files/51492.got.cif
#   From: 2010.05.17/outbox.cif.g08.bks.cpg/sg70_26_cif.got.tgz:51492.got - 2010.06.03 15:57:51.
