data_PCOD9514793
_publ_section_title
;
Structure prediction by ZEFSAII (Michael W. Deem and Ramdas Pophale) SiO2 
 PCOD9514793
Probable space group: F D D D
;
_chemical_formula_sum "Si O2"
_cell_formula_units_Z 216
_cell_length_a 15.135706
_cell_length_b 21.332230
_cell_length_c 28.302146
_cell_angle_alpha 90.000000
_cell_angle_beta 90.000000
_cell_angle_gamma 90.000000
_cell_volume 9138.150530
_symmetry_space_group_name_H-M "F D D D"
_symmetry_group_IT_number 70
_space_group.IT_coordinate_system_code '2'
_symmetry_cell_setting 'orthorhombic'
loop_
_space_group_symop_operation_xyz
x,y,z
1/4-x,1/4-y,z
x,1/4-y,1/4-z
1/4-x,y,1/4-z
-x,-y,-z
3/4+x,3/4+y,-z
-x,3/4+y,3/4+z
3/4+x,-y,3/4+z
x,1/2+y,1/2+z
1/4-x,3/4-y,1/2+z
x,3/4-y,3/4-z
1/4-x,1/2+y,3/4-z
-x,1/2-y,1/2-z
3/4+x,1/4+y,1/2-z
-x,1/4+y,1/4+z
3/4+x,1/2-y,1/4+z
1/2+x,y,1/2+z
3/4-x,1/4-y,1/2+z
1/2+x,1/4-y,3/4-z
3/4-x,y,3/4-z
1/2-x,-y,1/2-z
1/4+x,3/4+y,1/2-z
1/2-x,3/4+y,1/4+z
1/4+x,-y,1/4+z
1/2+x,1/2+y,z
3/4-x,3/4-y,z
1/2+x,3/4-y,1/4-z
3/4-x,1/2+y,1/4-z
1/2-x,1/2-y,-z
1/4+x,1/4+y,-z
1/2-x,1/4+y,3/4+z
1/4+x,1/2-y,3/4+z
loop_
_atom_site_type_symbol
_atom_site_label
_atom_site_fract_x
_atom_site_fract_y
_atom_site_fract_z
Si Si1 0.178142 0.376576 0.765949
Si Si2 0.125000 0.625000 0.125000
Si Si3 0.961654 0.193564 0.779796
Si Si4 0.143829 0.240378 0.943689
Si Si5 0.057148 0.528665 0.195969
Si Si6 0.063934 0.312934 0.164274
Si Si7 0.125000 0.625000 0.973827
Si Si8 0.653877 0.058462 0.543640
O O1 0.079946 0.350772 0.760777
O O2 0.180314 0.439262 0.796926
O O3 0.194016 0.397074 0.711848
O O4 0.243246 0.321609 0.782865
O O5 0.065964 0.580679 0.156455
O O6 0.882822 0.225690 0.808713
O O7 0.000000 0.250000 0.750000
O O8 0.042474 0.156190 0.803367
O O9 0.212367 0.209489 0.906810
O O10 0.039092 0.248581 0.938444
O O11 0.145426 0.202035 0.993360
O O12 0.081736 0.568963 0.243703
O O13 0.125000 0.344907 0.125000
O O14 0.124469 0.251834 0.177414
O O15 0.625000 0.125000 0.564748
#
# Coordination Sequence:
#
# PCOD9514793 Si02
#       8
#    32   8  32  32  32  32  16  32
#     4  11  20  39  65  91 125 168 214 264 319 392
#     4  10  24  44  52  84 126 160 204 252 326 392
#     4  10  20  34  62  95 117 151 210 270 318 362
#     4  11  20  37  65  92 120 167 216 257 320 394
#     4  10  20  37  60  84 122 165 203 260 317 384
#     4  11  25  40  57  96 142 166 207 279 343 383
#     4   9  18  35  58  92 124 142 198 284 318 346
#     4  11  19  38  67  92 117 171 224 257 306 401
#
# _framework density 23.637167999999999
#
# number of rings (size 3 to 8) (size 9 to 14) (size 15 to 20)
#    0.000    1.481    5.926    0.889    0.000    0.296 
#    4.000    1.481    0.000    1.778    0.000    0.000 
#    0.000    0.000    0.000    0.000    0.000    0.000 
#
# Total GULP energy -301116.248598 kJ/mol
# GULP energy per Si atom -5576.226826 kJ/mol
# Density = 2.358337 g / cm^3
# Si number density = 23.637168 Si / 1000 Ang^3
#
#
#
# Elastic Constant Matrix: (Units=GPa)
#
#
# Indices 1 2 3 4 5 6 
#
# 1 201.1724 38.7881 26.6880 0.0000 0.0000 0.0000
# 2 38.7881 89.1969 0.0862 0.0000 0.0000 0.0000
# 3 26.6880 0.0862 34.7691 0.0000 0.0000 0.0000
# 4 0.0000 0.0000 0.0000 7.7296 0.0000 0.0000
# 5 0.0000 0.0000 0.0000 0.0000 14.8988 0.0000
# 6 0.0000 0.0000 0.0000 0.0000 0.0000 29.8648
#
#
#
# Elastic Compliance Matrix: (Units=1/GPa)
#
#
# Indices 1 2 3 4 5 6 
#
# 1 0.006102 -0.002649 -0.004677 0.000000 0.000000 0.000000
# 2 -0.002649 0.012361 0.002003 0.000000 0.000000 0.000000
# 3 -0.004677 0.002003 0.032346 0.000000 0.000000 0.000000
# 4 0.000000 0.000000 0.000000 0.129373 0.000000 0.000000
# 5 0.000000 0.000000 0.000000 0.000000 0.067119 0.000000
# 6 0.000000 0.000000 0.000000 0.000000 0.000000 0.033484
#
#
# Mechanical properties :
#
#
# Convention : Reuss Voigt Hill
#
# Bulk Modulus (GPa) = 24.89891 50.69589 37.79740
# Shear Modulus (GPa) = 16.40308 27.80372 22.10340
#
# Velocity S-wave (km/s) = 2.63716 3.43340 3.06128
# Velocity P-wave (km/s) = 4.45303 6.10014 5.34047
#
# Compressibility (1/GPa) = 0.04016241
#
# Stress axis : x y z
#
# Youngs Moduli (GPa) = 163.87736 80.89850 30.91537
#
# Poissons Ratio (x) = 0.21430 0.14460
# Poissons Ratio (y) = 0.43412 -0.06191
# Poissons Ratio (z) = 0.76650 -0.16202
#
# Static dielectric constant tensor:
#      x y z
#    x 1.950680 0.000000 0.000000 
#    y 0.000000 1.824100 0.000000 
#    z 0.000000 0.000000 1.903660 
# 
# From -- ./inp_files/65976.got.cif
#   From: 2010.05.17/outbox.cif.g08.bks.cpg/sg70_33_cif.got.tgz:65976.got - 2010.06.03 15:57:51.
