data_PCOD9514286
_publ_section_title
;
Structure prediction by ZEFSAII (Michael W. Deem and Ramdas Pophale) SiO2 
 PCOD9514286
Probable space group: F D D D
;
_chemical_formula_sum "Si O2"
_cell_formula_units_Z 192
_cell_length_a 29.179976
_cell_length_b 27.791545
_cell_length_c 11.762390
_cell_angle_alpha 90.000000
_cell_angle_beta 90.000000
_cell_angle_gamma 90.000000
_cell_volume 9538.787992
_symmetry_space_group_name_H-M "F D D D"
_symmetry_group_IT_number 70
_space_group.IT_coordinate_system_code '2'
_symmetry_cell_setting 'orthorhombic'
loop_
_space_group_symop_operation_xyz
x,y,z
1/4-x,1/4-y,z
x,1/4-y,1/4-z
1/4-x,y,1/4-z
-x,-y,-z
3/4+x,3/4+y,-z
-x,3/4+y,3/4+z
3/4+x,-y,3/4+z
x,1/2+y,1/2+z
1/4-x,3/4-y,1/2+z
x,3/4-y,3/4-z
1/4-x,1/2+y,3/4-z
-x,1/2-y,1/2-z
3/4+x,1/4+y,1/2-z
-x,1/4+y,1/4+z
3/4+x,1/2-y,1/4+z
1/2+x,y,1/2+z
3/4-x,1/4-y,1/2+z
1/2+x,1/4-y,3/4-z
3/4-x,y,3/4-z
1/2-x,-y,1/2-z
1/4+x,3/4+y,1/2-z
1/2-x,3/4+y,1/4+z
1/4+x,-y,1/4+z
1/2+x,1/2+y,z
3/4-x,3/4-y,z
1/2+x,3/4-y,1/4-z
3/4-x,1/2+y,1/4-z
1/2-x,1/2-y,-z
1/4+x,1/4+y,-z
1/2-x,1/4+y,3/4+z
1/4+x,1/2-y,3/4+z
loop_
_atom_site_type_symbol
_atom_site_label
_atom_site_fract_x
_atom_site_fract_y
_atom_site_fract_z
Si Si1 0.283196 0.409167 0.546534
Si Si2 0.794054 0.625000 0.625000
Si Si3 0.184167 0.476266 0.321566
Si Si4 0.285563 0.004129 0.914935
Si Si5 0.875000 0.375000 0.089889
Si Si6 0.101690 0.206294 0.005480
Si Si7 0.505239 0.150478 0.510144
O O1 0.240173 0.394469 0.470655
O O2 0.294773 0.464134 0.511714
O O3 0.327937 0.376152 0.521081
O O4 0.267640 0.391879 0.671208
O O5 0.821653 0.580736 0.676047
O O6 0.236115 0.489186 0.361689
O O7 0.180316 0.496331 0.193435
O O8 0.154722 0.499113 0.421692
O O9 0.278720 0.058437 0.961201
O O10 0.870847 0.419359 0.176153
O O11 0.125000 0.216559 0.125000
O O12 0.052925 0.179981 0.028662
O O13 0.489650 0.125000 0.625000
#
# Coordination Sequence:
#
# PCOD9514286 Si02
#       7
#    32  16  32  32  16  32  32
#     4  10  20  32  54  82 117 147 187 235 291 360
#     4  10  18  35  58  80 110 144 202 236 284 340
#     4   9  18  33  56  78 107 149 191 245 281 339
#     4   9  18  33  51  81 112 144 191 237 289 341
#     4  10  21  33  50  82 116 150 168 232 300 348
#     4  10  19  34  53  78 110 147 192 227 287 358
#     4  10  19  33  54  80 114 153 188 241 295 340
#
# _framework density 20.128343000000001
#
# number of rings (size 3 to 8) (size 9 to 14) (size 15 to 20)
#    0.000    2.333    1.667    2.250    7.000    1.000 
#    0.000    1.667    0.000    2.000    0.000    0.000 
#    0.000    0.000    0.000    0.000    0.000    0.000 
#
# Total GULP energy -267439.786764 kJ/mol
# GULP energy per Si atom -5571.662224 kJ/mol
# Density = 2.008253 g / cm^3
# Si number density = 20.128343 Si / 1000 Ang^3
#
#
#
# Elastic Constant Matrix: (Units=GPa)
#
#
# Indices 1 2 3 4 5 6 
#
# 1 16.6270 10.1164 24.5522 -0.0001 0.0001 0.0000
# 2 10.1164 131.2915 71.4507 -0.0001 0.0001 0.0000
# 3 24.5522 71.4507 129.0853 -0.0006 0.0006 -0.0002
# 4 -0.0001 -0.0001 -0.0006 31.9512 0.0004 0.0001
# 5 0.0001 0.0001 0.0006 0.0004 26.8485 0.0000
# 6 0.0000 0.0000 -0.0002 0.0001 0.0000 3.1540
#
#
#
# Elastic Compliance Matrix: (Units=1/GPa)
#
#
# Indices 1 2 3 4 5 6 
#
# 1 0.084563 0.003202 -0.017856 0.000000 0.000000 0.000000
# 2 0.003202 0.011021 -0.006709 0.000000 0.000000 0.000000
# 3 -0.017856 -0.006709 0.014857 0.000000 0.000000 0.000001
# 4 0.000000 0.000000 0.000000 0.031298 0.000000 -0.000001
# 5 0.000000 0.000000 0.000000 0.000000 0.037246 0.000001
# 6 0.000000 0.000000 0.000001 -0.000001 0.000001 0.317060
#
#
# Mechanical properties :
#
#
# Convention : Reuss Voigt Hill
#
# Bulk Modulus (GPa) = 14.76819 54.36027 34.56423
# Shear Modulus (GPa) = 8.90720 23.78305 16.34512
#
# Velocity S-wave (km/s) = 2.10590 3.44113 2.85273
# Velocity P-wave (km/s) = 3.64225 6.54629 5.29717
#
# Compressibility (1/GPa) = 0.06771311
#
# Stress axis : x y z
#
# Youngs Moduli (GPa) = 11.82556 90.73336 67.30894
#
# Poissons Ratio (x) = -0.29051 1.20188
# Poissons Ratio (y) = -0.03786 0.45161
# Poissons Ratio (z) = 0.21116 0.60877
#
# Static dielectric constant tensor:
#      x y z
#    x 1.776240 0.000000 -0.000010 
#    y 0.000000 1.749970 -0.000010 
#    z -0.000010 -0.000010 0.888640 
# 
# From -- ./inp_files/22479.got.cif
#   From: 2010.05.17/outbox.cif.g08.bks.cpg/sg70_12_cif.got.tgz:22479.got - 2010.06.03 15:57:51.
