data_PCOD9514813
_publ_section_title
;
Structure prediction by ZEFSAII (Michael W. Deem and Ramdas Pophale) SiO2 
 PCOD9514813
Probable space group: F D D D
;
_chemical_formula_sum "Si O2"
_cell_formula_units_Z 184
_cell_length_a 28.062094
_cell_length_b 16.335389
_cell_length_c 20.773371
_cell_angle_alpha 90.000000
_cell_angle_beta 90.000000
_cell_angle_gamma 90.000000
_cell_volume 9522.621738
_symmetry_space_group_name_H-M "F D D D"
_symmetry_group_IT_number 70
_space_group.IT_coordinate_system_code '2'
_symmetry_cell_setting 'orthorhombic'
loop_
_space_group_symop_operation_xyz
x,y,z
1/4-x,1/4-y,z
x,1/4-y,1/4-z
1/4-x,y,1/4-z
-x,-y,-z
3/4+x,3/4+y,-z
-x,3/4+y,3/4+z
3/4+x,-y,3/4+z
x,1/2+y,1/2+z
1/4-x,3/4-y,1/2+z
x,3/4-y,3/4-z
1/4-x,1/2+y,3/4-z
-x,1/2-y,1/2-z
3/4+x,1/4+y,1/2-z
-x,1/4+y,1/4+z
3/4+x,1/2-y,1/4+z
1/2+x,y,1/2+z
3/4-x,1/4-y,1/2+z
1/2+x,1/4-y,3/4-z
3/4-x,y,3/4-z
1/2-x,-y,1/2-z
1/4+x,3/4+y,1/2-z
1/2-x,3/4+y,1/4+z
1/4+x,-y,1/4+z
1/2+x,1/2+y,z
3/4-x,3/4-y,z
1/2+x,3/4-y,1/4-z
3/4-x,1/2+y,1/4-z
1/2-x,1/2-y,-z
1/4+x,1/4+y,-z
1/2-x,1/4+y,3/4+z
1/4+x,1/2-y,3/4+z
loop_
_atom_site_type_symbol
_atom_site_label
_atom_site_fract_x
_atom_site_fract_y
_atom_site_fract_z
Si Si1 0.048675 0.735812 0.056289
Si Si2 0.125000 0.125000 0.823250
Si Si3 0.675515 0.375000 0.375000
Si Si4 0.176215 0.885700 0.110407
Si Si5 0.724850 0.375000 0.875000
Si Si6 0.969354 0.961771 0.155404
Si Si7 0.125000 0.125000 0.625000
Si Si8 0.599280 0.805820 0.776236
O O1 0.062040 0.825068 0.080717
O O2 0.091677 0.679171 0.080210
O O3 0.004955 0.698052 0.094788
O O4 0.037561 0.728648 0.981552
O O5 0.075595 0.099258 0.859663
O O6 0.109526 0.209158 0.786777
O O7 0.707587 0.294667 0.382882
O O8 0.641995 0.394954 0.436982
O O9 0.125000 0.928759 0.125000
O O10 0.226012 0.933547 0.102137
O O11 0.164382 0.832192 0.046070
O O12 0.694965 0.416788 0.819122
#
# Coordination Sequence:
#
# PCOD9514813 Si02
#       8
#    32  16  16  32  16  32   8  32
#     4  11  22  35  59  93 128 170 205 255 322 390
#     4  10  21  34  61  88 124 170 197 257 322 394
#     4   9  22  41  65  81 125 175 211 265 320 376
#     4  12  24  39  63  93 130 166 218 273 326 390
#     4  10  20  35  58  91 131 170 199 257 321 394
#     4  11  23  42  62  90 129 169 221 262 322 387
#     4  10  22  34  56  92 136 162 198 238 336 390
#     4  10  21  39  59  94 130 164 213 263 327 397
#
# _framework density 19.322410000000001
#
# number of rings (size 3 to 8) (size 9 to 14) (size 15 to 20)
#    0.000    1.391    2.609    3.652    4.870    1.391 
#    0.000    3.913    0.000    0.000    0.000    0.000 
#    0.000    0.000    0.000    0.000    0.000    0.000 
#
# Total GULP energy -256368.015509 kJ/mol
# GULP energy per Si atom -5573.217728 kJ/mol
# Density = 1.927843 g / cm^3
# Si number density = 19.322410 Si / 1000 Ang^3
#
#
#
# Elastic Constant Matrix: (Units=GPa)
#
#
# Indices 1 2 3 4 5 6 
#
# 1 183.7663 69.5576 31.8711 0.0000 0.0000 0.0000
# 2 69.5576 97.8371 20.6097 0.0000 0.0000 0.0000
# 3 31.8711 20.6097 54.1491 0.0000 0.0000 0.0000
# 4 0.0000 0.0000 0.0000 14.9658 0.0000 0.0000
# 5 0.0000 0.0000 0.0000 0.0000 33.3535 0.0000
# 6 0.0000 0.0000 0.0000 0.0000 0.0000 -106.0692
#
#
#
# Elastic Compliance Matrix: (Units=1/GPa)
#
#
# Indices 1 2 3 4 5 6 
#
# 1 0.007790 -0.004971 -0.002693 0.000000 0.000000 0.000000
# 2 -0.004971 0.014284 -0.002511 0.000000 0.000000 0.000000
# 3 -0.002693 -0.002511 0.021008 0.000000 0.000000 0.000000
# 4 0.000000 0.000000 0.000000 0.066819 0.000000 0.000000
# 5 0.000000 0.000000 0.000000 0.000000 0.029982 0.000000
# 6 0.000000 0.000000 0.000000 0.000000 0.000000 -0.009428
#
#
# Mechanical properties :
#
#
# Convention : Reuss Voigt Hill
#
# Bulk Modulus (GPa) = 43.98964 64.42546 54.20755
# Shear Modulus (GPa) = 31.56880 2.69763 17.13321
#
# Velocity S-wave (km/s) = 4.04640 1.18285 2.98098
# Velocity P-wave (km/s) = 6.68182 5.93972 6.32167
#
# Compressibility (1/GPa) = 0.02273262
#
# Stress axis : x y z
#
# Youngs Moduli (GPa) = 128.36162 70.00670 47.60020
#
# Poissons Ratio (x) = 0.34803 0.12820
# Poissons Ratio (y) = 0.63813 0.11951
# Poissons Ratio (z) = 0.34570 0.17577
#
# Static dielectric constant tensor:
#      x y z
#    x 1.751090 0.000000 0.000000 
#    y 0.000000 1.689330 0.000000 
#    z 0.000000 0.000000 1.677100 
# 
# From -- ./inp_files/36862.got.cif
#   From: 2010.05.17/outbox.cif.g08.bks.cpg/sg70_19_cif.got.tgz:36862.got - 2010.06.03 15:57:51.
