data_PCOD9514593
_publ_section_title
;
Structure prediction by ZEFSAII (Michael W. Deem and Ramdas Pophale) SiO2 
 PCOD9514593
Probable space group: F D D D
;
_chemical_formula_sum "Si O2"
_cell_formula_units_Z 160
_cell_length_a 24.220751
_cell_length_b 19.607686
_cell_length_c 15.329048
_cell_angle_alpha 90.000000
_cell_angle_beta 90.000000
_cell_angle_gamma 90.000000
_cell_volume 7279.962338
_symmetry_space_group_name_H-M "F D D D"
_symmetry_group_IT_number 70
_space_group.IT_coordinate_system_code '2'
_symmetry_cell_setting 'orthorhombic'
loop_
_space_group_symop_operation_xyz
x,y,z
1/4-x,1/4-y,z
x,1/4-y,1/4-z
1/4-x,y,1/4-z
-x,-y,-z
3/4+x,3/4+y,-z
-x,3/4+y,3/4+z
3/4+x,-y,3/4+z
x,1/2+y,1/2+z
1/4-x,3/4-y,1/2+z
x,3/4-y,3/4-z
1/4-x,1/2+y,3/4-z
-x,1/2-y,1/2-z
3/4+x,1/4+y,1/2-z
-x,1/4+y,1/4+z
3/4+x,1/2-y,1/4+z
1/2+x,y,1/2+z
3/4-x,1/4-y,1/2+z
1/2+x,1/4-y,3/4-z
3/4-x,y,3/4-z
1/2-x,-y,1/2-z
1/4+x,3/4+y,1/2-z
1/2-x,3/4+y,1/4+z
1/4+x,-y,1/4+z
1/2+x,1/2+y,z
3/4-x,3/4-y,z
1/2+x,3/4-y,1/4-z
3/4-x,1/2+y,1/4-z
1/2-x,1/2-y,-z
1/4+x,1/4+y,-z
1/2-x,1/4+y,3/4+z
1/4+x,1/2-y,3/4+z
loop_
_atom_site_type_symbol
_atom_site_label
_atom_site_fract_x
_atom_site_fract_y
_atom_site_fract_z
Si Si1 0.703797 0.955337 0.203750
Si Si2 0.407467 0.942946 0.233892
Si Si3 0.869704 0.450308 0.035771
Si Si4 0.283619 0.696274 0.746856
Si Si5 0.871531 0.154435 0.271655
O O1 0.716765 0.950671 0.102315
O O2 0.686691 0.883637 0.249666
O O3 0.750000 0.000000 0.250000
O O4 0.648731 0.998244 0.220416
O O5 0.375000 0.875000 0.260581
O O6 0.402164 0.945825 0.127790
O O7 0.469100 0.938179 0.272610
O O8 0.380960 0.015327 0.258363
O O9 0.875000 0.375000 0.998725
O O10 0.809557 0.484888 0.045260
O O11 0.326081 0.633634 0.727822
O O12 0.875000 0.142415 0.375000
#
# Coordination Sequence:
#
# PCOD9514593 Si02
#       5
#    32  32  32  32  32
#     4  10  19  37  61  92 124 162 201 254 331 384
#     4  11  24  41  63  90 121 172 221 257 313 372
#     4  10  22  38  58  93 130 162 213 260 320 390
#     4  10  22  40  61  91 131 161 204 267 320 377
#     4   9  22  41  62  87 125 163 212 267 321 376
#
# _framework density 21.978135999999999
#
# number of rings (size 3 to 8) (size 9 to 14) (size 15 to 20)
#    0.000    2.000    2.000    1.800    2.800    7.600 
#    0.000    2.000    0.000    0.000    0.000    0.000 
#    0.000    0.000    0.000    0.000    0.000    0.000 
#
# Total GULP energy -223030.013978 kJ/mol
# GULP energy per Si atom -5575.750349 kJ/mol
# Density = 2.192811 g / cm^3
# Si number density = 21.978136 Si / 1000 Ang^3
#
#
#
# Elastic Constant Matrix: (Units=GPa)
#
#
# Indices 1 2 3 4 5 6 
#
# 1 143.4916 64.9321 0.0037 0.0000 0.0000 0.0000
# 2 64.9321 179.1766 -1.5040 0.0000 0.0000 0.0000
# 3 0.0037 -1.5040 32.9308 0.0000 0.0000 0.0000
# 4 0.0000 0.0000 0.0000 21.9719 0.0000 0.0000
# 5 0.0000 0.0000 0.0000 0.0000 18.9617 0.0000
# 6 0.0000 0.0000 0.0000 0.0000 0.0000 22.4602
#
#
#
# Elastic Compliance Matrix: (Units=1/GPa)
#
#
# Indices 1 2 3 4 5 6 
#
# 1 0.008337 -0.003022 -0.000139 0.000000 0.000000 0.000000
# 2 -0.003022 0.006679 0.000305 0.000000 0.000000 0.000000
# 3 -0.000139 0.000305 0.030381 0.000000 0.000000 0.000000
# 4 0.000000 0.000000 0.000000 0.045513 0.000000 0.000000
# 5 0.000000 0.000000 0.000000 0.000000 0.052738 0.000000
# 6 0.000000 0.000000 0.000000 0.000000 0.000000 0.044523
#
#
# Mechanical properties :
#
#
# Convention : Reuss Voigt Hill
#
# Bulk Modulus (GPa) = 25.19877 53.60697 39.40287
# Shear Modulus (GPa) = 24.14174 32.15656 28.14915
#
# Velocity S-wave (km/s) = 3.31787 3.82922 3.58268
# Velocity P-wave (km/s) = 5.11546 6.63284 5.92294
#
# Compressibility (1/GPa) = 0.03968448
#
# Stress axis : x y z
#
# Youngs Moduli (GPa) = 119.95161 149.72500 32.91563
#
# Poissons Ratio (x) = 0.45252 0.00457
# Poissons Ratio (y) = 0.36253 -0.01005
# Poissons Ratio (z) = 0.01667 -0.04572
#
# Static dielectric constant tensor:
#      x y z
#    x 2.005920 0.000000 0.000000 
#    y 0.000000 1.908880 0.000000 
#    z 0.000000 0.000000 1.819720 
# 
# From -- ./inp_files/38434.got.cif
#   From: 2010.05.17/outbox.cif.g08.bks.cpg/sg70_20_cif.got.tgz:38434.got - 2010.06.03 15:57:51.
