data_PCOD9514206
_publ_section_title
;
Structure prediction by ZEFSAII (Michael W. Deem and Ramdas Pophale) SiO2 
 PCOD9514206
Probable space group: F D D D
;
_chemical_formula_sum "Si O2"
_cell_formula_units_Z 144
_cell_length_a 17.262965
_cell_length_b 15.915285
_cell_length_c 21.374783
_cell_angle_alpha 90.000000
_cell_angle_beta 90.000000
_cell_angle_gamma 90.000000
_cell_volume 5872.614925
_symmetry_space_group_name_H-M "F D D D"
_symmetry_group_IT_number 70
_space_group.IT_coordinate_system_code '2'
_symmetry_cell_setting 'orthorhombic'
loop_
_space_group_symop_operation_xyz
x,y,z
1/4-x,1/4-y,z
x,1/4-y,1/4-z
1/4-x,y,1/4-z
-x,-y,-z
3/4+x,3/4+y,-z
-x,3/4+y,3/4+z
3/4+x,-y,3/4+z
x,1/2+y,1/2+z
1/4-x,3/4-y,1/2+z
x,3/4-y,3/4-z
1/4-x,1/2+y,3/4-z
-x,1/2-y,1/2-z
3/4+x,1/4+y,1/2-z
-x,1/4+y,1/4+z
3/4+x,1/2-y,1/4+z
1/2+x,y,1/2+z
3/4-x,1/4-y,1/2+z
1/2+x,1/4-y,3/4-z
3/4-x,y,3/4-z
1/2-x,-y,1/2-z
1/4+x,3/4+y,1/2-z
1/2-x,3/4+y,1/4+z
1/4+x,-y,1/4+z
1/2+x,1/2+y,z
3/4-x,3/4-y,z
1/2+x,3/4-y,1/4-z
3/4-x,1/2+y,1/4-z
1/2-x,1/2-y,-z
1/4+x,1/4+y,-z
1/2-x,1/4+y,3/4+z
1/4+x,1/2-y,3/4+z
loop_
_atom_site_type_symbol
_atom_site_label
_atom_site_fract_x
_atom_site_fract_y
_atom_site_fract_z
Si Si1 0.727926 0.684895 0.909997
Si Si2 0.264103 0.875000 0.875000
Si Si3 0.728536 0.484578 0.535273
Si Si4 0.112664 0.802086 0.921594
Si Si5 0.366539 0.971715 0.286067
O O1 0.739964 0.586168 0.917560
O O2 0.675456 0.716922 0.853502
O O3 0.811481 0.729048 0.916137
O O4 0.681256 0.714786 0.971282
O O5 0.302064 0.936483 0.925450
O O6 0.203663 0.815598 0.913320
O O7 0.665241 0.439417 0.492109
O O8 0.800603 0.506015 0.488550
O O9 0.079425 0.875000 0.875000
O O10 0.375000 0.875000 0.306449
#
# Coordination Sequence:
#
# PCOD9514206 Si02
#       5
#    32  16  32  32  32
#     4  10  18  32  50  80 115 151 194 239 298 380
#     4  10  22  38  54  89 120 155 202 252 308 358
#     4  11  20  34  57  78 118 164 195 252 304 359
#     4  10  20  35  55  86 120 148 195 251 299 375
#     4   9  16  28  51  79 115 151 185 240 316 370
#
# _framework density 24.520592000000001
#
# number of rings (size 3 to 8) (size 9 to 14) (size 15 to 20)
#    0.667    1.333    2.222    5.333    0.000    0.889 
#    0.000    5.556    0.000    0.000    0.000    0.000 
#    0.000    0.000    0.000    0.000    0.000    0.000 
#
# Total GULP energy -201118.084058 kJ/mol
# GULP energy per Si atom -5586.613446 kJ/mol
# Density = 2.446478 g / cm^3
# Si number density = 24.520592 Si / 1000 Ang^3
#
#
#
# Elastic Constant Matrix: (Units=GPa)
#
#
# Indices 1 2 3 4 5 6 
#
# 1 54.4716 9.9584 2.2852 0.0000 0.0000 0.0000
# 2 9.9584 73.3126 29.2826 0.0000 0.0000 0.0000
# 3 2.2852 29.2826 49.9656 0.0000 0.0000 0.0000
# 4 0.0000 0.0000 0.0000 36.7474 0.0000 0.0000
# 5 0.0000 0.0000 0.0000 0.0000 8.5609 0.0000
# 6 0.0000 0.0000 0.0000 0.0000 0.0000 16.8305
#
#
#
# Elastic Compliance Matrix: (Units=1/GPa)
#
#
# Indices 1 2 3 4 5 6 
#
# 1 0.018852 -0.002894 0.000834 0.000000 0.000000 0.000000
# 2 -0.002894 0.018253 -0.010565 0.000000 0.000000 0.000000
# 3 0.000834 -0.010565 0.026167 0.000000 0.000000 0.000000
# 4 0.000000 0.000000 0.000000 0.027213 0.000000 0.000000
# 5 0.000000 0.000000 0.000000 0.000000 0.116811 0.000000
# 6 0.000000 0.000000 0.000000 0.000000 0.000000 0.059416
#
#
# Mechanical properties :
#
#
# Convention : Reuss Voigt Hill
#
# Bulk Modulus (GPa) = 26.30020 28.97803 27.63912
# Shear Modulus (GPa) = 16.41301 21.50935 18.96118
#
# Velocity S-wave (km/s) = 2.59000 2.96496 2.78380
# Velocity P-wave (km/s) = 4.43770 4.85436 4.65070
#
# Compressibility (1/GPa) = 0.03802253
#
# Stress axis : x y z
#
# Youngs Moduli (GPa) = 53.04409 54.78499 38.21566
#
# Poissons Ratio (x) = 0.15854 -0.03186
# Poissons Ratio (y) = 0.15350 0.40375
# Poissons Ratio (z) = -0.04422 0.57880
#
# Static dielectric constant tensor:
#      x y z
#    x 2.001200 0.000000 0.000000 
#    y 0.000000 1.965020 0.000000 
#    z 0.000000 0.000000 1.981640 
# 
# From -- ./inp_files/44647.got.cif
#   From: 2010.05.17/outbox.cif.g08.bks.cpg/sg70_23_cif.got.tgz:44647.got - 2010.06.03 15:57:51.
