data_PCOD9514248
_publ_section_title
;
Structure prediction by ZEFSAII (Michael W. Deem and Ramdas Pophale) SiO2 
 PCOD9514248
Probable space group: F D D D
;
_chemical_formula_sum "Si O2"
_cell_formula_units_Z 160
_cell_length_a 10.303105
_cell_length_b 26.523696
_cell_length_c 35.615783
_cell_angle_alpha 90.000000
_cell_angle_beta 90.000000
_cell_angle_gamma 90.000000
_cell_volume 9732.953847
_symmetry_space_group_name_H-M "F D D D"
_symmetry_group_IT_number 70
_space_group.IT_coordinate_system_code '2'
_symmetry_cell_setting 'orthorhombic'
loop_
_space_group_symop_operation_xyz
x,y,z
1/4-x,1/4-y,z
x,1/4-y,1/4-z
1/4-x,y,1/4-z
-x,-y,-z
3/4+x,3/4+y,-z
-x,3/4+y,3/4+z
3/4+x,-y,3/4+z
x,1/2+y,1/2+z
1/4-x,3/4-y,1/2+z
x,3/4-y,3/4-z
1/4-x,1/2+y,3/4-z
-x,1/2-y,1/2-z
3/4+x,1/4+y,1/2-z
-x,1/4+y,1/4+z
3/4+x,1/2-y,1/4+z
1/2+x,y,1/2+z
3/4-x,1/4-y,1/2+z
1/2+x,1/4-y,3/4-z
3/4-x,y,3/4-z
1/2-x,-y,1/2-z
1/4+x,3/4+y,1/2-z
1/2-x,3/4+y,1/4+z
1/4+x,-y,1/4+z
1/2+x,1/2+y,z
3/4-x,3/4-y,z
1/2+x,3/4-y,1/4-z
3/4-x,1/2+y,1/4-z
1/2-x,1/2-y,-z
1/4+x,1/4+y,-z
1/2-x,1/4+y,3/4+z
1/4+x,1/2-y,3/4+z
loop_
_atom_site_type_symbol
_atom_site_label
_atom_site_fract_x
_atom_site_fract_y
_atom_site_fract_z
Si Si1 0.868190 0.931857 0.004069
Si Si2 0.721060 0.314476 0.372956
Si Si3 0.387318 0.433036 0.253967
Si Si4 0.374011 0.031294 0.708033
Si Si5 0.104360 0.783827 0.796325
O O1 0.875000 0.875000 0.018334
O O2 0.729652 0.941833 0.984873
O O3 0.977175 0.940643 0.972088
O O4 0.894044 0.975091 0.034644
O O5 0.707303 0.375000 0.375000
O O6 0.662071 0.293595 0.334407
O O7 0.651907 0.291879 0.409489
O O8 0.875000 0.302965 0.375000
O O9 0.375000 0.375000 0.242666
O O10 0.382980 0.472388 0.219421
O O11 0.267197 0.448454 0.280659
O O12 0.520218 0.441791 0.276716
#
# Coordination Sequence:
#
# PCOD9514248 Si02
#       5
#    32  32  32  32  32
#     4  10  18  34  54  76 105 137 173 215 251 300
#     4  11  20  33  53  78 108 135 165 219 271 305
#     4  10  20  36  54  76 105 140 175 212 253 306
#     4  10  21  34  53  79 106 135 173 210 258 313
#     4  10  21  32  53  82 103 134 179 211 255 316
#
# _framework density 16.438995999999999
#
# number of rings (size 3 to 8) (size 9 to 14) (size 15 to 20)
#    0.000    1.800    2.000    3.600    0.000    0.800 
#    0.000    3.000    0.000    0.000    0.000    0.000 
#    0.000    0.000    0.000    0.000    0.000    0.000 
#
# Total GULP energy -223288.640537 kJ/mol
# GULP energy per Si atom -5582.216013 kJ/mol
# Density = 1.640158 g / cm^3
# Si number density = 16.438996 Si / 1000 Ang^3
#
#
#
# Elastic Constant Matrix: (Units=GPa)
#
#
# Indices 1 2 3 4 5 6 
#
# 1 51.1137 8.2421 -2.0076 0.0000 0.0000 0.0000
# 2 8.2421 128.3445 33.6868 0.0000 0.0000 0.0000
# 3 -2.0076 33.6868 94.2454 0.0000 0.0000 0.0000
# 4 0.0000 0.0000 0.0000 8.7333 0.0000 0.0000
# 5 0.0000 0.0000 0.0000 0.0000 15.7535 0.0000
# 6 0.0000 0.0000 0.0000 0.0000 0.0000 12.2251
#
#
#
# Elastic Compliance Matrix: (Units=1/GPa)
#
#
# Indices 1 2 3 4 5 6 
#
# 1 0.019849 -0.001529 0.000969 0.000000 0.000000 0.000000
# 2 -0.001529 0.008716 -0.003148 0.000000 0.000000 0.000000
# 3 0.000969 -0.003148 0.011756 0.000000 0.000000 0.000000
# 4 0.000000 0.000000 0.000000 0.114504 0.000000 0.000000
# 5 0.000000 0.000000 0.000000 0.000000 0.063478 0.000000
# 6 0.000000 0.000000 0.000000 0.000000 0.000000 0.081799
#
#
# Mechanical properties :
#
#
# Convention : Reuss Voigt Hill
#
# Bulk Modulus (GPa) = 30.38972 39.28291 34.83631
# Shear Modulus (GPa) = 15.69925 22.92786 19.31355
#
# Velocity S-wave (km/s) = 3.09366 3.73865 3.43134
# Velocity P-wave (km/s) = 5.59352 6.52570 6.07751
#
# Compressibility (1/GPa) = 0.03290587
#
# Stress axis : x y z
#
# Youngs Moduli (GPa) = 50.38073 114.73176 85.05962
#
# Poissons Ratio (x) = 0.17544 -0.08245
# Poissons Ratio (y) = 0.07704 0.26777
# Poissons Ratio (z) = -0.04884 0.36117
#
# Static dielectric constant tensor:
#      x y z
#    x 1.554500 0.000000 0.000000 
#    y 0.000000 1.564610 0.000000 
#    z 0.000000 0.000000 1.512210 
# 
# From -- ./inp_files/21093.got.cif
#   From: 2010.05.17/outbox.cif.g08.bks.cpg/sg70_11_cif.got.tgz:21093.got - 2010.06.03 15:57:51.
