data_PCOD9514153
_publ_section_title
;
Structure prediction by ZEFSAII (Michael W. Deem and Ramdas Pophale) SiO2 
 PCOD9514153
Probable space group: F D D D
;
_chemical_formula_sum "Si O2"
_cell_formula_units_Z 112
_cell_length_a 24.901652
_cell_length_b 20.122865
_cell_length_c 10.321686
_cell_angle_alpha 90.000000
_cell_angle_beta 90.000000
_cell_angle_gamma 90.000000
_cell_volume 5172.120283
_symmetry_space_group_name_H-M "F D D D"
_symmetry_group_IT_number 70
_space_group.IT_coordinate_system_code '2'
_symmetry_cell_setting 'orthorhombic'
loop_
_space_group_symop_operation_xyz
x,y,z
1/4-x,1/4-y,z
x,1/4-y,1/4-z
1/4-x,y,1/4-z
-x,-y,-z
3/4+x,3/4+y,-z
-x,3/4+y,3/4+z
3/4+x,-y,3/4+z
x,1/2+y,1/2+z
1/4-x,3/4-y,1/2+z
x,3/4-y,3/4-z
1/4-x,1/2+y,3/4-z
-x,1/2-y,1/2-z
3/4+x,1/4+y,1/2-z
-x,1/4+y,1/4+z
3/4+x,1/2-y,1/4+z
1/2+x,y,1/2+z
3/4-x,1/4-y,1/2+z
1/2+x,1/4-y,3/4-z
3/4-x,y,3/4-z
1/2-x,-y,1/2-z
1/4+x,3/4+y,1/2-z
1/2-x,3/4+y,1/4+z
1/4+x,-y,1/4+z
1/2+x,1/2+y,z
3/4-x,3/4-y,z
1/2+x,3/4-y,1/4-z
3/4-x,1/2+y,1/4-z
1/2-x,1/2-y,-z
1/4+x,1/4+y,-z
1/2-x,1/4+y,3/4+z
1/4+x,1/2-y,3/4+z
loop_
_atom_site_type_symbol
_atom_site_label
_atom_site_fract_x
_atom_site_fract_y
_atom_site_fract_z
Si Si1 0.106842 0.448475 0.426513
Si Si2 0.923316 0.918683 0.161377
Si Si3 0.284226 0.724786 0.323312
Si Si4 0.792394 0.375000 0.375000
O O1 0.104600 0.375000 0.375000
O O2 0.095132 0.505634 0.324775
O O3 0.062404 0.456593 0.539843
O O4 0.166181 0.465590 0.477572
O O5 0.875000 0.875000 0.217020
O O6 0.985306 0.924568 0.204752
O O7 0.927872 0.898316 0.007617
O O8 0.267790 0.803307 0.330473
#
# Coordination Sequence:
#
# PCOD9514153 Si02
#       4
#    32  32  32  16
#     4  10  21  36  55  86 120 150 187 237 284 341
#     4  11  21  33  58  86 117 147 185 240 296 334
#     4  10  22  33  59  90 116 146 192 234 297 342
#     4  10  17  36  54  90 116 136 186 251 296 332
#
# _framework density 21.654563
#
# number of rings (size 3 to 8) (size 9 to 14) (size 15 to 20)
#    0.000    1.714    2.857    3.857    8.000    0.000 
#    0.000    1.429    0.000    0.857    0.000    0.000 
#    0.000    0.000    0.000    0.000    0.000    0.000 
#
# Total GULP energy -155872.828717 kJ/mol
# GULP energy per Si atom -5566.886740 kJ/mol
# Density = 2.160528 g / cm^3
# Si number density = 21.654563 Si / 1000 Ang^3
#
#
#
# Elastic Constant Matrix: (Units=GPa)
#
#
# Indices 1 2 3 4 5 6 
#
# 1 170.2516 58.4330 1.1939 0.0000 0.0000 0.0000
# 2 58.4330 141.0814 10.7757 0.0000 0.0000 0.0000
# 3 1.1939 10.7757 12.3255 -0.0001 0.0000 0.0000
# 4 0.0000 0.0000 -0.0001 25.8501 0.0000 0.0000
# 5 0.0000 0.0000 0.0000 0.0000 21.3050 0.0000
# 6 0.0000 0.0000 0.0000 0.0000 0.0000 36.1826
#
#
#
# Elastic Compliance Matrix: (Units=1/GPa)
#
#
# Indices 1 2 3 4 5 6 
#
# 1 0.006891 -0.003004 0.001958 0.000000 0.000000 0.000000
# 2 -0.003004 0.008905 -0.007494 0.000000 0.000000 0.000000
# 3 0.001958 -0.007494 0.087494 0.000000 0.000000 0.000000
# 4 0.000000 0.000000 0.000000 0.038685 0.000000 0.000000
# 5 0.000000 0.000000 0.000000 0.000000 0.046937 0.000000
# 6 0.000000 0.000000 0.000000 0.000000 0.000000 0.027638
#
#
# Mechanical properties :
#
#
# Convention : Reuss Voigt Hill
#
# Bulk Modulus (GPa) = 11.59936 51.60708 31.60322
# Shear Modulus (GPa) = 19.05744 33.55127 26.30436
#
# Velocity S-wave (km/s) = 2.96981 3.94049 3.48907
# Velocity P-wave (km/s) = 4.13858 6.67735 5.55495
#
# Compressibility (1/GPa) = 0.08621168
#
# Stress axis : x y z
#
# Youngs Moduli (GPa) = 145.12073 112.30248 11.42929
#
# Poissons Ratio (x) = 0.33731 -0.02238
# Poissons Ratio (y) = 0.43589 0.08565
# Poissons Ratio (z) = -0.28421 0.84159
#
# Static dielectric constant tensor:
#      x y z
#    x 1.861540 0.000000 0.000000 
#    y 0.000000 1.796240 0.000000 
#    z 0.000000 0.000000 1.807170 
# 
# From -- ./inp_files/16257.got.cif
#   From: 2010.05.17/outbox.cif.g08.bks.cpg/sg70_9_cif.got.tgz:16257.got - 2010.06.03 15:57:51.
