data_PCOD9514875
_publ_section_title
;
Structure prediction by ZEFSAII (Michael W. Deem and Ramdas Pophale) SiO2 
 PCOD9514875
Probable space group: F D D D
;
_chemical_formula_sum "Si O2"
_cell_formula_units_Z 176
_cell_length_a 10.254178
_cell_length_b 26.155538
_cell_length_c 27.645366
_cell_angle_alpha 90.000000
_cell_angle_beta 90.000000
_cell_angle_gamma 90.000000
_cell_volume 7414.585090
_symmetry_space_group_name_H-M "F D D D"
_symmetry_group_IT_number 70
_space_group.IT_coordinate_system_code '2'
_symmetry_cell_setting 'orthorhombic'
loop_
_space_group_symop_operation_xyz
x,y,z
1/4-x,1/4-y,z
x,1/4-y,1/4-z
1/4-x,y,1/4-z
-x,-y,-z
3/4+x,3/4+y,-z
-x,3/4+y,3/4+z
3/4+x,-y,3/4+z
x,1/2+y,1/2+z
1/4-x,3/4-y,1/2+z
x,3/4-y,3/4-z
1/4-x,1/2+y,3/4-z
-x,1/2-y,1/2-z
3/4+x,1/4+y,1/2-z
-x,1/4+y,1/4+z
3/4+x,1/2-y,1/4+z
1/2+x,y,1/2+z
3/4-x,1/4-y,1/2+z
1/2+x,1/4-y,3/4-z
3/4-x,y,3/4-z
1/2-x,-y,1/2-z
1/4+x,3/4+y,1/2-z
1/2-x,3/4+y,1/4+z
1/4+x,-y,1/4+z
1/2+x,1/2+y,z
3/4-x,3/4-y,z
1/2+x,3/4-y,1/4-z
3/4-x,1/2+y,1/4-z
1/2-x,1/2-y,-z
1/4+x,1/4+y,-z
1/2-x,1/4+y,3/4+z
1/4+x,1/2-y,3/4+z
loop_
_atom_site_type_symbol
_atom_site_label
_atom_site_fract_x
_atom_site_fract_y
_atom_site_fract_z
Si Si1 0.850020 0.017286 0.611698
Si Si2 0.583196 0.312728 0.261304
Si Si3 0.875000 0.063017 0.875000
Si Si4 0.125000 0.625000 0.043558
Si Si5 0.400439 0.125000 0.125000
Si Si6 0.802132 0.168004 0.480671
Si Si7 0.944444 0.489442 0.213879
O O1 0.911632 0.029621 0.560332
O O2 0.810269 0.075292 0.625116
O O3 0.739310 0.975448 0.609182
O O4 0.935641 0.000327 0.657013
O O5 0.435539 0.332434 0.258146
O O6 0.670816 0.365251 0.258600
O O7 0.659779 0.277878 0.224156
O O8 0.837402 0.092069 0.825921
O O9 0.246067 0.617867 0.080636
O O10 0.893305 0.211771 0.505295
O O11 0.659467 0.194530 0.478435
#
# Coordination Sequence:
#
# PCOD9514875 Si02
#       7
#    32  32  16  16  16  32  32
#     4  10  20  36  62  98 134 175 230 292 367 430
#     4  11  21  40  66  94 133 186 230 294 373 420
#     4  10  20  39  62  96 140 182 222 299 364 438
#     4   9  20  36  60  86 128 178 230 288 348 425
#     4   9  18  37  58  88 131 174 230 299 352 413
#     4  10  21  37  63  96 137 174 230 295 358 445
#     4  10  20  37  63 102 133 174 234 298 360 441
#
# _framework density 23.736999000000001
#
# number of rings (size 3 to 8) (size 9 to 14) (size 15 to 20)
#    0.000    2.000    1.818    2.727    0.000    0.364 
#    6.545    3.636   12.000    0.000    0.000    0.000 
#    0.000    0.000    0.000    0.000    0.000    0.000 
#
# Total GULP energy -245216.446262 kJ/mol
# GULP energy per Si atom -5573.101051 kJ/mol
# Density = 2.368297 g / cm^3
# Si number density = 23.736999 Si / 1000 Ang^3
#
#
#
# Elastic Constant Matrix: (Units=GPa)
#
#
# Indices 1 2 3 4 5 6 
#
# 1 77.8463 45.9349 71.1789 0.0000 0.0000 0.0000
# 2 45.9349 85.4064 37.1094 0.0000 0.0000 0.0000
# 3 71.1789 37.1094 127.6913 0.0000 0.0000 0.0000
# 4 0.0000 0.0000 0.0000 29.4375 0.0000 0.0000
# 5 0.0000 0.0000 0.0000 0.0000 15.7368 0.0000
# 6 0.0000 0.0000 0.0000 0.0000 0.0000 72.7568
#
#
#
# Elastic Compliance Matrix: (Units=1/GPa)
#
#
# Indices 1 2 3 4 5 6 
#
# 1 0.033754 -0.011421 -0.015497 0.000000 0.000000 0.000000
# 2 -0.011421 0.017265 0.001349 0.000000 0.000000 0.000000
# 3 -0.015497 0.001349 0.016078 0.000000 0.000000 0.000000
# 4 0.000000 0.000000 0.000000 0.033970 0.000000 0.000000
# 5 0.000000 0.000000 0.000000 0.000000 0.063545 0.000000
# 6 0.000000 0.000000 0.000000 0.000000 0.000000 0.013744
#
#
# Mechanical properties :
#
#
# Convention : Reuss Voigt Hill
#
# Bulk Modulus (GPa) = 62.65756 66.59895 64.62825
# Shear Modulus (GPa) = 21.29335 32.70092 26.99713
#
# Velocity S-wave (km/s) = 2.99833 3.71568 3.37611
# Velocity P-wave (km/s) = 6.20005 6.82102 6.51793
#
# Compressibility (1/GPa) = 0.01595977
#
# Stress axis : x y z
#
# Youngs Moduli (GPa) = 29.62574 57.91937 62.19826
#
# Poissons Ratio (x) = 0.66151 0.96386
# Poissons Ratio (y) = 0.33836 -0.08390
# Poissons Ratio (z) = 0.45910 -0.07813
#
# Static dielectric constant tensor:
#      x y z
#    x 1.890920 0.000000 0.000000 
#    y 0.000000 1.984620 0.000000 
#    z 0.000000 0.000000 1.989620 
# 
# From -- ./inp_files/64951.got.cif
#   From: 2010.05.17/outbox.cif.g08.bks.cpg/sg70_33_cif.got.tgz:64951.got - 2010.06.03 15:57:51.
