data_PCOD9514821
_publ_section_title
;
Structure prediction by ZEFSAII (Michael W. Deem and Ramdas Pophale) SiO2 
 PCOD9514821
Probable space group: F D D D
;
_chemical_formula_sum "Si O2"
_cell_formula_units_Z 176
_cell_length_a 16.897755
_cell_length_b 25.117056
_cell_length_c 20.317418
_cell_angle_alpha 90.000000
_cell_angle_beta 90.000000
_cell_angle_gamma 90.000000
_cell_volume 8623.156310
_symmetry_space_group_name_H-M "F D D D"
_symmetry_group_IT_number 70
_space_group.IT_coordinate_system_code '2'
_symmetry_cell_setting 'orthorhombic'
loop_
_space_group_symop_operation_xyz
x,y,z
1/4-x,1/4-y,z
x,1/4-y,1/4-z
1/4-x,y,1/4-z
-x,-y,-z
3/4+x,3/4+y,-z
-x,3/4+y,3/4+z
3/4+x,-y,3/4+z
x,1/2+y,1/2+z
1/4-x,3/4-y,1/2+z
x,3/4-y,3/4-z
1/4-x,1/2+y,3/4-z
-x,1/2-y,1/2-z
3/4+x,1/4+y,1/2-z
-x,1/4+y,1/4+z
3/4+x,1/2-y,1/4+z
1/2+x,y,1/2+z
3/4-x,1/4-y,1/2+z
1/2+x,1/4-y,3/4-z
3/4-x,y,3/4-z
1/2-x,-y,1/2-z
1/4+x,3/4+y,1/2-z
1/2-x,3/4+y,1/4+z
1/4+x,-y,1/4+z
1/2+x,1/2+y,z
3/4-x,3/4-y,z
1/2+x,3/4-y,1/4-z
3/4-x,1/2+y,1/4-z
1/2-x,1/2-y,-z
1/4+x,1/4+y,-z
1/2-x,1/4+y,3/4+z
1/4+x,1/2-y,3/4+z
loop_
_atom_site_type_symbol
_atom_site_label
_atom_site_fract_x
_atom_site_fract_y
_atom_site_fract_z
Si Si1 0.172930 0.449776 0.061013
Si Si2 0.875000 0.979202 0.875000
Si Si3 0.956795 0.408828 0.464985
Si Si4 0.462016 0.898878 0.606233
Si Si5 0.131893 0.879766 0.798384
Si Si6 0.524730 0.463778 0.229040
O O1 0.125000 0.470257 0.125000
O O2 0.225601 0.399642 0.090729
O O3 0.112363 0.428486 0.004080
O O4 0.227484 0.494103 0.024523
O O5 0.947925 0.945806 0.902345
O O6 0.904899 0.008634 0.811151
O O7 0.875000 0.375000 0.465298
O O8 0.962869 0.432866 0.538325
O O9 0.037195 0.377495 0.455418
O O10 0.375000 0.875000 0.612794
O O11 0.477829 0.934479 0.669846
O O12 0.152252 0.875000 0.875000
O O13 0.183286 0.832318 0.769200
#
# Coordination Sequence:
#
# PCOD9514821 Si02
#       6
#    32  16  32  32  32  32
#     4  11  23  45  69  97 143 184 227 294 357 422
#     4  12  21  34  58 100 136 154 216 280 337 444
#     4  10  20  35  61  93 133 175 206 267 357 414
#     4  10  22  43  64  92 132 173 225 288 339 412
#     4  11  23  42  65  93 136 173 228 290 334 417
#     4  12  25  40  67  98 127 188 237 277 369 409
#
# _framework density 20.410159
#
# number of rings (size 3 to 8) (size 9 to 14) (size 15 to 20)
#    0.000    1.091    1.818    7.909    0.000    7.273 
#    3.273    1.818    0.000    0.000    0.000    0.000 
#    0.000    0.000    0.000    0.000    0.000    0.000 
#
# Total GULP energy -245113.145817 kJ/mol
# GULP energy per Si atom -5570.753314 kJ/mol
# Density = 2.036370 g / cm^3
# Si number density = 20.410159 Si / 1000 Ang^3
#
#
#
# Elastic Constant Matrix: (Units=GPa)
#
#
# Indices 1 2 3 4 5 6 
#
# 1 22.2817 16.3017 31.1396 0.0000 0.0000 0.0000
# 2 16.3017 59.9604 47.0203 0.0000 0.0000 0.0000
# 3 31.1396 47.0203 181.2458 0.0000 0.0000 0.0000
# 4 0.0000 0.0000 0.0000 520.9456 0.0000 0.0000
# 5 0.0000 0.0000 0.0000 0.0000 23.0314 0.0000
# 6 0.0000 0.0000 0.0000 0.0000 0.0000 84.9419
#
#
#
# Elastic Compliance Matrix: (Units=1/GPa)
#
#
# Indices 1 2 3 4 5 6 
#
# 1 0.064450 -0.011096 -0.008194 0.000000 0.000000 0.000000
# 2 -0.011096 0.022848 -0.004021 0.000000 0.000000 0.000000
# 3 -0.008194 -0.004021 0.007968 0.000000 0.000000 0.000000
# 4 0.000000 0.000000 0.000000 0.001920 0.000000 0.000000
# 5 0.000000 0.000000 0.000000 0.000000 0.043419 0.000000
# 6 0.000000 0.000000 0.000000 0.000000 0.000000 0.011773
#
#
# Mechanical properties :
#
#
# Convention : Reuss Voigt Hill
#
# Bulk Modulus (GPa) = 20.55803 50.26790 35.41296
# Shear Modulus (GPa) = 23.23261 137.05221 80.14241
#
# Velocity S-wave (km/s) = 3.37751 8.20334 6.27305
# Velocity P-wave (km/s) = 5.03035 10.69620 8.35802
#
# Compressibility (1/GPa) = 0.04864280
#
# Stress axis : x y z
#
# Youngs Moduli (GPa) = 15.51591 43.76822 125.49642
#
# Poissons Ratio (x) = 0.48567 1.02836
# Poissons Ratio (y) = 0.17217 0.50461
# Poissons Ratio (z) = 0.12714 0.17599
#
# Static dielectric constant tensor:
#      x y z
#    x 1.666390 0.000000 0.000000 
#    y 0.000000 1.855390 0.000000 
#    z 0.000000 0.000000 1.864950 
# 
# From -- ./inp_files/35252.got.cif
#   From: 2010.05.17/outbox.cif.g08.bks.cpg/sg70_18_cif.got.tgz:35252.got - 2010.06.03 15:57:51.
