data_PCOD9514245
_publ_section_title
;
Structure prediction by ZEFSAII (Michael W. Deem and Ramdas Pophale) SiO2 
 PCOD9514245
Probable space group: F D D D
;
_chemical_formula_sum "Si O2"
_cell_formula_units_Z 128
_cell_length_a 25.413183
_cell_length_b 8.532023
_cell_length_c 23.431665
_cell_angle_alpha 90.000000
_cell_angle_beta 90.000000
_cell_angle_gamma 90.000000
_cell_volume 5080.590958
_symmetry_space_group_name_H-M "F D D D"
_symmetry_group_IT_number 70
_space_group.IT_coordinate_system_code '2'
_symmetry_cell_setting 'orthorhombic'
loop_
_space_group_symop_operation_xyz
x,y,z
1/4-x,1/4-y,z
x,1/4-y,1/4-z
1/4-x,y,1/4-z
-x,-y,-z
3/4+x,3/4+y,-z
-x,3/4+y,3/4+z
3/4+x,-y,3/4+z
x,1/2+y,1/2+z
1/4-x,3/4-y,1/2+z
x,3/4-y,3/4-z
1/4-x,1/2+y,3/4-z
-x,1/2-y,1/2-z
3/4+x,1/4+y,1/2-z
-x,1/4+y,1/4+z
3/4+x,1/2-y,1/4+z
1/2+x,y,1/2+z
3/4-x,1/4-y,1/2+z
1/2+x,1/4-y,3/4-z
3/4-x,y,3/4-z
1/2-x,-y,1/2-z
1/4+x,3/4+y,1/2-z
1/2-x,3/4+y,1/4+z
1/4+x,-y,1/4+z
1/2+x,1/2+y,z
3/4-x,3/4-y,z
1/2+x,3/4-y,1/4-z
3/4-x,1/2+y,1/4-z
1/2-x,1/2-y,-z
1/4+x,1/4+y,-z
1/2-x,1/4+y,3/4+z
1/4+x,1/2-y,3/4+z
loop_
_atom_site_type_symbol
_atom_site_label
_atom_site_fract_x
_atom_site_fract_y
_atom_site_fract_z
Si Si1 0.551147 0.047297 0.318915
Si Si2 0.044780 0.354598 0.219023
Si Si3 0.541736 0.898735 0.808463
Si Si4 0.875000 0.875000 0.076927
Si Si5 0.954608 0.375000 0.375000
O O1 0.545043 0.218540 0.290296
O O2 0.584642 0.048556 0.377037
O O3 0.575510 0.932644 0.271584
O O4 0.493776 0.985918 0.337712
O O5 0.070708 0.246933 0.170160
O O6 0.000000 0.250000 0.250000
O O7 0.012170 0.503279 0.194232
O O8 0.554076 0.875000 0.875000
O O9 0.587348 0.016959 0.788756
#
# Coordination Sequence:
#
# PCOD9514245 Si02
#       5
#    32  32  32  16  16
#     4  10  21  31  54  79 117 150 194 239 292 354
#     4  10  20  32  51  78 117 149 193 238 290 353
#     4  10  19  34  53  78 117 153 182 235 303 353
#     4  10  20  32  56  84 117 153 186 250 312 352
#     4  10  18  34  48  78 116 155 190 238 294 345
#
# _framework density 25.193919999999999
#
# number of rings (size 3 to 8) (size 9 to 14) (size 15 to 20)
#    0.000    2.000    5.000    0.750    5.250    0.000 
#    0.000    0.000    0.000    0.000    0.000    0.875 
#   30.000    9.750    0.000    0.000    0.000    0.000 
#
# Total GULP energy -178492.093553 kJ/mol
# GULP energy per Si atom -5577.877924 kJ/mol
# Density = 2.513658 g / cm^3
# Si number density = 25.193920 Si / 1000 Ang^3
#
#
#
# Elastic Constant Matrix: (Units=GPa)
#
#
# Indices 1 2 3 4 5 6 
#
# 1 31.6603 22.1971 4.6270 0.0000 0.0000 0.0000
# 2 22.1971 166.2601 57.5986 0.0000 0.0000 0.0000
# 3 4.6270 57.5986 82.5104 0.0000 0.0000 0.0000
# 4 0.0000 0.0000 0.0000 48.7889 0.0000 0.0000
# 5 0.0000 0.0000 0.0000 0.0000 21.7382 0.0000
# 6 0.0000 0.0000 0.0000 0.0000 0.0000 32.6265
#
#
#
# Elastic Compliance Matrix: (Units=1/GPa)
#
#
# Indices 1 2 3 4 5 6 
#
# 1 0.035030 -0.005271 0.001715 0.000000 0.000000 0.000000
# 2 -0.005271 0.008726 -0.005796 0.000000 0.000000 0.000000
# 3 0.001715 -0.005796 0.016070 0.000000 0.000000 0.000000
# 4 0.000000 0.000000 0.000000 0.020496 0.000000 0.000000
# 5 0.000000 0.000000 0.000000 0.000000 0.046002 0.000000
# 6 0.000000 0.000000 0.000000 0.000000 0.000000 0.030650
#
#
# Mechanical properties :
#
#
# Convention : Reuss Voigt Hill
#
# Bulk Modulus (GPa) = 24.31772 49.91957 37.11865
# Shear Modulus (GPa) = 26.40112 33.69793 30.04953
#
# Velocity S-wave (km/s) = 3.24067 3.66121 3.45734
# Velocity P-wave (km/s) = 4.86577 6.14246 5.54101
#
# Compressibility (1/GPa) = 0.04112227
#
# Stress axis : x y z
#
# Youngs Moduli (GPa) = 28.54684 114.59515 62.22919
#
# Poissons Ratio (x) = 0.60403 -0.10673
# Poissons Ratio (y) = 0.15047 0.36069
# Poissons Ratio (z) = -0.04896 0.66420
#
# Static dielectric constant tensor:
#      x y z
#    x 2.025350 0.000000 0.000000 
#    y 0.000000 2.299340 0.000000 
#    z 0.000000 0.000000 2.042790 
# 
# From -- ./inp_files/11053.got.cif
#   From: 2010.05.17/outbox.cif.g08.bks.cpg/sg70_6_cif.got.tgz:11053.got - 2010.06.03 15:57:51.
