data_PCOD9514315
_publ_section_title
;
Structure prediction by ZEFSAII (Michael W. Deem and Ramdas Pophale) SiO2 
 PCOD9514315
Probable space group: F D D D
;
_chemical_formula_sum "Si O2"
_cell_formula_units_Z 160
_cell_length_a 17.098904
_cell_length_b 19.752275
_cell_length_c 21.008582
_cell_angle_alpha 90.000000
_cell_angle_beta 90.000000
_cell_angle_gamma 90.000000
_cell_volume 7095.485838
_symmetry_space_group_name_H-M "F D D D"
_symmetry_group_IT_number 70
_space_group.IT_coordinate_system_code '2'
_symmetry_cell_setting 'orthorhombic'
loop_
_space_group_symop_operation_xyz
x,y,z
1/4-x,1/4-y,z
x,1/4-y,1/4-z
1/4-x,y,1/4-z
-x,-y,-z
3/4+x,3/4+y,-z
-x,3/4+y,3/4+z
3/4+x,-y,3/4+z
x,1/2+y,1/2+z
1/4-x,3/4-y,1/2+z
x,3/4-y,3/4-z
1/4-x,1/2+y,3/4-z
-x,1/2-y,1/2-z
3/4+x,1/4+y,1/2-z
-x,1/4+y,1/4+z
3/4+x,1/2-y,1/4+z
1/2+x,y,1/2+z
3/4-x,1/4-y,1/2+z
1/2+x,1/4-y,3/4-z
3/4-x,y,3/4-z
1/2-x,-y,1/2-z
1/4+x,3/4+y,1/2-z
1/2-x,3/4+y,1/4+z
1/4+x,-y,1/4+z
1/2+x,1/2+y,z
3/4-x,3/4-y,z
1/2+x,3/4-y,1/4-z
3/4-x,1/2+y,1/4-z
1/2-x,1/2-y,-z
1/4+x,1/4+y,-z
1/2-x,1/4+y,3/4+z
1/4+x,1/2-y,3/4+z
loop_
_atom_site_type_symbol
_atom_site_label
_atom_site_fract_x
_atom_site_fract_y
_atom_site_fract_z
Si Si1 0.375000 0.375000 0.770053
Si Si2 0.916140 0.591694 0.194094
Si Si3 0.284889 0.598394 0.799572
Si Si4 0.048581 0.196435 0.711736
Si Si5 0.541913 0.502822 0.681222
Si Si6 0.875000 0.987146 0.875000
O O1 0.302872 0.400395 0.727114
O O2 0.350485 0.313480 0.817908
O O3 0.898677 0.625000 0.125000
O O4 0.842352 0.594654 0.238986
O O5 0.993311 0.631329 0.220125
O O6 0.951268 0.516341 0.196513
O O7 0.303074 0.673100 0.827090
O O8 0.308181 0.537969 0.847580
O O9 0.139966 0.213370 0.725053
O O10 0.046876 0.210487 0.636746
O O11 0.000000 0.250000 0.750000
#
# Coordination Sequence:
#
# PCOD9514315 Si02
#       6
#    16  32  32  32  32  16
#     4  11  28  50  72 106 142 190 237 296 358 423
#     4  10  22  38  65  97 136 188 228 289 357 417
#     4  12  24  47  71 103 143 178 242 292 351 429
#     4  10  18  36  61  93 138 180 227 287 348 414
#     4  10  21  37  63  98 134 177 230 284 354 420
#     4  11  26  48  80 102 141 192 234 296 359 418
#
# _framework density 22.549548999999999
#
# number of rings (size 3 to 8) (size 9 to 14) (size 15 to 20)
#    0.000    1.400    2.000    3.600    2.800    2.400 
#    3.600    0.000    0.000    0.000    0.000    0.000 
#    0.000    0.000    0.000    0.000    0.000    0.000 
#
# Total GULP energy -222918.163132 kJ/mol
# GULP energy per Si atom -5572.954078 kJ/mol
# Density = 2.249823 g / cm^3
# Si number density = 22.549549 Si / 1000 Ang^3
#
#
#
# Elastic Constant Matrix: (Units=GPa)
#
#
# Indices 1 2 3 4 5 6 
#
# 1 161.6529 58.2031 61.9628 0.0000 0.0000 0.0000
# 2 58.2031 70.8501 25.3463 0.0000 0.0000 0.0000
# 3 61.9628 25.3463 52.6446 0.0000 0.0000 0.0000
# 4 0.0000 0.0000 0.0000 14.4164 0.0000 0.0000
# 5 0.0000 0.0000 0.0000 0.0000 32.3650 0.0000
# 6 0.0000 0.0000 0.0000 0.0000 0.0000 31.2127
#
#
#
# Elastic Compliance Matrix: (Units=1/GPa)
#
#
# Indices 1 2 3 4 5 6 
#
# 1 0.013334 -0.006450 -0.012588 0.000000 0.000000 0.000000
# 2 -0.006450 0.020171 -0.002120 0.000000 0.000000 0.000000
# 3 -0.012588 -0.002120 0.034832 0.000000 0.000000 0.000000
# 4 0.000000 0.000000 0.000000 0.069365 0.000000 0.000000
# 5 0.000000 0.000000 0.000000 0.000000 0.030898 0.000000
# 6 0.000000 0.000000 0.000000 0.000000 0.000000 0.032038
#
#
# Mechanical properties :
#
#
# Convention : Reuss Voigt Hill
#
# Bulk Modulus (GPa) = 38.43072 64.01910 51.22491
# Shear Modulus (GPa) = 19.87054 24.90786 22.38920
#
# Velocity S-wave (km/s) = 2.97171 3.32713 3.15443
# Velocity P-wave (km/s) = 5.37164 6.57357 6.00276
#
# Compressibility (1/GPa) = 0.02602085
#
# Stress axis : x y z
#
# Youngs Moduli (GPa) = 74.99828 49.57492 28.70900
#
# Poissons Ratio (x) = 0.31977 0.36139
# Poissons Ratio (y) = 0.48375 0.06086
# Poissons Ratio (z) = 0.94409 0.10509
#
# Static dielectric constant tensor:
#      x y z
#    x 1.894370 0.000000 0.000000 
#    y 0.000000 1.921530 0.000000 
#    z 0.000000 0.000000 1.828440 
# 
# From -- ./inp_files/52168.got.cif
#   From: 2010.05.17/outbox.cif.g08.bks.cpg/sg70_27_cif.got.tgz:52168.got - 2010.06.03 15:57:51.
