data_PCOD9514290
_publ_section_title
;
Structure prediction by ZEFSAII (Michael W. Deem and Ramdas Pophale) SiO2 
 PCOD9514290
Probable space group: F D D D
;
_chemical_formula_sum "Si O2"
_cell_formula_units_Z 192
_cell_length_a 22.372866
_cell_length_b 19.743836
_cell_length_c 18.694220
_cell_angle_alpha 90.000000
_cell_angle_beta 90.000000
_cell_angle_gamma 90.000000
_cell_volume 8257.726709
_symmetry_space_group_name_H-M "F D D D"
_symmetry_group_IT_number 70
_space_group.IT_coordinate_system_code '2'
_symmetry_cell_setting 'orthorhombic'
loop_
_space_group_symop_operation_xyz
x,y,z
1/4-x,1/4-y,z
x,1/4-y,1/4-z
1/4-x,y,1/4-z
-x,-y,-z
3/4+x,3/4+y,-z
-x,3/4+y,3/4+z
3/4+x,-y,3/4+z
x,1/2+y,1/2+z
1/4-x,3/4-y,1/2+z
x,3/4-y,3/4-z
1/4-x,1/2+y,3/4-z
-x,1/2-y,1/2-z
3/4+x,1/4+y,1/2-z
-x,1/4+y,1/4+z
3/4+x,1/2-y,1/4+z
1/2+x,y,1/2+z
3/4-x,1/4-y,1/2+z
1/2+x,1/4-y,3/4-z
3/4-x,y,3/4-z
1/2-x,-y,1/2-z
1/4+x,3/4+y,1/2-z
1/2-x,3/4+y,1/4+z
1/4+x,-y,1/4+z
1/2+x,1/2+y,z
3/4-x,3/4-y,z
1/2+x,3/4-y,1/4-z
3/4-x,1/2+y,1/4-z
1/2-x,1/2-y,-z
1/4+x,1/4+y,-z
1/2-x,1/4+y,3/4+z
1/4+x,1/2-y,3/4+z
loop_
_atom_site_type_symbol
_atom_site_label
_atom_site_fract_x
_atom_site_fract_y
_atom_site_fract_z
Si Si1 0.989731 0.454611 0.747351
Si Si2 0.743982 0.894116 0.980162
Si Si3 0.625000 0.125000 0.955912
Si Si4 0.084702 0.243408 0.896830
Si Si5 0.104381 0.875000 0.875000
Si Si6 0.061820 0.851597 0.628513
Si Si7 0.682959 0.225613 0.522696
O O1 0.023471 0.477111 0.819399
O O2 0.032500 0.408452 0.698316
O O3 0.988441 0.527871 0.707750
O O4 0.925543 0.417854 0.748720
O O5 0.688476 0.859242 0.940959
O O6 0.803196 0.853149 0.960005
O O7 0.732662 0.886139 0.064754
O O8 0.590754 0.070860 0.904893
O O9 0.108928 0.309121 0.855796
O O10 0.130442 0.229050 0.963598
O O11 0.125000 0.889616 0.625000
O O12 0.076749 0.778746 0.664304
O O13 0.750000 0.250000 0.500000
#
# Coordination Sequence:
#
# PCOD9514290 Si02
#       7
#    32  32  16  32  16  32  32
#     4  12  24  42  66  99 141 190 243 296 358 436
#     4  11  22  36  63  94 137 186 226 285 365 421
#     4  12  26  46  72 104 150 190 242 306 368 432
#     4  12  23  42  69 101 142 194 240 295 366 432
#     4  12  20  40  66  98 134 190 238 282 358 442
#     4  11  20  38  60  96 137 175 230 290 347 431
#     4  10  18  35  58  93 134 173 225 280 348 429
#
# _framework density 23.250951000000001
#
# number of rings (size 3 to 8) (size 9 to 14) (size 15 to 20)
#    0.000    0.667    6.667    5.000    0.000    0.000 
#    0.000    1.667    3.667    0.000    0.000    0.000 
#    0.000    0.000    0.000    0.000    0.000    0.000 
#
# Total GULP energy -267811.960754 kJ/mol
# GULP energy per Si atom -5579.415849 kJ/mol
# Density = 2.319803 g / cm^3
# Si number density = 23.250951 Si / 1000 Ang^3
#
#
#
# Elastic Constant Matrix: (Units=GPa)
#
#
# Indices 1 2 3 4 5 6 
#
# 1 117.5041 39.2511 30.9683 0.0000 0.0000 0.0000
# 2 39.2511 114.9196 16.7553 0.0000 0.0000 0.0000
# 3 30.9683 16.7553 35.5912 0.0000 0.0000 0.0000
# 4 0.0000 0.0000 0.0000 26.5085 0.0000 0.0000
# 5 0.0000 0.0000 0.0000 0.0000 14.5902 0.0000
# 6 0.0000 0.0000 0.0000 0.0000 0.0000 36.6039
#
#
#
# Elastic Compliance Matrix: (Units=1/GPa)
#
#
# Indices 1 2 3 4 5 6 
#
# 1 0.011783 -0.002716 -0.008974 0.000000 0.000000 0.000000
# 2 -0.002716 0.009969 -0.002330 0.000000 0.000000 0.000000
# 3 -0.008974 -0.002330 0.037002 0.000000 0.000000 0.000000
# 4 0.000000 0.000000 0.000000 0.037724 0.000000 0.000000
# 5 0.000000 0.000000 0.000000 0.000000 0.068539 0.000000
# 6 0.000000 0.000000 0.000000 0.000000 0.000000 0.027320
#
#
# Mechanical properties :
#
#
# Convention : Reuss Voigt Hill
#
# Bulk Modulus (GPa) = 32.55804 49.10714 40.83259
# Shear Modulus (GPa) = 21.68136 27.60987 24.64561
#
# Velocity S-wave (km/s) = 3.05699 3.44971 3.25927
# Velocity P-wave (km/s) = 5.14719 6.08553 5.63592
#
# Compressibility (1/GPa) = 0.03071438
#
# Stress axis : x y z
#
# Youngs Moduli (GPa) = 84.87103 100.30993 27.02585
#
# Poissons Ratio (x) = 0.27244 0.24252
# Poissons Ratio (y) = 0.23051 0.06297
# Poissons Ratio (z) = 0.76159 0.23371
#
# Static dielectric constant tensor:
#      x y z
#    x 0.806300 0.000000 0.000000 
#    y 0.000000 1.835360 0.000000 
#    z 0.000000 0.000000 1.892660 
# 
# From -- ./inp_files/45956.got.cif
#   From: 2010.05.17/outbox.cif.g08.bks.cpg/sg70_23_cif.got.tgz:45956.got - 2010.06.03 15:57:51.
