data_PCOD9514354
_publ_section_title
;
Structure prediction by ZEFSAII (Michael W. Deem and Ramdas Pophale) SiO2 
 PCOD9514354
Probable space group: F D D D
;
_chemical_formula_sum "Si O2"
_cell_formula_units_Z 112
_cell_length_a 10.132471
_cell_length_b 14.859024
_cell_length_c 27.646548
_cell_angle_alpha 90.000000
_cell_angle_beta 90.000000
_cell_angle_gamma 90.000000
_cell_volume 4162.426385
_symmetry_space_group_name_H-M "F D D D"
_symmetry_group_IT_number 70
_space_group.IT_coordinate_system_code '2'
_symmetry_cell_setting 'orthorhombic'
loop_
_space_group_symop_operation_xyz
x,y,z
1/4-x,1/4-y,z
x,1/4-y,1/4-z
1/4-x,y,1/4-z
-x,-y,-z
3/4+x,3/4+y,-z
-x,3/4+y,3/4+z
3/4+x,-y,3/4+z
x,1/2+y,1/2+z
1/4-x,3/4-y,1/2+z
x,3/4-y,3/4-z
1/4-x,1/2+y,3/4-z
-x,1/2-y,1/2-z
3/4+x,1/4+y,1/2-z
-x,1/4+y,1/4+z
3/4+x,1/2-y,1/4+z
1/2+x,y,1/2+z
3/4-x,1/4-y,1/2+z
1/2+x,1/4-y,3/4-z
3/4-x,y,3/4-z
1/2-x,-y,1/2-z
1/4+x,3/4+y,1/2-z
1/2-x,3/4+y,1/4+z
1/4+x,-y,1/4+z
1/2+x,1/2+y,z
3/4-x,3/4-y,z
1/2+x,3/4-y,1/4-z
3/4-x,1/2+y,1/4-z
1/2-x,1/2-y,-z
1/4+x,1/4+y,-z
1/2-x,1/4+y,3/4+z
1/4+x,1/2-y,3/4+z
loop_
_atom_site_type_symbol
_atom_site_label
_atom_site_fract_x
_atom_site_fract_y
_atom_site_fract_z
Si Si1 0.608628 0.516331 0.432041
Si Si2 0.272218 0.774902 0.582606
Si Si3 0.875000 0.055743 0.375000
Si Si4 0.314752 0.972827 0.498921
O O1 0.625000 0.625000 0.439318
O O2 0.697749 0.486071 0.385712
O O3 0.460017 0.502538 0.414097
O O4 0.666188 0.473569 0.480590
O O5 0.231510 0.877832 0.598724
O O6 0.149652 0.756498 0.546825
O O7 0.390099 0.733755 0.549068
O O8 0.375000 0.875000 0.508160
#
# Coordination Sequence:
#
# PCOD9514354 Si02
#       4
#    32  32  16  32
#     4  10  19  37  59  88 123 171 211 264 322 390
#     4  10  20  36  57  89 122 163 213 268 310 394
#     4  10  18  38  65  85 122 180 218 254 326 396
#     4  11  21  35  61  93 122 160 219 276 320 384
#
# _framework density 26.907384
#
# number of rings (size 3 to 8) (size 9 to 14) (size 15 to 20)
#    0.000    1.714    5.714    2.571    0.000    2.286 
#    0.000    5.714    0.000    1.714    0.000    0.000 
#    0.000    0.000    0.000    0.000    0.000    0.000 
#
# Total GULP energy -156030.830085 kJ/mol
# GULP energy per Si atom -5572.529646 kJ/mol
# Density = 2.684614 g / cm^3
# Si number density = 26.907384 Si / 1000 Ang^3
#
#
#
# Elastic Constant Matrix: (Units=GPa)
#
#
# Indices 1 2 3 4 5 6 
#
# 1 151.4914 -8.4293 80.9805 0.0000 0.0000 0.0000
# 2 -8.4293 21.4854 0.8889 0.0000 0.0000 0.0000
# 3 80.9805 0.8889 196.2502 0.0000 0.0000 0.0000
# 4 0.0000 0.0000 0.0000 13.2754 0.0000 0.0000
# 5 0.0000 0.0000 0.0000 0.0000 81.3080 0.0000
# 6 0.0000 0.0000 0.0000 0.0000 0.0000 34.7751
#
#
#
# Elastic Compliance Matrix: (Units=1/GPa)
#
#
# Indices 1 2 3 4 5 6 
#
# 1 0.008736 0.003577 -0.003621 0.000000 0.000000 0.000000
# 2 0.003577 0.048017 -0.001694 0.000000 0.000000 0.000000
# 3 -0.003621 -0.001694 0.006597 0.000000 0.000000 0.000000
# 4 0.000000 0.000000 0.000000 0.075328 0.000000 0.000000
# 5 0.000000 0.000000 0.000000 0.000000 0.012299 0.000000
# 6 0.000000 0.000000 0.000000 0.000000 0.000000 0.028756
#
#
# Mechanical properties :
#
#
# Convention : Reuss Voigt Hill
#
# Bulk Modulus (GPa) = 16.70150 57.34524 37.02337
# Shear Modulus (GPa) = 24.61051 45.59081 35.10066
#
# Velocity S-wave (km/s) = 3.02758 4.12073 3.61570
# Velocity P-wave (km/s) = 4.29443 6.63316 5.58753
#
# Compressibility (1/GPa) = 0.05987486
#
# Stress axis : x y z
#
# Youngs Moduli (GPa) = 114.47387 20.82612 151.57683
#
# Poissons Ratio (x) = -0.07450 0.54884
# Poissons Ratio (y) = -0.40948 0.25670
# Poissons Ratio (z) = 0.41449 0.03527
#
# Static dielectric constant tensor:
#      x y z
#    x 2.202610 0.000000 0.000000 
#    y 0.000000 2.279240 0.000000 
#    z 0.000000 0.000000 2.392690 
# 
# From -- ./inp_files/16253.got.cif
#   From: 2010.05.17/outbox.cif.g08.bks.cpg/sg70_9_cif.got.tgz:16253.got - 2010.06.03 15:57:51.
