data_PCOD9514879
_publ_section_title
;
Structure prediction by ZEFSAII (Michael W. Deem and Ramdas Pophale) SiO2 
 PCOD9514879
Probable space group: F D D D
;
_chemical_formula_sum "Si O2"
_cell_formula_units_Z 120
_cell_length_a 18.422992
_cell_length_b 18.453045
_cell_length_c 16.536794
_cell_angle_alpha 90.000000
_cell_angle_beta 90.000000
_cell_angle_gamma 90.000000
_cell_volume 5621.853456
_symmetry_space_group_name_H-M "F D D D"
_symmetry_group_IT_number 70
_space_group.IT_coordinate_system_code '2'
_symmetry_cell_setting 'orthorhombic'
loop_
_space_group_symop_operation_xyz
x,y,z
1/4-x,1/4-y,z
x,1/4-y,1/4-z
1/4-x,y,1/4-z
-x,-y,-z
3/4+x,3/4+y,-z
-x,3/4+y,3/4+z
3/4+x,-y,3/4+z
x,1/2+y,1/2+z
1/4-x,3/4-y,1/2+z
x,3/4-y,3/4-z
1/4-x,1/2+y,3/4-z
-x,1/2-y,1/2-z
3/4+x,1/4+y,1/2-z
-x,1/4+y,1/4+z
3/4+x,1/2-y,1/4+z
1/2+x,y,1/2+z
3/4-x,1/4-y,1/2+z
1/2+x,1/4-y,3/4-z
3/4-x,y,3/4-z
1/2-x,-y,1/2-z
1/4+x,3/4+y,1/2-z
1/2-x,3/4+y,1/4+z
1/4+x,-y,1/4+z
1/2+x,1/2+y,z
3/4-x,3/4-y,z
1/2+x,3/4-y,1/4-z
3/4-x,1/2+y,1/4-z
1/2-x,1/2-y,-z
1/4+x,1/4+y,-z
1/2-x,1/4+y,3/4+z
1/4+x,1/2-y,3/4+z
loop_
_atom_site_type_symbol
_atom_site_label
_atom_site_fract_x
_atom_site_fract_y
_atom_site_fract_z
Si Si1 0.636145 0.473743 0.255324
Si Si2 0.728618 0.682422 0.763845
Si Si3 0.875000 0.875000 0.648440
Si Si4 0.012895 0.548552 0.619053
Si Si5 0.625000 0.625000 0.625000
O O1 0.564773 0.424167 0.250309
O O2 0.619090 0.552256 0.297713
O O3 0.695163 0.437529 0.311793
O O4 0.682996 0.492908 0.175453
O O5 0.693239 0.635832 0.837146
O O6 0.731340 0.763679 0.799873
O O7 0.678621 0.669422 0.685411
O O8 0.050270 0.625000 0.625000
#
# Coordination Sequence:
#
# PCOD9514879 Si02
#       5
#    32  32  16  32   8
#     4  10  20  36  63  89 121 162 206 263 323 368
#     4  10  21  40  60  87 125 173 212 256 321 376
#     4   9  20  39  59  90 127 160 214 266 309 388
#     4  10  21  37  61  96 122 155 211 265 320 379
#     4  10  24  44  60  88 134 176 216 258 302 400
#
# _framework density 21.345274
#
# number of rings (size 3 to 8) (size 9 to 14) (size 15 to 20)
#    0.000    2.133    0.000    2.400    1.867    1.067 
#    4.800    4.000    0.000    0.000    0.000    0.000 
#    0.000    0.000    0.000    0.000    0.000    0.000 
#
# Total GULP energy -167092.106498 kJ/mol
# GULP energy per Si atom -5569.736883 kJ/mol
# Density = 2.129669 g / cm^3
# Si number density = 21.345274 Si / 1000 Ang^3
#
#
#
# Elastic Constant Matrix: (Units=GPa)
#
#
# Indices 1 2 3 4 5 6 
#
# 1 198.7954 35.6019 57.1044 0.0000 0.0000 0.0000
# 2 35.6019 62.5573 43.0877 0.0000 0.0000 0.0000
# 3 57.1044 43.0877 98.4063 0.0000 0.0000 0.0000
# 4 0.0000 0.0000 0.0000 16.3694 0.0000 0.0000
# 5 0.0000 0.0000 0.0000 0.0000 44.0671 0.0000
# 6 0.0000 0.0000 0.0000 0.0000 0.0000 37.0638
#
#
#
# Elastic Compliance Matrix: (Units=1/GPa)
#
#
# Indices 1 2 3 4 5 6 
#
# 1 0.006132 -0.001487 -0.002907 0.000000 0.000000 0.000000
# 2 -0.001487 0.023249 -0.009316 0.000000 0.000000 0.000000
# 3 -0.002907 -0.009316 0.015928 0.000000 0.000000 0.000000
# 4 0.000000 0.000000 0.000000 0.061089 0.000000 0.000000
# 5 0.000000 0.000000 0.000000 0.000000 0.022693 0.000000
# 6 0.000000 0.000000 0.000000 0.000000 0.000000 0.026980
#
#
# Mechanical properties :
#
#
# Convention : Reuss Voigt Hill
#
# Bulk Modulus (GPa) = 55.90659 70.14967 63.02813
# Shear Modulus (GPa) = 26.39149 34.43107 30.41128
#
# Velocity S-wave (km/s) = 3.52008 4.02064 3.77866
# Velocity P-wave (km/s) = 6.53985 7.38171 6.97350
#
# Compressibility (1/GPa) = 0.01788698
#
# Stress axis : x y z
#
# Youngs Moduli (GPa) = 163.08722 43.01300 62.78225
#
# Poissons Ratio (x) = 0.06398 0.18250
# Poissons Ratio (y) = 0.24258 0.58491
# Poissons Ratio (z) = 0.47408 0.40073
#
# Static dielectric constant tensor:
#      x y z
#    x 1.821300 0.000000 0.000000 
#    y 0.000000 1.771430 0.000000 
#    z 0.000000 0.000000 1.842380 
# 
# From -- ./inp_files/34628.got.cif
#   From: 2010.05.17/outbox.cif.g08.bks.cpg/sg70_18_cif.got.tgz:34628.got - 2010.06.03 15:57:51.
