data_PCOD9514440
_publ_section_title
;
Structure prediction by ZEFSAII (Michael W. Deem and Ramdas Pophale) SiO2 
 PCOD9514440
Probable space group: F D D D
;
_chemical_formula_sum "Si O2"
_cell_formula_units_Z 208
_cell_length_a 18.453166
_cell_length_b 30.728916
_cell_length_c 19.330203
_cell_angle_alpha 90.000000
_cell_angle_beta 90.000000
_cell_angle_gamma 90.000000
_cell_volume 10961.110191
_symmetry_space_group_name_H-M "F D D D"
_symmetry_group_IT_number 70
_space_group.IT_coordinate_system_code '2'
_symmetry_cell_setting 'orthorhombic'
loop_
_space_group_symop_operation_xyz
x,y,z
1/4-x,1/4-y,z
x,1/4-y,1/4-z
1/4-x,y,1/4-z
-x,-y,-z
3/4+x,3/4+y,-z
-x,3/4+y,3/4+z
3/4+x,-y,3/4+z
x,1/2+y,1/2+z
1/4-x,3/4-y,1/2+z
x,3/4-y,3/4-z
1/4-x,1/2+y,3/4-z
-x,1/2-y,1/2-z
3/4+x,1/4+y,1/2-z
-x,1/4+y,1/4+z
3/4+x,1/2-y,1/4+z
1/2+x,y,1/2+z
3/4-x,1/4-y,1/2+z
1/2+x,1/4-y,3/4-z
3/4-x,y,3/4-z
1/2-x,-y,1/2-z
1/4+x,3/4+y,1/2-z
1/2-x,3/4+y,1/4+z
1/4+x,-y,1/4+z
1/2+x,1/2+y,z
3/4-x,3/4-y,z
1/2+x,3/4-y,1/4-z
3/4-x,1/2+y,1/4-z
1/2-x,1/2-y,-z
1/4+x,1/4+y,-z
1/2-x,1/4+y,3/4+z
1/4+x,1/2-y,3/4+z
loop_
_atom_site_type_symbol
_atom_site_label
_atom_site_fract_x
_atom_site_fract_y
_atom_site_fract_z
Si Si1 0.305414 0.625250 0.322146
Si Si2 0.509005 0.294991 0.793979
Si Si3 0.837578 0.711966 0.741793
Si Si4 0.442723 0.718128 0.784446
Si Si5 0.969007 0.221225 0.948956
Si Si6 0.711634 0.622947 0.952414
Si Si7 0.625000 0.229862 0.625000
O O1 0.375000 0.620415 0.375000
O O2 0.316594 0.666150 0.273796
O O3 0.296911 0.583275 0.273822
O O4 0.237759 0.630661 0.373679
O O5 0.500000 0.250000 0.750000
O O6 0.594453 0.293620 0.809931
O O7 0.494503 0.337633 0.747392
O O8 0.448739 0.295344 0.854381
O O9 0.772216 0.738970 0.710928
O O10 0.860331 0.740289 0.808864
O O11 0.500000 0.750000 0.750000
O O12 0.359227 0.727933 0.766311
O O13 0.454078 0.720117 0.867146
O O14 0.006450 0.175122 0.969933
O O15 0.625000 0.625000 0.959341
#
# Coordination Sequence:
#
# PCOD9514440 Si02
#       7
#    32  32  32  32  32  32  16
#     4  11  18  39  65  87 117 160 204 253 307 368
#     4  10  19  33  51  79 116 160 202 253 302 357
#     4  11  20  35  60  86 119 159 203 252 308 372
#     4  10  21  41  66  86 116 158 209 260 319 370
#     4  10  22  39  59  89 121 157 202 263 318 372
#     4  11  20  35  59  85 118 161 206 251 306 373
#     4  10  20  32  51  82 124 162 204 250 297 362
#
# _framework density 18.976179999999999
#
# number of rings (size 3 to 8) (size 9 to 14) (size 15 to 20)
#    0.000    1.538    5.385    2.769    0.000    3.692 
#    0.000    4.231    0.000    7.385    0.000    0.000 
#    0.000    0.000    0.000    0.000    0.000    0.000 
#
# Total GULP energy -289940.811502 kJ/mol
# GULP energy per Si atom -5575.784837 kJ/mol
# Density = 1.893299 g / cm^3
# Si number density = 18.976180 Si / 1000 Ang^3
#
#
#
# Elastic Constant Matrix: (Units=GPa)
#
#
# Indices 1 2 3 4 5 6 
#
# 1 174.3844 88.0870 33.3776 0.0000 0.0000 0.0000
# 2 88.0870 150.0330 27.2187 0.0000 0.0000 0.0000
# 3 33.3776 27.2187 22.8009 0.0000 0.0000 0.0000
# 4 0.0000 0.0000 0.0000 38.2443 0.0000 0.0000
# 5 0.0000 0.0000 0.0000 0.0000 36.5975 0.0000
# 6 0.0000 0.0000 0.0000 0.0000 0.0000 24.1390
#
#
#
# Elastic Compliance Matrix: (Units=1/GPa)
#
#
# Indices 1 2 3 4 5 6 
#
# 1 0.009459 -0.003882 -0.009212 0.000000 0.000000 0.000000
# 2 -0.003882 0.010101 -0.006375 0.000000 0.000000 0.000000
# 3 -0.009212 -0.006375 0.064953 0.000000 0.000000 0.000000
# 4 0.000000 0.000000 0.000000 0.026148 0.000000 0.000000
# 5 0.000000 0.000000 0.000000 0.000000 0.027324 0.000000
# 6 0.000000 0.000000 0.000000 0.000000 0.000000 0.041427
#
#
# Mechanical properties :
#
#
# Convention : Reuss Voigt Hill
#
# Bulk Modulus (GPa) = 21.94210 71.62055 46.78132
# Shear Modulus (GPa) = 21.40944 33.03182 27.22063
#
# Velocity S-wave (km/s) = 3.36255 4.17669 3.79154
# Velocity P-wave (km/s) = 5.16370 7.81562 6.62374
#
# Compressibility (1/GPa) = 0.04557450
#
# Stress axis : x y z
#
# Youngs Moduli (GPa) = 105.72371 98.99969 15.39566
#
# Poissons Ratio (x) = 0.38433 0.14182
# Poissons Ratio (y) = 0.41043 0.09815
# Poissons Ratio (z) = 0.97392 0.63115
#
# Static dielectric constant tensor:
#      x y z
#    x 1.724740 0.000000 0.000000 
#    y 0.000000 1.664580 0.000000 
#    z 0.000000 0.000000 1.652700 
# 
# From -- ./inp_files/43926.got.cif
#   From: 2010.05.17/outbox.cif.g08.bks.cpg/sg70_22_cif.got.tgz:43926.got - 2010.06.03 15:57:51.
