data_PCOD9514891
_publ_section_title
;
Structure prediction by ZEFSAII (Michael W. Deem and Ramdas Pophale) SiO2 
 PCOD9514891
Probable space group: F D D D
;
_chemical_formula_sum "Si O2"
_cell_formula_units_Z 176
_cell_length_a 17.474625
_cell_length_b 15.290746
_cell_length_c 32.316760
_cell_angle_alpha 90.000000
_cell_angle_beta 90.000000
_cell_angle_gamma 90.000000
_cell_volume 8635.039963
_symmetry_space_group_name_H-M "F D D D"
_symmetry_group_IT_number 70
_space_group.IT_coordinate_system_code '2'
_symmetry_cell_setting 'orthorhombic'
loop_
_space_group_symop_operation_xyz
x,y,z
1/4-x,1/4-y,z
x,1/4-y,1/4-z
1/4-x,y,1/4-z
-x,-y,-z
3/4+x,3/4+y,-z
-x,3/4+y,3/4+z
3/4+x,-y,3/4+z
x,1/2+y,1/2+z
1/4-x,3/4-y,1/2+z
x,3/4-y,3/4-z
1/4-x,1/2+y,3/4-z
-x,1/2-y,1/2-z
3/4+x,1/4+y,1/2-z
-x,1/4+y,1/4+z
3/4+x,1/2-y,1/4+z
1/2+x,y,1/2+z
3/4-x,1/4-y,1/2+z
1/2+x,1/4-y,3/4-z
3/4-x,y,3/4-z
1/2-x,-y,1/2-z
1/4+x,3/4+y,1/2-z
1/2-x,3/4+y,1/4+z
1/4+x,-y,1/4+z
1/2+x,1/2+y,z
3/4-x,3/4-y,z
1/2+x,3/4-y,1/4-z
3/4-x,1/2+y,1/4-z
1/2-x,1/2-y,-z
1/4+x,1/4+y,-z
1/2-x,1/4+y,3/4+z
1/4+x,1/2-y,3/4+z
loop_
_atom_site_type_symbol
_atom_site_label
_atom_site_fract_x
_atom_site_fract_y
_atom_site_fract_z
Si Si1 0.312127 0.582820 0.055538
Si Si2 0.787593 0.847749 0.726259
Si Si3 0.807739 0.803410 0.820568
Si Si4 0.931880 0.625000 0.625000
Si Si5 0.563679 0.702593 0.719449
Si Si6 0.370086 0.612114 0.786973
O O1 0.278340 0.486748 0.052103
O O2 0.377120 0.588443 0.089603
O O3 0.243539 0.651845 0.061339
O O4 0.349063 0.597008 0.009850
O O5 0.875000 0.875000 0.722285
O O6 0.775732 0.825256 0.774635
O O7 0.719682 0.911224 0.713650
O O8 0.875000 0.875000 0.828121
O O9 0.739888 0.808300 0.853184
O O10 0.840226 0.706280 0.817035
O O11 0.625000 0.625000 0.734233
O O12 0.500000 0.750000 0.750000
O O13 0.610672 0.786689 0.703916
#
# Coordination Sequence:
#
# PCOD9514891 Si02
#       6
#    32  32  32  16  32  32
#     4  10  22  37  63  95 128 175 211 278 328 400
#     4  10  20  36  64  96 126 167 228 269 322 399
#     4  10  23  38  64  93 130 178 219 279 344 405
#     4  12  23  42  61  92 136 172 214 276 363 390
#     4  10  20  37  67  99 133 173 226 281 332 395
#     4  10  20  39  67  96 126 167 238 272 324 403
#
# _framework density 20.382071
#
# number of rings (size 3 to 8) (size 9 to 14) (size 15 to 20)
#    0.000    1.818    3.636    0.273    2.545    2.182 
#    0.000    2.273    0.000    0.000    0.000    0.000 
#    0.000    0.000    0.000    0.000    0.000    0.000 
#
# Total GULP energy -245071.238827 kJ/mol
# GULP energy per Si atom -5569.800882 kJ/mol
# Density = 2.033568 g / cm^3
# Si number density = 20.382071 Si / 1000 Ang^3
#
#
#
# Elastic Constant Matrix: (Units=GPa)
#
#
# Indices 1 2 3 4 5 6 
#
# 1 152.2469 45.8950 43.0524 0.0000 0.0000 0.0000
# 2 45.8950 97.4997 31.2244 0.0000 0.0000 0.0000
# 3 43.0524 31.2244 60.4742 0.0000 0.0000 0.0000
# 4 0.0000 0.0000 0.0000 0.7619 0.0000 0.0000
# 5 0.0000 0.0000 0.0000 0.0000 17.9356 0.0000
# 6 0.0000 0.0000 0.0000 0.0000 0.0000 26.0798
#
#
#
# Elastic Compliance Matrix: (Units=1/GPa)
#
#
# Indices 1 2 3 4 5 6 
#
# 1 0.008717 -0.002535 -0.004897 0.000000 0.000000 0.000000
# 2 -0.002535 0.013026 -0.004921 0.000000 0.000000 0.000000
# 3 -0.004897 -0.004921 0.022563 0.000000 0.000000 0.000000
# 4 0.000000 0.000000 0.000000 1.312555 0.000000 0.000000
# 5 0.000000 0.000000 0.000000 0.000000 0.055755 0.000000
# 6 0.000000 0.000000 0.000000 0.000000 0.000000 0.038344
#
#
# Mechanical properties :
#
#
# Convention : Reuss Voigt Hill
#
# Bulk Modulus (GPa) = 51.01991 61.17381 56.09686
# Shear Modulus (GPa) = 3.37337 21.62539 12.49938
#
# Velocity S-wave (km/s) = 1.28789 3.26083 2.47908
# Velocity P-wave (km/s) = 5.22471 6.65252 5.98138
#
# Compressibility (1/GPa) = 0.01960019
#
# Stress axis : x y z
#
# Youngs Moduli (GPa) = 114.71488 76.77173 44.32056
#
# Poissons Ratio (x) = 0.19463 0.21704
# Poissons Ratio (y) = 0.29082 0.21809
# Poissons Ratio (z) = 0.56176 0.37777
#
# Static dielectric constant tensor:
#      x y z
#    x 1.776410 0.000000 0.000000 
#    y 0.000000 1.894020 0.000000 
#    z 0.000000 0.000000 1.722020 
# 
# From -- ./inp_files/66626.got.cif
#   From: 2010.05.17/outbox.cif.g08.bks.cpg/sg70_34_cif.got.tgz:66626.got - 2010.06.03 15:57:51.
