data_PCOD9514953
_publ_section_title
;
Structure prediction by ZEFSAII (Michael W. Deem and Ramdas Pophale) SiO2 
 PCOD9514953
Probable space group: F D D D
;
_chemical_formula_sum "Si O2"
_cell_formula_units_Z 144
_cell_length_a 7.863952
_cell_length_b 36.954553
_cell_length_c 26.229396
_cell_angle_alpha 90.000000
_cell_angle_beta 90.000000
_cell_angle_gamma 90.000000
_cell_volume 7622.494109
_symmetry_space_group_name_H-M "F D D D"
_symmetry_group_IT_number 70
_space_group.IT_coordinate_system_code '2'
_symmetry_cell_setting 'orthorhombic'
loop_
_space_group_symop_operation_xyz
x,y,z
1/4-x,1/4-y,z
x,1/4-y,1/4-z
1/4-x,y,1/4-z
-x,-y,-z
3/4+x,3/4+y,-z
-x,3/4+y,3/4+z
3/4+x,-y,3/4+z
x,1/2+y,1/2+z
1/4-x,3/4-y,1/2+z
x,3/4-y,3/4-z
1/4-x,1/2+y,3/4-z
-x,1/2-y,1/2-z
3/4+x,1/4+y,1/2-z
-x,1/4+y,1/4+z
3/4+x,1/2-y,1/4+z
1/2+x,y,1/2+z
3/4-x,1/4-y,1/2+z
1/2+x,1/4-y,3/4-z
3/4-x,y,3/4-z
1/2-x,-y,1/2-z
1/4+x,3/4+y,1/2-z
1/2-x,3/4+y,1/4+z
1/4+x,-y,1/4+z
1/2+x,1/2+y,z
3/4-x,3/4-y,z
1/2+x,3/4-y,1/4-z
3/4-x,1/2+y,1/4-z
1/2-x,1/2-y,-z
1/4+x,1/4+y,-z
1/2-x,1/4+y,3/4+z
1/4+x,1/2-y,3/4+z
loop_
_atom_site_type_symbol
_atom_site_label
_atom_site_fract_x
_atom_site_fract_y
_atom_site_fract_z
Si Si1 0.375000 0.277300 0.375000
Si Si2 0.375000 0.085578 0.375000
Si Si3 0.625000 0.125000 0.951832
Si Si4 0.988982 0.988869 0.775733
Si Si5 0.560265 0.055792 0.019057
Si Si6 0.067931 0.732524 0.834283
O O1 0.393173 0.301892 0.425193
O O2 0.207808 0.251301 0.370991
O O3 0.472507 0.110049 0.333713
O O4 0.236969 0.057404 0.351852
O O5 0.568929 0.092592 0.988717
O O6 0.900114 0.981011 0.721783
O O7 0.119816 0.956504 0.781473
O O8 0.854634 0.995368 0.820582
O O9 0.097418 0.025528 0.766112
#
# Coordination Sequence:
#
# PCOD9514953 Si02
#       6
#    16  16  16  32  32  32
#     4  10  22  36  74  92 119 160 220 268 325 358
#     4  12  26  39  60  92 127 171 204 253 323 394
#     4  12  28  41  60  90 138 171 204 252 332 398
#     4   9  19  38  65  88 128 154 215 265 312 360
#     4  10  21  41  59  95 122 172 203 265 311 386
#     4  10  20  37  64  96 120 158 214 271 308 374
#
# _framework density 18.891455000000001
#
# number of rings (size 3 to 8) (size 9 to 14) (size 15 to 20)
#    0.000    1.778    2.222    1.333    9.333    0.444 
#    0.000    0.000    0.000    0.000    5.778    0.000 
#    0.000    0.000    0.000    0.000    0.000    0.000 
#
# Total GULP energy -200786.491377 kJ/mol
# GULP energy per Si atom -5577.402538 kJ/mol
# Density = 1.884846 g / cm^3
# Si number density = 18.891455 Si / 1000 Ang^3
#
#
#
# Elastic Constant Matrix: (Units=GPa)
#
#
# Indices 1 2 3 4 5 6 
#
# 1 102.1312 51.3704 34.7284 0.0000 0.0000 0.0000
# 2 51.3704 137.1942 66.9008 0.0000 0.0000 0.0000
# 3 34.7284 66.9008 120.9268 0.0000 0.0000 0.0000
# 4 0.0000 0.0000 0.0000 37.4352 0.0000 0.0000
# 5 0.0000 0.0000 0.0000 0.0000 36.4497 0.0000
# 6 0.0000 0.0000 0.0000 0.0000 0.0000 22.4028
#
#
#
# Elastic Compliance Matrix: (Units=1/GPa)
#
#
# Indices 1 2 3 4 5 6 
#
# 1 0.012220 -0.003922 -0.001339 0.000000 0.000000 0.000000
# 2 -0.003922 0.011241 -0.005092 0.000000 0.000000 0.000000
# 3 -0.001339 -0.005092 0.011471 0.000000 0.000000 0.000000
# 4 0.000000 0.000000 0.000000 0.026713 0.000000 0.000000
# 5 0.000000 0.000000 0.000000 0.000000 0.027435 0.000000
# 6 0.000000 0.000000 0.000000 0.000000 0.000000 0.044637
#
#
# Mechanical properties :
#
#
# Convention : Reuss Voigt Hill
#
# Bulk Modulus (GPa) = 70.30497 74.02793 72.16645
# Shear Modulus (GPa) = 31.41366 33.07437 32.24401
#
# Velocity S-wave (km/s) = 4.08223 4.18875 4.13583
# Velocity P-wave (km/s) = 7.71463 7.91613 7.81603
#
# Compressibility (1/GPa) = 0.01422375
#
# Stress axis : x y z
#
# Youngs Moduli (GPa) = 81.83547 88.96137 87.17362
#
# Poissons Ratio (x) = 0.34894 0.11675
# Poissons Ratio (y) = 0.32099 0.44392
# Poissons Ratio (z) = 0.10960 0.45302
#
# Static dielectric constant tensor:
#      x y z
#    x 1.732670 0.000000 0.000000 
#    y 0.000000 1.614860 0.000000 
#    z 0.000000 0.000000 1.719780 
# 
# From -- ./inp_files/63892.got.cif
#   From: 2010.05.17/outbox.cif.g08.bks.cpg/sg70_32_cif.got.tgz:63892.got - 2010.06.03 15:57:51.
