data_PCOD9514097
_publ_section_title
;
Structure prediction by ZEFSAII (Michael W. Deem and Ramdas Pophale) SiO2 
 PCOD9514097
Probable space group: F D D D
;
_chemical_formula_sum "Si O2"
_cell_formula_units_Z 216
_cell_length_a 26.068518
_cell_length_b 19.722898
_cell_length_c 22.915823
_cell_angle_alpha 90.000000
_cell_angle_beta 90.000000
_cell_angle_gamma 90.000000
_cell_volume 11782.095267
_symmetry_space_group_name_H-M "F D D D"
_symmetry_group_IT_number 70
_space_group.IT_coordinate_system_code '2'
_symmetry_cell_setting 'orthorhombic'
loop_
_space_group_symop_operation_xyz
x,y,z
1/4-x,1/4-y,z
x,1/4-y,1/4-z
1/4-x,y,1/4-z
-x,-y,-z
3/4+x,3/4+y,-z
-x,3/4+y,3/4+z
3/4+x,-y,3/4+z
x,1/2+y,1/2+z
1/4-x,3/4-y,1/2+z
x,3/4-y,3/4-z
1/4-x,1/2+y,3/4-z
-x,1/2-y,1/2-z
3/4+x,1/4+y,1/2-z
-x,1/4+y,1/4+z
3/4+x,1/2-y,1/4+z
1/2+x,y,1/2+z
3/4-x,1/4-y,1/2+z
1/2+x,1/4-y,3/4-z
3/4-x,y,3/4-z
1/2-x,-y,1/2-z
1/4+x,3/4+y,1/2-z
1/2-x,3/4+y,1/4+z
1/4+x,-y,1/4+z
1/2+x,1/2+y,z
3/4-x,3/4-y,z
1/2+x,3/4-y,1/4-z
3/4-x,1/2+y,1/4-z
1/2-x,1/2-y,-z
1/4+x,1/4+y,-z
1/2-x,1/4+y,3/4+z
1/4+x,1/2-y,3/4+z
loop_
_atom_site_type_symbol
_atom_site_label
_atom_site_fract_x
_atom_site_fract_y
_atom_site_fract_z
Si Si1 0.836536 0.167723 0.322066
Si Si2 0.890514 0.071246 0.695467
Si Si3 0.245007 0.074205 0.816133
Si Si4 0.992156 0.161046 0.683689
Si Si5 0.537068 0.055625 0.699424
Si Si6 0.548950 0.875000 0.375000
Si Si7 0.625000 0.125000 0.625000
Si Si8 0.926678 0.830985 0.074380
O O1 0.875000 0.179186 0.375000
O O2 0.870171 0.172933 0.263927
O O3 0.803004 0.099782 0.328370
O O4 0.793639 0.225311 0.308722
O O5 0.934939 0.128039 0.686649
O O6 0.837904 0.080807 0.662310
O O7 0.912248 0.998726 0.676236
O O8 0.233882 0.098290 0.749092
O O9 0.207396 0.100221 0.867135
O O10 0.241541 0.992463 0.821185
O O11 0.014975 0.125000 0.625000
O O12 0.487456 0.081826 0.666550
O O13 0.587652 0.082645 0.666323
O O14 0.539764 0.084116 0.765078
O O15 0.875000 0.875000 0.068701
#
# Coordination Sequence:
#
# PCOD9514097 Si02
#       8
#    32  32  32  32  32  16   8  32
#     4  10  22  39  57  84 122 154 197 254 316 363
#     4  10  21  38  60  85 116 163 191 257 312 364
#     4  10  22  35  65  90 107 161 210 248 312 384
#     4  10  18  41  65  81 118 158 199 249 328 383
#     4  10  22  36  57  81 123 162 197 243 292 367
#     4  11  22  35  60  86 108 156 213 236 273 374
#     4  10  16  40  52  76 108 184 196 212 306 360
#     4  11  22  38  58  89 124 155 200 253 309 361
#
# _framework density 18.332902000000001
#
# number of rings (size 3 to 8) (size 9 to 14) (size 15 to 20)
#    0.000    1.778    3.704    0.000    4.148    0.000 
#    0.000    1.481    6.519    0.000    0.000    0.000 
#    0.000    0.000    0.000    0.000    0.000    0.000 
#
# Total GULP energy -300678.422994 kJ/mol
# GULP energy per Si atom -5568.118944 kJ/mol
# Density = 1.829118 g / cm^3
# Si number density = 18.332902 Si / 1000 Ang^3
#
#
#
# Elastic Constant Matrix: (Units=GPa)
#
#
# Indices 1 2 3 4 5 6 
#
# 1 83.6440 28.3319 60.6872 0.0000 0.0000 0.0000
# 2 28.3319 67.7062 28.8594 0.0000 0.0000 0.0000
# 3 60.6872 28.8594 188.2779 0.0000 0.0000 0.0000
# 4 0.0000 0.0000 0.0000 26.7121 0.0000 0.0000
# 5 0.0000 0.0000 0.0000 0.0000 -34.3287 0.0000
# 6 0.0000 0.0000 0.0000 0.0000 0.0000 13.7899
#
#
#
# Elastic Compliance Matrix: (Units=1/GPa)
#
#
# Indices 1 2 3 4 5 6 
#
# 1 0.017135 -0.005153 -0.004733 0.000000 0.000000 0.000000
# 2 -0.005153 0.017352 -0.000999 0.000000 0.000000 0.000000
# 3 -0.004733 -0.000999 0.006990 0.000000 0.000000 0.000000
# 4 0.000000 0.000000 0.000000 0.037436 0.000000 0.000000
# 5 0.000000 0.000000 0.000000 0.000000 -0.029130 0.000000
# 6 0.000000 0.000000 0.000000 0.000000 0.000000 0.072517
#
#
# Mechanical properties :
#
#
# Convention : Reuss Voigt Hill
#
# Bulk Modulus (GPa) = 50.74312 63.93167 57.33740
# Shear Modulus (GPa) = 33.19224 16.01799 24.60512
#
# Velocity S-wave (km/s) = 4.25965 2.95910 3.66748
# Velocity P-wave (km/s) = 7.20636 6.82813 7.01979
#
# Compressibility (1/GPa) = 0.01970710
#
# Stress axis : x y z
#
# Youngs Moduli (GPa) = 58.36041 57.63166 143.06031
#
# Poissons Ratio (x) = 0.29695 0.67714
# Poissons Ratio (y) = 0.30071 0.14289
# Poissons Ratio (z) = 0.27623 0.05756
#
# Static dielectric constant tensor:
#      x y z
#    x 1.588940 0.000000 0.000000 
#    y 0.000000 1.685210 0.000000 
#    z 0.000000 0.000000 1.701770 
# 
# From -- ./inp_files/54458.got.cif
#   From: 2010.05.17/outbox.cif.g08.bks.cpg/sg70_28_cif.got.tgz:54458.got - 2010.06.03 15:57:51.
