data_PCOD9514906
_publ_section_title
;
Structure prediction by ZEFSAII (Michael W. Deem and Ramdas Pophale) SiO2 
 PCOD9514906
Probable space group: F D D D
;
_chemical_formula_sum "Si O2"
_cell_formula_units_Z 112
_cell_length_a 25.109000
_cell_length_b 11.673956
_cell_length_c 14.623558
_cell_angle_alpha 90.000000
_cell_angle_beta 90.000000
_cell_angle_gamma 90.000000
_cell_volume 4286.477227
_symmetry_space_group_name_H-M "F D D D"
_symmetry_group_IT_number 70
_space_group.IT_coordinate_system_code '2'
_symmetry_cell_setting 'orthorhombic'
loop_
_space_group_symop_operation_xyz
x,y,z
1/4-x,1/4-y,z
x,1/4-y,1/4-z
1/4-x,y,1/4-z
-x,-y,-z
3/4+x,3/4+y,-z
-x,3/4+y,3/4+z
3/4+x,-y,3/4+z
x,1/2+y,1/2+z
1/4-x,3/4-y,1/2+z
x,3/4-y,3/4-z
1/4-x,1/2+y,3/4-z
-x,1/2-y,1/2-z
3/4+x,1/4+y,1/2-z
-x,1/4+y,1/4+z
3/4+x,1/2-y,1/4+z
1/2+x,y,1/2+z
3/4-x,1/4-y,1/2+z
1/2+x,1/4-y,3/4-z
3/4-x,y,3/4-z
1/2-x,-y,1/2-z
1/4+x,3/4+y,1/2-z
1/2-x,3/4+y,1/4+z
1/4+x,-y,1/4+z
1/2+x,1/2+y,z
3/4-x,3/4-y,z
1/2+x,3/4-y,1/4-z
3/4-x,1/2+y,1/4-z
1/2-x,1/2-y,-z
1/4+x,1/4+y,-z
1/2-x,1/4+y,3/4+z
1/4+x,1/2-y,3/4+z
loop_
_atom_site_type_symbol
_atom_site_label
_atom_site_fract_x
_atom_site_fract_y
_atom_site_fract_z
Si Si1 0.320874 0.069136 0.302657
Si Si2 0.152923 0.243106 0.333993
Si Si3 0.730773 0.498984 0.646830
Si Si4 0.991813 0.625000 0.625000
O O1 0.317667 0.165557 0.379047
O O2 0.296620 0.134023 0.212847
O O3 0.372600 0.007059 0.262733
O O4 0.279706 0.977623 0.344094
O O5 0.125000 0.125000 0.374180
O O6 0.150546 0.375000 0.375000
O O7 0.216032 0.218370 0.337811
O O8 0.713092 0.625000 0.625000
O O9 0.750000 0.500000 0.750000
#
# Coordination Sequence:
#
# PCOD9514906 Si02
#       4
#    32  32  32  16
#     4  11  22  44  76 108 158 208 265 336 406 483
#     4  11  25  46  76 111 157 205 271 340 400 490
#     4  11  26  47  75 112 159 213 266 332 421 494
#     4  10  20  36  73 110 140 204 260 322 407 460
#
# _framework density 26.128682000000001
#
# number of rings (size 3 to 8) (size 9 to 14) (size 15 to 20)
#    0.000    1.143    1.429    5.143    4.000    2.286 
#    0.000   23.571    0.000    0.000    0.000    0.000 
#    0.000    0.000    0.000    0.000    0.000    0.000 
#
# Total GULP energy -156405.618669 kJ/mol
# GULP energy per Si atom -5585.914952 kJ/mol
# Density = 2.606921 g / cm^3
# Si number density = 26.128682 Si / 1000 Ang^3
#
#
#
# Elastic Constant Matrix: (Units=GPa)
#
#
# Indices 1 2 3 4 5 6 
#
# 1 147.7945 27.4803 31.1859 0.0000 0.0000 0.0000
# 2 27.4803 165.1420 33.7787 0.0000 0.0000 0.0000
# 3 31.1859 33.7787 116.0924 0.0000 0.0000 0.0000
# 4 0.0000 0.0000 0.0000 42.3409 0.0000 0.0000
# 5 0.0000 0.0000 0.0000 0.0000 51.3704 0.0000
# 6 0.0000 0.0000 0.0000 0.0000 0.0000 -9.0211
#
#
#
# Elastic Compliance Matrix: (Units=1/GPa)
#
#
# Indices 1 2 3 4 5 6 
#
# 1 0.007287 -0.000864 -0.001706 0.000000 0.000000 0.000000
# 2 -0.000864 0.006541 -0.001671 0.000000 0.000000 0.000000
# 3 -0.001706 -0.001671 0.009558 0.000000 0.000000 0.000000
# 4 0.000000 0.000000 0.000000 0.023618 0.000000 0.000000
# 5 0.000000 0.000000 0.000000 0.000000 0.019466 0.000000
# 6 0.000000 0.000000 0.000000 0.000000 0.000000 -0.110851
#
#
# Mechanical properties :
#
#
# Convention : Reuss Voigt Hill
#
# Bulk Modulus (GPa) = 67.09505 68.21318 67.65411
# Shear Modulus (GPa) = -161.65243 39.37697 -61.13773
#
# Velocity S-wave (km/s) = -7.87414 3.88627 -4.84247
# Velocity P-wave (km/s) = 7.54553 6.80447 2.30589
#
# Compressibility (1/GPa) = 0.01490423
#
# Stress axis : x y z
#
# Youngs Moduli (GPa) = 137.23572 152.88356 104.61985
#
# Poissons Ratio (x) = 0.13202 0.17850
# Poissons Ratio (y) = 0.11851 0.17484
# Poissons Ratio (z) = 0.23415 0.25550
#
# Static dielectric constant tensor:
#      x y z
#    x 2.072810 0.000000 0.000000 
#    y 0.000000 2.000140 0.000000 
#    z 0.000000 0.000000 2.173140 
# 
# From -- ./inp_files/30529.got.cif
#   From: 2010.05.17/outbox.cif.g08.bks.cpg/sg70_16_cif.got.tgz:30529.got - 2010.06.03 15:57:51.
