data_PCOD9514715
_publ_section_title
;
Structure prediction by ZEFSAII (Michael W. Deem and Ramdas Pophale) SiO2 
 PCOD9514715
Probable space group: F D D D
;
_chemical_formula_sum "Si O2"
_cell_formula_units_Z 160
_cell_length_a 20.030114
_cell_length_b 16.867292
_cell_length_c 20.198555
_cell_angle_alpha 90.000000
_cell_angle_beta 90.000000
_cell_angle_gamma 90.000000
_cell_volume 6824.158190
_symmetry_space_group_name_H-M "F D D D"
_symmetry_group_IT_number 70
_space_group.IT_coordinate_system_code '2'
_symmetry_cell_setting 'orthorhombic'
loop_
_space_group_symop_operation_xyz
x,y,z
1/4-x,1/4-y,z
x,1/4-y,1/4-z
1/4-x,y,1/4-z
-x,-y,-z
3/4+x,3/4+y,-z
-x,3/4+y,3/4+z
3/4+x,-y,3/4+z
x,1/2+y,1/2+z
1/4-x,3/4-y,1/2+z
x,3/4-y,3/4-z
1/4-x,1/2+y,3/4-z
-x,1/2-y,1/2-z
3/4+x,1/4+y,1/2-z
-x,1/4+y,1/4+z
3/4+x,1/2-y,1/4+z
1/2+x,y,1/2+z
3/4-x,1/4-y,1/2+z
1/2+x,1/4-y,3/4-z
3/4-x,y,3/4-z
1/2-x,-y,1/2-z
1/4+x,3/4+y,1/2-z
1/2-x,3/4+y,1/4+z
1/4+x,-y,1/4+z
1/2+x,1/2+y,z
3/4-x,3/4-y,z
1/2+x,3/4-y,1/4-z
3/4-x,1/2+y,1/4-z
1/2-x,1/2-y,-z
1/4+x,1/4+y,-z
1/2-x,1/4+y,3/4+z
1/4+x,1/2-y,3/4+z
loop_
_atom_site_type_symbol
_atom_site_label
_atom_site_fract_x
_atom_site_fract_y
_atom_site_fract_z
Si Si1 0.697527 0.875909 0.154658
Si Si2 0.894067 0.716096 0.642683
Si Si3 0.485112 0.241597 0.523544
Si Si4 0.514941 0.717525 0.617877
Si Si5 0.450162 0.905547 0.535017
O O1 0.625000 0.863581 0.125000
O O2 0.712337 0.812374 0.211734
O O3 0.749041 0.858426 0.094998
O O4 0.709912 0.968521 0.171311
O O5 0.904159 0.625000 0.625000
O O6 0.928962 0.753358 0.578439
O O7 0.814819 0.728821 0.641940
O O8 0.933042 0.749715 0.707988
O O9 0.454053 0.255722 0.451893
O O10 0.521643 0.154835 0.521432
O O11 0.528745 0.625000 0.625000
O O12 0.375000 0.875000 0.548833
#
# Coordination Sequence:
#
# PCOD9514715 Si02
#       5
#    32  32  32  32  32
#     4  10  22  40  62  96 135 167 225 284 328 407
#     4  10  21  40  67  99 128 173 227 274 336 418
#     4  10  22  39  64  97 127 176 217 272 347 385
#     4  10  22  42  66  93 131 175 233 277 331 407
#     4  10  19  43  65  90 131 171 216 274 325 411
#
# _framework density 23.446114999999999
#
# number of rings (size 3 to 8) (size 9 to 14) (size 15 to 20)
#    0.000    2.000    4.000    0.000    0.000    8.400 
#    7.200    4.000    0.000    0.000    0.000    0.000 
#    0.000    0.000    0.000    0.000    0.000    0.000 
#
# Total GULP energy -222767.278208 kJ/mol
# GULP energy per Si atom -5569.181955 kJ/mol
# Density = 2.339275 g / cm^3
# Si number density = 23.446115 Si / 1000 Ang^3
#
#
#
# Elastic Constant Matrix: (Units=GPa)
#
#
# Indices 1 2 3 4 5 6 
#
# 1 86.2767 -0.0692 22.1877 0.0000 0.0000 0.0000
# 2 -0.0692 153.8243 13.4426 0.0000 0.0000 0.0000
# 3 22.1877 13.4426 48.4569 0.0000 0.0000 0.0000
# 4 0.0000 0.0000 0.0000 42.0975 0.0000 0.0000
# 5 0.0000 0.0000 0.0000 0.0000 8.6292 0.0000
# 6 0.0000 0.0000 0.0000 0.0000 0.0000 19.2500
#
#
#
# Elastic Compliance Matrix: (Units=1/GPa)
#
#
# Indices 1 2 3 4 5 6 
#
# 1 0.013182 0.000547 -0.006188 0.000000 0.000000 0.000000
# 2 0.000547 0.006685 -0.002105 0.000000 0.000000 0.000000
# 3 -0.006188 -0.002105 0.024054 0.000000 0.000000 0.000000
# 4 0.000000 0.000000 0.000000 0.023754 0.000000 0.000000
# 5 0.000000 0.000000 0.000000 0.000000 0.115886 0.000000
# 6 0.000000 0.000000 0.000000 0.000000 0.000000 0.051948
#
#
# Mechanical properties :
#
#
# Convention : Reuss Voigt Hill
#
# Bulk Modulus (GPa) = 35.17434 39.96446 37.56940
# Shear Modulus (GPa) = 19.19549 30.86180 25.02865
#
# Velocity S-wave (km/s) = 2.86441 3.63200 3.27080
# Velocity P-wave (km/s) = 5.09652 5.88819 5.50660
#
# Compressibility (1/GPa) = 0.02842981
#
# Stress axis : x y z
#
# Youngs Moduli (GPa) = 75.85918 149.58617 41.57308
#
# Poissons Ratio (x) = -0.08177 0.25724
# Poissons Ratio (y) = -0.04147 0.08751
# Poissons Ratio (z) = 0.46939 0.31486
#
# Static dielectric constant tensor:
#      x y z
#    x 1.870410 0.000000 0.000000 
#    y 0.000000 2.113140 0.000000 
#    z 0.000000 0.000000 1.900680 
# 
# From -- ./inp_files/44703.got.cif
#   From: 2010.05.17/outbox.cif.g08.bks.cpg/sg70_23_cif.got.tgz:44703.got - 2010.06.03 15:57:51.
