data_PCOD9514944
_publ_section_title
;
Structure prediction by ZEFSAII (Michael W. Deem and Ramdas Pophale) SiO2 
 PCOD9514944
Probable space group: F D D D
;
_chemical_formula_sum "Si O2"
_cell_formula_units_Z 192
_cell_length_a 13.603740
_cell_length_b 24.652670
_cell_length_c 29.520704
_cell_angle_alpha 90.000000
_cell_angle_beta 90.000000
_cell_angle_gamma 90.000000
_cell_volume 9900.314603
_symmetry_space_group_name_H-M "F D D D"
_symmetry_group_IT_number 70
_space_group.IT_coordinate_system_code '2'
_symmetry_cell_setting 'orthorhombic'
loop_
_space_group_symop_operation_xyz
x,y,z
1/4-x,1/4-y,z
x,1/4-y,1/4-z
1/4-x,y,1/4-z
-x,-y,-z
3/4+x,3/4+y,-z
-x,3/4+y,3/4+z
3/4+x,-y,3/4+z
x,1/2+y,1/2+z
1/4-x,3/4-y,1/2+z
x,3/4-y,3/4-z
1/4-x,1/2+y,3/4-z
-x,1/2-y,1/2-z
3/4+x,1/4+y,1/2-z
-x,1/4+y,1/4+z
3/4+x,1/2-y,1/4+z
1/2+x,y,1/2+z
3/4-x,1/4-y,1/2+z
1/2+x,1/4-y,3/4-z
3/4-x,y,3/4-z
1/2-x,-y,1/2-z
1/4+x,3/4+y,1/2-z
1/2-x,3/4+y,1/4+z
1/4+x,-y,1/4+z
1/2+x,1/2+y,z
3/4-x,3/4-y,z
1/2+x,3/4-y,1/4-z
3/4-x,1/2+y,1/4-z
1/2-x,1/2-y,-z
1/4+x,1/4+y,-z
1/2-x,1/4+y,3/4+z
1/4+x,1/2-y,3/4+z
loop_
_atom_site_type_symbol
_atom_site_label
_atom_site_fract_x
_atom_site_fract_y
_atom_site_fract_z
Si Si1 0.775876 0.030407 0.065014
Si Si2 0.462275 0.958815 0.575345
Si Si3 0.735259 0.623779 0.849393
Si Si4 0.380178 0.125000 0.125000
Si Si5 0.875000 0.222394 0.875000
Si Si6 0.161488 0.292439 0.216487
Si Si7 0.471018 0.297644 0.900280
O O1 0.810149 0.079542 0.097776
O O2 0.854222 0.980151 0.063834
O O3 0.674547 0.007971 0.085406
O O4 0.785328 0.051495 0.013918
O O5 0.471767 0.902401 0.601772
O O6 0.542635 0.957899 0.535366
O O7 0.493926 0.002794 0.613550
O O8 0.625000 0.625000 0.829614
O O9 0.788486 0.566378 0.855654
O O10 0.803768 0.661743 0.818790
O O11 0.305537 0.091562 0.092813
O O12 0.194313 0.234913 0.195303
O O13 0.375000 0.319596 0.875000
#
# Coordination Sequence:
#
# PCOD9514944 Si02
#       7
#    32  32  32  16  16  32  32
#     4  11  24  39  60  88 124 165 212 256 308 367
#     4   9  17  36  64  90 120 151 189 259 326 371
#     4  11  20  39  66  90 119 162 209 248 320 383
#     4  10  21  39  56  74 122 174 196 232 308 378
#     4  12  24  41  64  88 122 171 208 250 316 386
#     4  10  20  37  62  98 121 147 203 273 312 364
#     4   8  16  32  59  86 116 151 188 240 317 381
#
# _framework density 19.393322999999999
#
# number of rings (size 3 to 8) (size 9 to 14) (size 15 to 20)
#    0.000    2.000    3.333    1.750    0.000    1.667 
#    3.000    0.833    3.667    0.000    0.000    0.000 
#    0.000    0.000    0.000    0.000    0.000    0.000 
#
# Total GULP energy -267462.891135 kJ/mol
# GULP energy per Si atom -5572.143565 kJ/mol
# Density = 1.934918 g / cm^3
# Si number density = 19.393323 Si / 1000 Ang^3
#
#
#
# Elastic Constant Matrix: (Units=GPa)
#
#
# Indices 1 2 3 4 5 6 
#
# 1 76.3605 23.7658 6.8804 0.0000 0.0000 0.0000
# 2 23.7658 75.7678 15.6744 0.0000 0.0000 0.0000
# 3 6.8804 15.6744 62.0740 0.0000 0.0000 0.0000
# 4 0.0000 0.0000 0.0000 14.1368 0.0000 0.0000
# 5 0.0000 0.0000 0.0000 0.0000 22.6734 0.0000
# 6 0.0000 0.0000 0.0000 0.0000 0.0000 20.1039
#
#
#
# Elastic Compliance Matrix: (Units=1/GPa)
#
#
# Indices 1 2 3 4 5 6 
#
# 1 0.014526 -0.004456 -0.000485 0.000000 0.000000 0.000000
# 2 -0.004456 0.015293 -0.003368 0.000000 0.000000 0.000000
# 3 -0.000485 -0.003368 0.017014 0.000000 0.000000 0.000000
# 4 0.000000 0.000000 0.000000 0.070737 0.000000 0.000000
# 5 0.000000 0.000000 0.000000 0.000000 0.044105 0.000000
# 6 0.000000 0.000000 0.000000 0.000000 0.000000 0.049742
#
#
# Mechanical properties :
#
#
# Convention : Reuss Voigt Hill
#
# Bulk Modulus (GPa) = 33.09552 34.09373 33.59462
# Shear Modulus (GPa) = 20.99910 22.57494 21.78702
#
# Velocity S-wave (km/s) = 3.29416 3.41553 3.35540
# Velocity P-wave (km/s) = 5.61882 5.75958 5.68964
#
# Compressibility (1/GPa) = 0.03021557
#
# Stress axis : x y z
#
# Youngs Moduli (GPa) = 68.84039 65.39096 58.77542
#
# Poissons Ratio (x) = 0.29139 0.02850
# Poissons Ratio (y) = 0.30676 0.19794
# Poissons Ratio (z) = 0.03338 0.22021
#
# Static dielectric constant tensor:
#      x y z
#    x 1.753950 0.000000 0.000000 
#    y 0.000000 1.688880 0.000000 
#    z 0.000000 0.000000 1.668070 
# 
# From -- ./inp_files/58661.got.cif
#   From: 2010.05.17/outbox.cif.g08.bks.cpg/sg70_30_cif.got.tgz:58661.got - 2010.06.03 15:57:51.
