data_PCOD9514387
_publ_section_title
;
Structure prediction by ZEFSAII (Michael W. Deem and Ramdas Pophale) SiO2 
 PCOD9514387
Probable space group: F D D D
;
_chemical_formula_sum "Si O2"
_cell_formula_units_Z 128
_cell_length_a 22.788608
_cell_length_b 10.807216
_cell_length_c 23.832290
_cell_angle_alpha 90.000000
_cell_angle_beta 90.000000
_cell_angle_gamma 90.000000
_cell_volume 5869.449961
_symmetry_space_group_name_H-M "F D D D"
_symmetry_group_IT_number 70
_space_group.IT_coordinate_system_code '2'
_symmetry_cell_setting 'orthorhombic'
loop_
_space_group_symop_operation_xyz
x,y,z
1/4-x,1/4-y,z
x,1/4-y,1/4-z
1/4-x,y,1/4-z
-x,-y,-z
3/4+x,3/4+y,-z
-x,3/4+y,3/4+z
3/4+x,-y,3/4+z
x,1/2+y,1/2+z
1/4-x,3/4-y,1/2+z
x,3/4-y,3/4-z
1/4-x,1/2+y,3/4-z
-x,1/2-y,1/2-z
3/4+x,1/4+y,1/2-z
-x,1/4+y,1/4+z
3/4+x,1/2-y,1/4+z
1/2+x,y,1/2+z
3/4-x,1/4-y,1/2+z
1/2+x,1/4-y,3/4-z
3/4-x,y,3/4-z
1/2-x,-y,1/2-z
1/4+x,3/4+y,1/2-z
1/2-x,3/4+y,1/4+z
1/4+x,-y,1/4+z
1/2+x,1/2+y,z
3/4-x,3/4-y,z
1/2+x,3/4-y,1/4-z
3/4-x,1/2+y,1/4-z
1/2-x,1/2-y,-z
1/4+x,1/4+y,-z
1/2-x,1/4+y,3/4+z
1/4+x,1/2-y,3/4+z
loop_
_atom_site_type_symbol
_atom_site_label
_atom_site_fract_x
_atom_site_fract_y
_atom_site_fract_z
Si Si1 0.181011 0.847317 0.092331
Si Si2 0.997670 0.625000 0.125000
Si Si3 0.375000 0.875000 0.559321
Si Si4 0.294838 0.258289 0.150272
Si Si5 0.400026 0.098823 0.029406
O O1 0.125000 0.901082 0.125000
O O2 0.209410 0.741369 0.130853
O O3 0.234434 0.938286 0.077939
O O4 0.162317 0.797362 0.031780
O O5 0.954832 0.596764 0.072410
O O6 0.320981 0.846224 0.601446
O O7 0.383900 0.746177 0.526562
O O8 0.281544 0.125000 0.125000
O O9 0.347196 0.228953 0.193234
#
# Coordination Sequence:
#
# PCOD9514387 Si02
#       5
#    32  16  16  32  32
#     4  12  28  44  66 107 151 179 233 300 357 415
#     4  12  23  48  70 100 141 192 242 286 350 426
#     4  10  18  42  69 100 135 180 246 280 346 424
#     4  10  21  42  72  98 138 187 239 285 354 428
#     4  11  23  42  76 104 136 194 237 296 348 426
#
# _framework density 21.807835000000001
#
# number of rings (size 3 to 8) (size 9 to 14) (size 15 to 20)
#    0.000    1.000    6.250    1.125    3.500    2.500 
#    4.500    5.000    0.000    0.000    0.000    0.000 
#    0.000    0.000    0.000    0.000    0.000    0.000 
#
# Total GULP energy -178784.859106 kJ/mol
# GULP energy per Si atom -5587.026847 kJ/mol
# Density = 2.175820 g / cm^3
# Si number density = 21.807835 Si / 1000 Ang^3
#
#
#
# Elastic Constant Matrix: (Units=GPa)
#
#
# Indices 1 2 3 4 5 6 
#
# 1 118.3341 45.1754 36.6470 0.0000 0.0000 0.0000
# 2 45.1754 61.8651 -1.9019 0.0000 0.0000 0.0000
# 3 36.6470 -1.9019 71.7675 0.0000 0.0000 0.0000
# 4 0.0000 0.0000 0.0000 -8.1284 0.0000 0.0000
# 5 0.0000 0.0000 0.0000 0.0000 10.0967 0.0000
# 6 0.0000 0.0000 0.0000 0.0000 0.0000 17.0419
#
#
#
# Elastic Compliance Matrix: (Units=1/GPa)
#
#
# Indices 1 2 3 4 5 6 
#
# 1 0.015344 -0.011455 -0.008139 0.000000 0.000000 0.000000
# 2 -0.011455 0.024729 0.006505 0.000000 0.000000 0.000000
# 3 -0.008139 0.006505 0.018262 0.000000 0.000000 0.000000
# 4 0.000000 0.000000 0.000000 -0.123025 0.000000 0.000000
# 5 0.000000 0.000000 0.000000 0.000000 0.099042 0.000000
# 6 0.000000 0.000000 0.000000 0.000000 0.000000 0.058679
#
#
# Mechanical properties :
#
#
# Convention : Reuss Voigt Hill
#
# Bulk Modulus (GPa) = 31.09744 45.75640 38.42692
# Shear Modulus (GPa) = 38.48274 15.27179 26.87727
#
# Velocity S-wave (km/s) = 4.20531 2.64917 3.51445
# Velocity P-wave (km/s) = 6.15388 5.51223 5.84187
#
# Compressibility (1/GPa) = 0.03215699
#
# Stress axis : x y z
#
# Youngs Moduli (GPa) = 65.17108 40.43862 54.75775
#
# Poissons Ratio (x) = 0.46322 0.44567
# Poissons Ratio (y) = 0.74653 -0.35618
# Poissons Ratio (z) = 0.53042 -0.26304
#
# Static dielectric constant tensor:
#      x y z
#    x 1.834620 0.000000 0.000000 
#    y 0.000000 1.845170 0.000000 
#    z 0.000000 0.000000 1.747130 
# 
# From -- ./inp_files/18867.got.cif
#   From: 2010.05.17/outbox.cif.g08.bks.cpg/sg70_10_cif.got.tgz:18867.got - 2010.06.03 15:57:51.
