data_PCOD9514012
_publ_section_title
;
Structure prediction by ZEFSAII (Michael W. Deem and Ramdas Pophale) SiO2 
 PCOD9514012
Probable space group: F M M M
;
_chemical_formula_sum "Si O2"
_cell_formula_units_Z 50
_cell_length_a 21.000000
_cell_length_b 18.000000
_cell_length_c 27.000000
_cell_angle_alpha 90.000000
_cell_angle_beta 90.000000
_cell_angle_gamma 90.000000
_cell_volume 10206.000000
_symmetry_space_group_name_H-M "F M M M"
_symmetry_group_IT_number 69
_symmetry_cell_setting 'orthorhombic'
loop_
_space_group_symop_operation_xyz
x,y,z
-x,-y,z
x,-y,-z
-x,y,-z
-x,-y,-z
x,y,-z
-x,y,z
x,-y,z
x,1/2+y,1/2+z
-x,1/2-y,1/2+z
x,1/2-y,1/2-z
-x,1/2+y,1/2-z
-x,1/2-y,1/2-z
x,1/2+y,1/2-z
-x,1/2+y,1/2+z
x,1/2-y,1/2+z
1/2+x,y,1/2+z
1/2-x,-y,1/2+z
1/2+x,-y,1/2-z
1/2-x,y,1/2-z
1/2-x,-y,1/2-z
1/2+x,y,1/2-z
1/2-x,y,1/2+z
1/2+x,-y,1/2+z
1/2+x,1/2+y,z
1/2-x,1/2-y,z
1/2+x,1/2-y,-z
1/2-x,1/2+y,-z
1/2-x,1/2-y,-z
1/2+x,1/2+y,-z
1/2-x,1/2+y,z
1/2+x,1/2-y,z
loop_
_atom_site_type_symbol
_atom_site_label
_atom_site_fract_x
_atom_site_fract_y
_atom_site_fract_z
Si Si1 0.243479 0.339154 0.384106
Si Si2 0.927990 0.662534 0.740786
Si Si3 0.657777 0.083328 0.941386
Si Si4 0.904813 0.136770 0.124883
Si Si5 0.306516 0.912416 0.209941
Si Si6 0.926312 0.719424 0.057027
Si Si7 0.500000 0.500000 0.104001
O O1 0.250000 0.250000 0.390758
O O2 0.272787 0.384532 0.429766
O O3 0.171741 0.366347 0.375736
O O4 0.285676 0.364574 0.337300
O O5 0.917298 0.750000 0.750000
O O6 0.924193 0.648586 0.682007
O O7 0.872873 0.616345 0.767646
O O8 0.000000 0.643849 0.757596
O O9 0.611508 0.148426 0.922606
O O10 0.648936 0.000000 0.921161
O O11 0.647070 0.079310 0.000000
O O12 0.919448 0.208642 0.091183
O O13 0.944083 0.065822 0.105909
O O14 0.250000 0.902914 0.250000
O O15 0.310272 0.000000 0.198127
O O16 0.000000 0.699178 0.055020
O O17 0.905070 0.735534 0.000000
#
# Coordination Sequence:
#
# PCOD9514012 Si02
#       7
#    32  32  32  32  32  32   8
#     4  12  24  41  69  95 130 174 218 278 331 397
#     4  11  24  42  66  93 128 173 221 271 330 400
#     4  10  23  42  65  99 135 169 217 272 333 398
#     4  12  24  43  66  97 132 176 229 269 335 406
#     4  11  25  40  61  94 127 166 219 272 328 389
#     4  10  21  42  69  96 131 172 218 272 329 399
#     4  12  28  40  71  98 134 186 226 278 327 420
#
# _framework density 4.8990790000000004
#
# number of rings (size 3 to 8) (size 9 to 14) (size 15 to 20)
#    0.000    0.960    4.800    1.440    3.360    1.600 
#    0.000    2.400    0.000    1.920    0.000    0.000 
#    0.000    0.000    0.000    0.000    0.000    0.000 
#
# Total GULP energy -278708.851663 kJ/mol
# GULP energy per Si atom -5574.177033 kJ/mol
# Density = 0.488793 g / cm^3
# Si number density = 4.899079 Si / 1000 Ang^3
#
#
#
# Elastic Constant Matrix: (Units=GPa)
#
#
# Indices 1 2 3 4 5 6 
#
# 1 141.1454 64.8634 23.0267 0.0000 0.0000 0.0000
# 2 64.8634 174.5243 28.6626 0.0000 0.0000 0.0000
# 3 23.0267 28.6626 24.2918 0.0000 0.0000 0.0000
# 4 0.0000 0.0000 0.0000 19.6049 0.0000 0.0000
# 5 0.0000 0.0000 0.0000 0.0000 14.0289 0.0000
# 6 0.0000 0.0000 0.0000 0.0000 0.0000 32.7363
#
#
#
# Elastic Compliance Matrix: (Units=1/GPa)
#
#
# Indices 1 2 3 4 5 6 
#
# 1 0.009156 -0.002453 -0.005785 0.000000 0.000000 0.000000
# 2 -0.002453 0.007764 -0.006836 0.000000 0.000000 0.000000
# 3 -0.005785 -0.006836 0.054716 0.000000 0.000000 0.000000
# 4 0.000000 0.000000 0.000000 0.051008 0.000000 0.000000
# 5 0.000000 0.000000 0.000000 0.000000 0.071282 0.000000
# 6 0.000000 0.000000 0.000000 0.000000 0.000000 0.030547
#
#
# Mechanical properties :
#
#
# Convention : Reuss Voigt Hill
#
# Bulk Modulus (GPa) = 24.10312 63.67409 43.88861
# Shear Modulus (GPa) = 18.62547 28.16793 23.39670
#
# Velocity S-wave (km/s) = 3.08629 3.79543 3.45908
# Velocity P-wave (km/s) = 5.00268 7.19517 6.19666
#
# Compressibility (1/GPa) = 0.04148840
#
# Stress axis : x y z
#
# Youngs Moduli (GPa) = 109.22015 128.79661 18.27616
#
# Poissons Ratio (x) = 0.31591 0.10573
# Poissons Ratio (y) = 0.26789 0.12494
# Poissons Ratio (z) = 0.63183 0.88048
#
# Static dielectric constant tensor:
#      x y z
#    x 1.718990 0.000000 0.000000 
#    y 0.000000 1.663440 0.000000 
#    z 0.000000 0.000000 1.721200 
# 
# From -- ./inp_files/41992.got.cif
#   From: 2010.05.17/outbox.ucp.g08.bks.cvg/sg69_21_cif.got.tgz:41992.got - 2010.06.11 16:51:34.
