data_PCOD9514877
_publ_section_title
;
Structure prediction by ZEFSAII (Michael W. Deem and Ramdas Pophale) SiO2 
 PCOD9514877
Probable space group: F D D D
;
_chemical_formula_sum "Si O2"
_cell_formula_units_Z 160
_cell_length_a 16.121720
_cell_length_b 17.350196
_cell_length_c 25.006555
_cell_angle_alpha 90.000000
_cell_angle_beta 90.000000
_cell_angle_gamma 90.000000
_cell_volume 6994.708578
_symmetry_space_group_name_H-M "F D D D"
_symmetry_group_IT_number 70
_space_group.IT_coordinate_system_code '2'
_symmetry_cell_setting 'orthorhombic'
loop_
_space_group_symop_operation_xyz
x,y,z
1/4-x,1/4-y,z
x,1/4-y,1/4-z
1/4-x,y,1/4-z
-x,-y,-z
3/4+x,3/4+y,-z
-x,3/4+y,3/4+z
3/4+x,-y,3/4+z
x,1/2+y,1/2+z
1/4-x,3/4-y,1/2+z
x,3/4-y,3/4-z
1/4-x,1/2+y,3/4-z
-x,1/2-y,1/2-z
3/4+x,1/4+y,1/2-z
-x,1/4+y,1/4+z
3/4+x,1/2-y,1/4+z
1/2+x,y,1/2+z
3/4-x,1/4-y,1/2+z
1/2+x,1/4-y,3/4-z
3/4-x,y,3/4-z
1/2-x,-y,1/2-z
1/4+x,3/4+y,1/2-z
1/2-x,3/4+y,1/4+z
1/4+x,-y,1/4+z
1/2+x,1/2+y,z
3/4-x,3/4-y,z
1/2+x,3/4-y,1/4-z
3/4-x,1/2+y,1/4-z
1/2-x,1/2-y,-z
1/4+x,1/4+y,-z
1/2-x,1/4+y,3/4+z
1/4+x,1/2-y,3/4+z
loop_
_atom_site_type_symbol
_atom_site_label
_atom_site_fract_x
_atom_site_fract_y
_atom_site_fract_z
Si Si1 0.125000 0.625000 0.433109
Si Si2 0.823019 0.949776 0.486430
Si Si3 0.443519 0.965373 0.084228
Si Si4 0.363946 0.101365 0.814179
Si Si5 0.342187 0.625000 0.125000
Si Si6 0.874260 0.036886 0.725705
O O1 0.182874 0.580801 0.389736
O O2 0.150530 0.697909 0.469428
O O3 0.875000 0.875000 0.468581
O O4 0.862336 0.965065 0.545979
O O5 0.723905 0.952914 0.483309
O O6 0.845739 0.020033 0.448243
O O7 0.517201 0.921400 0.054270
O O8 0.458720 0.054872 0.098297
O O9 0.375000 0.124785 0.875000
O O10 0.405121 0.164874 0.776382
O O11 0.394916 0.667201 0.171018
#
# Coordination Sequence:
#
# PCOD9514877 Si02
#       6
#    16  32  32  32  16  32
#     4  10  22  40  65  88 129 178 226 268 328 400
#     4  12  22  37  66  96 133 169 213 272 350 403
#     4  11  20  40  63  94 131 171 212 284 344 403
#     4  12  24  40  63  96 131 171 221 277 337 406
#     4  10  20  36  63  88 128 165 216 270 342 404
#     4  11  23  41  64  93 131 177 224 277 332 405
#
# _framework density 22.874434000000001
#
# number of rings (size 3 to 8) (size 9 to 14) (size 15 to 20)
#    0.000    0.800    5.000    4.200    0.000    0.400 
#    0.000    4.500    4.400    0.000    0.000    0.000 
#    0.000    0.000    0.000    0.000    0.000    0.000 
#
# Total GULP energy -223244.739281 kJ/mol
# GULP energy per Si atom -5581.118482 kJ/mol
# Density = 2.282237 g / cm^3
# Si number density = 22.874434 Si / 1000 Ang^3
#
#
#
# Elastic Constant Matrix: (Units=GPa)
#
#
# Indices 1 2 3 4 5 6 
#
# 1 70.5378 4.6923 -8.3648 0.0000 0.0000 0.0000
# 2 4.6923 205.7595 57.4117 0.0000 0.0000 0.0000
# 3 -8.3648 57.4117 121.2469 0.0000 0.0000 0.0000
# 4 0.0000 0.0000 0.0000 18.1903 0.0000 0.0000
# 5 0.0000 0.0000 0.0000 0.0000 18.3456 0.0000
# 6 0.0000 0.0000 0.0000 0.0000 0.0000 2.6430
#
#
#
# Elastic Compliance Matrix: (Units=1/GPa)
#
#
# Indices 1 2 3 4 5 6 
#
# 1 0.014380 -0.000697 0.001322 0.000000 0.000000 0.000000
# 2 -0.000697 0.005634 -0.002716 0.000000 0.000000 0.000000
# 3 0.001322 -0.002716 0.009625 0.000000 0.000000 0.000000
# 4 0.000000 0.000000 0.000000 0.054974 0.000000 0.000000
# 5 0.000000 0.000000 0.000000 0.000000 0.054509 0.000000
# 6 0.000000 0.000000 0.000000 0.000000 0.000000 0.378353
#
#
# Mechanical properties :
#
#
# Convention : Reuss Voigt Hill
#
# Bulk Modulus (GPa) = 39.28129 56.11361 47.69745
# Shear Modulus (GPa) = 9.43144 30.75612 20.09378
#
# Velocity S-wave (km/s) = 2.03275 3.67081 2.96706
# Velocity P-wave (km/s) = 4.76648 6.52310 5.71271
#
# Compressibility (1/GPa) = 0.02545741
#
# Stress axis : x y z
#
# Youngs Moduli (GPa) = 69.54140 177.50425 103.89893
#
# Poissons Ratio (x) = 0.12369 -0.13736
# Poissons Ratio (y) = 0.04846 0.28216
# Poissons Ratio (z) = -0.09193 0.48204
#
# Static dielectric constant tensor:
#      x y z
#    x 1.941250 0.000000 0.000000 
#    y 0.000000 1.862170 0.000000 
#    z 0.000000 0.000000 1.909720 
# 
# From -- ./inp_files/35170.got.cif
#   From: 2010.05.17/outbox.cif.g08.bks.cpg/sg70_18_cif.got.tgz:35170.got - 2010.06.03 15:57:51.
