data_PCOD9514869
_publ_section_title
;
Structure prediction by ZEFSAII (Michael W. Deem and Ramdas Pophale) SiO2 
 PCOD9514869
Probable space group: F D D D
;
_chemical_formula_sum "Si O2"
_cell_formula_units_Z 112
_cell_length_a 9.434132
_cell_length_b 16.381936
_cell_length_c 33.406274
_cell_angle_alpha 90.000000
_cell_angle_beta 90.000000
_cell_angle_gamma 90.000000
_cell_volume 5162.917820
_symmetry_space_group_name_H-M "F D D D"
_symmetry_group_IT_number 70
_space_group.IT_coordinate_system_code '2'
_symmetry_cell_setting 'orthorhombic'
loop_
_space_group_symop_operation_xyz
x,y,z
1/4-x,1/4-y,z
x,1/4-y,1/4-z
1/4-x,y,1/4-z
-x,-y,-z
3/4+x,3/4+y,-z
-x,3/4+y,3/4+z
3/4+x,-y,3/4+z
x,1/2+y,1/2+z
1/4-x,3/4-y,1/2+z
x,3/4-y,3/4-z
1/4-x,1/2+y,3/4-z
-x,1/2-y,1/2-z
3/4+x,1/4+y,1/2-z
-x,1/4+y,1/4+z
3/4+x,1/2-y,1/4+z
1/2+x,y,1/2+z
3/4-x,1/4-y,1/2+z
1/2+x,1/4-y,3/4-z
3/4-x,y,3/4-z
1/2-x,-y,1/2-z
1/4+x,3/4+y,1/2-z
1/2-x,3/4+y,1/4+z
1/4+x,-y,1/4+z
1/2+x,1/2+y,z
3/4-x,3/4-y,z
1/2+x,3/4-y,1/4-z
3/4-x,1/2+y,1/4-z
1/2-x,1/2-y,-z
1/4+x,1/4+y,-z
1/2-x,1/4+y,3/4+z
1/4+x,1/2-y,3/4+z
loop_
_atom_site_type_symbol
_atom_site_label
_atom_site_fract_x
_atom_site_fract_y
_atom_site_fract_z
Si Si1 0.325246 0.570783 0.960278
Si Si2 0.625000 0.125000 0.897235
Si Si3 0.517146 0.769772 0.347675
Si Si4 0.789830 0.648254 0.214160
O O1 0.261334 0.627581 0.925954
O O2 0.465878 0.530502 0.941582
O O3 0.214460 0.495852 0.963812
O O4 0.359816 0.613297 0.001676
O O5 0.615573 0.207313 0.871299
O O6 0.375000 0.780767 0.375000
O O7 0.570273 0.854572 0.328566
O O8 0.625000 0.625000 0.223160
#
# Coordination Sequence:
#
# PCOD9514869 Si02
#       4
#    32  16  32  32
#     4  10  22  36  59  87 117 161 194 256 304 377
#     4  10  22  36  54  88 122 159 203 250 316 362
#     4   9  19  34  57  85 114 150 200 257 299 355
#     4  10  20  36  62  88 119 152 207 252 313 364
#
# _framework density 21.693159000000001
#
# number of rings (size 3 to 8) (size 9 to 14) (size 15 to 20)
#    0.000    2.286    0.000    3.429    6.000   14.286 
#    0.000    0.000    0.000    0.000    0.000    0.000 
#    0.000    0.000    0.000    0.000    0.000    0.000 
#
# Total GULP energy -156268.001759 kJ/mol
# GULP energy per Si atom -5581.000063 kJ/mol
# Density = 2.164378 g / cm^3
# Si number density = 21.693159 Si / 1000 Ang^3
#
#
#
# Elastic Constant Matrix: (Units=GPa)
#
#
# Indices 1 2 3 4 5 6 
#
# 1 20.1999 45.6970 26.0864 0.0000 0.0000 0.0000
# 2 45.6970 144.1811 85.9030 0.0000 0.0000 0.0000
# 3 26.0864 85.9030 152.4368 0.0000 0.0000 0.0000
# 4 0.0000 0.0000 0.0000 26.2569 0.0000 0.0000
# 5 0.0000 0.0000 0.0000 0.0000 37.1141 0.0000
# 6 0.0000 0.0000 0.0000 0.0000 0.0000 26.2799
#
#
#
# Elastic Compliance Matrix: (Units=1/GPa)
#
#
# Indices 1 2 3 4 5 6 
#
# 1 0.175322 -0.056743 0.001974 0.000000 0.000000 0.000000
# 2 -0.056743 0.028806 -0.006523 0.000000 0.000000 0.000000
# 3 0.001974 -0.006523 0.009898 0.000000 0.000000 0.000000
# 4 0.000000 0.000000 0.000000 0.038085 0.000000 0.000000
# 5 0.000000 0.000000 0.000000 0.000000 0.026944 0.000000
# 6 0.000000 0.000000 0.000000 0.000000 0.000000 0.038052
#
#
# Mechanical properties :
#
#
# Convention : Reuss Voigt Hill
#
# Bulk Modulus (GPa) = 10.93587 70.24340 40.58963
# Shear Modulus (GPa) = 10.63441 28.53895 19.58668
#
# Velocity S-wave (km/s) = 2.21649 3.63102 3.00808
# Velocity P-wave (km/s) = 3.40625 7.07317 5.55123
#
# Compressibility (1/GPa) = 0.09144222
#
# Stress axis : x y z
#
# Youngs Moduli (GPa) = 5.70380 34.71476 101.02857
#
# Poissons Ratio (x) = 1.96981 -0.19939
# Poissons Ratio (y) = 0.32365 0.65900
# Poissons Ratio (z) = -0.01126 0.22644
#
# Static dielectric constant tensor:
#      x y z
#    x 1.793920 0.000000 0.000000 
#    y 0.000000 1.893860 0.000000 
#    z 0.000000 0.000000 1.816430 
# 
# From -- ./inp_files/16486.got.cif
#   From: 2010.05.17/outbox.cif.g08.bks.cpg/sg70_9_cif.got.tgz:16486.got - 2010.06.03 15:57:51.
