data_PCOD9514391
_publ_section_title
;
Structure prediction by ZEFSAII (Michael W. Deem and Ramdas Pophale) SiO2 
 PCOD9514391
Probable space group: F D D D
;
_chemical_formula_sum "Si O2"
_cell_formula_units_Z 184
_cell_length_a 21.953584
_cell_length_b 16.775857
_cell_length_c 23.263841
_cell_angle_alpha 90.000000
_cell_angle_beta 90.000000
_cell_angle_gamma 90.000000
_cell_volume 8567.844325
_symmetry_space_group_name_H-M "F D D D"
_symmetry_group_IT_number 70
_space_group.IT_coordinate_system_code '2'
_symmetry_cell_setting 'orthorhombic'
loop_
_space_group_symop_operation_xyz
x,y,z
1/4-x,1/4-y,z
x,1/4-y,1/4-z
1/4-x,y,1/4-z
-x,-y,-z
3/4+x,3/4+y,-z
-x,3/4+y,3/4+z
3/4+x,-y,3/4+z
x,1/2+y,1/2+z
1/4-x,3/4-y,1/2+z
x,3/4-y,3/4-z
1/4-x,1/2+y,3/4-z
-x,1/2-y,1/2-z
3/4+x,1/4+y,1/2-z
-x,1/4+y,1/4+z
3/4+x,1/2-y,1/4+z
1/2+x,y,1/2+z
3/4-x,1/4-y,1/2+z
1/2+x,1/4-y,3/4-z
3/4-x,y,3/4-z
1/2-x,-y,1/2-z
1/4+x,3/4+y,1/2-z
1/2-x,3/4+y,1/4+z
1/4+x,-y,1/4+z
1/2+x,1/2+y,z
3/4-x,3/4-y,z
1/2+x,3/4-y,1/4-z
3/4-x,1/2+y,1/4-z
1/2-x,1/2-y,-z
1/4+x,1/4+y,-z
1/2-x,1/4+y,3/4+z
1/4+x,1/2-y,3/4+z
loop_
_atom_site_type_symbol
_atom_site_label
_atom_site_fract_x
_atom_site_fract_y
_atom_site_fract_z
Si Si1 0.743008 0.165784 0.817716
Si Si2 0.563512 0.280794 0.722280
Si Si3 0.375000 0.375000 0.992702
Si Si4 0.858149 0.112684 0.189821
Si Si5 0.677136 0.565550 0.818215
Si Si6 0.625000 0.625000 0.625000
Si Si7 0.276821 0.423864 0.464271
O O1 0.789207 0.092312 0.825386
O O2 0.681574 0.141981 0.784723
O O3 0.724404 0.198984 0.880135
O O4 0.770514 0.232383 0.775362
O O5 0.500000 0.250000 0.750000
O O6 0.604489 0.203830 0.708041
O O7 0.601571 0.334528 0.767296
O O8 0.881644 0.125000 0.125000
O O9 0.789225 0.146003 0.192626
O O10 0.851636 0.018192 0.201229
O O11 0.625000 0.625000 0.840962
O O12 0.706093 0.614684 0.765757
O O13 0.670500 0.579240 0.583183
#
# Coordination Sequence:
#
# PCOD9514391 Si02
#       7
#    32  32  16  32  32   8  32
#     4  11  22  44  68 103 138 186 237 305 357 441
#     4  10  23  39  71 102 138 184 239 305 358 423
#     4  10  18  43  72  93 132 180 250 290 360 432
#     4  12  23  44  72 101 137 192 241 296 367 447
#     4  12  24  41  72 103 135 185 240 289 364 456
#     4  12  24  42  64 108 152 180 220 310 362 420
#     4  12  24  44  68 102 148 182 236 298 369 437
#
# _framework density 21.475648
#
# number of rings (size 3 to 8) (size 9 to 14) (size 15 to 20)
#    0.000    0.696    6.087    1.565    2.435    0.000 
#    0.000    0.000    0.000    1.043    0.000    0.000 
#    0.000    0.000    0.000    0.000    0.000    0.000 
#
# Total GULP energy -256763.037470 kJ/mol
# GULP energy per Si atom -5581.805162 kJ/mol
# Density = 2.142677 g / cm^3
# Si number density = 21.475648 Si / 1000 Ang^3
#
#
#
# Elastic Constant Matrix: (Units=GPa)
#
#
# Indices 1 2 3 4 5 6 
#
# 1 115.0563 53.3743 27.6183 0.0000 0.0000 0.0000
# 2 53.3743 177.0630 28.5750 0.0000 0.0000 0.0000
# 3 27.6183 28.5750 50.6268 0.0000 0.0000 0.0000
# 4 0.0000 0.0000 0.0000 7.9472 0.0000 0.0000
# 5 0.0000 0.0000 0.0000 0.0000 -0.3121 0.0000
# 6 0.0000 0.0000 0.0000 0.0000 0.0000 51.0082
#
#
#
# Elastic Compliance Matrix: (Units=1/GPa)
#
#
# Indices 1 2 3 4 5 6 
#
# 1 0.010975 -0.002577 -0.004533 0.000000 0.000000 0.000000
# 2 -0.002577 0.006819 -0.002443 0.000000 0.000000 0.000000
# 3 -0.004533 -0.002443 0.023604 0.000000 0.000000 0.000000
# 4 0.000000 0.000000 0.000000 0.125830 0.000000 0.000000
# 5 0.000000 0.000000 0.000000 0.000000 -3.204354 0.000000
# 6 0.000000 0.000000 0.000000 0.000000 0.000000 0.019605
#
#
# Mechanical properties :
#
#
# Convention : Reuss Voigt Hill
#
# Bulk Modulus (GPa) = 44.85777 62.43127 53.64452
# Shear Modulus (GPa) = -1.67169 27.27390 12.80111
#
# Velocity S-wave (km/s) = -0.88323 3.56756 2.44411
# Velocity P-wave (km/s) = 4.46015 6.78998 5.74442
#
# Compressibility (1/GPa) = 0.02229268
#
# Stress axis : x y z
#
# Youngs Moduli (GPa) = 91.11800 146.65536 42.36581
#
# Poissons Ratio (x) = 0.37790 0.19203
# Poissons Ratio (y) = 0.23479 0.10350
# Poissons Ratio (z) = 0.41301 0.35827
#
# Static dielectric constant tensor:
#      x y z
#    x 1.781000 0.000000 0.000000 
#    y 0.000000 1.847560 0.000000 
#    z 0.000000 0.000000 1.787830 
# 
# From -- ./inp_files/60398.got.cif
#   From: 2010.05.17/outbox.cif.g08.bks.cpg/sg70_31_cif.got.tgz:60398.got - 2010.06.03 15:57:51.
