data_PCOD9514081
_publ_section_title
;
Structure prediction by ZEFSAII (Michael W. Deem and Ramdas Pophale) SiO2 
 PCOD9514081
Probable space group: F D D D
;
_chemical_formula_sum "Si O2"
_cell_formula_units_Z 176
_cell_length_a 21.480871
_cell_length_b 14.983146
_cell_length_c 28.853303
_cell_angle_alpha 90.000000
_cell_angle_beta 90.000000
_cell_angle_gamma 90.000000
_cell_volume 9286.465186
_symmetry_space_group_name_H-M "F D D D"
_symmetry_group_IT_number 70
_space_group.IT_coordinate_system_code '2'
_symmetry_cell_setting 'orthorhombic'
loop_
_space_group_symop_operation_xyz
x,y,z
1/4-x,1/4-y,z
x,1/4-y,1/4-z
1/4-x,y,1/4-z
-x,-y,-z
3/4+x,3/4+y,-z
-x,3/4+y,3/4+z
3/4+x,-y,3/4+z
x,1/2+y,1/2+z
1/4-x,3/4-y,1/2+z
x,3/4-y,3/4-z
1/4-x,1/2+y,3/4-z
-x,1/2-y,1/2-z
3/4+x,1/4+y,1/2-z
-x,1/4+y,1/4+z
3/4+x,1/2-y,1/4+z
1/2+x,y,1/2+z
3/4-x,1/4-y,1/2+z
1/2+x,1/4-y,3/4-z
3/4-x,y,3/4-z
1/2-x,-y,1/2-z
1/4+x,3/4+y,1/2-z
1/2-x,3/4+y,1/4+z
1/4+x,-y,1/4+z
1/2+x,1/2+y,z
3/4-x,3/4-y,z
1/2+x,3/4-y,1/4-z
3/4-x,1/2+y,1/4-z
1/2-x,1/2-y,-z
1/4+x,1/4+y,-z
1/2-x,1/4+y,3/4+z
1/4+x,1/2-y,3/4+z
loop_
_atom_site_type_symbol
_atom_site_label
_atom_site_fract_x
_atom_site_fract_y
_atom_site_fract_z
Si Si1 0.375000 0.375000 0.531748
Si Si2 0.854872 0.639122 0.824413
Si Si3 0.761112 0.763909 0.555011
Si Si4 0.170388 0.040216 0.997028
Si Si5 0.846885 0.138353 0.176800
Si Si6 0.564862 0.296626 0.003437
O O1 0.426273 0.427737 0.561037
O O2 0.415232 0.306391 0.501271
O O3 0.875000 0.669936 0.875000
O O4 0.796403 0.570397 0.824481
O O5 0.841913 0.720085 0.788884
O O6 0.911196 0.584476 0.801688
O O7 0.750000 0.750000 0.500000
O O8 0.781614 0.666585 0.572493
O O9 0.125000 0.125000 0.999166
O O10 0.242567 0.064850 0.001985
O O11 0.162644 0.986192 0.948477
O O12 0.871415 0.125000 0.125000
O O13 0.894640 0.093337 0.213050
#
# Coordination Sequence:
#
# PCOD9514081 Si02
#       6
#    16  32  32  32  32  32
#     4  10  16  34  69  84 116 174 204 248 337 392
#     4  11  24  40  63 101 130 169 225 275 328 398
#     4  11  18  39  63  88 131 164 211 274 331 392
#     4  11  24  46  65  91 137 182 217 270 332 402
#     4  10  23  41  64  98 127 166 223 279 327 399
#     4  10  21  41  64  92 130 171 214 271 336 387
#
# _framework density 18.952314000000001
#
# number of rings (size 3 to 8) (size 9 to 14) (size 15 to 20)
#    0.000    1.455    7.273    0.000    2.545    3.273 
#   13.091    0.455    0.000    0.000    0.000    0.000 
#    0.000    0.000    0.000    0.000    0.000    0.000 
#
# Total GULP energy -245330.096242 kJ/mol
# GULP energy per Si atom -5575.684005 kJ/mol
# Density = 1.890918 g / cm^3
# Si number density = 18.952314 Si / 1000 Ang^3
#
#
#
# Elastic Constant Matrix: (Units=GPa)
#
#
# Indices 1 2 3 4 5 6 
#
# 1 124.8846 52.8567 15.9548 0.0000 0.0000 0.0000
# 2 52.8567 88.7834 14.6197 0.0000 0.0000 0.0000
# 3 15.9548 14.6197 97.5513 0.0000 0.0000 0.0000
# 4 0.0000 0.0000 0.0000 8.6905 0.0000 0.0000
# 5 0.0000 0.0000 0.0000 0.0000 14.0467 0.0000
# 6 0.0000 0.0000 0.0000 0.0000 0.0000 33.9466
#
#
#
# Elastic Compliance Matrix: (Units=1/GPa)
#
#
# Indices 1 2 3 4 5 6 
#
# 1 0.010768 -0.006276 -0.000821 0.000000 0.000000 0.000000
# 2 -0.006276 0.015206 -0.001252 0.000000 0.000000 0.000000
# 3 -0.000821 -0.001252 0.010573 0.000000 0.000000 0.000000
# 4 0.000000 0.000000 0.000000 0.115069 0.000000 0.000000
# 5 0.000000 0.000000 0.000000 0.000000 0.071191 0.000000
# 6 0.000000 0.000000 0.000000 0.000000 0.000000 0.029458
#
#
# Mechanical properties :
#
#
# Convention : Reuss Voigt Hill
#
# Bulk Modulus (GPa) = 50.37926 53.12019 51.74973
# Shear Modulus (GPa) = 18.14360 26.52263 22.33312
#
# Velocity S-wave (km/s) = 3.09743 3.74497 3.43648
# Velocity P-wave (km/s) = 6.27948 6.84024 6.56585
#
# Compressibility (1/GPa) = 0.01984944
#
# Stress axis : x y z
#
# Youngs Moduli (GPa) = 92.86408 65.76418 94.58114
#
# Poissons Ratio (x) = 0.41272 0.07762
# Poissons Ratio (y) = 0.58279 0.11846
# Poissons Ratio (z) = 0.07621 0.08236
#
# Static dielectric constant tensor:
#      x y z
#    x 1.656560 0.000000 0.000000 
#    y 0.000000 1.698780 0.000000 
#    z 0.000000 0.000000 1.669370 
# 
# From -- ./inp_files/51339.got.cif
#   From: 2010.05.17/outbox.cif.g08.bks.cpg/sg70_26_cif.got.tgz:51339.got - 2010.06.03 15:57:51.
