data_PCOD9514135
_publ_section_title
;
Structure prediction by ZEFSAII (Michael W. Deem and Ramdas Pophale) SiO2 
 PCOD9514135
Probable space group: F D D D
;
_chemical_formula_sum "Si O2"
_cell_formula_units_Z 208
_cell_length_a 26.629033
_cell_length_b 22.234802
_cell_length_c 15.881978
_cell_angle_alpha 90.000000
_cell_angle_beta 90.000000
_cell_angle_gamma 90.000000
_cell_volume 9403.580623
_symmetry_space_group_name_H-M "F D D D"
_symmetry_group_IT_number 70
_space_group.IT_coordinate_system_code '2'
_symmetry_cell_setting 'orthorhombic'
loop_
_space_group_symop_operation_xyz
x,y,z
1/4-x,1/4-y,z
x,1/4-y,1/4-z
1/4-x,y,1/4-z
-x,-y,-z
3/4+x,3/4+y,-z
-x,3/4+y,3/4+z
3/4+x,-y,3/4+z
x,1/2+y,1/2+z
1/4-x,3/4-y,1/2+z
x,3/4-y,3/4-z
1/4-x,1/2+y,3/4-z
-x,1/2-y,1/2-z
3/4+x,1/4+y,1/2-z
-x,1/4+y,1/4+z
3/4+x,1/2-y,1/4+z
1/2+x,y,1/2+z
3/4-x,1/4-y,1/2+z
1/2+x,1/4-y,3/4-z
3/4-x,y,3/4-z
1/2-x,-y,1/2-z
1/4+x,3/4+y,1/2-z
1/2-x,3/4+y,1/4+z
1/4+x,-y,1/4+z
1/2+x,1/2+y,z
3/4-x,3/4-y,z
1/2+x,3/4-y,1/4-z
3/4-x,1/2+y,1/4-z
1/2-x,1/2-y,-z
1/4+x,1/4+y,-z
1/2-x,1/4+y,3/4+z
1/4+x,1/2-y,3/4+z
loop_
_atom_site_type_symbol
_atom_site_label
_atom_site_fract_x
_atom_site_fract_y
_atom_site_fract_z
Si Si1 0.570518 0.223782 0.085966
Si Si2 0.747792 0.069239 0.218906
Si Si3 0.584052 0.250332 0.894952
Si Si4 0.830245 0.422336 0.639300
Si Si5 0.931194 0.638364 0.349690
Si Si6 0.714889 0.375000 0.375000
Si Si7 0.733052 0.660016 0.957516
O O1 0.625000 0.205062 0.125000
O O2 0.523646 0.187387 0.124796
O O3 0.564358 0.293875 0.112452
O O4 0.572098 0.222096 0.985994
O O5 0.701430 0.089642 0.277317
O O6 0.797536 0.102622 0.254112
O O7 0.750000 0.000000 0.250000
O O8 0.643191 0.236592 0.882447
O O9 0.569862 0.319655 0.902792
O O10 0.552064 0.215016 0.823155
O O11 0.875000 0.375000 0.638178
O O12 0.795511 0.402661 0.562677
O O13 0.875000 0.620025 0.375000
O O14 0.968570 0.593359 0.397242
O O15 0.748846 0.345646 0.447699
#
# Coordination Sequence:
#
# PCOD9514135 Si02
#       7
#    32  32  32  32  32  16  32
#     4  10  17  32  61  95 133 169 206 263 351 412
#     4   9  17  29  57  92 122 168 204 246 326 412
#     4  11  22  40  67  98 128 177 223 278 347 415
#     4   9  19  38  61  94 129 162 211 273 328 402
#     4   9  18  35  60  87 128 171 213 266 336 399
#     4  12  24  42  67  92 128 182 231 280 340 394
#     4  10  22  42  66  92 131 173 227 284 338 401
#
# _framework density 22.119233000000001
#
# number of rings (size 3 to 8) (size 9 to 14) (size 15 to 20)
#    0.000    2.154    3.077    0.462    0.000    0.000 
#    0.000   14.231    3.385    0.000    0.000    0.000 
#    0.000    0.000    0.000    0.000    0.000    0.000 
#
# Total GULP energy -290001.193812 kJ/mol
# GULP energy per Si atom -5576.946035 kJ/mol
# Density = 2.206889 g / cm^3
# Si number density = 22.119233 Si / 1000 Ang^3
#
#
#
# Elastic Constant Matrix: (Units=GPa)
#
#
# Indices 1 2 3 4 5 6 
#
# 1 106.0178 20.6129 20.5892 0.0000 0.0000 0.0000
# 2 20.6129 69.4854 20.3435 0.0000 0.0000 0.0000
# 3 20.5892 20.3435 86.2430 0.0000 0.0000 0.0000
# 4 0.0000 0.0000 0.0000 15.1811 0.0000 0.0000
# 5 0.0000 0.0000 0.0000 0.0000 21.9318 0.0000
# 6 0.0000 0.0000 0.0000 0.0000 0.0000 24.2262
#
#
#
# Elastic Compliance Matrix: (Units=1/GPa)
#
#
# Indices 1 2 3 4 5 6 
#
# 1 0.010281 -0.002504 -0.001864 0.000000 0.000000 0.000000
# 2 -0.002504 0.016069 -0.003193 0.000000 0.000000 0.000000
# 3 -0.001864 -0.003193 0.012793 0.000000 0.000000 0.000000
# 4 0.000000 0.000000 0.000000 0.065871 0.000000 0.000000
# 5 0.000000 0.000000 0.000000 0.000000 0.045596 0.000000
# 6 0.000000 0.000000 0.000000 0.000000 0.000000 0.041278
#
#
# Mechanical properties :
#
#
# Convention : Reuss Voigt Hill
#
# Bulk Modulus (GPa) = 41.62810 42.75969 42.19390
# Shear Modulus (GPa) = 23.25397 25.61455 24.43426
#
# Velocity S-wave (km/s) = 3.24589 3.40666 3.32725
# Velocity P-wave (km/s) = 5.73659 5.90315 5.82047
#
# Compressibility (1/GPa) = 0.02402223
#
# Stress axis : x y z
#
# Youngs Moduli (GPa) = 97.26465 62.23120 78.16666
#
# Poissons Ratio (x) = 0.15584 0.14568
# Poissons Ratio (y) = 0.24358 0.24956
# Poissons Ratio (z) = 0.18128 0.19868
#
# Static dielectric constant tensor:
#      x y z
#    x 1.899720 0.000000 0.000000 
#    y 0.000000 1.909180 0.000000 
#    z 0.000000 0.000000 1.849580 
# 
# From -- ./inp_files/38844.got.cif
#   From: 2010.05.17/outbox.cif.g08.bks.cpg/sg70_20_cif.got.tgz:38844.got - 2010.06.03 15:57:51.
