data_PCOD9514878
_publ_section_title
;
Structure prediction by ZEFSAII (Michael W. Deem and Ramdas Pophale) SiO2 
 PCOD9514878
Probable space group: F D D D
;
_chemical_formula_sum "Si O2"
_cell_formula_units_Z 208
_cell_length_a 29.765604
_cell_length_b 22.425463
_cell_length_c 16.622475
_cell_angle_alpha 90.000000
_cell_angle_beta 90.000000
_cell_angle_gamma 90.000000
_cell_volume 11095.625919
_symmetry_space_group_name_H-M "F D D D"
_symmetry_group_IT_number 70
_space_group.IT_coordinate_system_code '2'
_symmetry_cell_setting 'orthorhombic'
loop_
_space_group_symop_operation_xyz
x,y,z
1/4-x,1/4-y,z
x,1/4-y,1/4-z
1/4-x,y,1/4-z
-x,-y,-z
3/4+x,3/4+y,-z
-x,3/4+y,3/4+z
3/4+x,-y,3/4+z
x,1/2+y,1/2+z
1/4-x,3/4-y,1/2+z
x,3/4-y,3/4-z
1/4-x,1/2+y,3/4-z
-x,1/2-y,1/2-z
3/4+x,1/4+y,1/2-z
-x,1/4+y,1/4+z
3/4+x,1/2-y,1/4+z
1/2+x,y,1/2+z
3/4-x,1/4-y,1/2+z
1/2+x,1/4-y,3/4-z
3/4-x,y,3/4-z
1/2-x,-y,1/2-z
1/4+x,3/4+y,1/2-z
1/2-x,3/4+y,1/4+z
1/4+x,-y,1/4+z
1/2+x,1/2+y,z
3/4-x,3/4-y,z
1/2+x,3/4-y,1/4-z
3/4-x,1/2+y,1/4-z
1/2-x,1/2-y,-z
1/4+x,1/4+y,-z
1/2-x,1/4+y,3/4+z
1/4+x,1/2-y,3/4+z
loop_
_atom_site_type_symbol
_atom_site_label
_atom_site_fract_x
_atom_site_fract_y
_atom_site_fract_z
Si Si1 0.812250 0.704788 0.511497
Si Si2 0.215110 0.171581 0.553495
Si Si3 0.160141 0.960476 0.460590
Si Si4 0.242273 0.683439 0.469650
Si Si5 0.923665 0.406451 0.667668
Si Si6 0.076450 0.876551 0.112146
Si Si7 0.772968 0.625000 0.125000
O O1 0.811825 0.766771 0.460765
O O2 0.766496 0.694638 0.560406
O O3 0.857848 0.702709 0.562338
O O4 0.813670 0.653095 0.445850
O O5 0.203989 0.125000 0.625000
O O6 0.205157 0.136108 0.471161
O O7 0.166817 0.925463 0.544781
O O8 0.194005 0.929421 0.398420
O O9 0.168878 0.030662 0.463924
O O10 0.250000 0.750000 0.500000
O O11 0.198635 0.671457 0.415669
O O12 0.286422 0.667187 0.418134
O O13 0.243883 0.641433 0.547844
O O14 0.875000 0.375000 0.658656
O O15 0.125000 0.906471 0.125000
#
# Coordination Sequence:
#
# PCOD9514878 Si02
#       7
#    32  32  32  32  32  32  16
#     4  10  20  38  55  89 125 155 200 252 302 368
#     4  11  23  36  58  89 127 163 196 242 310 375
#     4  10  20  36  63  89 119 159 206 255 309 374
#     4  11  22  42  65  89 125 167 214 259 317 373
#     4  12  23  41  62  94 127 167 204 259 319 373
#     4   9  19  37  63  88 119 160 209 261 306 368
#     4  10  22  40  67  90 112 164 215 260 310 366
#
# _framework density 18.746126
#
# number of rings (size 3 to 8) (size 9 to 14) (size 15 to 20)
#    0.000    1.538    4.615    0.923    1.077    0.308 
#    0.000    1.923    0.000    0.000    0.000    0.000 
#    0.000    0.000    0.000    0.000    0.000    0.000 
#
# Total GULP energy -289998.685968 kJ/mol
# GULP energy per Si atom -5576.897807 kJ/mol
# Density = 1.870346 g / cm^3
# Si number density = 18.746126 Si / 1000 Ang^3
#
#
#
# Elastic Constant Matrix: (Units=GPa)
#
#
# Indices 1 2 3 4 5 6 
#
# 1 74.2926 21.3747 9.2679 0.0000 0.0000 0.0000
# 2 21.3747 83.9891 -1.3244 0.0000 0.0000 0.0000
# 3 9.2679 -1.3244 43.2516 0.0000 0.0000 0.0000
# 4 0.0000 0.0000 0.0000 18.6387 0.0000 0.0000
# 5 0.0000 0.0000 0.0000 0.0000 13.0048 0.0000
# 6 0.0000 0.0000 0.0000 0.0000 0.0000 20.2145
#
#
#
# Elastic Compliance Matrix: (Units=1/GPa)
#
#
# Indices 1 2 3 4 5 6 
#
# 1 0.014988 -0.003867 -0.003330 0.000000 0.000000 0.000000
# 2 -0.003867 0.012910 0.001224 0.000000 0.000000 0.000000
# 3 -0.003330 0.001224 0.023872 0.000000 0.000000 0.000000
# 4 0.000000 0.000000 0.000000 0.053652 0.000000 0.000000
# 5 0.000000 0.000000 0.000000 0.000000 0.076895 0.000000
# 6 0.000000 0.000000 0.000000 0.000000 0.000000 0.049470
#
#
# Mechanical properties :
#
#
# Convention : Reuss Voigt Hill
#
# Bulk Modulus (GPa) = 25.11087 28.90773 27.00930
# Shear Modulus (GPa) = 19.45478 21.85260 20.65369
#
# Velocity S-wave (km/s) = 3.22499 3.41796 3.32287
# Velocity P-wave (km/s) = 5.22415 5.57052 5.40011
#
# Compressibility (1/GPa) = 0.03982339
#
# Stress axis : x y z
#
# Youngs Moduli (GPa) = 66.71892 77.46101 41.89082
#
# Poissons Ratio (x) = 0.29954 0.13950
# Poissons Ratio (y) = 0.25800 -0.05127
# Poissons Ratio (z) = 0.22218 -0.09481
#
# Static dielectric constant tensor:
#      x y z
#    x 1.665320 0.000000 0.000000 
#    y 0.000000 1.655500 0.000000 
#    z 0.000000 0.000000 1.641810 
# 
# From -- ./inp_files/39954.got.cif
#   From: 2010.05.17/outbox.cif.g08.bks.cpg/sg70_20_cif.got.tgz:39954.got - 2010.06.03 15:57:51.
