data_PCOD9514319
_publ_section_title
;
Structure prediction by ZEFSAII (Michael W. Deem and Ramdas Pophale) SiO2 
 PCOD9514319
Probable space group: F D D D
;
_chemical_formula_sum "Si O2"
_cell_formula_units_Z 176
_cell_length_a 23.788814
_cell_length_b 13.632708
_cell_length_c 25.257756
_cell_angle_alpha 90.000000
_cell_angle_beta 90.000000
_cell_angle_gamma 90.000000
_cell_volume 8191.240679
_symmetry_space_group_name_H-M "F D D D"
_symmetry_group_IT_number 70
_space_group.IT_coordinate_system_code '2'
_symmetry_cell_setting 'orthorhombic'
loop_
_space_group_symop_operation_xyz
x,y,z
1/4-x,1/4-y,z
x,1/4-y,1/4-z
1/4-x,y,1/4-z
-x,-y,-z
3/4+x,3/4+y,-z
-x,3/4+y,3/4+z
3/4+x,-y,3/4+z
x,1/2+y,1/2+z
1/4-x,3/4-y,1/2+z
x,3/4-y,3/4-z
1/4-x,1/2+y,3/4-z
-x,1/2-y,1/2-z
3/4+x,1/4+y,1/2-z
-x,1/4+y,1/4+z
3/4+x,1/2-y,1/4+z
1/2+x,y,1/2+z
3/4-x,1/4-y,1/2+z
1/2+x,1/4-y,3/4-z
3/4-x,y,3/4-z
1/2-x,-y,1/2-z
1/4+x,3/4+y,1/2-z
1/2-x,3/4+y,1/4+z
1/4+x,-y,1/4+z
1/2+x,1/2+y,z
3/4-x,3/4-y,z
1/2+x,3/4-y,1/4-z
3/4-x,1/2+y,1/4-z
1/2-x,1/2-y,-z
1/4+x,1/4+y,-z
1/2-x,1/4+y,3/4+z
1/4+x,1/2-y,3/4+z
loop_
_atom_site_type_symbol
_atom_site_label
_atom_site_fract_x
_atom_site_fract_y
_atom_site_fract_z
Si Si1 0.172208 0.448896 0.080845
Si Si2 0.191165 0.911752 0.276814
Si Si3 0.064453 0.120683 0.013334
Si Si4 0.125000 0.125000 0.738600
Si Si5 0.340991 0.030595 0.681678
Si Si6 0.291775 0.018184 0.577217
O O1 0.125000 0.427219 0.125000
O O2 0.234106 0.475720 0.101162
O O3 0.181081 0.367004 0.035440
O O4 0.154798 0.546568 0.048732
O O5 0.255566 0.892414 0.293433
O O6 0.147914 0.841396 0.306632
O O7 0.182320 0.027891 0.276735
O O8 0.125000 0.125000 0.041334
O O9 0.054860 0.216348 0.977800
O O10 0.086846 0.191754 0.777393
O O11 0.338284 0.996029 0.621484
O O12 0.293308 0.115225 0.683996
#
# Coordination Sequence:
#
# PCOD9514319 Si02
#       6
#    32  32  32  16  32  32
#     4  10  22  41  57  85 119 164 199 248 307 373
#     4   9  20  38  60  88 119 155 202 252 303 365
#     4  10  18  36  66  87 113 161 198 248 306 366
#     4  10  23  36  56  78 126 158 198 238 305 360
#     4  10  21  37  52  92 120 154 201 248 295 363
#     4  10  22  35  62  88 119 156 206 248 308 355
#
# _framework density 21.486367000000001
#
# number of rings (size 3 to 8) (size 9 to 14) (size 15 to 20)
#    0.000    2.182    1.818    0.273    6.364    0.727 
#    3.273    0.000    0.000    0.545    0.000    0.000 
#    0.000    0.000    0.000    0.000    0.000    0.000 
#
# Total GULP energy -245231.662147 kJ/mol
# GULP energy per Si atom -5573.446867 kJ/mol
# Density = 2.143746 g / cm^3
# Si number density = 21.486367 Si / 1000 Ang^3
#
#
#
# Elastic Constant Matrix: (Units=GPa)
#
#
# Indices 1 2 3 4 5 6 
#
# 1 105.9748 -23.0575 12.4962 0.0000 0.0000 0.0000
# 2 -23.0575 58.7453 2.2473 0.0000 0.0000 0.0000
# 3 12.4962 2.2473 44.2550 0.0000 0.0000 0.0000
# 4 0.0000 0.0000 0.0000 23.2783 0.0000 0.0000
# 5 0.0000 0.0000 0.0000 0.0000 28.6807 0.0000
# 6 0.0000 0.0000 0.0000 0.0000 0.0000 24.0265
#
#
#
# Elastic Compliance Matrix: (Units=1/GPa)
#
#
# Indices 1 2 3 4 5 6 
#
# 1 0.010767 0.004351 -0.003261 0.000000 0.000000 0.000000
# 2 0.004351 0.018814 -0.002184 0.000000 0.000000 0.000000
# 3 -0.003261 -0.002184 0.023628 0.000000 0.000000 0.000000
# 4 0.000000 0.000000 0.000000 0.042958 0.000000 0.000000
# 5 0.000000 0.000000 0.000000 0.000000 0.034867 0.000000
# 6 0.000000 0.000000 0.000000 0.000000 0.000000 0.041621
#
#
# Mechanical properties :
#
#
# Convention : Reuss Voigt Hill
#
# Bulk Modulus (GPa) = 19.59982 21.37189 20.48585
# Shear Modulus (GPa) = 26.06191 29.68304 27.87248
#
# Velocity S-wave (km/s) = 3.48652 3.72086 3.60560
# Velocity P-wave (km/s) = 5.03484 5.33180 5.18544
#
# Compressibility (1/GPa) = 0.05102089
#
# Stress axis : x y z
#
# Youngs Moduli (GPa) = 92.87259 53.15205 42.32243
#
# Poissons Ratio (x) = -0.23126 0.13803
# Poissons Ratio (y) = -0.40409 0.09243
# Poissons Ratio (z) = 0.30289 0.11608
#
# Static dielectric constant tensor:
#      x y z
#    x 1.864530 0.000000 0.000000 
#    y 0.000000 1.799230 0.000000 
#    z 0.000000 0.000000 1.789620 
# 
# From -- ./inp_files/61120.got.cif
#   From: 2010.05.17/outbox.cif.g08.bks.cpg/sg70_31_cif.got.tgz:61120.got - 2010.06.03 15:57:51.
