data_PCOD9514464
_publ_section_title
;
Structure prediction by ZEFSAII (Michael W. Deem and Ramdas Pophale) SiO2 
 PCOD9514464
Probable space group: F D D D
;
_chemical_formula_sum "Si O2"
_cell_formula_units_Z 200
_cell_length_a 21.902369
_cell_length_b 16.713468
_cell_length_c 20.150844
_cell_angle_alpha 90.000000
_cell_angle_beta 90.000000
_cell_angle_gamma 90.000000
_cell_volume 7376.509508
_symmetry_space_group_name_H-M "F D D D"
_symmetry_group_IT_number 70
_space_group.IT_coordinate_system_code '2'
_symmetry_cell_setting 'orthorhombic'
loop_
_space_group_symop_operation_xyz
x,y,z
1/4-x,1/4-y,z
x,1/4-y,1/4-z
1/4-x,y,1/4-z
-x,-y,-z
3/4+x,3/4+y,-z
-x,3/4+y,3/4+z
3/4+x,-y,3/4+z
x,1/2+y,1/2+z
1/4-x,3/4-y,1/2+z
x,3/4-y,3/4-z
1/4-x,1/2+y,3/4-z
-x,1/2-y,1/2-z
3/4+x,1/4+y,1/2-z
-x,1/4+y,1/4+z
3/4+x,1/2-y,1/4+z
1/2+x,y,1/2+z
3/4-x,1/4-y,1/2+z
1/2+x,1/4-y,3/4-z
3/4-x,y,3/4-z
1/2-x,-y,1/2-z
1/4+x,3/4+y,1/2-z
1/2-x,3/4+y,1/4+z
1/4+x,-y,1/4+z
1/2+x,1/2+y,z
3/4-x,3/4-y,z
1/2+x,3/4-y,1/4-z
3/4-x,1/2+y,1/4-z
1/2-x,1/2-y,-z
1/4+x,1/4+y,-z
1/2-x,1/4+y,3/4+z
1/4+x,1/2-y,3/4+z
loop_
_atom_site_type_symbol
_atom_site_label
_atom_site_fract_x
_atom_site_fract_y
_atom_site_fract_z
Si Si1 0.248505 0.387922 0.168834
Si Si2 0.584812 0.244178 0.384536
Si Si3 0.875000 0.875000 0.875000
Si Si4 0.151214 0.517294 0.199428
Si Si5 0.311561 0.636611 0.772267
Si Si6 0.669950 0.255120 0.718787
Si Si7 0.939039 0.625000 0.625000
Si Si8 0.770957 0.375000 0.875000
O O1 0.316363 0.424840 0.166513
O O2 0.205796 0.452632 0.205842
O O3 0.227536 0.383498 0.090526
O O4 0.230684 0.305349 0.202894
O O5 0.586955 0.215813 0.459663
O O6 0.643396 0.298288 0.372646
O O7 0.525340 0.302209 0.384932
O O8 0.835500 0.814364 0.833113
O O9 0.125000 0.508334 0.125000
O O10 0.095611 0.472639 0.235689
O O11 0.186841 0.601967 0.188416
O O12 0.364738 0.570054 0.784859
O O13 0.282897 0.618425 0.699573
#
# Coordination Sequence:
#
# PCOD9514464 Si02
#       8
#    32  32   8  32  32  32  16  16
#     4   9  16  32  52  73 102 135 167 217 259 296
#     4   9  19  31  49  77 112 133 165 210 261 309
#     4  12  20  36  62  76  78 122 192 222 242 290
#     4   8  14  23  44  73 103 135 175 198 230 291
#     4   9  16  31  51  76 100 138 177 211 247 307
#     4  10  19  34  56  77  94 128 179 218 250 307
#     4   9  18  30  50  78 107 144 176 203 256 314
#     4   9  15  26  43  76 109 144 158 191 248 311
#
# _framework density 27.113095000000001
#
# number of rings (size 3 to 8) (size 9 to 14) (size 15 to 20)
#    0.000    2.880    1.600    1.200    0.000    1.280 
#    0.000    8.000    7.040    0.000    4.160    0.000 
#    0.000    0.000    0.000    0.000    0.000    0.000 
#
# Total GULP energy -279241.342628 kJ/mol
# GULP energy per Si atom -5584.826853 kJ/mol
# Density = 2.705138 g / cm^3
# Si number density = 27.113095 Si / 1000 Ang^3
#
#
#
# Elastic Constant Matrix: (Units=GPa)
#
#
# Indices 1 2 3 4 5 6 
#
# 1 72.4238 26.6040 -9.0933 0.0000 0.0000 0.0000
# 2 26.6040 117.8746 12.6510 0.0000 0.0000 0.0000
# 3 -9.0933 12.6510 126.0349 0.0000 0.0000 0.0000
# 4 0.0000 0.0000 0.0000 21.6661 0.0000 0.0000
# 5 0.0000 0.0000 0.0000 0.0000 33.3968 0.0000
# 6 0.0000 0.0000 0.0000 0.0000 0.0000 8.1656
#
#
#
# Elastic Compliance Matrix: (Units=1/GPa)
#
#
# Indices 1 2 3 4 5 6 
#
# 1 0.015320 -0.003615 0.001468 0.000000 0.000000 0.000000
# 2 -0.003615 0.009429 -0.001207 0.000000 0.000000 0.000000
# 3 0.001468 -0.001207 0.008161 0.000000 0.000000 0.000000
# 4 0.000000 0.000000 0.000000 0.046155 0.000000 0.000000
# 5 0.000000 0.000000 0.000000 0.000000 0.029943 0.000000
# 6 0.000000 0.000000 0.000000 0.000000 0.000000 0.122465
#
#
# Mechanical properties :
#
#
# Convention : Reuss Voigt Hill
#
# Bulk Modulus (GPa) = 38.16527 41.85073 40.00800
# Shear Modulus (GPa) = 20.24982 31.72383 25.98682
#
# Velocity S-wave (km/s) = 2.73585 3.42432 3.09926
# Velocity P-wave (km/s) = 4.90782 5.57707 5.25311
#
# Compressibility (1/GPa) = 0.02620184
#
# Stress axis : x y z
#
# Youngs Moduli (GPa) = 65.27425 106.05447 122.52762
#
# Poissons Ratio (x) = 0.38341 -0.17990
# Poissons Ratio (y) = 0.23598 0.14793
# Poissons Ratio (z) = -0.09584 0.12804
#
# Static dielectric constant tensor:
#      x y z
#    x 2.199120 0.000000 0.000000 
#    y 0.000000 2.107800 0.000000 
#    z 0.000000 0.000000 2.113990 
# 
# From -- ./inp_files/47753.got.cif
#   From: 2010.05.17/outbox.cif.g08.bks.cpg/sg70_24_cif.got.tgz:47753.got - 2010.06.03 15:57:51.
