data_PCOD9514406
_publ_section_title
;
Structure prediction by ZEFSAII (Michael W. Deem and Ramdas Pophale) SiO2 
 PCOD9514406
Probable space group: F D D D
;
_chemical_formula_sum "Si O2"
_cell_formula_units_Z 168
_cell_length_a 18.306434
_cell_length_b 25.298259
_cell_length_c 15.180315
_cell_angle_alpha 90.000000
_cell_angle_beta 90.000000
_cell_angle_gamma 90.000000
_cell_volume 7030.321277
_symmetry_space_group_name_H-M "F D D D"
_symmetry_group_IT_number 70
_space_group.IT_coordinate_system_code '2'
_symmetry_cell_setting 'orthorhombic'
loop_
_space_group_symop_operation_xyz
x,y,z
1/4-x,1/4-y,z
x,1/4-y,1/4-z
1/4-x,y,1/4-z
-x,-y,-z
3/4+x,3/4+y,-z
-x,3/4+y,3/4+z
3/4+x,-y,3/4+z
x,1/2+y,1/2+z
1/4-x,3/4-y,1/2+z
x,3/4-y,3/4-z
1/4-x,1/2+y,3/4-z
-x,1/2-y,1/2-z
3/4+x,1/4+y,1/2-z
-x,1/4+y,1/4+z
3/4+x,1/2-y,1/4+z
1/2+x,y,1/2+z
3/4-x,1/4-y,1/2+z
1/2+x,1/4-y,3/4-z
3/4-x,y,3/4-z
1/2-x,-y,1/2-z
1/4+x,3/4+y,1/2-z
1/2-x,3/4+y,1/4+z
1/4+x,-y,1/4+z
1/2+x,1/2+y,z
3/4-x,3/4-y,z
1/2+x,3/4-y,1/4-z
3/4-x,1/2+y,1/4-z
1/2-x,1/2-y,-z
1/4+x,1/4+y,-z
1/2-x,1/4+y,3/4+z
1/4+x,1/2-y,3/4+z
loop_
_atom_site_type_symbol
_atom_site_label
_atom_site_fract_x
_atom_site_fract_y
_atom_site_fract_z
Si Si1 0.245376 0.033707 0.104493
Si Si2 0.875000 0.875000 0.375000
Si Si3 0.536790 0.366031 0.777675
Si Si4 0.084864 0.766951 0.353287
Si Si5 0.320057 0.069161 0.459051
Si Si6 0.483479 0.419457 0.518636
O O1 0.235130 0.067016 0.195108
O O2 0.243868 0.078625 0.026848
O O3 0.328198 0.012782 0.103517
O O4 0.194860 0.983845 0.094823
O O5 0.823686 0.840635 0.439427
O O6 0.575861 0.375000 0.875000
O O7 0.599892 0.347394 0.712460
O O8 0.060313 0.796275 0.441682
O O9 0.050666 0.709708 0.337504
O O10 0.054732 0.802309 0.272704
O O11 0.258972 0.113552 0.443602
#
# Coordination Sequence:
#
# PCOD9514406 Si02
#       6
#    32   8  32  32  32  32
#     4   8  16  27  47  65  89 136 161 190 247 290
#     4  12  20  28  44  64  84 144 168 178 260 274
#     4   7  15  30  42  70 102 120 166 199 224 296
#     4  10  19  30  39  63  99 123 169 206 216 291
#     4  11  15  31  50  60  93 143 155 196 259 269
#     4  11  20  28  39  62  94 127 167 201 218 296
#
# _framework density 23.89649
#
# number of rings (size 3 to 8) (size 9 to 14) (size 15 to 20)
#    1.143    1.143    3.810    1.143    0.000    0.000 
#    0.000    0.000    0.000    0.000    0.000    5.333 
#    0.000   18.286    0.000    0.000    0.000    0.000 
#
# Total GULP energy -234319.273651 kJ/mol
# GULP energy per Si atom -5579.030325 kJ/mol
# Density = 2.384210 g / cm^3
# Si number density = 23.896490 Si / 1000 Ang^3
#
#
#
# Elastic Constant Matrix: (Units=GPa)
#
#
# Indices 1 2 3 4 5 6 
#
# 1 67.0580 56.3826 13.4018 0.0000 0.0000 0.0000
# 2 56.3826 191.4042 30.5564 0.0000 0.0000 0.0000
# 3 13.4018 30.5564 29.1250 0.0000 0.0000 0.0000
# 4 0.0000 0.0000 0.0000 2.6257 0.0000 0.0000
# 5 0.0000 0.0000 0.0000 0.0000 27.4922 0.0000
# 6 0.0000 0.0000 0.0000 0.0000 0.0000 5.2533
#
#
#
# Elastic Compliance Matrix: (Units=1/GPa)
#
#
# Indices 1 2 3 4 5 6 
#
# 1 0.020141 -0.005349 -0.003655 0.000000 0.000000 0.000000
# 2 -0.005349 0.007696 -0.005613 0.000000 0.000000 0.000000
# 3 -0.003655 -0.005613 0.041906 0.000000 0.000000 0.000000
# 4 0.000000 0.000000 0.000000 0.380855 0.000000 0.000000
# 5 0.000000 0.000000 0.000000 0.000000 0.036374 0.000000
# 6 0.000000 0.000000 0.000000 0.000000 0.000000 0.190357
#
#
# Mechanical properties :
#
#
# Convention : Reuss Voigt Hill
#
# Bulk Modulus (GPa) = 24.68703 54.25208 39.46956
# Shear Modulus (GPa) = 6.94380 19.55732 13.25056
#
# Velocity S-wave (km/s) = 1.70648 2.86390 2.35733
# Velocity P-wave (km/s) = 3.77307 5.80415 4.89511
#
# Compressibility (1/GPa) = 0.04050710
#
# Stress axis : x y z
#
# Youngs Moduli (GPa) = 49.65047 129.93009 23.86300
#
# Poissons Ratio (x) = 0.69505 0.08723
# Poissons Ratio (y) = 0.26560 0.13395
# Poissons Ratio (z) = 0.18149 0.72932
#
# Static dielectric constant tensor:
#      x y z
#    x 1.857920 0.000000 0.000000 
#    y 0.000000 1.987740 0.000000 
#    z 0.000000 0.000000 2.038180 
# 
# From -- ./inp_files/52953.got.cif
#   From: 2010.05.17/outbox.cif.g08.bks.cpg/sg70_27_cif.got.tgz:52953.got - 2010.06.03 15:57:51.
