data_PCOD9514779
_publ_section_title
;
Structure prediction by ZEFSAII (Michael W. Deem and Ramdas Pophale) SiO2 
 PCOD9514779
Probable space group: F D D D
;
_chemical_formula_sum "Si O2"
_cell_formula_units_Z 144
_cell_length_a 19.037551
_cell_length_b 17.040967
_cell_length_c 21.089080
_cell_angle_alpha 90.000000
_cell_angle_beta 90.000000
_cell_angle_gamma 90.000000
_cell_volume 6841.683026
_symmetry_space_group_name_H-M "F D D D"
_symmetry_group_IT_number 70
_space_group.IT_coordinate_system_code '2'
_symmetry_cell_setting 'orthorhombic'
loop_
_space_group_symop_operation_xyz
x,y,z
1/4-x,1/4-y,z
x,1/4-y,1/4-z
1/4-x,y,1/4-z
-x,-y,-z
3/4+x,3/4+y,-z
-x,3/4+y,3/4+z
3/4+x,-y,3/4+z
x,1/2+y,1/2+z
1/4-x,3/4-y,1/2+z
x,3/4-y,3/4-z
1/4-x,1/2+y,3/4-z
-x,1/2-y,1/2-z
3/4+x,1/4+y,1/2-z
-x,1/4+y,1/4+z
3/4+x,1/2-y,1/4+z
1/2+x,y,1/2+z
3/4-x,1/4-y,1/2+z
1/2+x,1/4-y,3/4-z
3/4-x,y,3/4-z
1/2-x,-y,1/2-z
1/4+x,3/4+y,1/2-z
1/2-x,3/4+y,1/4+z
1/4+x,-y,1/4+z
1/2+x,1/2+y,z
3/4-x,3/4-y,z
1/2+x,3/4-y,1/4-z
3/4-x,1/2+y,1/4-z
1/2-x,1/2-y,-z
1/4+x,1/4+y,-z
1/2-x,1/4+y,3/4+z
1/4+x,1/2-y,3/4+z
loop_
_atom_site_type_symbol
_atom_site_label
_atom_site_fract_x
_atom_site_fract_y
_atom_site_fract_z
Si Si1 0.640169 0.485388 0.327134
Si Si2 0.488879 0.375000 0.875000
Si Si3 0.915738 0.943829 0.546251
Si Si4 0.937149 0.525930 0.923569
Si Si5 0.772865 0.125000 0.125000
Si Si6 0.875000 0.875000 0.771927
O O1 0.710876 0.438168 0.341248
O O2 0.624960 0.533125 0.391185
O O3 0.575337 0.422175 0.327142
O O4 0.642835 0.549002 0.271213
O O5 0.437983 0.401882 0.818233
O O6 0.875000 0.875000 0.512323
O O7 0.913549 0.013748 0.495751
O O8 0.993780 0.920568 0.569189
O O9 0.875000 0.546269 0.875000
O O10 0.973189 0.442772 0.903330
#
# Coordination Sequence:
#
# PCOD9514779 Si02
#       6
#    32  16  32  32  16  16
#     4  10  21  40  61  90 122 167 207 262 323 383
#     4  10  24  41  67  90 124 166 214 260 326 388
#     4  10  20  35  56  85 122 160 206 260 319 379
#     4  10  20  34  57  86 120 165 209 257 320 389
#     4   9  19  35  59  87 123 166 204 256 326 376
#     4  11  22  42  66  94 123 166 212 268 321 382
#
# _framework density 21.047452
#
# number of rings (size 3 to 8) (size 9 to 14) (size 15 to 20)
#    0.000    2.000    1.111    2.333    0.000    5.333 
#    0.000    0.000    4.889    0.000    0.000    0.000 
#    0.000    0.000    0.000    0.000    0.000    0.000 
#
# Total GULP energy -200604.980596 kJ/mol
# GULP energy per Si atom -5572.360572 kJ/mol
# Density = 2.099955 g / cm^3
# Si number density = 21.047452 Si / 1000 Ang^3
#
#
#
# Elastic Constant Matrix: (Units=GPa)
#
#
# Indices 1 2 3 4 5 6 
#
# 1 120.2592 33.2098 57.0752 0.0000 0.0000 0.0000
# 2 33.2098 72.7572 22.8729 0.0000 0.0000 0.0000
# 3 57.0752 22.8729 116.8776 0.0000 0.0000 0.0000
# 4 0.0000 0.0000 0.0000 -15.6436 0.0000 0.0000
# 5 0.0000 0.0000 0.0000 0.0000 37.6732 0.0000
# 6 0.0000 0.0000 0.0000 0.0000 0.0000 17.7825
#
#
#
# Elastic Compliance Matrix: (Units=1/GPa)
#
#
# Indices 1 2 3 4 5 6 
#
# 1 0.011727 -0.003785 -0.004986 0.000000 0.000000 0.000000
# 2 -0.003785 0.015867 -0.001257 0.000000 0.000000 0.000000
# 3 -0.004986 -0.001257 0.011237 0.000000 0.000000 0.000000
# 4 0.000000 0.000000 0.000000 -0.063924 0.000000 0.000000
# 5 0.000000 0.000000 0.000000 0.000000 0.026544 0.000000
# 6 0.000000 0.000000 0.000000 0.000000 0.000000 0.056235
#
#
# Mechanical properties :
#
#
# Convention : Reuss Voigt Hill
#
# Bulk Modulus (GPa) = 53.26223 59.57889 56.42056
# Shear Modulus (GPa) = 59.52355 21.07816 40.30086
#
# Velocity S-wave (km/s) = 5.32372 3.16802 4.38055
# Velocity P-wave (km/s) = 7.94670 6.46144 7.24225
#
# Compressibility (1/GPa) = 0.01877503
#
# Stress axis : x y z
#
# Youngs Moduli (GPa) = 85.27319 63.02303 88.99427
#
# Poissons Ratio (x) = 0.23856 0.44372
# Poissons Ratio (y) = 0.32279 0.11184
# Poissons Ratio (z) = 0.42516 0.07920
#
# Static dielectric constant tensor:
#      x y z
#    x 1.820390 0.000000 0.000000 
#    y 0.000000 1.956010 0.000000 
#    z 0.000000 0.000000 1.755580 
# 
# From -- ./inp_files/34946.got.cif
#   From: 2010.05.17/outbox.cif.g08.bks.cpg/sg70_18_cif.got.tgz:34946.got - 2010.06.03 15:57:51.
