data_PCOD9514219
_publ_section_title
;
Structure prediction by ZEFSAII (Michael W. Deem and Ramdas Pophale) SiO2 
 PCOD9514219
Probable space group: F D D D
;
_chemical_formula_sum "Si O2"
_cell_formula_units_Z 144
_cell_length_a 26.183603
_cell_length_b 10.231350
_cell_length_c 32.109400
_cell_angle_alpha 90.000000
_cell_angle_beta 90.000000
_cell_angle_gamma 90.000000
_cell_volume 8601.902970
_symmetry_space_group_name_H-M "F D D D"
_symmetry_group_IT_number 70
_space_group.IT_coordinate_system_code '2'
_symmetry_cell_setting 'orthorhombic'
loop_
_space_group_symop_operation_xyz
x,y,z
1/4-x,1/4-y,z
x,1/4-y,1/4-z
1/4-x,y,1/4-z
-x,-y,-z
3/4+x,3/4+y,-z
-x,3/4+y,3/4+z
3/4+x,-y,3/4+z
x,1/2+y,1/2+z
1/4-x,3/4-y,1/2+z
x,3/4-y,3/4-z
1/4-x,1/2+y,3/4-z
-x,1/2-y,1/2-z
3/4+x,1/4+y,1/2-z
-x,1/4+y,1/4+z
3/4+x,1/2-y,1/4+z
1/2+x,y,1/2+z
3/4-x,1/4-y,1/2+z
1/2+x,1/4-y,3/4-z
3/4-x,y,3/4-z
1/2-x,-y,1/2-z
1/4+x,3/4+y,1/2-z
1/2-x,3/4+y,1/4+z
1/4+x,-y,1/4+z
1/2+x,1/2+y,z
3/4-x,3/4-y,z
1/2+x,3/4-y,1/4-z
3/4-x,1/2+y,1/4-z
1/2-x,1/2-y,-z
1/4+x,1/4+y,-z
1/2-x,1/4+y,3/4+z
1/4+x,1/2-y,3/4+z
loop_
_atom_site_type_symbol
_atom_site_label
_atom_site_fract_x
_atom_site_fract_y
_atom_site_fract_z
Si Si1 0.430181 0.436654 0.687554
Si Si2 0.506706 0.213096 0.661690
Si Si3 0.428916 0.660317 0.856912
Si Si4 0.575545 0.034730 0.715649
Si Si5 0.487233 0.125000 0.125000
O O1 0.375000 0.375000 0.677041
O O2 0.469385 0.317240 0.681884
O O3 0.429402 0.484946 0.735188
O O4 0.451242 0.550695 0.657867
O O5 0.482240 0.125000 0.625000
O O6 0.551290 0.294389 0.637782
O O7 0.529053 0.117700 0.696493
O O8 0.375000 0.709504 0.875000
O O9 0.420627 0.595444 0.811882
O O10 0.473882 0.767035 0.856103
O O11 0.625000 0.125000 0.708708
#
# Coordination Sequence:
#
# PCOD9514219 Si02
#       5
#    32  32  32  32  16
#     4  10  22  36  53  74 108 146 181 225 254 317
#     4   9  18  31  55  82 103 138 174 217 271 316
#     4  10  18  33  58  82 110 135 168 222 275 330
#     4  10  18  32  57  84 107 133 177 225 270 317
#     4  10  23  38  52  78 108 150 179 210 276 322
#
# _framework density 16.740482
#
# number of rings (size 3 to 8) (size 9 to 14) (size 15 to 20)
#    0.000    2.222    2.222    1.000    1.556    0.889 
#    0.000    0.000    0.000    2.667    0.000    0.000 
#    0.000    0.000    0.000    0.000    0.000    0.000 
#
# Total GULP energy -200656.320820 kJ/mol
# GULP energy per Si atom -5573.786689 kJ/mol
# Density = 1.670238 g / cm^3
# Si number density = 16.740482 Si / 1000 Ang^3
#
#
#
# Elastic Constant Matrix: (Units=GPa)
#
#
# Indices 1 2 3 4 5 6 
#
# 1 83.4906 37.1221 70.3271 0.0000 0.0000 0.0000
# 2 37.1221 89.6013 69.1019 0.0000 0.0000 0.0000
# 3 70.3271 69.1019 114.2783 0.0000 0.0000 0.0000
# 4 0.0000 0.0000 0.0000 18.4889 0.0000 0.0000
# 5 0.0000 0.0000 0.0000 0.0000 19.2456 0.0000
# 6 0.0000 0.0000 0.0000 0.0000 0.0000 23.2071
#
#
#
# Elastic Compliance Matrix: (Units=1/GPa)
#
#
# Indices 1 2 3 4 5 6 
#
# 1 0.025252 0.002854 -0.017266 0.000000 0.000000 0.000000
# 2 0.002854 0.021236 -0.014597 0.000000 0.000000 0.000000
# 3 -0.017266 -0.014597 0.028202 0.000000 0.000000 0.000000
# 4 0.000000 0.000000 0.000000 0.054087 0.000000 0.000000
# 5 0.000000 0.000000 0.000000 0.000000 0.051960 0.000000
# 6 0.000000 0.000000 0.000000 0.000000 0.000000 0.043090
#
#
# Mechanical properties :
#
#
# Convention : Reuss Voigt Hill
#
# Bulk Modulus (GPa) = 59.98049 71.16361 65.57205
# Shear Modulus (GPa) = 17.39723 19.57626 18.48675
#
# Velocity S-wave (km/s) = 3.22721 3.42335 3.32673
# Velocity P-wave (km/s) = 7.05648 7.63073 7.34921
#
# Compressibility (1/GPa) = 0.01667209
#
# Stress axis : x y z
#
# Youngs Moduli (GPa) = 39.60066 47.09057 35.45808
#
# Poissons Ratio (x) = -0.13437 0.61221
# Poissons Ratio (y) = -0.11300 0.51758
# Poissons Ratio (z) = 0.68373 0.68737
#
# Static dielectric constant tensor:
#      x y z
#    x 1.566830 0.000000 0.000000 
#    y 0.000000 1.555980 0.000000 
#    z 0.000000 0.000000 1.549620 
# 
# From -- ./inp_files/20785.got.cif
#   From: 2010.05.17/outbox.cif.g08.bks.cpg/sg70_11_cif.got.tgz:20785.got - 2010.06.03 15:57:51.
