data_PCOD9514092
_publ_section_title
;
Structure prediction by ZEFSAII (Michael W. Deem and Ramdas Pophale) SiO2 
 PCOD9514092
Probable space group: F D D D
;
_chemical_formula_sum "Si O2"
_cell_formula_units_Z 216
_cell_length_a 27.088090
_cell_length_b 13.767168
_cell_length_c 27.965453
_cell_angle_alpha 90.000000
_cell_angle_beta 90.000000
_cell_angle_gamma 90.000000
_cell_volume 10429.052519
_symmetry_space_group_name_H-M "F D D D"
_symmetry_group_IT_number 70
_space_group.IT_coordinate_system_code '2'
_symmetry_cell_setting 'orthorhombic'
loop_
_space_group_symop_operation_xyz
x,y,z
1/4-x,1/4-y,z
x,1/4-y,1/4-z
1/4-x,y,1/4-z
-x,-y,-z
3/4+x,3/4+y,-z
-x,3/4+y,3/4+z
3/4+x,-y,3/4+z
x,1/2+y,1/2+z
1/4-x,3/4-y,1/2+z
x,3/4-y,3/4-z
1/4-x,1/2+y,3/4-z
-x,1/2-y,1/2-z
3/4+x,1/4+y,1/2-z
-x,1/4+y,1/4+z
3/4+x,1/2-y,1/4+z
1/2+x,y,1/2+z
3/4-x,1/4-y,1/2+z
1/2+x,1/4-y,3/4-z
3/4-x,y,3/4-z
1/2-x,-y,1/2-z
1/4+x,3/4+y,1/2-z
1/2-x,3/4+y,1/4+z
1/4+x,-y,1/4+z
1/2+x,1/2+y,z
3/4-x,3/4-y,z
1/2+x,3/4-y,1/4-z
3/4-x,1/2+y,1/4-z
1/2-x,1/2-y,-z
1/4+x,1/4+y,-z
1/2-x,1/4+y,3/4+z
1/4+x,1/2-y,3/4+z
loop_
_atom_site_type_symbol
_atom_site_label
_atom_site_fract_x
_atom_site_fract_y
_atom_site_fract_z
Si Si1 0.414281 0.659592 0.718000
Si Si2 0.272022 0.641728 0.306167
Si Si3 0.456629 0.625000 0.125000
Si Si4 0.764179 0.729812 0.617155
Si Si5 0.420415 0.809164 0.547568
Si Si6 0.294234 0.388347 0.943996
Si Si7 0.625000 0.125000 0.625000
Si Si8 0.412253 0.460117 0.184170
O O1 0.453409 0.656616 0.760358
O O2 0.442844 0.699269 0.670989
O O3 0.398820 0.547527 0.714206
O O4 0.366587 0.726341 0.723382
O O5 0.271719 0.560546 0.346361
O O6 0.296689 0.745322 0.318292
O O7 0.214351 0.668424 0.298161
O O8 0.492338 0.644417 0.170777
O O9 0.424541 0.532996 0.140629
O O10 0.739595 0.625000 0.625000
O O11 0.789834 0.781024 0.662342
O O12 0.375000 0.875000 0.562643
O O13 0.445778 0.858558 0.500662
O O14 0.336192 0.332398 0.913923
O O15 0.375000 0.375000 0.170932
#
# Coordination Sequence:
#
# PCOD9514092 Si02
#       8
#    32  32  16  32  32  32   8  32
#     4  10  22  38  61  94 126 168 213 261 319 384
#     4  10  21  39  62  91 124 164 219 259 316 389
#     4   9  22  37  62  96 124 146 227 256 305 388
#     4  10  21  34  57  89 125 166 201 264 318 364
#     4  10  21  35  62  96 130 163 208 260 323 377
#     4   9  19  38  64  92 125 169 205 262 307 384
#     4  10  16  36  72  84 122 176 212 236 322 380
#     4  11  22  35  63  94 122 168 205 263 329 372
#
# _framework density 20.711372999999998
#
# number of rings (size 3 to 8) (size 9 to 14) (size 15 to 20)
#    0.000    2.074    2.222    0.444    5.185    1.185 
#    0.000    0.000   26.074   14.222    0.000    0.000 
#    0.000    0.000    0.000    0.000    0.000    0.000 
#
# Total GULP energy -300954.465465 kJ/mol
# GULP energy per Si atom -5573.230842 kJ/mol
# Density = 2.066423 g / cm^3
# Si number density = 20.711373 Si / 1000 Ang^3
#
#
#
# Elastic Constant Matrix: (Units=GPa)
#
#
# Indices 1 2 3 4 5 6 
#
# 1 77.7438 48.2052 45.6303 0.0000 0.0000 0.0000
# 2 48.2052 87.4749 44.0500 0.0000 0.0000 0.0000
# 3 45.6303 44.0500 125.6309 0.0000 0.0000 0.0000
# 4 0.0000 0.0000 0.0000 10.4256 0.0000 0.0000
# 5 0.0000 0.0000 0.0000 0.0000 -6.2597 0.0000
# 6 0.0000 0.0000 0.0000 0.0000 0.0000 20.1760
#
#
#
# Elastic Compliance Matrix: (Units=1/GPa)
#
#
# Indices 1 2 3 4 5 6 
#
# 1 0.021381 -0.009560 -0.004414 0.000000 0.000000 0.000000
# 2 -0.009560 0.018158 -0.002894 0.000000 0.000000 0.000000
# 3 -0.004414 -0.002894 0.010578 0.000000 0.000000 0.000000
# 4 0.000000 0.000000 0.000000 0.095918 0.000000 0.000000
# 5 0.000000 0.000000 0.000000 0.000000 -0.159752 0.000000
# 6 0.000000 0.000000 0.000000 0.000000 0.000000 0.049564
#
#
# Mechanical properties :
#
#
# Convention : Reuss Voigt Hill
#
# Bulk Modulus (GPa) = 61.04884 62.95785 62.00335
# Shear Modulus (GPa) = 66.62879 15.06598 40.84739
#
# Velocity S-wave (km/s) = 5.67803 2.70001 4.44579
# Velocity P-wave (km/s) = 8.51626 6.33907 7.50701
#
# Compressibility (1/GPa) = 0.01638033
#
# Stress axis : x y z
#
# Youngs Moduli (GPa) = 46.77062 55.07347 94.53753
#
# Poissons Ratio (x) = 0.52649 0.41727
# Poissons Ratio (y) = 0.44712 0.27363
# Poissons Ratio (z) = 0.20644 0.15940
#
# Static dielectric constant tensor:
#      x y z
#    x 1.754750 0.000000 0.000000 
#    y 0.000000 1.801570 0.000000 
#    z 0.000000 0.000000 1.784350 
# 
# From -- ./inp_files/55146.got.cif
#   From: 2010.05.17/outbox.cif.g08.bks.cpg/sg70_28_cif.got.tgz:55146.got - 2010.06.03 15:57:51.
