data_PCOD9514466
_publ_section_title
;
Structure prediction by ZEFSAII (Michael W. Deem and Ramdas Pophale) SiO2 
 PCOD9514466
Probable space group: F D D D
;
_chemical_formula_sum "Si O2"
_cell_formula_units_Z 240
_cell_length_a 28.428791
_cell_length_b 20.659855
_cell_length_c 20.650278
_cell_angle_alpha 90.000000
_cell_angle_beta 90.000000
_cell_angle_gamma 90.000000
_cell_volume 12128.624832
_symmetry_space_group_name_H-M "F D D D"
_symmetry_group_IT_number 70
_space_group.IT_coordinate_system_code '2'
_symmetry_cell_setting 'orthorhombic'
loop_
_space_group_symop_operation_xyz
x,y,z
1/4-x,1/4-y,z
x,1/4-y,1/4-z
1/4-x,y,1/4-z
-x,-y,-z
3/4+x,3/4+y,-z
-x,3/4+y,3/4+z
3/4+x,-y,3/4+z
x,1/2+y,1/2+z
1/4-x,3/4-y,1/2+z
x,3/4-y,3/4-z
1/4-x,1/2+y,3/4-z
-x,1/2-y,1/2-z
3/4+x,1/4+y,1/2-z
-x,1/4+y,1/4+z
3/4+x,1/2-y,1/4+z
1/2+x,y,1/2+z
3/4-x,1/4-y,1/2+z
1/2+x,1/4-y,3/4-z
3/4-x,y,3/4-z
1/2-x,-y,1/2-z
1/4+x,3/4+y,1/2-z
1/2-x,3/4+y,1/4+z
1/4+x,-y,1/4+z
1/2+x,1/2+y,z
3/4-x,3/4-y,z
1/2+x,3/4-y,1/4-z
3/4-x,1/2+y,1/4-z
1/2-x,1/2-y,-z
1/4+x,1/4+y,-z
1/2-x,1/4+y,3/4+z
1/4+x,1/2-y,3/4+z
loop_
_atom_site_type_symbol
_atom_site_label
_atom_site_fract_x
_atom_site_fract_y
_atom_site_fract_z
Si Si1 0.906692 0.157177 0.983619
Si Si2 0.982609 0.244800 0.922407
Si Si3 0.167759 0.093315 0.808439
Si Si4 0.758481 0.594904 0.470602
Si Si5 0.311586 0.728585 0.965767
Si Si6 0.408536 0.988699 0.170403
Si Si7 0.879044 0.125000 0.125000
Si Si8 0.893924 0.026918 0.808748
O O1 0.954212 0.187848 0.957875
O O2 0.865866 0.207235 0.963298
O O3 0.889628 0.089641 0.952553
O O4 0.906881 0.147300 0.061097
O O5 0.958718 0.252213 0.852565
O O6 0.036444 0.224399 0.916013
O O7 0.987123 0.308611 0.966869
O O8 0.125000 0.125000 0.768331
O O9 0.212179 0.139788 0.821738
O O10 0.190350 0.034239 0.768604
O O11 0.139182 0.060277 0.867580
O O12 0.784611 0.662644 0.485879
O O13 0.801424 0.551935 0.441012
O O14 0.400640 0.062879 0.148036
O O15 0.390616 0.984572 0.243574
O O16 0.875000 0.996729 0.875000
#
# Coordination Sequence:
#
# PCOD9514466 Si02
#       8
#    32  32  32  32  32  32  16  32
#     4  10  19  34  56  85 117 159 200 255 299 360
#     4  11  22  34  59  90 123 157 206 254 307 359
#     4  12  24  38  56  81 126 169 205 245 303 366
#     4  10  22  36  55  89 118 164 202 255 299 370
#     4  11  21  38  57  81 125 170 207 245 295 368
#     4  10  22  37  60  84 114 161 200 247 306 373
#     4  10  20  38  60  78 117 164 209 242 300 374
#     4   9  19  36  61  85 110 147 206 253 304 364
#
# _framework density 19.787898999999999
#
# number of rings (size 3 to 8) (size 9 to 14) (size 15 to 20)
#    0.000    1.600    2.667    4.000    0.000    0.533 
#    0.000    0.667    0.000    4.400    0.000    0.000 
#    0.000    0.000    0.000    0.000    0.000    0.000 
#
# Total GULP energy -334596.705880 kJ/mol
# GULP energy per Si atom -5576.611765 kJ/mol
# Density = 1.974286 g / cm^3
# Si number density = 19.787899 Si / 1000 Ang^3
#
#
#
# Elastic Constant Matrix: (Units=GPa)
#
#
# Indices 1 2 3 4 5 6 
#
# 1 52.2173 17.5319 17.5798 0.0000 0.0000 0.0000
# 2 17.5319 44.3053 30.3526 0.0000 0.0000 0.0000
# 3 17.5798 30.3526 142.7720 0.0000 0.0000 0.0000
# 4 0.0000 0.0000 0.0000 24.8832 0.0000 0.0000
# 5 0.0000 0.0000 0.0000 0.0000 17.4020 0.0000
# 6 0.0000 0.0000 0.0000 0.0000 0.0000 18.2812
#
#
#
# Elastic Compliance Matrix: (Units=1/GPa)
#
#
# Indices 1 2 3 4 5 6 
#
# 1 0.022210 -0.008094 -0.001014 0.000000 0.000000 0.000000
# 2 -0.008094 0.029368 -0.005247 0.000000 0.000000 0.000000
# 3 -0.001014 -0.005247 0.008244 0.000000 0.000000 0.000000
# 4 0.000000 0.000000 0.000000 0.040188 0.000000 0.000000
# 5 0.000000 0.000000 0.000000 0.000000 0.057465 0.000000
# 6 0.000000 0.000000 0.000000 0.000000 0.000000 0.054701
#
#
# Mechanical properties :
#
#
# Convention : Reuss Voigt Hill
#
# Bulk Modulus (GPa) = 32.14126 41.13592 36.63859
# Shear Modulus (GPa) = 19.90003 23.70196 21.80100
#
# Velocity S-wave (km/s) = 3.17467 3.46468 3.32284
# Velocity P-wave (km/s) = 5.45125 6.06951 5.76867
#
# Compressibility (1/GPa) = 0.03111266
#
# Stress axis : x y z
#
# Youngs Moduli (GPa) = 45.02551 34.05067 121.29307
#
# Poissons Ratio (x) = 0.27560 0.12299
# Poissons Ratio (y) = 0.36443 0.63641
# Poissons Ratio (z) = 0.04566 0.17866
#
# Static dielectric constant tensor:
#      x y z
#    x 1.727160 0.000000 0.000000 
#    y 0.000000 1.745360 0.000000 
#    z 0.000000 0.000000 1.780670 
# 
# From -- ./inp_files/47817.got.cif
#   From: 2010.05.17/outbox.cif.g08.bks.cpg/sg70_24_cif.got.tgz:47817.got - 2010.06.03 15:57:51.
