data_PCOD9514128
_publ_section_title
;
Structure prediction by ZEFSAII (Michael W. Deem and Ramdas Pophale) SiO2 
 PCOD9514128
Probable space group: F D D D
;
_chemical_formula_sum "Si O2"
_cell_formula_units_Z 160
_cell_length_a 33.825402
_cell_length_b 9.621151
_cell_length_c 22.954267
_cell_angle_alpha 90.000000
_cell_angle_beta 90.000000
_cell_angle_gamma 90.000000
_cell_volume 7470.220591
_symmetry_space_group_name_H-M "F D D D"
_symmetry_group_IT_number 70
_space_group.IT_coordinate_system_code '2'
_symmetry_cell_setting 'orthorhombic'
loop_
_space_group_symop_operation_xyz
x,y,z
1/4-x,1/4-y,z
x,1/4-y,1/4-z
1/4-x,y,1/4-z
-x,-y,-z
3/4+x,3/4+y,-z
-x,3/4+y,3/4+z
3/4+x,-y,3/4+z
x,1/2+y,1/2+z
1/4-x,3/4-y,1/2+z
x,3/4-y,3/4-z
1/4-x,1/2+y,3/4-z
-x,1/2-y,1/2-z
3/4+x,1/4+y,1/2-z
-x,1/4+y,1/4+z
3/4+x,1/2-y,1/4+z
1/2+x,y,1/2+z
3/4-x,1/4-y,1/2+z
1/2+x,1/4-y,3/4-z
3/4-x,y,3/4-z
1/2-x,-y,1/2-z
1/4+x,3/4+y,1/2-z
1/2-x,3/4+y,1/4+z
1/4+x,-y,1/4+z
1/2+x,1/2+y,z
3/4-x,3/4-y,z
1/2+x,3/4-y,1/4-z
3/4-x,1/2+y,1/4-z
1/2-x,1/2-y,-z
1/4+x,1/4+y,-z
1/2-x,1/4+y,3/4+z
1/4+x,1/2-y,3/4+z
loop_
_atom_site_type_symbol
_atom_site_label
_atom_site_fract_x
_atom_site_fract_y
_atom_site_fract_z
Si Si1 0.320841 0.095433 0.922753
Si Si2 0.919639 0.376623 0.266425
Si Si3 0.592894 0.445327 0.543683
Si Si4 0.215318 0.501385 0.297120
Si Si5 0.020625 0.685754 0.423065
O O1 0.325985 0.262667 0.932411
O O2 0.359806 0.044749 0.957008
O O3 0.327317 0.029096 0.858875
O O4 0.275677 0.065567 0.939148
O O5 0.875000 0.375000 0.241505
O O6 0.921848 0.534848 0.287730
O O7 0.952452 0.347589 0.217155
O O8 0.573266 0.529254 0.491326
O O9 0.250000 0.500000 0.250000
O O10 0.223824 0.593924 0.354085
O O11 0.213860 0.342102 0.318106
#
# Coordination Sequence:
#
# PCOD9514128 Si02
#       5
#    32  32  32  32  32
#     4  10  17  31  53  81 105 127 174 225 263 309
#     4   9  18  32  51  78 107 137 168 211 269 323
#     4   9  18  31  53  76 105 138 168 214 272 315
#     4  10  19  36  52  69 103 140 178 209 260 319
#     4  10  20  32  55  76  99 141 176 213 258 313
#
# _framework density 21.418377
#
# number of rings (size 3 to 8) (size 9 to 14) (size 15 to 20)
#    0.000    2.400    2.000    1.200    0.000    2.400 
#    0.000    3.000    0.000    2.400    0.000    0.000 
#    0.000    0.000    0.000    0.000    0.000    0.000 
#
# Total GULP energy -222782.325553 kJ/mol
# GULP energy per Si atom -5569.558139 kJ/mol
# Density = 2.136963 g / cm^3
# Si number density = 21.418377 Si / 1000 Ang^3
#
#
#
# Elastic Constant Matrix: (Units=GPa)
#
#
# Indices 1 2 3 4 5 6 
#
# 1 165.3089 8.1159 63.2031 0.0000 0.0000 0.0000
# 2 8.1159 49.1604 20.3325 0.0000 0.0000 0.0000
# 3 63.2031 20.3325 118.0781 0.0000 0.0000 0.0000
# 4 0.0000 0.0000 0.0000 8.8191 0.0000 0.0000
# 5 0.0000 0.0000 0.0000 0.0000 18.0452 0.0000
# 6 0.0000 0.0000 0.0000 0.0000 0.0000 24.4308
#
#
#
# Elastic Compliance Matrix: (Units=1/GPa)
#
#
# Indices 1 2 3 4 5 6 
#
# 1 0.007616 0.000462 -0.004156 0.000000 0.000000 0.000000
# 2 0.000462 0.021929 -0.004023 0.000000 0.000000 0.000000
# 3 -0.004156 -0.004023 0.011386 0.000000 0.000000 0.000000
# 4 0.000000 0.000000 0.000000 0.113390 0.000000 0.000000
# 5 0.000000 0.000000 0.000000 0.000000 0.055416 0.000000
# 6 0.000000 0.000000 0.000000 0.000000 0.000000 0.040932
#
#
# Mechanical properties :
#
#
# Convention : Reuss Voigt Hill
#
# Bulk Modulus (GPa) = 39.22152 57.31672 48.26912
# Shear Modulus (GPa) = 18.20810 26.31876 22.26343
#
# Velocity S-wave (km/s) = 2.91884 3.50922 3.22756
# Velocity P-wave (km/s) = 5.45081 6.57557 6.03943
#
# Compressibility (1/GPa) = 0.02549621
#
# Stress axis : x y z
#
# Youngs Moduli (GPa) = 131.31075 45.60101 87.82561
#
# Poissons Ratio (x) = -0.02105 0.36499
# Poissons Ratio (y) = -0.06061 0.35334
# Poissons Ratio (z) = 0.54570 0.18346
#
# Static dielectric constant tensor:
#      x y z
#    x 1.795390 0.000000 0.000000 
#    y 0.000000 1.762470 0.000000 
#    z 0.000000 0.000000 1.834200 
# 
# From -- ./inp_files/19474.got.cif
#   From: 2010.05.17/outbox.cif.g08.bks.cpg/sg70_10_cif.got.tgz:19474.got - 2010.06.03 15:57:51.
