data_PCOD9514922
_publ_section_title
;
Structure prediction by ZEFSAII (Michael W. Deem and Ramdas Pophale) SiO2 
 PCOD9514922
Probable space group: F D D D
;
_chemical_formula_sum "Si O2"
_cell_formula_units_Z 168
_cell_length_a 20.572686
_cell_length_b 21.694327
_cell_length_c 19.379590
_cell_angle_alpha 90.000000
_cell_angle_beta 90.000000
_cell_angle_gamma 90.000000
_cell_volume 8649.316002
_symmetry_space_group_name_H-M "F D D D"
_symmetry_group_IT_number 70
_space_group.IT_coordinate_system_code '2'
_symmetry_cell_setting 'orthorhombic'
loop_
_space_group_symop_operation_xyz
x,y,z
1/4-x,1/4-y,z
x,1/4-y,1/4-z
1/4-x,y,1/4-z
-x,-y,-z
3/4+x,3/4+y,-z
-x,3/4+y,3/4+z
3/4+x,-y,3/4+z
x,1/2+y,1/2+z
1/4-x,3/4-y,1/2+z
x,3/4-y,3/4-z
1/4-x,1/2+y,3/4-z
-x,1/2-y,1/2-z
3/4+x,1/4+y,1/2-z
-x,1/4+y,1/4+z
3/4+x,1/2-y,1/4+z
1/2+x,y,1/2+z
3/4-x,1/4-y,1/2+z
1/2+x,1/4-y,3/4-z
3/4-x,y,3/4-z
1/2-x,-y,1/2-z
1/4+x,3/4+y,1/2-z
1/2-x,3/4+y,1/4+z
1/4+x,-y,1/4+z
1/2+x,1/2+y,z
3/4-x,3/4-y,z
1/2+x,3/4-y,1/4-z
3/4-x,1/2+y,1/4-z
1/2-x,1/2-y,-z
1/4+x,1/4+y,-z
1/2-x,1/4+y,3/4+z
1/4+x,1/2-y,3/4+z
loop_
_atom_site_type_symbol
_atom_site_label
_atom_site_fract_x
_atom_site_fract_y
_atom_site_fract_z
Si Si1 0.344434 0.969466 0.566189
Si Si2 0.770268 0.784844 0.394860
Si Si3 0.280796 0.343568 0.096714
Si Si4 0.043306 0.840733 0.219297
Si Si5 0.125000 0.125000 0.625000
Si Si6 0.853929 0.191055 0.453778
O O1 0.308304 0.904231 0.558414
O O2 0.409372 0.952452 0.608929
O O3 0.292804 0.013572 0.603059
O O4 0.370135 0.002747 0.498474
O O5 0.802373 0.723258 0.427502
O O6 0.743837 0.823617 0.460521
O O7 0.821590 0.824175 0.350220
O O8 0.251231 0.367447 0.168947
O O9 0.223358 0.316065 0.050417
O O10 0.109717 0.878655 0.229356
O O11 0.875000 0.199281 0.375000
#
# Coordination Sequence:
#
# PCOD9514922 Si02
#       6
#    32  32  32  32   8  32
#     4  10  20  38  60  85 121 153 204 248 299 356
#     4  10  22  36  56  88 120 155 196 245 293 366
#     4   9  20  37  61  84 115 161 193 248 304 355
#     4   9  20  38  58  85 117 157 197 237 301 364
#     4  12  24  32  56  84 124 152 186 234 298 356
#     4  10  20  37  60  83 115 157 204 242 299 360
#
# _framework density 19.423501000000002
#
# number of rings (size 3 to 8) (size 9 to 14) (size 15 to 20)
#    0.000    2.286    0.000    1.714    6.667    4.571 
#    6.857    1.905    4.190    0.000    0.000    0.000 
#    0.000    0.000    0.000    0.000    0.000    0.000 
#
# Total GULP energy -233881.161749 kJ/mol
# GULP energy per Si atom -5568.599089 kJ/mol
# Density = 1.937929 g / cm^3
# Si number density = 19.423501 Si / 1000 Ang^3
#
#
#
# Elastic Constant Matrix: (Units=GPa)
#
#
# Indices 1 2 3 4 5 6 
#
# 1 137.2821 54.1854 15.9688 0.0000 0.0000 0.0000
# 2 54.1854 52.1601 18.2598 0.0000 0.0000 0.0000
# 3 15.9688 18.2598 40.1606 0.0000 0.0000 0.0000
# 4 0.0000 0.0000 0.0000 25.8088 0.0000 0.0000
# 5 0.0000 0.0000 0.0000 0.0000 9.0136 0.0000
# 6 0.0000 0.0000 0.0000 0.0000 0.0000 44.2715
#
#
#
# Elastic Compliance Matrix: (Units=1/GPa)
#
#
# Indices 1 2 3 4 5 6 
#
# 1 0.012388 -0.013254 0.001101 0.000000 0.000000 0.000000
# 2 -0.013254 0.036982 -0.011544 0.000000 0.000000 0.000000
# 3 0.001101 -0.011544 0.029711 0.000000 0.000000 0.000000
# 4 0.000000 0.000000 0.000000 0.038746 0.000000 0.000000
# 5 0.000000 0.000000 0.000000 0.000000 0.110943 0.000000
# 6 0.000000 0.000000 0.000000 0.000000 0.000000 0.022588
#
#
# Mechanical properties :
#
#
# Convention : Reuss Voigt Hill
#
# Bulk Modulus (GPa) = 31.56058 45.15897 38.35977
# Shear Modulus (GPa) = 16.16475 25.23137 20.69806
#
# Velocity S-wave (km/s) = 2.88796 3.60809 3.26792
# Velocity P-wave (km/s) = 5.23492 6.37635 5.83362
#
# Compressibility (1/GPa) = 0.03168510
#
# Stress axis : x y z
#
# Youngs Moduli (GPa) = 80.72623 27.04049 33.65723
#
# Poissons Ratio (x) = 0.35839 -0.03704
# Poissons Ratio (y) = 1.06993 0.38855
# Poissons Ratio (z) = -0.08884 0.31217
#
# Static dielectric constant tensor:
#      x y z
#    x 1.710930 0.000000 0.000000 
#    y 0.000000 1.708060 0.000000 
#    z 0.000000 0.000000 1.660010 
# 
# From -- ./inp_files/44826.got.cif
#   From: 2010.05.17/outbox.cif.g08.bks.cpg/sg70_23_cif.got.tgz:44826.got - 2010.06.03 15:57:51.
