data_PCOD9514973
_publ_section_title
;
Structure prediction by ZEFSAII (Michael W. Deem and Ramdas Pophale) SiO2 
 PCOD9514973
Probable space group: F D D D
;
_chemical_formula_sum "Si O2"
_cell_formula_units_Z 176
_cell_length_a 19.810272
_cell_length_b 25.381775
_cell_length_c 17.238254
_cell_angle_alpha 90.000000
_cell_angle_beta 90.000000
_cell_angle_gamma 90.000000
_cell_volume 8667.736577
_symmetry_space_group_name_H-M "F D D D"
_symmetry_group_IT_number 70
_space_group.IT_coordinate_system_code '2'
_symmetry_cell_setting 'orthorhombic'
loop_
_space_group_symop_operation_xyz
x,y,z
1/4-x,1/4-y,z
x,1/4-y,1/4-z
1/4-x,y,1/4-z
-x,-y,-z
3/4+x,3/4+y,-z
-x,3/4+y,3/4+z
3/4+x,-y,3/4+z
x,1/2+y,1/2+z
1/4-x,3/4-y,1/2+z
x,3/4-y,3/4-z
1/4-x,1/2+y,3/4-z
-x,1/2-y,1/2-z
3/4+x,1/4+y,1/2-z
-x,1/4+y,1/4+z
3/4+x,1/2-y,1/4+z
1/2+x,y,1/2+z
3/4-x,1/4-y,1/2+z
1/2+x,1/4-y,3/4-z
3/4-x,y,3/4-z
1/2-x,-y,1/2-z
1/4+x,3/4+y,1/2-z
1/2-x,3/4+y,1/4+z
1/4+x,-y,1/4+z
1/2+x,1/2+y,z
3/4-x,3/4-y,z
1/2+x,3/4-y,1/4-z
3/4-x,1/2+y,1/4-z
1/2-x,1/2-y,-z
1/4+x,1/4+y,-z
1/2-x,1/4+y,3/4+z
1/4+x,1/2-y,3/4+z
loop_
_atom_site_type_symbol
_atom_site_label
_atom_site_fract_x
_atom_site_fract_y
_atom_site_fract_z
Si Si1 0.701332 0.063877 0.101834
Si Si2 0.354661 0.758317 0.462620
Si Si3 0.498749 0.412987 0.018543
Si Si4 0.323048 0.828066 0.677440
Si Si5 0.412987 0.231820 0.114829
Si Si6 0.423747 0.625000 0.125000
O O1 0.709767 0.125000 0.125000
O O2 0.625000 0.047989 0.125000
O O3 0.760133 0.028523 0.139625
O O4 0.710293 0.063952 0.008996
O O5 0.375000 0.756474 0.375000
O O6 0.301513 0.711203 0.476066
O O7 0.318610 0.813192 0.480892
O O8 0.412797 0.748820 0.524587
O O9 0.476524 0.402640 0.107730
O O10 0.531582 0.374441 0.954488
O O11 0.375000 0.875000 0.692983
O O12 0.367314 0.777302 0.652677
O O13 0.372838 0.176850 0.123581
#
# Coordination Sequence:
#
# PCOD9514973 Si02
#       6
#    32  32  32  32  32  16
#     4  11  22  43  66  87 122 169 208 268 327 377
#     4   9  17  34  56  86 120 162 197 245 311 368
#     4   9  20  33  55  87 124 155 199 255 300 368
#     4  11  23  40  61  92 125 160 209 262 320 377
#     4  10  22  38  66  90 123 168 213 260 313 388
#     4  10  20  38  60  92 126 166 212 250 316 380
#
# _framework density 20.305185000000002
#
# number of rings (size 3 to 8) (size 9 to 14) (size 15 to 20)
#    0.000    2.000    2.727    2.182    0.000    5.091 
#    0.000    0.000    0.000    1.091    0.000    0.000 
#    0.000    0.000    0.000    0.000    0.000    0.000 
#
# Total GULP energy -245275.265435 kJ/mol
# GULP energy per Si atom -5574.437851 kJ/mol
# Density = 2.025897 g / cm^3
# Si number density = 20.305185 Si / 1000 Ang^3
#
#
#
# Elastic Constant Matrix: (Units=GPa)
#
#
# Indices 1 2 3 4 5 6 
#
# 1 87.1031 11.3963 25.0890 0.0000 0.0000 0.0000
# 2 11.3963 49.7194 13.2594 0.0000 0.0000 0.0000
# 3 25.0890 13.2594 120.2178 0.0000 0.0000 0.0000
# 4 0.0000 0.0000 0.0000 20.4819 0.0000 0.0000
# 5 0.0000 0.0000 0.0000 0.0000-1531.6822 0.0000
# 6 0.0000 0.0000 0.0000 0.0000 0.0000 -2.8074
#
#
#
# Elastic Compliance Matrix: (Units=1/GPa)
#
#
# Indices 1 2 3 4 5 6 
#
# 1 0.012450 -0.002226 -0.002353 0.000000 0.000000 0.000000
# 2 -0.002226 0.021120 -0.001865 0.000000 0.000000 0.000000
# 3 -0.002353 -0.001865 0.009015 0.000000 0.000000 0.000000
# 4 0.000000 0.000000 0.000000 0.048824 0.000000 0.000000
# 5 0.000000 0.000000 0.000000 0.000000 -0.000653 0.000000
# 6 0.000000 0.000000 0.000000 0.000000 0.000000 -0.356198
#
#
# Mechanical properties :
#
#
# Convention : Reuss Voigt Hill
#
# Bulk Modulus (GPa) = 33.67280 39.61439 36.64360
# Shear Modulus (GPa) = -20.60531 -288.98185 -154.79358
#
# Velocity S-wave (km/s) = -3.18902 -11.94270 -8.74065
# Velocity P-wave (km/s) = 1.74916 13.06212 9.15313
#
# Compressibility (1/GPa) = 0.02969756
#
# Stress axis : x y z
#
# Youngs Moduli (GPa) = 80.32414 47.34738 110.92738
#
# Poissons Ratio (x) = 0.10540 0.26097
# Poissons Ratio (y) = 0.17882 0.20687
# Poissons Ratio (z) = 0.18897 0.08830
#
# Static dielectric constant tensor:
#      x y z
#    x 1.740670 0.000000 0.000000 
#    y 0.000000 1.709380 0.000000 
#    z 0.000000 0.000000 1.819970 
# 
# From -- ./inp_files/35457.got.cif
#   From: 2010.05.17/outbox.cif.g08.bks.cpg/sg70_18_cif.got.tgz:35457.got - 2010.06.03 15:57:51.
