data_PCOD9514456
_publ_section_title
;
Structure prediction by ZEFSAII (Michael W. Deem and Ramdas Pophale) SiO2 
 PCOD9514456
Probable space group: F D D D
;
_chemical_formula_sum "Si O2"
_cell_formula_units_Z 232
_cell_length_a 31.118333
_cell_length_b 20.309268
_cell_length_c 16.061292
_cell_angle_alpha 90.000000
_cell_angle_beta 90.000000
_cell_angle_gamma 90.000000
_cell_volume 10150.584999
_symmetry_space_group_name_H-M "F D D D"
_symmetry_group_IT_number 70
_space_group.IT_coordinate_system_code '2'
_symmetry_cell_setting 'orthorhombic'
loop_
_space_group_symop_operation_xyz
x,y,z
1/4-x,1/4-y,z
x,1/4-y,1/4-z
1/4-x,y,1/4-z
-x,-y,-z
3/4+x,3/4+y,-z
-x,3/4+y,3/4+z
3/4+x,-y,3/4+z
x,1/2+y,1/2+z
1/4-x,3/4-y,1/2+z
x,3/4-y,3/4-z
1/4-x,1/2+y,3/4-z
-x,1/2-y,1/2-z
3/4+x,1/4+y,1/2-z
-x,1/4+y,1/4+z
3/4+x,1/2-y,1/4+z
1/2+x,y,1/2+z
3/4-x,1/4-y,1/2+z
1/2+x,1/4-y,3/4-z
3/4-x,y,3/4-z
1/2-x,-y,1/2-z
1/4+x,3/4+y,1/2-z
1/2-x,3/4+y,1/4+z
1/4+x,-y,1/4+z
1/2+x,1/2+y,z
3/4-x,3/4-y,z
1/2+x,3/4-y,1/4-z
3/4-x,1/2+y,1/4-z
1/2-x,1/2-y,-z
1/4+x,1/4+y,-z
1/2-x,1/4+y,3/4+z
1/4+x,1/2-y,3/4+z
loop_
_atom_site_type_symbol
_atom_site_label
_atom_site_fract_x
_atom_site_fract_y
_atom_site_fract_z
Si Si1 0.597350 0.731728 0.850969
Si Si2 0.821547 0.830312 0.165599
Si Si3 0.452781 0.805030 0.914983
Si Si4 0.972653 0.979995 0.739944
Si Si5 0.269022 0.603626 0.836451
Si Si6 0.329123 0.253372 0.907852
Si Si7 0.125000 0.625000 0.625000
Si Si8 0.916255 0.689253 0.313564
O O1 0.581197 0.658138 0.823242
O O2 0.644899 0.714700 0.883277
O O3 0.567248 0.741872 0.929317
O O4 0.594057 0.789978 0.782013
O O5 0.829895 0.802492 0.258542
O O6 0.775034 0.824999 0.124219
O O7 0.453870 0.875000 0.875000
O O8 0.496186 0.788058 0.961926
O O9 0.441584 0.753181 0.845786
O O10 0.001037 0.914355 0.719365
O O11 0.952982 0.980681 0.831075
O O12 0.300271 0.549691 0.792978
O O13 0.299884 0.632144 0.910725
O O14 0.375000 0.223965 0.875000
O O15 0.345856 0.326719 0.931514
O O16 0.875000 0.682100 0.375000
#
# Coordination Sequence:
#
# PCOD9514456 Si02
#       8
#    32  32  32  32  32  32   8  32
#     4  10  21  33  52  86 124 166 209 249 294 368
#     4  10  19  34  52  82 118 168 207 250 300 353
#     4  11  20  31  55  86 128 169 211 253 295 370
#     4  10  23  37  63  92 122 163 212 262 314 372
#     4  10  22  37  61  91 122 162 199 260 315 360
#     4  10  21  45  68  89 122 155 204 253 320 384
#     4   8  24  40  76  88 108 148 196 248 304 396
#     4  11  21  32  51  86 127 168 211 244 302 370
#
# _framework density 22.855824999999999
#
# number of rings (size 3 to 8) (size 9 to 14) (size 15 to 20)
#    0.414    1.379    4.138    0.414    1.931    4.138 
#    0.000    0.690    0.000    0.000    0.000    0.000 
#    0.000    0.000    0.000    0.000    0.000    0.000 
#
# Total GULP energy -322904.311480 kJ/mol
# GULP energy per Si atom -5567.315715 kJ/mol
# Density = 2.280380 g / cm^3
# Si number density = 22.855825 Si / 1000 Ang^3
#
#
#
# Elastic Constant Matrix: (Units=GPa)
#
#
# Indices 1 2 3 4 5 6 
#
# 1 118.8770 20.5893 -2.2651 0.0000 0.0000 0.0000
# 2 20.5893 37.9636 -8.7626 0.0000 0.0000 0.0000
# 3 -2.2651 -8.7626 25.4864 0.0000 0.0000 0.0000
# 4 0.0000 0.0000 0.0000 -17.7513 0.0000 0.0000
# 5 0.0000 0.0000 0.0000 0.0000 24.0640 0.0000
# 6 0.0000 0.0000 0.0000 0.0000 0.0000 15.8773
#
#
#
# Elastic Compliance Matrix: (Units=1/GPa)
#
#
# Indices 1 2 3 4 5 6 
#
# 1 0.009307 -0.005275 -0.000987 0.000000 0.000000 0.000000
# 2 -0.005275 0.031602 0.010396 0.000000 0.000000 0.000000
# 3 -0.000987 0.010396 0.042723 0.000000 0.000000 0.000000
# 4 0.000000 0.000000 0.000000 -0.056334 0.000000 0.000000
# 5 0.000000 0.000000 0.000000 0.000000 0.041556 0.000000
# 6 0.000000 0.000000 0.000000 0.000000 0.000000 0.062983
#
#
# Mechanical properties :
#
#
# Convention : Reuss Voigt Hill
#
# Bulk Modulus (GPa) = 10.88127 22.38334 16.63231
# Shear Modulus (GPa) = 32.42513 15.95571 24.19042
#
# Velocity S-wave (km/s) = 3.77062 2.64503 3.25682
# Velocity P-wave (km/s) = 4.87114 4.37525 4.62984
#
# Compressibility (1/GPa) = 0.09190103
#
# Stress axis : x y z
#
# Youngs Moduli (GPa) = 107.44684 31.64388 23.40637
#
# Poissons Ratio (x) = 0.16693 0.02309
# Poissons Ratio (y) = 0.56681 -0.24334
# Poissons Ratio (z) = 0.10600 -0.32898
#
# Static dielectric constant tensor:
#      x y z
#    x 1.918680 0.000000 0.000000 
#    y 0.000000 1.902250 0.000000 
#    z 0.000000 0.000000 1.969000 
# 
# From -- ./inp_files/39974.got.cif
#   From: 2010.05.17/outbox.cif.g08.bks.cpg/sg70_20_cif.got.tgz:39974.got - 2010.06.03 15:57:51.
