data_PCOD9514908
_publ_section_title
;
Structure prediction by ZEFSAII (Michael W. Deem and Ramdas Pophale) SiO2 
 PCOD9514908
Probable space group: F D D D
;
_chemical_formula_sum "Si O2"
_cell_formula_units_Z 120
_cell_length_a 7.289169
_cell_length_b 27.883366
_cell_length_c 22.542853
_cell_angle_alpha 90.000000
_cell_angle_beta 90.000000
_cell_angle_gamma 90.000000
_cell_volume 4581.757484
_symmetry_space_group_name_H-M "F D D D"
_symmetry_group_IT_number 70
_space_group.IT_coordinate_system_code '2'
_symmetry_cell_setting 'orthorhombic'
loop_
_space_group_symop_operation_xyz
x,y,z
1/4-x,1/4-y,z
x,1/4-y,1/4-z
1/4-x,y,1/4-z
-x,-y,-z
3/4+x,3/4+y,-z
-x,3/4+y,3/4+z
3/4+x,-y,3/4+z
x,1/2+y,1/2+z
1/4-x,3/4-y,1/2+z
x,3/4-y,3/4-z
1/4-x,1/2+y,3/4-z
-x,1/2-y,1/2-z
3/4+x,1/4+y,1/2-z
-x,1/4+y,1/4+z
3/4+x,1/2-y,1/4+z
1/2+x,y,1/2+z
3/4-x,1/4-y,1/2+z
1/2+x,1/4-y,3/4-z
3/4-x,y,3/4-z
1/2-x,-y,1/2-z
1/4+x,3/4+y,1/2-z
1/2-x,3/4+y,1/4+z
1/4+x,-y,1/4+z
1/2+x,1/2+y,z
3/4-x,3/4-y,z
1/2+x,3/4-y,1/4-z
3/4-x,1/2+y,1/4-z
1/2-x,1/2-y,-z
1/4+x,1/4+y,-z
1/2-x,1/4+y,3/4+z
1/4+x,1/2-y,3/4+z
loop_
_atom_site_type_symbol
_atom_site_label
_atom_site_fract_x
_atom_site_fract_y
_atom_site_fract_z
Si Si1 0.972468 0.472080 0.585809
Si Si2 0.875000 0.875000 0.875000
Si Si3 0.625000 0.125000 0.425856
Si Si4 0.993029 0.968773 0.262774
Si Si5 0.129966 0.925670 0.474959
O O1 0.125000 0.495664 0.625000
O O2 0.072738 0.456018 0.524138
O O3 0.920322 0.421254 0.613929
O O4 0.813051 0.509245 0.574528
O O5 0.736169 0.903600 0.918914
O O6 0.781673 0.101874 0.468426
O O7 0.841059 0.928687 0.271558
O O8 0.923212 0.017325 0.230743
#
# Coordination Sequence:
#
# PCOD9514908 Si02
#       5
#    32   8  16  32  32
#     4  10  21  38  67  90 125 177 222 272 323 404
#     4  10  20  36  76 102 138 172 228 268 344 412
#     4   9  20  37  60  92 130 164 212 283 333 370
#     4   9  20  40  65  90 135 172 216 271 337 390
#     4   9  19  39  65  95 130 174 213 277 332 403
#
# _framework density 26.190822000000001
#
# number of rings (size 3 to 8) (size 9 to 14) (size 15 to 20)
#    0.000    2.667    0.000    0.000    1.867    3.200 
#    0.000   10.667   17.600    3.200    0.000    0.000 
#    0.000    0.000    0.000    0.000    0.000    0.000 
#
# Total GULP energy -167530.634993 kJ/mol
# GULP energy per Si atom -5584.354500 kJ/mol
# Density = 2.613121 g / cm^3
# Si number density = 26.190822 Si / 1000 Ang^3
#
#
#
# Elastic Constant Matrix: (Units=GPa)
#
#
# Indices 1 2 3 4 5 6 
#
# 1 159.6835 51.5142 36.9703 0.0000 0.0000 0.0000
# 2 51.5142 122.5744 8.0919 0.0000 0.0000 0.0000
# 3 36.9703 8.0919 55.3210 0.0000 0.0000 0.0000
# 4 0.0000 0.0000 0.0000 -19.5933 0.0000 0.0000
# 5 0.0000 0.0000 0.0000 0.0000 26.7998 0.0000
# 6 0.0000 0.0000 0.0000 0.0000 0.0000 49.2911
#
#
#
# Elastic Compliance Matrix: (Units=1/GPa)
#
#
# Indices 1 2 3 4 5 6 
#
# 1 0.008513 -0.003233 -0.005216 0.000000 0.000000 0.000000
# 2 -0.003233 0.009466 0.000776 0.000000 0.000000 0.000000
# 3 -0.005216 0.000776 0.021449 0.000000 0.000000 0.000000
# 4 0.000000 0.000000 0.000000 -0.051038 0.000000 0.000000
# 5 0.000000 0.000000 0.000000 0.000000 0.037314 0.000000
# 6 0.000000 0.000000 0.000000 0.000000 0.000000 0.020288
#
#
# Mechanical properties :
#
#
# Convention : Reuss Voigt Hill
#
# Bulk Modulus (GPa) = 41.52658 58.97019 50.24838
# Shear Modulus (GPa) = 72.08196 27.36635 49.72416
#
# Velocity S-wave (km/s) = 5.25182 3.23597 4.36194
# Velocity P-wave (km/s) = 7.25708 6.04372 6.67801
#
# Compressibility (1/GPa) = 0.02408096
#
# Stress axis : x y z
#
# Youngs Moduli (GPa) = 117.46459 105.64132 46.62278
#
# Poissons Ratio (x) = 0.34159 0.24320
# Poissons Ratio (y) = 0.37982 -0.03619
# Poissons Ratio (z) = 0.61273 -0.08201
#
# Static dielectric constant tensor:
#      x y z
#    x 2.318540 0.000000 0.000000 
#    y 0.000000 2.067800 0.000000 
#    z 0.000000 0.000000 2.087380 
# 
# From -- ./inp_files/56578.got.cif
#   From: 2010.05.17/outbox.cif.g08.bks.cpg/sg70_29_cif.got.tgz:56578.got - 2010.06.03 15:57:51.
