data_PCOD9514414
_publ_section_title
;
Structure prediction by ZEFSAII (Michael W. Deem and Ramdas Pophale) SiO2 
 PCOD9514414
Probable space group: F D D D
;
_chemical_formula_sum "Si O2"
_cell_formula_units_Z 208
_cell_length_a 15.586106
_cell_length_b 28.866041
_cell_length_c 23.772973
_cell_angle_alpha 90.000000
_cell_angle_beta 90.000000
_cell_angle_gamma 90.000000
_cell_volume 10695.678666
_symmetry_space_group_name_H-M "F D D D"
_symmetry_group_IT_number 70
_space_group.IT_coordinate_system_code '2'
_symmetry_cell_setting 'orthorhombic'
loop_
_space_group_symop_operation_xyz
x,y,z
1/4-x,1/4-y,z
x,1/4-y,1/4-z
1/4-x,y,1/4-z
-x,-y,-z
3/4+x,3/4+y,-z
-x,3/4+y,3/4+z
3/4+x,-y,3/4+z
x,1/2+y,1/2+z
1/4-x,3/4-y,1/2+z
x,3/4-y,3/4-z
1/4-x,1/2+y,3/4-z
-x,1/2-y,1/2-z
3/4+x,1/4+y,1/2-z
-x,1/4+y,1/4+z
3/4+x,1/2-y,1/4+z
1/2+x,y,1/2+z
3/4-x,1/4-y,1/2+z
1/2+x,1/4-y,3/4-z
3/4-x,y,3/4-z
1/2-x,-y,1/2-z
1/4+x,3/4+y,1/2-z
1/2-x,3/4+y,1/4+z
1/4+x,-y,1/4+z
1/2+x,1/2+y,z
3/4-x,3/4-y,z
1/2+x,3/4-y,1/4-z
3/4-x,1/2+y,1/4-z
1/2-x,1/2-y,-z
1/4+x,1/4+y,-z
1/2-x,1/4+y,3/4+z
1/4+x,1/2-y,3/4+z
loop_
_atom_site_type_symbol
_atom_site_label
_atom_site_fract_x
_atom_site_fract_y
_atom_site_fract_z
Si Si1 0.121473 0.815158 0.310086
Si Si2 0.483274 0.009730 0.287888
Si Si3 0.683135 0.078288 0.229968
Si Si4 0.760221 0.625000 0.125000
Si Si5 0.875000 0.984675 0.375000
Si Si6 0.693112 0.753363 0.338700
Si Si7 0.625000 0.046796 0.625000
Si Si8 0.358136 0.321421 0.153797
O O1 0.184866 0.775991 0.284523
O O2 0.180764 0.858546 0.324072
O O3 0.089222 0.793683 0.369679
O O4 0.035191 0.830386 0.278796
O O5 0.450473 0.018765 0.225379
O O6 0.411849 0.984237 0.325006
O O7 0.516929 0.055184 0.320791
O O8 0.625000 0.125000 0.227655
O O9 0.647048 0.046692 0.179522
O O10 0.668766 0.059127 0.292651
O O11 0.701487 0.581560 0.141913
O O12 0.788458 0.010981 0.390806
O O13 0.631024 0.710421 0.351057
O O14 0.375000 0.375000 0.141931
#
# Coordination Sequence:
#
# PCOD9514414 Si02
#       8
#    32  32  32  16  16  32  16  32
#     4   9  21  32  57  87 119 151 198 251 297 363
#     4  10  20  41  61  85 114 164 206 249 303 367
#     4  10  20  32  54  84 125 157 188 239 301 353
#     4   9  18  38  57  88 116 140 203 266 302 333
#     4  10  19  30  55  86 107 155 190 229 284 361
#     4  10  21  35  58  83 121 154 200 235 303 367
#     4   9  20  40  67  80 115 161 204 261 302 341
#     4  10  22  39  56  83 125 160 197 254 303 366
#
# _framework density 19.447106000000002
#
# number of rings (size 3 to 8) (size 9 to 14) (size 15 to 20)
#    0.000    2.308    1.538    0.231    6.462    1.846 
#    5.538    7.692    0.000    0.000    0.000    0.000 
#    0.000    0.000    0.000    0.000    0.000    0.000 
#
# Total GULP energy -289870.371046 kJ/mol
# GULP energy per Si atom -5574.430212 kJ/mol
# Density = 1.940284 g / cm^3
# Si number density = 19.447106 Si / 1000 Ang^3
#
#
#
# Elastic Constant Matrix: (Units=GPa)
#
#
# Indices 1 2 3 4 5 6 
#
# 1 77.0157 3.9539 24.2963 0.0000 0.0000 0.0000
# 2 3.9539 46.4917 6.6966 0.0000 0.0000 0.0000
# 3 24.2963 6.6966 48.4238 0.0000 0.0000 0.0000
# 4 0.0000 0.0000 0.0000 15.7843 0.0000 0.0000
# 5 0.0000 0.0000 0.0000 0.0000 22.3279 0.0000
# 6 0.0000 0.0000 0.0000 0.0000 0.0000 4.6968
#
#
#
# Elastic Compliance Matrix: (Units=1/GPa)
#
#
# Indices 1 2 3 4 5 6 
#
# 1 0.015428 -0.000201 -0.007713 0.000000 0.000000 0.000000
# 2 -0.000201 0.021949 -0.002934 0.000000 0.000000 0.000000
# 3 -0.007713 -0.002934 0.024927 0.000000 0.000000 0.000000
# 4 0.000000 0.000000 0.000000 0.063354 0.000000 0.000000
# 5 0.000000 0.000000 0.000000 0.000000 0.044787 0.000000
# 6 0.000000 0.000000 0.000000 0.000000 0.000000 0.212909
#
#
# Mechanical properties :
#
#
# Convention : Reuss Voigt Hill
#
# Bulk Modulus (GPa) = 24.62659 26.86942 25.74800
# Shear Modulus (GPa) = 11.94496 17.69411 14.81954
#
# Velocity S-wave (km/s) = 2.48105 3.01966 2.76351
# Velocity P-wave (km/s) = 4.57147 5.09946 4.84266
#
# Compressibility (1/GPa) = 0.04060651
#
# Stress axis : x y z
#
# Youngs Moduli (GPa) = 64.81750 45.56018 40.11748
#
# Poissons Ratio (x) = 0.00916 0.30943
# Poissons Ratio (y) = 0.01303 0.11772
# Poissons Ratio (z) = 0.49994 0.13369
#
# Static dielectric constant tensor:
#      x y z
#    x 1.722660 0.000000 0.000000 
#    y 0.000000 1.708550 0.000000 
#    z 0.000000 0.000000 1.668130 
# 
# From -- ./inp_files/52434.got.cif
#   From: 2010.05.17/outbox.cif.g08.bks.cpg/sg70_27_cif.got.tgz:52434.got - 2010.06.03 15:57:51.
