data_PCOD9514271
_publ_section_title
;
Structure prediction by ZEFSAII (Michael W. Deem and Ramdas Pophale) SiO2 
 PCOD9514271
Probable space group: F D D D
;
_chemical_formula_sum "Si O2"
_cell_formula_units_Z 136
_cell_length_a 8.425814
_cell_length_b 27.759383
_cell_length_c 21.344577
_cell_angle_alpha 90.000000
_cell_angle_beta 90.000000
_cell_angle_gamma 90.000000
_cell_volume 4992.398331
_symmetry_space_group_name_H-M "F D D D"
_symmetry_group_IT_number 70
_space_group.IT_coordinate_system_code '2'
_symmetry_cell_setting 'orthorhombic'
loop_
_space_group_symop_operation_xyz
x,y,z
1/4-x,1/4-y,z
x,1/4-y,1/4-z
1/4-x,y,1/4-z
-x,-y,-z
3/4+x,3/4+y,-z
-x,3/4+y,3/4+z
3/4+x,-y,3/4+z
x,1/2+y,1/2+z
1/4-x,3/4-y,1/2+z
x,3/4-y,3/4-z
1/4-x,1/2+y,3/4-z
-x,1/2-y,1/2-z
3/4+x,1/4+y,1/2-z
-x,1/4+y,1/4+z
3/4+x,1/2-y,1/4+z
1/2+x,y,1/2+z
3/4-x,1/4-y,1/2+z
1/2+x,1/4-y,3/4-z
3/4-x,y,3/4-z
1/2-x,-y,1/2-z
1/4+x,3/4+y,1/2-z
1/2-x,3/4+y,1/4+z
1/4+x,-y,1/4+z
1/2+x,1/2+y,z
3/4-x,3/4-y,z
1/2+x,3/4-y,1/4-z
3/4-x,1/2+y,1/4-z
1/2-x,1/2-y,-z
1/4+x,1/4+y,-z
1/2-x,1/4+y,3/4+z
1/4+x,1/2-y,3/4+z
loop_
_atom_site_type_symbol
_atom_site_label
_atom_site_fract_x
_atom_site_fract_y
_atom_site_fract_z
Si Si1 0.916046 0.175707 0.152513
Si Si2 0.226502 0.936008 0.217387
Si Si3 0.549982 0.850912 0.692441
Si Si4 0.625000 0.625000 0.625000
Si Si5 0.849823 0.975851 0.590606
O O1 0.973024 0.125000 0.125000
O O2 0.006251 0.199750 0.210897
O O3 0.733931 0.159749 0.166662
O O4 0.902994 0.217584 0.101379
O O5 0.182888 0.879195 0.231027
O O6 0.343090 0.950198 0.160742
O O7 0.059333 0.958524 0.194125
O O8 0.625000 0.861824 0.625000
O O9 0.375000 0.875000 0.697331
O O10 0.505055 0.795001 0.694040
#
# Coordination Sequence:
#
# PCOD9514271 Si02
#       5
#    32  32  32   8  32
#     4  10  23  42  61  90 133 171 210 270 327 387
#     4  10  20  41  63  89 131 163 215 277 314 389
#     4  10  18  34  60  92 122 158 210 264 321 372
#     4   8  24  40  56  90 132 160 216 252 336 368
#     4  10  21  38  65  94 121 170 218 260 329 391
#
# _framework density 27.241415
#
# number of rings (size 3 to 8) (size 9 to 14) (size 15 to 20)
#    0.706    1.412    4.706    0.706    6.588    0.000 
#    4.235    4.706    5.176    0.000    0.000    0.000 
#    0.000    0.000    0.000    0.000    0.000    0.000 
#
# Total GULP energy -189600.594216 kJ/mol
# GULP energy per Si atom -5576.488065 kJ/mol
# Density = 2.717941 g / cm^3
# Si number density = 27.241415 Si / 1000 Ang^3
#
#
#
# Elastic Constant Matrix: (Units=GPa)
#
#
# Indices 1 2 3 4 5 6 
#
# 1 95.3876 28.5684 9.3787 0.0000 0.0000 0.0000
# 2 28.5684 187.0593 23.2664 0.0000 0.0000 0.0000
# 3 9.3787 23.2664 93.7015 0.0000 0.0000 0.0000
# 4 0.0000 0.0000 0.0000 31.8063 0.0000 0.0000
# 5 0.0000 0.0000 0.0000 0.0000 6.4459 0.0000
# 6 0.0000 0.0000 0.0000 0.0000 0.0000 34.4621
#
#
#
# Elastic Compliance Matrix: (Units=1/GPa)
#
#
# Indices 1 2 3 4 5 6 
#
# 1 0.011031 -0.001597 -0.000708 0.000000 0.000000 0.000000
# 2 -0.001597 0.005747 -0.001267 0.000000 0.000000 0.000000
# 3 -0.000708 -0.001267 0.011058 0.000000 0.000000 0.000000
# 4 0.000000 0.000000 0.000000 0.031440 0.000000 0.000000
# 5 0.000000 0.000000 0.000000 0.000000 0.155137 0.000000
# 6 0.000000 0.000000 0.000000 0.000000 0.000000 0.029017
#
#
# Mechanical properties :
#
#
# Convention : Reuss Voigt Hill
#
# Bulk Modulus (GPa) = 48.32537 55.39727 51.86132
# Shear Modulus (GPa) = 19.41961 35.53854 27.47907
#
# Velocity S-wave (km/s) = 2.67286 3.61581 3.17949
# Velocity P-wave (km/s) = 5.22530 6.14914 5.70595
#
# Compressibility (1/GPa) = 0.02069307
#
# Stress axis : x y z
#
# Youngs Moduli (GPa) = 90.65080 173.99237 90.43484
#
# Poissons Ratio (x) = 0.27782 0.06400
# Poissons Ratio (y) = 0.14474 0.11461
# Poissons Ratio (z) = 0.06415 0.22050
#
# Static dielectric constant tensor:
#      x y z
#    x 2.164730 0.000000 0.000000 
#    y 0.000000 2.368890 0.000000 
#    z 0.000000 0.000000 2.220920 
# 
# From -- ./inp_files/64636.got.cif
#   From: 2010.05.17/outbox.cif.g08.bks.cpg/sg70_33_cif.got.tgz:64636.got - 2010.06.03 15:57:51.
