data_PCOD9514871
_publ_section_title
;
Structure prediction by ZEFSAII (Michael W. Deem and Ramdas Pophale) SiO2 
 PCOD9514871
Probable space group: F D D D
;
_chemical_formula_sum "Si O2"
_cell_formula_units_Z 112
_cell_length_a 13.788556
_cell_length_b 11.392837
_cell_length_c 36.062187
_cell_angle_alpha 90.000000
_cell_angle_beta 90.000000
_cell_angle_gamma 90.000000
_cell_volume 5665.036759
_symmetry_space_group_name_H-M "F D D D"
_symmetry_group_IT_number 70
_space_group.IT_coordinate_system_code '2'
_symmetry_cell_setting 'orthorhombic'
loop_
_space_group_symop_operation_xyz
x,y,z
1/4-x,1/4-y,z
x,1/4-y,1/4-z
1/4-x,y,1/4-z
-x,-y,-z
3/4+x,3/4+y,-z
-x,3/4+y,3/4+z
3/4+x,-y,3/4+z
x,1/2+y,1/2+z
1/4-x,3/4-y,1/2+z
x,3/4-y,3/4-z
1/4-x,1/2+y,3/4-z
-x,1/2-y,1/2-z
3/4+x,1/4+y,1/2-z
-x,1/4+y,1/4+z
3/4+x,1/2-y,1/4+z
1/2+x,y,1/2+z
3/4-x,1/4-y,1/2+z
1/2+x,1/4-y,3/4-z
3/4-x,y,3/4-z
1/2-x,-y,1/2-z
1/4+x,3/4+y,1/2-z
1/2-x,3/4+y,1/4+z
1/4+x,-y,1/4+z
1/2+x,1/2+y,z
3/4-x,3/4-y,z
1/2+x,3/4-y,1/4-z
3/4-x,1/2+y,1/4-z
1/2-x,1/2-y,-z
1/4+x,1/4+y,-z
1/2-x,1/4+y,3/4+z
1/4+x,1/2-y,3/4+z
loop_
_atom_site_type_symbol
_atom_site_label
_atom_site_fract_x
_atom_site_fract_y
_atom_site_fract_z
Si Si1 0.959112 0.777851 0.290667
Si Si2 0.042879 0.928058 0.154058
Si Si3 0.147844 0.874984 0.330845
Si Si4 0.625000 0.625000 0.347981
O O1 0.875000 0.875000 0.289378
O O2 0.925268 0.664444 0.314574
O O3 0.000000 0.750000 0.250000
O O4 0.053455 0.825894 0.311584
O O5 0.125000 0.967297 0.125000
O O6 0.965102 0.864270 0.126670
O O7 0.988990 0.037877 0.173685
O O8 0.133902 0.875000 0.375000
O O9 0.152818 0.013332 0.323020
#
# Coordination Sequence:
#
# PCOD9514871 Si02
#       4
#    32  32  32  16
#     4  12  24  39  65  95 135 178 231 286 350 410
#     4  11  21  37  63  95 130 172 225 283 345 407
#     4  10  20  38  61  93 129 165 222 286 336 406
#     4  10  20  36  62  88 130 160 216 278 330 398
#
# _framework density 19.770392000000001
#
# number of rings (size 3 to 8) (size 9 to 14) (size 15 to 20)
#    0.000    1.143    5.714    3.429    0.000    5.143 
#    0.000    0.000    0.000   30.857    0.000    0.000 
#    0.000    0.000    0.000    0.000    0.000    0.000 
#
# Total GULP energy -156080.218796 kJ/mol
# GULP energy per Si atom -5574.293528 kJ/mol
# Density = 1.972539 g / cm^3
# Si number density = 19.770392 Si / 1000 Ang^3
#
#
#
# Elastic Constant Matrix: (Units=GPa)
#
#
# Indices 1 2 3 4 5 6 
#
# 1 107.7823 53.6816 25.5852 0.0000 0.0000 0.0000
# 2 53.6816 176.0919 34.3369 0.0000 0.0000 0.0000
# 3 25.5852 34.3369 59.2518 0.0000 0.0000 0.0000
# 4 0.0000 0.0000 0.0000 17.8818 0.0000 0.0000
# 5 0.0000 0.0000 0.0000 0.0000 28.8890 0.0000
# 6 0.0000 0.0000 0.0000 0.0000 0.0000 47.0817
#
#
#
# Elastic Compliance Matrix: (Units=1/GPa)
#
#
# Indices 1 2 3 4 5 6 
#
# 1 0.011485 -0.002857 -0.003304 0.000000 0.000000 0.000000
# 2 -0.002857 0.007113 -0.002888 0.000000 0.000000 0.000000
# 3 -0.003304 -0.002888 0.019977 0.000000 0.000000 0.000000
# 4 0.000000 0.000000 0.000000 0.055923 0.000000 0.000000
# 5 0.000000 0.000000 0.000000 0.000000 0.034615 0.000000
# 6 0.000000 0.000000 0.000000 0.000000 0.000000 0.021240
#
#
# Mechanical properties :
#
#
# Convention : Reuss Voigt Hill
#
# Bulk Modulus (GPa) = 48.83406 63.37040 56.10223
# Shear Modulus (GPa) = 28.52619 34.07197 31.29908
#
# Velocity S-wave (km/s) = 3.80264 4.15587 3.98317
# Velocity P-wave (km/s) = 6.63584 7.42638 7.04221
#
# Compressibility (1/GPa) = 0.02047751
#
# Stress axis : x y z
#
# Youngs Moduli (GPa) = 87.06891 140.58678 50.05636
#
# Poissons Ratio (x) = 0.40166 0.16537
# Poissons Ratio (y) = 0.24876 0.14458
# Poissons Ratio (z) = 0.28765 0.40607
#
# Static dielectric constant tensor:
#      x y z
#    x 1.689700 0.000000 0.000000 
#    y 0.000000 1.891170 0.000000 
#    z 0.000000 0.000000 1.668030 
# 
# From -- ./inp_files/15040.got.cif
#   From: 2010.05.17/outbox.cif.g08.bks.cpg/sg70_8_cif.got.tgz:15040.got - 2010.06.03 15:57:51.
