data_PCOD9514981
_publ_section_title
;
Structure prediction by ZEFSAII (Michael W. Deem and Ramdas Pophale) SiO2 
 PCOD9514981
Probable space group: F D D D
;
_chemical_formula_sum "Si O2"
_cell_formula_units_Z 128
_cell_length_a 22.166296
_cell_length_b 23.666391
_cell_length_c 10.747965
_cell_angle_alpha 90.000000
_cell_angle_beta 90.000000
_cell_angle_gamma 90.000000
_cell_volume 5638.341899
_symmetry_space_group_name_H-M "F D D D"
_symmetry_group_IT_number 70
_space_group.IT_coordinate_system_code '2'
_symmetry_cell_setting 'orthorhombic'
loop_
_space_group_symop_operation_xyz
x,y,z
1/4-x,1/4-y,z
x,1/4-y,1/4-z
1/4-x,y,1/4-z
-x,-y,-z
3/4+x,3/4+y,-z
-x,3/4+y,3/4+z
3/4+x,-y,3/4+z
x,1/2+y,1/2+z
1/4-x,3/4-y,1/2+z
x,3/4-y,3/4-z
1/4-x,1/2+y,3/4-z
-x,1/2-y,1/2-z
3/4+x,1/4+y,1/2-z
-x,1/4+y,1/4+z
3/4+x,1/2-y,1/4+z
1/2+x,y,1/2+z
3/4-x,1/4-y,1/2+z
1/2+x,1/4-y,3/4-z
3/4-x,y,3/4-z
1/2-x,-y,1/2-z
1/4+x,3/4+y,1/2-z
1/2-x,3/4+y,1/4+z
1/4+x,-y,1/4+z
1/2+x,1/2+y,z
3/4-x,3/4-y,z
1/2+x,3/4-y,1/4-z
3/4-x,1/2+y,1/4-z
1/2-x,1/2-y,-z
1/4+x,1/4+y,-z
1/2-x,1/4+y,3/4+z
1/4+x,1/2-y,3/4+z
loop_
_atom_site_type_symbol
_atom_site_label
_atom_site_fract_x
_atom_site_fract_y
_atom_site_fract_z
Si Si1 0.914009 0.243865 0.622984
Si Si2 0.498023 0.596681 0.346779
Si Si3 0.471848 0.625000 0.625000
Si Si4 0.411475 0.324400 0.745201
Si Si5 0.375000 0.206652 0.375000
O O1 0.963953 0.288759 0.576908
O O2 0.932781 0.180475 0.593410
O O3 0.850521 0.265393 0.569286
O O4 0.906764 0.244296 0.771092
O O5 0.504736 0.611492 0.494390
O O6 0.522856 0.648622 0.263823
O O7 0.428407 0.582288 0.322116
O O8 0.375000 0.319926 0.875000
O O9 0.375000 0.375000 0.674403
#
# Coordination Sequence:
#
# PCOD9514981 Si02
#       5
#    32  32  16  32  16
#     4  10  22  39  64  97 129 172 218 279 324 401
#     4  10  22  39  68  95 136 172 221 283 328 408
#     4  10  20  38  61  96 140 155 222 276 336 382
#     4   9  20  42  66  90 127 173 225 267 322 399
#     4  10  20  38  65 100 136 167 218 268 346 374
#
# _framework density 22.701709000000001
#
# number of rings (size 3 to 8) (size 9 to 14) (size 15 to 20)
#    0.000    2.250    0.000    3.000    7.000    0.000 
#    9.000   21.250    0.000    4.500    0.000    0.000 
#    0.000    0.000    0.000    0.000    0.000    0.000 
#
# Total GULP energy -178236.292974 kJ/mol
# GULP energy per Si atom -5569.884155 kJ/mol
# Density = 2.265004 g / cm^3
# Si number density = 22.701709 Si / 1000 Ang^3
#
#
#
# Elastic Constant Matrix: (Units=GPa)
#
#
# Indices 1 2 3 4 5 6 
#
# 1 113.8150 54.2476 13.0376 0.0000 0.0000 0.0000
# 2 54.2476 147.3909 29.4554 0.0000 0.0000 0.0000
# 3 13.0376 29.4554 53.4979 0.0000 0.0000 0.0000
# 4 0.0000 0.0000 0.0000 13.8635 0.0000 0.0000
# 5 0.0000 0.0000 0.0000 0.0000 8.4142 0.0000
# 6 0.0000 0.0000 0.0000 0.0000 0.0000 13.6055
#
#
#
# Elastic Compliance Matrix: (Units=1/GPa)
#
#
# Indices 1 2 3 4 5 6 
#
# 1 0.010667 -0.003828 -0.000492 0.000000 0.000000 0.000000
# 2 -0.003828 0.008997 -0.004021 0.000000 0.000000 0.000000
# 3 -0.000492 -0.004021 0.021026 0.000000 0.000000 0.000000
# 4 0.000000 0.000000 0.000000 0.072132 0.000000 0.000000
# 5 0.000000 0.000000 0.000000 0.000000 0.118846 0.000000
# 6 0.000000 0.000000 0.000000 0.000000 0.000000 0.073500
#
#
# Mechanical properties :
#
#
# Convention : Reuss Voigt Hill
#
# Bulk Modulus (GPa) = 41.65131 56.46498 49.05815
# Shear Modulus (GPa) = 15.15832 21.70753 18.43292
#
# Velocity S-wave (km/s) = 2.58683 3.09561 2.85259
# Velocity P-wave (km/s) = 5.22583 6.14033 5.70144
#
# Compressibility (1/GPa) = 0.02400885
#
# Stress axis : x y z
#
# Youngs Moduli (GPa) = 93.74768 111.14810 47.55993
#
# Poissons Ratio (x) = 0.42544 0.02340
# Poissons Ratio (y) = 0.35883 0.19123
# Poissons Ratio (z) = 0.04613 0.44691
#
# Static dielectric constant tensor:
#      x y z
#    x 1.952320 0.000000 0.000000 
#    y 0.000000 1.866530 0.000000 
#    z 0.000000 0.000000 1.919190 
# 
# From -- ./inp_files/20584.got.cif
#   From: 2010.05.17/outbox.cif.g08.bks.cpg/sg70_11_cif.got.tgz:20584.got - 2010.06.03 15:57:51.
