data_PCOD9514015
_publ_section_title
;
Structure prediction by ZEFSAII (Michael W. Deem and Ramdas Pophale) SiO2 
 PCOD9514015
Probable space group: F M M M
;
_chemical_formula_sum "Si O2"
_cell_formula_units_Z 56
_cell_length_a 30.000000
_cell_length_b 21.000000
_cell_length_c 18.000000
_cell_angle_alpha 90.000000
_cell_angle_beta 90.000000
_cell_angle_gamma 90.000000
_cell_volume 11340.000000
_symmetry_space_group_name_H-M "F M M M"
_symmetry_group_IT_number 69
_symmetry_cell_setting 'orthorhombic'
loop_
_space_group_symop_operation_xyz
x,y,z
-x,-y,z
x,-y,-z
-x,y,-z
-x,-y,-z
x,y,-z
-x,y,z
x,-y,z
x,1/2+y,1/2+z
-x,1/2-y,1/2+z
x,1/2-y,1/2-z
-x,1/2+y,1/2-z
-x,1/2-y,1/2-z
x,1/2+y,1/2-z
-x,1/2+y,1/2+z
x,1/2-y,1/2+z
1/2+x,y,1/2+z
1/2-x,-y,1/2+z
1/2+x,-y,1/2-z
1/2-x,y,1/2-z
1/2-x,-y,1/2-z
1/2+x,y,1/2-z
1/2-x,y,1/2+z
1/2+x,-y,1/2+z
1/2+x,1/2+y,z
1/2-x,1/2-y,z
1/2+x,1/2-y,-z
1/2-x,1/2+y,-z
1/2-x,1/2-y,-z
1/2+x,1/2+y,-z
1/2-x,1/2+y,z
1/2+x,1/2-y,z
loop_
_atom_site_type_symbol
_atom_site_label
_atom_site_fract_x
_atom_site_fract_y
_atom_site_fract_z
Si Si1 0.298885 0.221340 0.080080
Si Si2 0.376335 0.400992 0.808386
Si Si3 0.887111 0.702388 0.581267
Si Si4 0.794134 0.885621 0.698049
Si Si5 0.551881 0.931985 0.196886
Si Si6 0.333257 0.000000 0.415131
Si Si7 0.552233 0.173789 0.917627
Si Si8 0.226080 0.000000 0.587535
O O1 0.250000 0.250000 0.077978
O O2 0.335816 0.275771 0.083780
O O3 0.300718 0.178323 0.151931
O O4 0.306569 0.187316 0.000000
O O5 0.394746 0.337973 0.846058
O O6 0.337007 0.394518 0.749117
O O7 0.417710 0.432720 0.768493
O O8 0.354025 0.439942 0.874451
O O9 0.895131 0.671660 0.500000
O O10 0.917641 0.764388 0.584423
O O11 0.750000 0.885749 0.750000
O O12 0.789904 0.939765 0.635298
O O13 0.500000 0.922920 0.215149
O O14 0.566910 0.875645 0.143960
O O15 0.556045 0.000000 0.157424
O O16 0.345575 0.000000 0.500000
O O17 0.279931 0.000000 0.408967
O O18 0.500000 0.189418 0.906554
O O19 0.556212 0.145083 0.000000
O O20 0.213584 0.000000 0.500000
#
# Coordination Sequence:
#
# PCOD9514015 Si02
#       8
#    32  32  32  32  32  16  32  16
#     4  10  22  38  55  78 116 158 194 232 284 352
#     4  12  23  39  63  88 122 156 197 251 305 357
#     4  10  22  40  60  87 118 156 203 248 296 358
#     4  12  23  37  58  88 119 149 194 247 297 353
#     4  10  22  39  61  89 124 163 200 246 303 358
#     4  11  23  41  64  86 113 158 207 245 295 364
#     4   9  19  38  63  90 121 158 203 250 296 354
#     4  11  24  42  62  84 115 157 202 249 300 355
#
# _framework density 4.9382720000000004
#
# number of rings (size 3 to 8) (size 9 to 14) (size 15 to 20)
#    0.000    1.429    2.143    3.214    0.000    4.571 
#    0.000    3.571    0.000    1.714    0.000    0.000 
#    0.000    0.000    0.000    0.000    0.000    0.000 
#
# Total GULP energy -312298.995742 kJ/mol
# GULP energy per Si atom -5576.767781 kJ/mol
# Density = 0.492703 g / cm^3
# Si number density = 4.938272 Si / 1000 Ang^3
#
#
#
# Elastic Constant Matrix: (Units=GPa)
#
#
# Indices 1 2 3 4 5 6 
#
# 1 29.8161 17.7420 25.1911 0.0000 0.0000 0.0000
# 2 17.7420 36.4686 42.8844 0.0000 0.0000 0.0000
# 3 25.1911 42.8844 106.8181 0.0000 0.0000 0.0000
# 4 0.0000 0.0000 0.0000 59.0146 0.0000 0.0000
# 5 0.0000 0.0000 0.0000 0.0000 21.2725 0.0000
# 6 0.0000 0.0000 0.0000 0.0000 0.0000 19.8134
#
#
#
# Elastic Compliance Matrix: (Units=1/GPa)
#
#
# Indices 1 2 3 4 5 6 
#
# 1 0.047956 -0.019002 -0.003681 0.000000 0.000000 0.000000
# 2 -0.019002 0.059473 -0.019395 0.000000 0.000000 0.000000
# 3 -0.003681 -0.019395 0.018016 0.000000 0.000000 0.000000
# 4 0.000000 0.000000 0.000000 0.016945 0.000000 0.000000
# 5 0.000000 0.000000 0.000000 0.000000 0.047009 0.000000
# 6 0.000000 0.000000 0.000000 0.000000 0.000000 0.050471
#
#
# Mechanical properties :
#
#
# Convention : Reuss Voigt Hill
#
# Bulk Modulus (GPa) = 24.21979 38.30420 31.26200
# Shear Modulus (GPa) = 14.80210 25.83910 20.32060
#
# Velocity S-wave (km/s) = 2.74041 3.62070 3.21086
# Velocity P-wave (km/s) = 4.72239 6.07560 5.44122
#
# Compressibility (1/GPa) = 0.04128856
#
# Stress axis : x y z
#
# Youngs Moduli (GPa) = 20.85251 16.81436 55.50501
#
# Poissons Ratio (x) = 0.31951 0.20429
# Poissons Ratio (y) = 0.39625 1.07654
# Poissons Ratio (z) = 0.07675 0.32612
#
# Static dielectric constant tensor:
#      x y z
#    x 1.658640 0.000000 0.000000 
#    y 0.000000 1.821460 0.000000 
#    z 0.000000 0.000000 1.964340 
# 
# From -- ./inp_files/27995.got.cif
#   From: 2010.05.17/outbox.ucp.g08.bks.cvg/sg69_14_cif.got.tgz:27995.got - 2010.06.11 16:51:34.
