data_PCOD9514289
_publ_section_title
;
Structure prediction by ZEFSAII (Michael W. Deem and Ramdas Pophale) SiO2 
 PCOD9514289
Probable space group: F D D D
;
_chemical_formula_sum "Si O2"
_cell_formula_units_Z 176
_cell_length_a 25.931720
_cell_length_b 16.362295
_cell_length_c 19.321556
_cell_angle_alpha 90.000000
_cell_angle_beta 90.000000
_cell_angle_gamma 90.000000
_cell_volume 8198.183597
_symmetry_space_group_name_H-M "F D D D"
_symmetry_group_IT_number 70
_space_group.IT_coordinate_system_code '2'
_symmetry_cell_setting 'orthorhombic'
loop_
_space_group_symop_operation_xyz
x,y,z
1/4-x,1/4-y,z
x,1/4-y,1/4-z
1/4-x,y,1/4-z
-x,-y,-z
3/4+x,3/4+y,-z
-x,3/4+y,3/4+z
3/4+x,-y,3/4+z
x,1/2+y,1/2+z
1/4-x,3/4-y,1/2+z
x,3/4-y,3/4-z
1/4-x,1/2+y,3/4-z
-x,1/2-y,1/2-z
3/4+x,1/4+y,1/2-z
-x,1/4+y,1/4+z
3/4+x,1/2-y,1/4+z
1/2+x,y,1/2+z
3/4-x,1/4-y,1/2+z
1/2+x,1/4-y,3/4-z
3/4-x,y,3/4-z
1/2-x,-y,1/2-z
1/4+x,3/4+y,1/2-z
1/2-x,3/4+y,1/4+z
1/4+x,-y,1/4+z
1/2+x,1/2+y,z
3/4-x,3/4-y,z
1/2+x,3/4-y,1/4-z
3/4-x,1/2+y,1/4-z
1/2-x,1/2-y,-z
1/4+x,1/4+y,-z
1/2-x,1/4+y,3/4+z
1/4+x,1/2-y,3/4+z
loop_
_atom_site_type_symbol
_atom_site_label
_atom_site_fract_x
_atom_site_fract_y
_atom_site_fract_z
Si Si1 0.313841 0.714121 0.157048
Si Si2 0.540457 0.121422 0.356428
Si Si3 0.263734 0.625000 0.625000
Si Si4 0.680036 0.899385 0.661337
Si Si5 0.224469 0.263862 0.757364
Si Si6 0.422357 0.754128 0.215598
O O1 0.319536 0.625000 0.125000
O O2 0.309114 0.786250 0.099924
O O3 0.262508 0.723003 0.202590
O O4 0.362583 0.735731 0.204526
O O5 0.478411 0.114155 0.360817
O O6 0.556047 0.056443 0.298557
O O7 0.561138 0.089312 0.431145
O O8 0.242421 0.682384 0.686586
O O9 0.298332 0.560981 0.667385
O O10 0.625000 0.898445 0.625000
O O11 0.686983 0.826087 0.717019
O O12 0.687035 0.983170 0.705705
#
# Coordination Sequence:
#
# PCOD9514289 Si02
#       6
#    32  32  16  32  32  32
#     4  11  22  36  59  86 123 159 206 250 299 370
#     4  10  21  38  59  88 119 159 205 252 308 355
#     4   8  16  34  60  80 111 158 205 242 308 356
#     4  10  20  36  63  92 125 159 199 248 311 365
#     4   9  20  37  59  86 121 160 204 250 305 365
#     4  10  18  35  58  87 118 159 200 251 298 364
#
# _framework density 21.468170000000001
#
# number of rings (size 3 to 8) (size 9 to 14) (size 15 to 20)
#    0.000    2.182    0.909    2.182    0.000    2.182 
#    0.000    0.000    8.000    6.000    0.000    0.000 
#    0.000    0.000    0.000    0.000    0.000    0.000 
#
# Total GULP energy -245527.687208 kJ/mol
# GULP energy per Si atom -5580.174709 kJ/mol
# Density = 2.141931 g / cm^3
# Si number density = 21.468170 Si / 1000 Ang^3
#
#
#
# Elastic Constant Matrix: (Units=GPa)
#
#
# Indices 1 2 3 4 5 6 
#
# 1 71.4204 8.3024 9.7133 0.0000 0.0000 0.0000
# 2 8.3024 120.1546 14.4932 0.0000 0.0000 0.0000
# 3 9.7133 14.4932 54.1171 0.0000 0.0000 0.0000
# 4 0.0000 0.0000 0.0000 22.7535 0.0000 0.0000
# 5 0.0000 0.0000 0.0000 0.0000 25.9586 0.0000
# 6 0.0000 0.0000 0.0000 0.0000 0.0000 8.9308
#
#
#
# Elastic Compliance Matrix: (Units=1/GPa)
#
#
# Indices 1 2 3 4 5 6 
#
# 1 0.014410 -0.000707 -0.002397 0.000000 0.000000 0.000000
# 2 -0.000707 0.008635 -0.002186 0.000000 0.000000 0.000000
# 3 -0.002397 -0.002186 0.019494 0.000000 0.000000 0.000000
# 4 0.000000 0.000000 0.000000 0.043949 0.000000 0.000000
# 5 0.000000 0.000000 0.000000 0.000000 0.038523 0.000000
# 6 0.000000 0.000000 0.000000 0.000000 0.000000 0.111972
#
#
# Mechanical properties :
#
#
# Convention : Reuss Voigt Hill
#
# Bulk Modulus (GPa) = 31.28911 34.52335 32.90623
# Shear Modulus (GPa) = 19.36371 25.74079 22.55225
#
# Velocity S-wave (km/s) = 3.00654 3.46644 3.24465
# Velocity P-wave (km/s) = 5.16321 5.66902 5.42201
#
# Compressibility (1/GPa) = 0.03196000
#
# Stress axis : x y z
#
# Youngs Moduli (GPa) = 69.39748 115.80667 51.29762
#
# Poissons Ratio (x) = 0.08182 0.12297
# Poissons Ratio (y) = 0.04903 0.11212
# Poissons Ratio (z) = 0.16636 0.25313
#
# Static dielectric constant tensor:
#      x y z
#    x 1.755010 0.000000 0.000000 
#    y 0.000000 1.815700 0.000000 
#    z 0.000000 0.000000 1.823260 
# 
# From -- ./inp_files/38532.got.cif
#   From: 2010.05.17/outbox.cif.g08.bks.cpg/sg70_20_cif.got.tgz:38532.got - 2010.06.03 15:57:51.
