data_PCOD9514937
_publ_section_title
;
Structure prediction by ZEFSAII (Michael W. Deem and Ramdas Pophale) SiO2 
 PCOD9514937
Probable space group: F D D D
;
_chemical_formula_sum "Si O2"
_cell_formula_units_Z 136
_cell_length_a 13.920101
_cell_length_b 27.602409
_cell_length_c 13.056157
_cell_angle_alpha 90.000000
_cell_angle_beta 90.000000
_cell_angle_gamma 90.000000
_cell_volume 5016.545284
_symmetry_space_group_name_H-M "F D D D"
_symmetry_group_IT_number 70
_space_group.IT_coordinate_system_code '2'
_symmetry_cell_setting 'orthorhombic'
loop_
_space_group_symop_operation_xyz
x,y,z
1/4-x,1/4-y,z
x,1/4-y,1/4-z
1/4-x,y,1/4-z
-x,-y,-z
3/4+x,3/4+y,-z
-x,3/4+y,3/4+z
3/4+x,-y,3/4+z
x,1/2+y,1/2+z
1/4-x,3/4-y,1/2+z
x,3/4-y,3/4-z
1/4-x,1/2+y,3/4-z
-x,1/2-y,1/2-z
3/4+x,1/4+y,1/2-z
-x,1/4+y,1/4+z
3/4+x,1/2-y,1/4+z
1/2+x,y,1/2+z
3/4-x,1/4-y,1/2+z
1/2+x,1/4-y,3/4-z
3/4-x,y,3/4-z
1/2-x,-y,1/2-z
1/4+x,3/4+y,1/2-z
1/2-x,3/4+y,1/4+z
1/4+x,-y,1/4+z
1/2+x,1/2+y,z
3/4-x,3/4-y,z
1/2+x,3/4-y,1/4-z
3/4-x,1/2+y,1/4-z
1/2-x,1/2-y,-z
1/4+x,1/4+y,-z
1/2-x,1/4+y,3/4+z
1/4+x,1/2-y,3/4+z
loop_
_atom_site_type_symbol
_atom_site_label
_atom_site_fract_x
_atom_site_fract_y
_atom_site_fract_z
Si Si1 0.719676 0.800035 0.222667
Si Si2 0.685028 0.047689 0.264420
Si Si3 0.433918 0.441641 0.760650
Si Si4 0.375000 0.875000 0.875000
Si Si5 0.527986 0.844685 0.251517
O O1 0.823848 0.793874 0.272616
O O2 0.702726 0.744198 0.195372
O O3 0.626258 0.818505 0.283474
O O4 0.725499 0.832986 0.120954
O O5 0.683305 0.054505 0.386232
O O6 0.701043 0.097656 0.202889
O O7 0.750000 0.000000 0.250000
O O8 0.516482 0.401290 0.776358
O O9 0.325072 0.425711 0.786995
#
# Coordination Sequence:
#
# PCOD9514937 Si02
#       5
#    32  32  32   8  32
#     4  10  20  37  62  91 128 166 211 268 320 388
#     4  11  24  39  60  92 126 169 217 263 327 395
#     4  10  20  38  63  90 125 170 215 266 325 389
#     4  12  24  44  64  88 132 168 208 276 324 382
#     4   9  20  37  61  92 124 166 214 261 325 386
#
# _framework density 27.110289999999999
#
# number of rings (size 3 to 8) (size 9 to 14) (size 15 to 20)
#    0.000    1.882    0.000    4.941    0.000    5.647 
#    0.000    0.000    0.000   33.882    0.000    0.000 
#    0.000    0.000    0.000    0.000    0.000    0.000 
#
# Total GULP energy -190022.538314 kJ/mol
# GULP energy per Si atom -5588.898186 kJ/mol
# Density = 2.704859 g / cm^3
# Si number density = 27.110290 Si / 1000 Ang^3
#
#
#
# Elastic Constant Matrix: (Units=GPa)
#
#
# Indices 1 2 3 4 5 6 
#
# 1 188.0774 81.1959 23.1703 0.0000 0.0000 0.0000
# 2 81.1959 165.1475 30.5035 0.0000 0.0000 0.0000
# 3 23.1703 30.5035 97.2473 0.0000 0.0000 0.0000
# 4 0.0000 0.0000 0.0000 32.7898 0.0000 0.0000
# 5 0.0000 0.0000 0.0000 0.0000 42.9804 0.0000
# 6 0.0000 0.0000 0.0000 0.0000 0.0000 38.9323
#
#
#
# Elastic Compliance Matrix: (Units=1/GPa)
#
#
# Indices 1 2 3 4 5 6 
#
# 1 0.006783 -0.003223 -0.000605 0.000000 0.000000 0.000000
# 2 -0.003223 0.007959 -0.001729 0.000000 0.000000 0.000000
# 3 -0.000605 -0.001729 0.010969 0.000000 0.000000 0.000000
# 4 0.000000 0.000000 0.000000 0.030497 0.000000 0.000000
# 5 0.000000 0.000000 0.000000 0.000000 0.023266 0.000000
# 6 0.000000 0.000000 0.000000 0.000000 0.000000 0.025686
#
#
# Mechanical properties :
#
#
# Convention : Reuss Voigt Hill
#
# Bulk Modulus (GPa) = 68.50313 80.02351 74.26332
# Shear Modulus (GPa) = 41.27436 43.98066 42.62751
#
# Velocity S-wave (km/s) = 3.90611 4.03213 3.96962
# Velocity P-wave (km/s) = 6.75772 7.15956 6.96154
#
# Compressibility (1/GPa) = 0.01459787
#
# Stress axis : x y z
#
# Youngs Moduli (GPa) = 147.42778 125.64158 91.16232
#
# Poissons Ratio (x) = 0.40496 0.05516
# Poissons Ratio (y) = 0.47518 0.15758
# Poissons Ratio (z) = 0.08921 0.21718
#
# Static dielectric constant tensor:
#      x y z
#    x 2.117760 0.000000 0.000000 
#    y 0.000000 2.624510 0.000000 
#    z 0.000000 0.000000 2.386610 
# 
# From -- ./inp_files/42666.got.cif
#   From: 2010.05.17/outbox.cif.g08.bks.cpg/sg70_22_cif.got.tgz:42666.got - 2010.06.03 15:57:51.
