data_PCOD9514843
_publ_section_title
;
Structure prediction by ZEFSAII (Michael W. Deem and Ramdas Pophale) SiO2 
 PCOD9514843
Probable space group: F D D D
;
_chemical_formula_sum "Si O2"
_cell_formula_units_Z 176
_cell_length_a 25.449049
_cell_length_b 19.864196
_cell_length_c 14.206841
_cell_angle_alpha 90.000000
_cell_angle_beta 90.000000
_cell_angle_gamma 90.000000
_cell_volume 7181.911838
_symmetry_space_group_name_H-M "F D D D"
_symmetry_group_IT_number 70
_space_group.IT_coordinate_system_code '2'
_symmetry_cell_setting 'orthorhombic'
loop_
_space_group_symop_operation_xyz
x,y,z
1/4-x,1/4-y,z
x,1/4-y,1/4-z
1/4-x,y,1/4-z
-x,-y,-z
3/4+x,3/4+y,-z
-x,3/4+y,3/4+z
3/4+x,-y,3/4+z
x,1/2+y,1/2+z
1/4-x,3/4-y,1/2+z
x,3/4-y,3/4-z
1/4-x,1/2+y,3/4-z
-x,1/2-y,1/2-z
3/4+x,1/4+y,1/2-z
-x,1/4+y,1/4+z
3/4+x,1/2-y,1/4+z
1/2+x,y,1/2+z
3/4-x,1/4-y,1/2+z
1/2+x,1/4-y,3/4-z
3/4-x,y,3/4-z
1/2-x,-y,1/2-z
1/4+x,3/4+y,1/2-z
1/2-x,3/4+y,1/4+z
1/4+x,-y,1/4+z
1/2+x,1/2+y,z
3/4-x,3/4-y,z
1/2+x,3/4-y,1/4-z
3/4-x,1/2+y,1/4-z
1/2-x,1/2-y,-z
1/4+x,1/4+y,-z
1/2-x,1/4+y,3/4+z
1/4+x,1/2-y,3/4+z
loop_
_atom_site_type_symbol
_atom_site_label
_atom_site_fract_x
_atom_site_fract_y
_atom_site_fract_z
Si Si1 0.797188 0.321476 0.566289
Si Si2 0.558259 0.741150 0.707682
Si Si3 0.047935 0.369590 0.272501
Si Si4 0.625000 0.889774 0.125000
Si Si5 0.342413 0.468859 0.091076
Si Si6 0.237997 0.726173 0.232187
O O1 0.752858 0.322144 0.485969
O O2 0.847483 0.273373 0.560133
O O3 0.821255 0.396227 0.559694
O O4 0.771578 0.312318 0.670235
O O5 0.500000 0.750000 0.750000
O O6 0.586567 0.811215 0.683560
O O7 0.591401 0.713549 0.794992
O O8 0.548097 0.704754 0.607412
O O9 0.071352 0.375000 0.375000
O O10 0.089073 0.349088 0.194481
O O11 0.029669 0.446188 0.248920
O O12 0.298881 0.521189 0.052129
#
# Coordination Sequence:
#
# PCOD9514843 Si02
#       6
#    32  32  32  16  32  32
#     4  10  20  36  58  85 120 154 207 252 295 375
#     4   9  17  33  59  83 115 160 198 238 310 360
#     4  10  22  41  61  82 118 161 199 251 311 362
#     4  10  20  40  60  85 122 158 195 248 306 370
#     4   9  18  34  57  89 120 160 202 250 300 361
#     4   9  19  36  57  84 120 160 197 252 305 357
#
# _framework density 24.50601
#
# number of rings (size 3 to 8) (size 9 to 14) (size 15 to 20)
#    0.000    2.545    0.000    3.273    0.000    1.455 
#    9.818    9.091    0.000    0.000    0.000    0.000 
#    0.000    0.000    0.000    0.000    0.000    0.000 
#
# Total GULP energy -245841.049152 kJ/mol
# GULP energy per Si atom -5587.296572 kJ/mol
# Density = 2.445023 g / cm^3
# Si number density = 24.506010 Si / 1000 Ang^3
#
#
#
# Elastic Constant Matrix: (Units=GPa)
#
#
# Indices 1 2 3 4 5 6 
#
# 1 134.3751 11.8810 40.3686 0.0000 0.0000 0.0000
# 2 11.8810 50.8597 -6.9109 0.0000 0.0000 0.0000
# 3 40.3686 -6.9109 57.6344 0.0000 0.0000 0.0000
# 4 0.0000 0.0000 0.0000 34.4117 0.0000 0.0000
# 5 0.0000 0.0000 0.0000 0.0000 28.6696 0.0000
# 6 0.0000 0.0000 0.0000 0.0000 0.0000 18.3108
#
#
#
# Elastic Compliance Matrix: (Units=1/GPa)
#
#
# Indices 1 2 3 4 5 6 
#
# 1 0.009949 -0.003325 -0.007367 0.000000 0.000000 0.000000
# 2 -0.003325 0.021099 0.004859 0.000000 0.000000 0.000000
# 3 -0.007367 0.004859 0.023094 0.000000 0.000000 0.000000
# 4 0.000000 0.000000 0.000000 0.029060 0.000000 0.000000
# 5 0.000000 0.000000 0.000000 0.000000 0.034880 0.000000
# 6 0.000000 0.000000 0.000000 0.000000 0.000000 0.054613
#
#
# Mechanical properties :
#
#
# Convention : Reuss Voigt Hill
#
# Bulk Modulus (GPa) = 23.54342 37.06073 30.30207
# Shear Modulus (GPa) = 25.18638 29.44710 27.31674
#
# Velocity S-wave (km/s) = 3.20935 3.47021 3.34233
# Velocity P-wave (km/s) = 4.83336 5.58681 5.22368
#
# Compressibility (1/GPa) = 0.04247471
#
# Stress axis : x y z
#
# Youngs Moduli (GPa) = 100.51111 47.39565 43.30189
#
# Poissons Ratio (x) = 0.15760 0.31902
# Poissons Ratio (y) = 0.33422 -0.21041
# Poissons Ratio (z) = 0.74050 -0.23030
#
# Static dielectric constant tensor:
#      x y z
#    x 2.000780 0.000000 0.000000 
#    y 0.000000 2.017100 0.000000 
#    z 0.000000 0.000000 1.913880 
# 
# From -- ./inp_files/21197.got.cif
#   From: 2010.05.17/outbox.cif.g08.bks.cpg/sg70_11_cif.got.tgz:21197.got - 2010.06.03 15:57:51.
