data_PCOD9514726
_publ_section_title
;
Structure prediction by ZEFSAII (Michael W. Deem and Ramdas Pophale) SiO2 
 PCOD9514726
Probable space group: F D D D
;
_chemical_formula_sum "Si O2"
_cell_formula_units_Z 112
_cell_length_a 28.140644
_cell_length_b 7.368230
_cell_length_c 21.108695
_cell_angle_alpha 90.000000
_cell_angle_beta 90.000000
_cell_angle_gamma 90.000000
_cell_volume 4376.819038
_symmetry_space_group_name_H-M "F D D D"
_symmetry_group_IT_number 70
_space_group.IT_coordinate_system_code '2'
_symmetry_cell_setting 'orthorhombic'
loop_
_space_group_symop_operation_xyz
x,y,z
1/4-x,1/4-y,z
x,1/4-y,1/4-z
1/4-x,y,1/4-z
-x,-y,-z
3/4+x,3/4+y,-z
-x,3/4+y,3/4+z
3/4+x,-y,3/4+z
x,1/2+y,1/2+z
1/4-x,3/4-y,1/2+z
x,3/4-y,3/4-z
1/4-x,1/2+y,3/4-z
-x,1/2-y,1/2-z
3/4+x,1/4+y,1/2-z
-x,1/4+y,1/4+z
3/4+x,1/2-y,1/4+z
1/2+x,y,1/2+z
3/4-x,1/4-y,1/2+z
1/2+x,1/4-y,3/4-z
3/4-x,y,3/4-z
1/2-x,-y,1/2-z
1/4+x,3/4+y,1/2-z
1/2-x,3/4+y,1/4+z
1/4+x,-y,1/4+z
1/2+x,1/2+y,z
3/4-x,3/4-y,z
1/2+x,3/4-y,1/4-z
3/4-x,1/2+y,1/4-z
1/2-x,1/2-y,-z
1/4+x,1/4+y,-z
1/2-x,1/4+y,3/4+z
1/4+x,1/2-y,3/4+z
loop_
_atom_site_type_symbol
_atom_site_label
_atom_site_fract_x
_atom_site_fract_y
_atom_site_fract_z
Si Si1 0.859556 0.125000 0.125000
Si Si2 0.340839 0.645635 0.490649
Si Si3 0.963472 0.836158 0.194160
Si Si4 0.692769 0.789972 0.208669
O O1 0.888250 0.083805 0.061467
O O2 0.825901 0.296392 0.108275
O O3 0.307427 0.474118 0.502776
O O4 0.314451 0.826454 0.467760
O O5 0.389598 0.630827 0.449453
O O6 0.963500 0.640788 0.228936
O O7 0.012866 0.906221 0.164597
#
# Coordination Sequence:
#
# PCOD9514726 Si02
#       4
#    16  32  32  32
#     4  10  20  30  52  84 113 147 190 242 294 326
#     4  10  20  32  54  77 112 146 190 233 285 336
#     4  10  20  32  50  79 115 140 182 239 284 339
#     4   9  19  33  49  77 110 143 186 227 285 345
#
# _framework density 25.589362999999999
#
# number of rings (size 3 to 8) (size 9 to 14) (size 15 to 20)
#    0.000    2.286    0.000    4.286   16.000    0.000 
#    0.000    0.000    0.000    0.000    0.000   36.000 
#    0.000    0.000    0.000    0.000    0.000    1.143 
#
# Total GULP energy -156209.535392 kJ/mol
# GULP energy per Si atom -5578.911978 kJ/mol
# Density = 2.553112 g / cm^3
# Si number density = 25.589363 Si / 1000 Ang^3
#
#
#
# Elastic Constant Matrix: (Units=GPa)
#
#
# Indices 1 2 3 4 5 6 
#
# 1 157.1949 75.9447 13.1982 0.0001 0.0000 -0.0002
# 2 75.9447 116.7608 -2.4991 0.0000 0.0000 -0.0001
# 3 13.1982 -2.4991 36.4595 0.0000 0.0000 0.0000
# 4 0.0001 0.0000 0.0000 22.7008 0.0000 0.0000
# 5 0.0000 0.0000 0.0000 0.0000 9.7686 0.0000
# 6 -0.0002 -0.0001 0.0000 0.0000 0.0000 60.2180
#
#
#
# Elastic Compliance Matrix: (Units=1/GPa)
#
#
# Indices 1 2 3 4 5 6 
#
# 1 0.009827 -0.006477 -0.004001 0.000000 0.000000 0.000000
# 2 -0.006477 0.012847 0.003225 0.000000 0.000000 0.000000
# 3 -0.004001 0.003225 0.029097 0.000000 0.000000 0.000000
# 4 0.000000 0.000000 0.000000 0.044051 0.000000 0.000000
# 5 0.000000 0.000000 0.000000 0.000000 0.102369 0.000000
# 6 0.000000 0.000000 0.000000 0.000000 0.000000 0.016606
#
#
# Mechanical properties :
#
#
# Convention : Reuss Voigt Hill
#
# Bulk Modulus (GPa) = 26.83547 53.74477 40.29012
# Shear Modulus (GPa) = 20.68465 33.45557 27.07011
#
# Velocity S-wave (km/s) = 2.84620 3.61972 3.25601
# Velocity P-wave (km/s) = 4.61637 6.20631 5.46942
#
# Compressibility (1/GPa) = 0.03726411
#
# Stress axis : x y z
#
# Youngs Moduli (GPa) = 101.76235 77.84174 34.36758
#
# Poissons Ratio (x) = 0.50420 0.13751
# Poissons Ratio (y) = 0.65914 -0.11085
# Poissons Ratio (z) = 0.40718 -0.25106
#
# Static dielectric constant tensor:
#      x y z
#    x 2.386170 0.000000 0.000000 
#    y 0.000000 2.038580 0.000000 
#    z 0.000000 0.000000 2.091240 
# 
# From -- ./inp_files/68202.got.cif
#   From: 2010.05.17/outbox.cif.g08.bks.cpg/sg70_35_cif.got.tgz:68202.got - 2010.06.03 15:57:51.
