data_PCOD9514572
_publ_section_title
;
Structure prediction by ZEFSAII (Michael W. Deem and Ramdas Pophale) SiO2 
 PCOD9514572
Probable space group: F D D D
;
_chemical_formula_sum "Si O2"
_cell_formula_units_Z 128
_cell_length_a 18.901283
_cell_length_b 26.008987
_cell_length_c 9.914745
_cell_angle_alpha 90.000000
_cell_angle_beta 90.000000
_cell_angle_gamma 90.000000
_cell_volume 4874.120605
_symmetry_space_group_name_H-M "F D D D"
_symmetry_group_IT_number 70
_space_group.IT_coordinate_system_code '2'
_symmetry_cell_setting 'orthorhombic'
loop_
_space_group_symop_operation_xyz
x,y,z
1/4-x,1/4-y,z
x,1/4-y,1/4-z
1/4-x,y,1/4-z
-x,-y,-z
3/4+x,3/4+y,-z
-x,3/4+y,3/4+z
3/4+x,-y,3/4+z
x,1/2+y,1/2+z
1/4-x,3/4-y,1/2+z
x,3/4-y,3/4-z
1/4-x,1/2+y,3/4-z
-x,1/2-y,1/2-z
3/4+x,1/4+y,1/2-z
-x,1/4+y,1/4+z
3/4+x,1/2-y,1/4+z
1/2+x,y,1/2+z
3/4-x,1/4-y,1/2+z
1/2+x,1/4-y,3/4-z
3/4-x,y,3/4-z
1/2-x,-y,1/2-z
1/4+x,3/4+y,1/2-z
1/2-x,3/4+y,1/4+z
1/4+x,-y,1/4+z
1/2+x,1/2+y,z
3/4-x,3/4-y,z
1/2+x,3/4-y,1/4-z
3/4-x,1/2+y,1/4-z
1/2-x,1/2-y,-z
1/4+x,1/4+y,-z
1/2-x,1/4+y,3/4+z
1/4+x,1/2-y,3/4+z
loop_
_atom_site_type_symbol
_atom_site_label
_atom_site_fract_x
_atom_site_fract_y
_atom_site_fract_z
Si Si1 0.773819 0.618113 0.932443
Si Si2 0.487133 0.807152 0.798700
Si Si3 0.337238 0.938335 0.072995
Si Si4 0.949945 0.710277 0.667371
O O1 0.789412 0.593698 0.786100
O O2 0.699673 0.650989 0.931177
O O3 0.770194 0.570341 0.036673
O O4 0.823640 0.663174 0.989371
O O5 0.500000 0.750000 0.750000
O O6 0.411230 0.827017 0.742371
O O7 0.473953 0.808040 0.957838
O O8 0.354702 0.996809 0.118756
O O9 0.000000 0.750000 0.750000
#
# Coordination Sequence:
#
# PCOD9514572 Si02
#       4
#    32  32  32  32
#     4  10  19  36  64  88 119 162 203 251 307 365
#     4  11  21  37  65  92 124 163 205 258 313 377
#     4  10  21  38  64  93 126 158 206 260 316 372
#     4   9  19  37  61  86 129 157 197 263 309 363
#
# _framework density 26.261147000000001
#
# number of rings (size 3 to 8) (size 9 to 14) (size 15 to 20)
#    0.000    2.000    2.500    1.500    0.000    2.000 
#    0.000   21.250   16.500    0.000    0.000    0.000 
#    0.000    0.000    0.000    0.000    0.000    0.000 
#
# Total GULP energy -178368.365132 kJ/mol
# GULP energy per Si atom -5574.011410 kJ/mol
# Density = 2.620138 g / cm^3
# Si number density = 26.261147 Si / 1000 Ang^3
#
#
#
# Elastic Constant Matrix: (Units=GPa)
#
#
# Indices 1 2 3 4 5 6 
#
# 1 45.2269 19.7678 24.7006 0.0000 0.0000 0.0000
# 2 19.7678 174.7398 20.2285 0.0000 0.0000 0.0000
# 3 24.7006 20.2285 73.2383 0.0000 0.0000 0.0000
# 4 0.0000 0.0000 0.0000 63.5511 0.0000 0.0000
# 5 0.0000 0.0000 0.0000 0.0000 15.8776 0.0000
# 6 0.0000 0.0000 0.0000 0.0000 0.0000 35.3378
#
#
#
# Elastic Compliance Matrix: (Units=1/GPa)
#
#
# Indices 1 2 3 4 5 6 
#
# 1 0.027851 -0.002131 -0.008804 0.000000 0.000000 0.000000
# 2 -0.002131 0.006075 -0.000959 0.000000 0.000000 0.000000
# 3 -0.008804 -0.000959 0.016888 0.000000 0.000000 0.000000
# 4 0.000000 0.000000 0.000000 0.015735 0.000000 0.000000
# 5 0.000000 0.000000 0.000000 0.000000 0.062982 0.000000
# 6 0.000000 0.000000 0.000000 0.000000 0.000000 0.028298
#
#
# Mechanical properties :
#
#
# Convention : Reuss Voigt Hill
#
# Bulk Modulus (GPa) = 37.00364 46.95545 41.97954
# Shear Modulus (GPa) = 26.22916 38.18716 32.20816
#
# Velocity S-wave (km/s) = 3.16378 3.81744 3.50588
# Velocity P-wave (km/s) = 5.24092 6.11143 5.69284
#
# Compressibility (1/GPa) = 0.02702437
#
# Stress axis : x y z
#
# Youngs Moduli (GPa) = 35.90557 164.61061 59.21248
#
# Poissons Ratio (x) = 0.35086 0.52133
# Poissons Ratio (y) = 0.07653 0.05679
# Poissons Ratio (z) = 0.31613 0.15787
#
# Static dielectric constant tensor:
#      x y z
#    x 2.284490 0.000000 0.000000 
#    y 0.000000 2.166720 0.000000 
#    z 0.000000 0.000000 2.268700 
# 
# From -- ./inp_files/18845.got.cif
#   From: 2010.05.17/outbox.cif.g08.bks.cpg/sg70_10_cif.got.tgz:18845.got - 2010.06.03 15:57:51.
