data_PCOD9514400
_publ_section_title
;
Structure prediction by ZEFSAII (Michael W. Deem and Ramdas Pophale) SiO2 
 PCOD9514400
Probable space group: F D D D
;
_chemical_formula_sum "Si O2"
_cell_formula_units_Z 176
_cell_length_a 9.714950
_cell_length_b 26.491005
_cell_length_c 27.185106
_cell_angle_alpha 90.000000
_cell_angle_beta 90.000000
_cell_angle_gamma 90.000000
_cell_volume 6996.325960
_symmetry_space_group_name_H-M "F D D D"
_symmetry_group_IT_number 70
_space_group.IT_coordinate_system_code '2'
_symmetry_cell_setting 'orthorhombic'
loop_
_space_group_symop_operation_xyz
x,y,z
1/4-x,1/4-y,z
x,1/4-y,1/4-z
1/4-x,y,1/4-z
-x,-y,-z
3/4+x,3/4+y,-z
-x,3/4+y,3/4+z
3/4+x,-y,3/4+z
x,1/2+y,1/2+z
1/4-x,3/4-y,1/2+z
x,3/4-y,3/4-z
1/4-x,1/2+y,3/4-z
-x,1/2-y,1/2-z
3/4+x,1/4+y,1/2-z
-x,1/4+y,1/4+z
3/4+x,1/2-y,1/4+z
1/2+x,y,1/2+z
3/4-x,1/4-y,1/2+z
1/2+x,1/4-y,3/4-z
3/4-x,y,3/4-z
1/2-x,-y,1/2-z
1/4+x,3/4+y,1/2-z
1/2-x,3/4+y,1/4+z
1/4+x,-y,1/4+z
1/2+x,1/2+y,z
3/4-x,3/4-y,z
1/2+x,3/4-y,1/4-z
3/4-x,1/2+y,1/4-z
1/2-x,1/2-y,-z
1/4+x,1/4+y,-z
1/2-x,1/4+y,3/4+z
1/4+x,1/2-y,3/4+z
loop_
_atom_site_type_symbol
_atom_site_label
_atom_site_fract_x
_atom_site_fract_y
_atom_site_fract_z
Si Si1 0.077490 0.722593 0.433002
Si Si2 0.103439 0.861986 0.318088
Si Si3 0.624827 0.775798 0.177821
Si Si4 0.125000 0.125000 0.000439
Si Si5 0.079570 0.248851 0.823066
Si Si6 0.806040 0.806516 0.260104
O O1 0.228355 0.749163 0.436703
O O2 0.107973 0.671665 0.462177
O O3 0.042367 0.724090 0.375268
O O4 0.963734 0.753906 0.461307
O O5 0.129778 0.875000 0.375000
O O6 0.241684 0.869583 0.285919
O O7 0.031293 0.806040 0.314707
O O8 0.991012 0.900692 0.297042
O O9 0.625000 0.803215 0.125000
O O10 0.754359 0.738755 0.173532
O O11 0.676192 0.810613 0.221273
O O12 0.075640 0.206119 0.780487
#
# Coordination Sequence:
#
# PCOD9514400 Si02
#       6
#    32  32  32  16  32  32
#     4  11  18  30  43  60  92 126 160 195 231 282
#     4  12  22  27  41  68  94 128 166 188 229 281
#     4   8  16  27  41  52  82 125 151 178 227 267
#     4  12  21  28  42  66  90 132 163 190 228 288
#     4   9  20  32  42  61  93 127 158 194 234 279
#     4  10  19  29  43  59  92 127 156 197 230 273
#
# _framework density 25.156061000000001
#
# number of rings (size 3 to 8) (size 9 to 14) (size 15 to 20)
#    1.091    0.727    5.455    0.818    2.545    1.455 
#    0.000    0.000    0.000    0.000    0.000    1.273 
#    0.000    0.000    0.000    0.000    0.000    0.000 
#
# Total GULP energy -245170.048233 kJ/mol
# GULP energy per Si atom -5572.046551 kJ/mol
# Density = 2.509881 g / cm^3
# Si number density = 25.156061 Si / 1000 Ang^3
#
#
#
# Elastic Constant Matrix: (Units=GPa)
#
#
# Indices 1 2 3 4 5 6 
#
# 1 86.6116 30.6479 14.6574 0.0000 0.0000 0.0000
# 2 30.6479 129.9971 80.4757 0.0000 0.0000 0.0000
# 3 14.6574 80.4757 232.8812 0.0000 0.0000 0.0000
# 4 0.0000 0.0000 0.0000 29.5345 0.0000 0.0000
# 5 0.0000 0.0000 0.0000 0.0000 87.1590 0.0000
# 6 0.0000 0.0000 0.0000 0.0000 0.0000 30.4088
#
#
#
# Elastic Compliance Matrix: (Units=1/GPa)
#
#
# Indices 1 2 3 4 5 6 
#
# 1 0.012613 -0.003158 0.000297 0.000000 0.000000 0.000000
# 2 -0.003158 0.010576 -0.003456 0.000000 0.000000 0.000000
# 3 0.000297 -0.003456 0.005470 0.000000 0.000000 0.000000
# 4 0.000000 0.000000 0.000000 0.033859 0.000000 0.000000
# 5 0.000000 0.000000 0.000000 0.000000 0.011473 0.000000
# 6 0.000000 0.000000 0.000000 0.000000 0.000000 0.032885
#
#
# Mechanical properties :
#
#
# Convention : Reuss Voigt Hill
#
# Bulk Modulus (GPa) = 62.39840 77.89467 70.14653
# Shear Modulus (GPa) = 40.04775 51.00106 45.52441
#
# Velocity S-wave (km/s) = 3.99428 4.50754 4.25865
# Velocity P-wave (km/s) = 6.79196 7.62380 7.21987
#
# Compressibility (1/GPa) = 0.01602605
#
# Stress axis : x y z
#
# Youngs Moduli (GPa) = 79.28439 94.54967 182.82750
#
# Poissons Ratio (x) = 0.29855 -0.05436
# Poissons Ratio (y) = 0.25035 0.63187
# Poissons Ratio (z) = -0.02357 0.32677
#
# Static dielectric constant tensor:
#      x y z
#    x 2.531280 0.000000 0.000000 
#    y 0.000000 2.164540 0.000000 
#    z 0.000000 0.000000 2.073540 
# 
# From -- ./inp_files/58725.got.cif
#   From: 2010.05.17/outbox.cif.g08.bks.cpg/sg70_30_cif.got.tgz:58725.got - 2010.06.03 15:57:51.
