data_PCOD9514274
_publ_section_title
;
Structure prediction by ZEFSAII (Michael W. Deem and Ramdas Pophale) SiO2 
 PCOD9514274
Probable space group: F D D D
;
_chemical_formula_sum "Si O2"
_cell_formula_units_Z 160
_cell_length_a 17.527153
_cell_length_b 22.062706
_cell_length_c 16.766808
_cell_angle_alpha 90.000000
_cell_angle_beta 90.000000
_cell_angle_gamma 90.000000
_cell_volume 6483.664690
_symmetry_space_group_name_H-M "F D D D"
_symmetry_group_IT_number 70
_space_group.IT_coordinate_system_code '2'
_symmetry_cell_setting 'orthorhombic'
loop_
_space_group_symop_operation_xyz
x,y,z
1/4-x,1/4-y,z
x,1/4-y,1/4-z
1/4-x,y,1/4-z
-x,-y,-z
3/4+x,3/4+y,-z
-x,3/4+y,3/4+z
3/4+x,-y,3/4+z
x,1/2+y,1/2+z
1/4-x,3/4-y,1/2+z
x,3/4-y,3/4-z
1/4-x,1/2+y,3/4-z
-x,1/2-y,1/2-z
3/4+x,1/4+y,1/2-z
-x,1/4+y,1/4+z
3/4+x,1/2-y,1/4+z
1/2+x,y,1/2+z
3/4-x,1/4-y,1/2+z
1/2+x,1/4-y,3/4-z
3/4-x,y,3/4-z
1/2-x,-y,1/2-z
1/4+x,3/4+y,1/2-z
1/2-x,3/4+y,1/4+z
1/4+x,-y,1/4+z
1/2+x,1/2+y,z
3/4-x,3/4-y,z
1/2+x,3/4-y,1/4-z
3/4-x,1/2+y,1/4-z
1/2-x,1/2-y,-z
1/4+x,1/4+y,-z
1/2-x,1/4+y,3/4+z
1/4+x,1/2-y,3/4+z
loop_
_atom_site_type_symbol
_atom_site_label
_atom_site_fract_x
_atom_site_fract_y
_atom_site_fract_z
Si Si1 0.335359 0.000869 0.212916
Si Si2 0.051473 0.951043 0.733387
Si Si3 0.558227 0.375000 0.875000
Si Si4 0.772448 0.057870 0.300179
Si Si5 0.788433 0.824007 0.170739
Si Si6 0.875000 0.213113 0.375000
O O1 0.342133 0.945261 0.152532
O O2 0.381955 0.999293 0.293880
O O3 0.250000 0.000000 0.250000
O O4 0.347533 0.064463 0.164506
O O5 0.016530 0.905029 0.798907
O O6 0.139850 0.929317 0.724844
O O7 0.019496 0.953899 0.644752
O O8 0.048193 0.018262 0.769483
O O9 0.713582 0.112478 0.285131
O O10 0.750000 0.000000 0.250000
O O11 0.703277 0.824240 0.129567
#
# Coordination Sequence:
#
# PCOD9514274 Si02
#       6
#    32  32  16  32  32  16
#     4   9  18  32  57  89 123 163 209 264 330 403
#     4  10  23  41  64  96 128 167 225 281 334 407
#     4  10  18  34  62  89 120 157 206 274 336 400
#     4  11  24  42  63  89 129 178 225 279 340 403
#     4  10  21  38  63  93 126 170 222 273 334 407
#     4  10  18  36  64  93 126 163 204 268 344 412
#
# _framework density 24.677403000000002
#
# number of rings (size 3 to 8) (size 9 to 14) (size 15 to 20)
#    0.000    2.000    0.000    4.800    0.000    6.400 
#    0.000    2.000    0.000   73.800    0.000    0.000 
#    0.000    0.000    0.000    0.000    0.000    0.000 
#
# Total GULP energy -223334.967114 kJ/mol
# GULP energy per Si atom -5583.374178 kJ/mol
# Density = 2.462124 g / cm^3
# Si number density = 24.677403 Si / 1000 Ang^3
#
#
#
# Elastic Constant Matrix: (Units=GPa)
#
#
# Indices 1 2 3 4 5 6 
#
# 1 73.4028 13.5803 18.8612 0.0000 0.0000 0.0000
# 2 13.5803 202.2575 88.7850 0.0000 0.0000 0.0000
# 3 18.8612 88.7850 173.5162 0.0000 0.0000 0.0000
# 4 0.0000 0.0000 0.0000 40.1670 0.0000 0.0000
# 5 0.0000 0.0000 0.0000 0.0000 28.7826 0.0000
# 6 0.0000 0.0000 0.0000 0.0000 0.0000 32.5449
#
#
#
# Elastic Compliance Matrix: (Units=1/GPa)
#
#
# Indices 1 2 3 4 5 6 
#
# 1 0.014034 -0.000352 -0.001346 0.000000 0.000000 0.000000
# 2 -0.000352 0.006385 -0.003229 0.000000 0.000000 0.000000
# 3 -0.001346 -0.003229 0.007562 0.000000 0.000000 0.000000
# 4 0.000000 0.000000 0.000000 0.024896 0.000000 0.000000
# 5 0.000000 0.000000 0.000000 0.000000 0.034743 0.000000
# 6 0.000000 0.000000 0.000000 0.000000 0.000000 0.030727
#
#
# Mechanical properties :
#
#
# Convention : Reuss Voigt Hill
#
# Bulk Modulus (GPa) = 55.16116 76.84772 66.00444
# Shear Modulus (GPa) = 37.24603 42.16223 39.70413
#
# Velocity S-wave (km/s) = 3.88921 4.13793 4.01549
# Velocity P-wave (km/s) = 6.52452 7.35109 6.95010
#
# Compressibility (1/GPa) = 0.01812870
#
# Stress axis : x y z
#
# Youngs Moduli (GPa) = 71.25417 156.61143 132.24672
#
# Poissons Ratio (x) = 0.05507 0.17795
# Poissons Ratio (y) = 0.02506 0.42702
# Poissons Ratio (z) = 0.09588 0.50570
#
# Static dielectric constant tensor:
#      x y z
#    x 2.162020 0.000000 0.000000 
#    y 0.000000 2.023500 0.000000 
#    z 0.000000 0.000000 1.974200 
# 
# From -- ./inp_files/36349.got.cif
#   From: 2010.05.17/outbox.cif.g08.bks.cpg/sg70_19_cif.got.tgz:36349.got - 2010.06.03 15:57:51.
