data_PCOD9514326
_publ_section_title
;
Structure prediction by ZEFSAII (Michael W. Deem and Ramdas Pophale) SiO2 
 PCOD9514326
Probable space group: F D D D
;
_chemical_formula_sum "Si O2"
_cell_formula_units_Z 136
_cell_length_a 28.635210
_cell_length_b 10.472049
_cell_length_c 22.886118
_cell_angle_alpha 90.000000
_cell_angle_beta 90.000000
_cell_angle_gamma 90.000000
_cell_volume 6862.844693
_symmetry_space_group_name_H-M "F D D D"
_symmetry_group_IT_number 70
_space_group.IT_coordinate_system_code '2'
_symmetry_cell_setting 'orthorhombic'
loop_
_space_group_symop_operation_xyz
x,y,z
1/4-x,1/4-y,z
x,1/4-y,1/4-z
1/4-x,y,1/4-z
-x,-y,-z
3/4+x,3/4+y,-z
-x,3/4+y,3/4+z
3/4+x,-y,3/4+z
x,1/2+y,1/2+z
1/4-x,3/4-y,1/2+z
x,3/4-y,3/4-z
1/4-x,1/2+y,3/4-z
-x,1/2-y,1/2-z
3/4+x,1/4+y,1/2-z
-x,1/4+y,1/4+z
3/4+x,1/2-y,1/4+z
1/2+x,y,1/2+z
3/4-x,1/4-y,1/2+z
1/2+x,1/4-y,3/4-z
3/4-x,y,3/4-z
1/2-x,-y,1/2-z
1/4+x,3/4+y,1/2-z
1/2-x,3/4+y,1/4+z
1/4+x,-y,1/4+z
1/2+x,1/2+y,z
3/4-x,3/4-y,z
1/2+x,3/4-y,1/4-z
3/4-x,1/2+y,1/4-z
1/2-x,1/2-y,-z
1/4+x,1/4+y,-z
1/2-x,1/4+y,3/4+z
1/4+x,1/2-y,3/4+z
loop_
_atom_site_type_symbol
_atom_site_label
_atom_site_fract_x
_atom_site_fract_y
_atom_site_fract_z
Si Si1 0.625000 0.625000 0.830590
Si Si2 0.875000 0.875000 0.375000
Si Si3 0.584521 0.375000 0.375000
Si Si4 0.819407 0.743443 0.270107
Si Si5 0.116924 0.976448 0.194663
Si Si6 0.224570 0.887442 0.991768
O O1 0.613439 0.745839 0.869722
O O2 0.585759 0.578093 0.785009
O O3 0.840533 0.802820 0.329984
O O4 0.553270 0.371310 0.431975
O O5 0.845346 0.607754 0.269716
O O6 0.763971 0.754184 0.266471
O O7 0.125000 0.961726 0.125000
O O8 0.065190 0.923616 0.210795
O O9 0.125000 0.125000 0.208683
O O10 0.250000 0.750000 0.000000
#
# Coordination Sequence:
#
# PCOD9514326 Si02
#       6
#    16   8  16  32  32  32
#     4  11  24  43  64 102 143 186 221 294 362 414
#     4  10  18  36  70 104 140 180 222 310 352 404
#     4  12  25  42  70 105 148 178 237 298 359 426
#     4  11  21  41  70 102 137 183 245 287 353 430
#     4  11  26  47  69 101 150 191 236 302 367 427
#     4  12  25  43  73 107 135 186 251 294 354 437
#
# _framework density 19.816855
#
# number of rings (size 3 to 8) (size 9 to 14) (size 15 to 20)
#    0.000    0.706    5.882    2.118    4.941    0.941 
#    0.000    2.353    0.000    0.000    0.000    0.000 
#    0.000    0.000    0.000    0.000    0.000    0.000 
#
# Total GULP energy -189784.013202 kJ/mol
# GULP energy per Si atom -5581.882741 kJ/mol
# Density = 1.977175 g / cm^3
# Si number density = 19.816855 Si / 1000 Ang^3
#
#
#
# Elastic Constant Matrix: (Units=GPa)
#
#
# Indices 1 2 3 4 5 6 
#
# 1 139.3947 75.8826 44.0342 0.0000 0.0000 0.0000
# 2 75.8826 161.9461 50.4472 0.0000 0.0000 0.0000
# 3 44.0342 50.4472 102.5549 0.0000 0.0000 0.0000
# 4 0.0000 0.0000 0.0000 28.3302 0.0000 0.0000
# 5 0.0000 0.0000 0.0000 0.0000 27.7801 0.0000
# 6 0.0000 0.0000 0.0000 0.0000 0.0000 29.5611
#
#
#
# Elastic Compliance Matrix: (Units=1/GPa)
#
#
# Indices 1 2 3 4 5 6 
#
# 1 0.010096 -0.003992 -0.002371 0.000000 0.000000 0.000000
# 2 -0.003992 0.008871 -0.002650 0.000000 0.000000 0.000000
# 3 -0.002371 -0.002650 0.012072 0.000000 0.000000 0.000000
# 4 0.000000 0.000000 0.000000 0.035298 0.000000 0.000000
# 5 0.000000 0.000000 0.000000 0.000000 0.035997 0.000000
# 6 0.000000 0.000000 0.000000 0.000000 0.000000 0.033828
#
#
# Mechanical properties :
#
#
# Convention : Reuss Voigt Hill
#
# Bulk Modulus (GPa) = 76.84287 82.73596 79.78942
# Shear Modulus (GPa) = 31.54059 32.70307 32.12183
#
# Velocity S-wave (km/s) = 3.99382 4.06675 4.03045
# Velocity P-wave (km/s) = 7.75424 7.99326 7.87466
#
# Compressibility (1/GPa) = 0.01301357
#
# Stress axis : x y z
#
# Youngs Moduli (GPa) = 99.04809 112.72986 82.83396
#
# Poissons Ratio (x) = 0.45002 0.19642
# Poissons Ratio (y) = 0.39540 0.21947
# Poissons Ratio (z) = 0.23487 0.29868
#
# Static dielectric constant tensor:
#      x y z
#    x 1.750070 0.000000 0.000000 
#    y 0.000000 -7.122750 0.000000 
#    z 0.000000 0.000000 1.682520 
# 
# From -- ./inp_files/19443.got.cif
#   From: 2010.05.17/outbox.cif.g08.bks.cpg/sg70_10_cif.got.tgz:19443.got - 2010.06.03 15:57:51.
