data_PCOD9514337
_publ_section_title
;
Structure prediction by ZEFSAII (Michael W. Deem and Ramdas Pophale) SiO2 
 PCOD9514337
Probable space group: F D D D
;
_chemical_formula_sum "Si O2"
_cell_formula_units_Z 208
_cell_length_a 26.565879
_cell_length_b 20.365628
_cell_length_c 19.056398
_cell_angle_alpha 90.000000
_cell_angle_beta 90.000000
_cell_angle_gamma 90.000000
_cell_volume 10310.098431
_symmetry_space_group_name_H-M "F D D D"
_symmetry_group_IT_number 70
_space_group.IT_coordinate_system_code '2'
_symmetry_cell_setting 'orthorhombic'
loop_
_space_group_symop_operation_xyz
x,y,z
1/4-x,1/4-y,z
x,1/4-y,1/4-z
1/4-x,y,1/4-z
-x,-y,-z
3/4+x,3/4+y,-z
-x,3/4+y,3/4+z
3/4+x,-y,3/4+z
x,1/2+y,1/2+z
1/4-x,3/4-y,1/2+z
x,3/4-y,3/4-z
1/4-x,1/2+y,3/4-z
-x,1/2-y,1/2-z
3/4+x,1/4+y,1/2-z
-x,1/4+y,1/4+z
3/4+x,1/2-y,1/4+z
1/2+x,y,1/2+z
3/4-x,1/4-y,1/2+z
1/2+x,1/4-y,3/4-z
3/4-x,y,3/4-z
1/2-x,-y,1/2-z
1/4+x,3/4+y,1/2-z
1/2-x,3/4+y,1/4+z
1/4+x,-y,1/4+z
1/2+x,1/2+y,z
3/4-x,3/4-y,z
1/2+x,3/4-y,1/4-z
3/4-x,1/2+y,1/4-z
1/2-x,1/2-y,-z
1/4+x,1/4+y,-z
1/2-x,1/4+y,3/4+z
1/4+x,1/2-y,3/4+z
loop_
_atom_site_type_symbol
_atom_site_label
_atom_site_fract_x
_atom_site_fract_y
_atom_site_fract_z
Si Si1 0.459332 0.465101 0.050505
Si Si2 0.316891 0.459895 0.190632
Si Si3 0.875000 0.375000 0.581878
Si Si4 0.859661 0.088640 0.691692
Si Si5 0.399560 0.569503 0.448222
Si Si6 0.500619 0.339475 0.554161
Si Si7 0.273447 0.691878 0.158771
O O1 0.424074 0.399715 0.038706
O O2 0.417942 0.521469 0.049421
O O3 0.485699 0.447556 0.124804
O O4 0.500000 0.500000 0.000000
O O5 0.357874 0.433684 0.134588
O O6 0.336449 0.508829 0.250558
O O7 0.291200 0.393476 0.215783
O O8 0.274533 0.500344 0.147210
O O9 0.836555 0.125000 0.625000
O O10 0.860126 0.135801 0.758482
O O11 0.917735 0.074128 0.672923
O O12 0.375000 0.548955 0.375000
O O13 0.447854 0.617979 0.437943
O O14 0.503020 0.293311 0.485779
O O15 0.251845 0.625000 0.125000
#
# Coordination Sequence:
#
# PCOD9514337 Si02
#       7
#    32  32  16  32  32  32  32
#     4  11  22  40  60  90 125 160 215 267 313 381
#     4  11  20  41  62  86 128 159 203 248 325 391
#     4  10  22  40  65  87 120 180 204 256 332 382
#     4  10  18  38  61  81 116 164 205 238 310 381
#     4  11  21  37  62  93 119 159 202 258 311 374
#     4  10  23  38  60  95 117 160 210 259 308 377
#     4  10  18  37  66  84 114 170 203 238 320 386
#
# _framework density 20.174396000000002
#
# number of rings (size 3 to 8) (size 9 to 14) (size 15 to 20)
#    0.000    1.538    6.154    1.385    0.000    0.000 
#   13.846    0.385    0.000    0.923    0.000    0.000 
#    0.000    0.000    0.000    0.000    0.000    0.000 
#
# Total GULP energy -289692.327109 kJ/mol
# GULP energy per Si atom -5571.006291 kJ/mol
# Density = 2.012848 g / cm^3
# Si number density = 20.174396 Si / 1000 Ang^3
#
#
#
# Elastic Constant Matrix: (Units=GPa)
#
#
# Indices 1 2 3 4 5 6 
#
# 1 52.7923 21.4243 43.5596 0.0000 0.0000 0.0000
# 2 21.4243 80.5445 70.9025 0.0000 0.0000 0.0000
# 3 43.5596 70.9025 124.9347 0.0000 0.0000 0.0000
# 4 0.0000 0.0000 0.0000 24.4813 0.0000 0.0000
# 5 0.0000 0.0000 0.0000 0.0000 23.7104 0.0000
# 6 0.0000 0.0000 0.0000 0.0000 0.0000 19.3470
#
#
#
# Elastic Compliance Matrix: (Units=1/GPa)
#
#
# Indices 1 2 3 4 5 6 
#
# 1 0.026784 0.002191 -0.010582 0.000000 0.000000 0.000000
# 2 0.002191 0.024989 -0.014946 0.000000 0.000000 0.000000
# 3 -0.010582 -0.014946 0.020175 0.000000 0.000000 0.000000
# 4 0.000000 0.000000 0.000000 0.040848 0.000000 0.000000
# 5 0.000000 0.000000 0.000000 0.000000 0.042176 0.000000
# 6 0.000000 0.000000 0.000000 0.000000 0.000000 0.051687
#
#
# Mechanical properties :
#
#
# Convention : Reuss Voigt Hill
#
# Bulk Modulus (GPa) = 39.56403 58.89380 49.22892
# Shear Modulus (GPa) = 19.10159 21.66674 20.38417
#
# Velocity S-wave (km/s) = 3.08039 3.28071 3.18212
# Velocity P-wave (km/s) = 5.68378 6.60352 6.16083
#
# Compressibility (1/GPa) = 0.02527548
#
# Stress axis : x y z
#
# Youngs Moduli (GPa) = 37.33526 40.01725 49.56518
#
# Poissons Ratio (x) = -0.08766 0.52449
# Poissons Ratio (y) = -0.08178 0.74078
# Poissons Ratio (z) = 0.39507 0.59808
#
# Static dielectric constant tensor:
#      x y z
#    x 1.801610 0.000000 0.000000 
#    y 0.000000 1.613620 0.000000 
#    z 0.000000 0.000000 1.751610 
# 
# From -- ./inp_files/39842.got.cif
#   From: 2010.05.17/outbox.cif.g08.bks.cpg/sg70_20_cif.got.tgz:39842.got - 2010.06.03 15:57:51.
