data_PCOD9514748
_publ_section_title
;
Structure prediction by ZEFSAII (Michael W. Deem and Ramdas Pophale) SiO2 
 PCOD9514748
Probable space group: F D D D
;
_chemical_formula_sum "Si O2"
_cell_formula_units_Z 160
_cell_length_a 17.025448
_cell_length_b 14.089126
_cell_length_c 24.708682
_cell_angle_alpha 90.000000
_cell_angle_beta 90.000000
_cell_angle_gamma 90.000000
_cell_volume 5926.962531
_symmetry_space_group_name_H-M "F D D D"
_symmetry_group_IT_number 70
_space_group.IT_coordinate_system_code '2'
_symmetry_cell_setting 'orthorhombic'
loop_
_space_group_symop_operation_xyz
x,y,z
1/4-x,1/4-y,z
x,1/4-y,1/4-z
1/4-x,y,1/4-z
-x,-y,-z
3/4+x,3/4+y,-z
-x,3/4+y,3/4+z
3/4+x,-y,3/4+z
x,1/2+y,1/2+z
1/4-x,3/4-y,1/2+z
x,3/4-y,3/4-z
1/4-x,1/2+y,3/4-z
-x,1/2-y,1/2-z
3/4+x,1/4+y,1/2-z
-x,1/4+y,1/4+z
3/4+x,1/2-y,1/4+z
1/2+x,y,1/2+z
3/4-x,1/4-y,1/2+z
1/2+x,1/4-y,3/4-z
3/4-x,y,3/4-z
1/2-x,-y,1/2-z
1/4+x,3/4+y,1/2-z
1/2-x,3/4+y,1/4+z
1/4+x,-y,1/4+z
1/2+x,1/2+y,z
3/4-x,3/4-y,z
1/2+x,3/4-y,1/4-z
3/4-x,1/2+y,1/4-z
1/2-x,1/2-y,-z
1/4+x,1/4+y,-z
1/2-x,1/4+y,3/4+z
1/4+x,1/2-y,3/4+z
loop_
_atom_site_type_symbol
_atom_site_label
_atom_site_fract_x
_atom_site_fract_y
_atom_site_fract_z
Si Si1 0.752971 0.324068 0.635361
Si Si2 0.125000 0.625000 0.718129
Si Si3 0.386955 0.574478 0.964472
Si Si4 0.388461 0.984136 0.989967
Si Si5 0.493047 0.125000 0.625000
Si Si6 0.236868 0.278430 0.406595
O O1 0.702935 0.331900 0.691728
O O2 0.689721 0.309004 0.588220
O O3 0.801421 0.225842 0.630673
O O4 0.785289 0.429593 0.628088
O O5 0.137815 0.524043 0.747713
O O6 0.051084 0.617626 0.676893
O O7 0.418995 0.675039 0.986203
O O8 0.375000 0.875000 0.006514
O O9 0.423557 0.976043 0.929393
O O10 0.442850 0.027936 0.036384
O O11 0.225228 0.375000 0.375000
#
# Coordination Sequence:
#
# PCOD9514748 Si02
#       6
#    32  16  32  32  16  32
#     4   8  13  23  43  71  99 125 157 203 256 304
#     4   7  10  18  36  64  94 120 148 190 246 298
#     4   8  13  23  43  71  99 125 157 203 256 304
#     4  10  20  33  52  76 104 138 176 221 269 324
#     4   7  10  18  36  64  94 120 148 190 246 298
#     4  10  20  33  52  76 104 138 176 221 269 324
#
# _framework density 26.995279
#
# number of rings (size 3 to 8) (size 9 to 14) (size 15 to 20)
#    0.000    3.400    0.000    3.600    0.000    2.000 
#    0.000    0.000    4.400    0.000    0.000   14.000 
#    0.000    0.000    0.000    0.000    0.000    0.000 
#
# Total GULP energy -222783.995374 kJ/mol
# GULP energy per Si atom -5569.599884 kJ/mol
# Density = 2.693384 g / cm^3
# Si number density = 26.995279 Si / 1000 Ang^3
#
#
#
# Elastic Constant Matrix: (Units=GPa)
#
#
# Indices 1 2 3 4 5 6 
#
# 1 37.3330 24.9903 21.9551 0.0000 0.0000 0.0000
# 2 24.9903 344.3624 58.0023 0.0000 0.0000 0.0000
# 3 21.9551 58.0023 73.7793 0.0000 0.0000 0.0000
# 4 0.0000 0.0000 0.0000 -6.1690 0.0000 0.0000
# 5 0.0000 0.0000 0.0000 0.0000 20.1571 0.0000
# 6 0.0000 0.0000 0.0000 0.0000 0.0000 13.8513
#
#
#
# Elastic Compliance Matrix: (Units=1/GPa)
#
#
# Indices 1 2 3 4 5 6 
#
# 1 0.032680 -0.000846 -0.009060 0.000000 0.000000 0.000000
# 2 -0.000846 0.003369 -0.002397 0.000000 0.000000 0.000000
# 3 -0.009060 -0.002397 0.018134 0.000000 0.000000 0.000000
# 4 0.000000 0.000000 0.000000 -0.162101 0.000000 0.000000
# 5 0.000000 0.000000 0.000000 0.000000 0.049610 0.000000
# 6 0.000000 0.000000 0.000000 0.000000 0.000000 0.072196
#
#
# Mechanical properties :
#
#
# Convention : Reuss Voigt Hill
#
# Bulk Modulus (GPa) = 33.80865 73.93001 53.86933
# Shear Modulus (GPa) = 103.40591 28.93634 66.17112
#
# Velocity S-wave (km/s) = 6.19583 3.27755 4.95634
# Velocity P-wave (km/s) = 7.98345 6.46288 7.26307
#
# Compressibility (1/GPa) = 0.02957823
#
# Stress axis : x y z
#
# Youngs Moduli (GPa) = 30.59966 296.82326 55.14372
#
# Poissons Ratio (x) = 0.25098 0.49961
# Poissons Ratio (y) = 0.02587 0.13218
# Poissons Ratio (z) = 0.27724 0.71147
#
# Static dielectric constant tensor:
#      x y z
#    x 2.266310 0.000000 0.000000 
#    y 0.000000 2.309250 0.000000 
#    z 0.000000 0.000000 2.023890 
# 
# From -- ./inp_files/50352.got.cif
#   From: 2010.05.17/outbox.cif.g08.bks.cpg/sg70_26_cif.got.tgz:50352.got - 2010.06.03 15:57:51.
