data_PCOD9514122
_publ_section_title
;
Structure prediction by ZEFSAII (Michael W. Deem and Ramdas Pophale) SiO2 
 PCOD9514122
Probable space group: F D D D
;
_chemical_formula_sum "Si O2"
_cell_formula_units_Z 216
_cell_length_a 28.470417
_cell_length_b 20.304123
_cell_length_c 22.406303
_cell_angle_alpha 90.000000
_cell_angle_beta 90.000000
_cell_angle_gamma 90.000000
_cell_volume 12952.340965
_symmetry_space_group_name_H-M "F D D D"
_symmetry_group_IT_number 70
_space_group.IT_coordinate_system_code '2'
_symmetry_cell_setting 'orthorhombic'
loop_
_space_group_symop_operation_xyz
x,y,z
1/4-x,1/4-y,z
x,1/4-y,1/4-z
1/4-x,y,1/4-z
-x,-y,-z
3/4+x,3/4+y,-z
-x,3/4+y,3/4+z
3/4+x,-y,3/4+z
x,1/2+y,1/2+z
1/4-x,3/4-y,1/2+z
x,3/4-y,3/4-z
1/4-x,1/2+y,3/4-z
-x,1/2-y,1/2-z
3/4+x,1/4+y,1/2-z
-x,1/4+y,1/4+z
3/4+x,1/2-y,1/4+z
1/2+x,y,1/2+z
3/4-x,1/4-y,1/2+z
1/2+x,1/4-y,3/4-z
3/4-x,y,3/4-z
1/2-x,-y,1/2-z
1/4+x,3/4+y,1/2-z
1/2-x,3/4+y,1/4+z
1/4+x,-y,1/4+z
1/2+x,1/2+y,z
3/4-x,3/4-y,z
1/2+x,3/4-y,1/4-z
3/4-x,1/2+y,1/4-z
1/2-x,1/2-y,-z
1/4+x,1/4+y,-z
1/2-x,1/4+y,3/4+z
1/4+x,1/2-y,3/4+z
loop_
_atom_site_type_symbol
_atom_site_label
_atom_site_fract_x
_atom_site_fract_y
_atom_site_fract_z
Si Si1 0.321630 0.380048 0.597928
Si Si2 0.759656 0.257340 0.069738
Si Si3 0.075505 0.439969 0.150819
Si Si4 0.004059 0.625000 0.125000
Si Si5 0.168926 0.674256 0.217203
Si Si6 0.216812 0.072344 0.175390
Si Si7 0.625000 0.125000 0.625000
Si Si8 0.993996 0.671592 0.808573
O O1 0.375000 0.375000 0.618658
O O2 0.300778 0.309588 0.578922
O O3 0.321241 0.423108 0.537535
O O4 0.287297 0.405445 0.648385
O O5 0.711554 0.282610 0.101427
O O6 0.772802 0.188874 0.101751
O O7 0.750000 0.250000 0.000000
O O8 0.125000 0.416395 0.125000
O O9 0.088129 0.502401 0.192583
O O10 0.047451 0.381064 0.181938
O O11 0.037603 0.604514 0.179871
O O12 0.125000 0.625000 0.206520
O O13 0.235795 0.125000 0.125000
O O14 0.160784 0.083401 0.166281
O O15 0.237464 0.086431 0.240927
O O16 0.227747 0.994586 0.171211
#
# Coordination Sequence:
#
# PCOD9514122 Si02
#       8
#    32  32  32  16  32  32   8  32
#     4  10  22  34  57  81 118 158 187 236 299 357
#     4  10  19  36  52  82 115 150 190 235 277 342
#     4  10  22  33  57  88 117 154 197 243 290 357
#     4  10  17  30  56  65 116 146 195 228 267 314
#     4  10  18  30  51  83 110 160 190 226 276 347
#     4   9  21  40  66  88 110 153 201 256 315 380
#     4   8  20  36  72  90 104 160 204 242 316 392
#     4  10  22  40  60  89 121 148 201 262 308 364
#
# _framework density 16.676521999999999
#
# number of rings (size 3 to 8) (size 9 to 14) (size 15 to 20)
#    0.444    1.778    1.481    2.000    6.222    0.000 
#    0.000    0.000    8.148    0.000    0.000    0.000 
#    0.000    0.000    0.000    0.000    0.000    0.000 
#
# Total GULP energy -300675.199526 kJ/mol
# GULP energy per Si atom -5568.059250 kJ/mol
# Density = 1.663857 g / cm^3
# Si number density = 16.676522 Si / 1000 Ang^3
#
#
#
# Elastic Constant Matrix: (Units=GPa)
#
#
# Indices 1 2 3 4 5 6 
#
# 1 114.3905 67.7713 46.2709 0.0000 0.0000 0.0000
# 2 67.7713 124.5688 73.9625 0.0000 0.0000 0.0000
# 3 46.2709 73.9625 92.3879 0.0000 0.0000 0.0000
# 4 0.0000 0.0000 0.0000 29.3575 0.0000 0.0000
# 5 0.0000 0.0000 0.0000 0.0000 16.5554 0.0000
# 6 0.0000 0.0000 0.0000 0.0000 0.0000 12.7296
#
#
#
# Elastic Compliance Matrix: (Units=1/GPa)
#
#
# Indices 1 2 3 4 5 6 
#
# 1 0.013026 -0.006124 -0.001621 0.000000 0.000000 0.000000
# 2 -0.006124 0.018180 -0.011487 0.000000 0.000000 0.000000
# 3 -0.001621 -0.011487 0.020832 0.000000 0.000000 0.000000
# 4 0.000000 0.000000 0.000000 0.034063 0.000000 0.000000
# 5 0.000000 0.000000 0.000000 0.000000 0.060403 0.000000
# 6 0.000000 0.000000 0.000000 0.000000 0.000000 0.078557
#
#
# Mechanical properties :
#
#
# Convention : Reuss Voigt Hill
#
# Bulk Modulus (GPa) = 73.67391 78.59518 76.13454
# Shear Modulus (GPa) = 18.65322 21.28466 19.96894
#
# Velocity S-wave (km/s) = 3.34807 3.57644 3.46414
# Velocity P-wave (km/s) = 7.69547 8.01787 7.85832
#
# Compressibility (1/GPa) = 0.01357333
#
# Stress axis : x y z
#
# Youngs Moduli (GPa) = 76.76912 55.00538 48.00347
#
# Poissons Ratio (x) = 0.33687 0.07781
# Poissons Ratio (y) = 0.47016 0.55142
# Poissons Ratio (z) = 0.12444 0.63185
#
# Static dielectric constant tensor:
#      x y z
#    x 1.543440 0.000000 0.000000 
#    y 0.000000 1.583860 0.000000 
#    z 0.000000 0.000000 1.560140 
# 
# From -- ./inp_files/47105.got.cif
#   From: 2010.05.17/outbox.cif.g08.bks.cpg/sg70_24_cif.got.tgz:47105.got - 2010.06.03 15:57:51.
