data_PCOD9514857
_publ_section_title
;
Structure prediction by ZEFSAII (Michael W. Deem and Ramdas Pophale) SiO2 
 PCOD9514857
Probable space group: F D D D
;
_chemical_formula_sum "Si O2"
_cell_formula_units_Z 240
_cell_length_a 22.119999
_cell_length_b 28.727569
_cell_length_c 20.426133
_cell_angle_alpha 90.000000
_cell_angle_beta 90.000000
_cell_angle_gamma 90.000000
_cell_volume 12979.863784
_symmetry_space_group_name_H-M "F D D D"
_symmetry_group_IT_number 70
_space_group.IT_coordinate_system_code '2'
_symmetry_cell_setting 'orthorhombic'
loop_
_space_group_symop_operation_xyz
x,y,z
1/4-x,1/4-y,z
x,1/4-y,1/4-z
1/4-x,y,1/4-z
-x,-y,-z
3/4+x,3/4+y,-z
-x,3/4+y,3/4+z
3/4+x,-y,3/4+z
x,1/2+y,1/2+z
1/4-x,3/4-y,1/2+z
x,3/4-y,3/4-z
1/4-x,1/2+y,3/4-z
-x,1/2-y,1/2-z
3/4+x,1/4+y,1/2-z
-x,1/4+y,1/4+z
3/4+x,1/2-y,1/4+z
1/2+x,y,1/2+z
3/4-x,1/4-y,1/2+z
1/2+x,1/4-y,3/4-z
3/4-x,y,3/4-z
1/2-x,-y,1/2-z
1/4+x,3/4+y,1/2-z
1/2-x,3/4+y,1/4+z
1/4+x,-y,1/4+z
1/2+x,1/2+y,z
3/4-x,3/4-y,z
1/2+x,3/4-y,1/4-z
3/4-x,1/2+y,1/4-z
1/2-x,1/2-y,-z
1/4+x,1/4+y,-z
1/2-x,1/4+y,3/4+z
1/4+x,1/2-y,3/4+z
loop_
_atom_site_type_symbol
_atom_site_label
_atom_site_fract_x
_atom_site_fract_y
_atom_site_fract_z
Si Si1 0.500636 0.976207 0.823064
Si Si2 0.583396 0.044378 0.294366
Si Si3 0.862902 0.703633 0.122386
Si Si4 0.939539 0.491160 0.957966
Si Si5 0.592914 0.880863 0.473546
Si Si6 0.076217 0.403714 0.070064
Si Si7 0.625000 0.125000 0.860628
Si Si8 0.993196 0.836394 0.067210
O O1 0.500145 0.031409 0.807755
O O2 0.471981 0.953584 0.757580
O O3 0.567581 0.962793 0.849553
O O4 0.457122 0.971282 0.886907
O O5 0.642852 0.039295 0.248582
O O6 0.593018 0.087353 0.342554
O O7 0.585363 0.998618 0.341631
O O8 0.831152 0.680667 0.059015
O O9 0.855759 0.660977 0.172956
O O10 0.911657 0.542862 0.950354
O O11 0.000000 0.500000 0.000000
O O12 0.656461 0.881020 0.512932
O O13 0.537708 0.864030 0.519010
O O14 0.125000 0.392429 0.125000
O O15 0.013479 0.403770 0.107507
O O16 0.674363 0.149109 0.814744
#
# Coordination Sequence:
#
# PCOD9514857 Si02
#       8
#    32  32  32  32  32  32  16  32
#     4  11  21  37  61  82 123 166 199 247 304 357
#     4  12  22  39  55  87 124 160 201 250 298 369
#     4  11  21  36  59  91 112 152 200 255 303 345
#     4  11  17  32  55  77 114 162 203 230 288 365
#     4  10  20  36  60  90 116 147 211 257 291 348
#     4   9  16  30  55  82 107 143 194 241 285 349
#     4  12  26  38  59  89 126 164 200 238 320 372
#     4  10  20  38  60  86 117 163 199 248 302 373
#
# _framework density 18.490179000000001
#
# number of rings (size 3 to 8) (size 9 to 14) (size 15 to 20)
#    0.000    1.333    5.333    2.800    1.867    0.000 
#    2.400    1.333    0.000    1.600    0.000    0.000 
#    0.000    0.000    0.000    0.000    0.000    0.000 
#
# Total GULP energy -334288.971701 kJ/mol
# GULP energy per Si atom -5571.482862 kJ/mol
# Density = 1.844809 g / cm^3
# Si number density = 18.490179 Si / 1000 Ang^3
#
#
#
# Elastic Constant Matrix: (Units=GPa)
#
#
# Indices 1 2 3 4 5 6 
#
# 1 62.3172 7.7263 15.4904 0.0000 0.0000 0.0000
# 2 7.7263 60.5752 31.1322 0.0000 0.0000 0.0000
# 3 15.4904 31.1322 71.2338 0.0000 0.0000 0.0000
# 4 0.0000 0.0000 0.0000 19.9862 0.0000 0.0000
# 5 0.0000 0.0000 0.0000 0.0000 25.8425 0.0000
# 6 0.0000 0.0000 0.0000 0.0000 0.0000 24.4457
#
#
#
# Elastic Compliance Matrix: (Units=1/GPa)
#
#
# Indices 1 2 3 4 5 6 
#
# 1 0.016970 -0.000346 -0.003539 0.000000 0.000000 0.000000
# 2 -0.000346 0.021298 -0.009233 0.000000 0.000000 0.000000
# 3 -0.003539 -0.009233 0.018843 0.000000 0.000000 0.000000
# 4 0.000000 0.000000 0.000000 0.050034 0.000000 0.000000
# 5 0.000000 0.000000 0.000000 0.000000 0.038696 0.000000
# 6 0.000000 0.000000 0.000000 0.000000 0.000000 0.040907
#
#
# Mechanical properties :
#
#
# Convention : Reuss Voigt Hill
#
# Bulk Modulus (GPa) = 32.38847 33.64709 33.01778
# Shear Modulus (GPa) = 22.39399 23.37339 22.88369
#
# Velocity S-wave (km/s) = 3.48390 3.55927 3.52179
# Velocity P-wave (km/s) = 5.80845 5.92689 5.86797
#
# Compressibility (1/GPa) = 0.03087518
#
# Stress axis : x y z
#
# Youngs Moduli (GPa) = 58.92920 46.95355 53.06993
#
# Poissons Ratio (x) = 0.01622 0.18782
# Poissons Ratio (y) = 0.02036 0.48999
# Poissons Ratio (z) = 0.20856 0.43352
#
# Static dielectric constant tensor:
#      x y z
#    x 1.670380 0.000000 0.000000 
#    y 0.000000 1.625580 0.000000 
#    z 0.000000 0.000000 1.708730 
# 
# From -- ./inp_files/45183.got.cif
#   From: 2010.05.17/outbox.cif.g08.bks.cpg/sg70_23_cif.got.tgz:45183.got - 2010.06.03 15:57:51.
