data_PCOD9514910
_publ_section_title
;
Structure prediction by ZEFSAII (Michael W. Deem and Ramdas Pophale) SiO2 
 PCOD9514910
Probable space group: F D D D
;
_chemical_formula_sum "Si O2"
_cell_formula_units_Z 176
_cell_length_a 15.585653
_cell_length_b 27.731958
_cell_length_c 16.760008
_cell_angle_alpha 90.000000
_cell_angle_beta 90.000000
_cell_angle_gamma 90.000000
_cell_volume 7244.021961
_symmetry_space_group_name_H-M "F D D D"
_symmetry_group_IT_number 70
_space_group.IT_coordinate_system_code '2'
_symmetry_cell_setting 'orthorhombic'
loop_
_space_group_symop_operation_xyz
x,y,z
1/4-x,1/4-y,z
x,1/4-y,1/4-z
1/4-x,y,1/4-z
-x,-y,-z
3/4+x,3/4+y,-z
-x,3/4+y,3/4+z
3/4+x,-y,3/4+z
x,1/2+y,1/2+z
1/4-x,3/4-y,1/2+z
x,3/4-y,3/4-z
1/4-x,1/2+y,3/4-z
-x,1/2-y,1/2-z
3/4+x,1/4+y,1/2-z
-x,1/4+y,1/4+z
3/4+x,1/2-y,1/4+z
1/2+x,y,1/2+z
3/4-x,1/4-y,1/2+z
1/2+x,1/4-y,3/4-z
3/4-x,y,3/4-z
1/2-x,-y,1/2-z
1/4+x,3/4+y,1/2-z
1/2-x,3/4+y,1/4+z
1/4+x,-y,1/4+z
1/2+x,1/2+y,z
3/4-x,3/4-y,z
1/2+x,3/4-y,1/4-z
3/4-x,1/2+y,1/4-z
1/2-x,1/2-y,-z
1/4+x,1/4+y,-z
1/2-x,1/4+y,3/4+z
1/4+x,1/2-y,3/4+z
loop_
_atom_site_type_symbol
_atom_site_label
_atom_site_fract_x
_atom_site_fract_y
_atom_site_fract_z
Si Si1 0.748327 0.868796 0.780387
Si Si2 0.814658 0.521394 0.637851
Si Si3 0.375000 0.523862 0.875000
Si Si4 0.062267 0.310080 0.696042
Si Si5 0.861615 0.454969 0.236842
Si Si6 0.554549 0.344727 0.499594
O O1 0.765161 0.875000 0.875000
O O2 0.798989 0.910173 0.732724
O O3 0.794216 0.818952 0.754457
O O4 0.649796 0.883040 0.766037
O O5 0.851295 0.540374 0.721107
O O6 0.739710 0.484668 0.660741
O O7 0.881052 0.489943 0.587793
O O8 0.783178 0.564824 0.580147
O O9 0.333641 0.488252 0.810625
O O10 0.313320 0.557411 0.927877
O O11 0.125000 0.325635 0.625000
O O12 0.006160 0.356789 0.722636
#
# Coordination Sequence:
#
# PCOD9514910 Si02
#       6
#    32  32  16  32  32  32
#     4  11  20  37  65  93 136 168 204 259 330 397
#     4  10  24  40  65  94 127 166 226 268 320 396
#     4  10  20  37  56  92 130 162 205 252 314 392
#     4  11  22  45  66  90 125 172 217 279 326 373
#     4  10  20  39  57  95 135 170 198 263 322 393
#     4  11  23  40  65  98 125 174 218 264 326 395
#
# _framework density 24.295894000000001
#
# number of rings (size 3 to 8) (size 9 to 14) (size 15 to 20)
#    0.000    1.455    2.727    3.273    0.000    2.909 
#    9.818    0.000    0.000    7.636    0.000    0.000 
#    0.000    0.000    0.000    0.000    0.000    0.000 
#
# Total GULP energy -245999.202757 kJ/mol
# GULP energy per Si atom -5590.890972 kJ/mol
# Density = 2.424060 g / cm^3
# Si number density = 24.295894 Si / 1000 Ang^3
#
#
#
# Elastic Constant Matrix: (Units=GPa)
#
#
# Indices 1 2 3 4 5 6 
#
# 1 32.2714 28.1345 10.0096 0.0000 0.0000 0.0000
# 2 28.1345 165.4262 70.7697 0.0000 0.0000 0.0000
# 3 10.0096 70.7697 191.8447 0.0000 0.0000 0.0000
# 4 0.0000 0.0000 0.0000 45.9109 0.0000 0.0000
# 5 0.0000 0.0000 0.0000 0.0000 18.4379 0.0000
# 6 0.0000 0.0000 0.0000 0.0000 0.0000 22.6177
#
#
#
# Elastic Compliance Matrix: (Units=1/GPa)
#
#
# Indices 1 2 3 4 5 6 
#
# 1 0.036415 -0.006389 0.000457 0.000000 0.000000 0.000000
# 2 -0.006389 0.008299 -0.002728 0.000000 0.000000 0.000000
# 3 0.000457 -0.002728 0.006195 0.000000 0.000000 0.000000
# 4 0.000000 0.000000 0.000000 0.021781 0.000000 0.000000
# 5 0.000000 0.000000 0.000000 0.000000 0.054236 0.000000
# 6 0.000000 0.000000 0.000000 0.000000 0.000000 0.044213
#
#
# Mechanical properties :
#
#
# Convention : Reuss Voigt Hill
#
# Bulk Modulus (GPa) = 29.77155 67.48556 48.62856
# Shear Modulus (GPa) = 25.04316 36.10187 30.57252
#
# Velocity S-wave (km/s) = 3.21402 3.85895 3.55116
# Velocity P-wave (km/s) = 5.10427 6.90595 6.07230
#
# Compressibility (1/GPa) = 0.03358911
#
# Stress axis : x y z
#
# Youngs Moduli (GPa) = 27.46104 120.50311 161.41986
#
# Poissons Ratio (x) = 0.76985 -0.07372
# Poissons Ratio (y) = 0.17544 0.44034
# Poissons Ratio (z) = -0.01254 0.32872
#
# Static dielectric constant tensor:
#      x y z
#    x 2.048860 0.000000 0.000000 
#    y 0.000000 1.968530 0.000000 
#    z 0.000000 0.000000 1.936260 
# 
# From -- ./inp_files/35255.got.cif
#   From: 2010.05.17/outbox.cif.g08.bks.cpg/sg70_18_cif.got.tgz:35255.got - 2010.06.03 15:57:51.
