data_PCOD9514680
_publ_section_title
;
Structure prediction by ZEFSAII (Michael W. Deem and Ramdas Pophale) SiO2 
 PCOD9514680
Probable space group: F D D D
;
_chemical_formula_sum "Si O2"
_cell_formula_units_Z 112
_cell_length_a 26.421745
_cell_length_b 8.670309
_cell_length_c 23.083813
_cell_angle_alpha 90.000000
_cell_angle_beta 90.000000
_cell_angle_gamma 90.000000
_cell_volume 5288.148225
_symmetry_space_group_name_H-M "F D D D"
_symmetry_group_IT_number 70
_space_group.IT_coordinate_system_code '2'
_symmetry_cell_setting 'orthorhombic'
loop_
_space_group_symop_operation_xyz
x,y,z
1/4-x,1/4-y,z
x,1/4-y,1/4-z
1/4-x,y,1/4-z
-x,-y,-z
3/4+x,3/4+y,-z
-x,3/4+y,3/4+z
3/4+x,-y,3/4+z
x,1/2+y,1/2+z
1/4-x,3/4-y,1/2+z
x,3/4-y,3/4-z
1/4-x,1/2+y,3/4-z
-x,1/2-y,1/2-z
3/4+x,1/4+y,1/2-z
-x,1/4+y,1/4+z
3/4+x,1/2-y,1/4+z
1/2+x,y,1/2+z
3/4-x,1/4-y,1/2+z
1/2+x,1/4-y,3/4-z
3/4-x,y,3/4-z
1/2-x,-y,1/2-z
1/4+x,3/4+y,1/2-z
1/2-x,3/4+y,1/4+z
1/4+x,-y,1/4+z
1/2+x,1/2+y,z
3/4-x,3/4-y,z
1/2+x,3/4-y,1/4-z
3/4-x,1/2+y,1/4-z
1/2-x,1/2-y,-z
1/4+x,1/4+y,-z
1/2-x,1/4+y,3/4+z
1/4+x,1/2-y,3/4+z
loop_
_atom_site_type_symbol
_atom_site_label
_atom_site_fract_x
_atom_site_fract_y
_atom_site_fract_z
Si Si1 0.050417 0.446946 0.468150
Si Si2 0.066316 0.608899 0.349068
Si Si3 0.846575 0.034106 0.432892
Si Si4 0.002819 0.125000 0.625000
O O1 0.064680 0.564137 0.417159
O O2 0.043027 0.282616 0.436332
O O3 0.092301 0.408931 0.516858
O O4 0.000000 0.500000 0.500000
O O5 0.125000 0.625000 0.333465
O O6 0.033774 0.761752 0.339754
O O7 0.875000 0.090426 0.375000
O O8 0.875000 0.875000 0.449929
O O9 0.790476 0.978822 0.413736
#
# Coordination Sequence:
#
# PCOD9514680 Si02
#       4
#    32  32  32  16
#     4  11  22  43  64  95 131 171 217 282 325 393
#     4  11  24  41  65  94 137 171 223 269 341 399
#     4   9  20  39  66  93 129 166 224 261 324 390
#     4  10  19  40  64  94 122 176 217 262 326 396
#
# _framework density 21.179437
#
# number of rings (size 3 to 8) (size 9 to 14) (size 15 to 20)
#    0.000    2.000    2.857    2.571    0.000    1.143 
#   10.286    0.000    0.000    0.000    0.000    0.000 
#    0.000    0.000    0.000    0.000    0.000    0.000 
#
# Total GULP energy -156389.449416 kJ/mol
# GULP energy per Si atom -5585.337479 kJ/mol
# Density = 2.113123 g / cm^3
# Si number density = 21.179437 Si / 1000 Ang^3
#
#
#
# Elastic Constant Matrix: (Units=GPa)
#
#
# Indices 1 2 3 4 5 6 
#
# 1 120.3174 36.7621 27.8813 0.0000 0.0000 0.0000
# 2 36.7621 48.0548 18.8847 0.0000 0.0000 0.0000
# 3 27.8813 18.8847 131.9801 0.0000 0.0000 0.0000
# 4 0.0000 0.0000 0.0000 19.9803 0.0000 0.0000
# 5 0.0000 0.0000 0.0000 0.0000 21.0543 0.0000
# 6 0.0000 0.0000 0.0000 0.0000 0.0000 29.4100
#
#
#
# Elastic Compliance Matrix: (Units=1/GPa)
#
#
# Indices 1 2 3 4 5 6 
#
# 1 0.011020 -0.007963 -0.001189 0.000000 0.000000 0.000000
# 2 -0.007963 0.027804 -0.002296 0.000000 0.000000 0.000000
# 3 -0.001189 -0.002296 0.008157 0.000000 0.000000 0.000000
# 4 0.000000 0.000000 0.000000 0.050049 0.000000 0.000000
# 5 0.000000 0.000000 0.000000 0.000000 0.047496 0.000000
# 6 0.000000 0.000000 0.000000 0.000000 0.000000 0.034002
#
#
# Mechanical properties :
#
#
# Convention : Reuss Voigt Hill
#
# Bulk Modulus (GPa) = 41.52052 51.93428 46.72740
# Shear Modulus (GPa) = 23.87189 28.54387 26.20788
#
# Velocity S-wave (km/s) = 3.36091 3.67511 3.52152
# Velocity P-wave (km/s) = 5.89132 6.52556 6.21653
#
# Compressibility (1/GPa) = 0.02408448
#
# Stress axis : x y z
#
# Youngs Moduli (GPa) = 90.74536 35.96641 122.60107
#
# Poissons Ratio (x) = 0.28641 0.14572
# Poissons Ratio (y) = 0.72262 0.28151
# Poissons Ratio (z) = 0.10786 0.08258
#
# Static dielectric constant tensor:
#      x y z
#    x 1.751010 0.000000 0.000000 
#    y 0.000000 1.736040 0.000000 
#    z 0.000000 0.000000 1.809140 
# 
# From -- ./inp_files/54041.got.cif
#   From: 2010.05.17/outbox.cif.g08.bks.cpg/sg70_28_cif.got.tgz:54041.got - 2010.06.03 15:57:51.
