data_PCOD9514235
_publ_section_title
;
Structure prediction by ZEFSAII (Michael W. Deem and Ramdas Pophale) SiO2 
 PCOD9514235
Probable space group: F D D D
;
_chemical_formula_sum "Si O2"
_cell_formula_units_Z 240
_cell_length_a 17.653728
_cell_length_b 23.466365
_cell_length_c 27.071697
_cell_angle_alpha 90.000000
_cell_angle_beta 90.000000
_cell_angle_gamma 90.000000
_cell_volume 11214.960103
_symmetry_space_group_name_H-M "F D D D"
_symmetry_group_IT_number 70
_space_group.IT_coordinate_system_code '2'
_symmetry_cell_setting 'orthorhombic'
loop_
_space_group_symop_operation_xyz
x,y,z
1/4-x,1/4-y,z
x,1/4-y,1/4-z
1/4-x,y,1/4-z
-x,-y,-z
3/4+x,3/4+y,-z
-x,3/4+y,3/4+z
3/4+x,-y,3/4+z
x,1/2+y,1/2+z
1/4-x,3/4-y,1/2+z
x,3/4-y,3/4-z
1/4-x,1/2+y,3/4-z
-x,1/2-y,1/2-z
3/4+x,1/4+y,1/2-z
-x,1/4+y,1/4+z
3/4+x,1/2-y,1/4+z
1/2+x,y,1/2+z
3/4-x,1/4-y,1/2+z
1/2+x,1/4-y,3/4-z
3/4-x,y,3/4-z
1/2-x,-y,1/2-z
1/4+x,3/4+y,1/2-z
1/2-x,3/4+y,1/4+z
1/4+x,-y,1/4+z
1/2+x,1/2+y,z
3/4-x,3/4-y,z
1/2+x,3/4-y,1/4-z
3/4-x,1/2+y,1/4-z
1/2-x,1/2-y,-z
1/4+x,1/4+y,-z
1/2-x,1/4+y,3/4+z
1/4+x,1/2-y,3/4+z
loop_
_atom_site_type_symbol
_atom_site_label
_atom_site_fract_x
_atom_site_fract_y
_atom_site_fract_z
Si Si1 0.612409 0.973418 0.519849
Si Si2 0.970793 0.075345 0.325883
Si Si3 0.754042 0.164398 0.666367
Si Si4 0.579324 0.070161 0.019273
Si Si5 0.282929 0.838803 0.501525
Si Si6 0.468187 0.758005 0.009962
Si Si7 0.625000 0.505099 0.125000
Si Si8 0.547682 0.444330 0.561092
O O1 0.552597 0.934223 0.492990
O O2 0.590752 0.036425 0.499188
O O3 0.701246 0.963441 0.519369
O O4 0.594708 0.971162 0.578126
O O5 0.024682 0.122007 0.299810
O O6 0.980314 0.017159 0.294847
O O7 0.984128 0.067182 0.383909
O O8 0.880904 0.085247 0.313987
O O9 0.792240 0.125000 0.625000
O O10 0.705537 0.125992 0.703322
O O11 0.799086 0.205102 0.703515
O O12 0.694787 0.205909 0.640487
O O13 0.625000 0.125000 0.042986
O O14 0.505770 0.077712 0.983763
O O15 0.647525 0.048421 0.984749
O O16 0.560258 0.013312 0.052364
#
# Coordination Sequence:
#
# PCOD9514235 Si02
#       8
#    32  32  32  32  32  32  16  32
#     4  10  21  36  51  87 126 158 202 259 285 385
#     4   9  19  39  63  86 119 166 196 253 327 375
#     4  10  18  33  57  79 109 162 203 239 290 372
#     4  10  21  41  66  92 118 165 211 273 332 373
#     4  10  21  34  54  83 123 164 199 245 312 360
#     4   9  21  37  57  84 122 150 204 262 309 365
#     4  10  19  32  60  76 108 158 216 222 285 368
#     4   9  20  41  65  89 124 155 218 267 307 404
#
# _framework density 21.399986999999999
#
# number of rings (size 3 to 8) (size 9 to 14) (size 15 to 20)
#    0.000    2.400    1.333    0.200    3.733    2.667 
#    7.200    5.333    0.000    0.000    0.000    0.000 
#    0.000    0.000    0.000    0.000    0.000    0.000 
#
# Total GULP energy -334009.875698 kJ/mol
# GULP energy per Si atom -5566.831262 kJ/mol
# Density = 2.135128 g / cm^3
# Si number density = 21.399987 Si / 1000 Ang^3
#
#
#
# Elastic Constant Matrix: (Units=GPa)
#
#
# Indices 1 2 3 4 5 6 
#
# 1 70.3985 14.0264 11.6948 0.0000 0.0000 0.0000
# 2 14.0264 65.5633 6.9572 0.0000 0.0000 0.0000
# 3 11.6948 6.9572 81.3488 0.0000 0.0000 0.0000
# 4 0.0000 0.0000 0.0000 50.1807 0.0000 0.0000
# 5 0.0000 0.0000 0.0000 0.0000 19.6824 0.0000
# 6 0.0000 0.0000 0.0000 0.0000 0.0000 21.3744
#
#
#
# Elastic Compliance Matrix: (Units=1/GPa)
#
#
# Indices 1 2 3 4 5 6 
#
# 1 0.015127 -0.003033 -0.001915 0.000000 0.000000 0.000000
# 2 -0.003033 0.016000 -0.000932 0.000000 0.000000 0.000000
# 3 -0.001915 -0.000932 0.012648 0.000000 0.000000 0.000000
# 4 0.000000 0.000000 0.000000 0.019928 0.000000 0.000000
# 5 0.000000 0.000000 0.000000 0.000000 0.050807 0.000000
# 6 0.000000 0.000000 0.000000 0.000000 0.000000 0.046785
#
#
# Mechanical properties :
#
#
# Convention : Reuss Voigt Hill
#
# Bulk Modulus (GPa) = 31.23637 31.40748 31.32192
# Shear Modulus (GPa) = 27.21415 30.55632 28.88524
#
# Velocity S-wave (km/s) = 3.56995 3.78281 3.67792
# Velocity P-wave (km/s) = 5.62324 5.81273 5.71877
#
# Compressibility (1/GPa) = 0.03201397
#
# Stress axis : x y z
#
# Youngs Moduli (GPa) = 66.10549 62.49898 79.06492
#
# Poissons Ratio (x) = 0.18956 0.15143
# Poissons Ratio (y) = 0.20050 0.07372
# Poissons Ratio (z) = 0.12661 0.05827
#
# Static dielectric constant tensor:
#      x y z
#    x 1.812110 0.000000 0.000000 
#    y 0.000000 1.917000 0.000000 
#    z 0.000000 0.000000 1.804210 
# 
# From -- ./inp_files/59811.got.cif
#   From: 2010.05.17/outbox.cif.g08.bks.cpg/sg70_30_cif.got.tgz:59811.got - 2010.06.03 15:57:51.
