data_PCOD9514310
_publ_section_title
;
Structure prediction by ZEFSAII (Michael W. Deem and Ramdas Pophale) SiO2 
 PCOD9514310
Probable space group: F D D D
;
_chemical_formula_sum "Si O2"
_cell_formula_units_Z 208
_cell_length_a 20.625814
_cell_length_b 18.266686
_cell_length_c 25.188697
_cell_angle_alpha 90.000000
_cell_angle_beta 90.000000
_cell_angle_gamma 90.000000
_cell_volume 9490.226172
_symmetry_space_group_name_H-M "F D D D"
_symmetry_group_IT_number 70
_space_group.IT_coordinate_system_code '2'
_symmetry_cell_setting 'orthorhombic'
loop_
_space_group_symop_operation_xyz
x,y,z
1/4-x,1/4-y,z
x,1/4-y,1/4-z
1/4-x,y,1/4-z
-x,-y,-z
3/4+x,3/4+y,-z
-x,3/4+y,3/4+z
3/4+x,-y,3/4+z
x,1/2+y,1/2+z
1/4-x,3/4-y,1/2+z
x,3/4-y,3/4-z
1/4-x,1/2+y,3/4-z
-x,1/2-y,1/2-z
3/4+x,1/4+y,1/2-z
-x,1/4+y,1/4+z
3/4+x,1/2-y,1/4+z
1/2+x,y,1/2+z
3/4-x,1/4-y,1/2+z
1/2+x,1/4-y,3/4-z
3/4-x,y,3/4-z
1/2-x,-y,1/2-z
1/4+x,3/4+y,1/2-z
1/2-x,3/4+y,1/4+z
1/4+x,-y,1/4+z
1/2+x,1/2+y,z
3/4-x,3/4-y,z
1/2+x,3/4-y,1/4-z
3/4-x,1/2+y,1/4-z
1/2-x,1/2-y,-z
1/4+x,1/4+y,-z
1/2-x,1/4+y,3/4+z
1/4+x,1/2-y,3/4+z
loop_
_atom_site_type_symbol
_atom_site_label
_atom_site_fract_x
_atom_site_fract_y
_atom_site_fract_z
Si Si1 0.504330 0.622028 0.003913
Si Si2 0.135311 0.708577 0.237393
Si Si3 0.468963 0.733876 0.547316
Si Si4 0.251819 0.755430 0.414378
Si Si5 0.357357 0.640807 0.985301
Si Si6 0.871534 0.961253 0.134832
Si Si7 0.125000 0.810006 0.625000
O O1 0.523376 0.578279 0.055836
O O2 0.428629 0.642705 0.011921
O O3 0.545181 0.692837 0.987590
O O4 0.505026 0.561127 0.957127
O O5 0.125000 0.625000 0.221467
O O6 0.203915 0.726688 0.209175
O O7 0.086670 0.775492 0.224607
O O8 0.130347 0.710292 0.301773
O O9 0.436999 0.662361 0.520527
O O10 0.440827 0.752672 0.605699
O O11 0.182287 0.756668 0.387499
O O12 0.308941 0.734903 0.375252
O O13 0.370011 0.606713 0.928024
O O14 0.875000 0.875000 0.119037
#
# Coordination Sequence:
#
# PCOD9514310 Si02
#       7
#    32  32  32  32  32  32  16
#     4   9  19  34  59  92 136 171 218 270 326 422
#     4  10  25  45  67  99 131 175 242 299 345 427
#     4  11  21  40  66  98 136 182 222 286 358 415
#     4  10  18  36  57  95 134 176 226 268 332 423
#     4  10  21  41  63  91 132 174 223 286 356 410
#     4  11  21  38  69 101 136 184 232 278 356 432
#     4  10  22  36  62  90 134 186 214 276 349 410
#
# _framework density 21.917286000000001
#
# number of rings (size 3 to 8) (size 9 to 14) (size 15 to 20)
#    0.000    1.846    3.077    0.923    0.000    1.231 
#    0.000    3.462   10.154    0.000    0.000    0.000 
#    0.000    0.000    0.000    0.000    0.000    0.000 
#
# Total GULP energy -289953.857369 kJ/mol
# GULP energy per Si atom -5576.035719 kJ/mol
# Density = 2.186740 g / cm^3
# Si number density = 21.917286 Si / 1000 Ang^3
#
#
#
# Elastic Constant Matrix: (Units=GPa)
#
#
# Indices 1 2 3 4 5 6 
#
# 1 55.5896 27.3444 26.8360 0.0000 0.0000 0.0000
# 2 27.3444 86.1088 3.2744 0.0000 0.0000 0.0000
# 3 26.8360 3.2744 42.3262 0.0000 0.0000 0.0000
# 4 0.0000 0.0000 0.0000 56.6481 0.0000 0.0000
# 5 0.0000 0.0000 0.0000 0.0000 29.3738 0.0000
# 6 0.0000 0.0000 0.0000 0.0000 0.0000 28.1775
#
#
#
# Elastic Compliance Matrix: (Units=1/GPa)
#
#
# Indices 1 2 3 4 5 6 
#
# 1 0.032115 -0.009452 -0.019631 0.000000 0.000000 0.000000
# 2 -0.009452 0.014429 0.004876 0.000000 0.000000 0.000000
# 3 -0.019631 0.004876 0.035695 0.000000 0.000000 0.000000
# 4 0.000000 0.000000 0.000000 0.017653 0.000000 0.000000
# 5 0.000000 0.000000 0.000000 0.000000 0.034044 0.000000
# 6 0.000000 0.000000 0.000000 0.000000 0.000000 0.035489
#
#
# Mechanical properties :
#
#
# Convention : Reuss Voigt Hill
#
# Bulk Modulus (GPa) = 29.56178 33.21490 31.38834
# Shear Modulus (GPa) = 21.82325 31.27787 26.55056
#
# Velocity S-wave (km/s) = 3.15891 3.78178 3.48429
# Velocity P-wave (km/s) = 5.17901 5.85292 5.52625
#
# Compressibility (1/GPa) = 0.03382746
#
# Stress axis : x y z
#
# Youngs Moduli (GPa) = 31.13808 69.30362 28.01500
#
# Poissons Ratio (x) = 0.65505 0.54995
# Poissons Ratio (y) = 0.29431 -0.13661
# Poissons Ratio (z) = 0.61126 -0.33796
#
# Static dielectric constant tensor:
#      x y z
#    x 1.687050 0.000000 0.000000 
#    y 0.000000 1.894790 0.000000 
#    z 0.000000 0.000000 1.782170 
# 
# From -- ./inp_files/61276.got.cif
#   From: 2010.05.17/outbox.cif.g08.bks.cpg/sg70_31_cif.got.tgz:61276.got - 2010.06.03 15:57:51.
