data_PCOD9514125
_publ_section_title
;
Structure prediction by ZEFSAII (Michael W. Deem and Ramdas Pophale) SiO2 
 PCOD9514125
Probable space group: F D D D
;
_chemical_formula_sum "Si O2"
_cell_formula_units_Z 160
_cell_length_a 28.019368
_cell_length_b 6.872652
_cell_length_c 31.473596
_cell_angle_alpha 90.000000
_cell_angle_beta 90.000000
_cell_angle_gamma 90.000000
_cell_volume 6060.787465
_symmetry_space_group_name_H-M "F D D D"
_symmetry_group_IT_number 70
_space_group.IT_coordinate_system_code '2'
_symmetry_cell_setting 'orthorhombic'
loop_
_space_group_symop_operation_xyz
x,y,z
1/4-x,1/4-y,z
x,1/4-y,1/4-z
1/4-x,y,1/4-z
-x,-y,-z
3/4+x,3/4+y,-z
-x,3/4+y,3/4+z
3/4+x,-y,3/4+z
x,1/2+y,1/2+z
1/4-x,3/4-y,1/2+z
x,3/4-y,3/4-z
1/4-x,1/2+y,3/4-z
-x,1/2-y,1/2-z
3/4+x,1/4+y,1/2-z
-x,1/4+y,1/4+z
3/4+x,1/2-y,1/4+z
1/2+x,y,1/2+z
3/4-x,1/4-y,1/2+z
1/2+x,1/4-y,3/4-z
3/4-x,y,3/4-z
1/2-x,-y,1/2-z
1/4+x,3/4+y,1/2-z
1/2-x,3/4+y,1/4+z
1/4+x,-y,1/4+z
1/2+x,1/2+y,z
3/4-x,3/4-y,z
1/2+x,3/4-y,1/4-z
3/4-x,1/2+y,1/4-z
1/2-x,1/2-y,-z
1/4+x,1/4+y,-z
1/2-x,1/4+y,3/4+z
1/4+x,1/2-y,3/4+z
loop_
_atom_site_type_symbol
_atom_site_label
_atom_site_fract_x
_atom_site_fract_y
_atom_site_fract_z
Si Si1 0.028244 0.790193 0.998621
Si Si2 0.775916 0.602263 0.338357
Si Si3 0.365705 0.646584 0.245835
Si Si4 0.175646 0.727307 0.837748
Si Si5 0.797268 0.165715 0.316975
O O1 0.031704 0.749076 0.049260
O O2 0.083518 0.803345 0.984973
O O3 0.997426 0.665638 0.965823
O O4 0.000000 0.000000 0.000000
O O5 0.718444 0.572718 0.338171
O O6 0.802002 0.400777 0.326483
O O7 0.790148 0.662623 0.385682
O O8 0.329819 0.652336 0.206030
O O9 0.341610 0.588274 0.289801
O O10 0.375000 0.875000 0.251300
O O11 0.125000 0.625000 0.844560
O O12 0.186064 0.875000 0.875000
#
# Coordination Sequence:
#
# PCOD9514125 Si02
#       5
#    32  32  32  32  32
#     4  10  17  31  50  81 121 158 193 253 310 352
#     4  10  20  34  56  81 121 158 200 246 308 365
#     4  11  18  33  57  85 123 155 205 259 305 357
#     4  11  24  38  59  90 121 159 203 253 314 374
#     4  10  19  33  56  88 117 160 202 253 306 357
#
# _framework density 26.399211000000001
#
# number of rings (size 3 to 8) (size 9 to 14) (size 15 to 20)
#    0.000    1.600    6.000    3.600    5.600    0.800 
#    0.000    1.000    0.000    0.000    0.000    1.400 
#    0.000    0.000    0.000    0.000    0.000    0.000 
#
# Total GULP energy -223835.221704 kJ/mol
# GULP energy per Si atom -5595.880543 kJ/mol
# Density = 2.633913 g / cm^3
# Si number density = 26.399211 Si / 1000 Ang^3
#
#
#
# Elastic Constant Matrix: (Units=GPa)
#
#
# Indices 1 2 3 4 5 6 
#
# 1 100.3303 16.4824 24.1498 0.0003 -0.0002 0.0010
# 2 16.4824 87.5582 26.1242 0.0021 0.0012 0.0098
# 3 24.1498 26.1242 242.0803 0.0003 0.0000 0.0000
# 4 0.0003 0.0021 0.0003 34.0814 0.0001 0.0007
# 5 -0.0002 0.0012 0.0000 0.0001 39.7118 0.0001
# 6 0.0010 0.0098 0.0000 0.0007 0.0001 33.8025
#
#
#
# Elastic Compliance Matrix: (Units=1/GPa)
#
#
# Indices 1 2 3 4 5 6 
#
# 1 0.010455 -0.001712 -0.000858 0.000000 0.000000 0.000000
# 2 -0.001712 0.012081 -0.001133 -0.000001 0.000000 -0.000003
# 3 -0.000858 -0.001133 0.004339 0.000000 0.000000 0.000000
# 4 0.000000 -0.000001 0.000000 0.029342 0.000000 -0.000001
# 5 0.000000 0.000000 0.000000 0.000000 0.025181 0.000000
# 6 0.000000 -0.000003 0.000000 -0.000001 0.000000 0.029584
#
#
# Mechanical properties :
#
#
# Convention : Reuss Voigt Hill
#
# Bulk Modulus (GPa) = 51.36499 62.60908 56.98704
# Shear Modulus (GPa) = 40.03926 45.73330 42.88628
#
# Velocity S-wave (km/s) = 3.89869 4.16669 4.03492
# Velocity P-wave (km/s) = 6.30600 6.84954 6.58338
#
# Compressibility (1/GPa) = 0.01946851
#
# Stress axis : x y z
#
# Youngs Moduli (GPa) = 95.64889 82.77264 230.48157
#
# Poissons Ratio (x) = 0.14171 0.19780
# Poissons Ratio (y) = 0.16375 0.26113
# Poissons Ratio (z) = 0.08209 0.09378
#
# Static dielectric constant tensor:
#      x y z
#    x 2.043090 0.000000 0.000000 
#    y 0.000000 2.194790 0.000000 
#    z 0.000000 0.000000 2.098810 
# 
# From -- ./inp_files/68306.got.cif
#   From: 2010.05.17/outbox.cif.g08.bks.cpg/sg70_35_cif.got.tgz:68306.got - 2010.06.03 15:57:51.
