data_PCOD9514834
_publ_section_title
;
Structure prediction by ZEFSAII (Michael W. Deem and Ramdas Pophale) SiO2 
 PCOD9514834
Probable space group: F D D D
;
_chemical_formula_sum "Si O2"
_cell_formula_units_Z 184
_cell_length_a 13.792196
_cell_length_b 19.392578
_cell_length_c 26.133719
_cell_angle_alpha 90.000000
_cell_angle_beta 90.000000
_cell_angle_gamma 90.000000
_cell_volume 6989.887472
_symmetry_space_group_name_H-M "F D D D"
_symmetry_group_IT_number 70
_space_group.IT_coordinate_system_code '2'
_symmetry_cell_setting 'orthorhombic'
loop_
_space_group_symop_operation_xyz
x,y,z
1/4-x,1/4-y,z
x,1/4-y,1/4-z
1/4-x,y,1/4-z
-x,-y,-z
3/4+x,3/4+y,-z
-x,3/4+y,3/4+z
3/4+x,-y,3/4+z
x,1/2+y,1/2+z
1/4-x,3/4-y,1/2+z
x,3/4-y,3/4-z
1/4-x,1/2+y,3/4-z
-x,1/2-y,1/2-z
3/4+x,1/4+y,1/2-z
-x,1/4+y,1/4+z
3/4+x,1/2-y,1/4+z
1/2+x,y,1/2+z
3/4-x,1/4-y,1/2+z
1/2+x,1/4-y,3/4-z
3/4-x,y,3/4-z
1/2-x,-y,1/2-z
1/4+x,3/4+y,1/2-z
1/2-x,3/4+y,1/4+z
1/4+x,-y,1/4+z
1/2+x,1/2+y,z
3/4-x,3/4-y,z
1/2+x,3/4-y,1/4-z
3/4-x,1/2+y,1/4-z
1/2-x,1/2-y,-z
1/4+x,1/4+y,-z
1/2-x,1/4+y,3/4+z
1/4+x,1/2-y,3/4+z
loop_
_atom_site_type_symbol
_atom_site_label
_atom_site_fract_x
_atom_site_fract_y
_atom_site_fract_z
Si Si1 0.375000 0.375000 0.547588
Si Si2 0.489173 0.390013 0.032000
Si Si3 0.040861 0.983531 0.817571
Si Si4 0.375000 0.375000 0.375000
Si Si5 0.471746 0.000026 0.208177
Si Si6 0.255578 0.219702 0.072911
Si Si7 0.744710 0.839309 0.457763
O O1 0.428957 0.313738 0.577148
O O2 0.451031 0.419575 0.511918
O O3 0.375000 0.375000 0.041773
O O4 0.531990 0.318655 0.054903
O O5 0.537977 0.455908 0.058254
O O6 0.491620 0.413889 0.971961
O O7 0.992281 0.952820 0.868050
O O8 0.137893 0.940672 0.800957
O O9 0.969308 0.985544 0.769348
O O10 0.442373 0.426900 0.408078
O O11 0.369530 0.009808 0.181103
O O12 0.507129 0.077543 0.204995
#
# Coordination Sequence:
#
# PCOD9514834 Si02
#       7
#    16  32  32   8  32  32  32
#     4   9  22  37  58  90 124 158 207 266 325 386
#     4   9  20  39  60  85 124 164 205 269 323 374
#     4  11  22  38  65  91 120 170 214 260 335 399
#     4  10  20  36  56  88 120 168 222 256 320 404
#     4  10  21  36  59  90 125 157 210 268 320 389
#     4  10  21  39  63  88 122 169 215 265 320 389
#     4  10  20  37  58  87 126 161 206 268 323 393
#
# _framework density 26.323743
#
# number of rings (size 3 to 8) (size 9 to 14) (size 15 to 20)
#    0.000    2.087    0.000    2.609    3.652    2.087 
#    0.000   10.435    0.000    0.000    0.000    0.000 
#    0.000    0.000    0.000    0.000    0.000    0.000 
#
# Total GULP energy -256302.970766 kJ/mol
# GULP energy per Si atom -5571.803712 kJ/mol
# Density = 2.626383 g / cm^3
# Si number density = 26.323743 Si / 1000 Ang^3
#
#
#
# Elastic Constant Matrix: (Units=GPa)
#
#
# Indices 1 2 3 4 5 6 
#
# 1 66.4129 -10.8877 10.4392 0.0000 0.0000 0.0000
# 2 -10.8877 144.8220 -3.5135 0.0000 0.0000 0.0000
# 3 10.4392 -3.5135 95.9751 0.0000 0.0000 0.0000
# 4 0.0000 0.0000 0.0000 14.2257 0.0000 0.0000
# 5 0.0000 0.0000 0.0000 0.0000 24.2580 0.0000
# 6 0.0000 0.0000 0.0000 0.0000 0.0000 21.3848
#
#
#
# Elastic Compliance Matrix: (Units=1/GPa)
#
#
# Indices 1 2 3 4 5 6 
#
# 1 0.015500 0.001125 -0.001645 0.000000 0.000000 0.000000
# 2 0.001125 0.006993 0.000134 0.000000 0.000000 0.000000
# 3 -0.001645 0.000134 0.010603 0.000000 0.000000 0.000000
# 4 0.000000 0.000000 0.000000 0.070295 0.000000 0.000000
# 5 0.000000 0.000000 0.000000 0.000000 0.041223 0.000000
# 6 0.000000 0.000000 0.000000 0.000000 0.000000 0.046762
#
#
# Mechanical properties :
#
#
# Convention : Reuss Voigt Hill
#
# Bulk Modulus (GPa) = 30.93595 33.25400 32.09497
# Shear Modulus (GPa) = 24.63981 32.71851 28.67916
#
# Velocity S-wave (km/s) = 3.06278 3.52934 3.30431
# Velocity P-wave (km/s) = 4.92799 5.41003 5.17463
#
# Compressibility (1/GPa) = 0.03232485
#
# Stress axis : x y z
#
# Youngs Moduli (GPa) = 64.51463 143.00269 94.31147
#
# Poissons Ratio (x) = -0.16094 0.15512
# Poissons Ratio (y) = -0.07261 -0.01260
# Poissons Ratio (z) = 0.10611 -0.01910
#
# Static dielectric constant tensor:
#      x y z
#    x 2.231020 0.000000 0.000000 
#    y 0.000000 2.403400 0.000000 
#    z 0.000000 0.000000 2.164390 
# 
# From -- ./inp_files/59564.got.cif
#   From: 2010.05.17/outbox.cif.g08.bks.cpg/sg70_30_cif.got.tgz:59564.got - 2010.06.03 15:57:51.
