data_PCOD9514832
_publ_section_title
;
Structure prediction by ZEFSAII (Michael W. Deem and Ramdas Pophale) SiO2 
 PCOD9514832
Probable space group: F D D D
;
_chemical_formula_sum "Si O2"
_cell_formula_units_Z 128
_cell_length_a 33.708527
_cell_length_b 8.146671
_cell_length_c 23.459406
_cell_angle_alpha 90.000000
_cell_angle_beta 90.000000
_cell_angle_gamma 90.000000
_cell_volume 6442.240954
_symmetry_space_group_name_H-M "F D D D"
_symmetry_group_IT_number 70
_space_group.IT_coordinate_system_code '2'
_symmetry_cell_setting 'orthorhombic'
loop_
_space_group_symop_operation_xyz
x,y,z
1/4-x,1/4-y,z
x,1/4-y,1/4-z
1/4-x,y,1/4-z
-x,-y,-z
3/4+x,3/4+y,-z
-x,3/4+y,3/4+z
3/4+x,-y,3/4+z
x,1/2+y,1/2+z
1/4-x,3/4-y,1/2+z
x,3/4-y,3/4-z
1/4-x,1/2+y,3/4-z
-x,1/2-y,1/2-z
3/4+x,1/4+y,1/2-z
-x,1/4+y,1/4+z
3/4+x,1/2-y,1/4+z
1/2+x,y,1/2+z
3/4-x,1/4-y,1/2+z
1/2+x,1/4-y,3/4-z
3/4-x,y,3/4-z
1/2-x,-y,1/2-z
1/4+x,3/4+y,1/2-z
1/2-x,3/4+y,1/4+z
1/4+x,-y,1/4+z
1/2+x,1/2+y,z
3/4-x,3/4-y,z
1/2+x,3/4-y,1/4-z
3/4-x,1/2+y,1/4-z
1/2-x,1/2-y,-z
1/4+x,1/4+y,-z
1/2-x,1/4+y,3/4+z
1/4+x,1/2-y,3/4+z
loop_
_atom_site_type_symbol
_atom_site_label
_atom_site_fract_x
_atom_site_fract_y
_atom_site_fract_z
Si Si1 0.441348 0.594542 0.009279
Si Si2 0.135289 0.817818 0.939034
Si Si3 0.997093 0.048946 0.907165
Si Si4 0.280095 0.295966 0.549281
O O1 0.394272 0.585505 0.018999
O O2 0.465901 0.469255 0.049131
O O3 0.453769 0.772774 0.033543
O O4 0.458665 0.581879 0.945874
O O5 0.125000 0.625000 0.943015
O O6 0.126095 0.875000 0.875000
O O7 0.182270 0.825071 0.949268
O O8 0.008152 0.181964 0.859615
O O9 0.992181 0.875000 0.875000
O O10 0.250000 0.250000 0.500000
#
# Coordination Sequence:
#
# PCOD9514832 Si02
#       4
#    32  32  32  32
#     4   9  18  35  58  78 110 149 182 234 289 327
#     4  10  20  36  56  84 113 142 190 241 283 333
#     4   9  18  35  58  80 113 151 191 227 283 349
#     4  10  21  33  53  85 111 144 190 228 282 344
#
# _framework density 19.868863000000001
#
# number of rings (size 3 to 8) (size 9 to 14) (size 15 to 20)
#    0.000    2.500    0.000    3.750    3.500    0.000 
#    4.500    1.250    0.000    9.000    0.000    0.000 
#    0.000    0.000    0.000    0.000    0.000    0.000 
#
# Total GULP energy -178604.162466 kJ/mol
# GULP energy per Si atom -5581.380077 kJ/mol
# Density = 1.982364 g / cm^3
# Si number density = 19.868863 Si / 1000 Ang^3
#
#
#
# Elastic Constant Matrix: (Units=GPa)
#
#
# Indices 1 2 3 4 5 6 
#
# 1 163.3903 28.1254 100.0224 0.0000 0.0000 0.0000
# 2 28.1254 37.9065 20.4741 -0.0001 0.0000 0.0001
# 3 100.0224 20.4741 136.9471 0.0000 0.0000 0.0000
# 4 0.0000 -0.0001 0.0000 31.4559 0.0000 0.0000
# 5 0.0000 0.0000 0.0000 0.0000 28.8319 0.0000
# 6 0.0000 0.0001 0.0000 0.0000 0.0000 8.4564
#
#
#
# Elastic Compliance Matrix: (Units=1/GPa)
#
#
# Indices 1 2 3 4 5 6 
#
# 1 0.011715 -0.004428 -0.007895 0.000000 0.000000 0.000000
# 2 -0.004428 0.030372 -0.001306 0.000000 0.000000 0.000000
# 3 -0.007895 -0.001306 0.013263 0.000000 0.000000 0.000000
# 4 0.000000 0.000000 0.000000 0.031791 0.000000 0.000000
# 5 0.000000 0.000000 0.000000 0.000000 0.034684 0.000000
# 6 0.000000 0.000000 0.000000 0.000000 0.000000 0.118254
#
#
# Mechanical properties :
#
#
# Convention : Reuss Voigt Hill
#
# Bulk Modulus (GPa) = 35.59710 70.60972 53.10341
# Shear Modulus (GPa) = 18.06999 26.39032 22.23015
#
# Velocity S-wave (km/s) = 3.01900 3.64844 3.34854
# Velocity P-wave (km/s) = 5.48702 7.30501 6.46028
#
# Compressibility (1/GPa) = 0.02809217
#
# Stress axis : x y z
#
# Youngs Moduli (GPa) = 85.35780 32.92505 75.39584
#
# Poissons Ratio (x) = 0.14581 0.59521
# Poissons Ratio (y) = 0.37800 0.09849
# Poissons Ratio (z) = 0.67386 0.04301
#
# Static dielectric constant tensor:
#      x y z
#    x 1.740210 0.000000 0.000000 
#    y 0.000000 1.772900 0.000000 
#    z 0.000000 0.000000 1.652220 
# 
# From -- ./inp_files/50090.got.cif
#   From: 2010.05.17/outbox.cif.g08.bks.cpg/sg70_26_cif.got.tgz:50090.got - 2010.06.03 15:57:51.
