data_PCOD9514732
_publ_section_title
;
Structure prediction by ZEFSAII (Michael W. Deem and Ramdas Pophale) SiO2 
 PCOD9514732
Probable space group: F D D D
;
_chemical_formula_sum "Si O2"
_cell_formula_units_Z 112
_cell_length_a 9.726347
_cell_length_b 23.179275
_cell_length_c 21.430147
_cell_angle_alpha 90.000000
_cell_angle_beta 90.000000
_cell_angle_gamma 90.000000
_cell_volume 4831.419609
_symmetry_space_group_name_H-M "F D D D"
_symmetry_group_IT_number 70
_space_group.IT_coordinate_system_code '2'
_symmetry_cell_setting 'orthorhombic'
loop_
_space_group_symop_operation_xyz
x,y,z
1/4-x,1/4-y,z
x,1/4-y,1/4-z
1/4-x,y,1/4-z
-x,-y,-z
3/4+x,3/4+y,-z
-x,3/4+y,3/4+z
3/4+x,-y,3/4+z
x,1/2+y,1/2+z
1/4-x,3/4-y,1/2+z
x,3/4-y,3/4-z
1/4-x,1/2+y,3/4-z
-x,1/2-y,1/2-z
3/4+x,1/4+y,1/2-z
-x,1/4+y,1/4+z
3/4+x,1/2-y,1/4+z
1/2+x,y,1/2+z
3/4-x,1/4-y,1/2+z
1/2+x,1/4-y,3/4-z
3/4-x,y,3/4-z
1/2-x,-y,1/2-z
1/4+x,3/4+y,1/2-z
1/2-x,3/4+y,1/4+z
1/4+x,-y,1/4+z
1/2+x,1/2+y,z
3/4-x,3/4-y,z
1/2+x,3/4-y,1/4-z
3/4-x,1/2+y,1/4-z
1/2-x,1/2-y,-z
1/4+x,1/4+y,-z
1/2-x,1/4+y,3/4+z
1/4+x,1/2-y,3/4+z
loop_
_atom_site_type_symbol
_atom_site_label
_atom_site_fract_x
_atom_site_fract_y
_atom_site_fract_z
Si Si1 0.214670 0.298255 0.258503
Si Si2 0.808287 0.290185 0.435595
Si Si3 0.375000 0.992017 0.875000
Si Si4 0.647492 0.186215 0.368480
O O1 0.171699 0.233602 0.233751
O O2 0.320404 0.293996 0.315615
O O3 0.275779 0.326351 0.196841
O O4 0.069448 0.322917 0.283465
O O5 0.875000 0.317073 0.375000
O O6 0.738181 0.231607 0.407139
O O7 0.503819 0.031773 0.893907
O O8 0.625000 0.125000 0.400988
#
# Coordination Sequence:
#
# PCOD9514732 Si02
#       4
#    32  32  16  32
#     4   9  17  32  50  75 104 138 171 209 253 315
#     4   8  16  31  53  75 101 133 175 209 252 306
#     4  10  20  32  51  76 104 140 176 202 263 318
#     4  10  20  31  52  81 107 130 170 227 262 295
#
# _framework density 23.181592999999999
#
# number of rings (size 3 to 8) (size 9 to 14) (size 15 to 20)
#    0.000    2.857    0.000    0.857    6.000    0.000 
#    0.000    0.714    0.000    0.000    0.000    6.000 
#    0.000    0.000    0.000    0.000    0.000    0.000 
#
# Total GULP energy -156219.163650 kJ/mol
# GULP energy per Si atom -5579.255845 kJ/mol
# Density = 2.312883 g / cm^3
# Si number density = 23.181593 Si / 1000 Ang^3
#
#
#
# Elastic Constant Matrix: (Units=GPa)
#
#
# Indices 1 2 3 4 5 6 
#
# 1 84.4593 5.6879 18.0964 0.0000 0.0000 0.0000
# 2 5.6879 68.1743 -0.8104 0.0000 0.0000 0.0000
# 3 18.0964 -0.8104 114.3321 0.0000 0.0000 0.0000
# 4 0.0000 0.0000 0.0000 -6.4606 0.0000 0.0000
# 5 0.0000 0.0000 0.0000 0.0000 60.9098 0.0000
# 6 0.0000 0.0000 0.0000 0.0000 0.0000 -13.4750
#
#
#
# Elastic Compliance Matrix: (Units=1/GPa)
#
#
# Indices 1 2 3 4 5 6 
#
# 1 0.012331 -0.001052 -0.001959 0.000000 0.000000 0.000000
# 2 -0.001052 0.014759 0.000271 0.000000 0.000000 0.000000
# 3 -0.001959 0.000271 0.009058 0.000000 0.000000 0.000000
# 4 0.000000 0.000000 0.000000 -0.154783 0.000000 0.000000
# 5 0.000000 0.000000 0.000000 0.000000 0.016418 0.000000
# 6 0.000000 0.000000 0.000000 0.000000 0.000000 -0.074212
#
#
# Mechanical properties :
#
#
# Convention : Reuss Voigt Hill
#
# Bulk Modulus (GPa) = 32.60699 34.76815 33.68757
# Shear Modulus (GPa) = -31.10887 24.46095 -3.32396
#
# Velocity S-wave (km/s) = -3.66726 3.25189 -1.19875
# Velocity P-wave (km/s) = 1.95839 5.39726 3.55635
#
# Compressibility (1/GPa) = 0.03066827
#
# Stress axis : x y z
#
# Youngs Moduli (GPa) = 81.09874 67.75398 110.39403
#
# Poissons Ratio (x) = 0.07128 0.21628
# Poissons Ratio (y) = 0.08532 -0.02993
# Poissons Ratio (z) = 0.15888 -0.01837
#
# Static dielectric constant tensor:
#      x y z
#    x 1.898530 0.000000 0.000000 
#    y 0.000000 1.845060 0.000000 
#    z 0.000000 0.000000 1.939910 
# 
# From -- ./inp_files/16500.got.cif
#   From: 2010.05.17/outbox.cif.g08.bks.cpg/sg70_9_cif.got.tgz:16500.got - 2010.06.03 15:57:51.
