data_PCOD9514321
_publ_section_title
;
Structure prediction by ZEFSAII (Michael W. Deem and Ramdas Pophale) SiO2 
 PCOD9514321
Probable space group: F D D D
;
_chemical_formula_sum "Si O2"
_cell_formula_units_Z 176
_cell_length_a 21.915991
_cell_length_b 22.248860
_cell_length_c 16.650333
_cell_angle_alpha 90.000000
_cell_angle_beta 90.000000
_cell_angle_gamma 90.000000
_cell_volume 8118.799201
_symmetry_space_group_name_H-M "F D D D"
_symmetry_group_IT_number 70
_space_group.IT_coordinate_system_code '2'
_symmetry_cell_setting 'orthorhombic'
loop_
_space_group_symop_operation_xyz
x,y,z
1/4-x,1/4-y,z
x,1/4-y,1/4-z
1/4-x,y,1/4-z
-x,-y,-z
3/4+x,3/4+y,-z
-x,3/4+y,3/4+z
3/4+x,-y,3/4+z
x,1/2+y,1/2+z
1/4-x,3/4-y,1/2+z
x,3/4-y,3/4-z
1/4-x,1/2+y,3/4-z
-x,1/2-y,1/2-z
3/4+x,1/4+y,1/2-z
-x,1/4+y,1/4+z
3/4+x,1/2-y,1/4+z
1/2+x,y,1/2+z
3/4-x,1/4-y,1/2+z
1/2+x,1/4-y,3/4-z
3/4-x,y,3/4-z
1/2-x,-y,1/2-z
1/4+x,3/4+y,1/2-z
1/2-x,3/4+y,1/4+z
1/4+x,-y,1/4+z
1/2+x,1/2+y,z
3/4-x,3/4-y,z
1/2+x,3/4-y,1/4-z
3/4-x,1/2+y,1/4-z
1/2-x,1/2-y,-z
1/4+x,1/4+y,-z
1/2-x,1/4+y,3/4+z
1/4+x,1/2-y,3/4+z
loop_
_atom_site_type_symbol
_atom_site_label
_atom_site_fract_x
_atom_site_fract_y
_atom_site_fract_z
Si Si1 0.024542 0.839470 0.949710
Si Si2 0.162723 0.741957 0.698756
Si Si3 0.941491 0.631411 0.865851
Si Si4 0.257013 0.625000 0.125000
Si Si5 0.784910 0.810376 0.526889
Si Si6 0.138784 0.272045 0.370767
O O1 0.997942 0.875000 0.875000
O O2 0.084405 0.806528 0.915180
O O3 0.972632 0.793460 0.975799
O O4 0.043312 0.882566 0.022269
O O5 0.125000 0.713351 0.625000
O O6 0.184708 0.805095 0.660152
O O7 0.124245 0.752134 0.779841
O O8 0.875000 0.601027 0.875000
O O9 0.992604 0.593475 0.909169
O O10 0.215337 0.604471 0.199984
O O11 0.303818 0.681243 0.138737
O O12 0.750000 0.750000 0.500000
O O13 0.843517 0.784714 0.573308
#
# Coordination Sequence:
#
# PCOD9514321 Si02
#       6
#    32  32  32  16  32  32
#     4  12  25  43  68  96 130 176 227 279 343 411
#     4  11  25  42  66  96 131 173 231 285 337 398
#     4  11  21  40  66  96 129 171 220 270 334 405
#     4  10  18  36  66  99 131 170 220 268 330 402
#     4  10  20  34  65  99 134 171 212 273 325 393
#     4  11  21  41  65  99 131 174 224 278 335 407
#
# _framework density 21.678083000000001
#
# number of rings (size 3 to 8) (size 9 to 14) (size 15 to 20)
#    0.000    1.091    4.545    4.364    0.000    3.273 
#    0.000    0.909    0.000    1.091    0.000    0.000 
#    0.000    0.000    0.000    0.000    0.000    0.000 
#
# Total GULP energy -245707.629878 kJ/mol
# GULP energy per Si atom -5584.264315 kJ/mol
# Density = 2.162874 g / cm^3
# Si number density = 21.678083 Si / 1000 Ang^3
#
#
#
# Elastic Constant Matrix: (Units=GPa)
#
#
# Indices 1 2 3 4 5 6 
#
# 1 37.1594 25.7605 14.3125 0.0000 0.0000 0.0000
# 2 25.7605 40.5989 14.7393 0.0000 0.0000 0.0000
# 3 14.3125 14.7393 147.1580 0.0000 0.0000 0.0000
# 4 0.0000 0.0000 0.0000 34.3811 0.0000 0.0000
# 5 0.0000 0.0000 0.0000 0.0000 28.0005 0.0000
# 6 0.0000 0.0000 0.0000 0.0000 0.0000 48.5731
#
#
#
# Elastic Compliance Matrix: (Units=1/GPa)
#
#
# Indices 1 2 3 4 5 6 
#
# 1 0.048448 -0.030126 -0.001695 0.000000 0.000000 0.000000
# 2 -0.030126 0.044293 -0.001506 0.000000 0.000000 0.000000
# 3 -0.001695 -0.001506 0.007111 0.000000 0.000000 0.000000
# 4 0.000000 0.000000 0.000000 0.029086 0.000000 0.000000
# 5 0.000000 0.000000 0.000000 0.000000 0.035714 0.000000
# 6 0.000000 0.000000 0.000000 0.000000 0.000000 0.020588
#
#
# Mechanical properties :
#
#
# Convention : Reuss Voigt Hill
#
# Bulk Modulus (GPa) = 30.12137 37.17121 33.64629
# Shear Modulus (GPa) = 19.01435 33.53122 26.27278
#
# Velocity S-wave (km/s) = 2.96484 3.93718 3.48509
# Velocity P-wave (km/s) = 5.06413 6.15245 5.63463
#
# Compressibility (1/GPa) = 0.03319902
#
# Stress axis : x y z
#
# Youngs Moduli (GPa) = 20.64058 22.57683 140.62488
#
# Poissons Ratio (x) = 0.68014 0.23831
# Poissons Ratio (y) = 0.62181 0.21183
# Poissons Ratio (z) = 0.03498 0.03401
#
# Static dielectric constant tensor:
#      x y z
#    x 1.786720 0.000000 0.000000 
#    y 0.000000 1.793580 0.000000 
#    z 0.000000 0.000000 1.808240 
# 
# From -- ./inp_files/28752.got.cif
#   From: 2010.05.17/outbox.cif.g08.bks.cpg/sg70_15_cif.got.tgz:28752.got - 2010.06.03 15:57:51.
