data_PCOD9514318
_publ_section_title
;
Structure prediction by ZEFSAII (Michael W. Deem and Ramdas Pophale) SiO2 
 PCOD9514318
Probable space group: F D D D
;
_chemical_formula_sum "Si O2"
_cell_formula_units_Z 152
_cell_length_a 18.848972
_cell_length_b 14.576032
_cell_length_c 22.074220
_cell_angle_alpha 90.000000
_cell_angle_beta 90.000000
_cell_angle_gamma 90.000000
_cell_volume 6064.742261
_symmetry_space_group_name_H-M "F D D D"
_symmetry_group_IT_number 70
_space_group.IT_coordinate_system_code '2'
_symmetry_cell_setting 'orthorhombic'
loop_
_space_group_symop_operation_xyz
x,y,z
1/4-x,1/4-y,z
x,1/4-y,1/4-z
1/4-x,y,1/4-z
-x,-y,-z
3/4+x,3/4+y,-z
-x,3/4+y,3/4+z
3/4+x,-y,3/4+z
x,1/2+y,1/2+z
1/4-x,3/4-y,1/2+z
x,3/4-y,3/4-z
1/4-x,1/2+y,3/4-z
-x,1/2-y,1/2-z
3/4+x,1/4+y,1/2-z
-x,1/4+y,1/4+z
3/4+x,1/2-y,1/4+z
1/2+x,y,1/2+z
3/4-x,1/4-y,1/2+z
1/2+x,1/4-y,3/4-z
3/4-x,y,3/4-z
1/2-x,-y,1/2-z
1/4+x,3/4+y,1/2-z
1/2-x,3/4+y,1/4+z
1/4+x,-y,1/4+z
1/2+x,1/2+y,z
3/4-x,3/4-y,z
1/2+x,3/4-y,1/4-z
3/4-x,1/2+y,1/4-z
1/2-x,1/2-y,-z
1/4+x,1/4+y,-z
1/2-x,1/4+y,3/4+z
1/4+x,1/2-y,3/4+z
loop_
_atom_site_type_symbol
_atom_site_label
_atom_site_fract_x
_atom_site_fract_y
_atom_site_fract_z
Si Si1 0.981772 0.651934 0.950607
Si Si2 0.110597 0.821485 0.430141
Si Si3 0.016171 0.115937 0.210848
Si Si4 0.125000 0.125000 0.316451
Si Si5 0.875000 0.375000 0.375000
Si Si6 0.125000 0.278768 0.625000
Si Si7 0.125000 0.625000 0.020460
O O1 0.986627 0.761040 0.937198
O O2 0.940491 0.592975 0.899138
O O3 0.943245 0.385505 0.023633
O O4 0.934063 0.658482 0.010823
O O5 0.077644 0.875000 0.375000
O O6 0.188900 0.848234 0.451187
O O7 0.121067 0.720785 0.402191
O O8 0.053558 0.121628 0.275475
O O9 0.072474 0.174032 0.171070
O O10 0.111356 0.211573 0.566581
#
# Coordination Sequence:
#
# PCOD9514318 Si02
#       7
#    32  32  32  16   8  16  16
#     4  11  25  48  74 110 149 200 261 322 396 462
#     4  11  23  44  71 110 153 195 255 318 384 474
#     4  10  20  40  69 101 146 189 245 310 380 461
#     4   9  22  41  68 100 147 201 237 309 388 442
#     4  10  18  36  66 102 142 184 236 304 376 448
#     4  11  25  48  81 105 156 210 260 326 395 461
#     4  11  26  50  76 109 150 208 266 328 386 475
#
# _framework density 25.062895999999999
#
# number of rings (size 3 to 8) (size 9 to 14) (size 15 to 20)
#    0.000    1.474    1.053    3.158    2.947    0.000 
#   11.368    2.105    0.000    0.000    0.000    0.000 
#    0.000    0.000    0.000    0.000    0.000    0.000 
#
# Total GULP energy -212177.605073 kJ/mol
# GULP energy per Si atom -5583.621186 kJ/mol
# Density = 2.500585 g / cm^3
# Si number density = 25.062896 Si / 1000 Ang^3
#
#
#
# Elastic Constant Matrix: (Units=GPa)
#
#
# Indices 1 2 3 4 5 6 
#
# 1 172.1084 26.8064 61.4306 0.0000 0.0000 0.0000
# 2 26.8064 149.5851 51.4462 0.0000 0.0000 0.0000
# 3 61.4306 51.4462 84.7860 0.0000 0.0000 0.0000
# 4 0.0000 0.0000 0.0000 41.4489 0.0000 0.0000
# 5 0.0000 0.0000 0.0000 0.0000 32.3769 0.0000
# 6 0.0000 0.0000 0.0000 0.0000 0.0000 20.7814
#
#
#
# Elastic Compliance Matrix: (Units=1/GPa)
#
#
# Indices 1 2 3 4 5 6 
#
# 1 0.007894 0.000698 -0.006143 0.000000 0.000000 0.000000
# 2 0.000698 0.008510 -0.005669 0.000000 0.000000 0.000000
# 3 -0.006143 -0.005669 0.019686 0.000000 0.000000 0.000000
# 4 0.000000 0.000000 0.000000 0.024126 0.000000 0.000000
# 5 0.000000 0.000000 0.000000 0.000000 0.030886 0.000000
# 6 0.000000 0.000000 0.000000 0.000000 0.000000 0.048120
#
#
# Mechanical properties :
#
#
# Convention : Reuss Voigt Hill
#
# Bulk Modulus (GPa) = 72.14744 76.20509 74.17626
# Shear Modulus (GPa) = 30.10751 36.70786 33.40768
#
# Velocity S-wave (km/s) = 3.46971 3.83120 3.65492
# Velocity P-wave (km/s) = 6.70081 7.07406 6.88996
#
# Compressibility (1/GPa) = 0.01386051
#
# Stress axis : x y z
#
# Youngs Moduli (GPa) = 126.67389 117.50990 50.79861
#
# Poissons Ratio (x) = -0.08204 0.31207
# Poissons Ratio (y) = -0.08844 0.28800
# Poissons Ratio (z) = 0.77820 0.66622
#
# Static dielectric constant tensor:
#      x y z
#    x 1.991300 0.000000 0.000000 
#    y 0.000000 2.090250 0.000000 
#    z 0.000000 0.000000 2.010650 
# 
# From -- ./inp_files/60275.got.cif
#   From: 2010.05.17/outbox.cif.g08.bks.cpg/sg70_31_cif.got.tgz:60275.got - 2010.06.03 15:57:51.
