data_PCOD9514408
_publ_section_title
;
Structure prediction by ZEFSAII (Michael W. Deem and Ramdas Pophale) SiO2 
 PCOD9514408
Probable space group: F D D D
;
_chemical_formula_sum "Si O2"
_cell_formula_units_Z 240
_cell_length_a 20.501336
_cell_length_b 19.383122
_cell_length_c 25.188120
_cell_angle_alpha 90.000000
_cell_angle_beta 90.000000
_cell_angle_gamma 90.000000
_cell_volume 10009.252527
_symmetry_space_group_name_H-M "F D D D"
_symmetry_group_IT_number 70
_space_group.IT_coordinate_system_code '2'
_symmetry_cell_setting 'orthorhombic'
loop_
_space_group_symop_operation_xyz
x,y,z
1/4-x,1/4-y,z
x,1/4-y,1/4-z
1/4-x,y,1/4-z
-x,-y,-z
3/4+x,3/4+y,-z
-x,3/4+y,3/4+z
3/4+x,-y,3/4+z
x,1/2+y,1/2+z
1/4-x,3/4-y,1/2+z
x,3/4-y,3/4-z
1/4-x,1/2+y,3/4-z
-x,1/2-y,1/2-z
3/4+x,1/4+y,1/2-z
-x,1/4+y,1/4+z
3/4+x,1/2-y,1/4+z
1/2+x,y,1/2+z
3/4-x,1/4-y,1/2+z
1/2+x,1/4-y,3/4-z
3/4-x,y,3/4-z
1/2-x,-y,1/2-z
1/4+x,3/4+y,1/2-z
1/2-x,3/4+y,1/4+z
1/4+x,-y,1/4+z
1/2+x,1/2+y,z
3/4-x,3/4-y,z
1/2+x,3/4-y,1/4-z
3/4-x,1/2+y,1/4-z
1/2-x,1/2-y,-z
1/4+x,1/4+y,-z
1/2-x,1/4+y,3/4+z
1/4+x,1/2-y,3/4+z
loop_
_atom_site_type_symbol
_atom_site_label
_atom_site_fract_x
_atom_site_fract_y
_atom_site_fract_z
Si Si1 0.441105 0.831363 0.263509
Si Si2 0.268745 0.300552 0.879971
Si Si3 0.136329 0.969009 0.956084
Si Si4 0.092481 0.228293 0.410150
Si Si5 0.760491 0.551954 0.946338
Si Si6 0.975180 0.422435 0.074637
Si Si7 0.125000 0.314734 0.125000
Si Si8 0.642429 0.841622 0.520932
O O1 0.375000 0.875000 0.277669
O O2 0.494040 0.808849 0.307493
O O3 0.406871 0.760722 0.247447
O O4 0.478329 0.877642 0.220023
O O5 0.300619 0.375000 0.875000
O O6 0.211803 0.288351 0.837592
O O7 0.314199 0.235921 0.873863
O O8 0.115605 0.004405 0.900424
O O9 0.211503 0.991761 0.963665
O O10 0.134856 0.887989 0.968246
O O11 0.055209 0.155061 0.417942
O O12 0.162287 0.220353 0.438398
O O13 0.756238 0.558139 0.882279
O O14 0.832054 0.539633 0.970880
O O15 0.032921 0.428177 0.032194
O O16 0.122689 0.359334 0.072097
#
# Coordination Sequence:
#
# PCOD9514408 Si02
#       8
#    32  32  32  32  32  32  16  32
#     4  10  19  30  45  70 107 152 177 205 256 328
#     4  12  23  32  46  73 116 150 176 212 270 346
#     4  10  21  32  49  73 110 144 181 223 271 332
#     4  10  20  36  51  75 101 146 187 233 276 327
#     4  10  19  31  47  72 104 145 183 221 264 327
#     4  10  19  34  54  72 103 139 199 240 269 319
#     4  12  21  30  46  76 110 146 185 216 254 330
#     4  12  20  33  52  77 106 150 188 235 274 326
#
# _framework density 23.977815
#
# number of rings (size 3 to 8) (size 9 to 14) (size 15 to 20)
#    0.000    1.333    5.333    1.800    1.867    1.067 
#    0.000    0.000    0.000    0.000    0.000   14.933 
#    0.000    7.467    0.000    0.000    0.000    0.000 
#
# Total GULP energy -334788.708622 kJ/mol
# GULP energy per Si atom -5579.811810 kJ/mol
# Density = 2.392324 g / cm^3
# Si number density = 23.977815 Si / 1000 Ang^3
#
#
#
# Elastic Constant Matrix: (Units=GPa)
#
#
# Indices 1 2 3 4 5 6 
#
# 1 136.9862 30.1996 18.9552 0.0000 0.0000 0.0000
# 2 30.1996 31.5460 0.3827 0.0000 0.0000 0.0000
# 3 18.9552 0.3827 47.0607 0.0000 0.0000 0.0000
# 4 0.0000 0.0000 0.0000 4.6603 0.0000 0.0000
# 5 0.0000 0.0000 0.0000 0.0000 31.2489 0.0000
# 6 0.0000 0.0000 0.0000 0.0000 0.0000 -575.4931
#
#
#
# Elastic Compliance Matrix: (Units=1/GPa)
#
#
# Indices 1 2 3 4 5 6 
#
# 1 0.009927 -0.009456 -0.003922 0.000000 0.000000 0.000000
# 2 -0.009456 0.040710 0.003478 0.000000 0.000000 0.000000
# 3 -0.003922 0.003478 0.022800 0.000000 0.000000 0.000000
# 4 0.000000 0.000000 0.000000 0.214579 0.000000 0.000000
# 5 0.000000 0.000000 0.000000 0.000000 0.032001 0.000000
# 6 0.000000 0.000000 0.000000 0.000000 0.000000 -0.001738
#
#
# Mechanical properties :
#
#
# Convention : Reuss Voigt Hill
#
# Bulk Modulus (GPa) = 18.64361 34.96312 26.80336
# Shear Modulus (GPa) = 14.04654 -96.84642 -41.39994
#
# Velocity S-wave (km/s) = 2.42299 -6.36221 -4.15974
# Velocity P-wave (km/s) = 3.95222 6.27353 3.44508
#
# Compressibility (1/GPa) = 0.05363768
#
# Stress axis : x y z
#
# Youngs Moduli (GPa) = 100.73231 24.56402 43.85877
#
# Poissons Ratio (x) = 0.23228 0.17200
# Poissons Ratio (y) = 0.95253 -0.15253
# Poissons Ratio (z) = 0.39504 -0.08542
#
# Static dielectric constant tensor:
#      x y z
#    x 2.014190 0.000000 0.000000 
#    y 0.000000 1.941000 0.000000 
#    z 0.000000 0.000000 1.533590 
# 
# From -- ./inp_files/67429.got.cif
#   From: 2010.05.17/outbox.cif.g08.bks.cpg/sg70_34_cif.got.tgz:67429.got - 2010.06.03 15:57:51.
