data_PCOD9514050
_publ_section_title
;
Structure prediction by ZEFSAII (Michael W. Deem and Ramdas Pophale) SiO2 
 PCOD9514050
Probable space group: F D D D
;
_chemical_formula_sum "Si O2"
_cell_formula_units_Z 80
_cell_length_a 5.350858
_cell_length_b 14.059304
_cell_length_c 46.652603
_cell_angle_alpha 90.000000
_cell_angle_beta 90.000000
_cell_angle_gamma 90.000000
_cell_volume 3509.644500
_symmetry_space_group_name_H-M "F D D D"
_symmetry_group_IT_number 70
_space_group.IT_coordinate_system_code '2'
_symmetry_cell_setting 'orthorhombic'
loop_
_space_group_symop_operation_xyz
x,y,z
1/4-x,1/4-y,z
x,1/4-y,1/4-z
1/4-x,y,1/4-z
-x,-y,-z
3/4+x,3/4+y,-z
-x,3/4+y,3/4+z
3/4+x,-y,3/4+z
x,1/2+y,1/2+z
1/4-x,3/4-y,1/2+z
x,3/4-y,3/4-z
1/4-x,1/2+y,3/4-z
-x,1/2-y,1/2-z
3/4+x,1/4+y,1/2-z
-x,1/4+y,1/4+z
3/4+x,1/2-y,1/4+z
1/2+x,y,1/2+z
3/4-x,1/4-y,1/2+z
1/2+x,1/4-y,3/4-z
3/4-x,y,3/4-z
1/2-x,-y,1/2-z
1/4+x,3/4+y,1/2-z
1/2-x,3/4+y,1/4+z
1/4+x,-y,1/4+z
1/2+x,1/2+y,z
3/4-x,3/4-y,z
1/2+x,3/4-y,1/4-z
3/4-x,1/2+y,1/4-z
1/2-x,1/2-y,-z
1/4+x,1/4+y,-z
1/2-x,1/4+y,3/4+z
1/4+x,1/2-y,3/4+z
loop_
_atom_site_type_symbol
_atom_site_label
_atom_site_fract_x
_atom_site_fract_y
_atom_site_fract_z
Si Si1 0.831358 0.020803 0.304744
Si Si2 0.125000 0.125000 0.857468
Si Si3 0.416326 0.013633 0.467594
O O1 0.724464 0.041899 0.336272
O O2 0.874557 0.125259 0.290398
O O3 0.609065 0.971362 0.287290
O O4 0.108422 0.979264 0.302878
O O5 0.375000 0.152472 0.875000
O O6 0.500000 0.000000 0.500000
#
# Coordination Sequence:
#
# PCOD9514050 Si02
#       3
#    32  16  32
#     4   9  18  26  36  62  78  98 141 152 177 252
#     4  10  16  26  40  52  78 112 126 156 195 218
#     4   9  15  26  39  51  78 109 123 157 195 218
#
# _framework density 22.794329999999999
#
# number of rings (size 3 to 8) (size 9 to 14) (size 15 to 20)
#    0.000    3.200    0.000    6.000    0.000    0.000 
#    0.000    0.000    0.000    0.000    0.000    0.000 
#    0.000    0.000    0.000 2311.200    0.000    0.000 
#
# Total GULP energy -111423.147329 kJ/mol
# GULP energy per Si atom -5571.157366 kJ/mol
# Density = 2.274245 g / cm^3
# Si number density = 22.794330 Si / 1000 Ang^3
#
#
#
# Elastic Constant Matrix: (Units=GPa)
#
#
# Indices 1 2 3 4 5 6 
#
# 1 275.2331 5.0470 68.7433 0.0000 0.0000 0.0000
# 2 5.0470 79.6970 4.6263 0.0000 0.0000 0.0000
# 3 68.7433 4.6263 126.7765 0.0000 0.0000 0.0000
# 4 0.0000 0.0000 0.0000 9.8990 0.0000 0.0000
# 5 0.0000 0.0000 0.0000 0.0000 54.7723 0.0000
# 6 0.0000 0.0000 0.0000 0.0000 0.0000 -11.4943
#
#
#
# Elastic Compliance Matrix: (Units=1/GPa)
#
#
# Indices 1 2 3 4 5 6 
#
# 1 0.004204 -0.000134 -0.002275 0.000000 0.000000 0.000000
# 2 -0.000134 0.012578 -0.000386 0.000000 0.000000 0.000000
# 3 -0.002275 -0.000386 0.009135 0.000000 0.000000 0.000000
# 4 0.000000 0.000000 0.000000 0.101020 0.000000 0.000000
# 5 0.000000 0.000000 0.000000 0.000000 0.018257 0.000000
# 6 0.000000 0.000000 0.000000 0.000000 0.000000 -0.087000
#
#
# Mechanical properties :
#
#
# Convention : Reuss Voigt Hill
#
# Bulk Modulus (GPa) = 49.19419 70.94887 60.07153
# Shear Modulus (GPa) = 70.85990 37.52139 54.19065
#
# Velocity S-wave (km/s) = 5.58159 4.06160 4.88112
# Velocity P-wave (km/s) = 7.94780 7.29306 7.62745
#
# Compressibility (1/GPa) = 0.02032761
#
# Stress axis : x y z
#
# Youngs Moduli (GPa) = 237.87677 79.50106 109.46457
#
# Poissons Ratio (x) = 0.01067 0.24899
# Poissons Ratio (y) = 0.03192 0.04228
# Poissons Ratio (z) = 0.54108 0.03071
#
# Static dielectric constant tensor:
#      x y z
#    x 2.540310 0.000000 0.000000 
#    y 0.000000 2.376520 0.000000 
#    z 0.000000 0.000000 1.841480 
# 
# From -- ./inp_files/3923.got.cif
#   From: 2010.05.17/outbox.cif.g08.bks.cpg/sg70_2_cif.got.tgz:3923.got - 2010.06.03 15:57:51.
