data_PCOD9514261
_publ_section_title
;
Structure prediction by ZEFSAII (Michael W. Deem and Ramdas Pophale) SiO2 
 PCOD9514261
Probable space group: F D D D
;
_chemical_formula_sum "Si O2"
_cell_formula_units_Z 104
_cell_length_a 28.766403
_cell_length_b 13.004909
_cell_length_c 14.500308
_cell_angle_alpha 90.000000
_cell_angle_beta 90.000000
_cell_angle_gamma 90.000000
_cell_volume 5424.629797
_symmetry_space_group_name_H-M "F D D D"
_symmetry_group_IT_number 70
_space_group.IT_coordinate_system_code '2'
_symmetry_cell_setting 'orthorhombic'
loop_
_space_group_symop_operation_xyz
x,y,z
1/4-x,1/4-y,z
x,1/4-y,1/4-z
1/4-x,y,1/4-z
-x,-y,-z
3/4+x,3/4+y,-z
-x,3/4+y,3/4+z
3/4+x,-y,3/4+z
x,1/2+y,1/2+z
1/4-x,3/4-y,1/2+z
x,3/4-y,3/4-z
1/4-x,1/2+y,3/4-z
-x,1/2-y,1/2-z
3/4+x,1/4+y,1/2-z
-x,1/4+y,1/4+z
3/4+x,1/2-y,1/4+z
1/2+x,y,1/2+z
3/4-x,1/4-y,1/2+z
1/2+x,1/4-y,3/4-z
3/4-x,y,3/4-z
1/2-x,-y,1/2-z
1/4+x,3/4+y,1/2-z
1/2-x,3/4+y,1/4+z
1/4+x,-y,1/4+z
1/2+x,1/2+y,z
3/4-x,3/4-y,z
1/2+x,3/4-y,1/4-z
3/4-x,1/2+y,1/4-z
1/2-x,1/2-y,-z
1/4+x,1/4+y,-z
1/2-x,1/4+y,3/4+z
1/4+x,1/2-y,3/4+z
loop_
_atom_site_type_symbol
_atom_site_label
_atom_site_fract_x
_atom_site_fract_y
_atom_site_fract_z
Si Si1 0.949437 0.246617 0.144013
Si Si2 0.125000 0.462922 0.125000
Si Si3 0.625000 0.125000 0.625000
Si Si4 0.555108 0.281277 0.640251
Si Si5 0.375000 0.875000 0.718103
O O1 0.945044 0.258403 0.254143
O O2 0.914521 0.323783 0.094239
O O3 0.001780 0.273853 0.111483
O O4 0.940844 0.125000 0.125000
O O5 0.080342 0.390781 0.142438
O O6 0.138150 0.533321 0.211860
O O7 0.588810 0.206572 0.581173
#
# Coordination Sequence:
#
# PCOD9514261 Si02
#       5
#    32  16   8  32  16
#     4  11  21  39  61  88 117 161 199 252 295 365
#     4  10  22  40  62  90 124 164 194 250 304 368
#     4  10  18  34  58  90 112 148 192 258 290 348
#     4  10  21  37  62  88 119 153 207 244 304 351
#     4  11  23  40  61  87 130 160 200 245 309 358
#
# _framework density 19.171816
#
# number of rings (size 3 to 8) (size 9 to 14) (size 15 to 20)
#    0.000    1.538    4.615    0.923    0.000    1.231 
#    0.000    0.000    6.769    0.000    0.000    0.000 
#    0.000    0.000    0.000    0.000    0.000    0.000 
#
# Total GULP energy -144822.082430 kJ/mol
# GULP energy per Si atom -5570.080093 kJ/mol
# Density = 1.912818 g / cm^3
# Si number density = 19.171816 Si / 1000 Ang^3
#
#
#
# Elastic Constant Matrix: (Units=GPa)
#
#
# Indices 1 2 3 4 5 6 
#
# 1 180.2513 91.1557 47.4904 0.0000 0.0000 0.0000
# 2 91.1557 144.5482 31.7501 0.0000 0.0000 0.0000
# 3 47.4904 31.7501 53.6762 0.0000 0.0000 0.0000
# 4 0.0000 0.0000 0.0000 -5.9590 0.0000 0.0000
# 5 0.0000 0.0000 0.0000 0.0000 19.2883 0.0000
# 6 0.0000 0.0000 0.0000 0.0000 0.0000 -11.5914
#
#
#
# Elastic Compliance Matrix: (Units=1/GPa)
#
#
# Indices 1 2 3 4 5 6 
#
# 1 0.009380 -0.004703 -0.005517 0.000000 0.000000 0.000000
# 2 -0.004703 0.010310 -0.001937 0.000000 0.000000 0.000000
# 3 -0.005517 -0.001937 0.024657 0.000000 0.000000 0.000000
# 4 0.000000 0.000000 0.000000 -0.167812 0.000000 0.000000
# 5 0.000000 0.000000 0.000000 0.000000 0.051845 0.000000
# 6 0.000000 0.000000 0.000000 0.000000 0.000000 -0.086271
#
#
# Mechanical properties :
#
#
# Convention : Reuss Voigt Hill
#
# Bulk Modulus (GPa) = 49.91946 79.91866 64.91906
# Shear Modulus (GPa) = -39.40103 14.21955 -12.59074
#
# Velocity S-wave (km/s) = -4.53830 2.72635 -2.56546
# Velocity P-wave (km/s) = 1.16922 7.18934 5.01595
#
# Compressibility (1/GPa) = 0.02003227
#
# Stress axis : x y z
#
# Youngs Moduli (GPa) = 106.61094 96.99658 40.55655
#
# Poissons Ratio (x) = 0.45622 0.22374
# Poissons Ratio (y) = 0.50144 0.07855
# Poissons Ratio (z) = 0.58815 0.18787
#
# Static dielectric constant tensor:
#      x y z
#    x 1.686710 0.000000 0.000000 
#    y 0.000000 1.683730 0.000000 
#    z 0.000000 0.000000 1.706480 
# 
# From -- ./inp_files/15087.got.cif
#   From: 2010.05.17/outbox.cif.g08.bks.cpg/sg70_8_cif.got.tgz:15087.got - 2010.06.03 15:57:51.
