data_PCOD9514300
_publ_section_title
;
Structure prediction by ZEFSAII (Michael W. Deem and Ramdas Pophale) SiO2 
 PCOD9514300
Probable space group: F D D D
;
_chemical_formula_sum "Si O2"
_cell_formula_units_Z 192
_cell_length_a 22.643486
_cell_length_b 28.081122
_cell_length_c 12.673022
_cell_angle_alpha 90.000000
_cell_angle_beta 90.000000
_cell_angle_gamma 90.000000
_cell_volume 8058.197977
_symmetry_space_group_name_H-M "F D D D"
_symmetry_group_IT_number 70
_space_group.IT_coordinate_system_code '2'
_symmetry_cell_setting 'orthorhombic'
loop_
_space_group_symop_operation_xyz
x,y,z
1/4-x,1/4-y,z
x,1/4-y,1/4-z
1/4-x,y,1/4-z
-x,-y,-z
3/4+x,3/4+y,-z
-x,3/4+y,3/4+z
3/4+x,-y,3/4+z
x,1/2+y,1/2+z
1/4-x,3/4-y,1/2+z
x,3/4-y,3/4-z
1/4-x,1/2+y,3/4-z
-x,1/2-y,1/2-z
3/4+x,1/4+y,1/2-z
-x,1/4+y,1/4+z
3/4+x,1/2-y,1/4+z
1/2+x,y,1/2+z
3/4-x,1/4-y,1/2+z
1/2+x,1/4-y,3/4-z
3/4-x,y,3/4-z
1/2-x,-y,1/2-z
1/4+x,3/4+y,1/2-z
1/2-x,3/4+y,1/4+z
1/4+x,-y,1/4+z
1/2+x,1/2+y,z
3/4-x,3/4-y,z
1/2+x,3/4-y,1/4-z
3/4-x,1/2+y,1/4-z
1/2-x,1/2-y,-z
1/4+x,1/4+y,-z
1/2-x,1/4+y,3/4+z
1/4+x,1/2-y,3/4+z
loop_
_atom_site_type_symbol
_atom_site_label
_atom_site_fract_x
_atom_site_fract_y
_atom_site_fract_z
Si Si1 0.375000 0.728181 0.375000
Si Si2 0.285601 0.172440 0.336216
Si Si3 0.202741 0.554698 0.734340
Si Si4 0.026057 0.330658 0.050042
Si Si5 0.854093 0.825987 0.632938
Si Si6 0.171053 0.720939 0.207966
Si Si7 0.465598 0.125000 0.625000
O O1 0.426601 0.756033 0.311792
O O2 0.412648 0.697082 0.456177
O O3 0.291974 0.136201 0.435200
O O4 0.214172 0.178025 0.340818
O O5 0.311851 0.225272 0.326034
O O6 0.310985 0.142033 0.236235
O O7 0.239987 0.564476 0.842298
O O8 0.140573 0.578430 0.759631
O O9 0.243102 0.579800 0.649542
O O10 0.979632 0.311442 0.964888
O O11 0.875000 0.875000 0.576117
O O12 0.883238 0.782818 0.566853
O O13 0.125000 0.700978 0.125000
#
# Coordination Sequence:
#
# PCOD9514300 Si02
#       7
#    16  32  32  32  32  32  16
#     4  12  22  33  64  98 138 174 225 272 366 418
#     4  11  23  41  66 100 141 177 236 297 355 429
#     4  10  20  32  59  96 128 175 222 271 344 419
#     4  10  23  42  61  98 140 175 226 294 349 425
#     4  11  20  41  65  95 136 174 234 291 338 423
#     4  11  25  44  72  97 131 194 240 293 363 426
#     4  10  18  35  62  94 136 172 218 280 361 412
#
# _framework density 23.826665999999999
#
# number of rings (size 3 to 8) (size 9 to 14) (size 15 to 20)
#    0.000    1.333    5.000    3.500    1.167    5.667 
#    0.000    0.000    0.000    0.000    0.000    0.000 
#    0.000    0.000    0.000    0.000    0.000    0.000 
#
# Total GULP energy -267206.778057 kJ/mol
# GULP energy per Si atom -5566.807876 kJ/mol
# Density = 2.377244 g / cm^3
# Si number density = 23.826666 Si / 1000 Ang^3
#
#
#
# Elastic Constant Matrix: (Units=GPa)
#
#
# Indices 1 2 3 4 5 6 
#
# 1 77.1040 34.4875 5.9364 0.0000 0.0000 0.0000
# 2 34.4875 122.9078 17.0211 0.0000 0.0000 0.0000
# 3 5.9364 17.0211 31.3006 0.0000 0.0000 0.0000
# 4 0.0000 0.0000 0.0000 -122.2131 0.0000 0.0000
# 5 0.0000 0.0000 0.0000 0.0000 17.5611 0.0000
# 6 0.0000 0.0000 0.0000 0.0000 0.0000 -17.8512
#
#
#
# Elastic Compliance Matrix: (Units=1/GPa)
#
#
# Indices 1 2 3 4 5 6 
#
# 1 0.014841 -0.004082 -0.000595 0.000000 0.000000 0.000000
# 2 -0.004082 0.009922 -0.004621 0.000000 0.000000 0.000000
# 3 -0.000595 -0.004621 0.034574 0.000000 0.000000 0.000000
# 4 0.000000 0.000000 0.000000 -0.008182 0.000000 0.000000
# 5 0.000000 0.000000 0.000000 0.000000 0.056944 0.000000
# 6 0.000000 0.000000 0.000000 0.000000 0.000000 -0.056019
#
#
# Mechanical properties :
#
#
# Convention : Reuss Voigt Hill
#
# Bulk Modulus (GPa) = 24.54555 38.46693 31.50624
# Shear Modulus (GPa) = 59.34319 -12.90946 23.21686
#
# Velocity S-wave (km/s) = 4.99603 -2.33020 3.12494
# Velocity P-wave (km/s) = 6.60337 2.98994 5.12563
#
# Compressibility (1/GPa) = 0.04074058
#
# Stress axis : x y z
#
# Youngs Moduli (GPa) = 67.38045 100.79096 28.92346
#
# Poissons Ratio (x) = 0.41143 0.01721
# Poissons Ratio (y) = 0.27504 0.13366
# Poissons Ratio (z) = 0.04009 0.46576
#
# Static dielectric constant tensor:
#      x y z
#    x 1.887520 0.000000 0.000000 
#    y 0.000000 2.232980 0.000000 
#    z 0.000000 0.000000 2.094790 
# 
# From -- ./inp_files/30163.got.cif
#   From: 2010.05.17/outbox.cif.g08.bks.cpg/sg70_16_cif.got.tgz:30163.got - 2010.06.03 15:57:51.
