data_PCOD9514640
_publ_section_title
;
Structure prediction by ZEFSAII (Michael W. Deem and Ramdas Pophale) SiO2 
 PCOD9514640
Probable space group: F D D D
;
_chemical_formula_sum "Si O2"
_cell_formula_units_Z 232
_cell_length_a 16.359194
_cell_length_b 22.163607
_cell_length_c 27.848130
_cell_angle_alpha 90.000000
_cell_angle_beta 90.000000
_cell_angle_gamma 90.000000
_cell_volume 10097.140072
_symmetry_space_group_name_H-M "F D D D"
_symmetry_group_IT_number 70
_space_group.IT_coordinate_system_code '2'
_symmetry_cell_setting 'orthorhombic'
loop_
_space_group_symop_operation_xyz
x,y,z
1/4-x,1/4-y,z
x,1/4-y,1/4-z
1/4-x,y,1/4-z
-x,-y,-z
3/4+x,3/4+y,-z
-x,3/4+y,3/4+z
3/4+x,-y,3/4+z
x,1/2+y,1/2+z
1/4-x,3/4-y,1/2+z
x,3/4-y,3/4-z
1/4-x,1/2+y,3/4-z
-x,1/2-y,1/2-z
3/4+x,1/4+y,1/2-z
-x,1/4+y,1/4+z
3/4+x,1/2-y,1/4+z
1/2+x,y,1/2+z
3/4-x,1/4-y,1/2+z
1/2+x,1/4-y,3/4-z
3/4-x,y,3/4-z
1/2-x,-y,1/2-z
1/4+x,3/4+y,1/2-z
1/2-x,3/4+y,1/4+z
1/4+x,-y,1/4+z
1/2+x,1/2+y,z
3/4-x,3/4-y,z
1/2+x,3/4-y,1/4-z
3/4-x,1/2+y,1/4-z
1/2-x,1/2-y,-z
1/4+x,1/4+y,-z
1/2-x,1/4+y,3/4+z
1/4+x,1/2-y,3/4+z
loop_
_atom_site_type_symbol
_atom_site_label
_atom_site_fract_x
_atom_site_fract_y
_atom_site_fract_z
Si Si1 0.826059 0.460598 0.961292
Si Si2 0.693464 0.378785 0.011140
Si Si3 0.801046 0.333532 0.092249
Si Si4 0.045310 0.062930 0.303450
Si Si5 0.930416 0.535120 0.527208
Si Si6 0.625212 0.974174 0.950172
Si Si7 0.125000 0.125000 0.625000
Si Si8 0.718747 0.641296 0.197459
O O1 0.785979 0.523155 0.946309
O O2 0.887798 0.482340 0.002645
O O3 0.839619 0.422163 0.913936
O O4 0.765278 0.421121 0.993081
O O5 0.722392 0.346412 0.059508
O O6 0.673276 0.334307 0.967162
O O7 0.617269 0.424142 0.012147
O O8 0.875000 0.375000 0.073738
O O9 0.792004 0.350057 0.147909
O O10 0.831879 0.264187 0.090049
O O11 0.043677 0.100932 0.254771
O O12 0.118494 0.013716 0.299488
O O13 0.000000 0.500000 0.500000
O O14 0.974609 0.582922 0.562581
O O15 0.718738 0.949850 0.938457
O O16 0.625000 0.625000 0.179787
#
# Coordination Sequence:
#
# PCOD9514640 Si02
#       8
#    32  32  32  32  32  32   8  32
#     4  10  22  39  55  88 119 163 202 247 296 382
#     4  10  22  40  61  88 121 170 211 247 317 385
#     4  12  23  37  61  87 127 158 204 267 313 372
#     4  10  23  38  61  92 122 153 209 255 319 360
#     4  10  20  38  66  90 122 162 210 260 314 388
#     4  10  22  39  61  86 122 166 208 249 320 379
#     4  12  24  32  56  80 128 160 206 244 304 354
#     4  10  19  38  65  91 117 161 215 256 312 390
#
# _framework density 22.976801999999999
#
# number of rings (size 3 to 8) (size 9 to 14) (size 15 to 20)
#    0.000    1.655    2.759    1.655    3.862    0.000 
#    0.000    0.000    0.000    3.310    0.000    0.000 
#    0.000    0.000    0.000    0.000    0.000    0.000 
#
# Total GULP energy -323005.068872 kJ/mol
# GULP energy per Si atom -5569.052912 kJ/mol
# Density = 2.292451 g / cm^3
# Si number density = 22.976802 Si / 1000 Ang^3
#
#
#
# Elastic Constant Matrix: (Units=GPa)
#
#
# Indices 1 2 3 4 5 6 
#
# 1 62.1910 10.1628 23.7753 0.0000 0.0000 0.0000
# 2 10.1628 70.2073 5.2310 0.0000 0.0000 0.0000
# 3 23.7753 5.2310 56.5283 0.0000 0.0000 0.0000
# 4 0.0000 0.0000 0.0000 14.3485 0.0000 0.0000
# 5 0.0000 0.0000 0.0000 0.0000 0.5764 0.0000
# 6 0.0000 0.0000 0.0000 0.0000 0.0000 22.9072
#
#
#
# Elastic Compliance Matrix: (Units=1/GPa)
#
#
# Indices 1 2 3 4 5 6 
#
# 1 0.019500 -0.002227 -0.007995 0.000000 0.000000 0.000000
# 2 -0.002227 0.014597 -0.000414 0.000000 0.000000 0.000000
# 3 -0.007995 -0.000414 0.021091 0.000000 0.000000 0.000000
# 4 0.000000 0.000000 0.000000 0.069694 0.000000 0.000000
# 5 0.000000 0.000000 0.000000 0.000000 1.735053 0.000000
# 6 0.000000 0.000000 0.000000 0.000000 0.000000 0.043654
#
#
# Mechanical properties :
#
#
# Convention : Reuss Voigt Hill
#
# Bulk Modulus (GPa) = 29.48538 29.69607 29.59073
# Shear Modulus (GPa) = 2.58242 17.55025 10.06634
#
# Velocity S-wave (km/s) = 1.06130 2.76674 2.09538
# Velocity P-wave (km/s) = 3.78977 4.81237 4.33135
#
# Compressibility (1/GPa) = 0.03391511
#
# Stress axis : x y z
#
# Youngs Moduli (GPa) = 51.28203 68.50840 47.41274
#
# Poissons Ratio (x) = 0.15257 0.37909
# Poissons Ratio (y) = 0.11420 0.01963
# Poissons Ratio (z) = 0.41002 0.02837
#
# Static dielectric constant tensor:
#      x y z
#    x 1.949950 0.000000 0.000000 
#    y 0.000000 1.988770 0.000000 
#    z 0.000000 0.000000 1.833220 
# 
# From -- ./inp_files/66883.got.cif
#   From: 2010.05.17/outbox.cif.g08.bks.cpg/sg70_34_cif.got.tgz:66883.got - 2010.06.03 15:57:51.
