data_PCOD9514689
_publ_section_title
;
Structure prediction by ZEFSAII (Michael W. Deem and Ramdas Pophale) SiO2 
 PCOD9514689
Probable space group: F D D D
;
_chemical_formula_sum "Si O2"
_cell_formula_units_Z 208
_cell_length_a 18.250563
_cell_length_b 21.877059
_cell_length_c 24.648540
_cell_angle_alpha 90.000000
_cell_angle_beta 90.000000
_cell_angle_gamma 90.000000
_cell_volume 9841.389131
_symmetry_space_group_name_H-M "F D D D"
_symmetry_group_IT_number 70
_space_group.IT_coordinate_system_code '2'
_symmetry_cell_setting 'orthorhombic'
loop_
_space_group_symop_operation_xyz
x,y,z
1/4-x,1/4-y,z
x,1/4-y,1/4-z
1/4-x,y,1/4-z
-x,-y,-z
3/4+x,3/4+y,-z
-x,3/4+y,3/4+z
3/4+x,-y,3/4+z
x,1/2+y,1/2+z
1/4-x,3/4-y,1/2+z
x,3/4-y,3/4-z
1/4-x,1/2+y,3/4-z
-x,1/2-y,1/2-z
3/4+x,1/4+y,1/2-z
-x,1/4+y,1/4+z
3/4+x,1/2-y,1/4+z
1/2+x,y,1/2+z
3/4-x,1/4-y,1/2+z
1/2+x,1/4-y,3/4-z
3/4-x,y,3/4-z
1/2-x,-y,1/2-z
1/4+x,3/4+y,1/2-z
1/2-x,3/4+y,1/4+z
1/4+x,-y,1/4+z
1/2+x,1/2+y,z
3/4-x,3/4-y,z
1/2+x,3/4-y,1/4-z
3/4-x,1/2+y,1/4-z
1/2-x,1/2-y,-z
1/4+x,1/4+y,-z
1/2-x,1/4+y,3/4+z
1/4+x,1/2-y,3/4+z
loop_
_atom_site_type_symbol
_atom_site_label
_atom_site_fract_x
_atom_site_fract_y
_atom_site_fract_z
Si Si1 0.413658 0.115546 0.043400
Si Si2 0.453646 0.625000 0.125000
Si Si3 0.206720 0.243600 0.392293
Si Si4 0.415437 0.808933 0.427474
Si Si5 0.575784 0.568942 0.809627
Si Si6 0.738384 0.262162 0.771424
Si Si7 0.567596 0.896675 0.076096
O O1 0.348516 0.147015 0.076974
O O2 0.474705 0.166693 0.035272
O O3 0.442897 0.059232 0.079465
O O4 0.391185 0.104129 0.981473
O O5 0.505487 0.575669 0.152868
O O6 0.128137 0.210075 0.395332
O O7 0.235616 0.235406 0.331039
O O8 0.268348 0.207697 0.425628
O O9 0.375000 0.779871 0.375000
O O10 0.375000 0.875000 0.438126
O O11 0.428509 0.769118 0.481236
O O12 0.625000 0.625000 0.787691
O O13 0.561249 0.517302 0.764487
O O14 0.496489 0.594119 0.829121
O O15 0.625000 0.893426 0.125000
#
# Coordination Sequence:
#
# PCOD9514689 Si02
#       7
#    32  16  32  32  32  32  32
#     4  11  22  41  62  93 129 172 228 271 335 410
#     4  10  19  40  68  84 127 176 214 276 336 406
#     4  11  22  41  66  96 132 181 223 278 341 402
#     4   9  22  42  62  96 133 172 223 286 342 415
#     4   9  22  43  64  91 137 175 220 280 335 399
#     4  11  22  38  70  94 126 179 222 275 340 405
#     4  10  24  41  64 100 133 174 223 289 338 398
#
# _framework density 21.135228000000001
#
# number of rings (size 3 to 8) (size 9 to 14) (size 15 to 20)
#    0.000    2.000    1.538    1.385    4.308    4.308 
#    2.769    3.077    0.000    0.000    0.000    0.000 
#    0.000    0.000    0.000    0.000    0.000    0.000 
#
# Total GULP energy -289560.674936 kJ/mol
# GULP energy per Si atom -5568.474518 kJ/mol
# Density = 2.108712 g / cm^3
# Si number density = 21.135228 Si / 1000 Ang^3
#
#
#
# Elastic Constant Matrix: (Units=GPa)
#
#
# Indices 1 2 3 4 5 6 
#
# 1 78.0004 19.2799 32.6868 0.0000 0.0000 0.0000
# 2 19.2799 68.3554 27.1597 0.0000 0.0000 0.0000
# 3 32.6868 27.1597 130.8037 0.0000 0.0000 0.0000
# 4 0.0000 0.0000 0.0000 26.9433 0.0000 0.0000
# 5 0.0000 0.0000 0.0000 0.0000 6.9993 0.0000
# 6 0.0000 0.0000 0.0000 0.0000 0.0000 21.7323
#
#
#
# Elastic Compliance Matrix: (Units=1/GPa)
#
#
# Indices 1 2 3 4 5 6 
#
# 1 0.014849 -0.002958 -0.003097 0.000000 0.000000 0.000000
# 2 -0.002958 0.016534 -0.002694 0.000000 0.000000 0.000000
# 3 -0.003097 -0.002694 0.008978 0.000000 0.000000 0.000000
# 4 0.000000 0.000000 0.000000 0.037115 0.000000 0.000000
# 5 0.000000 0.000000 0.000000 0.000000 0.142872 0.000000
# 6 0.000000 0.000000 0.000000 0.000000 0.000000 0.046015
#
#
# Mechanical properties :
#
#
# Convention : Reuss Voigt Hill
#
# Bulk Modulus (GPa) = 43.73545 48.37914 46.05730
# Shear Modulus (GPa) = 17.15375 24.33716 20.74546
#
# Velocity S-wave (km/s) = 2.85198 3.39705 3.13638
# Velocity P-wave (km/s) = 5.61989 6.19085 5.91227
#
# Compressibility (1/GPa) = 0.02286475
#
# Stress axis : x y z
#
# Youngs Moduli (GPa) = 67.34365 60.48108 111.38090
#
# Poissons Ratio (x) = 0.17890 0.34489
# Poissons Ratio (y) = 0.19920 0.30005
# Poissons Ratio (z) = 0.20853 0.16293
#
# Static dielectric constant tensor:
#      x y z
#    x 1.777830 0.000000 0.000000 
#    y 0.000000 1.864950 0.000000 
#    z 0.000000 0.000000 1.910410 
# 
# From -- ./inp_files/43925.got.cif
#   From: 2010.05.17/outbox.cif.g08.bks.cpg/sg70_22_cif.got.tgz:43925.got - 2010.06.03 15:57:51.
