data_PCOD9514486
_publ_section_title
;
Structure prediction by ZEFSAII (Michael W. Deem and Ramdas Pophale) SiO2 
 PCOD9514486
Probable space group: F D D D
;
_chemical_formula_sum "Si O2"
_cell_formula_units_Z 120
_cell_length_a 10.588209
_cell_length_b 21.034080
_cell_length_c 24.692655
_cell_angle_alpha 90.000000
_cell_angle_beta 90.000000
_cell_angle_gamma 90.000000
_cell_volume 5499.381080
_symmetry_space_group_name_H-M "F D D D"
_symmetry_group_IT_number 70
_space_group.IT_coordinate_system_code '2'
_symmetry_cell_setting 'orthorhombic'
loop_
_space_group_symop_operation_xyz
x,y,z
1/4-x,1/4-y,z
x,1/4-y,1/4-z
1/4-x,y,1/4-z
-x,-y,-z
3/4+x,3/4+y,-z
-x,3/4+y,3/4+z
3/4+x,-y,3/4+z
x,1/2+y,1/2+z
1/4-x,3/4-y,1/2+z
x,3/4-y,3/4-z
1/4-x,1/2+y,3/4-z
-x,1/2-y,1/2-z
3/4+x,1/4+y,1/2-z
-x,1/4+y,1/4+z
3/4+x,1/2-y,1/4+z
1/2+x,y,1/2+z
3/4-x,1/4-y,1/2+z
1/2+x,1/4-y,3/4-z
3/4-x,y,3/4-z
1/2-x,-y,1/2-z
1/4+x,3/4+y,1/2-z
1/2-x,3/4+y,1/4+z
1/4+x,-y,1/4+z
1/2+x,1/2+y,z
3/4-x,3/4-y,z
1/2+x,3/4-y,1/4-z
3/4-x,1/2+y,1/4-z
1/2-x,1/2-y,-z
1/4+x,1/4+y,-z
1/2-x,1/4+y,3/4+z
1/4+x,1/2-y,3/4+z
loop_
_atom_site_type_symbol
_atom_site_label
_atom_site_fract_x
_atom_site_fract_y
_atom_site_fract_z
Si Si1 0.116848 0.715986 0.038282
Si Si2 0.125000 0.791333 0.625000
Si Si3 0.363098 0.976009 0.669294
Si Si4 0.375000 0.875000 0.875000
Si Si5 0.000163 0.902001 0.683492
O O1 0.990422 0.722362 0.188430
O O2 0.062906 0.787498 0.039168
O O3 0.052151 0.670628 0.082380
O O4 0.109650 0.693518 0.977085
O O5 0.252268 0.755509 0.643041
O O6 0.164010 0.840906 0.577571
O O7 0.295005 0.931085 0.624968
O O8 0.875000 0.875000 0.711563
#
# Coordination Sequence:
#
# PCOD9514486 Si02
#       5
#    32  16  32   8  32
#     4  11  22  37  59  88 119 159 200 255 313 373
#     4  10  19  34  60  86 114 151 200 256 296 362
#     4  10  21  36  60  83 118 157 204 248 311 370
#     4  12  22  32  56  94 124 142 200 258 310 370
#     4  10  19  37  59  87 115 150 205 261 295 362
#
# _framework density 21.820637000000001
#
# number of rings (size 3 to 8) (size 9 to 14) (size 15 to 20)
#    0.000    1.600    5.333    0.000    5.600    0.000 
#    0.000    5.333   11.733    0.000    0.000    0.000 
#    0.000    0.000    0.000    0.000    0.000    0.000 
#
# Total GULP energy -167057.100696 kJ/mol
# GULP energy per Si atom -5568.570023 kJ/mol
# Density = 2.177097 g / cm^3
# Si number density = 21.820637 Si / 1000 Ang^3
#
#
#
# Elastic Constant Matrix: (Units=GPa)
#
#
# Indices 1 2 3 4 5 6 
#
# 1 129.7052 28.9812 13.5534 0.0000 0.0000 0.0000
# 2 28.9812 66.5421 7.3333 0.0000 0.0000 0.0000
# 3 13.5534 7.3333 107.6276 0.0000 0.0000 0.0000
# 4 0.0000 0.0000 0.0000 -8.9986 0.0000 0.0000
# 5 0.0000 0.0000 0.0000 0.0000 29.7484 0.0000
# 6 0.0000 0.0000 0.0000 0.0000 0.0000 15.9713
#
#
#
# Elastic Compliance Matrix: (Units=1/GPa)
#
#
# Indices 1 2 3 4 5 6 
#
# 1 0.008615 -0.003660 -0.000835 0.000000 0.000000 0.000000
# 2 -0.003660 0.016697 -0.000677 0.000000 0.000000 0.000000
# 3 -0.000835 -0.000677 0.009443 0.000000 0.000000 0.000000
# 4 0.000000 0.000000 0.000000 -0.111128 0.000000 0.000000
# 5 0.000000 0.000000 0.000000 0.000000 0.033615 0.000000
# 6 0.000000 0.000000 0.000000 0.000000 0.000000 0.062612
#
#
# Mechanical properties :
#
#
# Convention : Reuss Voigt Hill
#
# Bulk Modulus (GPa) = 40.96723 44.84566 42.90644
# Shear Modulus (GPa) = 130.43072 24.27803 77.35438
#
# Velocity S-wave (km/s) = 7.73975 3.33921 5.96046
# Velocity P-wave (km/s) = 9.93413 5.95514 8.18995
#
# Compressibility (1/GPa) = 0.02440976
#
# Stress axis : x y z
#
# Youngs Moduli (GPa) = 116.07832 59.89212 105.90286
#
# Poissons Ratio (x) = 0.21920 0.08848
# Poissons Ratio (y) = 0.42484 0.07167
# Poissons Ratio (z) = 0.09698 0.04053
#
# Static dielectric constant tensor:
#      x y z
#    x 1.893150 0.000000 0.000000 
#    y 0.000000 1.855860 0.000000 
#    z 0.000000 0.000000 1.811880 
# 
# From -- ./inp_files/51065.got.cif
#   From: 2010.05.17/outbox.cif.g08.bks.cpg/sg70_26_cif.got.tgz:51065.got - 2010.06.03 15:57:51.
