data_PCOD9514751
_publ_section_title
;
Structure prediction by ZEFSAII (Michael W. Deem and Ramdas Pophale) SiO2 
 PCOD9514751
Probable space group: F D D D
;
_chemical_formula_sum "Si O2"
_cell_formula_units_Z 136
_cell_length_a 16.364725
_cell_length_b 19.839549
_cell_length_c 19.705756
_cell_angle_alpha 90.000000
_cell_angle_beta 90.000000
_cell_angle_gamma 90.000000
_cell_volume 6397.843435
_symmetry_space_group_name_H-M "F D D D"
_symmetry_group_IT_number 70
_space_group.IT_coordinate_system_code '2'
_symmetry_cell_setting 'orthorhombic'
loop_
_space_group_symop_operation_xyz
x,y,z
1/4-x,1/4-y,z
x,1/4-y,1/4-z
1/4-x,y,1/4-z
-x,-y,-z
3/4+x,3/4+y,-z
-x,3/4+y,3/4+z
3/4+x,-y,3/4+z
x,1/2+y,1/2+z
1/4-x,3/4-y,1/2+z
x,3/4-y,3/4-z
1/4-x,1/2+y,3/4-z
-x,1/2-y,1/2-z
3/4+x,1/4+y,1/2-z
-x,1/4+y,1/4+z
3/4+x,1/2-y,1/4+z
1/2+x,y,1/2+z
3/4-x,1/4-y,1/2+z
1/2+x,1/4-y,3/4-z
3/4-x,y,3/4-z
1/2-x,-y,1/2-z
1/4+x,3/4+y,1/2-z
1/2-x,3/4+y,1/4+z
1/4+x,-y,1/4+z
1/2+x,1/2+y,z
3/4-x,3/4-y,z
1/2+x,3/4-y,1/4-z
3/4-x,1/2+y,1/4-z
1/2-x,1/2-y,-z
1/4+x,1/4+y,-z
1/2-x,1/4+y,3/4+z
1/4+x,1/2-y,3/4+z
loop_
_atom_site_type_symbol
_atom_site_label
_atom_site_fract_x
_atom_site_fract_y
_atom_site_fract_z
Si Si1 0.528843 0.750232 0.569039
Si Si2 0.625000 0.734829 0.125000
Si Si3 0.370937 0.561435 0.010803
Si Si4 0.625000 0.125000 0.125000
Si Si5 0.059516 0.803067 0.215691
Si Si6 0.010473 0.875000 0.875000
O O1 0.436300 0.743796 0.546852
O O2 0.565788 0.676542 0.586431
O O3 0.538623 0.794923 0.636611
O O4 0.597035 0.780460 0.519619
O O5 0.598057 0.779870 0.189869
O O6 0.699677 0.685890 0.146395
O O7 0.434474 0.593121 0.064452
O O8 0.308306 0.620842 0.989368
O O9 0.000000 0.750000 0.250000
#
# Coordination Sequence:
#
# PCOD9514751 Si02
#       6
#    32  16  32   8  32  16
#     4  10  20  33  54  86 119 155 204 250 303 372
#     4  11  26  43  66  95 126 165 220 276 332 409
#     4  12  22  41  66  90 126 172 212 265 331 390
#     4   8  14  30  50  78 116 154 188 244 302 356
#     4  10  20  35  57  90 126 163 206 256 308 374
#     4  11  25  46  67  93 126 168 218 273 337 406
#
# _framework density 21.257162999999998
#
# number of rings (size 3 to 8) (size 9 to 14) (size 15 to 20)
#    0.000    1.647    0.000    8.471    0.000    0.000 
#    0.000    0.000    0.000    2.824    0.000    0.000 
#    0.000    0.000    0.000    0.000    0.000    0.000 
#
# Total GULP energy -189581.447217 kJ/mol
# GULP energy per Si atom -5575.924918 kJ/mol
# Density = 2.120878 g / cm^3
# Si number density = 21.257163 Si / 1000 Ang^3
#
#
#
# Elastic Constant Matrix: (Units=GPa)
#
#
# Indices 1 2 3 4 5 6 
#
# 1 97.8621 17.5182 60.9541 0.0000 0.0000 0.0000
# 2 17.5182 65.2312 39.1107 0.0000 0.0000 0.0000
# 3 60.9541 39.1107 96.3437 0.0000 0.0000 0.0000
# 4 0.0000 0.0000 0.0000 57.4878 0.0000 0.0000
# 5 0.0000 0.0000 0.0000 0.0000 35.3587 0.0000
# 6 0.0000 0.0000 0.0000 0.0000 0.0000 33.3880
#
#
#
# Elastic Compliance Matrix: (Units=1/GPa)
#
#
# Indices 1 2 3 4 5 6 
#
# 1 0.017170 0.002514 -0.011884 0.000000 0.000000 0.000000
# 2 0.002514 0.020630 -0.009965 0.000000 0.000000 0.000000
# 3 -0.011884 -0.009965 0.021943 0.000000 0.000000 0.000000
# 4 0.000000 0.000000 0.000000 0.017395 0.000000 0.000000
# 5 0.000000 0.000000 0.000000 0.000000 0.028282 0.000000
# 6 0.000000 0.000000 0.000000 0.000000 0.000000 0.029951
#
#
# Mechanical properties :
#
#
# Convention : Reuss Voigt Hill
#
# Bulk Modulus (GPa) = 47.45279 54.95588 51.20434
# Shear Modulus (GPa) = 27.61435 34.70383 31.15909
#
# Velocity S-wave (km/s) = 3.60816 4.04489 3.83275
# Velocity P-wave (km/s) = 6.30318 6.90825 6.61264
#
# Compressibility (1/GPa) = 0.02107358
#
# Stress axis : x y z
#
# Youngs Moduli (GPa) = 58.24007 48.47367 45.57187
#
# Poissons Ratio (x) = -0.12186 0.54156
# Poissons Ratio (y) = -0.14641 0.45413
# Poissons Ratio (z) = 0.69211 0.48305
#
# Static dielectric constant tensor:
#      x y z
#    x 1.793380 0.000000 0.000000 
#    y 0.000000 1.781430 0.000000 
#    z 0.000000 0.000000 1.821650 
# 
# From -- ./inp_files/34732.got.cif
#   From: 2010.05.17/outbox.cif.g08.bks.cpg/sg70_18_cif.got.tgz:34732.got - 2010.06.03 15:57:51.
