data_PCOD9514346
_publ_section_title
;
Structure prediction by ZEFSAII (Michael W. Deem and Ramdas Pophale) SiO2 
 PCOD9514346
Probable space group: F D D D
;
_chemical_formula_sum "Si O2"
_cell_formula_units_Z 208
_cell_length_a 29.996965
_cell_length_b 17.377353
_cell_length_c 19.457091
_cell_angle_alpha 90.000000
_cell_angle_beta 90.000000
_cell_angle_gamma 90.000000
_cell_volume 10142.355988
_symmetry_space_group_name_H-M "F D D D"
_symmetry_group_IT_number 70
_space_group.IT_coordinate_system_code '2'
_symmetry_cell_setting 'orthorhombic'
loop_
_space_group_symop_operation_xyz
x,y,z
1/4-x,1/4-y,z
x,1/4-y,1/4-z
1/4-x,y,1/4-z
-x,-y,-z
3/4+x,3/4+y,-z
-x,3/4+y,3/4+z
3/4+x,-y,3/4+z
x,1/2+y,1/2+z
1/4-x,3/4-y,1/2+z
x,3/4-y,3/4-z
1/4-x,1/2+y,3/4-z
-x,1/2-y,1/2-z
3/4+x,1/4+y,1/2-z
-x,1/4+y,1/4+z
3/4+x,1/2-y,1/4+z
1/2+x,y,1/2+z
3/4-x,1/4-y,1/2+z
1/2+x,1/4-y,3/4-z
3/4-x,y,3/4-z
1/2-x,-y,1/2-z
1/4+x,3/4+y,1/2-z
1/2-x,3/4+y,1/4+z
1/4+x,-y,1/4+z
1/2+x,1/2+y,z
3/4-x,3/4-y,z
1/2+x,3/4-y,1/4-z
3/4-x,1/2+y,1/4-z
1/2-x,1/2-y,-z
1/4+x,1/4+y,-z
1/2-x,1/4+y,3/4+z
1/4+x,1/2-y,3/4+z
loop_
_atom_site_type_symbol
_atom_site_label
_atom_site_fract_x
_atom_site_fract_y
_atom_site_fract_z
Si Si1 0.268816 0.891643 0.560476
Si Si2 0.855791 0.296469 0.259567
Si Si3 0.182765 0.923198 0.479103
Si Si4 0.260933 0.224144 0.423635
Si Si5 0.530703 0.375000 0.375000
Si Si6 0.162741 0.875251 0.731227
Si Si7 0.064614 0.995420 0.913611
O O1 0.307308 0.929423 0.515931
O O2 0.222187 0.924773 0.534057
O O3 0.274370 0.916509 0.639397
O O4 0.275352 0.800570 0.560379
O O5 0.875000 0.375000 0.294253
O O6 0.849127 0.212012 0.293077
O O7 0.889817 0.280211 0.195893
O O8 0.133375 0.920248 0.509208
O O9 0.185548 0.985415 0.418313
O O10 0.189254 0.839493 0.444109
O O11 0.250000 0.250000 0.500000
O O12 0.251734 0.301567 0.380620
O O13 0.305800 0.174292 0.431222
O O14 0.562197 0.380308 0.306504
#
# Coordination Sequence:
#
# PCOD9514346 Si02
#       7
#    32  32  32  32  16  32  32
#     4  11  21  35  58  88 118 149 202 255 311 367
#     4   9  18  34  59  87 114 154 202 256 298 373
#     4  10  21  35  61  88 117 153 194 255 311 375
#     4  10  23  34  60  87 118 167 212 256 310 375
#     4  10  18  38  60  85 116 160 223 256 302 380
#     4  10  19  36  58  84 122 159 208 255 318 373
#     4   9  20  37  59  88 113 151 199 243 309 376
#
# _framework density 20.508054999999999
#
# number of rings (size 3 to 8) (size 9 to 14) (size 15 to 20)
#    0.000    2.154    1.538    2.308    4.308    0.615 
#    0.000    0.000    0.000    0.923    0.000    0.000 
#    0.000    0.000    0.000    0.000    0.000    0.000 
#
# Total GULP energy -289598.632650 kJ/mol
# GULP energy per Si atom -5569.204474 kJ/mol
# Density = 2.046138 g / cm^3
# Si number density = 20.508055 Si / 1000 Ang^3
#
#
#
# Elastic Constant Matrix: (Units=GPa)
#
#
# Indices 1 2 3 4 5 6 
#
# 1 96.2131 51.3778 38.1764 0.0000 0.0000 0.0000
# 2 51.3778 101.4876 13.7202 0.0000 0.0000 0.0000
# 3 38.1764 13.7202 44.4814 0.0000 0.0000 0.0000
# 4 0.0000 0.0000 0.0000 8.2418 0.0000 0.0000
# 5 0.0000 0.0000 0.0000 0.0000 -9.2895 0.0000
# 6 0.0000 0.0000 0.0000 0.0000 0.0000 23.4070
#
#
#
# Elastic Compliance Matrix: (Units=1/GPa)
#
#
# Indices 1 2 3 4 5 6 
#
# 1 0.021132 -0.008605 -0.015482 0.000000 0.000000 0.000000
# 2 -0.008605 0.013786 0.003133 0.000000 0.000000 0.000000
# 3 -0.015482 0.003133 0.034803 0.000000 0.000000 0.000000
# 4 0.000000 0.000000 0.000000 0.121333 0.000000 0.000000
# 5 0.000000 0.000000 0.000000 0.000000 -0.107648 0.000000
# 6 0.000000 0.000000 0.000000 0.000000 0.000000 0.042722
#
#
# Mechanical properties :
#
#
# Convention : Reuss Voigt Hill
#
# Bulk Modulus (GPa) = 35.95564 49.85898 42.90731
# Shear Modulus (GPa) = 28.19966 13.73237 20.96601
#
# Velocity S-wave (km/s) = 3.71219 2.59049 3.20086
# Velocity P-wave (km/s) = 5.99536 5.77167 5.88458
#
# Compressibility (1/GPa) = 0.02781205
#
# Stress axis : x y z
#
# Youngs Moduli (GPa) = 47.32200 72.53708 28.73328
#
# Poissons Ratio (x) = 0.62417 0.44486
# Poissons Ratio (y) = 0.40720 -0.09002
# Poissons Ratio (z) = 0.73266 -0.22725
#
# Static dielectric constant tensor:
#      x y z
#    x 1.721720 0.000000 0.000000 
#    y 0.000000 1.782960 0.000000 
#    z 0.000000 0.000000 1.824810 
# 
# From -- ./inp_files/39879.got.cif
#   From: 2010.05.17/outbox.cif.g08.bks.cpg/sg70_20_cif.got.tgz:39879.got - 2010.06.03 15:57:51.
