data_PCOD9514529
_publ_section_title
;
Structure prediction by ZEFSAII (Michael W. Deem and Ramdas Pophale) SiO2 
 PCOD9514529
Probable space group: F D D D
;
_chemical_formula_sum "Si O2"
_cell_formula_units_Z 112
_cell_length_a 34.243139
_cell_length_b 10.380345
_cell_length_c 14.071018
_cell_angle_alpha 90.000000
_cell_angle_beta 90.000000
_cell_angle_gamma 90.000000
_cell_volume 5001.622099
_symmetry_space_group_name_H-M "F D D D"
_symmetry_group_IT_number 70
_space_group.IT_coordinate_system_code '2'
_symmetry_cell_setting 'orthorhombic'
loop_
_space_group_symop_operation_xyz
x,y,z
1/4-x,1/4-y,z
x,1/4-y,1/4-z
1/4-x,y,1/4-z
-x,-y,-z
3/4+x,3/4+y,-z
-x,3/4+y,3/4+z
3/4+x,-y,3/4+z
x,1/2+y,1/2+z
1/4-x,3/4-y,1/2+z
x,3/4-y,3/4-z
1/4-x,1/2+y,3/4-z
-x,1/2-y,1/2-z
3/4+x,1/4+y,1/2-z
-x,1/4+y,1/4+z
3/4+x,1/2-y,1/4+z
1/2+x,y,1/2+z
3/4-x,1/4-y,1/2+z
1/2+x,1/4-y,3/4-z
3/4-x,y,3/4-z
1/2-x,-y,1/2-z
1/4+x,3/4+y,1/2-z
1/2-x,3/4+y,1/4+z
1/4+x,-y,1/4+z
1/2+x,1/2+y,z
3/4-x,3/4-y,z
1/2+x,3/4-y,1/4-z
3/4-x,1/2+y,1/4-z
1/2-x,1/2-y,-z
1/4+x,1/4+y,-z
1/2-x,1/4+y,3/4+z
1/4+x,1/2-y,3/4+z
loop_
_atom_site_type_symbol
_atom_site_label
_atom_site_fract_x
_atom_site_fract_y
_atom_site_fract_z
Si Si1 0.152110 0.244841 0.322227
Si Si2 0.625000 0.415051 0.125000
Si Si3 0.196701 0.493318 0.060991
Si Si4 0.017864 0.086971 0.413459
O O1 0.125000 0.125000 0.352363
O O2 0.138986 0.375000 0.375000
O O3 0.147262 0.259627 0.208681
O O4 0.197106 0.227415 0.354085
O O5 0.594138 0.325703 0.070461
O O6 0.194759 0.625000 0.125000
O O7 0.229956 0.397875 0.099720
O O8 0.211864 0.540411 0.959916
O O9 0.000000 0.000000 0.500000
#
# Coordination Sequence:
#
# PCOD9514529 Si02
#       4
#    32  16  32  32
#     4  12  25  44  68 100 139 184 233 288 348 413
#     4  12  24  40  64 100 141 184 227 286 351 420
#     4  10  19  35  61  96 132 177 228 279 334 404
#     4  10  20  37  64  97 133 178 231 286 338 405
#
# _framework density 22.392735999999999
#
# number of rings (size 3 to 8) (size 9 to 14) (size 15 to 20)
#    0.000    1.143    0.000   10.286    0.000    0.000 
#    0.000    1.429    0.000    3.429    0.000    0.000 
#    0.000    0.000    0.000    0.000    0.000    0.000 
#
# Total GULP energy -156407.576062 kJ/mol
# GULP energy per Si atom -5585.984859 kJ/mol
# Density = 2.234177 g / cm^3
# Si number density = 22.392736 Si / 1000 Ang^3
#
#
#
# Elastic Constant Matrix: (Units=GPa)
#
#
# Indices 1 2 3 4 5 6 
#
# 1 175.8582 41.8796 51.7635 0.0000 0.0000 0.0000
# 2 41.8796 49.3134 19.8098 0.0000 0.0000 0.0000
# 3 51.7635 19.8098 113.4145 0.0000 0.0000 0.0000
# 4 0.0000 0.0000 0.0000 10.2560 0.0000 0.0000
# 5 0.0000 0.0000 0.0000 0.0000 38.9705 0.0000
# 6 0.0000 0.0000 0.0000 0.0000 0.0000 -8.5970
#
#
#
# Elastic Compliance Matrix: (Units=1/GPa)
#
#
# Indices 1 2 3 4 5 6 
#
# 1 0.007769 -0.005564 -0.002574 0.000000 0.000000 0.000000
# 2 -0.005564 0.025793 -0.001966 0.000000 0.000000 0.000000
# 3 -0.002574 -0.001966 0.010335 0.000000 0.000000 0.000000
# 4 0.000000 0.000000 0.000000 0.097503 0.000000 0.000000
# 5 0.000000 0.000000 0.000000 0.000000 0.025660 0.000000
# 6 0.000000 0.000000 0.000000 0.000000 0.000000 -0.116320
#
#
# Mechanical properties :
#
#
# Convention : Reuss Voigt Hill
#
# Bulk Modulus (GPa) = 42.21150 62.83244 52.52197
# Shear Modulus (GPa) = 63.41504 23.13479 43.27492
#
# Velocity S-wave (km/s) = 5.32738 3.21773 4.40084
# Velocity P-wave (km/s) = 7.53211 6.47497 7.02346
#
# Compressibility (1/GPa) = 0.02369023
#
# Stress axis : x y z
#
# Youngs Moduli (GPa) = 128.71550 38.76976 96.75484
#
# Poissons Ratio (x) = 0.21571 0.24905
# Poissons Ratio (y) = 0.71616 0.19020
# Poissons Ratio (z) = 0.33132 0.07622
#
# Static dielectric constant tensor:
#      x y z
#    x 1.804910 0.000000 0.000000 
#    y 0.000000 1.857520 0.000000 
#    z 0.000000 0.000000 1.400370 
# 
# From -- ./inp_files/14983.got.cif
#   From: 2010.05.17/outbox.cif.g08.bks.cpg/sg70_8_cif.got.tgz:14983.got - 2010.06.03 15:57:51.
