data_PCOD9514623
_publ_section_title
;
Structure prediction by ZEFSAII (Michael W. Deem and Ramdas Pophale) SiO2 
 PCOD9514623
Probable space group: F D D D
;
_chemical_formula_sum "Si O2"
_cell_formula_units_Z 144
_cell_length_a 14.424797
_cell_length_b 23.400678
_cell_length_c 21.348243
_cell_angle_alpha 90.000000
_cell_angle_beta 90.000000
_cell_angle_gamma 90.000000
_cell_volume 7206.100061
_symmetry_space_group_name_H-M "F D D D"
_symmetry_group_IT_number 70
_space_group.IT_coordinate_system_code '2'
_symmetry_cell_setting 'orthorhombic'
loop_
_space_group_symop_operation_xyz
x,y,z
1/4-x,1/4-y,z
x,1/4-y,1/4-z
1/4-x,y,1/4-z
-x,-y,-z
3/4+x,3/4+y,-z
-x,3/4+y,3/4+z
3/4+x,-y,3/4+z
x,1/2+y,1/2+z
1/4-x,3/4-y,1/2+z
x,3/4-y,3/4-z
1/4-x,1/2+y,3/4-z
-x,1/2-y,1/2-z
3/4+x,1/4+y,1/2-z
-x,1/4+y,1/4+z
3/4+x,1/2-y,1/4+z
1/2+x,y,1/2+z
3/4-x,1/4-y,1/2+z
1/2+x,1/4-y,3/4-z
3/4-x,y,3/4-z
1/2-x,-y,1/2-z
1/4+x,3/4+y,1/2-z
1/2-x,3/4+y,1/4+z
1/4+x,-y,1/4+z
1/2+x,1/2+y,z
3/4-x,3/4-y,z
1/2+x,3/4-y,1/4-z
3/4-x,1/2+y,1/4-z
1/2-x,1/2-y,-z
1/4+x,1/4+y,-z
1/2-x,1/4+y,3/4+z
1/4+x,1/2-y,3/4+z
loop_
_atom_site_type_symbol
_atom_site_label
_atom_site_fract_x
_atom_site_fract_y
_atom_site_fract_z
Si Si1 0.206659 0.942983 0.780276
Si Si2 0.875000 0.875000 0.517284
Si Si3 0.429269 0.687709 0.141979
Si Si4 0.259073 0.441062 0.610453
Si Si5 0.662050 0.852799 0.029550
O O1 0.289196 0.896681 0.773762
O O2 0.164562 0.945539 0.850249
O O3 0.120772 0.916669 0.739587
O O4 0.250000 0.000000 0.750000
O O5 0.905703 0.825344 0.565604
O O6 0.468016 0.625000 0.125000
O O7 0.489955 0.742346 0.125634
O O8 0.416688 0.683163 0.216033
O O9 0.171686 0.423072 0.569368
O O10 0.250206 0.405162 0.675127
#
# Coordination Sequence:
#
# PCOD9514623 Si02
#       5
#    32  16  32  32  32
#     4  10  19  38  61  87 119 157 197 250 300 362
#     4  10  20  36  63  90 117 156 200 240 304 362
#     4  10  20  38  59  84 117 150 194 245 297 347
#     4  10  19  39  57  83 120 151 198 240 291 366
#     4   9  21  37  59  81 117 155 191 243 296 347
#
# _framework density 19.983069
#
# number of rings (size 3 to 8) (size 9 to 14) (size 15 to 20)
#    0.000    2.222    2.222    0.667    0.000    0.000 
#    8.000   18.333    9.778    0.000    0.000    0.000 
#    0.000    0.000    0.000    0.000    0.000    0.000 
#
# Total GULP energy -200432.551934 kJ/mol
# GULP energy per Si atom -5567.570887 kJ/mol
# Density = 1.993759 g / cm^3
# Si number density = 19.983069 Si / 1000 Ang^3
#
#
#
# Elastic Constant Matrix: (Units=GPa)
#
#
# Indices 1 2 3 4 5 6 
#
# 1 22.6298 -17.1147 12.0490 0.0000 0.0000 0.0000
# 2 -17.1147 62.6454 -2.1018 0.0000 0.0000 0.0000
# 3 12.0490 -2.1018 124.0334 0.0000 0.0000 0.0000
# 4 0.0000 0.0000 0.0000 11.7753 0.0000 0.0000
# 5 0.0000 0.0000 0.0000 0.0000 18.9576 0.0000
# 6 0.0000 0.0000 0.0000 0.0000 0.0000 16.2995
#
#
#
# Elastic Compliance Matrix: (Units=1/GPa)
#
#
# Indices 1 2 3 4 5 6 
#
# 1 0.059200 0.015989 -0.005480 0.000000 0.000000 0.000000
# 2 0.015989 0.020291 -0.001209 0.000000 0.000000 0.000000
# 3 -0.005480 -0.001209 0.008574 0.000000 0.000000 0.000000
# 4 0.000000 0.000000 0.000000 0.084924 0.000000 0.000000
# 5 0.000000 0.000000 0.000000 0.000000 0.052749 0.000000
# 6 0.000000 0.000000 0.000000 0.000000 0.000000 0.061351
#
#
# Mechanical properties :
#
#
# Convention : Reuss Voigt Hill
#
# Bulk Modulus (GPa) = 9.37516 21.66375 15.51946
# Shear Modulus (GPa) = 16.44499 23.83821 20.14160
#
# Velocity S-wave (km/s) = 2.87182 3.45761 3.17824
# Velocity P-wave (km/s) = 3.96209 5.17733 4.60993
#
# Compressibility (1/GPa) = 0.10666480
#
# Stress axis : x y z
#
# Youngs Moduli (GPa) = 16.89195 49.28394 116.62911
#
# Poissons Ratio (x) = -0.78802 0.63912
# Poissons Ratio (y) = -0.27009 0.14106
# Poissons Ratio (z) = 0.09257 0.05961
#
# Static dielectric constant tensor:
#      x y z
#    x 1.754450 0.000000 0.000000 
#    y 0.000000 1.737140 0.000000 
#    z 0.000000 0.000000 1.740300 
# 
# From -- ./inp_files/36222.got.cif
#   From: 2010.05.17/outbox.cif.g08.bks.cpg/sg70_19_cif.got.tgz:36222.got - 2010.06.03 15:57:51.
