data_PCOD9514626
_publ_section_title
;
Structure prediction by ZEFSAII (Michael W. Deem and Ramdas Pophale) SiO2 
 PCOD9514626
Probable space group: F D D D
;
_chemical_formula_sum "Si O2"
_cell_formula_units_Z 168
_cell_length_a 33.003909
_cell_length_b 18.744869
_cell_length_c 12.896186
_cell_angle_alpha 90.000000
_cell_angle_beta 90.000000
_cell_angle_gamma 90.000000
_cell_volume 7978.276418
_symmetry_space_group_name_H-M "F D D D"
_symmetry_group_IT_number 70
_space_group.IT_coordinate_system_code '2'
_symmetry_cell_setting 'orthorhombic'
loop_
_space_group_symop_operation_xyz
x,y,z
1/4-x,1/4-y,z
x,1/4-y,1/4-z
1/4-x,y,1/4-z
-x,-y,-z
3/4+x,3/4+y,-z
-x,3/4+y,3/4+z
3/4+x,-y,3/4+z
x,1/2+y,1/2+z
1/4-x,3/4-y,1/2+z
x,3/4-y,3/4-z
1/4-x,1/2+y,3/4-z
-x,1/2-y,1/2-z
3/4+x,1/4+y,1/2-z
-x,1/4+y,1/4+z
3/4+x,1/2-y,1/4+z
1/2+x,y,1/2+z
3/4-x,1/4-y,1/2+z
1/2+x,1/4-y,3/4-z
3/4-x,y,3/4-z
1/2-x,-y,1/2-z
1/4+x,3/4+y,1/2-z
1/2-x,3/4+y,1/4+z
1/4+x,-y,1/4+z
1/2+x,1/2+y,z
3/4-x,3/4-y,z
1/2+x,3/4-y,1/4-z
3/4-x,1/2+y,1/4-z
1/2-x,1/2-y,-z
1/4+x,1/4+y,-z
1/2-x,1/4+y,3/4+z
1/4+x,1/2-y,3/4+z
loop_
_atom_site_type_symbol
_atom_site_label
_atom_site_fract_x
_atom_site_fract_y
_atom_site_fract_z
Si Si1 0.670045 0.461825 0.793573
Si Si2 0.166581 0.519925 0.963218
Si Si3 0.502055 0.191703 0.547445
Si Si4 0.375000 0.875000 0.875000
Si Si5 0.210777 0.645940 0.920675
Si Si6 0.459929 0.580895 0.762144
O O1 0.622536 0.472497 0.809175
O O2 0.689406 0.538673 0.772009
O O3 0.681863 0.399673 0.712493
O O4 0.690781 0.443797 0.903797
O O5 0.206418 0.471326 0.965420
O O6 0.179164 0.584658 0.886876
O O7 0.152777 0.570128 0.059222
O O8 0.503917 0.125000 0.625000
O O9 0.516568 0.169283 0.433373
O O10 0.531257 0.259274 0.578350
O O11 0.245108 0.613577 0.995078
#
# Coordination Sequence:
#
# PCOD9514626 Si02
#       6
#    32  32  32   8  32  32
#     4  10  19  38  61  94 130 163 212 271 344 387
#     4  11  24  39  65  97 135 171 211 280 331 406
#     4  10  24  42  64  89 128 180 229 266 324 398
#     4  12  24  40  60 108 134 156 218 268 364 388
#     4  10  20  40  63  89 128 174 212 273 334 395
#     4   9  21  34  62  92 121 165 219 268 326 401
#
# _framework density 21.057179000000001
#
# number of rings (size 3 to 8) (size 9 to 14) (size 15 to 20)
#    0.000    1.905    1.905    0.571    5.333   12.190 
#    0.000    0.000    4.190    8.000    0.000    0.000 
#    0.000    0.000    0.000    0.000    0.000    0.000 
#
# Total GULP energy -233812.271910 kJ/mol
# GULP energy per Si atom -5566.958855 kJ/mol
# Density = 2.100925 g / cm^3
# Si number density = 21.057179 Si / 1000 Ang^3
#
#
#
# Elastic Constant Matrix: (Units=GPa)
#
#
# Indices 1 2 3 4 5 6 
#
# 1 132.3995 88.0218 27.3354 0.0000 0.0000 0.0000
# 2 88.0218 175.3412 36.0108 0.0000 0.0000 0.0000
# 3 27.3354 36.0108 44.4182 0.0000 0.0000 0.0000
# 4 0.0000 0.0000 0.0000 25.8518 0.0000 0.0000
# 5 0.0000 0.0000 0.0000 0.0000 11.7042 0.0000
# 6 0.0000 0.0000 0.0000 0.0000 0.0000 40.8180
#
#
#
# Elastic Compliance Matrix: (Units=1/GPa)
#
#
# Indices 1 2 3 4 5 6 
#
# 1 0.011642 -0.005246 -0.002911 0.000000 0.000000 0.000000
# 2 -0.005246 0.009207 -0.004235 0.000000 0.000000 0.000000
# 3 -0.002911 -0.004235 0.027739 0.000000 0.000000 0.000000
# 4 0.000000 0.000000 0.000000 0.038682 0.000000 0.000000
# 5 0.000000 0.000000 0.000000 0.000000 0.085439 0.000000
# 6 0.000000 0.000000 0.000000 0.000000 0.000000 0.024499
#
#
# Mechanical properties :
#
#
# Convention : Reuss Voigt Hill
#
# Bulk Modulus (GPa) = 42.01456 72.76609 57.39032
# Shear Modulus (GPa) = 21.74603 29.06086 25.40345
#
# Velocity S-wave (km/s) = 3.21707 3.71899 3.47710
# Velocity P-wave (km/s) = 5.81337 7.28510 6.59045
#
# Compressibility (1/GPa) = 0.02380127
#
# Stress axis : x y z
#
# Youngs Moduli (GPa) = 85.89731 108.61665 36.05082
#
# Poissons Ratio (x) = 0.56984 0.10495
# Poissons Ratio (y) = 0.45065 0.15269
# Poissons Ratio (z) = 0.25006 0.46004
#
# Static dielectric constant tensor:
#      x y z
#    x 1.777090 0.000000 0.000000 
#    y 0.000000 1.897960 0.000000 
#    z 0.000000 0.000000 1.780680 
# 
# From -- ./inp_files/31092.got.cif
#   From: 2010.05.17/outbox.cif.g08.bks.cpg/sg70_16_cif.got.tgz:31092.got - 2010.06.03 15:57:51.
