data_PCOD9514918
_publ_section_title
;
Structure prediction by ZEFSAII (Michael W. Deem and Ramdas Pophale) SiO2 
 PCOD9514918
Probable space group: F D D D
;
_chemical_formula_sum "Si O2"
_cell_formula_units_Z 240
_cell_length_a 16.281313
_cell_length_b 27.193670
_cell_length_c 27.716333
_cell_angle_alpha 90.000000
_cell_angle_beta 90.000000
_cell_angle_gamma 90.000000
_cell_volume 12271.369099
_symmetry_space_group_name_H-M "F D D D"
_symmetry_group_IT_number 70
_space_group.IT_coordinate_system_code '2'
_symmetry_cell_setting 'orthorhombic'
loop_
_space_group_symop_operation_xyz
x,y,z
1/4-x,1/4-y,z
x,1/4-y,1/4-z
1/4-x,y,1/4-z
-x,-y,-z
3/4+x,3/4+y,-z
-x,3/4+y,3/4+z
3/4+x,-y,3/4+z
x,1/2+y,1/2+z
1/4-x,3/4-y,1/2+z
x,3/4-y,3/4-z
1/4-x,1/2+y,3/4-z
-x,1/2-y,1/2-z
3/4+x,1/4+y,1/2-z
-x,1/4+y,1/4+z
3/4+x,1/2-y,1/4+z
1/2+x,y,1/2+z
3/4-x,1/4-y,1/2+z
1/2+x,1/4-y,3/4-z
3/4-x,y,3/4-z
1/2-x,-y,1/2-z
1/4+x,3/4+y,1/2-z
1/2-x,3/4+y,1/4+z
1/4+x,-y,1/4+z
1/2+x,1/2+y,z
3/4-x,3/4-y,z
1/2+x,3/4-y,1/4-z
3/4-x,1/2+y,1/4-z
1/2-x,1/2-y,-z
1/4+x,1/4+y,-z
1/2-x,1/4+y,3/4+z
1/4+x,1/2-y,3/4+z
loop_
_atom_site_type_symbol
_atom_site_label
_atom_site_fract_x
_atom_site_fract_y
_atom_site_fract_z
Si Si1 0.140693 0.374656 0.072601
Si Si2 0.832136 0.520462 0.425881
Si Si3 0.102783 0.740936 0.925065
Si Si4 0.556527 0.429119 0.360113
Si Si5 0.319867 0.829137 0.592077
Si Si6 0.154217 0.476720 0.030655
Si Si7 0.125000 0.213681 0.625000
Si Si8 0.097455 0.752180 0.469383
O O1 0.125000 0.398501 0.125000
O O2 0.077271 0.329742 0.066338
O O3 0.227695 0.346737 0.080514
O O4 0.137358 0.418218 0.034059
O O5 0.875000 0.511915 0.375000
O O6 0.743551 0.495613 0.423023
O O7 0.873190 0.502981 0.475095
O O8 0.157250 0.779298 0.895622
O O9 0.099129 0.689322 0.895569
O O10 0.123659 0.746030 0.981592
O O11 0.583110 0.375000 0.375000
O O12 0.457889 0.433492 0.364421
O O13 0.588991 0.445358 0.307329
O O14 0.375000 0.875000 0.578247
O O15 0.341750 0.782332 0.559827
O O16 0.114862 0.503095 0.077068
O O17 0.253587 0.482022 0.034568
#
# Coordination Sequence:
#
# PCOD9514918 Si02
#       8
#    32  32  32  32  32  32  16  32
#     4  11  20  34  62  89 116 164 205 253 303 367
#     4  10  20  39  60  87 124 162 201 254 303 368
#     4  10  22  39  58  92 128 153 201 261 309 352
#     4  10  22  40  59  85 118 164 203 253 305 374
#     4  11  20  38  61  91 119 158 209 255 304 367
#     4  10  20  37  59  88 122 159 196 260 303 361
#     4  10  21  40  62  80 118 156 214 248 305 366
#     4   9  21  37  60  87 122 158 204 255 304 361
#
# _framework density 19.55772
#
# number of rings (size 3 to 8) (size 9 to 14) (size 15 to 20)
#    0.000    1.867    4.667    0.200    1.867    1.067 
#    0.000    4.000    0.000    0.000    0.000    0.000 
#    0.000    0.000    0.000    0.000    0.000    0.000 
#
# Total GULP energy -334143.951637 kJ/mol
# GULP energy per Si atom -5569.065861 kJ/mol
# Density = 1.951321 g / cm^3
# Si number density = 19.557720 Si / 1000 Ang^3
#
#
#
# Elastic Constant Matrix: (Units=GPa)
#
#
# Indices 1 2 3 4 5 6 
#
# 1 33.5300 18.0862 7.6558 0.0000 0.0000 0.0000
# 2 18.0862 68.0877 14.9046 0.0000 0.0000 0.0000
# 3 7.6558 14.9046 125.2907 0.0000 0.0000 0.0000
# 4 0.0000 0.0000 0.0000 11.9441 0.0000 0.0000
# 5 0.0000 0.0000 0.0000 0.0000 19.2718 0.0000
# 6 0.0000 0.0000 0.0000 0.0000 0.0000 11.1413
#
#
#
# Elastic Compliance Matrix: (Units=1/GPa)
#
#
# Indices 1 2 3 4 5 6 
#
# 1 0.034948 -0.009052 -0.001059 0.000000 0.000000 0.000000
# 2 -0.009052 0.017424 -0.001520 0.000000 0.000000 0.000000
# 3 -0.001059 -0.001520 0.008227 0.000000 0.000000 0.000000
# 4 0.000000 0.000000 0.000000 0.083723 0.000000 0.000000
# 5 0.000000 0.000000 0.000000 0.000000 0.051889 0.000000
# 6 0.000000 0.000000 0.000000 0.000000 0.000000 0.089756
#
#
# Mechanical properties :
#
#
# Convention : Reuss Voigt Hill
#
# Bulk Modulus (GPa) = 26.78150 34.24462 30.51306
# Shear Modulus (GPa) = 15.54368 20.88890 18.21629
#
# Velocity S-wave (km/s) = 2.82221 3.27167 3.05521
# Velocity P-wave (km/s) = 4.93387 5.64086 5.29917
#
# Compressibility (1/GPa) = 0.03733921
#
# Stress axis : x y z
#
# Youngs Moduli (GPa) = 28.61369 57.39209 121.55235
#
# Poissons Ratio (x) = 0.51949 0.12869
# Poissons Ratio (y) = 0.25900 0.18472
# Poissons Ratio (z) = 0.03029 0.08722
#
# Static dielectric constant tensor:
#      x y z
#    x 1.711660 0.000000 0.000000 
#    y 0.000000 1.670710 0.000000 
#    z 0.000000 0.000000 1.740160 
# 
# From -- ./inp_files/59823.got.cif
#   From: 2010.05.17/outbox.cif.g08.bks.cpg/sg70_30_cif.got.tgz:59823.got - 2010.06.03 15:57:51.
