data_PCOD9514881
_publ_section_title
;
Structure prediction by ZEFSAII (Michael W. Deem and Ramdas Pophale) SiO2 
 PCOD9514881
Probable space group: F D D D
;
_chemical_formula_sum "Si O2"
_cell_formula_units_Z 192
_cell_length_a 28.652648
_cell_length_b 11.638184
_cell_length_c 25.260732
_cell_angle_alpha 90.000000
_cell_angle_beta 90.000000
_cell_angle_gamma 90.000000
_cell_volume 8423.564679
_symmetry_space_group_name_H-M "F D D D"
_symmetry_group_IT_number 70
_space_group.IT_coordinate_system_code '2'
_symmetry_cell_setting 'orthorhombic'
loop_
_space_group_symop_operation_xyz
x,y,z
1/4-x,1/4-y,z
x,1/4-y,1/4-z
1/4-x,y,1/4-z
-x,-y,-z
3/4+x,3/4+y,-z
-x,3/4+y,3/4+z
3/4+x,-y,3/4+z
x,1/2+y,1/2+z
1/4-x,3/4-y,1/2+z
x,3/4-y,3/4-z
1/4-x,1/2+y,3/4-z
-x,1/2-y,1/2-z
3/4+x,1/4+y,1/2-z
-x,1/4+y,1/4+z
3/4+x,1/2-y,1/4+z
1/2+x,y,1/2+z
3/4-x,1/4-y,1/2+z
1/2+x,1/4-y,3/4-z
3/4-x,y,3/4-z
1/2-x,-y,1/2-z
1/4+x,3/4+y,1/2-z
1/2-x,3/4+y,1/4+z
1/4+x,-y,1/4+z
1/2+x,1/2+y,z
3/4-x,3/4-y,z
1/2+x,3/4-y,1/4-z
3/4-x,1/2+y,1/4-z
1/2-x,1/2-y,-z
1/4+x,1/4+y,-z
1/2-x,1/4+y,3/4+z
1/4+x,1/2-y,3/4+z
loop_
_atom_site_type_symbol
_atom_site_label
_atom_site_fract_x
_atom_site_fract_y
_atom_site_fract_z
Si Si1 0.875000 0.375000 0.792108
Si Si2 0.528360 0.981238 0.946678
Si Si3 0.270430 0.366699 0.817693
Si Si4 0.686156 0.200755 0.347975
Si Si5 0.869180 0.597787 0.717974
Si Si6 0.706767 0.625000 0.625000
Si Si7 0.940165 0.797964 0.715801
O O1 0.869550 0.497515 0.762451
O O2 0.828616 0.352190 0.827140
O O3 0.565532 0.878656 0.952795
O O4 0.492389 0.969291 0.898343
O O5 0.561533 0.089437 0.937706
O O6 0.500000 0.000000 0.000000
O O7 0.295923 0.375000 0.875000
O O8 0.234382 0.264607 0.831334
O O9 0.300482 0.365022 0.764073
O O10 0.236315 0.473747 0.802052
O O11 0.647058 0.290417 0.330802
O O12 0.678049 0.158098 0.407427
O O13 0.900278 0.707529 0.733292
#
# Coordination Sequence:
#
# PCOD9514881 Si02
#       7
#    16  32  32  32  32  16  32
#     4  11  22  44  64  90 128 178 221 280 336 416
#     4  12  24  41  63  96 129 173 219 281 337 403
#     4   8  16  33  57  94 131 167 216 259 324 405
#     4  10  20  36  63  93 133 171 216 278 339 401
#     4  11  20  40  63  90 135 170 221 270 344 394
#     4  11  26  40  64  96 128 170 230 272 344 411
#     4   9  19  32  60  97 124 172 215 267 332 401
#
# _framework density 22.793201
#
# number of rings (size 3 to 8) (size 9 to 14) (size 15 to 20)
#    0.000    1.833    3.333    1.500    2.333    6.667 
#    0.000    0.000    0.000    0.000    0.000    8.167 
#    0.000    0.000    0.000    0.000    0.000    0.000 
#
# Total GULP energy -267434.726987 kJ/mol
# GULP energy per Si atom -5571.556812 kJ/mol
# Density = 2.274132 g / cm^3
# Si number density = 22.793201 Si / 1000 Ang^3
#
#
#
# Elastic Constant Matrix: (Units=GPa)
#
#
# Indices 1 2 3 4 5 6 
#
# 1 101.2411 21.1859 54.5793 0.0000 0.0000 0.0000
# 2 21.1859 46.8334 52.3166 0.0000 0.0000 0.0000
# 3 54.5793 52.3166 157.8238 0.0000 0.0000 0.0000
# 4 0.0000 0.0000 0.0000 34.3905 0.0000 0.0000
# 5 0.0000 0.0000 0.0000 0.0000 13.3943 0.0000
# 6 0.0000 0.0000 0.0000 0.0000 0.0000 14.4114
#
#
#
# Elastic Compliance Matrix: (Units=1/GPa)
#
#
# Indices 1 2 3 4 5 6 
#
# 1 0.012189 -0.001279 -0.003791 0.000000 0.000000 0.000000
# 2 -0.001279 0.034043 -0.010843 0.000000 0.000000 0.000000
# 3 -0.003791 -0.010843 0.011242 0.000000 0.000000 0.000000
# 4 0.000000 0.000000 0.000000 0.029078 0.000000 0.000000
# 5 0.000000 0.000000 0.000000 0.000000 0.074658 0.000000
# 6 0.000000 0.000000 0.000000 0.000000 0.000000 0.069390
#
#
# Mechanical properties :
#
#
# Convention : Reuss Voigt Hill
#
# Bulk Modulus (GPa) = 38.98931 62.45131 50.72031
# Shear Modulus (GPa) = 18.45200 24.29368 21.37284
#
# Velocity S-wave (km/s) = 2.84833 3.26825 3.06549
# Velocity P-wave (km/s) = 5.28773 6.45759 5.90172
#
# Compressibility (1/GPa) = 0.02564806
#
# Stress axis : x y z
#
# Youngs Moduli (GPa) = 82.04176 29.37490 88.95602
#
# Poissons Ratio (x) = 0.03756 0.33727
# Poissons Ratio (y) = 0.10490 0.96451
# Poissons Ratio (z) = 0.31105 0.31850
#
# Static dielectric constant tensor:
#      x y z
#    x 1.982800 0.000000 0.000000 
#    y 0.000000 1.932560 0.000000 
#    z 0.000000 0.000000 1.917700 
# 
# From -- ./inp_files/62241.got.cif
#   From: 2010.05.17/outbox.cif.g08.bks.cpg/sg70_32_cif.got.tgz:62241.got - 2010.06.03 15:57:51.
