data_PCOD9514950
_publ_section_title
;
Structure prediction by ZEFSAII (Michael W. Deem and Ramdas Pophale) SiO2 
 PCOD9514950
Probable space group: F D D D
;
_chemical_formula_sum "Si O2"
_cell_formula_units_Z 208
_cell_length_a 17.257149
_cell_length_b 24.295582
_cell_length_c 19.278264
_cell_angle_alpha 90.000000
_cell_angle_beta 90.000000
_cell_angle_gamma 90.000000
_cell_volume 8082.845531
_symmetry_space_group_name_H-M "F D D D"
_symmetry_group_IT_number 70
_space_group.IT_coordinate_system_code '2'
_symmetry_cell_setting 'orthorhombic'
loop_
_space_group_symop_operation_xyz
x,y,z
1/4-x,1/4-y,z
x,1/4-y,1/4-z
1/4-x,y,1/4-z
-x,-y,-z
3/4+x,3/4+y,-z
-x,3/4+y,3/4+z
3/4+x,-y,3/4+z
x,1/2+y,1/2+z
1/4-x,3/4-y,1/2+z
x,3/4-y,3/4-z
1/4-x,1/2+y,3/4-z
-x,1/2-y,1/2-z
3/4+x,1/4+y,1/2-z
-x,1/4+y,1/4+z
3/4+x,1/2-y,1/4+z
1/2+x,y,1/2+z
3/4-x,1/4-y,1/2+z
1/2+x,1/4-y,3/4-z
3/4-x,y,3/4-z
1/2-x,-y,1/2-z
1/4+x,3/4+y,1/2-z
1/2-x,3/4+y,1/4+z
1/4+x,-y,1/4+z
1/2+x,1/2+y,z
3/4-x,3/4-y,z
1/2+x,3/4-y,1/4-z
3/4-x,1/2+y,1/4-z
1/2-x,1/2-y,-z
1/4+x,1/4+y,-z
1/2-x,1/4+y,3/4+z
1/4+x,1/2-y,3/4+z
loop_
_atom_site_type_symbol
_atom_site_label
_atom_site_fract_x
_atom_site_fract_y
_atom_site_fract_z
Si Si1 0.875000 0.782147 0.875000
Si Si2 0.839604 0.991767 0.737319
Si Si3 0.709588 0.286357 0.859607
Si Si4 0.255500 0.125000 0.125000
Si Si5 0.372784 0.165907 0.517031
Si Si6 0.643785 0.038211 0.042041
Si Si7 0.125000 0.625000 0.428891
Si Si8 0.267221 0.330975 0.567896
O O1 0.867801 0.744412 0.808177
O O2 0.800576 0.822141 0.880950
O O3 0.862222 0.928464 0.723982
O O4 0.750000 0.000000 0.750000
O O5 0.876373 0.022862 0.673128
O O6 0.690198 0.326095 0.921883
O O7 0.766906 0.306339 0.799449
O O8 0.740055 0.229654 0.895745
O O9 0.307084 0.115316 0.055001
O O10 0.397509 0.226765 0.490258
O O11 0.316291 0.147330 0.455450
O O12 0.625000 0.042018 0.125000
O O13 0.581953 0.069829 0.993128
O O14 0.052990 0.631500 0.377300
#
# Coordination Sequence:
#
# PCOD9514950 Si02
#       8
#    16  32  32  16  32  32  16  32
#     4  11  24  48  64  92 128 174 234 294 352 422
#     4  11  24  44  72  97 130 182 237 294 364 432
#     4  10  20  37  63  92 126 166 219 283 338 427
#     4  11  24  38  62  87 132 180 220 285 358 416
#     4  11  21  37  58  94 125 165 225 271 334 430
#     4  11  18  35  63  90 123 174 222 275 351 429
#     4  10  24  43  63  98 144 182 226 300 368 424
#     4  10  21  38  60  91 133 167 216 283 353 418
#
# _framework density 25.733512000000001
#
# number of rings (size 3 to 8) (size 9 to 14) (size 15 to 20)
#    0.000    1.385    3.077    3.692    0.000    4.923 
#    0.000    1.538    0.000    1.846    0.000    0.000 
#    0.000    0.000    0.000    0.000    0.000    0.000 
#
# Total GULP energy -290812.643030 kJ/mol
# GULP energy per Si atom -5592.550828 kJ/mol
# Density = 2.567494 g / cm^3
# Si number density = 25.733512 Si / 1000 Ang^3
#
#
#
# Elastic Constant Matrix: (Units=GPa)
#
#
# Indices 1 2 3 4 5 6 
#
# 1 141.5806 8.4362 37.7404 0.0000 0.0000 0.0000
# 2 8.4362 49.2378 11.0237 0.0000 0.0000 0.0000
# 3 37.7404 11.0237 121.7883 0.0000 0.0000 0.0000
# 4 0.0000 0.0000 0.0000 19.2989 0.0000 0.0000
# 5 0.0000 0.0000 0.0000 0.0000 45.1390 0.0000
# 6 0.0000 0.0000 0.0000 0.0000 0.0000 19.6272
#
#
#
# Elastic Compliance Matrix: (Units=1/GPa)
#
#
# Indices 1 2 3 4 5 6 
#
# 1 0.007730 -0.000804 -0.002323 0.000000 0.000000 0.000000
# 2 -0.000804 0.020813 -0.001635 0.000000 0.000000 0.000000
# 3 -0.002323 -0.001635 0.009079 0.000000 0.000000 0.000000
# 4 0.000000 0.000000 0.000000 0.051816 0.000000 0.000000
# 5 0.000000 0.000000 0.000000 0.000000 0.022154 0.000000
# 6 0.000000 0.000000 0.000000 0.000000 0.000000 0.050950
#
#
# Mechanical properties :
#
#
# Convention : Reuss Voigt Hill
#
# Bulk Modulus (GPa) = 35.58871 47.44525 41.51698
# Shear Modulus (GPa) = 27.55854 33.84012 30.69933
#
# Velocity S-wave (km/s) = 3.27604 3.63026 3.45769
# Velocity P-wave (km/s) = 5.30751 6.00407 5.66650
#
# Compressibility (1/GPa) = 0.02809880
#
# Stress axis : x y z
#
# Youngs Moduli (GPa) = 129.36293 48.04594 110.14811
#
# Poissons Ratio (x) = 0.03865 0.25584
# Poissons Ratio (y) = 0.10407 0.18005
# Poissons Ratio (z) = 0.30047 0.07854
#
# Static dielectric constant tensor:
#      x y z
#    x 2.197460 0.000000 0.000000 
#    y 0.000000 2.052340 0.000000 
#    z 0.000000 0.000000 2.119660 
# 
# From -- ./inp_files/43993.got.cif
#   From: 2010.05.17/outbox.cif.g08.bks.cpg/sg70_22_cif.got.tgz:43993.got - 2010.06.03 15:57:51.
