data_PCOD9514324
_publ_section_title
;
Structure prediction by ZEFSAII (Michael W. Deem and Ramdas Pophale) SiO2 
 PCOD9514324
Probable space group: F D D D
;
_chemical_formula_sum "Si O2"
_cell_formula_units_Z 176
_cell_length_a 14.670359
_cell_length_b 23.276416
_cell_length_c 24.315746
_cell_angle_alpha 90.000000
_cell_angle_beta 90.000000
_cell_angle_gamma 90.000000
_cell_volume 8303.179948
_symmetry_space_group_name_H-M "F D D D"
_symmetry_group_IT_number 70
_space_group.IT_coordinate_system_code '2'
_symmetry_cell_setting 'orthorhombic'
loop_
_space_group_symop_operation_xyz
x,y,z
1/4-x,1/4-y,z
x,1/4-y,1/4-z
1/4-x,y,1/4-z
-x,-y,-z
3/4+x,3/4+y,-z
-x,3/4+y,3/4+z
3/4+x,-y,3/4+z
x,1/2+y,1/2+z
1/4-x,3/4-y,1/2+z
x,3/4-y,3/4-z
1/4-x,1/2+y,3/4-z
-x,1/2-y,1/2-z
3/4+x,1/4+y,1/2-z
-x,1/4+y,1/4+z
3/4+x,1/2-y,1/4+z
1/2+x,y,1/2+z
3/4-x,1/4-y,1/2+z
1/2+x,1/4-y,3/4-z
3/4-x,y,3/4-z
1/2-x,-y,1/2-z
1/4+x,3/4+y,1/2-z
1/2-x,3/4+y,1/4+z
1/4+x,-y,1/4+z
1/2+x,1/2+y,z
3/4-x,3/4-y,z
1/2+x,3/4-y,1/4-z
3/4-x,1/2+y,1/4-z
1/2-x,1/2-y,-z
1/4+x,1/4+y,-z
1/2-x,1/4+y,3/4+z
1/4+x,1/2-y,3/4+z
loop_
_atom_site_type_symbol
_atom_site_label
_atom_site_fract_x
_atom_site_fract_y
_atom_site_fract_z
Si Si1 0.040431 0.913374 0.957382
Si Si2 0.559274 0.957573 0.343626
Si Si3 0.625000 0.891807 0.125000
Si Si4 0.704500 0.308627 0.720450
Si Si5 0.875000 0.875000 0.716356
Si Si6 0.305461 0.954355 0.624857
Si Si7 0.875000 0.875000 0.222481
O O1 0.009459 0.945055 0.901681
O O2 0.077254 0.851439 0.937651
O O3 0.958048 0.894990 0.996209
O O4 0.119183 0.948202 0.989053
O O5 0.499066 0.002076 0.307549
O O6 0.656993 0.983365 0.361666
O O7 0.664354 0.850000 0.172210
O O8 0.705071 0.935152 0.107874
O O9 0.789906 0.341888 0.749373
O O10 0.886865 0.927744 0.674499
O O11 0.329385 0.920784 0.681052
#
# Coordination Sequence:
#
# PCOD9514324 Si02
#       7
#    32  32  16  32  16  32  16
#     4  11  25  42  61  94 139 169 221 275 323 397
#     4  10  25  43  60  97 136 169 218 279 328 385
#     4  10  18  36  68  98 120 168 230 264 312 404
#     4  10  20  39  65  89 129 178 211 271 336 381
#     4  11  22  39  62  93 124 171 228 259 315 412
#     4   9  18  38  61  91 127 163 217 268 314 385
#     4   7  16  34  58  90 118 154 216 266 297 384
#
# _framework density 21.196698000000001
#
# number of rings (size 3 to 8) (size 9 to 14) (size 15 to 20)
#    0.000    2.182    1.818    1.091    2.545    3.636 
#    0.000   10.000    0.000    2.182    0.000    0.000 
#    0.000    0.000    0.000    0.000    0.000    0.000 
#
# Total GULP energy -245257.215636 kJ/mol
# GULP energy per Si atom -5574.027628 kJ/mol
# Density = 2.114845 g / cm^3
# Si number density = 21.196698 Si / 1000 Ang^3
#
#
#
# Elastic Constant Matrix: (Units=GPa)
#
#
# Indices 1 2 3 4 5 6 
#
# 1 42.4517 29.7402 2.3264 0.0000 0.0000 0.0000
# 2 29.7402 86.2068 27.3660 0.0000 0.0000 0.0000
# 3 2.3264 27.3660 44.5306 0.0000 0.0000 0.0000
# 4 0.0000 0.0000 0.0000 64.2960 0.0000 0.0000
# 5 0.0000 0.0000 0.0000 0.0000 5.5954 0.0000
# 6 0.0000 0.0000 0.0000 0.0000 0.0000 -8.1520
#
#
#
# Elastic Compliance Matrix: (Units=1/GPa)
#
#
# Indices 1 2 3 4 5 6 
#
# 1 0.032489 -0.013255 0.006449 0.000000 0.000000 0.000000
# 2 -0.013255 0.019820 -0.011488 0.000000 0.000000 0.000000
# 3 0.006449 -0.011488 0.029179 0.000000 0.000000 0.000000
# 4 0.000000 0.000000 0.000000 0.015553 0.000000 0.000000
# 5 0.000000 0.000000 0.000000 0.000000 0.178720 0.000000
# 6 0.000000 0.000000 0.000000 0.000000 0.000000 -0.122670
#
#
# Mechanical properties :
#
#
# Convention : Reuss Voigt Hill
#
# Bulk Modulus (GPa) = 22.27199 32.45049 27.36124
# Shear Modulus (GPa) = 24.43248 19.93166 22.18207
#
# Velocity S-wave (km/s) = 3.39876 3.06979 3.23845
# Velocity P-wave (km/s) = 5.09237 5.28273 5.18842
#
# Compressibility (1/GPa) = 0.04489945
#
# Stress axis : x y z
#
# Youngs Moduli (GPa) = 30.77957 50.45499 34.27100
#
# Poissons Ratio (x) = 0.66880 -0.22101
# Poissons Ratio (y) = 0.40800 0.39369
# Poissons Ratio (z) = -0.19849 0.57961
#
# Static dielectric constant tensor:
#      x y z
#    x 1.810010 0.000000 0.000000 
#    y 0.000000 1.787400 0.000000 
#    z 0.000000 0.000000 1.777500 
# 
# From -- ./inp_files/51235.got.cif
#   From: 2010.05.17/outbox.cif.g08.bks.cpg/sg70_26_cif.got.tgz:51235.got - 2010.06.03 15:57:51.
