data_PCOD9514815
_publ_section_title
;
Structure prediction by ZEFSAII (Michael W. Deem and Ramdas Pophale) SiO2 
 PCOD9514815
Probable space group: F D D D
;
_chemical_formula_sum "Si O2"
_cell_formula_units_Z 136
_cell_length_a 24.792526
_cell_length_b 19.136988
_cell_length_c 12.961495
_cell_angle_alpha 90.000000
_cell_angle_beta 90.000000
_cell_angle_gamma 90.000000
_cell_volume 6149.636681
_symmetry_space_group_name_H-M "F D D D"
_symmetry_group_IT_number 70
_space_group.IT_coordinate_system_code '2'
_symmetry_cell_setting 'orthorhombic'
loop_
_space_group_symop_operation_xyz
x,y,z
1/4-x,1/4-y,z
x,1/4-y,1/4-z
1/4-x,y,1/4-z
-x,-y,-z
3/4+x,3/4+y,-z
-x,3/4+y,3/4+z
3/4+x,-y,3/4+z
x,1/2+y,1/2+z
1/4-x,3/4-y,1/2+z
x,3/4-y,3/4-z
1/4-x,1/2+y,3/4-z
-x,1/2-y,1/2-z
3/4+x,1/4+y,1/2-z
-x,1/4+y,1/4+z
3/4+x,1/2-y,1/4+z
1/2+x,y,1/2+z
3/4-x,1/4-y,1/2+z
1/2+x,1/4-y,3/4-z
3/4-x,y,3/4-z
1/2-x,-y,1/2-z
1/4+x,3/4+y,1/2-z
1/2-x,3/4+y,1/4+z
1/4+x,-y,1/4+z
1/2+x,1/2+y,z
3/4-x,3/4-y,z
1/2+x,3/4-y,1/4-z
3/4-x,1/2+y,1/4-z
1/2-x,1/2-y,-z
1/4+x,1/4+y,-z
1/2-x,1/4+y,3/4+z
1/4+x,1/2-y,3/4+z
loop_
_atom_site_type_symbol
_atom_site_label
_atom_site_fract_x
_atom_site_fract_y
_atom_site_fract_z
Si Si1 0.288282 0.742181 0.651601
Si Si2 0.685013 0.413480 0.604304
Si Si3 0.375000 0.875000 0.875000
Si Si4 0.478450 0.359299 0.264207
Si Si5 0.824656 0.499437 0.315608
O O1 0.300953 0.688457 0.740747
O O2 0.282778 0.816966 0.707665
O O3 0.232487 0.717921 0.598313
O O4 0.329871 0.750109 0.557515
O O5 0.625000 0.440469 0.625000
O O6 0.731866 0.431869 0.687190
O O7 0.680764 0.329626 0.602733
O O8 0.418499 0.915249 0.948244
O O9 0.506572 0.375000 0.375000
O O10 0.875000 0.467434 0.375000
#
# Coordination Sequence:
#
# PCOD9514815 Si02
#       5
#    32  32   8  32  32
#     4  10  20  35  59  83 110 152 196 232 292 350
#     4  10  21  34  58  88 114 149 194 242 292 346
#     4   8  20  40  52  68 126 148 188 242 284 356
#     4   9  21  38  54  82 118 155 191 245 291 346
#     4   9  20  38  55  83 117 146 189 244 290 344
#
# _framework density 22.115127999999999
#
# number of rings (size 3 to 8) (size 9 to 14) (size 15 to 20)
#    0.706    1.882    0.000    0.706    1.647    8.471 
#    0.000    0.000    0.000   12.706    0.000    0.000 
#    0.000    0.000    0.000    0.000    0.000    0.000 
#
# Total GULP energy -189472.436913 kJ/mol
# GULP energy per Si atom -5572.718733 kJ/mol
# Density = 2.206479 g / cm^3
# Si number density = 22.115128 Si / 1000 Ang^3
#
#
#
# Elastic Constant Matrix: (Units=GPa)
#
#
# Indices 1 2 3 4 5 6 
#
# 1 122.2924 10.8748 76.2082 0.0000 0.0000 0.0000
# 2 10.8748 18.1352 -18.8815 0.0000 0.0000 0.0000
# 3 76.2082 -18.8815 152.9073 0.0000 0.0000 0.0000
# 4 0.0000 0.0000 0.0000 22.7681 0.0000 0.0000
# 5 0.0000 0.0000 0.0000 0.0000 59.9549 0.0000
# 6 0.0000 0.0000 0.0000 0.0000 0.0000 -4.5744
#
#
#
# Elastic Compliance Matrix: (Units=1/GPa)
#
#
# Indices 1 2 3 4 5 6 
#
# 1 0.017161 -0.022027 -0.011273 0.000000 0.000000 0.000000
# 2 -0.022027 0.091550 0.022283 0.000000 0.000000 0.000000
# 3 -0.011273 0.022283 0.014910 0.000000 0.000000 0.000000
# 4 0.000000 0.000000 0.000000 0.043921 0.000000 0.000000
# 5 0.000000 0.000000 0.000000 0.000000 0.016679 0.000000
# 6 0.000000 0.000000 0.000000 0.000000 0.000000 -0.218607
#
#
# Mechanical properties :
#
#
# Convention : Reuss Voigt Hill
#
# Bulk Modulus (GPa) = 9.84375 47.74864 28.79620
# Shear Modulus (GPa) = 232.44956 30.63862 131.54409
#
# Velocity S-wave (km/s) = 10.26338 3.72615 7.72079
# Velocity P-wave (km/s) = 12.03786 6.33641 9.61926
#
# Compressibility (1/GPa) = 0.10158726
#
# Stress axis : x y z
#
# Youngs Moduli (GPa) = 58.27292 10.92296 67.07008
#
# Poissons Ratio (x) = 0.24060 0.75606
# Poissons Ratio (y) = 1.28358 -1.49453
# Poissons Ratio (z) = 0.65690 -0.24340
#
# Static dielectric constant tensor:
#      x y z
#    x 1.865070 0.000000 0.000000 
#    y 0.000000 1.832650 0.000000 
#    z 0.000000 0.000000 1.800500 
# 
# From -- ./inp_files/20458.got.cif
#   From: 2010.05.17/outbox.cif.g08.bks.cpg/sg70_11_cif.got.tgz:20458.got - 2010.06.03 15:57:51.
