data_PCOD9514522
_publ_section_title
;
Structure prediction by ZEFSAII (Michael W. Deem and Ramdas Pophale) SiO2 
 PCOD9514522
Probable space group: F D D D
;
_chemical_formula_sum "Si O2"
_cell_formula_units_Z 80
_cell_length_a 4.930025
_cell_length_b 39.058716
_cell_length_c 20.694431
_cell_angle_alpha 90.000000
_cell_angle_beta 90.000000
_cell_angle_gamma 90.000000
_cell_volume 3984.928870
_symmetry_space_group_name_H-M "F D D D"
_symmetry_group_IT_number 70
_space_group.IT_coordinate_system_code '2'
_symmetry_cell_setting 'orthorhombic'
loop_
_space_group_symop_operation_xyz
x,y,z
1/4-x,1/4-y,z
x,1/4-y,1/4-z
1/4-x,y,1/4-z
-x,-y,-z
3/4+x,3/4+y,-z
-x,3/4+y,3/4+z
3/4+x,-y,3/4+z
x,1/2+y,1/2+z
1/4-x,3/4-y,1/2+z
x,3/4-y,3/4-z
1/4-x,1/2+y,3/4-z
-x,1/2-y,1/2-z
3/4+x,1/4+y,1/2-z
-x,1/4+y,1/4+z
3/4+x,1/2-y,1/4+z
1/2+x,y,1/2+z
3/4-x,1/4-y,1/2+z
1/2+x,1/4-y,3/4-z
3/4-x,y,3/4-z
1/2-x,-y,1/2-z
1/4+x,3/4+y,1/2-z
1/2-x,3/4+y,1/4+z
1/4+x,-y,1/4+z
1/2+x,1/2+y,z
3/4-x,3/4-y,z
1/2+x,3/4-y,1/4-z
3/4-x,1/2+y,1/4-z
1/2-x,1/2-y,-z
1/4+x,1/4+y,-z
1/2-x,1/4+y,3/4+z
1/4+x,1/2-y,3/4+z
loop_
_atom_site_type_symbol
_atom_site_label
_atom_site_fract_x
_atom_site_fract_y
_atom_site_fract_z
Si Si1 0.625000 0.898024 0.125000
Si Si2 0.489744 0.545164 0.272768
Si Si3 0.974114 0.030762 0.690574
O O1 0.375000 0.875000 0.101233
O O2 0.508965 0.922517 0.180912
O O3 0.186460 0.538869 0.247516
O O4 0.574167 0.510310 0.310108
O O5 0.692525 0.547696 0.211825
O O6 0.125000 0.040923 0.625000
#
# Coordination Sequence:
#
# PCOD9514522 Si02
#       3
#    16  32  32
#     4  12  24  40  60  84 126 166 205 248 291 380
#     4  10  21  35  56  89 117 155 201 239 314 353
#     4  10  19  35  60  86 121 147 191 266 303 356
#
# _framework density 20.075638999999999
#
# number of rings (size 3 to 8) (size 9 to 14) (size 15 to 20)
#    0.000    1.600    2.000    3.600    0.000    0.000 
#    0.000    0.000    0.000   18.000    0.000    0.000 
#    0.000    0.000    0.000    0.000    0.000    0.000 
#
# Total GULP energy -111702.011162 kJ/mol
# GULP energy per Si atom -5585.100558 kJ/mol
# Density = 2.002995 g / cm^3
# Si number density = 20.075639 Si / 1000 Ang^3
#
#
#
# Elastic Constant Matrix: (Units=GPa)
#
#
# Indices 1 2 3 4 5 6 
#
# 1 108.8056 31.1165 12.3998 0.0000 0.0000 0.0000
# 2 31.1165 86.4969 36.9485 0.0000 0.0000 0.0000
# 3 12.3998 36.9485 64.0030 0.0000 0.0000 0.0000
# 4 0.0000 0.0000 0.0000 17.5521 0.0000 0.0000
# 5 0.0000 0.0000 0.0000 0.0000 40.2159 0.0000
# 6 0.0000 0.0000 0.0000 0.0000 0.0000 20.7992
#
#
#
# Elastic Compliance Matrix: (Units=1/GPa)
#
#
# Indices 1 2 3 4 5 6 
#
# 1 0.010246 -0.003767 0.000190 0.000000 0.000000 0.000000
# 2 -0.003767 0.016730 -0.008928 0.000000 0.000000 0.000000
# 3 0.000190 -0.008928 0.020742 0.000000 0.000000 0.000000
# 4 0.000000 0.000000 0.000000 0.056973 0.000000 0.000000
# 5 0.000000 0.000000 0.000000 0.000000 0.024866 0.000000
# 6 0.000000 0.000000 0.000000 0.000000 0.000000 0.048079
#
#
# Mechanical properties :
#
#
# Convention : Reuss Voigt Hill
#
# Bulk Modulus (GPa) = 44.03986 46.69279 45.36632
# Shear Modulus (GPa) = 23.78494 27.63614 25.71054
#
# Velocity S-wave (km/s) = 3.44578 3.71428 3.58255
# Velocity P-wave (km/s) = 6.14945 6.45782 6.30552
#
# Compressibility (1/GPa) = 0.02270670
#
# Stress axis : x y z
#
# Youngs Moduli (GPa) = 97.59522 59.77223 48.21168
#
# Poissons Ratio (x) = 0.22516 -0.00914
# Poissons Ratio (y) = 0.36764 0.43045
# Poissons Ratio (z) = -0.01850 0.53367
#
# Static dielectric constant tensor:
#      x y z
#    x 1.716720 0.000000 0.000000 
#    y 0.000000 1.697050 0.000000 
#    z 0.000000 0.000000 1.745120 
# 
# From -- ./inp_files/48290.got.cif
#   From: 2010.05.17/outbox.cif.g08.bks.cpg/sg70_25_cif.got.tgz:48290.got - 2010.06.03 15:57:51.
