data_PCOD9514238
_publ_section_title
;
Structure prediction by ZEFSAII (Michael W. Deem and Ramdas Pophale) SiO2 
 PCOD9514238
Probable space group: F D D D
;
_chemical_formula_sum "Si O2"
_cell_formula_units_Z 176
_cell_length_a 12.364150
_cell_length_b 33.015445
_cell_length_c 22.234266
_cell_angle_alpha 90.000000
_cell_angle_beta 90.000000
_cell_angle_gamma 90.000000
_cell_volume 9076.203350
_symmetry_space_group_name_H-M "F D D D"
_symmetry_group_IT_number 70
_space_group.IT_coordinate_system_code '2'
_symmetry_cell_setting 'orthorhombic'
loop_
_space_group_symop_operation_xyz
x,y,z
1/4-x,1/4-y,z
x,1/4-y,1/4-z
1/4-x,y,1/4-z
-x,-y,-z
3/4+x,3/4+y,-z
-x,3/4+y,3/4+z
3/4+x,-y,3/4+z
x,1/2+y,1/2+z
1/4-x,3/4-y,1/2+z
x,3/4-y,3/4-z
1/4-x,1/2+y,3/4-z
-x,1/2-y,1/2-z
3/4+x,1/4+y,1/2-z
-x,1/4+y,1/4+z
3/4+x,1/2-y,1/4+z
1/2+x,y,1/2+z
3/4-x,1/4-y,1/2+z
1/2+x,1/4-y,3/4-z
3/4-x,y,3/4-z
1/2-x,-y,1/2-z
1/4+x,3/4+y,1/2-z
1/2-x,3/4+y,1/4+z
1/4+x,-y,1/4+z
1/2+x,1/2+y,z
3/4-x,3/4-y,z
1/2+x,3/4-y,1/4-z
3/4-x,1/2+y,1/4-z
1/2-x,1/2-y,-z
1/4+x,1/4+y,-z
1/2-x,1/4+y,3/4+z
1/4+x,1/2-y,3/4+z
loop_
_atom_site_type_symbol
_atom_site_label
_atom_site_fract_x
_atom_site_fract_y
_atom_site_fract_z
Si Si1 0.104777 0.195669 0.729421
Si Si2 0.917276 0.024130 0.115861
Si Si3 0.091416 0.348123 0.815948
Si Si4 0.375000 0.532464 0.875000
Si Si5 0.855993 0.675552 0.748335
Si Si6 0.278582 0.025456 0.838853
O O1 0.228320 0.183333 0.735725
O O2 0.088055 0.239660 0.699031
O O3 0.032911 0.164876 0.691065
O O4 0.041706 0.198181 0.792940
O O5 0.905353 0.056791 0.170174
O O6 0.809220 0.996925 0.119335
O O7 0.917916 0.048220 0.052758
O O8 0.020024 0.996188 0.125996
O O9 0.103218 0.375000 0.875000
O O10 0.126920 0.377908 0.762743
O O11 0.369772 0.559072 0.814750
O O12 0.375000 0.046589 0.875000
#
# Coordination Sequence:
#
# PCOD9514238 Si02
#       6
#    32  32  32  16  32  32
#     4  10  19  32  58  88 120 151 188 253 314 360
#     4  10  21  38  62  89 115 165 208 257 302 377
#     4   9  21  37  61  90 117 152 204 262 323 367
#     4  12  24  40  61  84 130 170 216 252 304 375
#     4  11  21  38  59  87 122 156 209 254 312 366
#     4  10  18  33  57  90 120 146 194 252 301 358
#
# _framework density 19.391368
#
# number of rings (size 3 to 8) (size 9 to 14) (size 15 to 20)
#    0.000    1.818    3.636    1.091    0.000    2.182 
#    1.636    4.091    0.000    0.000    0.000    0.000 
#    0.000    0.000    0.000    0.000    0.000    0.000 
#
# Total GULP energy -245576.832772 kJ/mol
# GULP energy per Si atom -5581.291654 kJ/mol
# Density = 1.934723 g / cm^3
# Si number density = 19.391368 Si / 1000 Ang^3
#
#
#
# Elastic Constant Matrix: (Units=GPa)
#
#
# Indices 1 2 3 4 5 6 
#
# 1 67.9018 34.7806 31.7419 0.0000 0.0000 0.0000
# 2 34.7806 63.5833 35.7006 0.0000 0.0000 0.0000
# 3 31.7419 35.7006 84.4111 0.0000 0.0000 0.0000
# 4 0.0000 0.0000 0.0000 18.4523 0.0000 0.0000
# 5 0.0000 0.0000 0.0000 0.0000 32.1516 0.0000
# 6 0.0000 0.0000 0.0000 0.0000 0.0000 18.5599
#
#
#
# Elastic Compliance Matrix: (Units=1/GPa)
#
#
# Indices 1 2 3 4 5 6 
#
# 1 0.021478 -0.009460 -0.004075 0.000000 0.000000 0.000000
# 2 -0.009460 0.024792 -0.006928 0.000000 0.000000 0.000000
# 3 -0.004075 -0.006928 0.016309 0.000000 0.000000 0.000000
# 4 0.000000 0.000000 0.000000 0.054194 0.000000 0.000000
# 5 0.000000 0.000000 0.000000 0.000000 0.031103 0.000000
# 6 0.000000 0.000000 0.000000 0.000000 0.000000 0.053880
#
#
# Mechanical properties :
#
#
# Convention : Reuss Voigt Hill
#
# Bulk Modulus (GPa) = 46.18527 46.70472 46.44499
# Shear Modulus (GPa) = 20.00789 21.41095 20.70942
#
# Velocity S-wave (km/s) = 3.21564 3.32648 3.27153
# Velocity P-wave (km/s) = 6.13647 6.23631 6.18659
#
# Compressibility (1/GPa) = 0.02165193
#
# Stress axis : x y z
#
# Youngs Moduli (GPa) = 46.55908 40.33509 61.31407
#
# Poissons Ratio (x) = 0.38159 0.24988
# Poissons Ratio (y) = 0.44047 0.42479
# Poissons Ratio (z) = 0.18975 0.27945
#
# Static dielectric constant tensor:
#      x y z
#    x 1.648350 0.000000 0.000000 
#    y 0.000000 1.705860 0.000000 
#    z 0.000000 0.000000 1.740630 
# 
# From -- ./inp_files/50412.got.cif
#   From: 2010.05.17/outbox.cif.g08.bks.cpg/sg70_26_cif.got.tgz:50412.got - 2010.06.03 15:57:51.
