data_PCOD9514658
_publ_section_title
;
Structure prediction by ZEFSAII (Michael W. Deem and Ramdas Pophale) SiO2 
 PCOD9514658
Probable space group: F D D D
;
_chemical_formula_sum "Si O2"
_cell_formula_units_Z 160
_cell_length_a 14.996151
_cell_length_b 24.913547
_cell_length_c 17.063488
_cell_angle_alpha 90.000000
_cell_angle_beta 90.000000
_cell_angle_gamma 90.000000
_cell_volume 6375.043898
_symmetry_space_group_name_H-M "F D D D"
_symmetry_group_IT_number 70
_space_group.IT_coordinate_system_code '2'
_symmetry_cell_setting 'orthorhombic'
loop_
_space_group_symop_operation_xyz
x,y,z
1/4-x,1/4-y,z
x,1/4-y,1/4-z
1/4-x,y,1/4-z
-x,-y,-z
3/4+x,3/4+y,-z
-x,3/4+y,3/4+z
3/4+x,-y,3/4+z
x,1/2+y,1/2+z
1/4-x,3/4-y,1/2+z
x,3/4-y,3/4-z
1/4-x,1/2+y,3/4-z
-x,1/2-y,1/2-z
3/4+x,1/4+y,1/2-z
-x,1/4+y,1/4+z
3/4+x,1/2-y,1/4+z
1/2+x,y,1/2+z
3/4-x,1/4-y,1/2+z
1/2+x,1/4-y,3/4-z
3/4-x,y,3/4-z
1/2-x,-y,1/2-z
1/4+x,3/4+y,1/2-z
1/2-x,3/4+y,1/4+z
1/4+x,-y,1/4+z
1/2+x,1/2+y,z
3/4-x,3/4-y,z
1/2+x,3/4-y,1/4-z
3/4-x,1/2+y,1/4-z
1/2-x,1/2-y,-z
1/4+x,1/4+y,-z
1/2-x,1/4+y,3/4+z
1/4+x,1/2-y,3/4+z
loop_
_atom_site_type_symbol
_atom_site_label
_atom_site_fract_x
_atom_site_fract_y
_atom_site_fract_z
Si Si1 0.247088 0.971348 0.341569
Si Si2 0.373477 0.939697 0.211418
Si Si3 0.097601 0.853530 0.463770
Si Si4 0.814665 0.046419 0.488420
Si Si5 0.095205 0.568103 0.216202
O O1 0.339725 0.963079 0.296311
O O2 0.181405 0.935112 0.288388
O O3 0.231205 0.946382 0.426445
O O4 0.200756 0.030246 0.342197
O O5 0.375000 0.875000 0.212975
O O6 0.474800 0.955460 0.186502
O O7 0.081548 0.875000 0.375000
O O8 0.120624 0.903043 0.519964
O O9 0.010130 0.820320 0.481392
O O10 0.871018 0.991922 0.489774
O O11 0.125000 0.625000 0.252397
O O12 0.125000 0.570456 0.125000
#
# Coordination Sequence:
#
# PCOD9514658 Si02
#       5
#    32  32  32  32  32
#     4  10  22  37  62  93 128 161 203 254 306 371
#     4  11  21  38  63  92 129 166 200 250 313 373
#     4  10  19  39  63  87 116 157 206 250 299 367
#     4  11  23  38  65  93 121 161 212 252 309 379
#     4  11  23  43  64  85 120 166 209 261 312 361
#
# _framework density 25.097864999999999
#
# number of rings (size 3 to 8) (size 9 to 14) (size 15 to 20)
#    0.000    1.400    6.000    0.600    0.000    2.400 
#    0.000    2.000    0.000    0.000    0.000    0.000 
#    0.000    0.000    0.000    0.000    0.000    0.000 
#
# Total GULP energy -223054.545226 kJ/mol
# GULP energy per Si atom -5576.363631 kJ/mol
# Density = 2.504074 g / cm^3
# Si number density = 25.097865 Si / 1000 Ang^3
#
#
#
# Elastic Constant Matrix: (Units=GPa)
#
#
# Indices 1 2 3 4 5 6 
#
# 1 60.7760 28.0151 -5.9362 0.0000 0.0000 0.0000
# 2 28.0151 195.3923 -15.0295 0.0000 0.0000 0.0000
# 3 -5.9362 -15.0295 33.1022 0.0000 0.0000 0.0000
# 4 0.0000 0.0000 0.0000 24.2511 0.0000 0.0000
# 5 0.0000 0.0000 0.0000 0.0000 11.3636 0.0000
# 6 0.0000 0.0000 0.0000 0.0000 0.0000 25.4715
#
#
#
# Elastic Compliance Matrix: (Units=1/GPa)
#
#
# Indices 1 2 3 4 5 6 
#
# 1 0.017758 -0.002384 0.002102 0.000000 0.000000 0.000000
# 2 -0.002384 0.005623 0.002126 0.000000 0.000000 0.000000
# 3 0.002102 0.002126 0.031552 0.000000 0.000000 0.000000
# 4 0.000000 0.000000 0.000000 0.041235 0.000000 0.000000
# 5 0.000000 0.000000 0.000000 0.000000 0.088000 0.000000
# 6 0.000000 0.000000 0.000000 0.000000 0.000000 0.039260
#
#
# Mechanical properties :
#
#
# Convention : Reuss Voigt Hill
#
# Bulk Modulus (GPa) = 17.05927 33.70771 25.38349
# Shear Modulus (GPa) = 20.89583 31.03196 25.96389
#
# Velocity S-wave (km/s) = 2.88857 3.52012 3.21986
# Velocity P-wave (km/s) = 4.23520 5.47552 4.89481
#
# Compressibility (1/GPa) = 0.05861914
#
# Stress axis : x y z
#
# Youngs Moduli (GPa) = 56.31165 177.83187 31.69419
#
# Poissons Ratio (x) = 0.42404 -0.06662
# Poissons Ratio (y) = 0.13427 -0.06737
# Poissons Ratio (z) = -0.11836 -0.37799
#
# Static dielectric constant tensor:
#      x y z
#    x 1.999010 0.000000 0.000000 
#    y 0.000000 1.975790 0.000000 
#    z 0.000000 0.000000 2.654640 
# 
# From -- ./inp_files/28650.got.cif
#   From: 2010.05.17/outbox.cif.g08.bks.cpg/sg70_15_cif.got.tgz:28650.got - 2010.06.03 15:57:51.
