data_PCOD9514385
_publ_section_title
;
Structure prediction by ZEFSAII (Michael W. Deem and Ramdas Pophale) SiO2 
 PCOD9514385
Probable space group: F D D D
;
_chemical_formula_sum "Si O2"
_cell_formula_units_Z 208
_cell_length_a 17.743368
_cell_length_b 28.956123
_cell_length_c 20.296879
_cell_angle_alpha 90.000000
_cell_angle_beta 90.000000
_cell_angle_gamma 90.000000
_cell_volume 10428.113164
_symmetry_space_group_name_H-M "F D D D"
_symmetry_group_IT_number 70
_space_group.IT_coordinate_system_code '2'
_symmetry_cell_setting 'orthorhombic'
loop_
_space_group_symop_operation_xyz
x,y,z
1/4-x,1/4-y,z
x,1/4-y,1/4-z
1/4-x,y,1/4-z
-x,-y,-z
3/4+x,3/4+y,-z
-x,3/4+y,3/4+z
3/4+x,-y,3/4+z
x,1/2+y,1/2+z
1/4-x,3/4-y,1/2+z
x,3/4-y,3/4-z
1/4-x,1/2+y,3/4-z
-x,1/2-y,1/2-z
3/4+x,1/4+y,1/2-z
-x,1/4+y,1/4+z
3/4+x,1/2-y,1/4+z
1/2+x,y,1/2+z
3/4-x,1/4-y,1/2+z
1/2+x,1/4-y,3/4-z
3/4-x,y,3/4-z
1/2-x,-y,1/2-z
1/4+x,3/4+y,1/2-z
1/2-x,3/4+y,1/4+z
1/4+x,-y,1/4+z
1/2+x,1/2+y,z
3/4-x,3/4-y,z
1/2+x,3/4-y,1/4-z
3/4-x,1/2+y,1/4-z
1/2-x,1/2-y,-z
1/4+x,1/4+y,-z
1/2-x,1/4+y,3/4+z
1/4+x,1/2-y,3/4+z
loop_
_atom_site_type_symbol
_atom_site_label
_atom_site_fract_x
_atom_site_fract_y
_atom_site_fract_z
Si Si1 0.738250 0.666851 0.542556
Si Si2 0.979187 0.331523 0.133975
Si Si3 0.125000 0.763825 0.625000
Si Si4 0.573550 0.683355 0.510860
Si Si5 0.959038 0.019097 0.654326
Si Si6 0.040383 0.819506 0.148355
Si Si7 0.082497 0.520033 0.487876
O O1 0.657986 0.692965 0.534640
O O2 0.709292 0.613956 0.543211
O O3 0.782583 0.689094 0.602869
O O4 0.786310 0.672402 0.476543
O O5 0.931624 0.317346 0.198154
O O6 0.051627 0.297348 0.126812
O O7 0.009514 0.383512 0.134499
O O8 0.930653 0.324540 0.067270
O O9 0.126977 0.733097 0.558622
O O10 0.517633 0.722105 0.536387
O O11 0.878368 0.012165 0.687114
O O12 0.986241 0.972835 0.618726
O O13 0.125000 0.810345 0.125000
O O14 0.000000 0.500000 0.500000
#
# Coordination Sequence:
#
# PCOD9514385 Si02
#       7
#    32  32  16  32  32  32  32
#     4  10  22  37  58  90 130 167 202 243 314 387
#     4  10  20  39  64  86 120 160 213 249 321 386
#     4  10  18  42  62  89 114 152 219 268 314 376
#     4  10  20  38  62  89 128 167 198 251 311 389
#     4  12  22  37  59  92 124 161 209 261 316 375
#     4  11  23  37  60  91 128 167 201 260 315 384
#     4  10  23  38  66  91 114 165 220 272 316 377
#
# _framework density 19.946082000000001
#
# number of rings (size 3 to 8) (size 9 to 14) (size 15 to 20)
#    0.000    1.538    2.308    3.231    0.000    4.308 
#    0.000    0.000    0.000    1.846    4.000    0.000 
#    0.000    0.000    0.000    0.000    0.000    0.000 
#
# Total GULP energy -290387.187645 kJ/mol
# GULP energy per Si atom -5584.368993 kJ/mol
# Density = 1.990068 g / cm^3
# Si number density = 19.946082 Si / 1000 Ang^3
#
#
#
# Elastic Constant Matrix: (Units=GPa)
#
#
# Indices 1 2 3 4 5 6 
#
# 1 93.9989 6.9672 33.3833 0.0000 0.0000 0.0000
# 2 6.9672 52.1818 49.3761 0.0000 0.0000 0.0000
# 3 33.3833 49.3761 114.4356 0.0000 0.0000 0.0000
# 4 0.0000 0.0000 0.0000 31.5120 0.0000 0.0000
# 5 0.0000 0.0000 0.0000 0.0000 21.9428 0.0000
# 6 0.0000 0.0000 0.0000 0.0000 0.0000 20.5029
#
#
#
# Elastic Compliance Matrix: (Units=1/GPa)
#
#
# Indices 1 2 3 4 5 6 
#
# 1 0.012126 0.002920 -0.004797 0.000000 0.000000 0.000000
# 2 0.002920 0.033090 -0.015129 0.000000 0.000000 0.000000
# 3 -0.004797 -0.015129 0.016666 0.000000 0.000000 0.000000
# 4 0.000000 0.000000 0.000000 0.031734 0.000000 0.000000
# 5 0.000000 0.000000 0.000000 0.000000 0.045573 0.000000
# 6 0.000000 0.000000 0.000000 0.000000 0.000000 0.048774
#
#
# Mechanical properties :
#
#
# Convention : Reuss Voigt Hill
#
# Bulk Modulus (GPa) = 35.88236 48.89659 42.38948
# Shear Modulus (GPa) = 21.62030 26.18419 23.90225
#
# Velocity S-wave (km/s) = 3.29589 3.62712 3.46546
# Velocity P-wave (km/s) = 5.70198 6.48914 6.10825
#
# Compressibility (1/GPa) = 0.02786885
#
# Stress axis : x y z
#
# Youngs Moduli (GPa) = 82.46912 30.22089 60.00251
#
# Poissons Ratio (x) = -0.08826 0.28786
# Poissons Ratio (y) = -0.24085 0.90780
# Poissons Ratio (z) = 0.39564 0.45722
#
# Static dielectric constant tensor:
#      x y z
#    x 1.702070 0.000000 0.000000 
#    y 0.000000 1.717770 0.000000 
#    z 0.000000 0.000000 1.732470 
# 
# From -- ./inp_files/44070.got.cif
#   From: 2010.05.17/outbox.cif.g08.bks.cpg/sg70_23_cif.got.tgz:44070.got - 2010.06.03 15:57:51.
