data_PCOD9514747
_publ_section_title
;
Structure prediction by ZEFSAII (Michael W. Deem and Ramdas Pophale) SiO2 
 PCOD9514747
Probable space group: F D D D
;
_chemical_formula_sum "Si O2"
_cell_formula_units_Z 208
_cell_length_a 30.465718
_cell_length_b 21.768206
_cell_length_c 16.577911
_cell_angle_alpha 90.000000
_cell_angle_beta 90.000000
_cell_angle_gamma 90.000000
_cell_volume 10994.205749
_symmetry_space_group_name_H-M "F D D D"
_symmetry_group_IT_number 70
_space_group.IT_coordinate_system_code '2'
_symmetry_cell_setting 'orthorhombic'
loop_
_space_group_symop_operation_xyz
x,y,z
1/4-x,1/4-y,z
x,1/4-y,1/4-z
1/4-x,y,1/4-z
-x,-y,-z
3/4+x,3/4+y,-z
-x,3/4+y,3/4+z
3/4+x,-y,3/4+z
x,1/2+y,1/2+z
1/4-x,3/4-y,1/2+z
x,3/4-y,3/4-z
1/4-x,1/2+y,3/4-z
-x,1/2-y,1/2-z
3/4+x,1/4+y,1/2-z
-x,1/4+y,1/4+z
3/4+x,1/2-y,1/4+z
1/2+x,y,1/2+z
3/4-x,1/4-y,1/2+z
1/2+x,1/4-y,3/4-z
3/4-x,y,3/4-z
1/2-x,-y,1/2-z
1/4+x,3/4+y,1/2-z
1/2-x,3/4+y,1/4+z
1/4+x,-y,1/4+z
1/2+x,1/2+y,z
3/4-x,3/4-y,z
1/2+x,3/4-y,1/4-z
3/4-x,1/2+y,1/4-z
1/2-x,1/2-y,-z
1/4+x,1/4+y,-z
1/2-x,1/4+y,3/4+z
1/4+x,1/2-y,3/4+z
loop_
_atom_site_type_symbol
_atom_site_label
_atom_site_fract_x
_atom_site_fract_y
_atom_site_fract_z
Si Si1 0.625000 0.382058 0.625000
Si Si2 0.619228 0.822646 0.943070
Si Si3 0.802150 0.959250 0.068065
Si Si4 0.026631 0.392150 0.136332
Si Si5 0.718799 0.927642 0.807736
Si Si6 0.625000 0.625000 0.985261
Si Si7 0.625000 0.223817 0.625000
Si Si8 0.529623 0.486514 0.153568
O O1 0.619364 0.351036 0.534223
O O2 0.577064 0.414359 0.631856
O O3 0.613613 0.875000 0.875000
O O4 0.583764 0.768883 0.925379
O O5 0.669009 0.797839 0.936258
O O6 0.760880 0.942871 0.123910
O O7 0.833437 0.899061 0.064450
O O8 0.778989 0.970988 0.981903
O O9 0.023121 0.356004 0.222608
O O10 0.018375 0.333772 0.077891
O O11 0.723023 0.875000 0.875000
O O12 0.751790 0.980723 0.834762
O O13 0.631850 0.681135 0.047284
O O14 0.669320 0.261867 0.629063
#
# Coordination Sequence:
#
# PCOD9514747 Si02
#       8
#    16  32  32  32  32  16  16  32
#     4  10  21  41  64  87 117 161 204 241 310 362
#     4  10  23  41  62  87 121 162 204 259 304 367
#     4  11  22  36  55  85 122 157 206 251 308 365
#     4  11  21  33  56  84 115 159 204 244 292 362
#     4  10  20  33  51  80 116 153 197 236 291 354
#     4   9  20  28  46  80 122 157 190 232 294 365
#     4   9  19  29  46  74 122 169 199 225 280 367
#     4  11  20  32  50  79 120 163 198 241 290 356
#
# _framework density 18.919056999999999
#
# number of rings (size 3 to 8) (size 9 to 14) (size 15 to 20)
#    0.000    1.692    3.077    1.846   10.769    0.615 
#    0.000    0.769    0.000    0.000    0.000    0.538 
#    0.000    0.000    0.000    0.000    0.000    0.000 
#
# Total GULP energy -289499.941101 kJ/mol
# GULP energy per Si atom -5567.306560 kJ/mol
# Density = 1.887600 g / cm^3
# Si number density = 18.919057 Si / 1000 Ang^3
#
#
#
# Elastic Constant Matrix: (Units=GPa)
#
#
# Indices 1 2 3 4 5 6 
#
# 1 135.6439 56.3450 24.1049 0.0000 0.0000 0.0000
# 2 56.3450 60.9736 20.6528 0.0000 0.0000 0.0000
# 3 24.1049 20.6528 44.1066 0.0000 0.0000 0.0000
# 4 0.0000 0.0000 0.0000 19.7519 0.0000 0.0000
# 5 0.0000 0.0000 0.0000 0.0000 27.3150 0.0000
# 6 0.0000 0.0000 0.0000 0.0000 0.0000 42.0058
#
#
#
# Elastic Compliance Matrix: (Units=1/GPa)
#
#
# Indices 1 2 3 4 5 6 
#
# 1 0.012063 -0.010595 -0.001632 0.000000 0.000000 0.000000
# 2 -0.010595 0.028797 -0.007694 0.000000 0.000000 0.000000
# 3 -0.001632 -0.007694 0.027167 0.000000 0.000000 0.000000
# 4 0.000000 0.000000 0.000000 0.050628 0.000000 0.000000
# 5 0.000000 0.000000 0.000000 0.000000 0.036610 0.000000
# 6 0.000000 0.000000 0.000000 0.000000 0.000000 0.023806
#
#
# Mechanical properties :
#
#
# Convention : Reuss Voigt Hill
#
# Bulk Modulus (GPa) = 35.47843 49.21438 42.34641
# Shear Modulus (GPa) = 21.90030 27.12264 24.51147
#
# Velocity S-wave (km/s) = 3.40601 3.79042 3.60334
# Velocity P-wave (km/s) = 5.85332 6.72502 6.30426
#
# Compressibility (1/GPa) = 0.02818614
#
# Stress axis : x y z
#
# Youngs Moduli (GPa) = 82.89721 34.72575 36.80960
#
# Poissons Ratio (x) = 0.36791 0.06006
# Poissons Ratio (y) = 0.87827 0.28321
# Poissons Ratio (z) = 0.13527 0.26718
#
# Static dielectric constant tensor:
#      x y z
#    x 1.713480 0.000000 0.000000 
#    y 0.000000 1.745520 0.000000 
#    z 0.000000 0.000000 1.709530 
# 
# From -- ./inp_files/39964.got.cif
#   From: 2010.05.17/outbox.cif.g08.bks.cpg/sg70_20_cif.got.tgz:39964.got - 2010.06.03 15:57:51.
