data_PCOD9514166
_publ_section_title
;
Structure prediction by ZEFSAII (Michael W. Deem and Ramdas Pophale) SiO2 
 PCOD9514166
Probable space group: F D D D
;
_chemical_formula_sum "Si O2"
_cell_formula_units_Z 128
_cell_length_a 16.012895
_cell_length_b 11.770960
_cell_length_c 26.602791
_cell_angle_alpha 90.000000
_cell_angle_beta 90.000000
_cell_angle_gamma 90.000000
_cell_volume 5014.284165
_symmetry_space_group_name_H-M "F D D D"
_symmetry_group_IT_number 70
_space_group.IT_coordinate_system_code '2'
_symmetry_cell_setting 'orthorhombic'
loop_
_space_group_symop_operation_xyz
x,y,z
1/4-x,1/4-y,z
x,1/4-y,1/4-z
1/4-x,y,1/4-z
-x,-y,-z
3/4+x,3/4+y,-z
-x,3/4+y,3/4+z
3/4+x,-y,3/4+z
x,1/2+y,1/2+z
1/4-x,3/4-y,1/2+z
x,3/4-y,3/4-z
1/4-x,1/2+y,3/4-z
-x,1/2-y,1/2-z
3/4+x,1/4+y,1/2-z
-x,1/4+y,1/4+z
3/4+x,1/2-y,1/4+z
1/2+x,y,1/2+z
3/4-x,1/4-y,1/2+z
1/2+x,1/4-y,3/4-z
3/4-x,y,3/4-z
1/2-x,-y,1/2-z
1/4+x,3/4+y,1/2-z
1/2-x,3/4+y,1/4+z
1/4+x,-y,1/4+z
1/2+x,1/2+y,z
3/4-x,3/4-y,z
1/2+x,3/4-y,1/4-z
3/4-x,1/2+y,1/4-z
1/2-x,1/2-y,-z
1/4+x,1/4+y,-z
1/2-x,1/4+y,3/4+z
1/4+x,1/2-y,3/4+z
loop_
_atom_site_type_symbol
_atom_site_label
_atom_site_fract_x
_atom_site_fract_y
_atom_site_fract_z
Si Si1 0.625000 0.125000 0.496681
Si Si2 0.151203 0.479658 0.940988
Si Si3 0.375000 0.616473 0.875000
Si Si4 0.460073 0.991278 0.587707
Si Si5 0.945144 0.615829 0.275902
O O1 0.551662 0.097442 0.456858
O O2 0.603669 0.243719 0.522706
O O3 0.207868 0.365417 0.936249
O O4 0.139112 0.507401 0.881734
O O5 0.209393 0.577688 0.964599
O O6 0.075726 0.434875 0.975385
O O7 0.454902 0.538678 0.885397
O O8 0.346268 0.678541 0.926016
#
# Coordination Sequence:
#
# PCOD9514166 Si02
#       5
#    16  32  16  32  32
#     4  10  18  29  46  68  96 127 162 202 254 304
#     4   9  18  30  45  67  98 130 166 202 251 305
#     4  10  18  27  42  66  98 125 156 194 246 301
#     4   9  18  30  45  67  95 129 163 203 249 303
#     4  10  18  28  44  69 100 133 162 202 252 310
#
# _framework density 25.527075
#
# number of rings (size 3 to 8) (size 9 to 14) (size 15 to 20)
#    0.000    2.500    0.000    3.000    0.000   13.500 
#    0.000    0.000    0.000    6.000    0.000    0.000 
#    0.000   14.000    0.000    0.000    0.000    0.000 
#
# Total GULP energy -178746.566512 kJ/mol
# GULP energy per Si atom -5585.830203 kJ/mol
# Density = 2.546897 g / cm^3
# Si number density = 25.527075 Si / 1000 Ang^3
#
#
#
# Elastic Constant Matrix: (Units=GPa)
#
#
# Indices 1 2 3 4 5 6 
#
# 1 67.1219 -7.2936 33.5347 0.0000 0.0000 0.0000
# 2 -7.2936 77.7433 17.0574 0.0000 0.0000 0.0000
# 3 33.5347 17.0574 153.6570 0.0000 0.0000 0.0000
# 4 0.0000 0.0000 0.0000 19.2677 0.0000 0.0000
# 5 0.0000 0.0000 0.0000 0.0000 35.6267 0.0000
# 6 0.0000 0.0000 0.0000 0.0000 0.0000 17.0228
#
#
#
# Elastic Compliance Matrix: (Units=1/GPa)
#
#
# Indices 1 2 3 4 5 6 
#
# 1 0.017181 0.002495 -0.004027 0.000000 0.000000 0.000000
# 2 0.002495 0.013546 -0.002048 0.000000 0.000000 0.000000
# 3 -0.004027 -0.002048 0.007614 0.000000 0.000000 0.000000
# 4 0.000000 0.000000 0.000000 0.051900 0.000000 0.000000
# 5 0.000000 0.000000 0.000000 0.000000 0.028069 0.000000
# 6 0.000000 0.000000 0.000000 0.000000 0.000000 0.058745
#
#
# Mechanical properties :
#
#
# Convention : Reuss Voigt Hill
#
# Bulk Modulus (GPa) = 32.06943 42.79103 37.43023
# Shear Modulus (GPa) = 25.69254 31.39837 28.54546
#
# Velocity S-wave (km/s) = 3.17595 3.51094 3.34764
# Velocity P-wave (km/s) = 5.10285 5.76498 5.44399
#
# Compressibility (1/GPa) = 0.03118234
#
# Stress axis : x y z
#
# Youngs Moduli (GPa) = 58.20318 73.82044 131.33369
#
# Poissons Ratio (x) = -0.18421 0.52884
# Poissons Ratio (y) = -0.14524 0.26902
# Poissons Ratio (z) = 0.23437 0.15121
#
# Static dielectric constant tensor:
#      x y z
#    x 2.073940 0.000000 0.000000 
#    y 0.000000 1.994410 0.000000 
#    z 0.000000 0.000000 2.054000 
# 
# From -- ./inp_files/26364.got.cif
#   From: 2010.05.17/outbox.cif.g08.bks.cpg/sg70_14_cif.got.tgz:26364.got - 2010.06.03 15:57:51.
