data_PCOD9514935
_publ_section_title
;
Structure prediction by ZEFSAII (Michael W. Deem and Ramdas Pophale) SiO2 
 PCOD9514935
Probable space group: F D D D
;
_chemical_formula_sum "Si O2"
_cell_formula_units_Z 184
_cell_length_a 16.650693
_cell_length_b 20.869288
_cell_length_c 29.107075
_cell_angle_alpha 90.000000
_cell_angle_beta 90.000000
_cell_angle_gamma 90.000000
_cell_volume 10114.362410
_symmetry_space_group_name_H-M "F D D D"
_symmetry_group_IT_number 70
_space_group.IT_coordinate_system_code '2'
_symmetry_cell_setting 'orthorhombic'
loop_
_space_group_symop_operation_xyz
x,y,z
1/4-x,1/4-y,z
x,1/4-y,1/4-z
1/4-x,y,1/4-z
-x,-y,-z
3/4+x,3/4+y,-z
-x,3/4+y,3/4+z
3/4+x,-y,3/4+z
x,1/2+y,1/2+z
1/4-x,3/4-y,1/2+z
x,3/4-y,3/4-z
1/4-x,1/2+y,3/4-z
-x,1/2-y,1/2-z
3/4+x,1/4+y,1/2-z
-x,1/4+y,1/4+z
3/4+x,1/2-y,1/4+z
1/2+x,y,1/2+z
3/4-x,1/4-y,1/2+z
1/2+x,1/4-y,3/4-z
3/4-x,y,3/4-z
1/2-x,-y,1/2-z
1/4+x,3/4+y,1/2-z
1/2-x,3/4+y,1/4+z
1/4+x,-y,1/4+z
1/2+x,1/2+y,z
3/4-x,3/4-y,z
1/2+x,3/4-y,1/4-z
3/4-x,1/2+y,1/4-z
1/2-x,1/2-y,-z
1/4+x,1/4+y,-z
1/2-x,1/4+y,3/4+z
1/4+x,1/2-y,3/4+z
loop_
_atom_site_type_symbol
_atom_site_label
_atom_site_fract_x
_atom_site_fract_y
_atom_site_fract_z
Si Si1 0.239304 0.928023 0.437842
Si Si2 0.795196 0.304736 0.852497
Si Si3 0.934933 0.042021 0.027297
Si Si4 0.625000 0.125000 0.936568
Si Si5 0.875000 0.875000 0.875000
Si Si6 0.251359 0.193543 0.752405
Si Si7 0.623488 0.999506 0.874158
O O1 0.224821 0.860098 0.461288
O O2 0.318875 0.919283 0.406973
O O3 0.166403 0.944273 0.403689
O O4 0.241499 0.987517 0.472763
O O5 0.787297 0.375000 0.875000
O O6 0.875000 0.276447 0.875000
O O7 0.791393 0.308006 0.797431
O O8 0.718675 0.265268 0.866976
O O9 0.848080 0.059761 0.004729
O O10 0.914744 0.003513 0.074258
O O11 0.000000 0.000000 0.000000
O O12 0.623357 0.185920 0.903136
O O13 0.704171 0.110979 0.968152
#
# Coordination Sequence:
#
# PCOD9514935 Si02
#       7
#    32  32  32  16   8  32  32
#     4  11  22  38  61  88 120 161 206 255 309 392
#     4  10  20  37  62  86 116 158 205 251 306 382
#     4  11  22  39  61  90 122 162 209 271 319 379
#     4  10  22  40  58  86 126 164 199 265 320 382
#     4  12  20  36  66  88 114 168 220 242 322 388
#     4  10  23  38  60  93 125 159 215 264 320 385
#     4  10  21  39  59  83 119 162 202 249 316 374
#
# _framework density 18.191952000000001
#
# number of rings (size 3 to 8) (size 9 to 14) (size 15 to 20)
#    0.000    1.565    1.739    4.174    0.000    4.174 
#    0.000    4.348    0.000    0.000    0.000    0.000 
#    0.000    0.000    0.000    0.000    0.000    0.000 
#
# Total GULP energy -256425.468806 kJ/mol
# GULP energy per Si atom -5574.466713 kJ/mol
# Density = 1.815055 g / cm^3
# Si number density = 18.191952 Si / 1000 Ang^3
#
#
#
# Elastic Constant Matrix: (Units=GPa)
#
#
# Indices 1 2 3 4 5 6 
#
# 1 91.9927 36.1226 53.6356 0.0000 0.0000 0.0000
# 2 36.1226 97.1244 53.8467 0.0000 0.0000 0.0000
# 3 53.6356 53.8467 106.1481 0.0000 0.0000 0.0000
# 4 0.0000 0.0000 0.0000 27.0269 0.0000 0.0000
# 5 0.0000 0.0000 0.0000 0.0000 26.3383 0.0000
# 6 0.0000 0.0000 0.0000 0.0000 0.0000 23.4973
#
#
#
# Elastic Compliance Matrix: (Units=1/GPa)
#
#
# Indices 1 2 3 4 5 6 
#
# 1 0.015686 -0.002003 -0.006910 0.000000 0.000000 0.000000
# 2 -0.002003 0.014581 -0.006384 0.000000 0.000000 0.000000
# 3 -0.006910 -0.006384 0.016151 0.000000 0.000000 0.000000
# 4 0.000000 0.000000 0.000000 0.037000 0.000000 0.000000
# 5 0.000000 0.000000 0.000000 0.000000 0.037967 0.000000
# 6 0.000000 0.000000 0.000000 0.000000 0.000000 0.042558
#
#
# Mechanical properties :
#
#
# Convention : Reuss Voigt Hill
#
# Bulk Modulus (GPa) = 63.19931 64.71945 63.95938
# Shear Modulus (GPa) = 25.02364 25.48319 25.25341
#
# Velocity S-wave (km/s) = 3.71284 3.74678 3.72985
# Velocity P-wave (km/s) = 7.29355 7.37366 7.33372
#
# Compressibility (1/GPa) = 0.01582296
#
# Stress axis : x y z
#
# Youngs Moduli (GPa) = 63.75276 68.58450 61.91634
#
# Poissons Ratio (x) = 0.13737 0.42782
# Poissons Ratio (y) = 0.12770 0.39529
# Poissons Ratio (z) = 0.44051 0.43786
#
# Static dielectric constant tensor:
#      x y z
#    x 1.661140 0.000000 0.000000 
#    y 0.000000 1.571160 0.000000 
#    z 0.000000 0.000000 1.641370 
# 
# From -- ./inp_files/66777.got.cif
#   From: 2010.05.17/outbox.cif.g08.bks.cpg/sg70_34_cif.got.tgz:66777.got - 2010.06.03 15:57:51.
