data_PCOD9514727
_publ_section_title
;
Structure prediction by ZEFSAII (Michael W. Deem and Ramdas Pophale) SiO2 
 PCOD9514727
Probable space group: F D D D
;
_chemical_formula_sum "Si O2"
_cell_formula_units_Z 168
_cell_length_a 22.190004
_cell_length_b 15.179513
_cell_length_c 21.718070
_cell_angle_alpha 90.000000
_cell_angle_beta 90.000000
_cell_angle_gamma 90.000000
_cell_volume 7315.372536
_symmetry_space_group_name_H-M "F D D D"
_symmetry_group_IT_number 70
_space_group.IT_coordinate_system_code '2'
_symmetry_cell_setting 'orthorhombic'
loop_
_space_group_symop_operation_xyz
x,y,z
1/4-x,1/4-y,z
x,1/4-y,1/4-z
1/4-x,y,1/4-z
-x,-y,-z
3/4+x,3/4+y,-z
-x,3/4+y,3/4+z
3/4+x,-y,3/4+z
x,1/2+y,1/2+z
1/4-x,3/4-y,1/2+z
x,3/4-y,3/4-z
1/4-x,1/2+y,3/4-z
-x,1/2-y,1/2-z
3/4+x,1/4+y,1/2-z
-x,1/4+y,1/4+z
3/4+x,1/2-y,1/4+z
1/2+x,y,1/2+z
3/4-x,1/4-y,1/2+z
1/2+x,1/4-y,3/4-z
3/4-x,y,3/4-z
1/2-x,-y,1/2-z
1/4+x,3/4+y,1/2-z
1/2-x,3/4+y,1/4+z
1/4+x,-y,1/4+z
1/2+x,1/2+y,z
3/4-x,3/4-y,z
1/2+x,3/4-y,1/4-z
3/4-x,1/2+y,1/4-z
1/2-x,1/2-y,-z
1/4+x,1/4+y,-z
1/2-x,1/4+y,3/4+z
1/4+x,1/2-y,3/4+z
loop_
_atom_site_type_symbol
_atom_site_label
_atom_site_fract_x
_atom_site_fract_y
_atom_site_fract_z
Si Si1 0.690503 0.249606 0.235186
Si Si2 0.875000 0.875000 0.875000
Si Si3 0.875000 0.661177 0.375000
Si Si4 0.375000 0.375000 0.571815
Si Si5 0.213416 0.479247 0.658491
Si Si6 0.812355 0.027910 0.092621
Si Si7 0.433837 0.075256 0.542085
O O1 0.640404 0.280094 0.184480
O O2 0.673941 0.163227 0.273302
O O3 0.751818 0.244795 0.195142
O O4 0.688727 0.320459 0.290678
O O5 0.918710 0.811965 0.837968
O O6 0.817882 0.593960 0.384631
O O7 0.411357 0.448922 0.613169
O O8 0.211496 0.437616 0.725204
O O9 0.279221 0.520727 0.657598
O O10 0.805172 0.125000 0.125000
O O11 0.865955 0.043638 0.044338
#
# Coordination Sequence:
#
# PCOD9514727 Si02
#       7
#    32   8  16  16  32  32  32
#     4  11  27  50  78 107 158 203 259 327 388 475
#     4  10  20  30  60  98 124 184 240 288 384 448
#     4   9  22  46  70 111 144 208 258 314 379 477
#     4  12  30  50  82 118 148 210 260 320 398 468
#     4   9  21  38  67  99 145 193 244 313 384 452
#     4  12  29  51  77 114 157 203 263 321 386 472
#     4  10  23  47  67 106 151 196 250 321 381 456
#
# _framework density 22.965337999999999
#
# number of rings (size 3 to 8) (size 9 to 14) (size 15 to 20)
#    0.000    1.524    1.905    0.000   14.667    3.810 
#    0.000    0.000    0.000    0.000    0.000    0.000 
#    0.000    0.000    0.000    0.000    0.000    0.000 
#
# Total GULP energy -233904.003312 kJ/mol
# GULP energy per Si atom -5569.142936 kJ/mol
# Density = 2.291307 g / cm^3
# Si number density = 22.965338 Si / 1000 Ang^3
#
#
#
# Elastic Constant Matrix: (Units=GPa)
#
#
# Indices 1 2 3 4 5 6 
#
# 1 124.8562 37.8424 48.4683 0.0000 0.0000 0.0000
# 2 37.8424 107.6165 49.4916 0.0000 0.0000 0.0000
# 3 48.4683 49.4916 121.4239 0.0000 0.0000 0.0000
# 4 0.0000 0.0000 0.0000 73.2206 0.0000 0.0000
# 5 0.0000 0.0000 0.0000 0.0000 27.2796 0.0000
# 6 0.0000 0.0000 0.0000 0.0000 0.0000 69.7606
#
#
#
# Elastic Compliance Matrix: (Units=1/GPa)
#
#
# Indices 1 2 3 4 5 6 
#
# 1 0.009826 -0.002032 -0.003094 0.000000 0.000000 0.000000
# 2 -0.002032 0.011856 -0.004021 0.000000 0.000000 0.000000
# 3 -0.003094 -0.004021 0.011110 0.000000 0.000000 0.000000
# 4 0.000000 0.000000 0.000000 0.013657 0.000000 0.000000
# 5 0.000000 0.000000 0.000000 0.000000 0.036657 0.000000
# 6 0.000000 0.000000 0.000000 0.000000 0.000000 0.014335
#
#
# Mechanical properties :
#
#
# Convention : Reuss Voigt Hill
#
# Bulk Modulus (GPa) = 68.98007 69.50014 69.24010
# Shear Modulus (GPa) = 41.46996 48.59178 45.03087
#
# Velocity S-wave (km/s) = 4.25404 4.60485 4.43292
# Velocity P-wave (km/s) = 7.36416 7.65517 7.51108
#
# Compressibility (1/GPa) = 0.01449694
#
# Stress axis : x y z
#
# Youngs Moduli (GPa) = 101.76811 84.34343 90.01204
#
# Poissons Ratio (x) = 0.17143 0.27849
# Poissons Ratio (y) = 0.20684 0.36196
# Poissons Ratio (z) = 0.31486 0.33917
#
# Static dielectric constant tensor:
#      x y z
#    x 1.892180 0.000000 0.000000 
#    y 0.000000 2.003260 0.000000 
#    z 0.000000 0.000000 1.815320 
# 
# From -- ./inp_files/53652.got.cif
#   From: 2010.05.17/outbox.cif.g08.bks.cpg/sg70_27_cif.got.tgz:53652.got - 2010.06.03 15:57:51.
