data_PCOD9514796
_publ_section_title
;
Structure prediction by ZEFSAII (Michael W. Deem and Ramdas Pophale) SiO2 
 PCOD9514796
Probable space group: F D D D
;
_chemical_formula_sum "Si O2"
_cell_formula_units_Z 192
_cell_length_a 17.259004
_cell_length_b 20.202777
_cell_length_c 24.152334
_cell_angle_alpha 90.000000
_cell_angle_beta 90.000000
_cell_angle_gamma 90.000000
_cell_volume 8421.431207
_symmetry_space_group_name_H-M "F D D D"
_symmetry_group_IT_number 70
_space_group.IT_coordinate_system_code '2'
_symmetry_cell_setting 'orthorhombic'
loop_
_space_group_symop_operation_xyz
x,y,z
1/4-x,1/4-y,z
x,1/4-y,1/4-z
1/4-x,y,1/4-z
-x,-y,-z
3/4+x,3/4+y,-z
-x,3/4+y,3/4+z
3/4+x,-y,3/4+z
x,1/2+y,1/2+z
1/4-x,3/4-y,1/2+z
x,3/4-y,3/4-z
1/4-x,1/2+y,3/4-z
-x,1/2-y,1/2-z
3/4+x,1/4+y,1/2-z
-x,1/4+y,1/4+z
3/4+x,1/2-y,1/4+z
1/2+x,y,1/2+z
3/4-x,1/4-y,1/2+z
1/2+x,1/4-y,3/4-z
3/4-x,y,3/4-z
1/2-x,-y,1/2-z
1/4+x,3/4+y,1/2-z
1/2-x,3/4+y,1/4+z
1/4+x,-y,1/4+z
1/2+x,1/2+y,z
3/4-x,3/4-y,z
1/2+x,3/4-y,1/4-z
3/4-x,1/2+y,1/4-z
1/2-x,1/2-y,-z
1/4+x,1/4+y,-z
1/2-x,1/4+y,3/4+z
1/4+x,1/2-y,3/4+z
loop_
_atom_site_type_symbol
_atom_site_label
_atom_site_fract_x
_atom_site_fract_y
_atom_site_fract_z
Si Si1 0.758256 0.614745 0.426346
Si Si2 0.125000 0.625000 0.231850
Si Si3 0.431482 0.007290 0.542669
Si Si4 0.208766 0.030815 0.102033
Si Si5 0.159179 0.356490 0.813113
Si Si6 0.625000 0.625000 0.334425
Si Si7 0.666454 0.265922 0.024960
O O1 0.699597 0.617445 0.478345
O O2 0.795437 0.542066 0.424201
O O3 0.701382 0.626405 0.373518
O O4 0.819841 0.673914 0.432835
O O5 0.133362 0.553609 0.202629
O O6 0.380714 0.941966 0.548824
O O7 0.500000 0.000000 0.500000
O O8 0.475733 0.019634 0.600825
O O9 0.390480 0.076632 0.530277
O O10 0.125000 0.047756 0.125000
O O11 0.249034 0.089173 0.067039
O O12 0.128754 0.375000 0.875000
O O13 0.127807 0.294211 0.779180
O O14 0.750000 0.250000 0.000000
#
# Coordination Sequence:
#
# PCOD9514796 Si02
#       7
#    32  16  32  32  32  16  32
#     4   9  18  34  64  89 122 166 208 258 323 390
#     4   9  16  34  58  90 126 154 215 266 305 382
#     4  10  23  39  61  90 125 163 210 261 318 381
#     4  10  21  38  62  88 129 168 209 261 328 388
#     4  10  22  39  60  91 130 163 210 270 318 383
#     4   9  20  42  64  96 129 166 211 272 326 386
#     4  10  20  34  65  95 119 167 221 256 326 391
#
# _framework density 22.798974999999999
#
# number of rings (size 3 to 8) (size 9 to 14) (size 15 to 20)
#    0.000    2.333    1.667    0.000    9.333    4.333 
#    0.000    0.000    0.000    0.000    0.000   10.500 
#    0.000    0.000    0.000    0.000    0.000    0.000 
#
# Total GULP energy -267703.214676 kJ/mol
# GULP energy per Si atom -5577.150306 kJ/mol
# Density = 2.274708 g / cm^3
# Si number density = 22.798975 Si / 1000 Ang^3
#
#
#
# Elastic Constant Matrix: (Units=GPa)
#
#
# Indices 1 2 3 4 5 6 
#
# 1 73.2877 36.7872 8.6507 0.0000 0.0000 0.0000
# 2 36.7872 220.2567 31.1529 0.0000 0.0000 0.0000
# 3 8.6507 31.1529 35.1091 0.0000 0.0000 0.0000
# 4 0.0000 0.0000 0.0000 21.3912 0.0000 0.0000
# 5 0.0000 0.0000 0.0000 0.0000 18.3135 0.0000
# 6 0.0000 0.0000 0.0000 0.0000 0.0000 27.8152
#
#
#
# Elastic Compliance Matrix: (Units=1/GPa)
#
#
# Indices 1 2 3 4 5 6 
#
# 1 0.014980 -0.002264 -0.001682 0.000000 0.000000 0.000000
# 2 -0.002264 0.005534 -0.004352 0.000000 0.000000 0.000000
# 3 -0.001682 -0.004352 0.032759 0.000000 0.000000 0.000000
# 4 0.000000 0.000000 0.000000 0.046748 0.000000 0.000000
# 5 0.000000 0.000000 0.000000 0.000000 0.054605 0.000000
# 6 0.000000 0.000000 0.000000 0.000000 0.000000 0.035952
#
#
# Mechanical properties :
#
#
# Convention : Reuss Voigt Hill
#
# Bulk Modulus (GPa) = 27.26599 53.53724 40.40161
# Shear Modulus (GPa) = 22.78949 30.30817 26.54883
#
# Velocity S-wave (km/s) = 3.16505 3.65000 3.41614
# Velocity P-wave (km/s) = 5.03408 6.42625 5.77229
#
# Compressibility (1/GPa) = 0.03667573
#
# Stress axis : x y z
#
# Youngs Moduli (GPa) = 66.75636 180.70437 30.52586
#
# Poissons Ratio (x) = 0.40912 0.05135
# Poissons Ratio (y) = 0.15114 0.13286
# Poissons Ratio (z) = 0.11229 0.78651
#
# Static dielectric constant tensor:
#      x y z
#    x 1.848360 0.000000 0.000000 
#    y 0.000000 1.959610 0.000000 
#    z 0.000000 0.000000 2.642330 
# 
# From -- ./inp_files/66702.got.cif
#   From: 2010.05.17/outbox.cif.g08.bks.cpg/sg70_34_cif.got.tgz:66702.got - 2010.06.03 15:57:51.
