data_PCOD9514865
_publ_section_title
;
Structure prediction by ZEFSAII (Michael W. Deem and Ramdas Pophale) SiO2 
 PCOD9514865
Probable space group: F D D D
;
_chemical_formula_sum "Si O2"
_cell_formula_units_Z 160
_cell_length_a 33.361093
_cell_length_b 15.323047
_cell_length_c 12.199402
_cell_angle_alpha 90.000000
_cell_angle_beta 90.000000
_cell_angle_gamma 90.000000
_cell_volume 6236.256178
_symmetry_space_group_name_H-M "F D D D"
_symmetry_group_IT_number 70
_space_group.IT_coordinate_system_code '2'
_symmetry_cell_setting 'orthorhombic'
loop_
_space_group_symop_operation_xyz
x,y,z
1/4-x,1/4-y,z
x,1/4-y,1/4-z
1/4-x,y,1/4-z
-x,-y,-z
3/4+x,3/4+y,-z
-x,3/4+y,3/4+z
3/4+x,-y,3/4+z
x,1/2+y,1/2+z
1/4-x,3/4-y,1/2+z
x,3/4-y,3/4-z
1/4-x,1/2+y,3/4-z
-x,1/2-y,1/2-z
3/4+x,1/4+y,1/2-z
-x,1/4+y,1/4+z
3/4+x,1/2-y,1/4+z
1/2+x,y,1/2+z
3/4-x,1/4-y,1/2+z
1/2+x,1/4-y,3/4-z
3/4-x,y,3/4-z
1/2-x,-y,1/2-z
1/4+x,3/4+y,1/2-z
1/2-x,3/4+y,1/4+z
1/4+x,-y,1/4+z
1/2+x,1/2+y,z
3/4-x,3/4-y,z
1/2+x,3/4-y,1/4-z
3/4-x,1/2+y,1/4-z
1/2-x,1/2-y,-z
1/4+x,1/4+y,-z
1/2-x,1/4+y,3/4+z
1/4+x,1/2-y,3/4+z
loop_
_atom_site_type_symbol
_atom_site_label
_atom_site_fract_x
_atom_site_fract_y
_atom_site_fract_z
Si Si1 0.207028 0.375000 0.375000
Si Si2 0.320932 0.737461 0.376844
Si Si3 0.489734 0.794857 0.069460
Si Si4 0.918504 0.368842 0.187751
Si Si5 0.361687 0.570299 0.268346
Si Si6 0.561515 0.875000 0.375000
O O1 0.237024 0.424788 0.459183
O O2 0.175291 0.444228 0.317546
O O3 0.276587 0.705154 0.404201
O O4 0.322254 0.811203 0.282631
O O5 0.336044 0.780280 0.488675
O O6 0.342542 0.657068 0.321975
O O7 0.454723 0.859735 0.104954
O O8 0.470017 0.700392 0.085533
O O9 0.875000 0.375000 0.133177
O O10 0.375000 0.513489 0.375000
O O11 0.403210 0.594121 0.211187
#
# Coordination Sequence:
#
# PCOD9514865 Si02
#       6
#    16  32  32  32  32  16
#     4   9  24  44  63  92 135 174 211 270 347 406
#     4  10  20  36  61  95 124 160 217 277 331 387
#     4  11  23  41  62  93 132 170 214 271 338 407
#     4  11  21  36  62  94 126 163 212 276 337 391
#     4  10  20  40  67  93 125 169 221 275 327 391
#     4  11  22  38  64  98 126 168 226 270 320 400
#
# _framework density 25.656419
#
# number of rings (size 3 to 8) (size 9 to 14) (size 15 to 20)
#    0.000    1.600    0.000    6.600    0.000    4.800 
#    0.000   13.500    0.000    0.000    0.000    0.000 
#    0.000    0.000    0.000    0.000    0.000    0.000 
#
# Total GULP energy -222782.994984 kJ/mol
# GULP energy per Si atom -5569.574875 kJ/mol
# Density = 2.559802 g / cm^3
# Si number density = 25.656419 Si / 1000 Ang^3
#
#
#
# Elastic Constant Matrix: (Units=GPa)
#
#
# Indices 1 2 3 4 5 6 
#
# 1 227.4666 49.8217 50.5208 0.0000 0.0000 0.0000
# 2 49.8217 44.9049 11.6422 0.0000 0.0000 0.0000
# 3 50.5208 11.6422 119.7710 0.0000 0.0000 0.0000
# 4 0.0000 0.0000 0.0000 6.9791 0.0000 0.0000
# 5 0.0000 0.0000 0.0000 0.0000 46.8081 0.0000
# 6 0.0000 0.0000 0.0000 0.0000 0.0000 28.0525
#
#
#
# Elastic Compliance Matrix: (Units=1/GPa)
#
#
# Indices 1 2 3 4 5 6 
#
# 1 0.006247 -0.006409 -0.002012 0.000000 0.000000 0.000000
# 2 -0.006409 0.029421 -0.000156 0.000000 0.000000 0.000000
# 3 -0.002012 -0.000156 0.009213 0.000000 0.000000 0.000000
# 4 0.000000 0.000000 0.000000 0.143285 0.000000 0.000000
# 5 0.000000 0.000000 0.000000 0.000000 0.021364 0.000000
# 6 0.000000 0.000000 0.000000 0.000000 0.000000 0.035647
#
#
# Mechanical properties :
#
#
# Convention : Reuss Voigt Hill
#
# Bulk Modulus (GPa) = 36.06758 68.45687 52.26222
# Shear Modulus (GPa) = 18.41113 35.04513 26.72813
#
# Velocity S-wave (km/s) = 2.68172 3.69987 3.23115
# Velocity P-wave (km/s) = 4.86593 6.70762 5.85958
#
# Compressibility (1/GPa) = 0.02772573
#
# Stress axis : x y z
#
# Youngs Moduli (GPa) = 160.07835 33.98949 108.54047
#
# Poissons Ratio (x) = 0.21785 0.21839
# Poissons Ratio (y) = 1.02599 0.01696
# Poissons Ratio (z) = 0.32208 0.00531
#
# Static dielectric constant tensor:
#      x y z
#    x 2.074880 0.000000 0.000000 
#    y 0.000000 2.173900 0.000000 
#    z 0.000000 0.000000 2.279050 
# 
# From -- ./inp_files/30926.got.cif
#   From: 2010.05.17/outbox.cif.g08.bks.cpg/sg70_16_cif.got.tgz:30926.got - 2010.06.03 15:57:51.
