data_PCOD9514797
_publ_section_title
;
Structure prediction by ZEFSAII (Michael W. Deem and Ramdas Pophale) SiO2 
 PCOD9514797
Probable space group: F D D D
;
_chemical_formula_sum "Si O2"
_cell_formula_units_Z 192
_cell_length_a 22.139743
_cell_length_b 24.999385
_cell_length_c 19.200449
_cell_angle_alpha 90.000000
_cell_angle_beta 90.000000
_cell_angle_gamma 90.000000
_cell_volume 10627.063726
_symmetry_space_group_name_H-M "F D D D"
_symmetry_group_IT_number 70
_space_group.IT_coordinate_system_code '2'
_symmetry_cell_setting 'orthorhombic'
loop_
_space_group_symop_operation_xyz
x,y,z
1/4-x,1/4-y,z
x,1/4-y,1/4-z
1/4-x,y,1/4-z
-x,-y,-z
3/4+x,3/4+y,-z
-x,3/4+y,3/4+z
3/4+x,-y,3/4+z
x,1/2+y,1/2+z
1/4-x,3/4-y,1/2+z
x,3/4-y,3/4-z
1/4-x,1/2+y,3/4-z
-x,1/2-y,1/2-z
3/4+x,1/4+y,1/2-z
-x,1/4+y,1/4+z
3/4+x,1/2-y,1/4+z
1/2+x,y,1/2+z
3/4-x,1/4-y,1/2+z
1/2+x,1/4-y,3/4-z
3/4-x,y,3/4-z
1/2-x,-y,1/2-z
1/4+x,3/4+y,1/2-z
1/2-x,3/4+y,1/4+z
1/4+x,-y,1/4+z
1/2+x,1/2+y,z
3/4-x,3/4-y,z
1/2+x,3/4-y,1/4-z
3/4-x,1/2+y,1/4-z
1/2-x,1/2-y,-z
1/4+x,1/4+y,-z
1/2-x,1/4+y,3/4+z
1/4+x,1/2-y,3/4+z
loop_
_atom_site_type_symbol
_atom_site_label
_atom_site_fract_x
_atom_site_fract_y
_atom_site_fract_z
Si Si1 0.679654 0.957044 0.852623
Si Si2 0.656700 0.022644 0.490662
Si Si3 0.643922 0.349930 0.266561
Si Si4 0.740889 0.135547 0.813461
Si Si5 0.944642 0.424739 0.427647
Si Si6 0.315562 0.081922 0.426332
O O1 0.650104 0.947377 0.927943
O O2 0.665589 0.902440 0.809678
O O3 0.752172 0.963145 0.851253
O O4 0.645132 0.001273 0.810090
O O5 0.695932 0.064358 0.445962
O O6 0.620059 0.051212 0.553032
O O7 0.689438 0.971414 0.526072
O O8 0.694154 0.340997 0.208341
O O9 0.583772 0.369142 0.228088
O O10 0.718068 0.096623 0.752329
O O11 0.757677 0.100615 0.881436
O O12 0.945278 0.375000 0.375000
O O13 0.375000 0.073730 0.375000
#
# Coordination Sequence:
#
# PCOD9514797 Si02
#       6
#    32  32  32  32  32  32
#     4   9  16  34  52  77 103 140 184 223 271 334
#     4  11  23  31  54  81 106 150 192 217 276 342
#     4   8  15  33  54  69 103 141 174 228 274 314
#     4  10  20  35  47  75 112 139 178 238 266 313
#     4  11  21  36  49  73 116 147 179 225 272 334
#     4   9  20  35  54  76 103 146 189 222 272 330
#
# _framework density 18.067079
#
# number of rings (size 3 to 8) (size 9 to 14) (size 15 to 20)
#    0.000    2.333    3.333    2.000    2.333    2.000 
#    0.000    0.833    0.000    0.000    0.000    0.000 
#    0.000    0.000    0.000    0.000    0.000    0.000 
#
# Total GULP energy -267332.062918 kJ/mol
# GULP energy per Si atom -5569.417977 kJ/mol
# Density = 1.802596 g / cm^3
# Si number density = 18.067079 Si / 1000 Ang^3
#
#
#
# Elastic Constant Matrix: (Units=GPa)
#
#
# Indices 1 2 3 4 5 6 
#
# 1 77.3751 51.6117 35.1204 0.0000 0.0000 0.0000
# 2 51.6117 74.6511 31.8237 0.0000 0.0000 0.0000
# 3 35.1204 31.8237 49.2862 0.0000 0.0000 0.0000
# 4 0.0000 0.0000 0.0000 24.3342 0.0000 0.0000
# 5 0.0000 0.0000 0.0000 0.0000 23.4527 0.0000
# 6 0.0000 0.0000 0.0000 0.0000 0.0000 13.8411
#
#
#
# Elastic Compliance Matrix: (Units=1/GPa)
#
#
# Indices 1 2 3 4 5 6 
#
# 1 0.027119 -0.014504 -0.009960 0.000000 0.000000 0.000000
# 2 -0.014504 0.026240 -0.006608 0.000000 0.000000 0.000000
# 3 -0.009960 -0.006608 0.031653 0.000000 0.000000 0.000000
# 4 0.000000 0.000000 0.000000 0.041094 0.000000 0.000000
# 5 0.000000 0.000000 0.000000 0.000000 0.042639 0.000000
# 6 0.000000 0.000000 0.000000 0.000000 0.000000 0.072249
#
#
# Mechanical properties :
#
#
# Convention : Reuss Voigt Hill
#
# Bulk Modulus (GPa) = 43.72533 48.71377 46.21955
# Shear Modulus (GPa) = 16.08955 17.84271 16.96613
#
# Velocity S-wave (km/s) = 2.98744 3.14599 3.06774
# Velocity P-wave (km/s) = 6.01281 6.34173 6.17946
#
# Compressibility (1/GPa) = 0.02287004
#
# Stress axis : x y z
#
# Youngs Moduli (GPa) = 36.87429 38.10968 31.59216
#
# Poissons Ratio (x) = 0.55273 0.31465
# Poissons Ratio (y) = 0.53481 0.20876
# Poissons Ratio (z) = 0.36726 0.25183
#
# Static dielectric constant tensor:
#      x y z
#    x 1.674660 0.000000 0.000000 
#    y 0.000000 1.674470 0.000000 
#    z 0.000000 0.000000 1.691760 
# 
# From -- ./inp_files/45081.got.cif
#   From: 2010.05.17/outbox.cif.g08.bks.cpg/sg70_23_cif.got.tgz:45081.got - 2010.06.03 15:57:51.
