data_PCOD9514830
_publ_section_title
;
Structure prediction by ZEFSAII (Michael W. Deem and Ramdas Pophale) SiO2 
 PCOD9514830
Probable space group: F D D D
;
_chemical_formula_sum "Si O2"
_cell_formula_units_Z 136
_cell_length_a 12.252262
_cell_length_b 23.406449
_cell_length_c 23.325335
_cell_angle_alpha 90.000000
_cell_angle_beta 90.000000
_cell_angle_gamma 90.000000
_cell_volume 6689.284954
_symmetry_space_group_name_H-M "F D D D"
_symmetry_group_IT_number 70
_space_group.IT_coordinate_system_code '2'
_symmetry_cell_setting 'orthorhombic'
loop_
_space_group_symop_operation_xyz
x,y,z
1/4-x,1/4-y,z
x,1/4-y,1/4-z
1/4-x,y,1/4-z
-x,-y,-z
3/4+x,3/4+y,-z
-x,3/4+y,3/4+z
3/4+x,-y,3/4+z
x,1/2+y,1/2+z
1/4-x,3/4-y,1/2+z
x,3/4-y,3/4-z
1/4-x,1/2+y,3/4-z
-x,1/2-y,1/2-z
3/4+x,1/4+y,1/2-z
-x,1/4+y,1/4+z
3/4+x,1/2-y,1/4+z
1/2+x,y,1/2+z
3/4-x,1/4-y,1/2+z
1/2+x,1/4-y,3/4-z
3/4-x,y,3/4-z
1/2-x,-y,1/2-z
1/4+x,3/4+y,1/2-z
1/2-x,3/4+y,1/4+z
1/4+x,-y,1/4+z
1/2+x,1/2+y,z
3/4-x,3/4-y,z
1/2+x,3/4-y,1/4-z
3/4-x,1/2+y,1/4-z
1/2-x,1/2-y,-z
1/4+x,1/4+y,-z
1/2-x,1/4+y,3/4+z
1/4+x,1/2-y,3/4+z
loop_
_atom_site_type_symbol
_atom_site_label
_atom_site_fract_x
_atom_site_fract_y
_atom_site_fract_z
Si Si1 0.883299 0.793480 0.195416
Si Si2 0.040373 0.438478 0.788796
Si Si3 0.568293 0.066594 0.815034
Si Si4 0.125000 0.125000 0.625000
Si Si5 0.107843 0.825442 0.255723
O O1 0.775084 0.812417 0.228479
O O2 0.904078 0.814535 0.131998
O O3 0.876255 0.724947 0.198660
O O4 0.985897 0.814156 0.233093
O O5 0.951806 0.417106 0.836640
O O6 0.092435 0.501020 0.795537
O O7 0.123329 0.386437 0.784480
O O8 0.625000 0.125000 0.792090
O O9 0.441345 0.069949 0.796914
#
# Coordination Sequence:
#
# PCOD9514830 Si02
#       5
#    32  32  32   8  32
#     4  10  20  36  55  90 120 145 202 253 304 357
#     4  11  22  36  60  88 126 152 198 254 299 374
#     4  11  24  36  56  84 120 168 202 238 298 360
#     4  12  20  36  64 100 118 156 188 258 340 354
#     4  10  20  36  57  83 120 160 188 252 304 358
#
# _framework density 20.331022000000001
#
# number of rings (size 3 to 8) (size 9 to 14) (size 15 to 20)
#    0.000    1.412    2.353    3.529    6.588    0.941 
#    0.000    0.000    0.000    0.000    0.000    5.765 
#    0.000    0.000    0.000    0.000    0.000    0.000 
#
# Total GULP energy -189429.525584 kJ/mol
# GULP energy per Si atom -5571.456635 kJ/mol
# Density = 2.028475 g / cm^3
# Si number density = 20.331022 Si / 1000 Ang^3
#
#
#
# Elastic Constant Matrix: (Units=GPa)
#
#
# Indices 1 2 3 4 5 6 
#
# 1 14.3103 22.6734 8.0975 0.0000 0.0000 0.0000
# 2 22.6734 220.4183 23.1789 0.0000 0.0000 0.0000
# 3 8.0975 23.1789 66.5909 0.0000 0.0000 0.0000
# 4 0.0000 0.0000 0.0000 8.4206 0.0000 0.0000
# 5 0.0000 0.0000 0.0000 0.0000 4.6427 0.0000
# 6 0.0000 0.0000 0.0000 0.0000 0.0000 19.1217
#
#
#
# Elastic Compliance Matrix: (Units=1/GPa)
#
#
# Indices 1 2 3 4 5 6 
#
# 1 0.087190 -0.008152 -0.007765 0.000000 0.000000 0.000000
# 2 -0.008152 0.005471 -0.000913 0.000000 0.000000 0.000000
# 3 -0.007765 -0.000913 0.016279 0.000000 0.000000 0.000000
# 4 0.000000 0.000000 0.000000 0.118757 0.000000 0.000000
# 5 0.000000 0.000000 0.000000 0.000000 0.215392 0.000000
# 6 0.000000 0.000000 0.000000 0.000000 0.000000 0.052297
#
#
# Mechanical properties :
#
#
# Convention : Reuss Voigt Hill
#
# Bulk Modulus (GPa) = 13.28367 45.46877 29.37622
# Shear Modulus (GPa) = 9.02299 22.92831 15.97565
#
# Velocity S-wave (km/s) = 2.10895 3.36184 2.80621
# Velocity P-wave (km/s) = 3.53244 6.12226 4.99801
#
# Compressibility (1/GPa) = 0.07528042
#
# Stress axis : x y z
#
# Youngs Moduli (GPa) = 11.46918 182.76710 61.42847
#
# Poissons Ratio (x) = 1.48997 0.47697
# Poissons Ratio (y) = 0.09350 0.05609
# Poissons Ratio (z) = 0.08905 0.16690
#
# Static dielectric constant tensor:
#      x y z
#    x 1.704400 0.000000 0.000000 
#    y 0.000000 1.838910 0.000000 
#    z 0.000000 0.000000 1.723990 
# 
# From -- ./inp_files/17706.got.cif
#   From: 2010.05.17/outbox.cif.g08.bks.cpg/sg70_9_cif.got.tgz:17706.got - 2010.06.03 15:57:51.
