data_PCOD9514842
_publ_section_title
;
Structure prediction by ZEFSAII (Michael W. Deem and Ramdas Pophale) SiO2 
 PCOD9514842
Probable space group: F D D D
;
_chemical_formula_sum "Si O2"
_cell_formula_units_Z 160
_cell_length_a 16.957569
_cell_length_b 21.838220
_cell_length_c 18.318053
_cell_angle_alpha 90.000000
_cell_angle_beta 90.000000
_cell_angle_gamma 90.000000
_cell_volume 6783.598585
_symmetry_space_group_name_H-M "F D D D"
_symmetry_group_IT_number 70
_space_group.IT_coordinate_system_code '2'
_symmetry_cell_setting 'orthorhombic'
loop_
_space_group_symop_operation_xyz
x,y,z
1/4-x,1/4-y,z
x,1/4-y,1/4-z
1/4-x,y,1/4-z
-x,-y,-z
3/4+x,3/4+y,-z
-x,3/4+y,3/4+z
3/4+x,-y,3/4+z
x,1/2+y,1/2+z
1/4-x,3/4-y,1/2+z
x,3/4-y,3/4-z
1/4-x,1/2+y,3/4-z
-x,1/2-y,1/2-z
3/4+x,1/4+y,1/2-z
-x,1/4+y,1/4+z
3/4+x,1/2-y,1/4+z
1/2+x,y,1/2+z
3/4-x,1/4-y,1/2+z
1/2+x,1/4-y,3/4-z
3/4-x,y,3/4-z
1/2-x,-y,1/2-z
1/4+x,3/4+y,1/2-z
1/2-x,3/4+y,1/4+z
1/4+x,-y,1/4+z
1/2+x,1/2+y,z
3/4-x,3/4-y,z
1/2+x,3/4-y,1/4-z
3/4-x,1/2+y,1/4-z
1/2-x,1/2-y,-z
1/4+x,1/4+y,-z
1/2-x,1/4+y,3/4+z
1/4+x,1/2-y,3/4+z
loop_
_atom_site_type_symbol
_atom_site_label
_atom_site_fract_x
_atom_site_fract_y
_atom_site_fract_z
Si Si1 0.875000 0.875000 0.712491
Si Si2 0.971170 0.565773 0.472340
Si Si3 0.488851 0.556849 0.620679
Si Si4 0.077700 0.430934 0.285267
Si Si5 0.315514 0.502440 0.974981
Si Si6 0.125000 0.282194 0.625000
O O1 0.792596 0.900539 0.677193
O O2 0.850551 0.815014 0.757948
O O3 0.956491 0.612341 0.540198
O O4 0.883556 0.546765 0.445924
O O5 0.000000 0.500000 0.500000
O O6 0.522571 0.625000 0.625000
O O7 0.411288 0.560522 0.571899
O O8 0.461672 0.533641 0.699778
O O9 0.554894 0.510179 0.594439
O O10 0.090814 0.434746 0.196646
O O11 0.016592 0.482802 0.312807
#
# Coordination Sequence:
#
# PCOD9514842 Si02
#       6
#    16  32  32  32  32  16
#     4   8  16  30  56  79 112 151 190 242 302 352
#     4   9  16  32  56  81 112 151 193 242 305 356
#     4  11  20  36  61  83 117 157 197 252 314 369
#     4  10  20  36  58  84 116 156 201 245 310 366
#     4   9  18  33  55  85 113 156 191 249 300 360
#     4  10  23  38  58  84 118 157 200 258 306 370
#
# _framework density 23.586302
#
# number of rings (size 3 to 8) (size 9 to 14) (size 15 to 20)
#    0.000    2.400    2.000    0.900    0.000    0.000 
#    0.000    8.000    4.400   21.600    0.000    0.000 
#    0.000    0.000    0.000    0.000    0.000    0.000 
#
# Total GULP energy -222824.329671 kJ/mol
# GULP energy per Si atom -5570.608242 kJ/mol
# Density = 2.353262 g / cm^3
# Si number density = 23.586302 Si / 1000 Ang^3
#
#
#
# Elastic Constant Matrix: (Units=GPa)
#
#
# Indices 1 2 3 4 5 6 
#
# 1 133.0448 59.5345 11.3751 0.0000 0.0000 0.0000
# 2 59.5345 135.9481 25.3320 0.0000 0.0000 0.0000
# 3 11.3751 25.3320 49.1685 0.0000 0.0000 0.0000
# 4 0.0000 0.0000 0.0000 0.1088 0.0000 0.0000
# 5 0.0000 0.0000 0.0000 0.0000 12.9439 0.0000
# 6 0.0000 0.0000 0.0000 0.0000 0.0000 40.8944
#
#
#
# Elastic Compliance Matrix: (Units=1/GPa)
#
#
# Indices 1 2 3 4 5 6 
#
# 1 0.009348 -0.004083 -0.000059 0.000000 0.000000 0.000000
# 2 -0.004083 0.009920 -0.004166 0.000000 0.000000 0.000000
# 3 -0.000059 -0.004166 0.022498 0.000000 0.000000 0.000000
# 4 0.000000 0.000000 0.000000 9.194151 0.000000 0.000000
# 5 0.000000 0.000000 0.000000 0.000000 0.077256 0.000000
# 6 0.000000 0.000000 0.000000 0.000000 0.000000 0.024453
#
#
# Mechanical properties :
#
#
# Convention : Reuss Voigt Hill
#
# Bulk Modulus (GPa) = 39.76131 56.73830 48.24980
# Shear Modulus (GPa) = 0.53404 25.58408 13.05906
#
# Velocity S-wave (km/s) = 0.47635 3.29705 2.35557
# Velocity P-wave (km/s) = 4.14692 6.21304 5.28199
#
# Compressibility (1/GPa) = 0.02515008
#
# Stress axis : x y z
#
# Youngs Moduli (GPa) = 106.97163 100.80634 44.44750
#
# Poissons Ratio (x) = 0.41157 0.00263
# Poissons Ratio (y) = 0.43674 0.18518
# Poissons Ratio (z) = 0.00634 0.41999
#
# Static dielectric constant tensor:
#      x y z
#    x 2.017790 0.000000 0.000000 
#    y 0.000000 1.931210 0.000000 
#    z 0.000000 0.000000 1.377400 
# 
# From -- ./inp_files/36338.got.cif
#   From: 2010.05.17/outbox.cif.g08.bks.cpg/sg70_19_cif.got.tgz:36338.got - 2010.06.03 15:57:51.
