data_PCOD9514227
_publ_section_title
;
Structure prediction by ZEFSAII (Michael W. Deem and Ramdas Pophale) SiO2 
 PCOD9514227
Probable space group: F D D D
;
_chemical_formula_sum "Si O2"
_cell_formula_units_Z 112
_cell_length_a 15.209360
_cell_length_b 9.031691
_cell_length_c 34.553849
_cell_angle_alpha 90.000000
_cell_angle_beta 90.000000
_cell_angle_gamma 90.000000
_cell_volume 4746.532309
_symmetry_space_group_name_H-M "F D D D"
_symmetry_group_IT_number 70
_space_group.IT_coordinate_system_code '2'
_symmetry_cell_setting 'orthorhombic'
loop_
_space_group_symop_operation_xyz
x,y,z
1/4-x,1/4-y,z
x,1/4-y,1/4-z
1/4-x,y,1/4-z
-x,-y,-z
3/4+x,3/4+y,-z
-x,3/4+y,3/4+z
3/4+x,-y,3/4+z
x,1/2+y,1/2+z
1/4-x,3/4-y,1/2+z
x,3/4-y,3/4-z
1/4-x,1/2+y,3/4-z
-x,1/2-y,1/2-z
3/4+x,1/4+y,1/2-z
-x,1/4+y,1/4+z
3/4+x,1/2-y,1/4+z
1/2+x,y,1/2+z
3/4-x,1/4-y,1/2+z
1/2+x,1/4-y,3/4-z
3/4-x,y,3/4-z
1/2-x,-y,1/2-z
1/4+x,3/4+y,1/2-z
1/2-x,3/4+y,1/4+z
1/4+x,-y,1/4+z
1/2+x,1/2+y,z
3/4-x,3/4-y,z
1/2+x,3/4-y,1/4-z
3/4-x,1/2+y,1/4-z
1/2-x,1/2-y,-z
1/4+x,1/4+y,-z
1/2-x,1/4+y,3/4+z
1/4+x,1/2-y,3/4+z
loop_
_atom_site_type_symbol
_atom_site_label
_atom_site_fract_x
_atom_site_fract_y
_atom_site_fract_z
Si Si1 0.375000 0.375000 0.476499
Si Si2 0.375000 0.875000 0.438610
Si Si3 0.270248 0.027252 0.669536
Si Si4 0.062049 0.795275 0.955254
Si Si5 0.375000 0.119631 0.875000
O O1 0.292865 0.362532 0.448552
O O2 0.389006 0.232909 0.504124
O O3 0.281734 0.878027 0.460213
O O4 0.367679 0.730144 0.411188
O O5 0.286449 0.867587 0.689605
O O6 0.212980 0.978323 0.632063
O O7 0.367109 0.101251 0.673142
#
# Coordination Sequence:
#
# PCOD9514227 Si02
#       5
#    16  16  32  32  16
#     4  10  18  33  52  78 105 136 173 212 261 306
#     4   9  18  34  58  76 101 138 175 214 253 304
#     4   9  18  33  53  75 106 137 167 210 258 308
#     4   9  17  34  56  75 100 138 169 211 264 300
#     4   9  18  35  50  72 102 137 174 209 256 310
#
# _framework density 23.596173
#
# number of rings (size 3 to 8) (size 9 to 14) (size 15 to 20)
#    0.000    3.143    0.000    3.429    0.000    0.571 
#    0.000   32.857    0.000    0.000    0.000    0.000 
#    0.000    0.000    0.000    0.000    0.000    0.000 
#
# Total GULP energy -155924.851901 kJ/mol
# GULP energy per Si atom -5568.744711 kJ/mol
# Density = 2.354247 g / cm^3
# Si number density = 23.596173 Si / 1000 Ang^3
#
#
#
# Elastic Constant Matrix: (Units=GPa)
#
#
# Indices 1 2 3 4 5 6 
#
# 1 198.4436 15.2981 49.8636 0.0000 0.0000 0.0000
# 2 15.2981 39.6578 5.9424 0.0000 0.0000 0.0000
# 3 49.8636 5.9424 90.8319 0.0000 0.0000 0.0000
# 4 0.0000 0.0000 0.0000 -10.0260 0.0000 0.0000
# 5 0.0000 0.0000 0.0000 0.0000 -14.9449 0.0000
# 6 0.0000 0.0000 0.0000 0.0000 0.0000 29.0278
#
#
#
# Elastic Compliance Matrix: (Units=1/GPa)
#
#
# Indices 1 2 3 4 5 6 
#
# 1 0.005974 -0.001831 -0.003160 0.000000 0.000000 0.000000
# 2 -0.001831 0.026027 -0.000697 0.000000 0.000000 0.000000
# 3 -0.003160 -0.000697 0.012790 0.000000 0.000000 0.000000
# 4 0.000000 0.000000 0.000000 -0.099741 0.000000 0.000000
# 5 0.000000 0.000000 0.000000 0.000000 -0.066912 0.000000
# 6 0.000000 0.000000 0.000000 0.000000 0.000000 0.034450
#
#
# Mechanical properties :
#
#
# Convention : Reuss Voigt Hill
#
# Bulk Modulus (GPa) = 29.92797 52.34906 41.13852
# Shear Modulus (GPa) = -77.04407 18.00000 -29.52204
#
# Velocity S-wave (km/s) = -5.72031 2.76494 -3.54098
# Velocity P-wave (km/s) = 5.56043 5.69445 0.86845
#
# Compressibility (1/GPa) = 0.03341355
#
# Stress axis : x y z
#
# Youngs Moduli (GPa) = 167.38120 38.42223 78.18810
#
# Poissons Ratio (x) = 0.07036 0.24707
# Poissons Ratio (y) = 0.30650 0.05453
# Poissons Ratio (z) = 0.52891 0.02680
#
# Static dielectric constant tensor:
#      x y z
#    x 2.019240 0.000000 0.000000 
#    y 0.000000 1.932050 0.000000 
#    z 0.000000 0.000000 1.988720 
# 
# From -- ./inp_files/15090.got.cif
#   From: 2010.05.17/outbox.cif.g08.bks.cpg/sg70_8_cif.got.tgz:15090.got - 2010.06.03 15:57:51.
