data_PCOD9514449
_publ_section_title
;
Structure prediction by ZEFSAII (Michael W. Deem and Ramdas Pophale) SiO2 
 PCOD9514449
Probable space group: F D D D
;
_chemical_formula_sum "Si O2"
_cell_formula_units_Z 136
_cell_length_a 8.952947
_cell_length_b 35.669489
_cell_length_c 19.226040
_cell_angle_alpha 90.000000
_cell_angle_beta 90.000000
_cell_angle_gamma 90.000000
_cell_volume 6139.779052
_symmetry_space_group_name_H-M "F D D D"
_symmetry_group_IT_number 70
_space_group.IT_coordinate_system_code '2'
_symmetry_cell_setting 'orthorhombic'
loop_
_space_group_symop_operation_xyz
x,y,z
1/4-x,1/4-y,z
x,1/4-y,1/4-z
1/4-x,y,1/4-z
-x,-y,-z
3/4+x,3/4+y,-z
-x,3/4+y,3/4+z
3/4+x,-y,3/4+z
x,1/2+y,1/2+z
1/4-x,3/4-y,1/2+z
x,3/4-y,3/4-z
1/4-x,1/2+y,3/4-z
-x,1/2-y,1/2-z
3/4+x,1/4+y,1/2-z
-x,1/4+y,1/4+z
3/4+x,1/2-y,1/4+z
1/2+x,y,1/2+z
3/4-x,1/4-y,1/2+z
1/2+x,1/4-y,3/4-z
3/4-x,y,3/4-z
1/2-x,-y,1/2-z
1/4+x,3/4+y,1/2-z
1/2-x,3/4+y,1/4+z
1/4+x,-y,1/4+z
1/2+x,1/2+y,z
3/4-x,3/4-y,z
1/2+x,3/4-y,1/4-z
3/4-x,1/2+y,1/4-z
1/2-x,1/2-y,-z
1/4+x,1/4+y,-z
1/2-x,1/4+y,3/4+z
1/4+x,1/2-y,3/4+z
loop_
_atom_site_type_symbol
_atom_site_label
_atom_site_fract_x
_atom_site_fract_y
_atom_site_fract_z
Si Si1 0.406128 0.638820 0.053562
Si Si2 0.625000 0.125000 0.125000
Si Si3 0.048455 0.964637 0.735247
Si Si4 0.727268 0.850252 0.184938
Si Si5 0.112705 0.524218 0.904441
O O1 0.475576 0.625000 0.125000
O O2 0.237840 0.650424 0.080119
O O3 0.479170 0.672076 0.010602
O O4 0.369465 0.603773 0.004455
O O5 0.208910 0.966370 0.695986
O O6 0.932170 0.979080 0.676842
O O7 0.064983 0.989325 0.804937
O O8 0.625000 0.867305 0.125000
O O9 0.778163 0.809168 0.164648
O O10 0.875000 0.875000 0.191623
#
# Coordination Sequence:
#
# PCOD9514449 Si02
#       5
#    32   8  32  32  32
#     4  10  19  33  60  90 123 162 217 281 326 394
#     4   8  16  28  56  88 118 148 218 272 318 380
#     4  10  20  37  61  90 131 165 222 276 344 388
#     4  12  22  39  64  93 130 168 224 276 338 398
#     4  10  22  36  59  93 124 174 215 279 329 411
#
# _framework density 22.150632999999999
#
# number of rings (size 3 to 8) (size 9 to 14) (size 15 to 20)
#    0.706    0.941    3.529    1.412    3.294    1.882 
#    0.000    1.176    0.000    4.941    0.000    0.000 
#    0.000    0.000    0.000    0.000    0.000    0.000 
#
# Total GULP energy -189648.578141 kJ/mol
# GULP energy per Si atom -5577.899357 kJ/mol
# Density = 2.210022 g / cm^3
# Si number density = 22.150633 Si / 1000 Ang^3
#
#
#
# Elastic Constant Matrix: (Units=GPa)
#
#
# Indices 1 2 3 4 5 6 
#
# 1 61.9390 27.3781 50.0986 0.0000 0.0000 0.0000
# 2 27.3781 69.5254 37.1282 0.0000 0.0000 0.0000
# 3 50.0986 37.1282 165.7772 0.0000 0.0000 0.0000
# 4 0.0000 0.0000 0.0000 31.1645 0.0000 0.0000
# 5 0.0000 0.0000 0.0000 0.0000 -7.4047 0.0000
# 6 0.0000 0.0000 0.0000 0.0000 0.0000 0.3230
#
#
#
# Elastic Compliance Matrix: (Units=1/GPa)
#
#
# Indices 1 2 3 4 5 6 
#
# 1 0.023511 -0.006206 -0.005715 0.000000 0.000000 0.000000
# 2 -0.006206 0.017975 -0.002150 0.000000 0.000000 0.000000
# 3 -0.005715 -0.002150 0.008241 0.000000 0.000000 0.000000
# 4 0.000000 0.000000 0.000000 0.032088 0.000000 0.000000
# 5 0.000000 0.000000 0.000000 0.000000 -0.135048 0.000000
# 6 0.000000 0.000000 0.000000 0.000000 0.000000 3.095951
#
#
# Mechanical properties :
#
#
# Convention : Reuss Voigt Hill
#
# Bulk Modulus (GPa) = 46.33082 58.49461 52.41272
# Shear Modulus (GPa) = 1.62440 16.99233 9.30837
#
# Velocity S-wave (km/s) = 0.85728 2.77271 2.05218
# Velocity P-wave (km/s) = 4.68418 6.05933 5.41558
#
# Compressibility (1/GPa) = 0.02158390
#
# Stress axis : x y z
#
# Youngs Moduli (GPa) = 42.53372 55.63132 121.34578
#
# Poissons Ratio (x) = 0.34526 0.69350
# Poissons Ratio (y) = 0.26397 0.26093
# Poissons Ratio (z) = 0.24308 0.11963
#
# Static dielectric constant tensor:
#      x y z
#    x 1.864650 0.000000 0.000000 
#    y 0.000000 1.803160 0.000000 
#    z 0.000000 0.000000 1.906190 
# 
# From -- ./inp_files/42068.got.cif
#   From: 2010.05.17/outbox.cif.g08.bks.cpg/sg70_22_cif.got.tgz:42068.got - 2010.06.03 15:57:51.
