data_PCOD9514846
_publ_section_title
;
Structure prediction by ZEFSAII (Michael W. Deem and Ramdas Pophale) SiO2 
 PCOD9514846
Probable space group: F D D D
;
_chemical_formula_sum "Si O2"
_cell_formula_units_Z 160
_cell_length_a 11.429640
_cell_length_b 35.284558
_cell_length_c 16.263506
_cell_angle_alpha 90.000000
_cell_angle_beta 90.000000
_cell_angle_gamma 90.000000
_cell_volume 6558.906009
_symmetry_space_group_name_H-M "F D D D"
_symmetry_group_IT_number 70
_space_group.IT_coordinate_system_code '2'
_symmetry_cell_setting 'orthorhombic'
loop_
_space_group_symop_operation_xyz
x,y,z
1/4-x,1/4-y,z
x,1/4-y,1/4-z
1/4-x,y,1/4-z
-x,-y,-z
3/4+x,3/4+y,-z
-x,3/4+y,3/4+z
3/4+x,-y,3/4+z
x,1/2+y,1/2+z
1/4-x,3/4-y,1/2+z
x,3/4-y,3/4-z
1/4-x,1/2+y,3/4-z
-x,1/2-y,1/2-z
3/4+x,1/4+y,1/2-z
-x,1/4+y,1/4+z
3/4+x,1/2-y,1/4+z
1/2+x,y,1/2+z
3/4-x,1/4-y,1/2+z
1/2+x,1/4-y,3/4-z
3/4-x,y,3/4-z
1/2-x,-y,1/2-z
1/4+x,3/4+y,1/2-z
1/2-x,3/4+y,1/4+z
1/4+x,-y,1/4+z
1/2+x,1/2+y,z
3/4-x,3/4-y,z
1/2+x,3/4-y,1/4-z
3/4-x,1/2+y,1/4-z
1/2-x,1/2-y,-z
1/4+x,1/4+y,-z
1/2-x,1/4+y,3/4+z
1/4+x,1/2-y,3/4+z
loop_
_atom_site_type_symbol
_atom_site_label
_atom_site_fract_x
_atom_site_fract_y
_atom_site_fract_z
Si Si1 0.247201 0.885096 0.778327
Si Si2 0.771882 0.725636 0.809012
Si Si3 0.624423 0.079661 0.828806
Si Si4 0.929169 0.572902 0.546510
Si Si5 0.914654 0.554148 0.730982
O O1 0.253219 0.875000 0.875000
O O2 0.375000 0.875000 0.747214
O O3 0.137786 0.858591 0.753973
O O4 0.214147 0.928217 0.758739
O O5 0.875000 0.735682 0.875000
O O6 0.694662 0.692731 0.850861
O O7 0.841027 0.710974 0.728427
O O8 0.689063 0.760527 0.787022
O O9 0.625000 0.125000 0.832986
O O10 0.698469 0.068235 0.747575
O O11 0.494735 0.065796 0.807471
O O12 0.947560 0.574765 0.643843
#
# Coordination Sequence:
#
# PCOD9514846 Si02
#       5
#    32  32  32  32  32
#     4   9  19  35  57  84 113 160 217 274 325 392
#     4  10  22  37  55  90 138 177 207 272 372 426
#     4  11  21  35  60  97 133 170 223 284 347 415
#     4  10  20  36  58  87 127 171 214 271 344 407
#     4  11  20  35  62  91 123 165 231 280 326 407
#
# _framework density 24.394311999999999
#
# number of rings (size 3 to 8) (size 9 to 14) (size 15 to 20)
#    0.000    1.800    2.000    3.000    0.000    4.800 
#    0.000    1.000    0.000    2.400    0.000    0.000 
#    0.000    0.000    0.000    0.000    0.000    0.000 
#
# Total GULP energy -223521.881515 kJ/mol
# GULP energy per Si atom -5588.047038 kJ/mol
# Density = 2.433879 g / cm^3
# Si number density = 24.394312 Si / 1000 Ang^3
#
#
#
# Elastic Constant Matrix: (Units=GPa)
#
#
# Indices 1 2 3 4 5 6 
#
# 1 118.8358 45.3579 22.6180 0.0000 0.0000 0.0000
# 2 45.3579 152.4601 3.7851 0.0000 0.0000 0.0000
# 3 22.6180 3.7851 80.5693 0.0000 0.0000 0.0000
# 4 0.0000 0.0000 0.0000 5.5447 0.0000 0.0000
# 5 0.0000 0.0000 0.0000 0.0000 18.7847 0.0000
# 6 0.0000 0.0000 0.0000 0.0000 0.0000 37.0494
#
#
#
# Elastic Compliance Matrix: (Units=1/GPa)
#
#
# Indices 1 2 3 4 5 6 
#
# 1 0.010040 -0.002920 -0.002681 0.000000 0.000000 0.000000
# 2 -0.002920 0.007416 0.000471 0.000000 0.000000 0.000000
# 3 -0.002681 0.000471 0.013142 0.000000 0.000000 0.000000
# 4 0.000000 0.000000 0.000000 0.180352 0.000000 0.000000
# 5 0.000000 0.000000 0.000000 0.000000 0.053235 0.000000
# 6 0.000000 0.000000 0.000000 0.000000 0.000000 0.026991
#
#
# Mechanical properties :
#
#
# Convention : Reuss Voigt Hill
#
# Bulk Modulus (GPa) = 49.16925 55.04301 52.10613
# Shear Modulus (GPa) = 16.22239 30.94937 23.58588
#
# Velocity S-wave (km/s) = 2.58157 3.56576 3.11281
# Velocity P-wave (km/s) = 5.39312 6.29013 5.85882
#
# Compressibility (1/GPa) = 0.02033791
#
# Stress axis : x y z
#
# Youngs Moduli (GPa) = 99.60184 134.83947 76.09057
#
# Poissons Ratio (x) = 0.39378 0.20402
# Poissons Ratio (y) = 0.29088 -0.03587
# Poissons Ratio (z) = 0.26706 -0.06357
#
# Static dielectric constant tensor:
#      x y z
#    x 1.928650 0.000000 0.000000 
#    y 0.000000 1.985730 0.000000 
#    z 0.000000 0.000000 1.940710 
# 
# From -- ./inp_files/57501.got.cif
#   From: 2010.05.17/outbox.cif.g08.bks.cpg/sg70_29_cif.got.tgz:57501.got - 2010.06.03 15:57:51.
