data_PCOD9514939
_publ_section_title
;
Structure prediction by ZEFSAII (Michael W. Deem and Ramdas Pophale) SiO2 
 PCOD9514939
Probable space group: F D D D
;
_chemical_formula_sum "Si O2"
_cell_formula_units_Z 112
_cell_length_a 23.336360
_cell_length_b 5.250330
_cell_length_c 41.370677
_cell_angle_alpha 90.000000
_cell_angle_beta 90.000000
_cell_angle_gamma 90.000000
_cell_volume 5068.883908
_symmetry_space_group_name_H-M "F D D D"
_symmetry_group_IT_number 70
_space_group.IT_coordinate_system_code '2'
_symmetry_cell_setting 'orthorhombic'
loop_
_space_group_symop_operation_xyz
x,y,z
1/4-x,1/4-y,z
x,1/4-y,1/4-z
1/4-x,y,1/4-z
-x,-y,-z
3/4+x,3/4+y,-z
-x,3/4+y,3/4+z
3/4+x,-y,3/4+z
x,1/2+y,1/2+z
1/4-x,3/4-y,1/2+z
x,3/4-y,3/4-z
1/4-x,1/2+y,3/4-z
-x,1/2-y,1/2-z
3/4+x,1/4+y,1/2-z
-x,1/4+y,1/4+z
3/4+x,1/2-y,1/4+z
1/2+x,y,1/2+z
3/4-x,1/4-y,1/2+z
1/2+x,1/4-y,3/4-z
3/4-x,y,3/4-z
1/2-x,-y,1/2-z
1/4+x,3/4+y,1/2-z
1/2-x,3/4+y,1/4+z
1/4+x,-y,1/4+z
1/2+x,1/2+y,z
3/4-x,3/4-y,z
1/2+x,3/4-y,1/4-z
3/4-x,1/2+y,1/4-z
1/2-x,1/2-y,-z
1/4+x,1/4+y,-z
1/2-x,1/4+y,3/4+z
1/4+x,1/2-y,3/4+z
loop_
_atom_site_type_symbol
_atom_site_label
_atom_site_fract_x
_atom_site_fract_y
_atom_site_fract_z
Si Si1 0.875000 0.375000 0.984034
Si Si2 0.523158 0.375000 0.375000
Si Si3 0.682726 0.352840 0.459868
Si Si4 0.625000 0.125000 0.344222
Si Si5 0.742400 0.640074 0.553153
O O1 0.819586 0.327289 0.962365
O O2 0.854199 0.599037 0.008073
O O3 0.569027 0.157912 0.365780
O O4 0.488996 0.343324 0.408130
O O5 0.638561 0.391991 0.430018
O O6 0.723262 0.601770 0.455187
O O7 0.721815 0.102945 0.459971
#
# Coordination Sequence:
#
# PCOD9514939 Si02
#       5
#    16  16  32  16  32
#     4  11  24  41  64  89 128 166 204 254 316 370
#     4  10  20  37  62  92 124 157 206 252 316 370
#     4  10  23  40  62  91 119 159 212 257 308 363
#     4   9  18  34  62  87 116 157 202 266 310 361
#     4  11  24  40  62  91 124 162 206 259 307 377
#
# _framework density 22.095593999999998
#
# number of rings (size 3 to 8) (size 9 to 14) (size 15 to 20)
#    0.000    1.714    0.000    3.429    0.000   16.571 
#    0.000    0.000    0.000    6.857    0.000    0.000 
#    0.000    0.000    0.000    0.000    0.000    0.000 
#
# Total GULP energy -156470.126720 kJ/mol
# GULP energy per Si atom -5588.218811 kJ/mol
# Density = 2.204530 g / cm^3
# Si number density = 22.095594 Si / 1000 Ang^3
#
#
#
# Elastic Constant Matrix: (Units=GPa)
#
#
# Indices 1 2 3 4 5 6 
#
# 1 147.2077 73.6839 94.1008 0.0001 -0.0017 0.0001
# 2 73.6839 151.4861 36.3264 0.0004 -0.0006 0.0003
# 3 94.1008 36.3264 181.4985 0.0001 -0.0005 0.0001
# 4 0.0001 0.0004 0.0001 10.5194 0.0000 -0.0001
# 5 -0.0017 -0.0006 -0.0005 0.0000 -802.2553 -0.0007
# 6 0.0001 0.0003 0.0001 -0.0001 -0.0007 18.0020
#
#
#
# Elastic Compliance Matrix: (Units=1/GPa)
#
#
# Indices 1 2 3 4 5 6 
#
# 1 0.012894 -0.004904 -0.005703 0.000000 0.000000 0.000000
# 2 -0.004904 0.008799 0.000781 0.000000 0.000000 0.000000
# 3 -0.005703 0.000781 0.008310 0.000000 0.000000 0.000000
# 4 0.000000 0.000000 0.000000 0.095063 0.000000 0.000001
# 5 0.000000 0.000000 0.000000 0.000000 -0.001246 0.000000
# 6 0.000000 0.000000 0.000000 0.000001 0.000000 0.055549
#
#
# Mechanical properties :
#
#
# Convention : Reuss Voigt Hill
#
# Bulk Modulus (GPa) = 96.60641 98.71270 97.65955
# Shear Modulus (GPa) = 24.69495 -136.34136 -55.82321
#
# Velocity S-wave (km/s) = 3.34674 -7.86379 -5.03182
# Velocity P-wave (km/s) = 7.66493 6.13840 3.24586
#
# Compressibility (1/GPa) = 0.01035128
#
# Stress axis : x y z
#
# Youngs Moduli (GPa) = 77.55843 113.64737 120.33255
#
# Poissons Ratio (x) = 0.55731 0.68630
# Poissons Ratio (y) = 0.38033 -0.09402
# Poissons Ratio (z) = 0.44234 -0.08880
#
# Static dielectric constant tensor:
#      x y z
#    x 1.799790 0.000000 0.000000 
#    y 0.000000 0.703390 0.000000 
#    z 0.000000 0.000000 1.892790 
# 
# From -- ./inp_files/67637.got.cif
#   From: 2010.05.17/outbox.cif.g08.bks.cpg/sg70_34_cif.got.tgz:67637.got - 2010.06.03 15:57:51.
