data_PCOD9514948
_publ_section_title
;
Structure prediction by ZEFSAII (Michael W. Deem and Ramdas Pophale) SiO2 
 PCOD9514948
Probable space group: F D D D
;
_chemical_formula_sum "Si O2"
_cell_formula_units_Z 184
_cell_length_a 19.296147
_cell_length_b 16.411710
_cell_length_c 27.702345
_cell_angle_alpha 90.000000
_cell_angle_beta 90.000000
_cell_angle_gamma 90.000000
_cell_volume 8772.855314
_symmetry_space_group_name_H-M "F D D D"
_symmetry_group_IT_number 70
_space_group.IT_coordinate_system_code '2'
_symmetry_cell_setting 'orthorhombic'
loop_
_space_group_symop_operation_xyz
x,y,z
1/4-x,1/4-y,z
x,1/4-y,1/4-z
1/4-x,y,1/4-z
-x,-y,-z
3/4+x,3/4+y,-z
-x,3/4+y,3/4+z
3/4+x,-y,3/4+z
x,1/2+y,1/2+z
1/4-x,3/4-y,1/2+z
x,3/4-y,3/4-z
1/4-x,1/2+y,3/4-z
-x,1/2-y,1/2-z
3/4+x,1/4+y,1/2-z
-x,1/4+y,1/4+z
3/4+x,1/2-y,1/4+z
1/2+x,y,1/2+z
3/4-x,1/4-y,1/2+z
1/2+x,1/4-y,3/4-z
3/4-x,y,3/4-z
1/2-x,-y,1/2-z
1/4+x,3/4+y,1/2-z
1/2-x,3/4+y,1/4+z
1/4+x,-y,1/4+z
1/2+x,1/2+y,z
3/4-x,3/4-y,z
1/2+x,3/4-y,1/4-z
3/4-x,1/2+y,1/4-z
1/2-x,1/2-y,-z
1/4+x,1/4+y,-z
1/2-x,1/4+y,3/4+z
1/4+x,1/2-y,3/4+z
loop_
_atom_site_type_symbol
_atom_site_label
_atom_site_fract_x
_atom_site_fract_y
_atom_site_fract_z
Si Si1 0.625000 0.125000 0.625000
Si Si2 0.875000 0.875000 0.644214
Si Si3 0.146821 0.390995 0.179673
Si Si4 0.722206 0.020448 0.551373
Si Si5 0.001214 0.173852 0.948084
Si Si6 0.273667 0.460096 0.354867
Si Si7 0.876909 0.546767 0.659384
O O1 0.575955 0.179586 0.589458
O O2 0.805795 0.888061 0.675314
O O3 0.870220 0.792643 0.614227
O O4 0.125000 0.369805 0.125000
O O5 0.203265 0.324651 0.193856
O O6 0.074913 0.388254 0.208567
O O7 0.177297 0.482027 0.176569
O O8 0.712000 0.043231 0.495648
O O9 0.803007 0.039160 0.560546
O O10 0.990182 0.239353 0.904827
O O11 0.300552 0.375000 0.375000
O O12 0.203216 0.441577 0.324666
O O13 0.888004 0.625000 0.625000
#
# Coordination Sequence:
#
# PCOD9514948 Si02
#       7
#     8  16  32  32  32  32  32
#     4  12  26  40  64  92 126 176 206 272 336 398
#     4  10  21  42  60  83 120 170 197 250 330 385
#     4  10  21  40  65  89 128 170 208 263 327 383
#     4  12  23  41  60  97 125 164 219 264 326 384
#     4  10  23  38  62  92 123 163 213 270 310 390
#     4   9  20  41  66  90 124 175 214 256 328 393
#     4  10  20  37  63  88 122 165 211 254 318 389
#
# _framework density 20.973786
#
# number of rings (size 3 to 8) (size 9 to 14) (size 15 to 20)
#    0.000    1.739    1.739    3.652    0.000    7.304 
#    0.000    9.565    0.000    0.000    0.000    0.000 
#    0.000    0.000    0.000    0.000    0.000    0.000 
#
# Total GULP energy -256214.627816 kJ/mol
# GULP energy per Si atom -5569.883213 kJ/mol
# Density = 2.092605 g / cm^3
# Si number density = 20.973786 Si / 1000 Ang^3
#
#
#
# Elastic Constant Matrix: (Units=GPa)
#
#
# Indices 1 2 3 4 5 6 
#
# 1 107.5121 10.9580 8.3222 0.0000 0.0000 0.0000
# 2 10.9580 82.4813 -5.2700 0.0000 0.0000 0.0000
# 3 8.3222 -5.2700 33.4380 0.0000 0.0000 0.0000
# 4 0.0000 0.0000 0.0000 -4.5578 0.0000 0.0000
# 5 0.0000 0.0000 0.0000 0.0000 -11.3397 0.0000
# 6 0.0000 0.0000 0.0000 0.0000 0.0000 1222.3418
#
#
#
# Elastic Compliance Matrix: (Units=1/GPa)
#
#
# Indices 1 2 3 4 5 6 
#
# 1 0.009653 -0.001451 -0.002631 0.000000 0.000000 0.000000
# 2 -0.001451 0.012465 0.002326 0.000000 0.000000 0.000000
# 3 -0.002631 0.002326 0.030927 0.000000 0.000000 0.000000
# 4 0.000000 0.000000 0.000000 -0.219405 0.000000 0.000000
# 5 0.000000 0.000000 0.000000 0.000000 -0.088186 0.000000
# 6 0.000000 0.000000 0.000000 0.000000 0.000000 0.000818
#
#
# Mechanical properties :
#
#
# Convention : Reuss Voigt Hill
#
# Bulk Modulus (GPa) = 20.18832 27.93908 24.06370
# Shear Modulus (GPa) = -21.39457 255.25027 116.92785
#
# Velocity S-wave (km/s) = -3.19731 11.04373 7.47466
# Velocity P-wave (km/s) = 1.99599 13.26531 9.27320
#
# Compressibility (1/GPa) = 0.04953360
#
# Stress axis : x y z
#
# Youngs Moduli (GPa) = 103.59709 80.22294 32.33372
#
# Poissons Ratio (x) = 0.11636 0.08507
# Poissons Ratio (y) = 0.15027 -0.07520
# Poissons Ratio (z) = 0.27257 -0.18657
#
# Static dielectric constant tensor:
#      x y z
#    x 1.837570 0.000000 0.000000 
#    y 0.000000 1.728320 0.000000 
#    z 0.000000 0.000000 1.751580 
# 
# From -- ./inp_files/60387.got.cif
#   From: 2010.05.17/outbox.cif.g08.bks.cpg/sg70_31_cif.got.tgz:60387.got - 2010.06.03 15:57:51.
