data_PCOD9514330
_publ_section_title
;
Structure prediction by ZEFSAII (Michael W. Deem and Ramdas Pophale) SiO2 
 PCOD9514330
Probable space group: F D D D
;
_chemical_formula_sum "Si O2"
_cell_formula_units_Z 208
_cell_length_a 19.736799
_cell_length_b 27.618032
_cell_length_c 19.950852
_cell_angle_alpha 90.000000
_cell_angle_beta 90.000000
_cell_angle_gamma 90.000000
_cell_volume 10875.040768
_symmetry_space_group_name_H-M "F D D D"
_symmetry_group_IT_number 70
_space_group.IT_coordinate_system_code '2'
_symmetry_cell_setting 'orthorhombic'
loop_
_space_group_symop_operation_xyz
x,y,z
1/4-x,1/4-y,z
x,1/4-y,1/4-z
1/4-x,y,1/4-z
-x,-y,-z
3/4+x,3/4+y,-z
-x,3/4+y,3/4+z
3/4+x,-y,3/4+z
x,1/2+y,1/2+z
1/4-x,3/4-y,1/2+z
x,3/4-y,3/4-z
1/4-x,1/2+y,3/4-z
-x,1/2-y,1/2-z
3/4+x,1/4+y,1/2-z
-x,1/4+y,1/4+z
3/4+x,1/2-y,1/4+z
1/2+x,y,1/2+z
3/4-x,1/4-y,1/2+z
1/2+x,1/4-y,3/4-z
3/4-x,y,3/4-z
1/2-x,-y,1/2-z
1/4+x,3/4+y,1/2-z
1/2-x,3/4+y,1/4+z
1/4+x,-y,1/4+z
1/2+x,1/2+y,z
3/4-x,3/4-y,z
1/2+x,3/4-y,1/4-z
3/4-x,1/2+y,1/4-z
1/2-x,1/2-y,-z
1/4+x,1/4+y,-z
1/2-x,1/4+y,3/4+z
1/4+x,1/2-y,3/4+z
loop_
_atom_site_type_symbol
_atom_site_label
_atom_site_fract_x
_atom_site_fract_y
_atom_site_fract_z
Si Si1 0.770502 0.507992 0.615690
Si Si2 0.125000 0.415600 0.625000
Si Si3 0.959354 0.509670 0.288887
Si Si4 0.553435 0.151496 0.561495
Si Si5 0.881060 0.983522 0.223004
Si Si6 0.751387 0.602518 0.913078
Si Si7 0.125000 0.625000 0.928163
Si Si8 0.125000 0.230960 0.625000
O O1 0.801111 0.514056 0.541403
O O2 0.827330 0.508993 0.673336
O O3 0.743947 0.452271 0.614271
O O4 0.702565 0.540473 0.623710
O O5 0.082482 0.448700 0.675555
O O6 0.180009 0.381243 0.657761
O O7 0.935976 0.458589 0.319314
O O8 0.040818 0.510369 0.298687
O O9 0.625000 0.125000 0.553773
O O10 0.519464 0.125000 0.625000
O O11 0.516518 0.147836 0.491007
O O12 0.869610 0.925046 0.219571
O O13 0.873599 0.002299 0.299126
O O14 0.690790 0.626747 0.870089
#
# Coordination Sequence:
#
# PCOD9514330 Si02
#       8
#    32  16  32  32  32  32  16  16
#     4   9  20  37  58  80 114 151 190 238 292 353
#     4  12  21  34  57  90 115 147 194 253 286 333
#     4  10  22  36  53  86 120 145 195 246 279 347
#     4  10  20  37  56  79 114 158 193 227 288 353
#     4  10  20  36  58  81 114 151 187 242 292 350
#     4  10  20  34  58  79 111 150 196 228 286 345
#     4  10  18  37  55  78 110 150 188 230 288 345
#     4  10  19  35  58  88 105 141 200 240 291 345
#
# _framework density 19.126366000000001
#
# number of rings (size 3 to 8) (size 9 to 14) (size 15 to 20)
#    0.000    2.000    2.308    1.846    0.000    1.538 
#    0.000    2.308    0.000    0.000    0.000    0.000 
#    0.000    0.000    0.000    0.000    0.000    0.000 
#
# Total GULP energy -289542.019865 kJ/mol
# GULP energy per Si atom -5568.115767 kJ/mol
# Density = 1.908283 g / cm^3
# Si number density = 19.126366 Si / 1000 Ang^3
#
#
#
# Elastic Constant Matrix: (Units=GPa)
#
#
# Indices 1 2 3 4 5 6 
#
# 1 113.9434 19.2491 57.2371 0.0000 0.0000 0.0000
# 2 19.2491 44.0760 20.1037 0.0000 0.0000 0.0000
# 3 57.2371 20.1037 108.7597 0.0000 0.0000 0.0000
# 4 0.0000 0.0000 0.0000 14.0693 0.0000 0.0000
# 5 0.0000 0.0000 0.0000 0.0000 32.9382 0.0000
# 6 0.0000 0.0000 0.0000 0.0000 0.0000 6.0047
#
#
#
# Elastic Compliance Matrix: (Units=1/GPa)
#
#
# Indices 1 2 3 4 5 6 
#
# 1 0.012201 -0.002621 -0.005937 0.000000 0.000000 0.000000
# 2 -0.002621 0.025340 -0.003305 0.000000 0.000000 0.000000
# 3 -0.005937 -0.003305 0.012930 0.000000 0.000000 0.000000
# 4 0.000000 0.000000 0.000000 0.071077 0.000000 0.000000
# 5 0.000000 0.000000 0.000000 0.000000 0.030360 0.000000
# 6 0.000000 0.000000 0.000000 0.000000 0.000000 0.166537
#
#
# Mechanical properties :
#
#
# Convention : Reuss Voigt Hill
#
# Bulk Modulus (GPa) = 37.38806 51.10656 44.24731
# Shear Modulus (GPa) = 14.24157 21.94837 18.09497
#
# Velocity S-wave (km/s) = 2.73170 3.39122 3.07917
# Velocity P-wave (km/s) = 5.43507 6.48940 5.98549
#
# Compressibility (1/GPa) = 0.02674651
#
# Stress axis : x y z
#
# Youngs Moduli (GPa) = 81.95906 39.46336 77.34085
#
# Poissons Ratio (x) = 0.10342 0.45915
# Poissons Ratio (y) = 0.21479 0.25559
# Poissons Ratio (z) = 0.48657 0.13042
#
# Static dielectric constant tensor:
#      x y z
#    x 1.672200 0.000000 0.000000 
#    y 0.000000 1.683530 0.000000 
#    z 0.000000 0.000000 1.602540 
# 
# From -- ./inp_files/36764.got.cif
#   From: 2010.05.17/outbox.cif.g08.bks.cpg/sg70_19_cif.got.tgz:36764.got - 2010.06.03 15:57:51.
