data_PCOD9514686
_publ_section_title
;
Structure prediction by ZEFSAII (Michael W. Deem and Ramdas Pophale) SiO2 
 PCOD9514686
Probable space group: F D D D
;
_chemical_formula_sum "Si O2"
_cell_formula_units_Z 176
_cell_length_a 11.407400
_cell_length_b 27.160546
_cell_length_c 26.074158
_cell_angle_alpha 90.000000
_cell_angle_beta 90.000000
_cell_angle_gamma 90.000000
_cell_volume 8078.587987
_symmetry_space_group_name_H-M "F D D D"
_symmetry_group_IT_number 70
_space_group.IT_coordinate_system_code '2'
_symmetry_cell_setting 'orthorhombic'
loop_
_space_group_symop_operation_xyz
x,y,z
1/4-x,1/4-y,z
x,1/4-y,1/4-z
1/4-x,y,1/4-z
-x,-y,-z
3/4+x,3/4+y,-z
-x,3/4+y,3/4+z
3/4+x,-y,3/4+z
x,1/2+y,1/2+z
1/4-x,3/4-y,1/2+z
x,3/4-y,3/4-z
1/4-x,1/2+y,3/4-z
-x,1/2-y,1/2-z
3/4+x,1/4+y,1/2-z
-x,1/4+y,1/4+z
3/4+x,1/2-y,1/4+z
1/2+x,y,1/2+z
3/4-x,1/4-y,1/2+z
1/2+x,1/4-y,3/4-z
3/4-x,y,3/4-z
1/2-x,-y,1/2-z
1/4+x,3/4+y,1/2-z
1/2-x,3/4+y,1/4+z
1/4+x,-y,1/4+z
1/2+x,1/2+y,z
3/4-x,3/4-y,z
1/2+x,3/4-y,1/4-z
3/4-x,1/2+y,1/4-z
1/2-x,1/2-y,-z
1/4+x,1/4+y,-z
1/2-x,1/4+y,3/4+z
1/4+x,1/2-y,3/4+z
loop_
_atom_site_type_symbol
_atom_site_label
_atom_site_fract_x
_atom_site_fract_y
_atom_site_fract_z
Si Si1 0.672841 0.744943 0.569014
Si Si2 0.875000 0.875000 0.785629
Si Si3 0.473040 0.091097 0.807147
Si Si4 0.176530 0.732226 0.550120
Si Si5 0.921311 0.974302 0.213401
Si Si6 0.538305 0.185420 0.862507
O O1 0.625000 0.730846 0.625000
O O2 0.630311 0.801873 0.559797
O O3 0.812539 0.745401 0.561374
O O4 0.615802 0.714871 0.521907
O O5 0.770349 0.855612 0.748631
O O6 0.824849 0.924054 0.811485
O O7 0.462123 0.142736 0.836397
O O8 0.584775 0.066791 0.835716
O O9 0.250000 0.750000 0.500000
O O10 0.231348 0.763185 0.596453
O O11 0.043914 0.747519 0.537262
O O12 0.943057 0.930573 0.172990
#
# Coordination Sequence:
#
# PCOD9514686 Si02
#       6
#    32  16  32  32  32  32
#     4  11  22  41  66  92 139 176 223 283 337 420
#     4  10  20  38  65  94 124 178 227 276 348 396
#     4  10  19  40  66  95 134 168 220 291 344 386
#     4  12  21  40  66  93 138 175 222 285 344 413
#     4  11  24  39  62 101 130 179 224 270 352 415
#     4  10  21  39  63  99 130 167 222 284 344 411
#
# _framework density 21.785986000000001
#
# number of rings (size 3 to 8) (size 9 to 14) (size 15 to 20)
#    0.000    1.455    7.273    0.545    0.000    1.455 
#    0.000    1.818    0.000    0.000    0.000    2.545 
#    0.000    0.000    0.000    0.000    0.000    0.000 
#
# Total GULP energy -245673.071606 kJ/mol
# GULP energy per Si atom -5583.478900 kJ/mol
# Density = 2.173640 g / cm^3
# Si number density = 21.785986 Si / 1000 Ang^3
#
#
#
# Elastic Constant Matrix: (Units=GPa)
#
#
# Indices 1 2 3 4 5 6 
#
# 1 139.5344 20.3905 23.5953 0.0000 0.0000 0.0000
# 2 20.3905 119.5095 22.7968 0.0000 0.0000 0.0000
# 3 23.5953 22.7968 122.2089 0.0000 0.0000 0.0000
# 4 0.0000 0.0000 0.0000 1657.1413 0.0000 0.0000
# 5 0.0000 0.0000 0.0000 0.0000 18.0936 0.0000
# 6 0.0000 0.0000 0.0000 0.0000 0.0000 27.5053
#
#
#
# Elastic Compliance Matrix: (Units=1/GPa)
#
#
# Indices 1 2 3 4 5 6 
#
# 1 0.007532 -0.001045 -0.001259 0.000000 0.000000 0.000000
# 2 -0.001045 0.008821 -0.001444 0.000000 0.000000 0.000000
# 3 -0.001259 -0.001444 0.008695 0.000000 0.000000 0.000000
# 4 0.000000 0.000000 0.000000 0.000603 0.000000 0.000000
# 5 0.000000 0.000000 0.000000 0.000000 0.055268 0.000000
# 6 0.000000 0.000000 0.000000 0.000000 0.000000 0.036357
#
#
# Mechanical properties :
#
#
# Convention : Reuss Voigt Hill
#
# Bulk Modulus (GPa) = 56.97154 57.20201 57.08677
# Shear Modulus (GPa) = 38.27779 361.51271 199.89525
#
# Velocity S-wave (km/s) = 4.19620 12.89567 9.58923
# Velocity P-wave (km/s) = 7.04874 15.74943 12.20101
#
# Compressibility (1/GPa) = 0.01755262
#
# Stress axis : x y z
#
# Youngs Moduli (GPa) = 132.76071 113.36294 115.00627
#
# Poissons Ratio (x) = 0.11846 0.14484
# Poissons Ratio (y) = 0.13873 0.16604
# Poissons Ratio (z) = 0.16720 0.16367
#
# Static dielectric constant tensor:
#      x y z
#    x 1.804070 0.000000 0.000000 
#    y 0.000000 1.822840 0.000000 
#    z 0.000000 0.000000 1.862780 
# 
# From -- ./inp_files/57597.got.cif
#   From: 2010.05.17/outbox.cif.g08.bks.cpg/sg70_29_cif.got.tgz:57597.got - 2010.06.03 15:57:51.
