data_PCOD9514601
_publ_section_title
;
Structure prediction by ZEFSAII (Michael W. Deem and Ramdas Pophale) SiO2 
 PCOD9514601
Probable space group: F D D D
;
_chemical_formula_sum "Si O2"
_cell_formula_units_Z 232
_cell_length_a 24.581611
_cell_length_b 26.185225
_cell_length_c 16.291859
_cell_angle_alpha 90.000000
_cell_angle_beta 90.000000
_cell_angle_gamma 90.000000
_cell_volume 10486.662585
_symmetry_space_group_name_H-M "F D D D"
_symmetry_group_IT_number 70
_space_group.IT_coordinate_system_code '2'
_symmetry_cell_setting 'orthorhombic'
loop_
_space_group_symop_operation_xyz
x,y,z
1/4-x,1/4-y,z
x,1/4-y,1/4-z
1/4-x,y,1/4-z
-x,-y,-z
3/4+x,3/4+y,-z
-x,3/4+y,3/4+z
3/4+x,-y,3/4+z
x,1/2+y,1/2+z
1/4-x,3/4-y,1/2+z
x,3/4-y,3/4-z
1/4-x,1/2+y,3/4-z
-x,1/2-y,1/2-z
3/4+x,1/4+y,1/2-z
-x,1/4+y,1/4+z
3/4+x,1/2-y,1/4+z
1/2+x,y,1/2+z
3/4-x,1/4-y,1/2+z
1/2+x,1/4-y,3/4-z
3/4-x,y,3/4-z
1/2-x,-y,1/2-z
1/4+x,3/4+y,1/2-z
1/2-x,3/4+y,1/4+z
1/4+x,-y,1/4+z
1/2+x,1/2+y,z
3/4-x,3/4-y,z
1/2+x,3/4-y,1/4-z
3/4-x,1/2+y,1/4-z
1/2-x,1/2-y,-z
1/4+x,1/4+y,-z
1/2-x,1/4+y,3/4+z
1/4+x,1/2-y,3/4+z
loop_
_atom_site_type_symbol
_atom_site_label
_atom_site_fract_x
_atom_site_fract_y
_atom_site_fract_z
Si Si1 0.296498 0.759467 0.683925
Si Si2 0.932423 0.604809 0.720167
Si Si3 0.046621 0.613763 0.791301
Si Si4 0.375000 0.375000 0.375000
Si Si5 0.424723 0.496538 0.779925
Si Si6 0.450990 0.871571 0.018915
Si Si7 0.310313 0.475422 0.748185
Si Si8 0.181783 0.855057 0.783290
O O1 0.317372 0.706365 0.718471
O O2 0.230828 0.754228 0.668128
O O3 0.307011 0.809901 0.737208
O O4 0.325162 0.767208 0.597252
O O5 0.941823 0.625000 0.625000
O O6 0.876017 0.627328 0.751252
O O7 0.981724 0.618847 0.779511
O O8 0.066078 0.560608 0.753775
O O9 0.063583 0.664300 0.740809
O O10 0.062944 0.614920 0.887062
O O11 0.417773 0.353005 0.306015
O O12 0.359868 0.499491 0.798409
O O13 0.433053 0.543878 0.718068
O O14 0.515568 0.878063 0.010236
O O15 0.250000 0.500000 0.750000
O O16 0.183114 0.875000 0.875000
#
# Coordination Sequence:
#
# PCOD9514601 Si02
#       8
#    32  32  32   8  32  32  32  32
#     4   9  21  38  57  84 119 154 200 253 308 363
#     4  10  19  37  63  88 126 166 197 254 314 376
#     4  10  22  37  58  92 122 162 208 257 311 370
#     4  12  24  44  64  84 122 168 212 252 326 372
#     4  10  21  36  56  82 120 156 196 256 313 358
#     4  10  23  40  62  87 118 163 211 261 313 375
#     4  11  20  34  57  86 116 161 206 241 305 375
#     4  10  19  38  60  86 118 160 207 254 311 381
#
# _framework density 22.123339999999999
#
# number of rings (size 3 to 8) (size 9 to 14) (size 15 to 20)
#    0.000    1.931    0.690    3.724    3.862    1.103 
#    0.000    8.966    0.000    2.483    0.000    0.000 
#    0.000    0.000    0.000    0.000    0.000    0.000 
#
# Total GULP energy -323029.634824 kJ/mol
# GULP energy per Si atom -5569.476462 kJ/mol
# Density = 2.207299 g / cm^3
# Si number density = 22.123340 Si / 1000 Ang^3
#
#
#
# Elastic Constant Matrix: (Units=GPa)
#
#
# Indices 1 2 3 4 5 6 
#
# 1 158.4278 20.4663 36.8391 0.0000 0.0000 0.0000
# 2 20.4663 83.7641 6.5287 0.0000 0.0000 0.0000
# 3 36.8391 6.5287 62.0144 0.0000 0.0000 0.0000
# 4 0.0000 0.0000 0.0000 4.1289 0.0000 0.0000
# 5 0.0000 0.0000 0.0000 0.0000 20.5436 0.0000
# 6 0.0000 0.0000 0.0000 0.0000 0.0000 -30.8423
#
#
#
# Elastic Compliance Matrix: (Units=1/GPa)
#
#
# Indices 1 2 3 4 5 6 
#
# 1 0.007506 -0.001499 -0.004301 0.000000 0.000000 0.000000
# 2 -0.001499 0.012336 -0.000408 0.000000 0.000000 0.000000
# 3 -0.004301 -0.000408 0.018723 0.000000 0.000000 0.000000
# 4 0.000000 0.000000 0.000000 0.242197 0.000000 0.000000
# 5 0.000000 0.000000 0.000000 0.000000 0.048677 0.000000
# 6 0.000000 0.000000 0.000000 0.000000 0.000000 -0.032423
#
#
# Mechanical properties :
#
#
# Convention : Reuss Voigt Hill
#
# Bulk Modulus (GPa) = 38.24218 47.98603 43.11411
# Shear Modulus (GPa) = 15.71591 14.79086 15.25339
#
# Velocity S-wave (km/s) = 2.66818 2.58846 2.62863
# Velocity P-wave (km/s) = 5.17839 5.53813 5.36127
#
# Compressibility (1/GPa) = 0.02614914
#
# Stress axis : x y z
#
# Youngs Moduli (GPa) = 133.23176 81.06161 53.40958
#
# Poissons Ratio (x) = 0.12148 0.22971
# Poissons Ratio (y) = 0.19967 0.02182
# Poissons Ratio (z) = 0.57302 0.03311
#
# Static dielectric constant tensor:
#      x y z
#    x 1.902810 0.000000 0.000000 
#    y 0.000000 1.999800 0.000000 
#    z 0.000000 0.000000 1.881500 
# 
# From -- ./inp_files/37873.got.cif
#   From: 2010.05.17/outbox.cif.g08.bks.cpg/sg70_19_cif.got.tgz:37873.got - 2010.06.03 15:57:51.
