data_PCOD9514176
_publ_section_title
;
Structure prediction by ZEFSAII (Michael W. Deem and Ramdas Pophale) SiO2 
 PCOD9514176
Probable space group: F D D D
;
_chemical_formula_sum "Si O2"
_cell_formula_units_Z 160
_cell_length_a 23.852118
_cell_length_b 11.606411
_cell_length_c 23.637537
_cell_angle_alpha 90.000000
_cell_angle_beta 90.000000
_cell_angle_gamma 90.000000
_cell_volume 6543.756288
_symmetry_space_group_name_H-M "F D D D"
_symmetry_group_IT_number 70
_space_group.IT_coordinate_system_code '2'
_symmetry_cell_setting 'orthorhombic'
loop_
_space_group_symop_operation_xyz
x,y,z
1/4-x,1/4-y,z
x,1/4-y,1/4-z
1/4-x,y,1/4-z
-x,-y,-z
3/4+x,3/4+y,-z
-x,3/4+y,3/4+z
3/4+x,-y,3/4+z
x,1/2+y,1/2+z
1/4-x,3/4-y,1/2+z
x,3/4-y,3/4-z
1/4-x,1/2+y,3/4-z
-x,1/2-y,1/2-z
3/4+x,1/4+y,1/2-z
-x,1/4+y,1/4+z
3/4+x,1/2-y,1/4+z
1/2+x,y,1/2+z
3/4-x,1/4-y,1/2+z
1/2+x,1/4-y,3/4-z
3/4-x,y,3/4-z
1/2-x,-y,1/2-z
1/4+x,3/4+y,1/2-z
1/2-x,3/4+y,1/4+z
1/4+x,-y,1/4+z
1/2+x,1/2+y,z
3/4-x,3/4-y,z
1/2+x,3/4-y,1/4-z
3/4-x,1/2+y,1/4-z
1/2-x,1/2-y,-z
1/4+x,1/4+y,-z
1/2-x,1/4+y,3/4+z
1/4+x,1/2-y,3/4+z
loop_
_atom_site_type_symbol
_atom_site_label
_atom_site_fract_x
_atom_site_fract_y
_atom_site_fract_z
Si Si1 0.590659 0.283171 0.425993
Si Si2 0.514004 0.075953 0.258315
Si Si3 0.998722 0.628867 0.384563
Si Si4 0.168196 0.849855 0.522558
Si Si5 0.581635 0.229286 0.182540
O O1 0.600853 0.375000 0.375000
O O2 0.538766 0.320158 0.466549
O O3 0.561594 0.169225 0.399511
O O4 0.642623 0.278295 0.470321
O O5 0.499259 0.072716 0.323610
O O6 0.548942 0.187235 0.238283
O O7 0.551686 0.963453 0.250743
O O8 0.965279 0.557578 0.432575
O O9 0.961372 0.743532 0.368568
O O10 0.116326 0.903871 0.557549
O O11 0.625000 0.125000 0.176455
#
# Coordination Sequence:
#
# PCOD9514176 Si02
#       5
#    32  32  32  32  32
#     4  11  20  32  50  75 109 144 178 222 269 329
#     4  10  20  33  50  77 110 145 178 216 273 338
#     4  11  20  32  52  74 113 148 173 217 273 330
#     4  10  22  31  48  78 109 140 180 218 266 327
#     4  10  18  29  45  73 106 141 167 199 259 329
#
# _framework density 24.450789
#
# number of rings (size 3 to 8) (size 9 to 14) (size 15 to 20)
#    0.000    1.600    4.000    2.400    0.000    4.000 
#    0.000    0.000    0.000    1.200    0.000    0.000 
#    0.000    0.000    0.000    0.000    0.000    0.000 
#
# Total GULP energy -223221.879654 kJ/mol
# GULP energy per Si atom -5580.546991 kJ/mol
# Density = 2.439514 g / cm^3
# Si number density = 24.450789 Si / 1000 Ang^3
#
#
#
# Elastic Constant Matrix: (Units=GPa)
#
#
# Indices 1 2 3 4 5 6 
#
# 1 99.5337 10.2046 62.3177 0.0000 0.0000 0.0000
# 2 10.2046 13.7035 14.6239 0.0000 0.0000 0.0000
# 3 62.3177 14.6239 174.0596 0.0000 0.0000 0.0000
# 4 0.0000 0.0000 0.0000 20.3114 0.0000 0.0000
# 5 0.0000 0.0000 0.0000 0.0000 55.6910 0.0000
# 6 0.0000 0.0000 0.0000 0.0000 0.0000 18.4173
#
#
#
# Elastic Compliance Matrix: (Units=1/GPa)
#
#
# Indices 1 2 3 4 5 6 
#
# 1 0.013290 -0.005294 -0.004313 0.000000 0.000000 0.000000
# 2 -0.005294 0.082270 -0.005017 0.000000 0.000000 0.000000
# 3 -0.004313 -0.005017 0.007711 0.000000 0.000000 0.000000
# 4 0.000000 0.000000 0.000000 0.049234 0.000000 0.000000
# 5 0.000000 0.000000 0.000000 0.000000 0.017956 0.000000
# 6 0.000000 0.000000 0.000000 0.000000 0.000000 0.054297
#
#
# Mechanical properties :
#
#
# Convention : Reuss Voigt Hill
#
# Bulk Modulus (GPa) = 13.50930 51.28769 32.39849
# Shear Modulus (GPa) = 17.94175 32.22730 25.08453
#
# Velocity S-wave (km/s) = 2.71180 3.63443 3.20647
# Velocity P-wave (km/s) = 3.91691 6.21559 5.19499
#
# Compressibility (1/GPa) = 0.07402307
#
# Stress axis : x y z
#
# Youngs Moduli (GPa) = 75.24327 12.15515 129.68518
#
# Poissons Ratio (x) = 0.06435 0.55939
# Poissons Ratio (y) = 0.39831 0.65060
# Poissons Ratio (z) = 0.32456 0.06098
#
# Static dielectric constant tensor:
#      x y z
#    x 2.059320 0.000000 0.000000 
#    y 0.000000 2.019030 0.000000 
#    z 0.000000 0.000000 2.011160 
# 
# From -- ./inp_files/28605.got.cif
#   From: 2010.05.17/outbox.cif.g08.bks.cpg/sg70_15_cif.got.tgz:28605.got - 2010.06.03 15:57:51.
