data_PCOD9514629
_publ_section_title
;
Structure prediction by ZEFSAII (Michael W. Deem and Ramdas Pophale) SiO2 
 PCOD9514629
Probable space group: F D D D
;
_chemical_formula_sum "Si O2"
_cell_formula_units_Z 144
_cell_length_a 23.941377
_cell_length_b 22.255864
_cell_length_c 12.292153
_cell_angle_alpha 90.000000
_cell_angle_beta 90.000000
_cell_angle_gamma 90.000000
_cell_volume 6549.702011
_symmetry_space_group_name_H-M "F D D D"
_symmetry_group_IT_number 70
_space_group.IT_coordinate_system_code '2'
_symmetry_cell_setting 'orthorhombic'
loop_
_space_group_symop_operation_xyz
x,y,z
1/4-x,1/4-y,z
x,1/4-y,1/4-z
1/4-x,y,1/4-z
-x,-y,-z
3/4+x,3/4+y,-z
-x,3/4+y,3/4+z
3/4+x,-y,3/4+z
x,1/2+y,1/2+z
1/4-x,3/4-y,1/2+z
x,3/4-y,3/4-z
1/4-x,1/2+y,3/4-z
-x,1/2-y,1/2-z
3/4+x,1/4+y,1/2-z
-x,1/4+y,1/4+z
3/4+x,1/2-y,1/4+z
1/2+x,y,1/2+z
3/4-x,1/4-y,1/2+z
1/2+x,1/4-y,3/4-z
3/4-x,y,3/4-z
1/2-x,-y,1/2-z
1/4+x,3/4+y,1/2-z
1/2-x,3/4+y,1/4+z
1/4+x,-y,1/4+z
1/2+x,1/2+y,z
3/4-x,3/4-y,z
1/2+x,3/4-y,1/4-z
3/4-x,1/2+y,1/4-z
1/2-x,1/2-y,-z
1/4+x,1/4+y,-z
1/2-x,1/4+y,3/4+z
1/4+x,1/2-y,3/4+z
loop_
_atom_site_type_symbol
_atom_site_label
_atom_site_fract_x
_atom_site_fract_y
_atom_site_fract_z
Si Si1 0.044513 0.767886 0.399062
Si Si2 0.340358 0.250666 0.035722
Si Si3 0.566734 0.699185 0.687204
Si Si4 0.875000 0.875000 0.599870
Si Si5 0.982867 0.445524 0.350595
O O1 0.102548 0.787716 0.454846
O O2 0.059614 0.752920 0.274232
O O3 0.025989 0.711330 0.474526
O O4 0.987562 0.804551 0.387446
O O5 0.357014 0.316417 0.083509
O O6 0.292664 0.219150 0.107665
O O7 0.312434 0.266374 0.920324
O O8 0.625000 0.707235 0.625000
O O9 0.575564 0.643659 0.768407
O O10 0.976344 0.375000 0.375000
#
# Coordination Sequence:
#
# PCOD9514629 Si02
#       5
#    32  32  32  16  32
#     4  10  20  36  59  85 116 157 201 248 300 360
#     4  10  22  38  63  93 118 158 213 254 306 376
#     4  10  20  34  57  87 117 153 199 245 299 368
#     4  10  19  38  63  90 120 158 204 252 308 382
#     4  11  22  39  61  88 125 162 203 260 313 364
#
# _framework density 21.985733
#
# number of rings (size 3 to 8) (size 9 to 14) (size 15 to 20)
#    0.000    1.778    0.000    6.333    0.000    0.889 
#    0.000    4.444    0.000   24.000    0.000    0.000 
#    0.000    0.000    0.000    0.000    0.000    0.000 
#
# Total GULP energy -200738.053646 kJ/mol
# GULP energy per Si atom -5576.057046 kJ/mol
# Density = 2.193569 g / cm^3
# Si number density = 21.985733 Si / 1000 Ang^3
#
#
#
# Elastic Constant Matrix: (Units=GPa)
#
#
# Indices 1 2 3 4 5 6 
#
# 1 172.5694 11.8006 53.9490 0.0000 0.0000 0.0000
# 2 11.8006 17.8896 20.9434 0.0000 0.0000 0.0000
# 3 53.9490 20.9434 102.8496 0.0000 0.0000 0.0000
# 4 0.0000 0.0000 0.0000 29.3713 0.0000 0.0000
# 5 0.0000 0.0000 0.0000 0.0000 38.6982 0.0000
# 6 0.0000 0.0000 0.0000 0.0000 0.0000 26.4727
#
#
#
# Elastic Compliance Matrix: (Units=1/GPa)
#
#
# Indices 1 2 3 4 5 6 
#
# 1 0.006934 -0.000415 -0.003553 0.000000 0.000000 0.000000
# 2 -0.000415 0.073420 -0.014733 0.000000 0.000000 0.000000
# 3 -0.003553 -0.014733 0.014587 0.000000 0.000000 0.000000
# 4 0.000000 0.000000 0.000000 0.034047 0.000000 0.000000
# 5 0.000000 0.000000 0.000000 0.000000 0.025841 0.000000
# 6 0.000000 0.000000 0.000000 0.000000 0.000000 0.037775
#
#
# Mechanical properties :
#
#
# Convention : Reuss Voigt Hill
#
# Bulk Modulus (GPa) = 17.37938 51.85496 34.61717
# Shear Modulus (GPa) = 20.06554 32.68282 26.37418
#
# Velocity S-wave (km/s) = 3.02431 3.85976 3.46729
# Velocity P-wave (km/s) = 4.48523 6.59550 5.63994
#
# Compressibility (1/GPa) = 0.05753945
#
# Stress axis : x y z
#
# Youngs Moduli (GPa) = 144.22215 13.62028 68.55632
#
# Poissons Ratio (x) = 0.00565 0.24355
# Poissons Ratio (y) = 0.05981 1.01005
# Poissons Ratio (z) = 0.51236 0.20067
#
# Static dielectric constant tensor:
#      x y z
#    x 1.858530 0.000000 0.000000 
#    y 0.000000 1.798620 0.000000 
#    z 0.000000 0.000000 1.848610 
# 
# From -- ./inp_files/19245.got.cif
#   From: 2010.05.17/outbox.cif.g08.bks.cpg/sg70_10_cif.got.tgz:19245.got - 2010.06.03 15:57:51.
