data_PCOD9514043
_publ_section_title
;
Structure prediction by ZEFSAII (Michael W. Deem and Ramdas Pophale) SiO2 
 PCOD9514043
Probable space group: F D D D
;
_chemical_formula_sum "Si O2"
_cell_formula_units_Z 144
_cell_length_a 22.822925
_cell_length_b 16.792913
_cell_length_c 16.159946
_cell_angle_alpha 90.000000
_cell_angle_beta 90.000000
_cell_angle_gamma 90.000000
_cell_volume 6193.515750
_symmetry_space_group_name_H-M "F D D D"
_symmetry_group_IT_number 70
_space_group.IT_coordinate_system_code '2'
_symmetry_cell_setting 'orthorhombic'
loop_
_space_group_symop_operation_xyz
x,y,z
1/4-x,1/4-y,z
x,1/4-y,1/4-z
1/4-x,y,1/4-z
-x,-y,-z
3/4+x,3/4+y,-z
-x,3/4+y,3/4+z
3/4+x,-y,3/4+z
x,1/2+y,1/2+z
1/4-x,3/4-y,1/2+z
x,3/4-y,3/4-z
1/4-x,1/2+y,3/4-z
-x,1/2-y,1/2-z
3/4+x,1/4+y,1/2-z
-x,1/4+y,1/4+z
3/4+x,1/2-y,1/4+z
1/2+x,y,1/2+z
3/4-x,1/4-y,1/2+z
1/2+x,1/4-y,3/4-z
3/4-x,y,3/4-z
1/2-x,-y,1/2-z
1/4+x,3/4+y,1/2-z
1/2-x,3/4+y,1/4+z
1/4+x,-y,1/4+z
1/2+x,1/2+y,z
3/4-x,3/4-y,z
1/2+x,3/4-y,1/4-z
3/4-x,1/2+y,1/4-z
1/2-x,1/2-y,-z
1/4+x,1/4+y,-z
1/2-x,1/4+y,3/4+z
1/4+x,1/2-y,3/4+z
loop_
_atom_site_type_symbol
_atom_site_label
_atom_site_fract_x
_atom_site_fract_y
_atom_site_fract_z
Si Si1 0.796247 0.314947 0.943724
Si Si2 0.375000 0.375000 0.163245
Si Si3 0.925092 0.620438 0.714351
Si Si4 0.557842 0.360783 0.192257
Si Si5 0.974896 0.486977 0.618712
O O1 0.815889 0.375000 0.875000
O O2 0.798586 0.227263 0.905191
O O3 0.837626 0.318967 0.024815
O O4 0.734103 0.347590 0.977364
O O5 0.329841 0.323051 0.110940
O O6 0.891902 0.625000 0.625000
O O7 0.874856 0.623250 0.781753
O O8 0.969301 0.694954 0.701730
O O9 0.961682 0.539335 0.702488
O O10 0.530304 0.431772 0.138252
#
# Coordination Sequence:
#
# PCOD9514043 Si02
#       5
#    32  16  32  32  32
#     4  10  19  26  43  73 113 141 180 219 291 354
#     4  10  15  30  42  74 112 142 170 235 282 348
#     4   8  16  32  46  74 113 144 187 235 272 340
#     4  10  17  30  48  72 110 149 182 236 281 332
#     4   8  18  27  49  73 106 146 193 216 284 347
#
# _framework density 23.250121
#
# number of rings (size 3 to 8) (size 9 to 14) (size 15 to 20)
#    1.333    1.333    2.222    1.000    0.000    0.000 
#    0.000    0.000    0.000    0.000    0.000   56.000 
#   26.667    0.000    0.000    0.000    0.000    0.000 
#
# Total GULP energy -200639.006988 kJ/mol
# GULP energy per Si atom -5573.305750 kJ/mol
# Density = 2.319720 g / cm^3
# Si number density = 23.250121 Si / 1000 Ang^3
#
#
#
# Elastic Constant Matrix: (Units=GPa)
#
#
# Indices 1 2 3 4 5 6 
#
# 1 113.6410 61.8746 15.4044 0.0000 0.0000 0.0000
# 2 61.8746 164.0934 25.9620 0.0000 0.0000 0.0000
# 3 15.4044 25.9620 59.6290 0.0000 0.0000 0.0000
# 4 0.0000 0.0000 0.0000 16.2117 0.0000 0.0000
# 5 0.0000 0.0000 0.0000 0.0000 19.0180 0.0000
# 6 0.0000 0.0000 0.0000 0.0000 0.0000 87.7037
#
#
#
# Elastic Compliance Matrix: (Units=1/GPa)
#
#
# Indices 1 2 3 4 5 6 
#
# 1 0.011143 -0.004023 -0.001127 0.000000 0.000000 0.000000
# 2 -0.004023 0.007998 -0.002443 0.000000 0.000000 0.000000
# 3 -0.001127 -0.002443 0.018125 0.000000 0.000000 0.000000
# 4 0.000000 0.000000 0.000000 0.061684 0.000000 0.000000
# 5 0.000000 0.000000 0.000000 0.000000 0.052582 0.000000
# 6 0.000000 0.000000 0.000000 0.000000 0.000000 0.011402
#
#
# Mechanical properties :
#
#
# Convention : Reuss Voigt Hill
#
# Bulk Modulus (GPa) = 45.29054 60.42726 52.85890
# Shear Modulus (GPa) = 26.95719 40.19486 33.57603
#
# Velocity S-wave (km/s) = 3.40875 4.16240 3.80428
# Velocity P-wave (km/s) = 5.91733 7.01051 6.48699
#
# Compressibility (1/GPa) = 0.02207967
#
# Stress axis : x y z
#
# Youngs Moduli (GPa) = 89.74220 125.03649 55.17232
#
# Poissons Ratio (x) = 0.50307 0.06217
# Poissons Ratio (y) = 0.36107 0.13477
# Poissons Ratio (z) = 0.10113 0.30543
#
# Static dielectric constant tensor:
#      x y z
#    x 1.885090 0.000000 0.000000 
#    y 0.000000 1.896020 0.000000 
#    z 0.000000 0.000000 1.969100 
# 
# From -- ./inp_files/37334.got.cif
#   From: 2010.05.17/outbox.cif.g08.bks.cpg/sg70_19_cif.got.tgz:37334.got - 2010.06.03 15:57:51.
