data_PCOD9514538
_publ_section_title
;
Structure prediction by ZEFSAII (Michael W. Deem and Ramdas Pophale) SiO2 
 PCOD9514538
Probable space group: F D D D
;
_chemical_formula_sum "Si O2"
_cell_formula_units_Z 144
_cell_length_a 28.741536
_cell_length_b 7.042051
_cell_length_c 28.504509
_cell_angle_alpha 90.000000
_cell_angle_beta 90.000000
_cell_angle_gamma 90.000000
_cell_volume 5769.294445
_symmetry_space_group_name_H-M "F D D D"
_symmetry_group_IT_number 70
_space_group.IT_coordinate_system_code '2'
_symmetry_cell_setting 'orthorhombic'
loop_
_space_group_symop_operation_xyz
x,y,z
1/4-x,1/4-y,z
x,1/4-y,1/4-z
1/4-x,y,1/4-z
-x,-y,-z
3/4+x,3/4+y,-z
-x,3/4+y,3/4+z
3/4+x,-y,3/4+z
x,1/2+y,1/2+z
1/4-x,3/4-y,1/2+z
x,3/4-y,3/4-z
1/4-x,1/2+y,3/4-z
-x,1/2-y,1/2-z
3/4+x,1/4+y,1/2-z
-x,1/4+y,1/4+z
3/4+x,1/2-y,1/4+z
1/2+x,y,1/2+z
3/4-x,1/4-y,1/2+z
1/2+x,1/4-y,3/4-z
3/4-x,y,3/4-z
1/2-x,-y,1/2-z
1/4+x,3/4+y,1/2-z
1/2-x,3/4+y,1/4+z
1/4+x,-y,1/4+z
1/2+x,1/2+y,z
3/4-x,3/4-y,z
1/2+x,3/4-y,1/4-z
3/4-x,1/2+y,1/4-z
1/2-x,1/2-y,-z
1/4+x,1/4+y,-z
1/2-x,1/4+y,3/4+z
1/4+x,1/2-y,3/4+z
loop_
_atom_site_type_symbol
_atom_site_label
_atom_site_fract_x
_atom_site_fract_y
_atom_site_fract_z
Si Si1 0.472228 0.390403 0.554068
Si Si2 0.539969 0.625000 0.625000
Si Si3 0.375000 0.109518 0.875000
Si Si4 0.875000 0.875000 0.957214
Si Si5 0.073231 0.154917 0.891086
Si Si6 0.789440 0.963367 0.014790
O O1 0.510680 0.501556 0.587190
O O2 0.438315 0.299093 0.592652
O O3 0.448327 0.561411 0.524551
O O4 0.495483 0.241612 0.518848
O O5 0.579340 0.760909 0.602508
O O6 0.393119 0.220923 0.919896
O O7 0.919710 0.901009 0.989681
O O8 0.125000 0.125000 0.908900
O O9 0.072723 0.375000 0.875000
O O10 0.035873 0.133841 0.932457
#
# Coordination Sequence:
#
# PCOD9514538 Si02
#       6
#    32  16  16  16  32  32
#     4  10  20  37  63  88 119 164 204 254 303 379
#     4  11  18  40  58  82 112 164 200 236 298 383
#     4  10  24  34  58  84 124 158 194 248 312 352
#     4  11  20  38  54  92 122 154 196 260 305 358
#     4  10  20  38  63  88 121 159 201 254 308 363
#     4  10  19  35  65  86 121 162 206 250 312 367
#
# _framework density 24.959724000000001
#
# number of rings (size 3 to 8) (size 9 to 14) (size 15 to 20)
#    0.000    1.778    6.667    0.000    0.000    0.000 
#    0.000   16.667    0.000    0.000    0.000    0.000 
#    0.000    0.000    0.000    0.000    0.000    0.000 
#
# Total GULP energy -200506.653060 kJ/mol
# GULP energy per Si atom -5569.629252 kJ/mol
# Density = 2.490291 g / cm^3
# Si number density = 24.959724 Si / 1000 Ang^3
#
#
#
# Elastic Constant Matrix: (Units=GPa)
#
#
# Indices 1 2 3 4 5 6 
#
# 1 73.6947 11.8501 21.4108 -0.0003 -0.0002 -0.0009
# 2 11.8501 31.5553 11.3730 -0.0001 -0.0010 -0.0036
# 3 21.4108 11.3730 149.0508 -0.0002 0.0000 0.0002
# 4 -0.0003 -0.0001 -0.0002 17.2095 -0.0002 -0.0003
# 5 -0.0002 -0.0010 0.0000 -0.0002 47.8435 0.0001
# 6 -0.0009 -0.0036 0.0002 -0.0003 0.0001 33.8421
#
#
#
# Elastic Compliance Matrix: (Units=1/GPa)
#
#
# Indices 1 2 3 4 5 6 
#
# 1 0.014877 -0.004953 -0.001759 0.000000 0.000000 0.000000
# 2 -0.004953 0.034235 -0.001901 0.000000 0.000001 0.000003
# 3 -0.001759 -0.001901 0.007107 0.000000 0.000000 0.000000
# 4 0.000000 0.000000 0.000000 0.058108 0.000000 0.000001
# 5 0.000000 0.000001 0.000000 0.000000 0.020901 0.000000
# 6 0.000000 0.000003 0.000000 0.000001 0.000000 0.029549
#
#
# Mechanical properties :
#
#
# Convention : Reuss Voigt Hill
#
# Bulk Modulus (GPa) = 25.64509 38.17429 31.90969
# Shear Modulus (GPa) = 25.64094 33.75681 29.69887
#
# Velocity S-wave (km/s) = 3.20862 3.68156 3.45319
# Velocity P-wave (km/s) = 4.90141 5.77922 5.35832
#
# Compressibility (1/GPa) = 0.03899381
#
# Stress axis : x y z
#
# Youngs Moduli (GPa) = 67.21793 29.20950 140.70919
#
# Poissons Ratio (x) = 0.14467 0.24753
# Poissons Ratio (y) = 0.33292 0.26746
# Poissons Ratio (z) = 0.11825 0.05552
#
# Static dielectric constant tensor:
#      x y z
#    x 2.155100 0.000000 0.000000 
#    y 0.000000 2.218570 0.000000 
#    z 0.000000 0.000000 1.575110 
# 
# From -- ./inp_files/63895.got.cif
#   From: 2010.05.17/outbox.cif.g08.bks.cpg/sg70_32_cif.got.tgz:63895.got - 2010.06.03 15:57:51.
