data_PCOD9514915
_publ_section_title
;
Structure prediction by ZEFSAII (Michael W. Deem and Ramdas Pophale) SiO2 
 PCOD9514915
Probable space group: F D D D
;
_chemical_formula_sum "Si O2"
_cell_formula_units_Z 176
_cell_length_a 30.474844
_cell_length_b 16.567392
_cell_length_c 19.385664
_cell_angle_alpha 90.000000
_cell_angle_beta 90.000000
_cell_angle_gamma 90.000000
_cell_volume 9787.602438
_symmetry_space_group_name_H-M "F D D D"
_symmetry_group_IT_number 70
_space_group.IT_coordinate_system_code '2'
_symmetry_cell_setting 'orthorhombic'
loop_
_space_group_symop_operation_xyz
x,y,z
1/4-x,1/4-y,z
x,1/4-y,1/4-z
1/4-x,y,1/4-z
-x,-y,-z
3/4+x,3/4+y,-z
-x,3/4+y,3/4+z
3/4+x,-y,3/4+z
x,1/2+y,1/2+z
1/4-x,3/4-y,1/2+z
x,3/4-y,3/4-z
1/4-x,1/2+y,3/4-z
-x,1/2-y,1/2-z
3/4+x,1/4+y,1/2-z
-x,1/4+y,1/4+z
3/4+x,1/2-y,1/4+z
1/2+x,y,1/2+z
3/4-x,1/4-y,1/2+z
1/2+x,1/4-y,3/4-z
3/4-x,y,3/4-z
1/2-x,-y,1/2-z
1/4+x,3/4+y,1/2-z
1/2-x,3/4+y,1/4+z
1/4+x,-y,1/4+z
1/2+x,1/2+y,z
3/4-x,3/4-y,z
1/2+x,3/4-y,1/4-z
3/4-x,1/2+y,1/4-z
1/2-x,1/2-y,-z
1/4+x,1/4+y,-z
1/2-x,1/4+y,3/4+z
1/4+x,1/2-y,3/4+z
loop_
_atom_site_type_symbol
_atom_site_label
_atom_site_fract_x
_atom_site_fract_y
_atom_site_fract_z
Si Si1 0.174803 0.028865 0.140999
Si Si2 0.996979 0.736849 0.961052
Si Si3 0.674573 0.621224 0.831891
Si Si4 0.590520 0.740435 0.297691
Si Si5 0.963744 0.625000 0.625000
Si Si6 0.812829 0.214414 0.157911
O O1 0.178587 0.125000 0.125000
O O2 0.125000 0.005237 0.125000
O O3 0.208727 0.975986 0.096731
O O4 0.179087 0.018825 0.222362
O O5 0.037776 0.675100 0.953599
O O6 0.012287 0.826129 0.936572
O O7 0.975437 0.728695 0.036117
O O8 0.625000 0.625000 0.800567
O O9 0.668361 0.660702 0.907773
O O10 0.688804 0.529678 0.845967
O O11 0.565315 0.809181 0.338078
O O12 0.641598 0.765149 0.301937
O O13 0.813121 0.125000 0.125000
#
# Coordination Sequence:
#
# PCOD9514915 Si02
#       6
#    32  32  32  32  16  32
#     4  11  21  32  54  91 131 153 175 237 307 371
#     4  11  22  36  58  91 117 155 197 241 302 354
#     4   9  22  38  58  84 115 156 194 249 296 350
#     4  10  20  37  59  84 121 156 191 236 299 363
#     4  10  22  36  59  88 118 156 199 240 282 364
#     4  11  22  39  59  81 115 159 205 240 291 354
#
# _framework density 17.981930999999999
#
# number of rings (size 3 to 8) (size 9 to 14) (size 15 to 20)
#    0.000    1.636    3.636    1.091    7.636    2.182 
#    0.000    0.000    0.000    0.545    0.000    0.000 
#    0.000    0.000    0.000    0.000    0.000    0.000 
#
# Total GULP energy -245169.214513 kJ/mol
# GULP energy per Si atom -5572.027603 kJ/mol
# Density = 1.794100 g / cm^3
# Si number density = 17.981931 Si / 1000 Ang^3
#
#
#
# Elastic Constant Matrix: (Units=GPa)
#
#
# Indices 1 2 3 4 5 6 
#
# 1 108.8529 34.7915 15.5996 0.0000 0.0000 0.0000
# 2 34.7915 117.8017 18.9604 0.0000 0.0000 0.0000
# 3 15.5996 18.9604 50.2654 0.0000 0.0000 0.0000
# 4 0.0000 0.0000 0.0000 17.7656 0.0000 0.0000
# 5 0.0000 0.0000 0.0000 0.0000 14.5996 0.0000
# 6 0.0000 0.0000 0.0000 0.0000 0.0000 21.3106
#
#
#
# Elastic Compliance Matrix: (Units=1/GPa)
#
#
# Indices 1 2 3 4 5 6 
#
# 1 0.010367 -0.002708 -0.002196 0.000000 0.000000 0.000000
# 2 -0.002708 0.009745 -0.002835 0.000000 0.000000 0.000000
# 3 -0.002196 -0.002835 0.021645 0.000000 0.000000 0.000000
# 4 0.000000 0.000000 0.000000 0.056288 0.000000 0.000000
# 5 0.000000 0.000000 0.000000 0.000000 0.068495 0.000000
# 6 0.000000 0.000000 0.000000 0.000000 0.000000 0.046925
#
#
# Mechanical properties :
#
#
# Convention : Reuss Voigt Hill
#
# Bulk Modulus (GPa) = 38.05395 46.18035 42.11715
# Shear Modulus (GPa) = 21.03452 24.57307 22.80379
#
# Velocity S-wave (km/s) = 3.42388 3.70069 3.56497
# Velocity P-wave (km/s) = 6.06951 6.63305 6.35753
#
# Compressibility (1/GPa) = 0.02627848
#
# Stress axis : x y z
#
# Youngs Moduli (GPa) = 96.45968 102.61576 46.19934
#
# Poissons Ratio (x) = 0.27792 0.10144
# Poissons Ratio (y) = 0.26125 0.13099
# Poissons Ratio (z) = 0.21180 0.29095
#
# Static dielectric constant tensor:
#      x y z
#    x 1.685680 0.000000 0.000000 
#    y 0.000000 1.569250 0.000000 
#    z 0.000000 0.000000 1.827910 
# 
# From -- ./inp_files/35461.got.cif
#   From: 2010.05.17/outbox.cif.g08.bks.cpg/sg70_18_cif.got.tgz:35461.got - 2010.06.03 15:57:51.
