data_PCOD9514839
_publ_section_title
;
Structure prediction by ZEFSAII (Michael W. Deem and Ramdas Pophale) SiO2 
 PCOD9514839
Probable space group: F D D D
;
_chemical_formula_sum "Si O2"
_cell_formula_units_Z 176
_cell_length_a 10.655972
_cell_length_b 26.323814
_cell_length_c 27.082529
_cell_angle_alpha 90.000000
_cell_angle_beta 90.000000
_cell_angle_gamma 90.000000
_cell_volume 7596.807138
_symmetry_space_group_name_H-M "F D D D"
_symmetry_group_IT_number 70
_space_group.IT_coordinate_system_code '2'
_symmetry_cell_setting 'orthorhombic'
loop_
_space_group_symop_operation_xyz
x,y,z
1/4-x,1/4-y,z
x,1/4-y,1/4-z
1/4-x,y,1/4-z
-x,-y,-z
3/4+x,3/4+y,-z
-x,3/4+y,3/4+z
3/4+x,-y,3/4+z
x,1/2+y,1/2+z
1/4-x,3/4-y,1/2+z
x,3/4-y,3/4-z
1/4-x,1/2+y,3/4-z
-x,1/2-y,1/2-z
3/4+x,1/4+y,1/2-z
-x,1/4+y,1/4+z
3/4+x,1/2-y,1/4+z
1/2+x,y,1/2+z
3/4-x,1/4-y,1/2+z
1/2+x,1/4-y,3/4-z
3/4-x,y,3/4-z
1/2-x,-y,1/2-z
1/4+x,3/4+y,1/2-z
1/2-x,3/4+y,1/4+z
1/4+x,-y,1/4+z
1/2+x,1/2+y,z
3/4-x,3/4-y,z
1/2+x,3/4-y,1/4-z
3/4-x,1/2+y,1/4-z
1/2-x,1/2-y,-z
1/4+x,1/4+y,-z
1/2-x,1/4+y,3/4+z
1/4+x,1/2-y,3/4+z
loop_
_atom_site_type_symbol
_atom_site_label
_atom_site_fract_x
_atom_site_fract_y
_atom_site_fract_z
Si Si1 0.641937 0.385998 0.728666
Si Si2 0.875000 0.875000 0.682514
Si Si3 0.140095 0.278488 0.967247
Si Si4 0.256852 0.935609 0.100039
Si Si5 0.727919 0.429364 0.382275
Si Si6 0.583653 0.481667 0.771311
O O1 0.496422 0.389553 0.713151
O O2 0.636726 0.336436 0.764285
O O3 0.716818 0.364705 0.681046
O O4 0.685411 0.442754 0.746456
O O5 0.839060 0.920595 0.646414
O O6 0.175466 0.283507 0.909898
O O7 0.250000 0.250000 0.000000
O O8 0.011672 0.249639 0.979416
O O9 0.125000 0.955381 0.125000
O O10 0.327867 0.971471 0.060835
O O11 0.665002 0.375000 0.375000
O O12 0.875000 0.426184 0.375000
O O13 0.717672 0.441310 0.439430
#
# Coordination Sequence:
#
# PCOD9514839 Si02
#       6
#    32  16  32  32  32  32
#     4  10  21  35  51  79 112 139 183 231 268 329
#     4  10  20  36  58  75 104 153 182 222 288 324
#     4  11  21  32  46  74 112 142 175 216 266 331
#     4   9  21  38  54  79 110 142 187 230 270 336
#     4  11  21  31  46  71 110 144 181 217 265 334
#     4  11  21  33  52  76 109 147 177 220 279 325
#
# _framework density 23.167628000000001
#
# number of rings (size 3 to 8) (size 9 to 14) (size 15 to 20)
#    0.000    1.636    3.636    1.636    7.636    0.000 
#    0.000    0.909    0.000    0.000    0.000    0.000 
#    0.000    0.000    0.000    0.000    0.000    0.000 
#
# Total GULP energy -245037.307897 kJ/mol
# GULP energy per Si atom -5569.029725 kJ/mol
# Density = 2.311490 g / cm^3
# Si number density = 23.167628 Si / 1000 Ang^3
#
#
#
# Elastic Constant Matrix: (Units=GPa)
#
#
# Indices 1 2 3 4 5 6 
#
# 1 27.6153 10.3352 21.1795 0.0000 0.0000 0.0000
# 2 10.3352 154.0232 43.5614 0.0000 0.0000 0.0000
# 3 21.1795 43.5614 123.5745 0.0000 0.0000 0.0000
# 4 0.0000 0.0000 0.0000 61.6415 0.0000 0.0000
# 5 0.0000 0.0000 0.0000 0.0000 27.1250 0.0000
# 6 0.0000 0.0000 0.0000 0.0000 0.0000 14.7900
#
#
#
# Elastic Compliance Matrix: (Units=1/GPa)
#
#
# Indices 1 2 3 4 5 6 
#
# 1 0.041796 -0.000865 -0.006859 0.000000 0.000000 0.000000
# 2 -0.000865 0.007229 -0.002400 0.000000 0.000000 0.000000
# 3 -0.006859 -0.002400 0.010114 0.000000 0.000000 0.000000
# 4 0.000000 0.000000 0.000000 0.016223 0.000000 0.000000
# 5 0.000000 0.000000 0.000000 0.000000 0.036866 0.000000
# 6 0.000000 0.000000 0.000000 0.000000 0.000000 0.067613
#
#
# Mechanical properties :
#
#
# Convention : Reuss Voigt Hill
#
# Bulk Modulus (GPa) = 25.71239 50.59613 38.15426
# Shear Modulus (GPa) = 23.46841 36.05376 29.76109
#
# Velocity S-wave (km/s) = 3.18619 3.94917 3.58802
# Velocity P-wave (km/s) = 4.96571 6.53308 5.80256
#
# Compressibility (1/GPa) = 0.03889175
#
# Stress axis : x y z
#
# Youngs Moduli (GPa) = 23.92599 138.32412 98.87406
#
# Poissons Ratio (x) = 0.11962 0.67813
# Poissons Ratio (y) = 0.02069 0.23732
# Poissons Ratio (z) = 0.16410 0.33201
#
# Static dielectric constant tensor:
#      x y z
#    x 1.843010 0.000000 0.000000 
#    y 0.000000 2.077640 0.000000 
#    z 0.000000 0.000000 1.794940 
# 
# From -- ./inp_files/54316.got.cif
#   From: 2010.05.17/outbox.cif.g08.bks.cpg/sg70_28_cif.got.tgz:54316.got - 2010.06.03 15:57:51.
