data_PCOD9514237
_publ_section_title
;
Structure prediction by ZEFSAII (Michael W. Deem and Ramdas Pophale) SiO2 
 PCOD9514237
Probable space group: F D D D
;
_chemical_formula_sum "Si O2"
_cell_formula_units_Z 176
_cell_length_a 23.038866
_cell_length_b 12.917404
_cell_length_c 27.387478
_cell_angle_alpha 90.000000
_cell_angle_beta 90.000000
_cell_angle_gamma 90.000000
_cell_volume 8150.577535
_symmetry_space_group_name_H-M "F D D D"
_symmetry_group_IT_number 70
_space_group.IT_coordinate_system_code '2'
_symmetry_cell_setting 'orthorhombic'
loop_
_space_group_symop_operation_xyz
x,y,z
1/4-x,1/4-y,z
x,1/4-y,1/4-z
1/4-x,y,1/4-z
-x,-y,-z
3/4+x,3/4+y,-z
-x,3/4+y,3/4+z
3/4+x,-y,3/4+z
x,1/2+y,1/2+z
1/4-x,3/4-y,1/2+z
x,3/4-y,3/4-z
1/4-x,1/2+y,3/4-z
-x,1/2-y,1/2-z
3/4+x,1/4+y,1/2-z
-x,1/4+y,1/4+z
3/4+x,1/2-y,1/4+z
1/2+x,y,1/2+z
3/4-x,1/4-y,1/2+z
1/2+x,1/4-y,3/4-z
3/4-x,y,3/4-z
1/2-x,-y,1/2-z
1/4+x,3/4+y,1/2-z
1/2-x,3/4+y,1/4+z
1/4+x,-y,1/4+z
1/2+x,1/2+y,z
3/4-x,3/4-y,z
1/2+x,3/4-y,1/4-z
3/4-x,1/2+y,1/4-z
1/2-x,1/2-y,-z
1/4+x,1/4+y,-z
1/2-x,1/4+y,3/4+z
1/4+x,1/2-y,3/4+z
loop_
_atom_site_type_symbol
_atom_site_label
_atom_site_fract_x
_atom_site_fract_y
_atom_site_fract_z
Si Si1 0.932021 0.725297 0.458394
Si Si2 0.017882 0.375000 0.375000
Si Si3 0.944136 0.188335 0.813647
Si Si4 0.685834 0.964878 0.651201
Si Si5 0.283066 0.622338 0.206324
Si Si6 0.856900 0.992429 0.568041
O O1 0.869586 0.741165 0.431606
O O2 0.934880 0.602111 0.450325
O O3 0.918451 0.761330 0.513108
O O4 0.992319 0.779838 0.442565
O O5 0.057288 0.288067 0.398466
O O6 0.974733 0.313989 0.339706
O O7 0.957781 0.117987 0.860209
O O8 0.949098 0.121783 0.763608
O O9 0.989152 0.278689 0.804186
O O10 0.625000 0.994101 0.625000
O O11 0.341440 0.578121 0.181374
O O12 0.875000 0.875000 0.580794
#
# Coordination Sequence:
#
# PCOD9514237 Si02
#       6
#    32  16  32  32  32  32
#     4  10  20  36  60  90 117 150 201 254 300 354
#     4  12  25  42  62  82 119 164 202 244 296 372
#     4   9  18  34  57  85 119 157 194 241 299 358
#     4  10  22  39  61  87 115 153 204 251 295 351
#     4  10  18  33  57  84 120 158 193 238 303 363
#     4  11  24  40  60  88 123 162 199 246 311 366
#
# _framework density 21.593561000000001
#
# number of rings (size 3 to 8) (size 9 to 14) (size 15 to 20)
#    0.000    1.818    0.000    6.273    0.000    4.364 
#    0.000    4.545    0.000    2.182    0.000    0.000 
#    0.000    0.000    0.000    0.000    0.000    0.000 
#
# Total GULP energy -245091.951436 kJ/mol
# GULP energy per Si atom -5570.271624 kJ/mol
# Density = 2.154441 g / cm^3
# Si number density = 21.593561 Si / 1000 Ang^3
#
#
#
# Elastic Constant Matrix: (Units=GPa)
#
#
# Indices 1 2 3 4 5 6 
#
# 1 122.9897 55.5061 1.0997 0.0000 0.0000 0.0000
# 2 55.5061 81.8810 13.7593 0.0000 0.0000 0.0000
# 3 1.0997 13.7593 36.6716 0.0000 0.0000 0.0000
# 4 0.0000 0.0000 0.0000 20.6812 0.0000 0.0000
# 5 0.0000 0.0000 0.0000 0.0000 13.5909 0.0000
# 6 0.0000 0.0000 0.0000 0.0000 0.0000 23.9213
#
#
#
# Elastic Compliance Matrix: (Units=1/GPa)
#
#
# Indices 1 2 3 4 5 6 
#
# 1 0.011991 -0.008611 0.002871 0.000000 0.000000 0.000000
# 2 -0.008611 0.019219 -0.006953 0.000000 0.000000 0.000000
# 3 0.002871 -0.006953 0.029792 0.000000 0.000000 0.000000
# 4 0.000000 0.000000 0.000000 0.048353 0.000000 0.000000
# 5 0.000000 0.000000 0.000000 0.000000 0.073579 0.000000
# 6 0.000000 0.000000 0.000000 0.000000 0.000000 0.041804
#
#
# Mechanical properties :
#
#
# Convention : Reuss Voigt Hill
#
# Bulk Modulus (GPa) = 28.07687 42.47474 35.27581
# Shear Modulus (GPa) = 19.08435 23.05048 21.06742
#
# Velocity S-wave (km/s) = 2.97610 3.27076 3.12690
# Velocity P-wave (km/s) = 4.98400 5.82895 5.42295
#
# Compressibility (1/GPa) = 0.03561650
#
# Stress axis : x y z
#
# Youngs Moduli (GPa) = 83.39263 52.03260 33.56646
#
# Poissons Ratio (x) = 0.44807 -0.09638
# Poissons Ratio (y) = 0.71813 0.23338
# Poissons Ratio (z) = -0.23946 0.36177
#
# Static dielectric constant tensor:
#      x y z
#    x 1.891180 0.000000 0.000000 
#    y 0.000000 1.803910 0.000000 
#    z 0.000000 0.000000 1.818080 
# 
# From -- ./inp_files/67774.got.cif
#   From: 2010.05.17/outbox.cif.g08.bks.cpg/sg70_34_cif.got.tgz:67774.got - 2010.06.03 15:57:51.
