data_PCOD9514178
_publ_section_title
;
Structure prediction by ZEFSAII (Michael W. Deem and Ramdas Pophale) SiO2 
 PCOD9514178
Probable space group: F D D D
;
_chemical_formula_sum "Si O2"
_cell_formula_units_Z 152
_cell_length_a 28.622544
_cell_length_b 26.791071
_cell_length_c 10.544318
_cell_angle_alpha 90.000000
_cell_angle_beta 90.000000
_cell_angle_gamma 90.000000
_cell_volume 8085.684700
_symmetry_space_group_name_H-M "F D D D"
_symmetry_group_IT_number 70
_space_group.IT_coordinate_system_code '2'
_symmetry_cell_setting 'orthorhombic'
loop_
_space_group_symop_operation_xyz
x,y,z
1/4-x,1/4-y,z
x,1/4-y,1/4-z
1/4-x,y,1/4-z
-x,-y,-z
3/4+x,3/4+y,-z
-x,3/4+y,3/4+z
3/4+x,-y,3/4+z
x,1/2+y,1/2+z
1/4-x,3/4-y,1/2+z
x,3/4-y,3/4-z
1/4-x,1/2+y,3/4-z
-x,1/2-y,1/2-z
3/4+x,1/4+y,1/2-z
-x,1/4+y,1/4+z
3/4+x,1/2-y,1/4+z
1/2+x,y,1/2+z
3/4-x,1/4-y,1/2+z
1/2+x,1/4-y,3/4-z
3/4-x,y,3/4-z
1/2-x,-y,1/2-z
1/4+x,3/4+y,1/2-z
1/2-x,3/4+y,1/4+z
1/4+x,-y,1/4+z
1/2+x,1/2+y,z
3/4-x,3/4-y,z
1/2+x,3/4-y,1/4-z
3/4-x,1/2+y,1/4-z
1/2-x,1/2-y,-z
1/4+x,1/4+y,-z
1/2-x,1/4+y,3/4+z
1/4+x,1/2-y,3/4+z
loop_
_atom_site_type_symbol
_atom_site_label
_atom_site_fract_x
_atom_site_fract_y
_atom_site_fract_z
Si Si1 0.375000 0.375000 0.875000
Si Si2 0.790700 0.926636 0.740526
Si Si3 0.108393 0.820061 0.752398
Si Si4 0.940513 0.625000 0.125000
Si Si5 0.534789 0.399926 0.651984
Si Si6 0.720558 0.766819 0.834957
O O1 0.409124 0.341593 0.787097
O O2 0.757646 0.878798 0.720193
O O3 0.767435 0.962717 0.846813
O O4 0.785316 0.958335 0.610250
O O5 0.125000 0.793138 0.625000
O O6 0.154581 0.832180 0.830437
O O7 0.080932 0.870414 0.704935
O O8 0.071512 0.790276 0.833239
O O9 0.966930 0.642193 0.251274
O O10 0.533787 0.456907 0.699036
#
# Coordination Sequence:
#
# PCOD9514178 Si02
#       6
#     8  32  32  16  32  32
#     4  12  20  38  60  90 116 156 216 250 310 376
#     4  10  21  34  57  83 112 158 194 256 311 359
#     4   9  16  27  49  83 111 143 186 242 298 353
#     4  10  18  29  56  79 108 163 192 235 306 374
#     4  10  18  35  51  78 120 150 198 247 310 348
#     4  10  18  34  53  80 120 146 189 252 311 358
#
# _framework density 18.798656000000001
#
# number of rings (size 3 to 8) (size 9 to 14) (size 15 to 20)
#    0.000    2.105    4.211    1.263    1.474    0.000 
#    0.000    1.053    0.000    3.158    0.000    0.000 
#    0.000    0.000    0.000    0.000    0.000    0.000 
#
# Total GULP energy -211746.600281 kJ/mol
# GULP energy per Si atom -5572.278955 kJ/mol
# Density = 1.875587 g / cm^3
# Si number density = 18.798656 Si / 1000 Ang^3
#
#
#
# Elastic Constant Matrix: (Units=GPa)
#
#
# Indices 1 2 3 4 5 6 
#
# 1 93.8255 19.7875 28.6529 -0.0001 0.0000 0.0000
# 2 19.7875 69.3833 26.0924 -0.0002 0.0002 0.0001
# 3 28.6529 26.0924 95.8722 -0.0005 0.0000 0.0001
# 4 -0.0001 -0.0002 -0.0005 29.1832 0.0002 0.0001
# 5 0.0000 0.0002 0.0000 0.0002 13.9490 -0.0001
# 6 0.0000 0.0001 0.0001 0.0001 -0.0001 12.2011
#
#
#
# Elastic Compliance Matrix: (Units=1/GPa)
#
#
# Indices 1 2 3 4 5 6 
#
# 1 0.012055 -0.002321 -0.002971 0.000000 0.000000 0.000000
# 2 -0.002321 0.016503 -0.003798 0.000000 0.000000 0.000000
# 3 -0.002971 -0.003798 0.012352 0.000000 0.000000 0.000000
# 4 0.000000 0.000000 0.000000 0.034266 0.000000 0.000000
# 5 0.000000 0.000000 0.000000 0.000000 0.071690 0.000000
# 6 0.000000 0.000000 0.000000 0.000000 0.000000 0.081960
#
#
# Mechanical properties :
#
#
# Convention : Reuss Voigt Hill
#
# Bulk Modulus (GPa) = 43.99373 45.34962 44.67167
# Shear Modulus (GPa) = 19.64008 23.36988 21.50498
#
# Velocity S-wave (km/s) = 3.23578 3.52968 3.38592
# Velocity P-wave (km/s) = 6.11668 6.38653 6.25306
#
# Compressibility (1/GPa) = 0.02273051
#
# Stress axis : x y z
#
# Youngs Moduli (GPa) = 82.95417 60.59613 80.95758
#
# Poissons Ratio (x) = 0.14062 0.24054
# Poissons Ratio (y) = 0.19250 0.30746
# Poissons Ratio (z) = 0.24647 0.23013
#
# Static dielectric constant tensor:
#      x y z
#    x 1.641900 0.000000 0.000000 
#    y 0.000000 1.719760 0.000000 
#    z 0.000000 0.000000 1.698440 
# 
# From -- ./inp_files/22541.got.cif
#   From: 2010.05.17/outbox.cif.g08.bks.cpg/sg70_12_cif.got.tgz:22541.got - 2010.06.03 15:57:51.
