data_PCOD9514698
_publ_section_title
;
Structure prediction by ZEFSAII (Michael W. Deem and Ramdas Pophale) SiO2 
 PCOD9514698
Probable space group: F D D D
;
_chemical_formula_sum "Si O2"
_cell_formula_units_Z 160
_cell_length_a 25.230057
_cell_length_b 12.581750
_cell_length_c 19.704638
_cell_angle_alpha 90.000000
_cell_angle_beta 90.000000
_cell_angle_gamma 90.000000
_cell_volume 6255.006191
_symmetry_space_group_name_H-M "F D D D"
_symmetry_group_IT_number 70
_space_group.IT_coordinate_system_code '2'
_symmetry_cell_setting 'orthorhombic'
loop_
_space_group_symop_operation_xyz
x,y,z
1/4-x,1/4-y,z
x,1/4-y,1/4-z
1/4-x,y,1/4-z
-x,-y,-z
3/4+x,3/4+y,-z
-x,3/4+y,3/4+z
3/4+x,-y,3/4+z
x,1/2+y,1/2+z
1/4-x,3/4-y,1/2+z
x,3/4-y,3/4-z
1/4-x,1/2+y,3/4-z
-x,1/2-y,1/2-z
3/4+x,1/4+y,1/2-z
-x,1/4+y,1/4+z
3/4+x,1/2-y,1/4+z
1/2+x,y,1/2+z
3/4-x,1/4-y,1/2+z
1/2+x,1/4-y,3/4-z
3/4-x,y,3/4-z
1/2-x,-y,1/2-z
1/4+x,3/4+y,1/2-z
1/2-x,3/4+y,1/4+z
1/4+x,-y,1/4+z
1/2+x,1/2+y,z
3/4-x,3/4-y,z
1/2+x,3/4-y,1/4-z
3/4-x,1/2+y,1/4-z
1/2-x,1/2-y,-z
1/4+x,1/4+y,-z
1/2-x,1/4+y,3/4+z
1/4+x,1/2-y,3/4+z
loop_
_atom_site_type_symbol
_atom_site_label
_atom_site_fract_x
_atom_site_fract_y
_atom_site_fract_z
Si Si1 0.730151 0.682752 0.697955
Si Si2 0.728390 0.940160 0.678193
Si Si3 0.125000 0.125000 0.780628
Si Si4 0.342708 0.084072 0.728407
Si Si5 0.165482 0.221825 0.947126
Si Si6 0.375000 0.120800 0.875000
O O1 0.723886 0.625000 0.625000
O O2 0.734198 0.812045 0.694851
O O3 0.678674 0.653107 0.740700
O O4 0.783502 0.628056 0.726752
O O5 0.784984 0.970151 0.645401
O O6 0.677826 0.939968 0.629149
O O7 0.703861 0.019839 0.735760
O O8 0.104749 0.231159 0.817232
O O9 0.381613 0.173602 0.702375
O O10 0.362560 0.058687 0.805431
O O11 0.125000 0.125000 0.949186
#
# Coordination Sequence:
#
# PCOD9514698 Si02
#       6
#    32  32  16  32  32  16
#     4  12  24  41  67  99 136 184 230 289 348 418
#     4  10  21  38  70  96 132 176 227 281 348 415
#     4  12  23  42  64  96 140 178 234 283 342 418
#     4  11  24  42  68  99 132 180 232 285 351 414
#     4  10  19  40  71  95 131 176 227 279 352 418
#     4  10  20  43  69  96 132 176 229 279 346 422
#
# _framework density 25.579511
#
# number of rings (size 3 to 8) (size 9 to 14) (size 15 to 20)
#    0.000    1.200    6.000    2.100    0.000    0.000 
#    0.000   12.000    2.200    0.000    0.000    0.000 
#    0.000    0.000    0.000    0.000    0.000    0.000 
#
# Total GULP energy -223251.526562 kJ/mol
# GULP energy per Si atom -5581.288164 kJ/mol
# Density = 2.552129 g / cm^3
# Si number density = 25.579511 Si / 1000 Ang^3
#
#
#
# Elastic Constant Matrix: (Units=GPa)
#
#
# Indices 1 2 3 4 5 6 
#
# 1 262.7699 59.2496 12.9908 0.0000 0.0000 0.0000
# 2 59.2496 125.2503 17.5305 0.0000 0.0000 0.0000
# 3 12.9908 17.5305 81.5601 0.0000 0.0000 0.0000
# 4 0.0000 0.0000 0.0000 -16.4965 0.0000 0.0000
# 5 0.0000 0.0000 0.0000 0.0000 4.0849 0.0000
# 6 0.0000 0.0000 0.0000 0.0000 0.0000 6.4239
#
#
#
# Elastic Compliance Matrix: (Units=1/GPa)
#
#
# Indices 1 2 3 4 5 6 
#
# 1 0.004265 -0.001982 -0.000253 0.000000 0.000000 0.000000
# 2 -0.001982 0.009153 -0.001652 0.000000 0.000000 0.000000
# 3 -0.000253 -0.001652 0.012656 0.000000 0.000000 0.000000
# 4 0.000000 0.000000 0.000000 -0.060619 0.000000 0.000000
# 5 0.000000 0.000000 0.000000 0.000000 0.244805 0.000000
# 6 0.000000 0.000000 0.000000 0.000000 0.000000 0.155669
#
#
# Mechanical properties :
#
#
# Convention : Reuss Voigt Hill
#
# Bulk Modulus (GPa) = 54.64460 72.12468 63.38464
# Shear Modulus (GPa) = 13.16472 24.12307 18.64389
#
# Velocity S-wave (km/s) = 2.27107 3.07426 2.70267
# Velocity P-wave (km/s) = 5.31846 6.39210 5.87984
#
# Compressibility (1/GPa) = 0.01830007
#
# Stress axis : x y z
#
# Youngs Moduli (GPa) = 234.46291 109.25585 79.01246
#
# Poissons Ratio (x) = 0.21656 0.02001
# Poissons Ratio (y) = 0.46474 0.13050
# Poissons Ratio (z) = 0.05939 0.18045
#
# Static dielectric constant tensor:
#      x y z
#    x 2.225260 0.000000 0.000000 
#    y 0.000000 2.127490 0.000000 
#    z 0.000000 0.000000 2.488820 
# 
# From -- ./inp_files/61643.got.cif
#   From: 2010.05.17/outbox.cif.g08.bks.cpg/sg70_31_cif.got.tgz:61643.got - 2010.06.03 15:57:51.
