data_PCOD9514800
_publ_section_title
;
Structure prediction by ZEFSAII (Michael W. Deem and Ramdas Pophale) SiO2 
 PCOD9514800
Probable space group: F D D D
;
_chemical_formula_sum "Si O2"
_cell_formula_units_Z 176
_cell_length_a 27.954587
_cell_length_b 19.215754
_cell_length_c 12.568561
_cell_angle_alpha 90.000000
_cell_angle_beta 90.000000
_cell_angle_gamma 90.000000
_cell_volume 6751.434644
_symmetry_space_group_name_H-M "F D D D"
_symmetry_group_IT_number 70
_space_group.IT_coordinate_system_code '2'
_symmetry_cell_setting 'orthorhombic'
loop_
_space_group_symop_operation_xyz
x,y,z
1/4-x,1/4-y,z
x,1/4-y,1/4-z
1/4-x,y,1/4-z
-x,-y,-z
3/4+x,3/4+y,-z
-x,3/4+y,3/4+z
3/4+x,-y,3/4+z
x,1/2+y,1/2+z
1/4-x,3/4-y,1/2+z
x,3/4-y,3/4-z
1/4-x,1/2+y,3/4-z
-x,1/2-y,1/2-z
3/4+x,1/4+y,1/2-z
-x,1/4+y,1/4+z
3/4+x,1/2-y,1/4+z
1/2+x,y,1/2+z
3/4-x,1/4-y,1/2+z
1/2+x,1/4-y,3/4-z
3/4-x,y,3/4-z
1/2-x,-y,1/2-z
1/4+x,3/4+y,1/2-z
1/2-x,3/4+y,1/4+z
1/4+x,-y,1/4+z
1/2+x,1/2+y,z
3/4-x,3/4-y,z
1/2+x,3/4-y,1/4-z
3/4-x,1/2+y,1/4-z
1/2-x,1/2-y,-z
1/4+x,1/4+y,-z
1/2-x,1/4+y,3/4+z
1/4+x,1/2-y,3/4+z
loop_
_atom_site_type_symbol
_atom_site_label
_atom_site_fract_x
_atom_site_fract_y
_atom_site_fract_z
Si Si1 0.932038 0.882968 0.166909
Si Si2 0.762345 0.875000 0.375000
Si Si3 0.923203 0.614206 0.744082
Si Si4 0.185504 0.397558 0.227393
Si Si5 0.177284 0.526561 0.724579
Si Si6 0.315710 0.771049 0.250967
O O1 0.875000 0.875000 0.182470
O O2 0.954469 0.901963 0.280029
O O3 0.947676 0.942146 0.082411
O O4 0.948472 0.813164 0.103899
O O5 0.726822 0.826750 0.445061
O O6 0.942433 0.625000 0.625000
O O7 0.868691 0.584320 0.737234
O O8 0.942766 0.581395 0.854084
O O9 0.922884 0.694246 0.778391
O O10 0.187975 0.312760 0.245887
O O11 0.121115 0.544810 0.734026
O O12 0.204004 0.546279 0.615717
#
# Coordination Sequence:
#
# PCOD9514800 Si02
#       6
#    32  16  32  32  32  32
#     4  10  20  35  55  77 112 155 188 221 273 331
#     4  12  23  36  50  76 118 154 184 228 269 330
#     4   9  16  34  61  82 108 139 178 231 284 338
#     4   9  19  34  55  83 109 140 182 229 282 331
#     4   8  15  30  57  85 102 132 187 232 272 323
#     4   8  15  32  57  81 103 135 182 235 279 321
#
# _framework density 26.068534
#
# number of rings (size 3 to 8) (size 9 to 14) (size 15 to 20)
#    0.000    2.909    0.909    3.000    0.000    2.909 
#    0.000    9.091    4.000    0.000    0.000    0.000 
#    0.000    0.000    0.000    0.000    0.000    0.000 
#
# Total GULP energy -245003.565004 kJ/mol
# GULP energy per Si atom -5568.262841 kJ/mol
# Density = 2.600920 g / cm^3
# Si number density = 26.068534 Si / 1000 Ang^3
#
#
#
# Elastic Constant Matrix: (Units=GPa)
#
#
# Indices 1 2 3 4 5 6 
#
# 1 101.0528 7.7816 52.5505 0.0000 0.0000 0.0000
# 2 7.7816 32.4233 -14.2869 0.0000 0.0000 0.0000
# 3 52.5505 -14.2869 257.6824 0.0000 0.0000 0.0000
# 4 0.0000 0.0000 0.0000 16.8503 0.0000 0.0000
# 5 0.0000 0.0000 0.0000 0.0000 -37.1160 0.0000
# 6 0.0000 0.0000 0.0000 0.0000 0.0000 -0.0539
#
#
#
# Elastic Compliance Matrix: (Units=1/GPa)
#
#
# Indices 1 2 3 4 5 6 
#
# 1 0.011531 -0.003899 -0.002568 0.000000 0.000000 0.000000
# 2 -0.003899 0.032933 0.002621 0.000000 0.000000 0.000000
# 3 -0.002568 0.002621 0.004550 0.000000 0.000000 0.000000
# 4 0.000000 0.000000 0.000000 0.059346 0.000000 0.000000
# 5 0.000000 0.000000 0.000000 0.000000 -0.026943 0.000000
# 6 0.000000 0.000000 0.000000 0.000000 0.000000-18.542250
#
#
# Mechanical properties :
#
#
# Convention : Reuss Voigt Hill
#
# Bulk Modulus (GPa) = 24.20003 53.69433 38.94718
# Shear Modulus (GPa) = -0.27116 18.94362 9.33623
#
# Velocity S-wave (km/s) = -0.32287 2.69863 1.89452
# Velocity P-wave (km/s) = 3.02728 5.50929 4.44503
#
# Compressibility (1/GPa) = 0.04132227
#
# Stress axis : x y z
#
# Youngs Moduli (GPa) = 86.71960 30.36493 219.79277
#
# Poissons Ratio (x) = 0.11839 0.56439
# Poissons Ratio (y) = 0.33812 -0.57609
# Poissons Ratio (z) = 0.22268 -0.07959
#
# Static dielectric constant tensor:
#      x y z
#    x 2.148550 0.000000 0.000000 
#    y 0.000000 2.066670 0.000000 
#    z 0.000000 0.000000 2.195240 
# 
# From -- ./inp_files/20939.got.cif
#   From: 2010.05.17/outbox.cif.g08.bks.cpg/sg70_11_cif.got.tgz:20939.got - 2010.06.03 15:57:51.
