data_PCOD9514980
_publ_section_title
;
Structure prediction by ZEFSAII (Michael W. Deem and Ramdas Pophale) SiO2 
 PCOD9514980
Probable space group: F D D D
;
_chemical_formula_sum "Si O2"
_cell_formula_units_Z 192
_cell_length_a 14.679383
_cell_length_b 27.789871
_cell_length_c 26.383216
_cell_angle_alpha 90.000000
_cell_angle_beta 90.000000
_cell_angle_gamma 90.000000
_cell_volume 10762.720588
_symmetry_space_group_name_H-M "F D D D"
_symmetry_group_IT_number 70
_space_group.IT_coordinate_system_code '2'
_symmetry_cell_setting 'orthorhombic'
loop_
_space_group_symop_operation_xyz
x,y,z
1/4-x,1/4-y,z
x,1/4-y,1/4-z
1/4-x,y,1/4-z
-x,-y,-z
3/4+x,3/4+y,-z
-x,3/4+y,3/4+z
3/4+x,-y,3/4+z
x,1/2+y,1/2+z
1/4-x,3/4-y,1/2+z
x,3/4-y,3/4-z
1/4-x,1/2+y,3/4-z
-x,1/2-y,1/2-z
3/4+x,1/4+y,1/2-z
-x,1/4+y,1/4+z
3/4+x,1/2-y,1/4+z
1/2+x,y,1/2+z
3/4-x,1/4-y,1/2+z
1/2+x,1/4-y,3/4-z
3/4-x,y,3/4-z
1/2-x,-y,1/2-z
1/4+x,3/4+y,1/2-z
1/2-x,3/4+y,1/4+z
1/4+x,-y,1/4+z
1/2+x,1/2+y,z
3/4-x,3/4-y,z
1/2+x,3/4-y,1/4-z
3/4-x,1/2+y,1/4-z
1/2-x,1/2-y,-z
1/4+x,1/4+y,-z
1/2-x,1/4+y,3/4+z
1/4+x,1/2-y,3/4+z
loop_
_atom_site_type_symbol
_atom_site_label
_atom_site_fract_x
_atom_site_fract_y
_atom_site_fract_z
Si Si1 0.358324 0.797644 0.624147
Si Si2 0.875000 0.375000 0.211603
Si Si3 0.875000 0.875000 0.205918
Si Si4 0.732639 0.704298 0.119514
Si Si5 0.530176 0.371787 0.956843
Si Si6 0.461007 0.176683 0.239461
Si Si7 0.793924 0.245001 0.915554
O O1 0.357206 0.829093 0.573656
O O2 0.333214 0.833921 0.669708
O O3 0.291775 0.752413 0.621648
O O4 0.461328 0.781062 0.636232
O O5 0.787870 0.366602 0.246548
O O6 0.797256 0.898572 0.239180
O O7 0.625000 0.713975 0.125000
O O8 0.756954 0.669292 0.165997
O O9 0.759250 0.672780 0.070061
O O10 0.632653 0.360306 0.973536
O O11 0.427975 0.211626 0.285864
O O12 0.497204 0.208803 0.192506
O O13 0.875000 0.253822 0.875000
#
# Coordination Sequence:
#
# PCOD9514980 Si02
#       7
#    32  16  16  32  32  32  32
#     4  10  22  40  62  88 123 156 202 252 297 360
#     4  11  22  39  64  91 117 160 205 248 295 366
#     4   9  22  42  57  91 125 153 200 254 299 356
#     4  11  22  41  62  84 125 162 193 254 310 349
#     4  11  21  40  60  87 123 161 198 248 307 361
#     4  10  21  38  62  85 122 162 196 249 308 358
#     4  10  20  38  61  89 119 159 200 250 306 357
#
# _framework density 17.839355999999999
#
# number of rings (size 3 to 8) (size 9 to 14) (size 15 to 20)
#    0.000    1.667    3.333    1.500    0.000    3.333 
#    3.000    1.667    0.000    0.000    0.000    0.000 
#    0.000    0.000    0.000    0.000    0.000    0.000 
#
# Total GULP energy -267857.927885 kJ/mol
# GULP energy per Si atom -5580.373498 kJ/mol
# Density = 1.779875 g / cm^3
# Si number density = 17.839356 Si / 1000 Ang^3
#
#
#
# Elastic Constant Matrix: (Units=GPa)
#
#
# Indices 1 2 3 4 5 6 
#
# 1 63.5269 32.4412 37.4939 0.0000 0.0000 0.0000
# 2 32.4412 98.7577 27.7359 0.0000 0.0000 0.0000
# 3 37.4939 27.7359 82.7861 0.0000 0.0000 0.0000
# 4 0.0000 0.0000 0.0000 -37.0096 0.0000 0.0000
# 5 0.0000 0.0000 0.0000 0.0000 -14.4321 0.0000
# 6 0.0000 0.0000 0.0000 0.0000 0.0000 26.2547
#
#
#
# Elastic Compliance Matrix: (Units=1/GPa)
#
#
# Indices 1 2 3 4 5 6 
#
# 1 0.023737 -0.005274 -0.008983 0.000000 0.000000 0.000000
# 2 -0.005274 0.012350 -0.001749 0.000000 0.000000 0.000000
# 3 -0.008983 -0.001749 0.016734 0.000000 0.000000 0.000000
# 4 0.000000 0.000000 0.000000 -0.027020 0.000000 0.000000
# 5 0.000000 0.000000 0.000000 0.000000 -0.069290 0.000000
# 6 0.000000 0.000000 0.000000 0.000000 0.000000 0.038088
#
#
# Mechanical properties :
#
#
# Convention : Reuss Voigt Hill
#
# Bulk Modulus (GPa) = 48.06026 48.93476 48.49751
# Shear Modulus (GPa) = 149.04245 4.78923 76.91584
#
# Velocity S-wave (km/s) = 9.15032 1.64027 6.57339
# Velocity P-wave (km/s) = 11.77442 5.57473 9.21180
#
# Compressibility (1/GPa) = 0.02080721
#
# Stress axis : x y z
#
# Youngs Moduli (GPa) = 42.12848 80.97480 59.75942
#
# Poissons Ratio (x) = 0.42710 0.53684
# Poissons Ratio (y) = 0.22220 0.10450
# Poissons Ratio (z) = 0.37846 0.14160
#
# Static dielectric constant tensor:
#      x y z
#    x 1.562450 0.000000 0.000000 
#    y 0.000000 1.643970 0.000000 
#    z 0.000000 0.000000 1.611600 
# 
# From -- ./inp_files/58871.got.cif
#   From: 2010.05.17/outbox.cif.g08.bks.cpg/sg70_30_cif.got.tgz:58871.got - 2010.06.03 15:57:51.
