data_PCOD9514293
_publ_section_title
;
Structure prediction by ZEFSAII (Michael W. Deem and Ramdas Pophale) SiO2 
 PCOD9514293
Probable space group: F D D D
;
_chemical_formula_sum "Si O2"
_cell_formula_units_Z 184
_cell_length_a 18.466945
_cell_length_b 13.735957
_cell_length_c 29.715904
_cell_angle_alpha 90.000000
_cell_angle_beta 90.000000
_cell_angle_gamma 90.000000
_cell_volume 7537.770752
_symmetry_space_group_name_H-M "F D D D"
_symmetry_group_IT_number 70
_space_group.IT_coordinate_system_code '2'
_symmetry_cell_setting 'orthorhombic'
loop_
_space_group_symop_operation_xyz
x,y,z
1/4-x,1/4-y,z
x,1/4-y,1/4-z
1/4-x,y,1/4-z
-x,-y,-z
3/4+x,3/4+y,-z
-x,3/4+y,3/4+z
3/4+x,-y,3/4+z
x,1/2+y,1/2+z
1/4-x,3/4-y,1/2+z
x,3/4-y,3/4-z
1/4-x,1/2+y,3/4-z
-x,1/2-y,1/2-z
3/4+x,1/4+y,1/2-z
-x,1/4+y,1/4+z
3/4+x,1/2-y,1/4+z
1/2+x,y,1/2+z
3/4-x,1/4-y,1/2+z
1/2+x,1/4-y,3/4-z
3/4-x,y,3/4-z
1/2-x,-y,1/2-z
1/4+x,3/4+y,1/2-z
1/2-x,3/4+y,1/4+z
1/4+x,-y,1/4+z
1/2+x,1/2+y,z
3/4-x,3/4-y,z
1/2+x,3/4-y,1/4-z
3/4-x,1/2+y,1/4-z
1/2-x,1/2-y,-z
1/4+x,1/4+y,-z
1/2-x,1/4+y,3/4+z
1/4+x,1/2-y,3/4+z
loop_
_atom_site_type_symbol
_atom_site_label
_atom_site_fract_x
_atom_site_fract_y
_atom_site_fract_z
Si Si1 0.125000 0.125000 0.699426
Si Si2 0.125000 0.625000 0.477948
Si Si3 0.624338 0.465430 0.410392
Si Si4 0.285043 0.269210 0.802919
Si Si5 0.719685 0.665756 0.342769
Si Si6 0.125000 0.792624 0.125000
Si Si7 0.625000 0.125000 0.625000
Si Si8 0.780118 0.101273 0.023356
O O1 0.113061 0.217539 0.666558
O O2 0.195731 0.130745 0.729204
O O3 0.062605 0.654547 0.514446
O O4 0.181154 0.667042 0.438431
O O5 0.632453 0.375000 0.375000
O O6 0.702321 0.487536 0.431619
O O7 0.578051 0.546772 0.384379
O O8 0.575033 0.431798 0.451793
O O9 0.327111 0.304192 0.845573
O O10 0.308792 0.172533 0.776187
O O11 0.801217 0.651861 0.360732
O O12 0.716670 0.758059 0.307864
#
# Coordination Sequence:
#
# PCOD9514293 Si02
#       8
#    16  16  32  32  32  16   8  32
#     4   9  14  28  53  86 118 146 182 234 291 352
#     4   9  20  37  55  82 121 154 189 241 295 335
#     4  10  18  35  59  89 112 149 199 235 291 357
#     4  10  20  37  58  84 115 156 197 245 288 340
#     4   9  17  32  58  87 118 155 191 240 290 355
#     4   9  14  26  58  89 113 152 195 224 284 366
#     4  10  20  40  56  82 112 158 214 242 280 342
#     4   9  18  32  56  88 115 148 192 239 295 351
#
# _framework density 24.410399999999999
#
# number of rings (size 3 to 8) (size 9 to 14) (size 15 to 20)
#    0.000    2.609    2.609    0.000    0.000    0.000 
#    3.130    5.217   11.478    0.000    0.000    0.000 
#    0.000    0.000    0.000    0.000    0.000    0.000 
#
# Total GULP energy -256143.538693 kJ/mol
# GULP energy per Si atom -5568.337798 kJ/mol
# Density = 2.435484 g / cm^3
# Si number density = 24.410400 Si / 1000 Ang^3
#
#
#
# Elastic Constant Matrix: (Units=GPa)
#
#
# Indices 1 2 3 4 5 6 
#
# 1 179.5103 34.1513 92.2808 0.0000 0.0000 0.0000
# 2 34.1513 46.1482 43.0288 0.0000 0.0000 0.0000
# 3 92.2808 43.0288 167.9336 0.0000 0.0000 0.0000
# 4 0.0000 0.0000 0.0000 26.7093 0.0000 0.0000
# 5 0.0000 0.0000 0.0000 0.0000 -21.7270 0.0000
# 6 0.0000 0.0000 0.0000 0.0000 0.0000 18.6454
#
#
#
# Elastic Compliance Matrix: (Units=1/GPa)
#
#
# Indices 1 2 3 4 5 6 
#
# 1 0.007958 -0.002381 -0.003763 0.000000 0.000000 0.000000
# 2 -0.002381 0.029183 -0.006169 0.000000 0.000000 0.000000
# 3 -0.003763 -0.006169 0.009603 0.000000 0.000000 0.000000
# 4 0.000000 0.000000 0.000000 0.037440 0.000000 0.000000
# 5 0.000000 0.000000 0.000000 0.000000 -0.046026 0.000000
# 6 0.000000 0.000000 0.000000 0.000000 0.000000 0.053633
#
#
# Mechanical properties :
#
#
# Convention : Reuss Voigt Hill
#
# Bulk Modulus (GPa) = 45.21047 81.39043 63.30045
# Shear Modulus (GPa) = 40.39069 19.66761 30.02915
#
# Velocity S-wave (km/s) = 4.07215 2.84158 3.51120
# Velocity P-wave (km/s) = 6.37739 6.64688 6.51353
#
# Compressibility (1/GPa) = 0.02211877
#
# Stress axis : x y z
#
# Youngs Moduli (GPa) = 125.65839 34.26607 104.13063
#
# Poissons Ratio (x) = 0.08157 0.39185
# Poissons Ratio (y) = 0.29914 0.64242
# Poissons Ratio (z) = 0.47286 0.21140
#
# Static dielectric constant tensor:
#      x y z
#    x 2.007950 0.000000 0.000000 
#    y 0.000000 1.328740 0.000000 
#    z 0.000000 0.000000 1.962790 
# 
# From -- ./inp_files/66784.got.cif
#   From: 2010.05.17/outbox.cif.g08.bks.cpg/sg70_34_cif.got.tgz:66784.got - 2010.06.03 15:57:51.
