data_PCOD9514978
_publ_section_title
;
Structure prediction by ZEFSAII (Michael W. Deem and Ramdas Pophale) SiO2 
 PCOD9514978
Probable space group: F D D D
;
_chemical_formula_sum "Si O2"
_cell_formula_units_Z 160
_cell_length_a 33.437308
_cell_length_b 22.495443
_cell_length_c 10.754025
_cell_angle_alpha 90.000000
_cell_angle_beta 90.000000
_cell_angle_gamma 90.000000
_cell_volume 8089.038407
_symmetry_space_group_name_H-M "F D D D"
_symmetry_group_IT_number 70
_space_group.IT_coordinate_system_code '2'
_symmetry_cell_setting 'orthorhombic'
loop_
_space_group_symop_operation_xyz
x,y,z
1/4-x,1/4-y,z
x,1/4-y,1/4-z
1/4-x,y,1/4-z
-x,-y,-z
3/4+x,3/4+y,-z
-x,3/4+y,3/4+z
3/4+x,-y,3/4+z
x,1/2+y,1/2+z
1/4-x,3/4-y,1/2+z
x,3/4-y,3/4-z
1/4-x,1/2+y,3/4-z
-x,1/2-y,1/2-z
3/4+x,1/4+y,1/2-z
-x,1/4+y,1/4+z
3/4+x,1/2-y,1/4+z
1/2+x,y,1/2+z
3/4-x,1/4-y,1/2+z
1/2+x,1/4-y,3/4-z
3/4-x,y,3/4-z
1/2-x,-y,1/2-z
1/4+x,3/4+y,1/2-z
1/2-x,3/4+y,1/4+z
1/4+x,-y,1/4+z
1/2+x,1/2+y,z
3/4-x,3/4-y,z
1/2+x,3/4-y,1/4-z
3/4-x,1/2+y,1/4-z
1/2-x,1/2-y,-z
1/4+x,1/4+y,-z
1/2-x,1/4+y,3/4+z
1/4+x,1/2-y,3/4+z
loop_
_atom_site_type_symbol
_atom_site_label
_atom_site_fract_x
_atom_site_fract_y
_atom_site_fract_z
Si Si1 0.784998 0.557127 0.620179
Si Si2 0.060407 0.490821 0.404761
Si Si3 0.489954 0.345932 0.747735
Si Si4 0.533468 0.789724 0.602976
Si Si5 0.633247 0.421420 0.988790
O O1 0.770298 0.625000 0.625000
O O2 0.749863 0.511785 0.592364
O O3 0.800732 0.541175 0.758557
O O4 0.821406 0.555817 0.524010
O O5 0.043060 0.556376 0.428764
O O6 0.063147 0.473420 0.259695
O O7 0.101748 0.474349 0.469558
O O8 0.026366 0.446841 0.460085
O O9 0.510069 0.398506 0.669162
O O10 0.473651 0.375000 0.875000
O O11 0.627773 0.375000 0.875000
O O12 0.625000 0.394954 0.125000
#
# Coordination Sequence:
#
# PCOD9514978 Si02
#       5
#    32  32  32  32  32
#     4  10  23  37  60  86 124 152 200 250 302 360
#     4  10  21  35  60  86 118 156 201 245 300 353
#     4   9  19  33  61  84 118 152 205 246 291 354
#     4  10  20  38  61  88 113 162 198 246 303 355
#     4  11  26  38  60  88 126 157 197 252 308 360
#
# _framework density 19.779852999999999
#
# number of rings (size 3 to 8) (size 9 to 14) (size 15 to 20)
#    0.000    2.000    0.000    3.000   19.600    0.000 
#    0.000    1.000    0.000    0.000    0.000    4.200 
#    0.000    0.000    0.000    0.000    0.000    0.000 
#
# Total GULP energy -223434.413003 kJ/mol
# GULP energy per Si atom -5585.860325 kJ/mol
# Density = 1.973483 g / cm^3
# Si number density = 19.779853 Si / 1000 Ang^3
#
#
#
# Elastic Constant Matrix: (Units=GPa)
#
#
# Indices 1 2 3 4 5 6 
#
# 1 23.2116 17.6725 17.9647 0.0000 0.0000 0.0000
# 2 17.6725 82.7100 9.1331 0.0000 0.0000 0.0000
# 3 17.9647 9.1331 107.5900 0.0000 0.0000 0.0000
# 4 0.0000 0.0000 0.0000 16.7760 0.0000 0.0000
# 5 0.0000 0.0000 0.0000 0.0000 22.7932 0.0000
# 6 0.0000 0.0000 0.0000 0.0000 0.0000 13.9072
#
#
#
# Elastic Compliance Matrix: (Units=1/GPa)
#
#
# Indices 1 2 3 4 5 6 
#
# 1 0.058721 -0.011573 -0.008822 0.000000 0.000000 0.000000
# 2 -0.011573 0.014486 0.000703 0.000000 0.000000 0.000000
# 3 -0.008822 0.000703 0.010708 0.000000 0.000000 0.000000
# 4 0.000000 0.000000 0.000000 0.059609 0.000000 0.000000
# 5 0.000000 0.000000 0.000000 0.000000 0.043873 0.000000
# 6 0.000000 0.000000 0.000000 0.000000 0.000000 0.071905
#
#
# Mechanical properties :
#
#
# Convention : Reuss Voigt Hill
#
# Bulk Modulus (GPa) = 22.45687 33.67244 28.06465
# Shear Modulus (GPa) = 15.94744 21.94470 18.94607
#
# Velocity S-wave (km/s) = 2.84253 3.33445 3.09827
# Velocity P-wave (km/s) = 4.70652 5.64671 5.19792
#
# Compressibility (1/GPa) = 0.04452981
#
# Stress axis : x y z
#
# Youngs Moduli (GPa) = 17.02966 69.03436 93.38801
#
# Poissons Ratio (x) = 0.79891 0.82391
# Poissons Ratio (y) = 0.19708 -0.06562
# Poissons Ratio (z) = 0.15024 -0.04851
#
# Static dielectric constant tensor:
#      x y z
#    x 1.662160 0.000000 0.000000 
#    y 0.000000 1.688460 0.000000 
#    z 0.000000 0.000000 1.768720 
# 
# From -- ./inp_files/22158.got.cif
#   From: 2010.05.17/outbox.cif.g08.bks.cpg/sg70_12_cif.got.tgz:22158.got - 2010.06.03 15:57:51.
