data_PCOD9514675
_publ_section_title
;
Structure prediction by ZEFSAII (Michael W. Deem and Ramdas Pophale) SiO2 
 PCOD9514675
Probable space group: F D D D
;
_chemical_formula_sum "Si O2"
_cell_formula_units_Z 240
_cell_length_a 27.078842
_cell_length_b 15.293259
_cell_length_c 30.103993
_cell_angle_alpha 90.000000
_cell_angle_beta 90.000000
_cell_angle_gamma 90.000000
_cell_volume 12466.778294
_symmetry_space_group_name_H-M "F D D D"
_symmetry_group_IT_number 70
_space_group.IT_coordinate_system_code '2'
_symmetry_cell_setting 'orthorhombic'
loop_
_space_group_symop_operation_xyz
x,y,z
1/4-x,1/4-y,z
x,1/4-y,1/4-z
1/4-x,y,1/4-z
-x,-y,-z
3/4+x,3/4+y,-z
-x,3/4+y,3/4+z
3/4+x,-y,3/4+z
x,1/2+y,1/2+z
1/4-x,3/4-y,1/2+z
x,3/4-y,3/4-z
1/4-x,1/2+y,3/4-z
-x,1/2-y,1/2-z
3/4+x,1/4+y,1/2-z
-x,1/4+y,1/4+z
3/4+x,1/2-y,1/4+z
1/2+x,y,1/2+z
3/4-x,1/4-y,1/2+z
1/2+x,1/4-y,3/4-z
3/4-x,y,3/4-z
1/2-x,-y,1/2-z
1/4+x,3/4+y,1/2-z
1/2-x,3/4+y,1/4+z
1/4+x,-y,1/4+z
1/2+x,1/2+y,z
3/4-x,3/4-y,z
1/2+x,3/4-y,1/4-z
3/4-x,1/2+y,1/4-z
1/2-x,1/2-y,-z
1/4+x,1/4+y,-z
1/2-x,1/4+y,3/4+z
1/4+x,1/2-y,3/4+z
loop_
_atom_site_type_symbol
_atom_site_label
_atom_site_fract_x
_atom_site_fract_y
_atom_site_fract_z
Si Si1 0.101069 0.328855 0.326504
Si Si2 0.466388 0.636515 0.336264
Si Si3 0.556301 0.727171 0.926032
Si Si4 0.989658 0.331758 0.328208
Si Si5 0.618966 0.884094 0.229087
Si Si6 0.420084 0.740235 0.843463
Si Si7 0.003694 0.625000 0.125000
Si Si8 0.166286 0.051422 0.021899
O O1 0.103307 0.375000 0.375000
O O2 0.135409 0.242891 0.331928
O O3 0.044843 0.311966 0.310974
O O4 0.120917 0.382204 0.282928
O O5 0.523349 0.605304 0.338094
O O6 0.463350 0.739855 0.334749
O O7 0.435552 0.604707 0.292875
O O8 0.441153 0.592766 0.378999
O O9 0.529602 0.809949 0.903735
O O10 0.553319 0.726216 0.978764
O O11 0.998821 0.375000 0.375000
O O12 0.955115 0.399521 0.302853
O O13 0.651464 0.957432 0.204188
O O14 0.639271 0.788202 0.213811
O O15 0.375000 0.770463 0.875000
O O16 0.461312 0.814952 0.844311
O O17 0.125000 0.125000 0.011262
#
# Coordination Sequence:
#
# PCOD9514675 Si02
#       8
#    32  32  32  32  32  32  16  32
#     4  10  22  39  57  80 117 162 201 242 287 347
#     4  10  20  35  59  89 116 152 190 245 295 364
#     4  10  22  36  59  82 114 151 204 246 285 346
#     4  11  23  37  56  83 122 159 190 235 302 355
#     4  10  20  37  59  90 122 149 195 247 299 361
#     4   9  19  35  60  92 118 147 195 247 308 350
#     4  10  19  40  62  84 116 160 197 254 298 344
#     4  11  22  36  57  91 118 154 196 242 298 369
#
# _framework density 19.251165
#
# number of rings (size 3 to 8) (size 9 to 14) (size 15 to 20)
#    0.000    1.867    2.000    1.800    3.733    1.333 
#    0.000    2.667    2.933    0.000    6.933    0.000 
#    0.000    0.000    0.000    0.000    0.000    0.000 
#
# Total GULP energy -334099.767038 kJ/mol
# GULP energy per Si atom -5568.329451 kJ/mol
# Density = 1.920735 g / cm^3
# Si number density = 19.251165 Si / 1000 Ang^3
#
#
#
# Elastic Constant Matrix: (Units=GPa)
#
#
# Indices 1 2 3 4 5 6 
#
# 1 88.6920 19.4487 19.9173 0.0000 0.0000 0.0000
# 2 19.4487 65.5634 19.4970 0.0000 0.0000 0.0000
# 3 19.9173 19.4970 76.1901 0.0000 0.0000 0.0000
# 4 0.0000 0.0000 0.0000 18.0744 0.0000 0.0000
# 5 0.0000 0.0000 0.0000 0.0000 20.6718 0.0000
# 6 0.0000 0.0000 0.0000 0.0000 0.0000 22.9843
#
#
#
# Elastic Compliance Matrix: (Units=1/GPa)
#
#
# Indices 1 2 3 4 5 6 
#
# 1 0.012487 -0.002958 -0.002507 0.000000 0.000000 0.000000
# 2 -0.002958 0.017210 -0.003631 0.000000 0.000000 0.000000
# 3 -0.002507 -0.003631 0.014710 0.000000 0.000000 0.000000
# 4 0.000000 0.000000 0.000000 0.055327 0.000000 0.000000
# 5 0.000000 0.000000 0.000000 0.000000 0.048375 0.000000
# 6 0.000000 0.000000 0.000000 0.000000 0.000000 0.043508
#
#
# Mechanical properties :
#
#
# Convention : Reuss Voigt Hill
#
# Bulk Modulus (GPa) = 38.14821 38.68572 38.41696
# Shear Modulus (GPa) = 22.87846 23.78493 23.33170
#
# Velocity S-wave (km/s) = 3.45109 3.51879 3.48510
# Velocity P-wave (km/s) = 5.97822 6.05376 6.01611
#
# Compressibility (1/GPa) = 0.02621355
#
# Stress axis : x y z
#
# Youngs Moduli (GPa) = 80.08492 58.10692 67.98309
#
# Poissons Ratio (x) = 0.17191 0.17044
# Poissons Ratio (y) = 0.23693 0.24682
# Poissons Ratio (z) = 0.20079 0.21096
#
# Static dielectric constant tensor:
#      x y z
#    x 1.783090 0.000000 0.000000 
#    y 0.000000 1.653780 0.000000 
#    z 0.000000 0.000000 1.658190 
# 
# From -- ./inp_files/61865.got.cif
#   From: 2010.05.17/outbox.cif.g08.bks.cpg/sg70_31_cif.got.tgz:61865.got - 2010.06.03 15:57:51.
