data_PCOD9514348
_publ_section_title
;
Structure prediction by ZEFSAII (Michael W. Deem and Ramdas Pophale) SiO2 
 PCOD9514348
Probable space group: F D D D
;
_chemical_formula_sum "Si O2"
_cell_formula_units_Z 160
_cell_length_a 27.916447
_cell_length_b 25.258790
_cell_length_c 11.677343
_cell_angle_alpha 90.000000
_cell_angle_beta 90.000000
_cell_angle_gamma 90.000000
_cell_volume 8234.111107
_symmetry_space_group_name_H-M "F D D D"
_symmetry_group_IT_number 70
_space_group.IT_coordinate_system_code '2'
_symmetry_cell_setting 'orthorhombic'
loop_
_space_group_symop_operation_xyz
x,y,z
1/4-x,1/4-y,z
x,1/4-y,1/4-z
1/4-x,y,1/4-z
-x,-y,-z
3/4+x,3/4+y,-z
-x,3/4+y,3/4+z
3/4+x,-y,3/4+z
x,1/2+y,1/2+z
1/4-x,3/4-y,1/2+z
x,3/4-y,3/4-z
1/4-x,1/2+y,3/4-z
-x,1/2-y,1/2-z
3/4+x,1/4+y,1/2-z
-x,1/4+y,1/4+z
3/4+x,1/2-y,1/4+z
1/2+x,y,1/2+z
3/4-x,1/4-y,1/2+z
1/2+x,1/4-y,3/4-z
3/4-x,y,3/4-z
1/2-x,-y,1/2-z
1/4+x,3/4+y,1/2-z
1/2-x,3/4+y,1/4+z
1/4+x,-y,1/4+z
1/2+x,1/2+y,z
3/4-x,3/4-y,z
1/2+x,3/4-y,1/4-z
3/4-x,1/2+y,1/4-z
1/2-x,1/2-y,-z
1/4+x,1/4+y,-z
1/2-x,1/4+y,3/4+z
1/4+x,1/2-y,3/4+z
loop_
_atom_site_type_symbol
_atom_site_label
_atom_site_fract_x
_atom_site_fract_y
_atom_site_fract_z
Si Si1 0.681174 0.132651 0.900240
Si Si2 0.181289 0.360828 0.616281
Si Si3 0.742840 0.175760 0.706043
Si Si4 0.502003 0.442738 0.443070
Si Si5 0.244711 0.455964 0.579870
O O1 0.625000 0.125000 0.909801
O O2 0.698302 0.169024 0.793741
O O3 0.708260 0.076576 0.881737
O O4 0.706025 0.160042 0.010654
O O5 0.125000 0.356248 0.625000
O O6 0.209749 0.328851 0.714702
O O7 0.202694 0.337726 0.497888
O O8 0.200382 0.421061 0.625058
O O9 0.742350 0.125000 0.625000
O O10 0.742585 0.232128 0.643835
O O11 0.500000 0.500000 0.500000
O O12 0.504973 0.450447 0.308328
#
# Coordination Sequence:
#
# PCOD9514348 Si02
#       5
#    32  32  32  32  32
#     4  10  22  37  59  93 114 150 205 238 291 352
#     4  10  22  37  59  92 116 151 203 239 294 355
#     4  10  22  42  59  82 123 162 193 240 290 346
#     4  10  18  38  61  82 120 151 185 246 301 339
#     4  10  20  41  61  83 122 157 184 249 299 343
#
# _framework density 19.431363000000001
#
# number of rings (size 3 to 8) (size 9 to 14) (size 15 to 20)
#    0.000    2.400    4.000    2.400    0.000    8.400 
#    7.200    0.000    0.000    0.000    0.000    0.000 
#    0.000    0.000    0.000    0.000    0.000    0.000 
#
# Total GULP energy -223206.848102 kJ/mol
# GULP energy per Si atom -5580.171203 kJ/mol
# Density = 1.938714 g / cm^3
# Si number density = 19.431363 Si / 1000 Ang^3
#
#
#
# Elastic Constant Matrix: (Units=GPa)
#
#
# Indices 1 2 3 4 5 6 
#
# 1 176.0845 30.7536 7.3393 0.0000 0.0000 0.0000
# 2 30.7536 155.1387 -1.9337 -0.0001 0.0001 0.0000
# 3 7.3393 -1.9337 26.3684 -0.0002 0.0002 0.0001
# 4 0.0000 -0.0001 -0.0002 40.9564 0.0001 0.0001
# 5 0.0000 0.0001 0.0002 0.0001 4.7975 -0.0001
# 6 0.0000 0.0000 0.0001 0.0001 -0.0001 5.1516
#
#
#
# Elastic Compliance Matrix: (Units=1/GPa)
#
#
# Indices 1 2 3 4 5 6 
#
# 1 0.005962 -0.001204 -0.001748 0.000000 0.000000 0.000000
# 2 -0.001204 0.006695 0.000826 0.000000 0.000000 0.000000
# 3 -0.001748 0.000826 0.038471 0.000000 -0.000002 -0.000001
# 4 0.000000 0.000000 0.000000 0.024416 0.000000 0.000000
# 5 0.000000 0.000000 -0.000002 0.000000 0.208442 0.000002
# 6 0.000000 0.000000 -0.000001 0.000000 0.000002 0.194114
#
#
# Mechanical properties :
#
#
# Convention : Reuss Voigt Hill
#
# Bulk Modulus (GPa) = 21.33234 47.76777 34.55005
# Shear Modulus (GPa) = 10.04063 31.60993 20.82528
#
# Velocity S-wave (km/s) = 2.27562 4.03767 3.27729
# Velocity P-wave (km/s) = 4.23163 6.80979 5.66921
#
# Compressibility (1/GPa) = 0.04687719
#
# Stress axis : x y z
#
# Youngs Moduli (GPa) = 167.72427 149.37082 25.99348
#
# Poissons Ratio (x) = 0.17979 0.04543
# Poissons Ratio (y) = 0.20189 -0.02147
# Poissons Ratio (z) = 0.29314 -0.12338
#
# Static dielectric constant tensor:
#      x y z
#    x 1.627170 0.000000 0.000000 
#    y 0.000000 1.724500 0.000000 
#    z 0.000000 0.000000 1.736050 
# 
# From -- ./inp_files/22369.got.cif
#   From: 2010.05.17/outbox.cif.g08.bks.cpg/sg70_12_cif.got.tgz:22369.got - 2010.06.03 15:57:51.
