data_PCOD9514674
_publ_section_title
;
Structure prediction by ZEFSAII (Michael W. Deem and Ramdas Pophale) SiO2 
 PCOD9514674
Probable space group: F D D D
;
_chemical_formula_sum "Si O2"
_cell_formula_units_Z 160
_cell_length_a 10.367707
_cell_length_b 30.808976
_cell_length_c 24.255414
_cell_angle_alpha 90.000000
_cell_angle_beta 90.000000
_cell_angle_gamma 90.000000
_cell_volume 7747.626408
_symmetry_space_group_name_H-M "F D D D"
_symmetry_group_IT_number 70
_space_group.IT_coordinate_system_code '2'
_symmetry_cell_setting 'orthorhombic'
loop_
_space_group_symop_operation_xyz
x,y,z
1/4-x,1/4-y,z
x,1/4-y,1/4-z
1/4-x,y,1/4-z
-x,-y,-z
3/4+x,3/4+y,-z
-x,3/4+y,3/4+z
3/4+x,-y,3/4+z
x,1/2+y,1/2+z
1/4-x,3/4-y,1/2+z
x,3/4-y,3/4-z
1/4-x,1/2+y,3/4-z
-x,1/2-y,1/2-z
3/4+x,1/4+y,1/2-z
-x,1/4+y,1/4+z
3/4+x,1/2-y,1/4+z
1/2+x,y,1/2+z
3/4-x,1/4-y,1/2+z
1/2+x,1/4-y,3/4-z
3/4-x,y,3/4-z
1/2-x,-y,1/2-z
1/4+x,3/4+y,1/2-z
1/2-x,3/4+y,1/4+z
1/4+x,-y,1/4+z
1/2+x,1/2+y,z
3/4-x,3/4-y,z
1/2+x,3/4-y,1/4-z
3/4-x,1/2+y,1/4-z
1/2-x,1/2-y,-z
1/4+x,1/4+y,-z
1/2-x,1/4+y,3/4+z
1/4+x,1/2-y,3/4+z
loop_
_atom_site_type_symbol
_atom_site_label
_atom_site_fract_x
_atom_site_fract_y
_atom_site_fract_z
Si Si1 0.226310 0.369590 0.719096
Si Si2 0.642428 0.466241 0.709324
Si Si3 0.875000 0.455618 0.875000
Si Si4 0.990716 0.651418 0.045067
Si Si5 0.125000 0.434836 0.625000
Si Si6 0.179531 0.531128 0.956560
O O1 0.375000 0.375000 0.734009
O O2 0.202784 0.321896 0.693242
O O3 0.185041 0.404072 0.672312
O O4 0.131279 0.374702 0.772314
O O5 0.648117 0.510273 0.673810
O O6 0.786932 0.448186 0.704026
O O7 0.597960 0.483487 0.769165
O O8 0.758314 0.424340 0.894995
O O9 0.125000 0.625000 0.038796
O O10 0.994555 0.691518 0.002385
O O11 0.238371 0.463755 0.598371
#
# Coordination Sequence:
#
# PCOD9514674 Si02
#       6
#    32  32  16  32  16  32
#     4  11  24  38  62  93 132 164 200 265 329 367
#     4  10  20  39  61  88 125 165 207 260 314 380
#     4  10  22  34  64  93 110 166 220 257 296 376
#     4  10  19  40  61  86 119 160 216 259 301 376
#     4  10  23  36  60  93 121 166 215 263 306 384
#     4   9  20  38  60  86 119 164 209 259 314 365
#
# _framework density 20.651485999999998
#
# number of rings (size 3 to 8) (size 9 to 14) (size 15 to 20)
#    0.000    2.000    2.000    0.900    5.600    0.000 
#    3.600    3.000    0.000    2.400    0.000    0.000 
#    0.000    0.000    0.000    0.000    0.000    0.000 
#
# Total GULP energy -222699.369781 kJ/mol
# GULP energy per Si atom -5567.484245 kJ/mol
# Density = 2.060448 g / cm^3
# Si number density = 20.651486 Si / 1000 Ang^3
#
#
#
# Elastic Constant Matrix: (Units=GPa)
#
#
# Indices 1 2 3 4 5 6 
#
# 1 138.8908 48.0484 48.3952 0.0000 0.0000 0.0000
# 2 48.0484 67.1270 44.2964 0.0000 0.0000 0.0000
# 3 48.3952 44.2964 88.5164 0.0000 0.0000 0.0000
# 4 0.0000 0.0000 0.0000 16.7102 0.0000 0.0000
# 5 0.0000 0.0000 0.0000 0.0000 34.4780 0.0000
# 6 0.0000 0.0000 0.0000 0.0000 0.0000 20.4774
#
#
#
# Elastic Compliance Matrix: (Units=1/GPa)
#
#
# Indices 1 2 3 4 5 6 
#
# 1 0.010020 -0.005311 -0.002821 0.000000 0.000000 0.000000
# 2 -0.005311 0.025057 -0.009636 0.000000 0.000000 0.000000
# 3 -0.002821 -0.009636 0.017661 0.000000 0.000000 0.000000
# 4 0.000000 0.000000 0.000000 0.059844 0.000000 0.000000
# 5 0.000000 0.000000 0.000000 0.000000 0.029004 0.000000
# 6 0.000000 0.000000 0.000000 0.000000 0.000000 0.048834
#
#
# Mechanical properties :
#
#
# Convention : Reuss Voigt Hill
#
# Bulk Modulus (GPa) = 58.12527 64.00160 61.06343
# Shear Modulus (GPa) = 21.58060 24.58605 23.08333
#
# Velocity S-wave (km/s) = 3.23614 3.45414 3.34691
# Velocity P-wave (km/s) = 6.49387 6.85322 6.67596
#
# Compressibility (1/GPa) = 0.01720422
#
# Stress axis : x y z
#
# Youngs Moduli (GPa) = 99.80086 39.90893 56.62042
#
# Poissons Ratio (x) = 0.21195 0.15970
# Poissons Ratio (y) = 0.53003 0.54558
# Poissons Ratio (z) = 0.28149 0.38455
#
# Static dielectric constant tensor:
#      x y z
#    x 1.730060 0.000000 0.000000 
#    y 0.000000 1.763110 0.000000 
#    z 0.000000 0.000000 1.859820 
# 
# From -- ./inp_files/63951.got.cif
#   From: 2010.05.17/outbox.cif.g08.bks.cpg/sg70_32_cif.got.tgz:63951.got - 2010.06.03 15:57:51.
