data_PCOD9514541
_publ_section_title
;
Structure prediction by ZEFSAII (Michael W. Deem and Ramdas Pophale) SiO2 
 PCOD9514541
Probable space group: F D D D
;
_chemical_formula_sum "Si O2"
_cell_formula_units_Z 208
_cell_length_a 21.819619
_cell_length_b 19.001206
_cell_length_c 24.865404
_cell_angle_alpha 90.000000
_cell_angle_beta 90.000000
_cell_angle_gamma 90.000000
_cell_volume 10309.173509
_symmetry_space_group_name_H-M "F D D D"
_symmetry_group_IT_number 70
_space_group.IT_coordinate_system_code '2'
_symmetry_cell_setting 'orthorhombic'
loop_
_space_group_symop_operation_xyz
x,y,z
1/4-x,1/4-y,z
x,1/4-y,1/4-z
1/4-x,y,1/4-z
-x,-y,-z
3/4+x,3/4+y,-z
-x,3/4+y,3/4+z
3/4+x,-y,3/4+z
x,1/2+y,1/2+z
1/4-x,3/4-y,1/2+z
x,3/4-y,3/4-z
1/4-x,1/2+y,3/4-z
-x,1/2-y,1/2-z
3/4+x,1/4+y,1/2-z
-x,1/4+y,1/4+z
3/4+x,1/2-y,1/4+z
1/2+x,y,1/2+z
3/4-x,1/4-y,1/2+z
1/2+x,1/4-y,3/4-z
3/4-x,y,3/4-z
1/2-x,-y,1/2-z
1/4+x,3/4+y,1/2-z
1/2-x,3/4+y,1/4+z
1/4+x,-y,1/4+z
1/2+x,1/2+y,z
3/4-x,3/4-y,z
1/2+x,3/4-y,1/4-z
3/4-x,1/2+y,1/4-z
1/2-x,1/2-y,-z
1/4+x,1/4+y,-z
1/2-x,1/4+y,3/4+z
1/4+x,1/2-y,3/4+z
loop_
_atom_site_type_symbol
_atom_site_label
_atom_site_fract_x
_atom_site_fract_y
_atom_site_fract_z
Si Si1 0.292715 0.186451 0.934284
Si Si2 0.131365 0.545715 0.330211
Si Si3 0.437884 0.831279 0.558662
Si Si4 0.347771 0.059544 0.515328
Si Si5 0.686277 0.789999 0.514045
Si Si6 0.047038 0.449832 0.397556
Si Si7 0.375000 0.083115 0.875000
O O1 0.241695 0.133581 0.957513
O O2 0.258617 0.259747 0.925448
O O3 0.319158 0.136817 0.887191
O O4 0.352332 0.199862 0.969148
O O5 0.125000 0.625000 0.310034
O O6 0.182066 0.555227 0.378568
O O7 0.143877 0.494996 0.280979
O O8 0.072194 0.511354 0.358338
O O9 0.375000 0.875000 0.550954
O O10 0.440108 0.760803 0.524291
O O11 0.308538 0.127915 0.501898
O O12 0.392687 0.067836 0.566856
O O13 0.750000 0.750000 0.500000
O O14 0.651252 0.789992 0.572641
O O15 0.026782 0.375000 0.375000
#
# Coordination Sequence:
#
# PCOD9514541 Si02
#       7
#    32  32  32  32  32  32  16
#     4  11  21  43  63  90 144 170 207 276 341 400
#     4  10  19  37  64  92 121 165 227 264 322 393
#     4  10  19  35  67  97 126 176 222 264 330 405
#     4  10  22  39  62 100 123 168 222 266 325 402
#     4  11  23  43  67  89 134 180 222 284 338 395
#     4  11  20  37  67  97 124 161 219 272 316 397
#     4  10  26  46  62  98 132 180 226 278 356 398
#
# _framework density 20.176205
#
# number of rings (size 3 to 8) (size 9 to 14) (size 15 to 20)
#    0.000    1.538    6.154    1.385    0.000    0.000 
#   11.077    0.769    0.000    0.000    0.000    0.000 
#    0.000    0.000    0.000    0.000    0.000    0.000 
#
# Total GULP energy -289499.024910 kJ/mol
# GULP energy per Si atom -5567.288941 kJ/mol
# Density = 2.013028 g / cm^3
# Si number density = 20.176205 Si / 1000 Ang^3
#
#
#
# Elastic Constant Matrix: (Units=GPa)
#
#
# Indices 1 2 3 4 5 6 
#
# 1 55.1656 33.0276 -4.9684 0.0000 0.0000 0.0000
# 2 33.0276 156.4477 27.0055 0.0000 0.0000 0.0000
# 3 -4.9684 27.0055 38.9835 0.0000 0.0000 0.0000
# 4 0.0000 0.0000 0.0000 62.8516 0.0000 0.0000
# 5 0.0000 0.0000 0.0000 0.0000 24.8571 0.0000
# 6 0.0000 0.0000 0.0000 0.0000 0.0000 21.6535
#
#
#
# Elastic Compliance Matrix: (Units=1/GPa)
#
#
# Indices 1 2 3 4 5 6 
#
# 1 0.022283 -0.005900 0.006927 0.000000 0.000000 0.000000
# 2 -0.005900 0.008822 -0.006863 0.000000 0.000000 0.000000
# 3 0.006927 -0.006863 0.031289 0.000000 0.000000 0.000000
# 4 0.000000 0.000000 0.000000 0.015910 0.000000 0.000000
# 5 0.000000 0.000000 0.000000 0.000000 0.040230 0.000000
# 6 0.000000 0.000000 0.000000 0.000000 0.000000 0.046182
#
#
# Mechanical properties :
#
#
# Convention : Reuss Voigt Hill
#
# Bulk Modulus (GPa) = 19.71513 40.08070 29.89791
# Shear Modulus (GPa) = 25.86686 34.90791 30.38738
#
# Velocity S-wave (km/s) = 3.58445 4.16402 3.88506
# Velocity P-wave (km/s) = 5.18881 6.55951 5.91401
#
# Compressibility (1/GPa) = 0.05072248
#
# Stress axis : x y z
#
# Youngs Moduli (GPa) = 44.87633 113.35025 31.95972
#
# Poissons Ratio (x) = 0.66877 -0.22139
# Poissons Ratio (y) = 0.26477 0.21935
# Poissons Ratio (z) = -0.31087 0.77798
#
# Static dielectric constant tensor:
#      x y z
#    x 1.694250 0.000000 0.000000 
#    y 0.000000 1.763000 0.000000 
#    z 0.000000 0.000000 1.836400 
# 
# From -- ./inp_files/68037.got.cif
#   From: 2010.05.17/outbox.cif.g08.bks.cpg/sg70_35_cif.got.tgz:68037.got - 2010.06.03 15:57:51.
