data_PCOD9514642
_publ_section_title
;
Structure prediction by ZEFSAII (Michael W. Deem and Ramdas Pophale) SiO2 
 PCOD9514642
Probable space group: F D D D
;
_chemical_formula_sum "Si O2"
_cell_formula_units_Z 160
_cell_length_a 13.919228
_cell_length_b 21.953517
_cell_length_c 24.409403
_cell_angle_alpha 90.000000
_cell_angle_beta 90.000000
_cell_angle_gamma 90.000000
_cell_volume 7458.927939
_symmetry_space_group_name_H-M "F D D D"
_symmetry_group_IT_number 70
_space_group.IT_coordinate_system_code '2'
_symmetry_cell_setting 'orthorhombic'
loop_
_space_group_symop_operation_xyz
x,y,z
1/4-x,1/4-y,z
x,1/4-y,1/4-z
1/4-x,y,1/4-z
-x,-y,-z
3/4+x,3/4+y,-z
-x,3/4+y,3/4+z
3/4+x,-y,3/4+z
x,1/2+y,1/2+z
1/4-x,3/4-y,1/2+z
x,3/4-y,3/4-z
1/4-x,1/2+y,3/4-z
-x,1/2-y,1/2-z
3/4+x,1/4+y,1/2-z
-x,1/4+y,1/4+z
3/4+x,1/2-y,1/4+z
1/2+x,y,1/2+z
3/4-x,1/4-y,1/2+z
1/2+x,1/4-y,3/4-z
3/4-x,y,3/4-z
1/2-x,-y,1/2-z
1/4+x,3/4+y,1/2-z
1/2-x,3/4+y,1/4+z
1/4+x,-y,1/4+z
1/2+x,1/2+y,z
3/4-x,3/4-y,z
1/2+x,3/4-y,1/4-z
3/4-x,1/2+y,1/4-z
1/2-x,1/2-y,-z
1/4+x,1/4+y,-z
1/2-x,1/4+y,3/4+z
1/4+x,1/2-y,3/4+z
loop_
_atom_site_type_symbol
_atom_site_label
_atom_site_fract_x
_atom_site_fract_y
_atom_site_fract_z
Si Si1 0.984043 0.459441 0.714332
Si Si2 0.990230 0.114542 0.370864
Si Si3 0.960985 0.720465 0.803522
Si Si4 0.975873 0.776611 0.406593
Si Si5 0.432129 0.557280 0.135120
O O1 0.967144 0.400141 0.674311
O O2 0.097999 0.466897 0.705932
O O3 0.962803 0.456603 0.779197
O O4 0.932357 0.521186 0.692747
O O5 0.875000 0.119880 0.375000
O O6 0.010736 0.156380 0.318282
O O7 0.005017 0.044002 0.357479
O O8 0.000000 0.750000 0.750000
O O9 0.996026 0.763873 0.851776
O O10 0.875000 0.788917 0.375000
O O11 0.072936 0.808860 0.386631
O O12 0.469604 0.625000 0.125000
#
# Coordination Sequence:
#
# PCOD9514642 Si02
#       5
#    32  32  32  32  32
#     4  10  22  41  65  97 135 165 209 285 335 397
#     4   8  19  38  63  93 130 162 219 273 324 402
#     4  10  19  38  65  97 127 164 207 268 346 404
#     4  11  24  43  67  94 124 183 235 265 331 394
#     4  11  25  41  60  96 135 168 220 279 336 398
#
# _framework density 21.450803000000001
#
# number of rings (size 3 to 8) (size 9 to 14) (size 15 to 20)
#    0.000    2.000    2.000    1.800    2.800    7.600 
#    0.000    2.000    0.000    0.000    0.000    0.000 
#    0.000    0.000    0.000    0.000    0.000    0.000 
#
# Total GULP energy -222754.503768 kJ/mol
# GULP energy per Si atom -5568.862594 kJ/mol
# Density = 2.140198 g / cm^3
# Si number density = 21.450803 Si / 1000 Ang^3
#
#
#
# Elastic Constant Matrix: (Units=GPa)
#
#
# Indices 1 2 3 4 5 6 
#
# 1 84.5584 -4.0091 44.1539 0.0000 0.0000 0.0000
# 2 -4.0091 85.4068 25.9900 0.0000 0.0000 0.0000
# 3 44.1539 25.9900 126.1186 0.0000 0.0000 0.0000
# 4 0.0000 0.0000 0.0000 -9.7557 0.0000 0.0000
# 5 0.0000 0.0000 0.0000 0.0000 21.7740 0.0000
# 6 0.0000 0.0000 0.0000 0.0000 0.0000 21.9278
#
#
#
# Elastic Compliance Matrix: (Units=1/GPa)
#
#
# Indices 1 2 3 4 5 6 
#
# 1 0.014936 0.002446 -0.005733 0.000000 0.000000 0.000000
# 2 0.002446 0.012893 -0.003513 0.000000 0.000000 0.000000
# 3 -0.005733 -0.003513 0.010660 0.000000 0.000000 0.000000
# 4 0.000000 0.000000 0.000000 -0.102504 0.000000 0.000000
# 5 0.000000 0.000000 0.000000 0.000000 0.045926 0.000000
# 6 0.000000 0.000000 0.000000 0.000000 0.000000 0.045604
#
#
# Mechanical properties :
#
#
# Convention : Reuss Voigt Hill
#
# Bulk Modulus (GPa) = 40.18058 47.59481 43.88769
# Shear Modulus (GPa) = 101.19170 22.11915 61.65542
#
# Velocity S-wave (km/s) = 6.87577 3.21465 5.36704
# Velocity P-wave (km/s) = 9.04473 6.00122 7.67535
#
# Compressibility (1/GPa) = 0.02488765
#
# Stress axis : x y z
#
# Youngs Moduli (GPa) = 66.95379 77.56427 93.80779
#
# Poissons Ratio (x) = -0.18970 0.53780
# Poissons Ratio (y) = -0.16375 0.32955
# Poissons Ratio (z) = 0.38384 0.27249
#
# Static dielectric constant tensor:
#      x y z
#    x 1.792350 0.000000 0.000000 
#    y 0.000000 1.901160 0.000000 
#    z 0.000000 0.000000 1.733110 
# 
# From -- ./inp_files/51131.got.cif
#   From: 2010.05.17/outbox.cif.g08.bks.cpg/sg70_26_cif.got.tgz:51131.got - 2010.06.03 15:57:51.
