data_PCOD9514418
_publ_section_title
;
Structure prediction by ZEFSAII (Michael W. Deem and Ramdas Pophale) SiO2 
 PCOD9514418
Probable space group: F D D D
;
_chemical_formula_sum "Si O2"
_cell_formula_units_Z 160
_cell_length_a 18.038311
_cell_length_b 13.599149
_cell_length_c 23.192650
_cell_angle_alpha 90.000000
_cell_angle_beta 90.000000
_cell_angle_gamma 90.000000
_cell_volume 5689.288756
_symmetry_space_group_name_H-M "F D D D"
_symmetry_group_IT_number 70
_space_group.IT_coordinate_system_code '2'
_symmetry_cell_setting 'orthorhombic'
loop_
_space_group_symop_operation_xyz
x,y,z
1/4-x,1/4-y,z
x,1/4-y,1/4-z
1/4-x,y,1/4-z
-x,-y,-z
3/4+x,3/4+y,-z
-x,3/4+y,3/4+z
3/4+x,-y,3/4+z
x,1/2+y,1/2+z
1/4-x,3/4-y,1/2+z
x,3/4-y,3/4-z
1/4-x,1/2+y,3/4-z
-x,1/2-y,1/2-z
3/4+x,1/4+y,1/2-z
-x,1/4+y,1/4+z
3/4+x,1/2-y,1/4+z
1/2+x,y,1/2+z
3/4-x,1/4-y,1/2+z
1/2+x,1/4-y,3/4-z
3/4-x,y,3/4-z
1/2-x,-y,1/2-z
1/4+x,3/4+y,1/2-z
1/2-x,3/4+y,1/4+z
1/4+x,-y,1/4+z
1/2+x,1/2+y,z
3/4-x,3/4-y,z
1/2+x,3/4-y,1/4-z
3/4-x,1/2+y,1/4-z
1/2-x,1/2-y,-z
1/4+x,1/4+y,-z
1/2-x,1/4+y,3/4+z
1/4+x,1/2-y,3/4+z
loop_
_atom_site_type_symbol
_atom_site_label
_atom_site_fract_x
_atom_site_fract_y
_atom_site_fract_z
Si Si1 0.054455 0.892548 0.211133
Si Si2 0.760403 0.712426 0.914487
Si Si3 0.971464 0.803582 0.320972
Si Si4 0.123512 0.484060 0.352626
Si Si5 0.007212 0.164329 0.022894
O O1 0.998302 0.863217 0.264747
O O2 0.047217 0.930489 0.144825
O O3 0.085253 0.781405 0.198129
O O4 0.070594 0.003537 0.236197
O O5 0.672675 0.711713 0.900834
O O6 0.777321 0.823697 0.934865
O O7 0.772729 0.637962 0.965976
O O8 0.954714 0.875000 0.375000
O O9 0.044203 0.735260 0.336702
O O10 0.137163 0.375000 0.375000
O O11 0.063552 0.470300 0.301774
#
# Coordination Sequence:
#
# PCOD9514418 Si02
#       5
#    32  32  32  32  32
#     4  10  19  31  49  74 103 137 176 217 268 316
#     4   9  17  31  52  74 100 132 171 217 268 321
#     4  10  20  33  49  72 105 140 178 223 264 312
#     4   8  16  31  50  75 101 132 176 217 256 311
#     4   9  17  31  52  77 101 132 173 216 268 324
#
# _framework density 28.123023
#
# number of rings (size 3 to 8) (size 9 to 14) (size 15 to 20)
#    0.000    2.800    0.000    3.000    0.000    3.200 
#    0.000    5.000    0.000    3.600    0.000   36.400 
#    0.000    0.000    0.000    0.000    0.000    0.000 
#
# Total GULP energy -222807.880600 kJ/mol
# GULP energy per Si atom -5570.197015 kJ/mol
# Density = 2.805901 g / cm^3
# Si number density = 28.123023 Si / 1000 Ang^3
#
#
#
# Elastic Constant Matrix: (Units=GPa)
#
#
# Indices 1 2 3 4 5 6 
#
# 1 111.3259 17.3656 2.9768 0.0000 0.0000 0.0000
# 2 17.3656 204.1979 73.2484 0.0000 0.0000 0.0000
# 3 2.9768 73.2484 149.7075 0.0000 0.0000 0.0000
# 4 0.0000 0.0000 0.0000 41.0926 0.0000 0.0000
# 5 0.0000 0.0000 0.0000 0.0000 31.3435 0.0000
# 6 0.0000 0.0000 0.0000 0.0000 0.0000 13.3132
#
#
#
# Elastic Compliance Matrix: (Units=1/GPa)
#
#
# Indices 1 2 3 4 5 6 
#
# 1 0.009111 -0.000861 0.000240 0.000000 0.000000 0.000000
# 2 -0.000861 0.006021 -0.002929 0.000000 0.000000 0.000000
# 3 0.000240 -0.002929 0.008108 0.000000 0.000000 0.000000
# 4 0.000000 0.000000 0.000000 0.024335 0.000000 0.000000
# 5 0.000000 0.000000 0.000000 0.000000 0.031904 0.000000
# 6 0.000000 0.000000 0.000000 0.000000 0.000000 0.075114
#
#
# Mechanical properties :
#
#
# Convention : Reuss Voigt Hill
#
# Bulk Modulus (GPa) = 61.95736 72.49033 67.22385
# Shear Modulus (GPa) = 29.92716 41.92589 35.92652
#
# Velocity S-wave (km/s) = 3.26567 3.86528 3.57806
# Velocity P-wave (km/s) = 6.02479 6.76407 6.40511
#
# Compressibility (1/GPa) = 0.01614013
#
# Stress axis : x y z
#
# Youngs Moduli (GPa) = 109.76336 166.08439 123.33602
#
# Poissons Ratio (x) = 0.14298 -0.02961
# Poissons Ratio (y) = 0.09450 0.36123
# Poissons Ratio (z) = -0.02635 0.48643
#
# Static dielectric constant tensor:
#      x y z
#    x 2.769520 0.000000 0.000000 
#    y 0.000000 2.349490 0.000000 
#    z 0.000000 0.000000 2.121510 
# 
# From -- ./inp_files/28873.got.cif
#   From: 2010.05.17/outbox.cif.g08.bks.cpg/sg70_15_cif.got.tgz:28873.got - 2010.06.03 15:57:51.
