data_PCOD9514446
_publ_section_title
;
Structure prediction by ZEFSAII (Michael W. Deem and Ramdas Pophale) SiO2 
 PCOD9514446
Probable space group: F D D D
;
_chemical_formula_sum "Si O2"
_cell_formula_units_Z 160
_cell_length_a 34.068985
_cell_length_b 17.070219
_cell_length_c 14.594416
_cell_angle_alpha 90.000000
_cell_angle_beta 90.000000
_cell_angle_gamma 90.000000
_cell_volume 8487.602053
_symmetry_space_group_name_H-M "F D D D"
_symmetry_group_IT_number 70
_space_group.IT_coordinate_system_code '2'
_symmetry_cell_setting 'orthorhombic'
loop_
_space_group_symop_operation_xyz
x,y,z
1/4-x,1/4-y,z
x,1/4-y,1/4-z
1/4-x,y,1/4-z
-x,-y,-z
3/4+x,3/4+y,-z
-x,3/4+y,3/4+z
3/4+x,-y,3/4+z
x,1/2+y,1/2+z
1/4-x,3/4-y,1/2+z
x,3/4-y,3/4-z
1/4-x,1/2+y,3/4-z
-x,1/2-y,1/2-z
3/4+x,1/4+y,1/2-z
-x,1/4+y,1/4+z
3/4+x,1/2-y,1/4+z
1/2+x,y,1/2+z
3/4-x,1/4-y,1/2+z
1/2+x,1/4-y,3/4-z
3/4-x,y,3/4-z
1/2-x,-y,1/2-z
1/4+x,3/4+y,1/2-z
1/2-x,3/4+y,1/4+z
1/4+x,-y,1/4+z
1/2+x,1/2+y,z
3/4-x,3/4-y,z
1/2+x,3/4-y,1/4-z
3/4-x,1/2+y,1/4-z
1/2-x,1/2-y,-z
1/4+x,1/4+y,-z
1/2-x,1/4+y,3/4+z
1/4+x,1/2-y,3/4+z
loop_
_atom_site_type_symbol
_atom_site_label
_atom_site_fract_x
_atom_site_fract_y
_atom_site_fract_z
Si Si1 0.464308 0.122290 0.843279
Si Si2 0.434568 0.534130 0.726440
Si Si3 0.505759 0.211430 0.149980
Si Si4 0.790935 0.860231 0.978693
Si Si5 0.352233 0.217953 0.972708
O O1 0.453927 0.163836 0.941093
O O2 0.504747 0.153774 0.798122
O O3 0.427418 0.145844 0.782146
O O4 0.469966 0.029518 0.849574
O O5 0.462025 0.543079 0.639814
O O6 0.438510 0.442558 0.750387
O O7 0.388681 0.547792 0.711303
O O8 0.522443 0.125000 0.125000
O O9 0.500000 0.250000 0.250000
O O10 0.775682 0.875000 0.875000
O O11 0.823697 0.792527 0.984390
O O12 0.375000 0.226929 0.875000
#
# Coordination Sequence:
#
# PCOD9514446 Si02
#       5
#    32  32  32  32  32
#     4  10  21  34  57  89 122 155 210 260 311 385
#     4  10  21  35  60  88 116 162 207 255 312 384
#     4  11  22  41  67  86 114 160 220 270 316 385
#     4  11  19  30  55  88 126 158 193 240 315 381
#     4  10  19  33  56  85 125 157 192 248 318 378
#
# _framework density 18.851025
#
# number of rings (size 3 to 8) (size 9 to 14) (size 15 to 20)
#    0.000    1.600    6.000    1.200    0.000    0.000 
#    0.000    1.000    0.000    7.800    0.000    0.000 
#    0.000    0.000    0.000    0.000    0.000    0.000 
#
# Total GULP energy -222708.233449 kJ/mol
# GULP energy per Si atom -5567.705836 kJ/mol
# Density = 1.880812 g / cm^3
# Si number density = 18.851025 Si / 1000 Ang^3
#
#
#
# Elastic Constant Matrix: (Units=GPa)
#
#
# Indices 1 2 3 4 5 6 
#
# 1 158.8638 78.8001 42.1242 0.0000 0.0000 0.0000
# 2 78.8001 164.4587 35.2315 0.0000 0.0000 0.0000
# 3 42.1242 35.2315 56.2917 0.0000 0.0000 0.0000
# 4 0.0000 0.0000 0.0000 18.1084 0.0000 0.0000
# 5 0.0000 0.0000 0.0000 0.0000 14.0433 0.0000
# 6 0.0000 0.0000 0.0000 0.0000 0.0000 14.9564
#
#
#
# Elastic Compliance Matrix: (Units=1/GPa)
#
#
# Indices 1 2 3 4 5 6 
#
# 1 0.009256 -0.003408 -0.004794 0.000000 0.000000 0.000000
# 2 -0.003408 0.008277 -0.002630 0.000000 0.000000 0.000000
# 3 -0.004794 -0.002630 0.022998 0.000000 0.000000 0.000000
# 4 0.000000 0.000000 0.000000 0.055223 0.000000 0.000000
# 5 0.000000 0.000000 0.000000 0.000000 0.071208 0.000000
# 6 0.000000 0.000000 0.000000 0.000000 0.000000 0.066861
#
#
# Mechanical properties :
#
#
# Convention : Reuss Voigt Hill
#
# Bulk Modulus (GPa) = 53.00085 76.88067 64.94076
# Shear Modulus (GPa) = 19.10031 24.31885 21.70958
#
# Velocity S-wave (km/s) = 3.18657 3.59563 3.39726
# Velocity P-wave (km/s) = 6.45877 7.62298 7.06490
#
# Compressibility (1/GPa) = 0.01886762
#
# Stress axis : x y z
#
# Youngs Moduli (GPa) = 108.03423 120.81662 43.48256
#
# Poissons Ratio (x) = 0.41177 0.20844
# Poissons Ratio (y) = 0.36821 0.11436
# Poissons Ratio (z) = 0.51787 0.31774
#
# Static dielectric constant tensor:
#      x y z
#    x 1.650240 0.000000 0.000000 
#    y 0.000000 1.723800 0.000000 
#    z 0.000000 0.000000 1.785790 
# 
# From -- ./inp_files/39619.got.cif
#   From: 2010.05.17/outbox.cif.g08.bks.cpg/sg70_20_cif.got.tgz:39619.got - 2010.06.03 15:57:51.
