data_PCOD9514096
_publ_section_title
;
Structure prediction by ZEFSAII (Michael W. Deem and Ramdas Pophale) SiO2 
 PCOD9514096
Probable space group: F D D D
;
_chemical_formula_sum "Si O2"
_cell_formula_units_Z 208
_cell_length_a 17.693631
_cell_length_b 25.031751
_cell_length_c 21.954497
_cell_angle_alpha 90.000000
_cell_angle_beta 90.000000
_cell_angle_gamma 90.000000
_cell_volume 9723.703045
_symmetry_space_group_name_H-M "F D D D"
_symmetry_group_IT_number 70
_space_group.IT_coordinate_system_code '2'
_symmetry_cell_setting 'orthorhombic'
loop_
_space_group_symop_operation_xyz
x,y,z
1/4-x,1/4-y,z
x,1/4-y,1/4-z
1/4-x,y,1/4-z
-x,-y,-z
3/4+x,3/4+y,-z
-x,3/4+y,3/4+z
3/4+x,-y,3/4+z
x,1/2+y,1/2+z
1/4-x,3/4-y,1/2+z
x,3/4-y,3/4-z
1/4-x,1/2+y,3/4-z
-x,1/2-y,1/2-z
3/4+x,1/4+y,1/2-z
-x,1/4+y,1/4+z
3/4+x,1/2-y,1/4+z
1/2+x,y,1/2+z
3/4-x,1/4-y,1/2+z
1/2+x,1/4-y,3/4-z
3/4-x,y,3/4-z
1/2-x,-y,1/2-z
1/4+x,3/4+y,1/2-z
1/2-x,3/4+y,1/4+z
1/4+x,-y,1/4+z
1/2+x,1/2+y,z
3/4-x,3/4-y,z
1/2+x,3/4-y,1/4-z
3/4-x,1/2+y,1/4-z
1/2-x,1/2-y,-z
1/4+x,1/4+y,-z
1/2-x,1/4+y,3/4+z
1/4+x,1/2-y,3/4+z
loop_
_atom_site_type_symbol
_atom_site_label
_atom_site_fract_x
_atom_site_fract_y
_atom_site_fract_z
Si Si1 0.015014 0.271350 0.953273
Si Si2 0.401744 0.071488 0.806199
Si Si3 0.493925 0.384075 0.519005
Si Si4 0.082854 0.526530 0.495300
Si Si5 0.292936 0.931067 0.846833
Si Si6 0.625000 0.501351 0.125000
Si Si7 0.754131 0.412833 0.146245
O O1 0.955786 0.224534 0.969924
O O2 0.009207 0.275976 0.879553
O O3 0.993135 0.326349 0.986441
O O4 0.100511 0.260729 0.971299
O O5 0.375000 0.056996 0.875000
O O6 0.326827 0.088742 0.770564
O O7 0.449987 0.125047 0.814289
O O8 0.449042 0.424089 0.474919
O O9 0.470886 0.371562 0.587876
O O10 0.110628 0.536585 0.564576
O O11 0.069720 0.569212 0.441862
O O12 0.000000 0.500000 0.500000
O O13 0.264078 0.875000 0.875000
O O14 0.375000 0.938595 0.875000
O O15 0.698758 0.461432 0.122658
#
# Coordination Sequence:
#
# PCOD9514096 Si02
#       7
#    32  32  32  32  32  16  32
#     4  11  21  38  62  91 129 172 231 281 342 425
#     4  10  21  39  65  92 131 175 219 287 346 410
#     4  10  19  39  65  90 132 177 219 282 350 408
#     4  10  21  35  65  97 130 178 234 289 352 425
#     4   9  20  38  59  88 128 166 209 273 338 396
#     4  10  16  38  64  89 130 174 221 290 354 400
#     4  10  18  37  63  92 128 173 227 275 351 415
#
# _framework density 21.391027000000001
#
# number of rings (size 3 to 8) (size 9 to 14) (size 15 to 20)
#    0.000    2.000    3.846    1.385    0.000    2.462 
#    0.000   19.231    0.000    0.923    0.000    0.000 
#    0.000    0.000    0.000    0.000    0.000    0.000 
#
# Total GULP energy -289740.078936 kJ/mol
# GULP energy per Si atom -5571.924595 kJ/mol
# Density = 2.134234 g / cm^3
# Si number density = 21.391027 Si / 1000 Ang^3
#
#
#
# Elastic Constant Matrix: (Units=GPa)
#
#
# Indices 1 2 3 4 5 6 
#
# 1 87.3216 28.8843 47.2088 0.0000 0.0000 0.0000
# 2 28.8843 47.4941 16.8836 0.0000 0.0000 0.0000
# 3 47.2088 16.8836 139.1199 0.0000 0.0000 0.0000
# 4 0.0000 0.0000 0.0000 20.8567 0.0000 0.0000
# 5 0.0000 0.0000 0.0000 0.0000 41.4096 0.0000
# 6 0.0000 0.0000 0.0000 0.0000 0.0000 9.1275
#
#
#
# Elastic Compliance Matrix: (Units=1/GPa)
#
#
# Indices 1 2 3 4 5 6 
#
# 1 0.016806 -0.008563 -0.004664 0.000000 0.000000 0.000000
# 2 -0.008563 0.026367 -0.000294 0.000000 0.000000 0.000000
# 3 -0.004664 -0.000294 0.008806 0.000000 0.000000 0.000000
# 4 0.000000 0.000000 0.000000 0.047946 0.000000 0.000000
# 5 0.000000 0.000000 0.000000 0.000000 0.024149 0.000000
# 6 0.000000 0.000000 0.000000 0.000000 0.000000 0.109559
#
#
# Mechanical properties :
#
#
# Convention : Reuss Voigt Hill
#
# Bulk Modulus (GPa) = 40.09933 51.09877 45.59905
# Shear Modulus (GPa) = 18.58822 26.34268 22.46545
#
# Velocity S-wave (km/s) = 2.95103 3.51306 3.24424
# Velocity P-wave (km/s) = 5.51344 6.35572 5.94951
#
# Compressibility (1/GPa) = 0.02493807
#
# Stress axis : x y z
#
# Youngs Moduli (GPa) = 59.50394 37.92556 113.55500
#
# Poissons Ratio (x) = 0.32475 0.52958
# Poissons Ratio (y) = 0.50952 0.03342
# Poissons Ratio (z) = 0.27750 0.01116
#
# Static dielectric constant tensor:
#      x y z
#    x 1.541010 0.000000 0.000000 
#    y 0.000000 1.840180 0.000000 
#    z 0.000000 0.000000 1.819030 
# 
# From -- ./inp_files/43940.got.cif
#   From: 2010.05.17/outbox.cif.g08.bks.cpg/sg70_22_cif.got.tgz:43940.got - 2010.06.03 15:57:51.
