data_PCOD9514272
_publ_section_title
;
Structure prediction by ZEFSAII (Michael W. Deem and Ramdas Pophale) SiO2 
 PCOD9514272
Probable space group: F D D D
;
_chemical_formula_sum "Si O2"
_cell_formula_units_Z 176
_cell_length_a 28.063930
_cell_length_b 13.036635
_cell_length_c 25.406098
_cell_angle_alpha 90.000000
_cell_angle_beta 90.000000
_cell_angle_gamma 90.000000
_cell_volume 9295.054996
_symmetry_space_group_name_H-M "F D D D"
_symmetry_group_IT_number 70
_space_group.IT_coordinate_system_code '2'
_symmetry_cell_setting 'orthorhombic'
loop_
_space_group_symop_operation_xyz
x,y,z
1/4-x,1/4-y,z
x,1/4-y,1/4-z
1/4-x,y,1/4-z
-x,-y,-z
3/4+x,3/4+y,-z
-x,3/4+y,3/4+z
3/4+x,-y,3/4+z
x,1/2+y,1/2+z
1/4-x,3/4-y,1/2+z
x,3/4-y,3/4-z
1/4-x,1/2+y,3/4-z
-x,1/2-y,1/2-z
3/4+x,1/4+y,1/2-z
-x,1/4+y,1/4+z
3/4+x,1/2-y,1/4+z
1/2+x,y,1/2+z
3/4-x,1/4-y,1/2+z
1/2+x,1/4-y,3/4-z
3/4-x,y,3/4-z
1/2-x,-y,1/2-z
1/4+x,3/4+y,1/2-z
1/2-x,3/4+y,1/4+z
1/4+x,-y,1/4+z
1/2+x,1/2+y,z
3/4-x,3/4-y,z
1/2+x,3/4-y,1/4-z
3/4-x,1/2+y,1/4-z
1/2-x,1/2-y,-z
1/4+x,1/4+y,-z
1/2-x,1/4+y,3/4+z
1/4+x,1/2-y,3/4+z
loop_
_atom_site_type_symbol
_atom_site_label
_atom_site_fract_x
_atom_site_fract_y
_atom_site_fract_z
Si Si1 0.477713 0.460548 0.836339
Si Si2 0.139263 0.803078 0.507688
Si Si3 0.875000 0.218550 0.375000
Si Si4 0.631478 0.289409 0.918690
Si Si5 0.446633 0.857377 0.518181
Si Si6 0.450208 0.376315 0.140921
O O1 0.499721 0.375000 0.875000
O O2 0.422725 0.472293 0.855559
O O3 0.483721 0.422245 0.776849
O O4 0.501672 0.570918 0.840463
O O5 0.139743 0.832290 0.569440
O O6 0.134528 0.901736 0.471014
O O7 0.181949 0.724616 0.494651
O O8 0.095252 0.725835 0.493651
O O9 0.640213 0.375000 0.875000
O O10 0.590176 0.214356 0.897257
O O11 0.678794 0.219741 0.922446
O O12 0.456645 0.849407 0.579608
#
# Coordination Sequence:
#
# PCOD9514272 Si02
#       6
#    32  32  16  32  32  32
#     4  11  22  35  55  87 126 151 190 238 296 361
#     4  10  18  34  62  82 116 153 195 235 292 351
#     4  10  21  38  56  85 112 162 189 228 300 355
#     4  11  19  37  60  85 114 154 190 244 296 342
#     4  10  19  33  56  88 114 156 188 234 293 353
#     4  11  23  35  56  91 118 146 197 239 298 352
#
# _framework density 18.934799000000002
#
# number of rings (size 3 to 8) (size 9 to 14) (size 15 to 20)
#    0.000    1.455    5.455    1.909    0.000    2.182 
#    0.000    3.636    0.000    2.182    0.000    0.000 
#    0.000    0.000    0.000    0.000    0.000    0.000 
#
# Total GULP energy -245169.388235 kJ/mol
# GULP energy per Si atom -5572.031551 kJ/mol
# Density = 1.889170 g / cm^3
# Si number density = 18.934799 Si / 1000 Ang^3
#
#
#
# Elastic Constant Matrix: (Units=GPa)
#
#
# Indices 1 2 3 4 5 6 
#
# 1 44.8251 23.1652 7.6789 0.0000 0.0000 0.0000
# 2 23.1652 87.1893 44.6883 0.0000 0.0000 0.0000
# 3 7.6789 44.6883 156.5349 0.0000 0.0000 0.0000
# 4 0.0000 0.0000 0.0000 24.1772 0.0000 0.0000
# 5 0.0000 0.0000 0.0000 0.0000 5.1662 0.0000
# 6 0.0000 0.0000 0.0000 0.0000 0.0000 13.6478
#
#
#
# Elastic Compliance Matrix: (Units=1/GPa)
#
#
# Indices 1 2 3 4 5 6 
#
# 1 0.025948 -0.007312 0.000814 0.000000 0.000000 0.000000
# 2 -0.007312 0.015495 -0.004065 0.000000 0.000000 0.000000
# 3 0.000814 -0.004065 0.007509 0.000000 0.000000 0.000000
# 4 0.000000 0.000000 0.000000 0.041361 0.000000 0.000000
# 5 0.000000 0.000000 0.000000 0.000000 0.193566 0.000000
# 6 0.000000 0.000000 0.000000 0.000000 0.000000 0.073272
#
#
# Mechanical properties :
#
#
# Convention : Reuss Voigt Hill
#
# Bulk Modulus (GPa) = 35.93499 48.84603 42.39051
# Shear Modulus (GPa) = 12.90149 22.79934 17.85041
#
# Velocity S-wave (km/s) = 2.61313 3.47377 3.07372
# Velocity P-wave (km/s) = 5.30321 6.47630 5.91889
#
# Compressibility (1/GPa) = 0.02782803
#
# Stress axis : x y z
#
# Youngs Moduli (GPa) = 38.53867 64.53533 133.17523
#
# Poissons Ratio (x) = 0.47185 -0.10846
# Poissons Ratio (y) = 0.28178 0.54136
# Poissons Ratio (z) = -0.03139 0.26234
#
# Static dielectric constant tensor:
#      x y z
#    x 1.763910 0.000000 0.000000 
#    y 0.000000 1.637940 0.000000 
#    z 0.000000 0.000000 1.672980 
# 
# From -- ./inp_files/54976.got.cif
#   From: 2010.05.17/outbox.cif.g08.bks.cpg/sg70_28_cif.got.tgz:54976.got - 2010.06.03 15:57:51.
