data_PCOD9514217
_publ_section_title
;
Structure prediction by ZEFSAII (Michael W. Deem and Ramdas Pophale) SiO2 
 PCOD9514217
Probable space group: F D D D
;
_chemical_formula_sum "Si O2"
_cell_formula_units_Z 168
_cell_length_a 27.985575
_cell_length_b 14.670240
_cell_length_c 20.298967
_cell_angle_alpha 90.000000
_cell_angle_beta 90.000000
_cell_angle_gamma 90.000000
_cell_volume 8333.844463
_symmetry_space_group_name_H-M "F D D D"
_symmetry_group_IT_number 70
_space_group.IT_coordinate_system_code '2'
_symmetry_cell_setting 'orthorhombic'
loop_
_space_group_symop_operation_xyz
x,y,z
1/4-x,1/4-y,z
x,1/4-y,1/4-z
1/4-x,y,1/4-z
-x,-y,-z
3/4+x,3/4+y,-z
-x,3/4+y,3/4+z
3/4+x,-y,3/4+z
x,1/2+y,1/2+z
1/4-x,3/4-y,1/2+z
x,3/4-y,3/4-z
1/4-x,1/2+y,3/4-z
-x,1/2-y,1/2-z
3/4+x,1/4+y,1/2-z
-x,1/4+y,1/4+z
3/4+x,1/2-y,1/4+z
1/2+x,y,1/2+z
3/4-x,1/4-y,1/2+z
1/2+x,1/4-y,3/4-z
3/4-x,y,3/4-z
1/2-x,-y,1/2-z
1/4+x,3/4+y,1/2-z
1/2-x,3/4+y,1/4+z
1/4+x,-y,1/4+z
1/2+x,1/2+y,z
3/4-x,3/4-y,z
1/2+x,3/4-y,1/4-z
3/4-x,1/2+y,1/4-z
1/2-x,1/2-y,-z
1/4+x,1/4+y,-z
1/2-x,1/4+y,3/4+z
1/4+x,1/2-y,3/4+z
loop_
_atom_site_type_symbol
_atom_site_label
_atom_site_fract_x
_atom_site_fract_y
_atom_site_fract_z
Si Si1 0.435257 0.983828 0.263208
Si Si2 0.875000 0.375000 0.375000
Si Si3 0.920531 0.692606 0.564721
Si Si4 0.505400 0.142068 0.924876
Si Si5 0.067477 0.476420 0.885427
Si Si6 0.768066 0.654342 0.974897
O O1 0.404048 0.941031 0.323159
O O2 0.479645 0.915238 0.254745
O O3 0.461163 0.080229 0.278843
O O4 0.415861 0.988591 0.187983
O O5 0.934340 0.625000 0.625000
O O6 0.952157 0.783952 0.565467
O O7 0.865681 0.717551 0.573135
O O8 0.931562 0.631216 0.501212
O O9 0.484252 0.155960 0.852520
O O10 0.530193 0.043624 0.920343
O O11 0.047128 0.375000 0.875000
O O12 0.750000 0.750000 0.000000
#
# Coordination Sequence:
#
# PCOD9514217 Si02
#       6
#    32   8  32  32  32  32
#     4  10  24  35  55  88 118 164 196 249 323 369
#     4  12  24  36  60  96 138 148 196 258 348 392
#     4  10  19  31  55  89 116 156 197 242 317 369
#     4  10  20  37  56  81 120 159 198 250 307 364
#     4  10  23  38  57  83 115 164 216 251 287 356
#     4  10  18  32  56  84 122 155 192 246 311 387
#
# _framework density 20.158764000000001
#
# number of rings (size 3 to 8) (size 9 to 14) (size 15 to 20)
#    0.000    1.905    1.905    1.714    8.000    3.810 
#    0.000    0.000    0.000    0.000    0.000    0.667 
#    0.000    0.000    0.000    0.000    0.000    0.000 
#
# Total GULP energy -234119.124796 kJ/mol
# GULP energy per Si atom -5574.264876 kJ/mol
# Density = 2.011288 g / cm^3
# Si number density = 20.158764 Si / 1000 Ang^3
#
#
#
# Elastic Constant Matrix: (Units=GPa)
#
#
# Indices 1 2 3 4 5 6 
#
# 1 71.8165 27.5701 36.7427 0.0000 0.0000 0.0000
# 2 27.5701 102.2726 17.8028 0.0000 0.0000 0.0000
# 3 36.7427 17.8028 61.9586 0.0000 0.0000 0.0000
# 4 0.0000 0.0000 0.0000 23.9424 0.0000 0.0000
# 5 0.0000 0.0000 0.0000 0.0000 28.9739 0.0000
# 6 0.0000 0.0000 0.0000 0.0000 0.0000 20.0724
#
#
#
# Elastic Compliance Matrix: (Units=1/GPa)
#
#
# Indices 1 2 3 4 5 6 
#
# 1 0.021255 -0.003722 -0.011535 0.000000 0.000000 0.000000
# 2 -0.003722 0.010944 -0.000938 0.000000 0.000000 0.000000
# 3 -0.011535 -0.000938 0.023250 0.000000 0.000000 0.000000
# 4 0.000000 0.000000 0.000000 0.041767 0.000000 0.000000
# 5 0.000000 0.000000 0.000000 0.000000 0.034514 0.000000
# 6 0.000000 0.000000 0.000000 0.000000 0.000000 0.049820
#
#
# Mechanical properties :
#
#
# Convention : Reuss Voigt Hill
#
# Bulk Modulus (GPa) = 43.36537 44.47543 43.92040
# Shear Modulus (GPa) = 22.56066 24.85988 23.71027
#
# Velocity S-wave (km/s) = 3.34900 3.51551 3.43326
# Velocity P-wave (km/s) = 6.04260 6.21200 6.12788
#
# Compressibility (1/GPa) = 0.02305988
#
# Stress axis : x y z
#
# Youngs Moduli (GPa) = 47.04833 91.37179 43.01117
#
# Poissons Ratio (x) = 0.34007 0.49614
# Poissons Ratio (y) = 0.17510 0.04033
# Poissons Ratio (z) = 0.54271 0.08567
#
# Static dielectric constant tensor:
#      x y z
#    x 1.696740 0.000000 0.000000 
#    y 0.000000 1.748930 0.000000 
#    z 0.000000 0.000000 1.749520 
# 
# From -- ./inp_files/27797.got.cif
#   From: 2010.05.17/outbox.cif.g08.bks.cpg/sg70_14_cif.got.tgz:27797.got - 2010.06.03 15:57:51.
