data_PCOD9514598
_publ_section_title
;
Structure prediction by ZEFSAII (Michael W. Deem and Ramdas Pophale) SiO2 
 PCOD9514598
Probable space group: F D D D
;
_chemical_formula_sum "Si O2"
_cell_formula_units_Z 240
_cell_length_a 17.979114
_cell_length_b 25.751274
_cell_length_c 20.759483
_cell_angle_alpha 90.000000
_cell_angle_beta 90.000000
_cell_angle_gamma 90.000000
_cell_volume 9611.331124
_symmetry_space_group_name_H-M "F D D D"
_symmetry_group_IT_number 70
_space_group.IT_coordinate_system_code '2'
_symmetry_cell_setting 'orthorhombic'
loop_
_space_group_symop_operation_xyz
x,y,z
1/4-x,1/4-y,z
x,1/4-y,1/4-z
1/4-x,y,1/4-z
-x,-y,-z
3/4+x,3/4+y,-z
-x,3/4+y,3/4+z
3/4+x,-y,3/4+z
x,1/2+y,1/2+z
1/4-x,3/4-y,1/2+z
x,3/4-y,3/4-z
1/4-x,1/2+y,3/4-z
-x,1/2-y,1/2-z
3/4+x,1/4+y,1/2-z
-x,1/4+y,1/4+z
3/4+x,1/2-y,1/4+z
1/2+x,y,1/2+z
3/4-x,1/4-y,1/2+z
1/2+x,1/4-y,3/4-z
3/4-x,y,3/4-z
1/2-x,-y,1/2-z
1/4+x,3/4+y,1/2-z
1/2-x,3/4+y,1/4+z
1/4+x,-y,1/4+z
1/2+x,1/2+y,z
3/4-x,3/4-y,z
1/2+x,3/4-y,1/4-z
3/4-x,1/2+y,1/4-z
1/2-x,1/2-y,-z
1/4+x,1/4+y,-z
1/2-x,1/4+y,3/4+z
1/4+x,1/2-y,3/4+z
loop_
_atom_site_type_symbol
_atom_site_label
_atom_site_fract_x
_atom_site_fract_y
_atom_site_fract_z
Si Si1 0.444925 0.536797 0.719271
Si Si2 0.627740 0.062854 0.803493
Si Si3 0.282008 0.653171 0.338536
Si Si4 0.107981 0.834223 0.999597
Si Si5 0.083338 0.016923 0.560184
Si Si6 0.215705 0.820948 0.516778
Si Si7 0.939146 0.125000 0.625000
Si Si8 0.561606 0.194340 0.321012
O O1 0.440950 0.474999 0.714023
O O2 0.482735 0.554267 0.784830
O O3 0.355844 0.551067 0.727182
O O4 0.475143 0.577348 0.665546
O O5 0.625000 0.125000 0.796028
O O6 0.701620 0.048691 0.762116
O O7 0.629328 0.046054 0.879885
O O8 0.343560 0.615828 0.303651
O O9 0.298702 0.680313 0.406104
O O10 0.219446 0.609877 0.347297
O O11 0.144796 0.843485 0.930205
O O12 0.115947 0.776040 0.023275
O O13 0.033324 0.867556 0.999383
O O14 0.125000 0.031172 0.625000
O O15 0.074047 0.060322 0.505525
O O16 0.004302 0.987884 0.574023
#
# Coordination Sequence:
#
# PCOD9514598 Si02
#       8
#    32  32  32  32  32  32  16  32
#     4  10  21  38  65  95 122 171 225 266 324 383
#     4  12  24  39  60  92 139 163 211 265 342 394
#     4   9  17  36  61  85 116 165 220 263 307 387
#     4   9  16  30  60  89 123 163 221 257 315 373
#     4  10  20  36  64  94 131 169 223 272 323 406
#     4  10  19  37  63  87 120 173 217 265 313 394
#     4   8  16  32  56  92 121 151 212 282 294 366
#     4  10  21  39  61  94 129 174 213 275 331 387
#
# _framework density 24.970527000000001
#
# number of rings (size 3 to 8) (size 9 to 14) (size 15 to 20)
#    0.000    2.400    1.333    4.400    0.000    1.067 
#    2.400    2.667    0.000    5.200    0.000    0.000 
#    0.000    0.000    0.000    0.000    0.000    0.000 
#
# Total GULP energy -334352.464139 kJ/mol
# GULP energy per Si atom -5572.541069 kJ/mol
# Density = 2.491369 g / cm^3
# Si number density = 24.970527 Si / 1000 Ang^3
#
#
#
# Elastic Constant Matrix: (Units=GPa)
#
#
# Indices 1 2 3 4 5 6 
#
# 1 73.8504 9.4241 -4.0503 0.0000 0.0000 0.0000
# 2 9.4241 102.1967 -2.9205 0.0000 0.0000 0.0000
# 3 -4.0503 -2.9205 78.9348 0.0000 0.0000 0.0000
# 4 0.0000 0.0000 0.0000 20.7542 0.0000 0.0000
# 5 0.0000 0.0000 0.0000 0.0000 25.1808 0.0000
# 6 0.0000 0.0000 0.0000 0.0000 0.0000 31.8561
#
#
#
# Elastic Compliance Matrix: (Units=1/GPa)
#
#
# Indices 1 2 3 4 5 6 
#
# 1 0.013736 -0.001248 0.000659 0.000000 0.000000 0.000000
# 2 -0.001248 0.009909 0.000303 0.000000 0.000000 0.000000
# 3 0.000659 0.000303 0.012714 0.000000 0.000000 0.000000
# 4 0.000000 0.000000 0.000000 0.048183 0.000000 0.000000
# 5 0.000000 0.000000 0.000000 0.000000 0.039713 0.000000
# 6 0.000000 0.000000 0.000000 0.000000 0.000000 0.031391
#
#
# Mechanical properties :
#
#
# Convention : Reuss Voigt Hill
#
# Bulk Modulus (GPa) = 27.94429 28.87647 28.41038
# Shear Modulus (GPa) = 29.73582 32.39347 31.06464
#
# Velocity S-wave (km/s) = 3.45459 3.60567 3.53094
# Velocity P-wave (km/s) = 5.20841 5.37808 5.29392
#
# Compressibility (1/GPa) = 0.03578549
#
# Stress axis : x y z
#
# Youngs Moduli (GPa) = 72.80002 100.92064 78.65543
#
# Poissons Ratio (x) = 0.12594 -0.05181
# Poissons Ratio (y) = 0.09084 -0.02380
# Poissons Ratio (z) = -0.04795 -0.03054
#
# Static dielectric constant tensor:
#      x y z
#    x 2.204770 0.000000 0.000000 
#    y 0.000000 2.086720 0.000000 
#    z 0.000000 0.000000 1.967020 
# 
# From -- ./inp_files/45187.got.cif
#   From: 2010.05.17/outbox.cif.g08.bks.cpg/sg70_23_cif.got.tgz:45187.got - 2010.06.03 15:57:51.
