data_PCOD9514212
_publ_section_title
;
Structure prediction by ZEFSAII (Michael W. Deem and Ramdas Pophale) SiO2 
 PCOD9514212
Probable space group: F D D D
;
_chemical_formula_sum "Si O2"
_cell_formula_units_Z 160
_cell_length_a 31.051121
_cell_length_b 9.484927
_cell_length_c 24.074710
_cell_angle_alpha 90.000000
_cell_angle_beta 90.000000
_cell_angle_gamma 90.000000
_cell_volume 7090.426194
_symmetry_space_group_name_H-M "F D D D"
_symmetry_group_IT_number 70
_space_group.IT_coordinate_system_code '2'
_symmetry_cell_setting 'orthorhombic'
loop_
_space_group_symop_operation_xyz
x,y,z
1/4-x,1/4-y,z
x,1/4-y,1/4-z
1/4-x,y,1/4-z
-x,-y,-z
3/4+x,3/4+y,-z
-x,3/4+y,3/4+z
3/4+x,-y,3/4+z
x,1/2+y,1/2+z
1/4-x,3/4-y,1/2+z
x,3/4-y,3/4-z
1/4-x,1/2+y,3/4-z
-x,1/2-y,1/2-z
3/4+x,1/4+y,1/2-z
-x,1/4+y,1/4+z
3/4+x,1/2-y,1/4+z
1/2+x,y,1/2+z
3/4-x,1/4-y,1/2+z
1/2+x,1/4-y,3/4-z
3/4-x,y,3/4-z
1/2-x,-y,1/2-z
1/4+x,3/4+y,1/2-z
1/2-x,3/4+y,1/4+z
1/4+x,-y,1/4+z
1/2+x,1/2+y,z
3/4-x,3/4-y,z
1/2+x,3/4-y,1/4-z
3/4-x,1/2+y,1/4-z
1/2-x,1/2-y,-z
1/4+x,1/4+y,-z
1/2-x,1/4+y,3/4+z
1/4+x,1/2-y,3/4+z
loop_
_atom_site_type_symbol
_atom_site_label
_atom_site_fract_x
_atom_site_fract_y
_atom_site_fract_z
Si Si1 0.625000 0.625000 0.276317
Si Si2 0.996855 0.518557 0.176627
Si Si3 0.672682 0.791625 0.631944
Si Si4 0.875000 0.375000 0.033979
Si Si5 0.932183 0.119961 0.766053
Si Si6 0.564622 0.525451 0.882772
O O1 0.656092 0.723927 0.240894
O O2 0.601096 0.730866 0.319140
O O3 0.998448 0.625000 0.125000
O O4 0.973388 0.600018 0.226336
O O5 0.966401 0.393760 0.156148
O O6 0.044979 0.453840 0.184320
O O7 0.666583 0.625000 0.625000
O O8 0.625000 0.855526 0.625000
O O9 0.696914 0.853423 0.578578
O O10 0.899656 0.499646 0.999935
O O11 0.911622 0.317160 0.075881
O O12 0.543114 0.375000 0.875000
#
# Coordination Sequence:
#
# PCOD9514212 Si02
#       6
#    16  32  32  16  32  32
#     4   9  20  32  57  92 130 168 209 262 329 400
#     4  10  21  38  62  93 126 169 220 280 328 387
#     4  10  23  44  64  91 127 173 227 275 322 403
#     4  11  18  30  61  92 124 180 209 264 327 394
#     4  11  21  39  64  97 132 173 219 273 341 391
#     4  10  18  32  54  91 135 161 207 272 329 383
#
# _framework density 22.565638
#
# number of rings (size 3 to 8) (size 9 to 14) (size 15 to 20)
#    0.000    1.800    4.000    1.200    0.000    3.200 
#    3.600    2.500    0.000    4.800    0.000    0.000 
#    0.000    0.000    0.000    0.000    0.000    0.000 
#
# Total GULP energy -223063.570414 kJ/mol
# GULP energy per Si atom -5576.589260 kJ/mol
# Density = 2.251428 g / cm^3
# Si number density = 22.565638 Si / 1000 Ang^3
#
#
#
# Elastic Constant Matrix: (Units=GPa)
#
#
# Indices 1 2 3 4 5 6 
#
# 1 108.8653 0.7226 23.0988 0.0000 0.0000 0.0000
# 2 0.7226 78.4959 18.5178 0.0000 0.0000 0.0000
# 3 23.0988 18.5178 67.3722 0.0000 0.0000 0.0000
# 4 0.0000 0.0000 0.0000 29.2004 0.0000 0.0000
# 5 0.0000 0.0000 0.0000 0.0000 35.5616 0.0000
# 6 0.0000 0.0000 0.0000 0.0000 0.0000 8.8080
#
#
#
# Elastic Compliance Matrix: (Units=1/GPa)
#
#
# Indices 1 2 3 4 5 6 
#
# 1 0.009949 0.000763 -0.003621 0.000000 0.000000 0.000000
# 2 0.000763 0.013681 -0.004022 0.000000 0.000000 0.000000
# 3 -0.003621 -0.004022 0.017190 0.000000 0.000000 0.000000
# 4 0.000000 0.000000 0.000000 0.034246 0.000000 0.000000
# 5 0.000000 0.000000 0.000000 0.000000 0.028120 0.000000
# 6 0.000000 0.000000 0.000000 0.000000 0.000000 0.113533
#
#
# Mechanical properties :
#
#
# Convention : Reuss Voigt Hill
#
# Bulk Modulus (GPa) = 36.95491 37.71242 37.33366
# Shear Modulus (GPa) = 20.87692 28.87362 24.87527
#
# Velocity S-wave (km/s) = 3.04495 3.58095 3.32377
# Velocity P-wave (km/s) = 5.36418 5.81775 5.59556
#
# Compressibility (1/GPa) = 0.02706001
#
# Stress axis : x y z
#
# Youngs Moduli (GPa) = 100.51462 73.09256 58.17450
#
# Poissons Ratio (x) = -0.05574 0.21062
# Poissons Ratio (y) = -0.07665 0.23397
# Poissons Ratio (z) = 0.36392 0.29397
#
# Static dielectric constant tensor:
#      x y z
#    x 2.011130 0.000000 0.000000 
#    y 0.000000 1.865650 0.000000 
#    z 0.000000 0.000000 1.844120 
# 
# From -- ./inp_files/54901.got.cif
#   From: 2010.05.17/outbox.cif.g08.bks.cpg/sg70_28_cif.got.tgz:54901.got - 2010.06.03 15:57:51.
