data_PCOD9514393
_publ_section_title
;
Structure prediction by ZEFSAII (Michael W. Deem and Ramdas Pophale) SiO2 
 PCOD9514393
Probable space group: F D D D
;
_chemical_formula_sum "Si O2"
_cell_formula_units_Z 208
_cell_length_a 26.238282
_cell_length_b 20.075972
_cell_length_c 17.541080
_cell_angle_alpha 90.000000
_cell_angle_beta 90.000000
_cell_angle_gamma 90.000000
_cell_volume 9239.922019
_symmetry_space_group_name_H-M "F D D D"
_symmetry_group_IT_number 70
_space_group.IT_coordinate_system_code '2'
_symmetry_cell_setting 'orthorhombic'
loop_
_space_group_symop_operation_xyz
x,y,z
1/4-x,1/4-y,z
x,1/4-y,1/4-z
1/4-x,y,1/4-z
-x,-y,-z
3/4+x,3/4+y,-z
-x,3/4+y,3/4+z
3/4+x,-y,3/4+z
x,1/2+y,1/2+z
1/4-x,3/4-y,1/2+z
x,3/4-y,3/4-z
1/4-x,1/2+y,3/4-z
-x,1/2-y,1/2-z
3/4+x,1/4+y,1/2-z
-x,1/4+y,1/4+z
3/4+x,1/2-y,1/4+z
1/2+x,y,1/2+z
3/4-x,1/4-y,1/2+z
1/2+x,1/4-y,3/4-z
3/4-x,y,3/4-z
1/2-x,-y,1/2-z
1/4+x,3/4+y,1/2-z
1/2-x,3/4+y,1/4+z
1/4+x,-y,1/4+z
1/2+x,1/2+y,z
3/4-x,3/4-y,z
1/2+x,3/4-y,1/4-z
3/4-x,1/2+y,1/4-z
1/2-x,1/2-y,-z
1/4+x,1/4+y,-z
1/2-x,1/4+y,3/4+z
1/4+x,1/2-y,3/4+z
loop_
_atom_site_type_symbol
_atom_site_label
_atom_site_fract_x
_atom_site_fract_y
_atom_site_fract_z
Si Si1 0.920160 0.172739 0.058196
Si Si2 0.764850 0.907616 0.045383
Si Si3 0.732363 0.625000 0.625000
Si Si4 0.911087 0.311274 0.142643
Si Si5 0.316323 0.117172 0.492239
Si Si6 0.226384 0.988084 0.667125
Si Si7 0.599743 0.028745 0.705754
O O1 0.940672 0.125000 0.125000
O O2 0.914529 0.249343 0.085309
O O3 0.865322 0.143474 0.037243
O O4 0.959117 0.163848 0.988990
O O5 0.783356 0.841939 0.089132
O O6 0.769839 0.967456 0.106893
O O7 0.804660 0.920792 0.977723
O O8 0.769060 0.615366 0.551431
O O9 0.702269 0.556835 0.639116
O O10 0.875000 0.375000 0.119585
O O11 0.888259 0.284915 0.222688
O O12 0.306790 0.172574 0.427890
O O13 0.327037 0.045415 0.457581
O O14 0.250000 0.000000 0.750000
O O15 0.625000 0.042330 0.625000
#
# Coordination Sequence:
#
# PCOD9514393 Si02
#       7
#    32  32  16  32  32  32  32
#     4  12  26  43  71 101 142 185 228 297 357 431
#     4  11  27  44  66 106 139 179 241 288 355 430
#     4  10  18  44  66  97 132 182 227 280 354 410
#     4  10  25  46  70  98 141 186 229 286 358 417
#     4  11  22  41  70  99 135 182 237 277 360 415
#     4  10  24  39  72  97 133 183 233 289 341 425
#     4  11  24  44  72  98 139 185 230 289 348 427
#
# _framework density 22.511012999999998
#
# number of rings (size 3 to 8) (size 9 to 14) (size 15 to 20)
#    0.000    1.231    3.846    0.000   12.923    2.769 
#    0.000    0.000    0.000    0.923    0.000    0.000 
#    0.000    0.000    0.000    0.000    0.000    0.000 
#
# Total GULP energy -290644.254156 kJ/mol
# GULP energy per Si atom -5589.312580 kJ/mol
# Density = 2.245978 g / cm^3
# Si number density = 22.511013 Si / 1000 Ang^3
#
#
#
# Elastic Constant Matrix: (Units=GPa)
#
#
# Indices 1 2 3 4 5 6 
#
# 1 29.4040 4.7138 10.7004 0.0000 0.0000 0.0000
# 2 4.7138 119.3091 1.1351 0.0000 0.0000 0.0000
# 3 10.7004 1.1351 77.1355 0.0000 0.0000 0.0000
# 4 0.0000 0.0000 0.0000 38.6153 0.0000 0.0000
# 5 0.0000 0.0000 0.0000 0.0000 10.9026 0.0000
# 6 0.0000 0.0000 0.0000 0.0000 0.0000 7.9972
#
#
#
# Elastic Compliance Matrix: (Units=1/GPa)
#
#
# Indices 1 2 3 4 5 6 
#
# 1 0.036042 -0.001377 -0.004980 0.000000 0.000000 0.000000
# 2 -0.001377 0.008435 0.000067 0.000000 0.000000 0.000000
# 3 -0.004980 0.000067 0.013654 0.000000 0.000000 0.000000
# 4 0.000000 0.000000 0.000000 0.025896 0.000000 0.000000
# 5 0.000000 0.000000 0.000000 0.000000 0.091721 0.000000
# 6 0.000000 0.000000 0.000000 0.000000 0.000000 0.125044
#
#
# Mechanical properties :
#
#
# Convention : Reuss Voigt Hill
#
# Bulk Modulus (GPa) = 21.95271 28.77191 25.36231
# Shear Modulus (GPa) = 15.21810 25.45630 20.33720
#
# Velocity S-wave (km/s) = 2.60288 3.36644 3.00898
# Velocity P-wave (km/s) = 4.33664 5.28390 4.83353
#
# Compressibility (1/GPa) = 0.04555247
#
# Stress axis : x y z
#
# Youngs Moduli (GPa) = 27.74559 118.54886 73.23865
#
# Poissons Ratio (x) = 0.16319 0.36470
# Poissons Ratio (y) = 0.03819 -0.00490
# Poissons Ratio (z) = 0.13816 -0.00792
#
# Static dielectric constant tensor:
#      x y z
#    x 1.865380 0.000000 0.000000 
#    y 0.000000 1.862480 0.000000 
#    z 0.000000 0.000000 1.848740 
# 
# From -- ./inp_files/38757.got.cif
#   From: 2010.05.17/outbox.cif.g08.bks.cpg/sg70_20_cif.got.tgz:38757.got - 2010.06.03 15:57:51.
