data_PCOD9514616
_publ_section_title
;
Structure prediction by ZEFSAII (Michael W. Deem and Ramdas Pophale) SiO2 
 PCOD9514616
Probable space group: F D D D
;
_chemical_formula_sum "Si O2"
_cell_formula_units_Z 184
_cell_length_a 23.472864
_cell_length_b 16.402335
_cell_length_c 25.759785
_cell_angle_alpha 90.000000
_cell_angle_beta 90.000000
_cell_angle_gamma 90.000000
_cell_volume 9917.769123
_symmetry_space_group_name_H-M "F D D D"
_symmetry_group_IT_number 70
_space_group.IT_coordinate_system_code '2'
_symmetry_cell_setting 'orthorhombic'
loop_
_space_group_symop_operation_xyz
x,y,z
1/4-x,1/4-y,z
x,1/4-y,1/4-z
1/4-x,y,1/4-z
-x,-y,-z
3/4+x,3/4+y,-z
-x,3/4+y,3/4+z
3/4+x,-y,3/4+z
x,1/2+y,1/2+z
1/4-x,3/4-y,1/2+z
x,3/4-y,3/4-z
1/4-x,1/2+y,3/4-z
-x,1/2-y,1/2-z
3/4+x,1/4+y,1/2-z
-x,1/4+y,1/4+z
3/4+x,1/2-y,1/4+z
1/2+x,y,1/2+z
3/4-x,1/4-y,1/2+z
1/2+x,1/4-y,3/4-z
3/4-x,y,3/4-z
1/2-x,-y,1/2-z
1/4+x,3/4+y,1/2-z
1/2-x,3/4+y,1/4+z
1/4+x,-y,1/4+z
1/2+x,1/2+y,z
3/4-x,3/4-y,z
1/2+x,3/4-y,1/4-z
3/4-x,1/2+y,1/4-z
1/2-x,1/2-y,-z
1/4+x,1/4+y,-z
1/2-x,1/4+y,3/4+z
1/4+x,1/2-y,3/4+z
loop_
_atom_site_type_symbol
_atom_site_label
_atom_site_fract_x
_atom_site_fract_y
_atom_site_fract_z
Si Si1 0.106089 0.875000 0.375000
Si Si2 0.705026 0.759797 0.296378
Si Si3 0.125000 0.625000 0.837939
Si Si4 0.375000 0.594115 0.375000
Si Si5 0.578097 0.006386 0.323920
Si Si6 0.056563 0.481401 0.679140
Si Si7 0.625000 0.125000 0.625000
Si Si8 0.408020 0.458682 0.292832
O O1 0.067775 0.812042 0.405836
O O2 0.146194 0.831871 0.333600
O O3 0.675686 0.670634 0.306120
O O4 0.681645 0.786381 0.239858
O O5 0.773071 0.778092 0.297237
O O6 0.096805 0.689628 0.877157
O O7 0.325236 0.656361 0.357485
O O8 0.385025 0.534035 0.326602
O O9 0.510529 0.005217 0.323118
O O10 0.602174 0.035745 0.268877
O O11 0.087790 0.563385 0.660007
O O12 0.375000 0.375000 0.309832
#
# Coordination Sequence:
#
# PCOD9514616 Si02
#       8
#    16  32  16  16  32  32   8  32
#     4  10  21  36  59  83 112 147 192 236 290 346
#     4  10  22  37  59  86 115 150 195 239 295 344
#     4  10  19  38  60  84 114 150 191 244 290 350
#     4  11  23  37  57  82 118 154 193 235 291 345
#     4  10  20  38  57  83 112 149 189 238 287 342
#     4  10  21  38  57  86 114 148 191 239 289 356
#     4  10  20  36  62  84 114 150 184 236 302 344
#     4  11  23  39  57  84 119 158 195 241 289 351
#
# _framework density 18.552558999999999
#
# number of rings (size 3 to 8) (size 9 to 14) (size 15 to 20)
#    0.000    1.739    0.870    3.391    2.435    0.000 
#    0.000    2.609    0.000   16.696    0.000    0.000 
#    0.000    0.000    0.000    0.000    0.000    0.000 
#
# Total GULP energy -256069.907375 kJ/mol
# GULP energy per Si atom -5566.737117 kJ/mol
# Density = 1.851033 g / cm^3
# Si number density = 18.552559 Si / 1000 Ang^3
#
#
#
# Elastic Constant Matrix: (Units=GPa)
#
#
# Indices 1 2 3 4 5 6 
#
# 1 68.0829 38.7379 25.8539 0.0000 0.0000 0.0000
# 2 38.7379 100.2157 21.7929 0.0000 0.0000 0.0000
# 3 25.8539 21.7929 66.9084 0.0000 0.0000 0.0000
# 4 0.0000 0.0000 0.0000 39.6256 0.0000 0.0000
# 5 0.0000 0.0000 0.0000 0.0000 33.0839 0.0000
# 6 0.0000 0.0000 0.0000 0.0000 0.0000 11.6261
#
#
#
# Elastic Compliance Matrix: (Units=1/GPa)
#
#
# Indices 1 2 3 4 5 6 
#
# 1 0.020737 -0.006752 -0.005814 0.000000 0.000000 0.000000
# 2 -0.006752 0.012937 -0.001605 0.000000 0.000000 0.000000
# 3 -0.005814 -0.001605 0.017715 0.000000 0.000000 0.000000
# 4 0.000000 0.000000 0.000000 0.025236 0.000000 0.000000
# 5 0.000000 0.000000 0.000000 0.000000 0.030226 0.000000
# 6 0.000000 0.000000 0.000000 0.000000 0.000000 0.086013
#
#
# Mechanical properties :
#
#
# Convention : Reuss Voigt Hill
#
# Bulk Modulus (GPa) = 43.38649 45.33071 44.35860
# Shear Modulus (GPa) = 21.84463 26.78862 24.31663
#
# Velocity S-wave (km/s) = 3.43512 3.80403 3.62427
# Velocity P-wave (km/s) = 6.25858 6.61672 6.44014
#
# Compressibility (1/GPa) = 0.02304865
#
# Stress axis : x y z
#
# Youngs Moduli (GPa) = 48.22228 77.29599 56.44894
#
# Poissons Ratio (x) = 0.52187 0.32819
# Poissons Ratio (y) = 0.32558 0.09060
# Poissons Ratio (z) = 0.28036 0.12406
#
# Static dielectric constant tensor:
#      x y z
#    x 1.634640 0.000000 0.000000 
#    y 0.000000 1.660590 0.000000 
#    z 0.000000 0.000000 1.642770 
# 
# From -- ./inp_files/36696.got.cif
#   From: 2010.05.17/outbox.cif.g08.bks.cpg/sg70_19_cif.got.tgz:36696.got - 2010.06.03 15:57:51.
