data_PCOD9514603
_publ_section_title
;
Structure prediction by ZEFSAII (Michael W. Deem and Ramdas Pophale) SiO2 
 PCOD9514603
Probable space group: F D D D
;
_chemical_formula_sum "Si O2"
_cell_formula_units_Z 176
_cell_length_a 13.993311
_cell_length_b 21.281763
_cell_length_c 29.207478
_cell_angle_alpha 90.000000
_cell_angle_beta 90.000000
_cell_angle_gamma 90.000000
_cell_volume 8698.054952
_symmetry_space_group_name_H-M "F D D D"
_symmetry_group_IT_number 70
_space_group.IT_coordinate_system_code '2'
_symmetry_cell_setting 'orthorhombic'
loop_
_space_group_symop_operation_xyz
x,y,z
1/4-x,1/4-y,z
x,1/4-y,1/4-z
1/4-x,y,1/4-z
-x,-y,-z
3/4+x,3/4+y,-z
-x,3/4+y,3/4+z
3/4+x,-y,3/4+z
x,1/2+y,1/2+z
1/4-x,3/4-y,1/2+z
x,3/4-y,3/4-z
1/4-x,1/2+y,3/4-z
-x,1/2-y,1/2-z
3/4+x,1/4+y,1/2-z
-x,1/4+y,1/4+z
3/4+x,1/2-y,1/4+z
1/2+x,y,1/2+z
3/4-x,1/4-y,1/2+z
1/2+x,1/4-y,3/4-z
3/4-x,y,3/4-z
1/2-x,-y,1/2-z
1/4+x,3/4+y,1/2-z
1/2-x,3/4+y,1/4+z
1/4+x,-y,1/4+z
1/2+x,1/2+y,z
3/4-x,3/4-y,z
1/2+x,3/4-y,1/4-z
3/4-x,1/2+y,1/4-z
1/2-x,1/2-y,-z
1/4+x,1/4+y,-z
1/2-x,1/4+y,3/4+z
1/4+x,1/2-y,3/4+z
loop_
_atom_site_type_symbol
_atom_site_label
_atom_site_fract_x
_atom_site_fract_y
_atom_site_fract_z
Si Si1 0.585145 0.847246 0.483209
Si Si2 0.125000 0.125000 0.202907
Si Si3 0.796704 0.573774 0.588989
Si Si4 0.375000 0.375000 0.630604
Si Si5 0.927645 0.498699 0.656062
Si Si6 0.194169 0.439405 0.081626
Si Si7 0.125000 0.020885 0.125000
O O1 0.474662 0.870623 0.479799
O O2 0.658566 0.892562 0.455835
O O3 0.580828 0.783171 0.453799
O O4 0.608223 0.831798 0.535286
O O5 0.137906 0.066134 0.168688
O O6 0.752489 0.625000 0.625000
O O7 0.885885 0.547032 0.618568
O O8 0.733885 0.511766 0.578204
O O9 0.377037 0.434733 0.597711
O O10 0.283454 0.358347 0.661640
O O11 0.033199 0.482442 0.638960
O O12 0.125000 0.436337 0.125000
#
# Coordination Sequence:
#
# PCOD9514603 Si02
#       7
#    32  16  32  16  32  32  16
#     4  10  19  37  63  92 121 158 205 257 304 374
#     4   9  15  28  57  98 128 146 196 247 307 373
#     4   9  19  41  63  86 121 161 202 255 302 356
#     4  10  23  42  55  86 134 166 190 259 314 361
#     4   9  18  34  59  86 122 161 199 243 303 362
#     4  11  25  42  60  90 127 163 207 254 310 374
#     4   9  14  26  56  94 120 156 195 234 302 378
#
# _framework density 20.23441
#
# number of rings (size 3 to 8) (size 9 to 14) (size 15 to 20)
#    0.000    2.364    1.818    0.545    1.273    1.818 
#    3.273   12.727    0.000    0.000    0.000    0.000 
#    0.000    0.000    0.000    0.000    0.000    0.000 
#
# Total GULP energy -245143.339969 kJ/mol
# GULP energy per Si atom -5571.439545 kJ/mol
# Density = 2.018836 g / cm^3
# Si number density = 20.234410 Si / 1000 Ang^3
#
#
#
# Elastic Constant Matrix: (Units=GPa)
#
#
# Indices 1 2 3 4 5 6 
#
# 1 33.8619 7.7319 49.9237 0.0000 0.0000 0.0000
# 2 7.7319 81.9845 48.6660 0.0000 0.0000 0.0000
# 3 49.9237 48.6660 157.7669 0.0000 0.0000 0.0000
# 4 0.0000 0.0000 0.0000 2.5650 0.0000 0.0000
# 5 0.0000 0.0000 0.0000 0.0000 20.0118 0.0000
# 6 0.0000 0.0000 0.0000 0.0000 0.0000 23.3991
#
#
#
# Elastic Compliance Matrix: (Units=1/GPa)
#
#
# Indices 1 2 3 4 5 6 
#
# 1 0.058186 0.006662 -0.020467 0.000000 0.000000 0.000000
# 2 0.006662 0.015694 -0.006949 0.000000 0.000000 0.000000
# 3 -0.020467 -0.006949 0.014959 0.000000 0.000000 0.000000
# 4 0.000000 0.000000 0.000000 0.389867 0.000000 0.000000
# 5 0.000000 0.000000 0.000000 0.000000 0.049970 0.000000
# 6 0.000000 0.000000 0.000000 0.000000 0.000000 0.042737
#
#
# Mechanical properties :
#
#
# Convention : Reuss Voigt Hill
#
# Bulk Modulus (GPa) = 21.12832 54.02850 37.57841
# Shear Modulus (GPa) = 7.95292 20.34795 14.15044
#
# Velocity S-wave (km/s) = 1.98467 3.17458 2.64734
# Velocity P-wave (km/s) = 3.96438 6.34007 5.28738
#
# Compressibility (1/GPa) = 0.04732984
#
# Stress axis : x y z
#
# Youngs Moduli (GPa) = 17.18617 63.71765 66.85025
#
# Poissons Ratio (x) = -0.42449 1.36825
# Poissons Ratio (y) = -0.11449 0.46456
# Poissons Ratio (z) = 0.35176 0.44279
#
# Static dielectric constant tensor:
#      x y z
#    x 1.771950 0.000000 0.000000 
#    y 0.000000 1.739700 0.000000 
#    z 0.000000 0.000000 1.702130 
# 
# From -- ./inp_files/54345.got.cif
#   From: 2010.05.17/outbox.cif.g08.bks.cpg/sg70_28_cif.got.tgz:54345.got - 2010.06.03 15:57:51.
