data_PCOD9514728
_publ_section_title
;
Structure prediction by ZEFSAII (Michael W. Deem and Ramdas Pophale) SiO2 
 PCOD9514728
Probable space group: F D D D
;
_chemical_formula_sum "Si O2"
_cell_formula_units_Z 208
_cell_length_a 16.842315
_cell_length_b 20.764241
_cell_length_c 32.892821
_cell_angle_alpha 90.000000
_cell_angle_beta 90.000000
_cell_angle_gamma 90.000000
_cell_volume 11503.207879
_symmetry_space_group_name_H-M "F D D D"
_symmetry_group_IT_number 70
_space_group.IT_coordinate_system_code '2'
_symmetry_cell_setting 'orthorhombic'
loop_
_space_group_symop_operation_xyz
x,y,z
1/4-x,1/4-y,z
x,1/4-y,1/4-z
1/4-x,y,1/4-z
-x,-y,-z
3/4+x,3/4+y,-z
-x,3/4+y,3/4+z
3/4+x,-y,3/4+z
x,1/2+y,1/2+z
1/4-x,3/4-y,1/2+z
x,3/4-y,3/4-z
1/4-x,1/2+y,3/4-z
-x,1/2-y,1/2-z
3/4+x,1/4+y,1/2-z
-x,1/4+y,1/4+z
3/4+x,1/2-y,1/4+z
1/2+x,y,1/2+z
3/4-x,1/4-y,1/2+z
1/2+x,1/4-y,3/4-z
3/4-x,y,3/4-z
1/2-x,-y,1/2-z
1/4+x,3/4+y,1/2-z
1/2-x,3/4+y,1/4+z
1/4+x,-y,1/4+z
1/2+x,1/2+y,z
3/4-x,3/4-y,z
1/2+x,3/4-y,1/4-z
3/4-x,1/2+y,1/4-z
1/2-x,1/2-y,-z
1/4+x,1/4+y,-z
1/2-x,1/4+y,3/4+z
1/4+x,1/2-y,3/4+z
loop_
_atom_site_type_symbol
_atom_site_label
_atom_site_fract_x
_atom_site_fract_y
_atom_site_fract_z
Si Si1 0.822486 0.210102 0.795741
Si Si2 0.807984 0.428349 0.613545
Si Si3 0.322480 0.604882 0.915752
Si Si4 0.783924 0.996409 0.543663
Si Si5 0.468018 0.797948 0.784788
Si Si6 0.875000 0.375000 0.729005
Si Si7 0.643026 0.310722 0.900750
O O1 0.753150 0.198322 0.828050
O O2 0.877649 0.147073 0.802082
O O3 0.785308 0.225738 0.751832
O O4 0.886599 0.267752 0.802805
O O5 0.875000 0.375000 0.603372
O O6 0.752337 0.397606 0.649318
O O7 0.849315 0.495095 0.625329
O O8 0.375000 0.592984 0.875000
O O9 0.290760 0.540936 0.937716
O O10 0.852167 0.939864 0.543981
O O11 0.813981 0.052588 0.572757
O O12 0.500000 0.750000 0.750000
O O13 0.447925 0.861152 0.759007
O O14 0.532217 0.810249 0.818799
O O15 0.643723 0.375000 0.875000
#
# Coordination Sequence:
#
# PCOD9514728 Si02
#       7
#    32  32  32  32  32  16  32
#     4  10  22  35  63  94 119 150 222 254 295 374
#     4  11  22  41  62  87 125 168 211 253 300 370
#     4  10  20  37  64  87 116 165 216 249 297 374
#     4  11  21  38  60  87 122 166 201 252 307 373
#     4  11  20  37  55  90 127 161 195 240 307 378
#     4  10  20  30  61  80 116 166 196 222 288 376
#     4  12  25  35  58  91 133 162 196 255 317 368
#
# _framework density 18.081913
#
# number of rings (size 3 to 8) (size 9 to 14) (size 15 to 20)
#    0.000    1.231    6.154    1.846    4.308    0.000 
#    0.000    0.000    3.385    2.769    0.000    0.000 
#    0.000    0.000    0.000    0.000    0.000    0.000 
#
# Total GULP energy -290005.919624 kJ/mol
# GULP energy per Si atom -5577.036916 kJ/mol
# Density = 1.804076 g / cm^3
# Si number density = 18.081913 Si / 1000 Ang^3
#
#
#
# Elastic Constant Matrix: (Units=GPa)
#
#
# Indices 1 2 3 4 5 6 
#
# 1 42.6080 27.0291 25.2923 0.0000 0.0000 0.0000
# 2 27.0291 94.2138 62.0157 0.0000 0.0000 0.0000
# 3 25.2923 62.0157 93.1977 0.0000 0.0000 0.0000
# 4 0.0000 0.0000 0.0000 37.6892 0.0000 0.0000
# 5 0.0000 0.0000 0.0000 0.0000 26.5913 0.0000
# 6 0.0000 0.0000 0.0000 0.0000 0.0000 34.1417
#
#
#
# Elastic Compliance Matrix: (Units=1/GPa)
#
#
# Indices 1 2 3 4 5 6 
#
# 1 0.029604 -0.005702 -0.004239 0.000000 0.000000 0.000000
# 2 -0.005702 0.019985 -0.011751 0.000000 0.000000 0.000000
# 3 -0.004239 -0.011751 0.019700 0.000000 0.000000 0.000000
# 4 0.000000 0.000000 0.000000 0.026533 0.000000 0.000000
# 5 0.000000 0.000000 0.000000 0.000000 0.037606 0.000000
# 6 0.000000 0.000000 0.000000 0.000000 0.000000 0.029290
#
#
# Mechanical properties :
#
#
# Convention : Reuss Voigt Hill
#
# Bulk Modulus (GPa) = 38.60574 50.96596 44.78585
# Shear Modulus (GPa) = 23.28424 27.39660 25.34042
#
# Velocity S-wave (km/s) = 3.59236 3.89670 3.74762
# Velocity P-wave (km/s) = 6.21318 6.96370 6.59911
#
# Compressibility (1/GPa) = 0.02590288
#
# Stress axis : x y z
#
# Youngs Moduli (GPa) = 33.77952 50.03709 50.76206
#
# Poissons Ratio (x) = 0.28533 0.21520
# Poissons Ratio (y) = 0.19263 0.59650
# Poissons Ratio (z) = 0.14321 0.58799
#
# Static dielectric constant tensor:
#      x y z
#    x 1.655310 0.000000 0.000000 
#    y 0.000000 1.631620 0.000000 
#    z 0.000000 0.000000 1.654310 
# 
# From -- ./inp_files/59635.got.cif
#   From: 2010.05.17/outbox.cif.g08.bks.cpg/sg70_30_cif.got.tgz:59635.got - 2010.06.03 15:57:51.
