data_PCOD9514269
_publ_section_title
;
Structure prediction by ZEFSAII (Michael W. Deem and Ramdas Pophale) SiO2 
 PCOD9514269
Probable space group: F D D D
;
_chemical_formula_sum "Si O2"
_cell_formula_units_Z 176
_cell_length_a 28.422887
_cell_length_b 14.211917
_cell_length_c 19.556100
_cell_angle_alpha 90.000000
_cell_angle_beta 90.000000
_cell_angle_gamma 90.000000
_cell_volume 7899.563606
_symmetry_space_group_name_H-M "F D D D"
_symmetry_group_IT_number 70
_space_group.IT_coordinate_system_code '2'
_symmetry_cell_setting 'orthorhombic'
loop_
_space_group_symop_operation_xyz
x,y,z
1/4-x,1/4-y,z
x,1/4-y,1/4-z
1/4-x,y,1/4-z
-x,-y,-z
3/4+x,3/4+y,-z
-x,3/4+y,3/4+z
3/4+x,-y,3/4+z
x,1/2+y,1/2+z
1/4-x,3/4-y,1/2+z
x,3/4-y,3/4-z
1/4-x,1/2+y,3/4-z
-x,1/2-y,1/2-z
3/4+x,1/4+y,1/2-z
-x,1/4+y,1/4+z
3/4+x,1/2-y,1/4+z
1/2+x,y,1/2+z
3/4-x,1/4-y,1/2+z
1/2+x,1/4-y,3/4-z
3/4-x,y,3/4-z
1/2-x,-y,1/2-z
1/4+x,3/4+y,1/2-z
1/2-x,3/4+y,1/4+z
1/4+x,-y,1/4+z
1/2+x,1/2+y,z
3/4-x,3/4-y,z
1/2+x,3/4-y,1/4-z
3/4-x,1/2+y,1/4-z
1/2-x,1/2-y,-z
1/4+x,1/4+y,-z
1/2-x,1/4+y,3/4+z
1/4+x,1/2-y,3/4+z
loop_
_atom_site_type_symbol
_atom_site_label
_atom_site_fract_x
_atom_site_fract_y
_atom_site_fract_z
Si Si1 0.785424 0.132007 0.706467
Si Si2 0.128710 0.512618 0.952949
Si Si3 0.457570 0.039729 0.954576
Si Si4 0.135245 0.736022 0.456463
Si Si5 0.786924 0.224593 0.253906
Si Si6 0.487511 0.875000 0.875000
O O1 0.777178 0.125000 0.625000
O O2 0.821557 0.217518 0.722370
O O3 0.737680 0.174136 0.738777
O O4 0.815044 0.036795 0.724617
O O5 0.125000 0.625000 0.959666
O O6 0.124407 0.487643 0.872661
O O7 0.088477 0.468521 0.999305
O O8 0.472631 0.146369 0.937108
O O9 0.455106 0.962746 0.895996
O O10 0.500000 0.000000 0.000000
O O11 0.125000 0.625000 0.457750
O O12 0.092861 0.770098 0.503128
O O13 0.769167 0.171915 0.184874
#
# Coordination Sequence:
#
# PCOD9514269 Si02
#       6
#    32  32  32  32  32  16
#     4  10  22  38  62  93 122 171 229 273 317 395
#     4  10  18  34  60  90 124 156 210 270 322 391
#     4  10  19  33  56  87 127 162 195 249 327 396
#     4  10  21  37  62  90 119 167 221 275 326 377
#     4  11  21  39  63  89 132 164 213 275 332 398
#     4  10  22  34  61  98 126 164 200 254 357 412
#
# _framework density 22.279710999999999
#
# number of rings (size 3 to 8) (size 9 to 14) (size 15 to 20)
#    0.000    1.818    1.818    4.364    1.273    3.636 
#    0.000    4.091    0.000    2.727    0.000    0.000 
#    0.000    0.000    0.000    0.000    0.000    0.000 
#
# Total GULP energy -245015.991864 kJ/mol
# GULP energy per Si atom -5568.545270 kJ/mol
# Density = 2.222900 g / cm^3
# Si number density = 22.279711 Si / 1000 Ang^3
#
#
#
# Elastic Constant Matrix: (Units=GPa)
#
#
# Indices 1 2 3 4 5 6 
#
# 1 53.6201 20.0331 2.7391 0.0000 0.0000 0.0000
# 2 20.0331 162.5916 21.1085 0.0000 0.0000 0.0000
# 3 2.7391 21.1085 18.2894 0.0000 0.0000 0.0000
# 4 0.0000 0.0000 0.0000 25.0419 0.0000 0.0000
# 5 0.0000 0.0000 0.0000 0.0000 -4.1003 0.0000
# 6 0.0000 0.0000 0.0000 0.0000 0.0000 14.7181
#
#
#
# Elastic Compliance Matrix: (Units=1/GPa)
#
#
# Indices 1 2 3 4 5 6 
#
# 1 0.019550 -0.002386 -0.000174 0.000000 0.000000 0.000000
# 2 -0.002386 0.007526 -0.008328 0.000000 0.000000 0.000000
# 3 -0.000174 -0.008328 0.064314 0.000000 0.000000 0.000000
# 4 0.000000 0.000000 0.000000 0.039933 0.000000 0.000000
# 5 0.000000 0.000000 0.000000 0.000000 -0.243884 0.000000
# 6 0.000000 0.000000 0.000000 0.000000 0.000000 0.067943
#
#
# Mechanical properties :
#
#
# Convention : Reuss Voigt Hill
#
# Bulk Modulus (GPa) = 14.36501 35.80693 25.08597
# Shear Modulus (GPa) = 13757.72638 19.83997 6888.78318
#
# Velocity S-wave (km/s) = 78.66643 2.98735 55.66566
# Velocity P-wave (km/s) = 90.87173 5.29202 64.36489
#
# Compressibility (1/GPa) = 0.06961361
#
# Stress axis : x y z
#
# Youngs Moduli (GPa) = 51.15062 132.87969 15.54860
#
# Poissons Ratio (x) = 0.31708 0.00270
# Poissons Ratio (y) = 0.12206 0.12949
# Poissons Ratio (z) = 0.00889 1.10665
#
# Static dielectric constant tensor:
#      x y z
#    x 2.721040 0.000000 0.000000 
#    y 0.000000 1.997220 0.000000 
#    z 0.000000 0.000000 1.864520 
# 
# From -- ./inp_files/28932.got.cif
#   From: 2010.05.17/outbox.cif.g08.bks.cpg/sg70_15_cif.got.tgz:28932.got - 2010.06.03 15:57:51.
