data_PCOD9514021
_publ_section_title
;
Structure prediction by ZEFSAII (Michael W. Deem and Ramdas Pophale) SiO2 
 PCOD9514021
Probable space group: F M M M
;
_chemical_formula_sum "Si O2"
_cell_formula_units_Z 48
_cell_length_a 18.000000
_cell_length_b 30.000000
_cell_length_c 18.000000
_cell_angle_alpha 90.000000
_cell_angle_beta 90.000000
_cell_angle_gamma 90.000000
_cell_volume 9720.000000
_symmetry_space_group_name_H-M "F M M M"
_symmetry_group_IT_number 69
_symmetry_cell_setting 'orthorhombic'
loop_
_space_group_symop_operation_xyz
x,y,z
-x,-y,z
x,-y,-z
-x,y,-z
-x,-y,-z
x,y,-z
-x,y,z
x,-y,z
x,1/2+y,1/2+z
-x,1/2-y,1/2+z
x,1/2-y,1/2-z
-x,1/2+y,1/2-z
-x,1/2-y,1/2-z
x,1/2+y,1/2-z
-x,1/2+y,1/2+z
x,1/2-y,1/2+z
1/2+x,y,1/2+z
1/2-x,-y,1/2+z
1/2+x,-y,1/2-z
1/2-x,y,1/2-z
1/2-x,-y,1/2-z
1/2+x,y,1/2-z
1/2-x,y,1/2+z
1/2+x,-y,1/2+z
1/2+x,1/2+y,z
1/2-x,1/2-y,z
1/2+x,1/2-y,-z
1/2-x,1/2+y,-z
1/2-x,1/2-y,-z
1/2+x,1/2+y,-z
1/2-x,1/2+y,z
1/2+x,1/2-y,z
loop_
_atom_site_type_symbol
_atom_site_label
_atom_site_fract_x
_atom_site_fract_y
_atom_site_fract_z
Si Si1 0.088906 0.617094 0.500000
Si Si2 0.631308 0.753698 0.334857
Si Si3 0.352730 0.051190 0.372828
Si Si4 0.913445 0.780364 0.000000
Si Si5 0.251523 0.827586 0.168625
Si Si6 0.086963 0.446683 0.208063
Si Si7 0.801542 0.587113 0.912170
O O1 0.114098 0.587863 0.571093
O O2 0.118699 0.668445 0.500000
O O3 0.000000 0.618350 0.500000
O O4 0.594542 0.750000 0.250000
O O5 0.600627 0.755010 0.420530
O O6 0.687603 0.711906 0.332875
O O7 0.674796 0.800743 0.335695
O O8 0.375239 0.062040 0.288157
O O9 0.264542 0.054400 0.386087
O O10 0.377670 0.000000 0.388234
O O11 0.000000 0.787854 0.000000
O O12 0.250000 0.850058 0.250000
O O13 0.270561 0.863673 0.107100
O O14 0.092008 0.500000 0.195620
O O15 0.128494 0.422281 0.140732
O O16 0.000000 0.434565 0.212049
O O17 0.815491 0.582225 0.000000
#
# Coordination Sequence:
#
# PCOD9514021 Si02
#       7
#    16  32  32  16  32  32  32
#     4  11  23  38  60  92 126 159 200 253 320 386
#     4   9  20  38  62  88 117 154 200 250 306 368
#     4  11  22  39  62  90 123 159 206 261 314 366
#     4  11  24  38  57  85 121 165 205 241 298 373
#     4   9  19  37  62  91 116 150 196 248 308 362
#     4  10  23  43  64  85 119 172 218 253 304 370
#     4  12  24  36  60  97 129 159 203 262 314 366
#
# _framework density 4.9382720000000004
#
# number of rings (size 3 to 8) (size 9 to 14) (size 15 to 20)
#    0.000    1.667    0.833    4.750    2.333    6.333 
#    0.000    1.667    0.000    0.000    0.000    0.000 
#    0.000    0.000    0.000    0.000    0.000    0.000 
#
# Total GULP energy -267492.250884 kJ/mol
# GULP energy per Si atom -5572.755227 kJ/mol
# Density = 0.492703 g / cm^3
# Si number density = 4.938272 Si / 1000 Ang^3
#
#
#
# Elastic Constant Matrix: (Units=GPa)
#
#
# Indices 1 2 3 4 5 6 
#
# 1 52.7473 10.8695 53.9316 0.0000 0.0000 0.0000
# 2 10.8695 64.3593 40.8540 0.0000 0.0000 0.0000
# 3 53.9316 40.8540 201.0182 0.0000 0.0000 0.0000
# 4 0.0000 0.0000 0.0000 27.2745 0.0000 0.0000
# 5 0.0000 0.0000 0.0000 0.0000 6.7269 0.0000
# 6 0.0000 0.0000 0.0000 0.0000 0.0000 15.0779
#
#
#
# Elastic Compliance Matrix: (Units=1/GPa)
#
#
# Indices 1 2 3 4 5 6 
#
# 1 0.026125 0.000043 -0.007018 0.000000 0.000000 0.000000
# 2 0.000043 0.017839 -0.003637 0.000000 0.000000 0.000000
# 3 -0.007018 -0.003637 0.007597 0.000000 0.000000 0.000000
# 4 0.000000 0.000000 0.000000 0.036664 0.000000 0.000000
# 5 0.000000 0.000000 0.000000 0.000000 0.148657 0.000000
# 6 0.000000 0.000000 0.000000 0.000000 0.000000 0.066322
#
#
# Mechanical properties :
#
#
# Convention : Reuss Voigt Hill
#
# Bulk Modulus (GPa) = 32.96371 58.82610 45.89490
# Shear Modulus (GPa) = 14.94588 23.98051 19.46320
#
# Velocity S-wave (km/s) = 2.75368 3.48805 3.14239
# Velocity P-wave (km/s) = 5.18020 6.78729 6.03746
#
# Compressibility (1/GPa) = 0.03033639
#
# Stress axis : x y z
#
# Youngs Moduli (GPa) = 38.27777 56.05613 131.63720
#
# Poissons Ratio (x) = -0.00238 0.92379
# Poissons Ratio (y) = -0.00163 0.47876
# Poissons Ratio (z) = 0.26862 0.20387
#
# Static dielectric constant tensor:
#      x y z
#    x 1.721300 0.000000 0.000000 
#    y 0.000000 1.699250 0.000000 
#    z 0.000000 0.000000 1.746360 
# 
# From -- ./inp_files/23710.got.cif
#   From: 2010.05.17/outbox.ucp.g08.bks.cvg/sg69_12_cif.got.tgz:23710.got - 2010.06.11 16:51:34.
