data_PCOD9514873
_publ_section_title
;
Structure prediction by ZEFSAII (Michael W. Deem and Ramdas Pophale) SiO2 
 PCOD9514873
Probable space group: F D D D
;
_chemical_formula_sum "Si O2"
_cell_formula_units_Z 176
_cell_length_a 9.758931
_cell_length_b 26.789982
_cell_length_c 30.531747
_cell_angle_alpha 90.000000
_cell_angle_beta 90.000000
_cell_angle_gamma 90.000000
_cell_volume 7982.268354
_symmetry_space_group_name_H-M "F D D D"
_symmetry_group_IT_number 70
_space_group.IT_coordinate_system_code '2'
_symmetry_cell_setting 'orthorhombic'
loop_
_space_group_symop_operation_xyz
x,y,z
1/4-x,1/4-y,z
x,1/4-y,1/4-z
1/4-x,y,1/4-z
-x,-y,-z
3/4+x,3/4+y,-z
-x,3/4+y,3/4+z
3/4+x,-y,3/4+z
x,1/2+y,1/2+z
1/4-x,3/4-y,1/2+z
x,3/4-y,3/4-z
1/4-x,1/2+y,3/4-z
-x,1/2-y,1/2-z
3/4+x,1/4+y,1/2-z
-x,1/4+y,1/4+z
3/4+x,1/2-y,1/4+z
1/2+x,y,1/2+z
3/4-x,1/4-y,1/2+z
1/2+x,1/4-y,3/4-z
3/4-x,y,3/4-z
1/2-x,-y,1/2-z
1/4+x,3/4+y,1/2-z
1/2-x,3/4+y,1/4+z
1/4+x,-y,1/4+z
1/2+x,1/2+y,z
3/4-x,3/4-y,z
1/2+x,3/4-y,1/4-z
3/4-x,1/2+y,1/4-z
1/2-x,1/2-y,-z
1/4+x,1/4+y,-z
1/2-x,1/4+y,3/4+z
1/4+x,1/2-y,3/4+z
loop_
_atom_site_type_symbol
_atom_site_label
_atom_site_fract_x
_atom_site_fract_y
_atom_site_fract_z
Si Si1 0.577781 0.401284 0.554808
Si Si2 0.614298 0.526713 0.769297
Si Si3 0.324209 0.517161 0.607289
Si Si4 0.971909 0.646166 0.032270
Si Si5 0.875000 0.018401 0.375000
Si Si6 0.664559 0.375000 0.375000
Si Si7 0.375000 0.184078 0.875000
O O1 0.429073 0.426845 0.546932
O O2 0.612772 0.382999 0.505643
O O3 0.651168 0.444940 0.583149
O O4 0.591513 0.352702 0.584987
O O5 0.750000 0.500000 0.750000
O O6 0.549261 0.492118 0.805866
O O7 0.505216 0.547670 0.734558
O O8 0.488635 0.513377 0.615336
O O9 0.269109 0.571331 0.618101
O O10 0.251169 0.471807 0.632396
O O11 0.125000 0.625000 0.033310
O O12 0.915412 0.635746 0.079851
#
# Coordination Sequence:
#
# PCOD9514873 Si02
#       7
#    32  32  32  32  16  16  16
#     4   9  19  36  63  93 127 168 218 269 337 405
#     4  10  20  36  65  99 132 177 220 282 349 413
#     4  11  24  41  64  97 136 176 223 285 344 409
#     4  10  20  36  62  91 135 171 219 273 344 396
#     4   9  22  35  66 100 132 157 228 285 338 392
#     4  12  27  39  60 100 136 176 232 290 336 404
#     4  11  22  43  68  90 136 185 228 267 342 416
#
# _framework density 22.048870999999998
#
# number of rings (size 3 to 8) (size 9 to 14) (size 15 to 20)
#    0.000    1.818    1.818    2.455   10.182    2.545 
#    0.000    0.909    0.000    2.182    0.000    0.000 
#    0.000    0.000    0.000    0.000    0.000    0.000 
#
# Total GULP energy -245194.397833 kJ/mol
# GULP energy per Si atom -5572.599951 kJ/mol
# Density = 2.199869 g / cm^3
# Si number density = 22.048871 Si / 1000 Ang^3
#
#
#
# Elastic Constant Matrix: (Units=GPa)
#
#
# Indices 1 2 3 4 5 6 
#
# 1 70.1032 36.2334 34.3329 0.0000 0.0000 0.0000
# 2 36.2334 156.5187 53.7032 0.0000 0.0000 0.0000
# 3 34.3329 53.7032 171.2786 0.0000 0.0000 0.0000
# 4 0.0000 0.0000 0.0000 30.8597 0.0000 0.0000
# 5 0.0000 0.0000 0.0000 0.0000 2.0571 0.0000
# 6 0.0000 0.0000 0.0000 0.0000 0.0000 2.2790
#
#
#
# Elastic Compliance Matrix: (Units=1/GPa)
#
#
# Indices 1 2 3 4 5 6 
#
# 1 0.017071 -0.003113 -0.002446 0.000000 0.000000 0.000000
# 2 -0.003113 0.007727 -0.001799 0.000000 0.000000 0.000000
# 3 -0.002446 -0.001799 0.006893 0.000000 0.000000 0.000000
# 4 0.000000 0.000000 0.000000 0.032405 0.000000 0.000000
# 5 0.000000 0.000000 0.000000 0.000000 0.486128 0.000000
# 6 0.000000 0.000000 0.000000 0.000000 0.000000 0.438796
#
#
# Mechanical properties :
#
#
# Convention : Reuss Voigt Hill
#
# Bulk Modulus (GPa) = 58.90659 71.82660 65.36660
# Shear Modulus (GPa) = 4.95347 25.28120 15.11734
#
# Velocity S-wave (km/s) = 1.50049 3.38982 2.62129
# Velocity P-wave (km/s) = 5.45677 6.92589 6.23475
#
# Compressibility (1/GPa) = 0.01697603
#
# Stress axis : x y z
#
# Youngs Moduli (GPa) = 58.57735 129.42049 145.08049
#
# Poissons Ratio (x) = 0.40285 0.35487
# Poissons Ratio (y) = 0.18233 0.26096
# Poissons Ratio (z) = 0.14328 0.23279
#
# Static dielectric constant tensor:
#      x y z
#    x 1.825840 0.000000 0.000000 
#    y 0.000000 1.836170 0.000000 
#    z 0.000000 0.000000 1.910100 
# 
# From -- ./inp_files/65101.got.cif
#   From: 2010.05.17/outbox.cif.g08.bks.cpg/sg70_33_cif.got.tgz:65101.got - 2010.06.03 15:57:51.
