data_PCOD9514037
_publ_section_title
;
Structure prediction by ZEFSAII (Michael W. Deem and Ramdas Pophale) SiO2 
 PCOD9514037
Probable space group: F D D D
;
_chemical_formula_sum "Si O2"
_cell_formula_units_Z 176
_cell_length_a 36.069677
_cell_length_b 11.695108
_cell_length_c 14.716583
_cell_angle_alpha 90.000000
_cell_angle_beta 90.000000
_cell_angle_gamma 90.000000
_cell_volume 6208.025242
_symmetry_space_group_name_H-M "F D D D"
_symmetry_group_IT_number 70
_space_group.IT_coordinate_system_code '2'
_symmetry_cell_setting 'orthorhombic'
loop_
_space_group_symop_operation_xyz
x,y,z
1/4-x,1/4-y,z
x,1/4-y,1/4-z
1/4-x,y,1/4-z
-x,-y,-z
3/4+x,3/4+y,-z
-x,3/4+y,3/4+z
3/4+x,-y,3/4+z
x,1/2+y,1/2+z
1/4-x,3/4-y,1/2+z
x,3/4-y,3/4-z
1/4-x,1/2+y,3/4-z
-x,1/2-y,1/2-z
3/4+x,1/4+y,1/2-z
-x,1/4+y,1/4+z
3/4+x,1/2-y,1/4+z
1/2+x,y,1/2+z
3/4-x,1/4-y,1/2+z
1/2+x,1/4-y,3/4-z
3/4-x,y,3/4-z
1/2-x,-y,1/2-z
1/4+x,3/4+y,1/2-z
1/2-x,3/4+y,1/4+z
1/4+x,-y,1/4+z
1/2+x,1/2+y,z
3/4-x,3/4-y,z
1/2+x,3/4-y,1/4-z
3/4-x,1/2+y,1/4-z
1/2-x,1/2-y,-z
1/4+x,1/4+y,-z
1/2-x,1/4+y,3/4+z
1/4+x,1/2-y,3/4+z
loop_
_atom_site_type_symbol
_atom_site_label
_atom_site_fract_x
_atom_site_fract_y
_atom_site_fract_z
Si Si1 0.945194 0.265404 0.275133
Si Si2 0.125000 0.976774 0.125000
Si Si3 0.682174 0.625000 0.625000
Si Si4 0.323867 0.067189 0.748367
Si Si5 0.125000 0.125000 0.406448
Si Si6 0.684716 0.490064 0.461592
Si Si7 0.980055 0.747228 0.976051
O O1 0.904121 0.292477 0.311750
O O2 0.941224 0.144147 0.223827
O O3 0.968325 0.375358 0.241961
O O4 0.966854 0.239535 0.371063
O O5 0.101848 0.895471 0.192757
O O6 0.697593 0.729219 0.566185
O O7 0.661935 0.550381 0.545900
O O8 0.293356 0.156785 0.717279
O O9 0.349007 0.987837 0.684604
O O10 0.088816 0.203661 0.380603
O O11 0.726688 0.530192 0.475221
#
# Coordination Sequence:
#
# PCOD9514037 Si02
#       7
#    32  16  16  32  16  32  32
#     4  10  20  36  54  85 112 147 171 226 277 327
#     4  10  14  30  52  76 112 127 169 216 288 316
#     4  10  18  29  52  72 110 136 172 222 272 314
#     4  10  17  31  47  83 103 140 172 222 283 316
#     4  10  20  31  56  76 106 144 182 222 274 331
#     4  11  20  36  53  83 111 145 178 223 278 321
#     4  10  22  33  53  81 115 144 180 214 274 341
#
# _framework density 28.350397999999998
#
# number of rings (size 3 to 8) (size 9 to 14) (size 15 to 20)
#    0.000    1.818    5.455    1.636    0.000   12.000 
#    0.000    0.000    0.000    0.000    9.455    0.000 
#    0.000    0.000    0.000    0.000    0.000    0.000 
#
# Total GULP energy -245228.554374 kJ/mol
# GULP energy per Si atom -5573.376236 kJ/mol
# Density = 2.828587 g / cm^3
# Si number density = 28.350398 Si / 1000 Ang^3
#
#
#
# Elastic Constant Matrix: (Units=GPa)
#
#
# Indices 1 2 3 4 5 6 
#
# 1 233.7738 84.6088 19.6645 0.0000 0.0000 0.0000
# 2 84.6088 188.8205 48.1524 0.0000 0.0000 0.0000
# 3 19.6645 48.1524 72.1062 0.0000 0.0000 0.0000
# 4 0.0000 0.0000 0.0000 32.2975 0.0000 0.0000
# 5 0.0000 0.0000 0.0000 0.0000 14.5468 0.0000
# 6 0.0000 0.0000 0.0000 0.0000 0.0000 52.7606
#
#
#
# Elastic Compliance Matrix: (Units=1/GPa)
#
#
# Indices 1 2 3 4 5 6 
#
# 1 0.005107 -0.002330 0.000163 0.000000 0.000000 0.000000
# 2 -0.002330 0.007446 -0.004337 0.000000 0.000000 0.000000
# 3 0.000163 -0.004337 0.016720 0.000000 0.000000 0.000000
# 4 0.000000 0.000000 0.000000 0.030962 0.000000 0.000000
# 5 0.000000 0.000000 0.000000 0.000000 0.068744 0.000000
# 6 0.000000 0.000000 0.000000 0.000000 0.000000 0.018954
#
#
# Mechanical properties :
#
#
# Convention : Reuss Voigt Hill
#
# Bulk Modulus (GPa) = 61.47920 88.83912 75.15916
# Shear Modulus (GPa) = 30.05477 42.73929 36.39703
#
# Velocity S-wave (km/s) = 3.25948 3.88691 3.58694
# Velocity P-wave (km/s) = 5.99151 7.17971 6.61235
#
# Compressibility (1/GPa) = 0.01626566
#
# Stress axis : x y z
#
# Youngs Moduli (GPa) = 195.80023 134.29706 59.80786
#
# Poissons Ratio (x) = 0.31293 -0.00976
# Poissons Ratio (y) = 0.45624 0.25939
# Poissons Ratio (z) = -0.03196 0.58246
#
# Static dielectric constant tensor:
#      x y z
#    x 2.203780 0.000000 0.000000 
#    y 0.000000 2.190120 0.000000 
#    z 0.000000 0.000000 2.573810 
# 
# From -- ./inp_files/68969.got.cif
#   From: 2010.05.17/outbox.cif.g08.bks.cpg/sg70_35_cif.got.tgz:68969.got - 2010.06.03 15:57:51.
