data_PCOD9514285
_publ_section_title
;
Structure prediction by ZEFSAII (Michael W. Deem and Ramdas Pophale) SiO2 
 PCOD9514285
Probable space group: F D D D
;
_chemical_formula_sum "Si O2"
_cell_formula_units_Z 160
_cell_length_a 10.054184
_cell_length_b 29.900471
_cell_length_c 27.233966
_cell_angle_alpha 90.000000
_cell_angle_beta 90.000000
_cell_angle_gamma 90.000000
_cell_volume 8187.206593
_symmetry_space_group_name_H-M "F D D D"
_symmetry_group_IT_number 70
_space_group.IT_coordinate_system_code '2'
_symmetry_cell_setting 'orthorhombic'
loop_
_space_group_symop_operation_xyz
x,y,z
1/4-x,1/4-y,z
x,1/4-y,1/4-z
1/4-x,y,1/4-z
-x,-y,-z
3/4+x,3/4+y,-z
-x,3/4+y,3/4+z
3/4+x,-y,3/4+z
x,1/2+y,1/2+z
1/4-x,3/4-y,1/2+z
x,3/4-y,3/4-z
1/4-x,1/2+y,3/4-z
-x,1/2-y,1/2-z
3/4+x,1/4+y,1/2-z
-x,1/4+y,1/4+z
3/4+x,1/2-y,1/4+z
1/2+x,y,1/2+z
3/4-x,1/4-y,1/2+z
1/2+x,1/4-y,3/4-z
3/4-x,y,3/4-z
1/2-x,-y,1/2-z
1/4+x,3/4+y,1/2-z
1/2-x,3/4+y,1/4+z
1/4+x,-y,1/4+z
1/2+x,1/2+y,z
3/4-x,3/4-y,z
1/2+x,3/4-y,1/4-z
3/4-x,1/2+y,1/4-z
1/2-x,1/2-y,-z
1/4+x,1/4+y,-z
1/2-x,1/4+y,3/4+z
1/4+x,1/2-y,3/4+z
loop_
_atom_site_type_symbol
_atom_site_label
_atom_site_fract_x
_atom_site_fract_y
_atom_site_fract_z
Si Si1 0.803611 0.083441 0.801990
Si Si2 0.660093 0.258598 0.749359
Si Si3 0.349660 0.269817 0.644453
Si Si4 0.125000 0.625000 0.719042
Si Si5 0.500913 0.052176 0.662117
Si Si6 0.375000 0.087796 0.875000
O O1 0.922664 0.057375 0.775078
O O2 0.729960 0.049836 0.840550
O O3 0.702035 0.093728 0.757541
O O4 0.843752 0.128671 0.829790
O O5 0.500000 0.250000 0.750000
O O6 0.708015 0.248005 0.803740
O O7 0.724818 0.225656 0.711138
O O8 0.384784 0.224873 0.614873
O O9 0.250167 0.304659 0.619231
O O10 0.234946 0.647679 0.683449
O O11 0.625000 0.047844 0.625000
#
# Coordination Sequence:
#
# PCOD9514285 Si02
#       6
#    32  32  32  16  32  16
#     4  11  19  37  60  83 121 160 204 261 297 353
#     4  10  18  35  57  81 118 160 193 262 318 345
#     4  11  22  39  58  89 129 165 205 254 321 379
#     4  12  21  34  56  92 118 146 214 268 291 342
#     4  12  20  34  59  89 116 155 204 259 311 357
#     4  12  22  36  62  94 123 167 208 250 312 390
#
# _framework density 19.542684000000001
#
# number of rings (size 3 to 8) (size 9 to 14) (size 15 to 20)
#    0.000    0.800   10.000    1.500    0.000    0.000 
#    0.000    4.000    0.000    0.000    0.000    7.000 
#    0.000    0.000    0.000    0.000    0.000    0.000 
#
# Total GULP energy -222705.273546 kJ/mol
# GULP energy per Si atom -5567.631839 kJ/mol
# Density = 1.949820 g / cm^3
# Si number density = 19.542684 Si / 1000 Ang^3
#
#
#
# Elastic Constant Matrix: (Units=GPa)
#
#
# Indices 1 2 3 4 5 6 
#
# 1 18.0778 14.5123 14.9036 0.0000 0.0000 0.0000
# 2 14.5123 84.4549 22.5202 0.0000 0.0000 0.0000
# 3 14.9036 22.5202 99.3828 0.0000 0.0000 0.0000
# 4 0.0000 0.0000 0.0000 40.4385 0.0000 0.0000
# 5 0.0000 0.0000 0.0000 0.0000 12.9776 0.0000
# 6 0.0000 0.0000 0.0000 0.0000 0.0000 16.3587
#
#
#
# Elastic Compliance Matrix: (Units=1/GPa)
#
#
# Indices 1 2 3 4 5 6 
#
# 1 0.070027 -0.009827 -0.008275 0.000000 0.000000 0.000000
# 2 -0.009827 0.013981 -0.001694 0.000000 0.000000 0.000000
# 3 -0.008275 -0.001694 0.011687 0.000000 0.000000 0.000000
# 4 0.000000 0.000000 0.000000 0.024729 0.000000 0.000000
# 5 0.000000 0.000000 0.000000 0.000000 0.077056 0.000000
# 6 0.000000 0.000000 0.000000 0.000000 0.000000 0.061130
#
#
# Mechanical properties :
#
#
# Convention : Reuss Voigt Hill
#
# Bulk Modulus (GPa) = 17.82423 33.97639 25.90031
# Shear Modulus (GPa) = 15.77776 23.95358 19.86567
#
# Velocity S-wave (km/s) = 2.84447 3.50481 3.19176
# Velocity P-wave (km/s) = 4.46413 5.81392 5.18315
#
# Compressibility (1/GPa) = 0.05610340
#
# Stress axis : x y z
#
# Youngs Moduli (GPa) = 14.28023 71.52545 85.56545
#
# Poissons Ratio (x) = 0.70285 0.70802
# Poissons Ratio (y) = 0.14033 0.14499
# Poissons Ratio (z) = 0.11816 0.12120
#
# Static dielectric constant tensor:
#      x y z
#    x 1.670180 0.000000 0.000000 
#    y 0.000000 1.853700 0.000000 
#    z 0.000000 0.000000 1.716200 
# 
# From -- ./inp_files/21134.got.cif
#   From: 2010.05.17/outbox.cif.g08.bks.cpg/sg70_11_cif.got.tgz:21134.got - 2010.06.03 15:57:51.
