data_PCOD9514679
_publ_section_title
;
Structure prediction by ZEFSAII (Michael W. Deem and Ramdas Pophale) SiO2 
 PCOD9514679
Probable space group: F D D D
;
_chemical_formula_sum "Si O2"
_cell_formula_units_Z 176
_cell_length_a 22.195645
_cell_length_b 30.647996
_cell_length_c 13.536887
_cell_angle_alpha 90.000000
_cell_angle_beta 90.000000
_cell_angle_gamma 90.000000
_cell_volume 9208.494986
_symmetry_space_group_name_H-M "F D D D"
_symmetry_group_IT_number 70
_space_group.IT_coordinate_system_code '2'
_symmetry_cell_setting 'orthorhombic'
loop_
_space_group_symop_operation_xyz
x,y,z
1/4-x,1/4-y,z
x,1/4-y,1/4-z
1/4-x,y,1/4-z
-x,-y,-z
3/4+x,3/4+y,-z
-x,3/4+y,3/4+z
3/4+x,-y,3/4+z
x,1/2+y,1/2+z
1/4-x,3/4-y,1/2+z
x,3/4-y,3/4-z
1/4-x,1/2+y,3/4-z
-x,1/2-y,1/2-z
3/4+x,1/4+y,1/2-z
-x,1/4+y,1/4+z
3/4+x,1/2-y,1/4+z
1/2+x,y,1/2+z
3/4-x,1/4-y,1/2+z
1/2+x,1/4-y,3/4-z
3/4-x,y,3/4-z
1/2-x,-y,1/2-z
1/4+x,3/4+y,1/2-z
1/2-x,3/4+y,1/4+z
1/4+x,-y,1/4+z
1/2+x,1/2+y,z
3/4-x,3/4-y,z
1/2+x,3/4-y,1/4-z
3/4-x,1/2+y,1/4-z
1/2-x,1/2-y,-z
1/4+x,1/4+y,-z
1/2-x,1/4+y,3/4+z
1/4+x,1/2-y,3/4+z
loop_
_atom_site_type_symbol
_atom_site_label
_atom_site_fract_x
_atom_site_fract_y
_atom_site_fract_z
Si Si1 0.407132 0.920657 0.528253
Si Si2 0.625000 0.349090 0.125000
Si Si3 0.125000 0.737321 0.625000
Si Si4 0.262729 0.375000 0.875000
Si Si5 0.326731 0.058118 0.063793
Si Si6 0.820016 0.159610 0.207925
Si Si7 0.499887 0.279173 0.585085
O O1 0.375000 0.875000 0.558502
O O2 0.367228 0.958692 0.476540
O O3 0.446609 0.907457 0.434325
O O4 0.454831 0.939064 0.605835
O O5 0.639655 0.314808 0.212000
O O6 0.584698 0.383243 0.190596
O O7 0.063455 0.765268 0.636680
O O8 0.220410 0.402288 0.944896
O O9 0.370488 0.068542 0.156999
O O10 0.289628 0.014165 0.072674
O O11 0.799363 0.125000 0.125000
O O12 0.772195 0.196417 0.236551
#
# Coordination Sequence:
#
# PCOD9514679 Si02
#       7
#    32  16  16  16  32  32  32
#     4  12  23  40  58  90 134 166 198 255 327 392
#     4  10  19  40  64  83 117 169 208 255 320 373
#     4  12  22  36  58  93 128 154 210 261 310 382
#     4  12  19  36  60  88 126 166 191 254 332 378
#     4  11  22  39  62  93 124 163 213 267 313 378
#     4  10  22  40  61  89 125 161 217 259 307 384
#     4  12  25  36  62  93 123 169 207 261 316 365
#
# _framework density 19.112786
#
# number of rings (size 3 to 8) (size 9 to 14) (size 15 to 20)
#    0.000    0.727    6.364    3.273    2.545    0.000 
#    0.000    5.455    0.000    0.000    0.000    0.000 
#    0.000    0.000    0.000    0.000    0.000    0.000 
#
# Total GULP energy -245025.538348 kJ/mol
# GULP energy per Si atom -5568.762235 kJ/mol
# Density = 1.906928 g / cm^3
# Si number density = 19.112786 Si / 1000 Ang^3
#
#
#
# Elastic Constant Matrix: (Units=GPa)
#
#
# Indices 1 2 3 4 5 6 
#
# 1 78.3050 43.1331 22.6305 0.0000 0.0000 0.0000
# 2 43.1331 93.5967 30.5855 0.0000 0.0000 0.0000
# 3 22.6305 30.5855 62.5063 0.0000 0.0000 0.0000
# 4 0.0000 0.0000 0.0000 24.4143 0.0000 0.0000
# 5 0.0000 0.0000 0.0000 0.0000 4.7742 0.0000
# 6 0.0000 0.0000 0.0000 0.0000 0.0000 21.2550
#
#
#
# Elastic Compliance Matrix: (Units=1/GPa)
#
#
# Indices 1 2 3 4 5 6 
#
# 1 0.017532 -0.007148 -0.002850 0.000000 0.000000 0.000000
# 2 -0.007148 0.015632 -0.005061 0.000000 0.000000 0.000000
# 3 -0.002850 -0.005061 0.019507 0.000000 0.000000 0.000000
# 4 0.000000 0.000000 0.000000 0.040960 0.000000 0.000000
# 5 0.000000 0.000000 0.000000 0.000000 0.209457 0.000000
# 6 0.000000 0.000000 0.000000 0.000000 0.000000 0.047048
#
#
# Mechanical properties :
#
#
# Convention : Reuss Voigt Hill
#
# Bulk Modulus (GPa) = 44.34073 47.45625 45.89849
# Shear Modulus (GPa) = 12.89423 19.29263 16.09343
#
# Velocity S-wave (km/s) = 2.60020 3.18057 2.90491
# Velocity P-wave (km/s) = 5.68019 6.19447 5.94290
#
# Compressibility (1/GPa) = 0.02255263
#
# Stress axis : x y z
#
# Youngs Moduli (GPa) = 57.04012 63.97085 51.26458
#
# Poissons Ratio (x) = 0.45726 0.14609
# Poissons Ratio (y) = 0.40772 0.25946
# Poissons Ratio (z) = 0.16255 0.32377
#
# Static dielectric constant tensor:
#      x y z
#    x 1.705390 0.000000 0.000000 
#    y 0.000000 1.667420 0.000000 
#    z 0.000000 0.000000 1.705160 
# 
# From -- ./inp_files/19675.got.cif
#   From: 2010.05.17/outbox.cif.g08.bks.cpg/sg70_10_cif.got.tgz:19675.got - 2010.06.03 15:57:51.
