data_PCOD9514173
_publ_section_title
;
Structure prediction by ZEFSAII (Michael W. Deem and Ramdas Pophale) SiO2 
 PCOD9514173
Probable space group: F D D D
;
_chemical_formula_sum "Si O2"
_cell_formula_units_Z 112
_cell_length_a 38.529830
_cell_length_b 12.160600
_cell_length_c 8.992400
_cell_angle_alpha 90.000000
_cell_angle_beta 90.000000
_cell_angle_gamma 90.000000
_cell_volume 4213.351708
_symmetry_space_group_name_H-M "F D D D"
_symmetry_group_IT_number 70
_space_group.IT_coordinate_system_code '2'
_symmetry_cell_setting 'orthorhombic'
loop_
_space_group_symop_operation_xyz
x,y,z
1/4-x,1/4-y,z
x,1/4-y,1/4-z
1/4-x,y,1/4-z
-x,-y,-z
3/4+x,3/4+y,-z
-x,3/4+y,3/4+z
3/4+x,-y,3/4+z
x,1/2+y,1/2+z
1/4-x,3/4-y,1/2+z
x,3/4-y,3/4-z
1/4-x,1/2+y,3/4-z
-x,1/2-y,1/2-z
3/4+x,1/4+y,1/2-z
-x,1/4+y,1/4+z
3/4+x,1/2-y,1/4+z
1/2+x,y,1/2+z
3/4-x,1/4-y,1/2+z
1/2+x,1/4-y,3/4-z
3/4-x,y,3/4-z
1/2-x,-y,1/2-z
1/4+x,3/4+y,1/2-z
1/2-x,3/4+y,1/4+z
1/4+x,-y,1/4+z
1/2+x,1/2+y,z
3/4-x,3/4-y,z
1/2+x,3/4-y,1/4-z
3/4-x,1/2+y,1/4-z
1/2-x,1/2-y,-z
1/4+x,1/4+y,-z
1/2-x,1/4+y,3/4+z
1/4+x,1/2-y,3/4+z
loop_
_atom_site_type_symbol
_atom_site_label
_atom_site_fract_x
_atom_site_fract_y
_atom_site_fract_z
Si Si1 0.125000 0.625000 0.867744
Si Si2 0.625000 0.447816 0.625000
Si Si3 0.721544 0.134394 0.889064
Si Si4 0.453068 0.693407 0.902688
Si Si5 0.679055 0.625000 0.125000
O O1 0.153381 0.581787 0.752038
O O2 0.118526 0.525020 0.980598
O O3 0.586234 0.396606 0.643429
O O4 0.762322 0.121655 0.858726
O O5 0.704895 0.182724 0.739632
O O6 0.710833 0.221095 0.016974
O O7 0.706796 0.018889 0.950105
#
# Coordination Sequence:
#
# PCOD9514173 Si02
#       5
#    16  16  32  32  16
#     4  10  18  28  54  82 108 132 192 240 284 316
#     4  11  16  36  56  80 104 148 192 239 270 372
#     4  10  20  34  54  82 113 144 190 237 294 340
#     4  10  20  36  56  81 108 155 190 237 284 361
#     4  11  18  30  52  86 112 136 180 256 276 336
#
# _framework density 26.582165
#
# number of rings (size 3 to 8) (size 9 to 14) (size 15 to 20)
#    0.000    1.714    5.714    1.714    0.000    1.143 
#    0.000    0.000    0.000   10.286    0.000    0.000 
#    0.000    0.000    0.000    0.000    0.000    0.000 
#
# Total GULP energy -156003.865010 kJ/mol
# GULP energy per Si atom -5571.566608 kJ/mol
# Density = 2.652166 g / cm^3
# Si number density = 26.582165 Si / 1000 Ang^3
#
#
#
# Elastic Constant Matrix: (Units=GPa)
#
#
# Indices 1 2 3 4 5 6 
#
# 1 280.1232 45.2104 72.9150 0.0000 0.0000 0.0000
# 2 45.2104 47.8549 39.6413 0.0000 0.0000 0.0000
# 3 72.9150 39.6413 197.5693 0.0000 0.0000 0.0000
# 4 0.0000 0.0000 0.0000 0.2337 0.0000 0.0000
# 5 0.0000 0.0000 0.0000 0.0000 52.0291 0.0000
# 6 0.0000 0.0000 0.0000 0.0000 0.0000 15.4640
#
#
#
# Elastic Compliance Matrix: (Units=1/GPa)
#
#
# Indices 1 2 3 4 5 6 
#
# 1 0.004352 -0.003335 -0.000937 0.000000 0.000000 0.000000
# 2 -0.003335 0.027618 -0.004310 0.000000 0.000000 0.000000
# 3 -0.000937 -0.004310 0.006272 0.000000 0.000000 0.000000
# 4 0.000000 0.000000 0.000000 4.279785 0.000000 0.000000
# 5 0.000000 0.000000 0.000000 0.000000 0.019220 0.000000
# 6 0.000000 0.000000 0.000000 0.000000 0.000000 0.064666
#
#
# Mechanical properties :
#
#
# Convention : Reuss Voigt Hill
#
# Bulk Modulus (GPa) = 47.44554 93.45339 70.44947
# Shear Modulus (GPa) = 1.12966 38.06406 19.59686
#
# Velocity S-wave (km/s) = 0.65260 3.78820 2.71812
# Velocity P-wave (km/s) = 4.29596 7.37338 6.03415
#
# Compressibility (1/GPa) = 0.02107680
#
# Stress axis : x y z
#
# Youngs Moduli (GPa) = 229.77622 36.20789 159.43421
#
# Poissons Ratio (x) = 0.12077 0.14938
# Poissons Ratio (y) = 0.76640 0.68724
# Poissons Ratio (z) = 0.21528 0.15607
#
# Static dielectric constant tensor:
#      x y z
#    x 2.234560 0.000000 0.000000 
#    y 0.000000 2.127030 0.000000 
#    z 0.000000 0.000000 2.087620 
# 
# From -- ./inp_files/9778.got.cif
#   From: 2010.05.17/outbox.cif.g08.bks.cpg/sg70_5_cif.got.tgz:9778.got - 2010.06.03 15:57:51.
