data_PCOD9514576
_publ_section_title
;
Structure prediction by ZEFSAII (Michael W. Deem and Ramdas Pophale) SiO2 
 PCOD9514576
Probable space group: F D D D
;
_chemical_formula_sum "Si O2"
_cell_formula_units_Z 96
_cell_length_a 15.080016
_cell_length_b 24.366506
_cell_length_c 10.741065
_cell_angle_alpha 90.000000
_cell_angle_beta 90.000000
_cell_angle_gamma 90.000000
_cell_volume 3946.775337
_symmetry_space_group_name_H-M "F D D D"
_symmetry_group_IT_number 70
_space_group.IT_coordinate_system_code '2'
_symmetry_cell_setting 'orthorhombic'
loop_
_space_group_symop_operation_xyz
x,y,z
1/4-x,1/4-y,z
x,1/4-y,1/4-z
1/4-x,y,1/4-z
-x,-y,-z
3/4+x,3/4+y,-z
-x,3/4+y,3/4+z
3/4+x,-y,3/4+z
x,1/2+y,1/2+z
1/4-x,3/4-y,1/2+z
x,3/4-y,3/4-z
1/4-x,1/2+y,3/4-z
-x,1/2-y,1/2-z
3/4+x,1/4+y,1/2-z
-x,1/4+y,1/4+z
3/4+x,1/2-y,1/4+z
1/2+x,y,1/2+z
3/4-x,1/4-y,1/2+z
1/2+x,1/4-y,3/4-z
3/4-x,y,3/4-z
1/2-x,-y,1/2-z
1/4+x,3/4+y,1/2-z
1/2-x,3/4+y,1/4+z
1/4+x,-y,1/4+z
1/2+x,1/2+y,z
3/4-x,3/4-y,z
1/2+x,3/4-y,1/4-z
3/4-x,1/2+y,1/4-z
1/2-x,1/2-y,-z
1/4+x,1/4+y,-z
1/2-x,1/4+y,3/4+z
1/4+x,1/2-y,3/4+z
loop_
_atom_site_type_symbol
_atom_site_label
_atom_site_fract_x
_atom_site_fract_y
_atom_site_fract_z
Si Si1 0.784599 0.950208 0.443089
Si Si2 0.404806 0.714532 0.124481
Si Si3 0.448425 0.330282 0.712319
O O1 0.875000 0.935258 0.375000
O O2 0.696634 0.947295 0.361679
O O3 0.771520 0.914590 0.568307
O O4 0.802415 0.011611 0.498695
O O5 0.467922 0.673390 0.197755
O O6 0.404634 0.769411 0.212425
O O7 0.375000 0.375000 0.740062
#
# Coordination Sequence:
#
# PCOD9514576 Si02
#       3
#    32  32  32
#     4  10  19  36  65  89 129 174 208 267 346 386
#     4   9  20  37  64  89 129 174 209 270 332 383
#     4   9  20  36  63  86 128 167 226 267 314 389
#
# _framework density 24.323656
#
# number of rings (size 3 to 8) (size 9 to 14) (size 15 to 20)
#    2.000    0.667    0.000    2.000    0.000    0.667 
#    0.000    6.667    7.333    0.000    0.000    0.000 
#    0.000    0.000    0.000    0.000    0.000    0.000 
#
# Total GULP energy -134020.414796 kJ/mol
# GULP energy per Si atom -5584.183950 kJ/mol
# Density = 2.426829 g / cm^3
# Si number density = 24.323656 Si / 1000 Ang^3
#
#
#
# Elastic Constant Matrix: (Units=GPa)
#
#
# Indices 1 2 3 4 5 6 
#
# 1 171.5446 42.7459 9.3272 0.0000 0.0000 0.0000
# 2 42.7459 70.0351 20.5824 0.0000 0.0000 0.0000
# 3 9.3272 20.5824 51.1951 0.0000 0.0000 0.0000
# 4 0.0000 0.0000 0.0000 14.0588 0.0000 0.0000
# 5 0.0000 0.0000 0.0000 0.0000 31.9260 0.0000
# 6 0.0000 0.0000 0.0000 0.0000 0.0000 36.9600
#
#
#
# Elastic Compliance Matrix: (Units=1/GPa)
#
#
# Indices 1 2 3 4 5 6 
#
# 1 0.006886 -0.004348 0.000493 0.000000 0.000000 0.000000
# 2 -0.004348 0.018937 -0.006821 0.000000 0.000000 0.000000
# 3 0.000493 -0.006821 0.022186 0.000000 0.000000 0.000000
# 4 0.000000 0.000000 0.000000 0.071130 0.000000 0.000000
# 5 0.000000 0.000000 0.000000 0.000000 0.031322 0.000000
# 6 0.000000 0.000000 0.000000 0.000000 0.000000 0.027056
#
#
# Mechanical properties :
#
#
# Convention : Reuss Voigt Hill
#
# Bulk Modulus (GPa) = 37.51327 48.67620 43.09473
# Shear Modulus (GPa) = 24.06688 31.26357 27.66523
#
# Velocity S-wave (km/s) = 3.14895 3.58902 3.37616
# Velocity P-wave (km/s) = 5.35511 6.10164 5.74053
#
# Compressibility (1/GPa) = 0.02665723
#
# Stress axis : x y z
#
# Youngs Moduli (GPa) = 145.22287 52.80678 45.07418
#
# Poissons Ratio (x) = 0.22960 -0.02224
# Poissons Ratio (y) = 0.63141 0.30746
# Poissons Ratio (z) = -0.07166 0.36021
#
# Static dielectric constant tensor:
#      x y z
#    x 1.866040 0.000000 0.000000 
#    y 0.000000 2.020450 0.000000 
#    z 0.000000 0.000000 1.953260 
# 
# From -- ./inp_files/16023.got.cif
#   From: 2010.05.17/outbox.cif.g08.bks.cpg/sg70_9_cif.got.tgz:16023.got - 2010.06.03 15:57:51.
