data_PCOD9514366
_publ_section_title
;
Structure prediction by ZEFSAII (Michael W. Deem and Ramdas Pophale) SiO2 
 PCOD9514366
Probable space group: F D D D
;
_chemical_formula_sum "Si O2"
_cell_formula_units_Z 168
_cell_length_a 12.848092
_cell_length_b 21.470979
_cell_length_c 30.001743
_cell_angle_alpha 90.000000
_cell_angle_beta 90.000000
_cell_angle_gamma 90.000000
_cell_volume 8276.314232
_symmetry_space_group_name_H-M "F D D D"
_symmetry_group_IT_number 70
_space_group.IT_coordinate_system_code '2'
_symmetry_cell_setting 'orthorhombic'
loop_
_space_group_symop_operation_xyz
x,y,z
1/4-x,1/4-y,z
x,1/4-y,1/4-z
1/4-x,y,1/4-z
-x,-y,-z
3/4+x,3/4+y,-z
-x,3/4+y,3/4+z
3/4+x,-y,3/4+z
x,1/2+y,1/2+z
1/4-x,3/4-y,1/2+z
x,3/4-y,3/4-z
1/4-x,1/2+y,3/4-z
-x,1/2-y,1/2-z
3/4+x,1/4+y,1/2-z
-x,1/4+y,1/4+z
3/4+x,1/2-y,1/4+z
1/2+x,y,1/2+z
3/4-x,1/4-y,1/2+z
1/2+x,1/4-y,3/4-z
3/4-x,y,3/4-z
1/2-x,-y,1/2-z
1/4+x,3/4+y,1/2-z
1/2-x,3/4+y,1/4+z
1/4+x,-y,1/4+z
1/2+x,1/2+y,z
3/4-x,3/4-y,z
1/2+x,3/4-y,1/4-z
3/4-x,1/2+y,1/4-z
1/2-x,1/2-y,-z
1/4+x,1/4+y,-z
1/2-x,1/4+y,3/4+z
1/4+x,1/2-y,3/4+z
loop_
_atom_site_type_symbol
_atom_site_label
_atom_site_fract_x
_atom_site_fract_y
_atom_site_fract_z
Si Si1 0.141912 0.265854 0.175511
Si Si2 0.674027 0.783616 0.761575
Si Si3 0.875000 0.875000 0.375000
Si Si4 0.758244 0.390826 0.648279
Si Si5 0.795396 0.272944 0.939291
Si Si6 0.492054 0.890174 0.545145
O O1 0.125000 0.238400 0.125000
O O2 0.225640 0.231900 0.207515
O O3 0.193116 0.333047 0.165992
O O4 0.033292 0.288690 0.198481
O O5 0.645137 0.733983 0.722293
O O6 0.564936 0.783803 0.787192
O O7 0.688893 0.850352 0.738492
O O8 0.810095 0.921092 0.344300
O O9 0.875000 0.375000 0.663154
O O10 0.718353 0.456471 0.665304
O O11 0.756391 0.389103 0.594828
O O12 0.375000 0.875000 0.529557
#
# Coordination Sequence:
#
# PCOD9514366 Si02
#       6
#    32  32   8  32  32  32
#     4  10  21  38  63  92 124 163 216 262 321 376
#     4  11  23  39  64  93 122 165 215 273 316 384
#     4  12  28  40  56  96 146 176 192 258 356 416
#     4  10  18  39  65  91 121 161 213 267 316 376
#     4  11  24  39  62  94 130 164 209 263 340 395
#     4  10  22  37  60  90 124 165 211 264 316 380
#
# _framework density 20.29889
#
# number of rings (size 3 to 8) (size 9 to 14) (size 15 to 20)
#    0.000    1.524    3.810    1.143    4.000    0.762 
#    0.000    1.905    0.000    0.000    0.000    0.000 
#    0.000    0.000    0.000    0.000    0.000    0.000 
#
# Total GULP energy -234116.022639 kJ/mol
# GULP energy per Si atom -5574.191015 kJ/mol
# Density = 2.025269 g / cm^3
# Si number density = 20.298890 Si / 1000 Ang^3
#
#
#
# Elastic Constant Matrix: (Units=GPa)
#
#
# Indices 1 2 3 4 5 6 
#
# 1 79.6325 -4.9037 18.4003 0.0000 0.0000 0.0000
# 2 -4.9037 46.2756 35.5408 0.0000 0.0000 0.0000
# 3 18.4003 35.5408 87.6328 0.0000 0.0000 0.0000
# 4 0.0000 0.0000 0.0000 191.8316 0.0000 0.0000
# 5 0.0000 0.0000 0.0000 0.0000 28.4104 0.0000
# 6 0.0000 0.0000 0.0000 0.0000 0.0000 24.7186
#
#
#
# Elastic Compliance Matrix: (Units=1/GPa)
#
#
# Indices 1 2 3 4 5 6 
#
# 1 0.014091 0.005469 -0.005177 0.000000 0.000000 0.000000
# 2 0.005469 0.033508 -0.014738 0.000000 0.000000 0.000000
# 3 -0.005177 -0.014738 0.018475 0.000000 0.000000 0.000000
# 4 0.000000 0.000000 0.000000 0.005213 0.000000 0.000000
# 5 0.000000 0.000000 0.000000 0.000000 0.035198 0.000000
# 6 0.000000 0.000000 0.000000 0.000000 0.000000 0.040455
#
#
# Mechanical properties :
#
#
# Convention : Reuss Voigt Hill
#
# Bulk Modulus (GPa) = 26.89416 34.62396 30.75906
# Shear Modulus (GPa) = 26.56367 59.95903 43.26135
#
# Velocity S-wave (km/s) = 3.62142 5.44079 4.62152
# Velocity P-wave (km/s) = 5.54654 7.52088 6.60787
#
# Compressibility (1/GPa) = 0.03718280
#
# Stress axis : x y z
#
# Youngs Moduli (GPa) = 70.96938 29.84324 54.12590
#
# Poissons Ratio (x) = -0.16321 0.28019
# Poissons Ratio (y) = -0.38812 0.79771
# Poissons Ratio (z) = 0.36738 0.43983
#
# Static dielectric constant tensor:
#      x y z
#    x 1.872800 0.000000 0.000000 
#    y 0.000000 1.675850 0.000000 
#    z 0.000000 0.000000 1.797740 
# 
# From -- ./inp_files/42810.got.cif
#   From: 2010.05.17/outbox.cif.g08.bks.cpg/sg70_22_cif.got.tgz:42810.got - 2010.06.03 15:57:51.
