data_PCOD9514627
_publ_section_title
;
Structure prediction by ZEFSAII (Michael W. Deem and Ramdas Pophale) SiO2 
 PCOD9514627
Probable space group: F D D D
;
_chemical_formula_sum "Si O2"
_cell_formula_units_Z 112
_cell_length_a 8.014979
_cell_length_b 23.056444
_cell_length_c 24.126934
_cell_angle_alpha 90.000000
_cell_angle_beta 90.000000
_cell_angle_gamma 90.000000
_cell_volume 4458.582959
_symmetry_space_group_name_H-M "F D D D"
_symmetry_group_IT_number 70
_space_group.IT_coordinate_system_code '2'
_symmetry_cell_setting 'orthorhombic'
loop_
_space_group_symop_operation_xyz
x,y,z
1/4-x,1/4-y,z
x,1/4-y,1/4-z
1/4-x,y,1/4-z
-x,-y,-z
3/4+x,3/4+y,-z
-x,3/4+y,3/4+z
3/4+x,-y,3/4+z
x,1/2+y,1/2+z
1/4-x,3/4-y,1/2+z
x,3/4-y,3/4-z
1/4-x,1/2+y,3/4-z
-x,1/2-y,1/2-z
3/4+x,1/4+y,1/2-z
-x,1/4+y,1/4+z
3/4+x,1/2-y,1/4+z
1/2+x,y,1/2+z
3/4-x,1/4-y,1/2+z
1/2+x,1/4-y,3/4-z
3/4-x,y,3/4-z
1/2-x,-y,1/2-z
1/4+x,3/4+y,1/2-z
1/2-x,3/4+y,1/4+z
1/4+x,-y,1/4+z
1/2+x,1/2+y,z
3/4-x,3/4-y,z
1/2+x,3/4-y,1/4-z
3/4-x,1/2+y,1/4-z
1/2-x,1/2-y,-z
1/4+x,1/4+y,-z
1/2-x,1/4+y,3/4+z
1/4+x,1/2-y,3/4+z
loop_
_atom_site_type_symbol
_atom_site_label
_atom_site_fract_x
_atom_site_fract_y
_atom_site_fract_z
Si Si1 0.521857 0.836017 0.702668
Si Si2 0.625000 0.625000 0.267348
Si Si3 0.619189 0.040912 0.184817
Si Si4 0.000577 0.815100 0.834958
O O1 0.375000 0.875000 0.677933
O O2 0.702523 0.865874 0.701066
O O3 0.465101 0.824067 0.766622
O O4 0.543386 0.771550 0.680052
O O5 0.647738 0.574687 0.221625
O O6 0.625000 0.068145 0.125000
O O7 0.419432 0.038218 0.189350
O O8 0.032905 0.875000 0.875000
O O9 0.875000 0.780224 0.875000
#
# Coordination Sequence:
#
# PCOD9514627 Si02
#       4
#    32  16  32  32
#     4  11  24  43  66  97 137 176 225 279 348 406
#     4  10  19  38  62  88 128 174 204 282 339 390
#     4  11  23  41  66  99 130 178 227 282 338 413
#     4   9  18  33  63 101 127 167 225 281 340 383
#
# _framework density 25.120087000000002
#
# number of rings (size 3 to 8) (size 9 to 14) (size 15 to 20)
#    0.000    2.000    2.857    3.429    0.000    1.143 
#    7.714    0.000    0.000    0.000    0.000    0.000 
#    0.000    0.000    0.000    0.000    0.000    0.000 
#
# Total GULP energy -155962.210417 kJ/mol
# GULP energy per Si atom -5570.078943 kJ/mol
# Density = 2.506291 g / cm^3
# Si number density = 25.120087 Si / 1000 Ang^3
#
#
#
# Elastic Constant Matrix: (Units=GPa)
#
#
# Indices 1 2 3 4 5 6 
#
# 1 211.2303 49.1036 12.2169 0.0000 0.0000 0.0000
# 2 49.1036 110.0815 18.8367 0.0000 0.0000 0.0000
# 3 12.2169 18.8367 71.9331 0.0000 0.0000 0.0000
# 4 0.0000 0.0000 0.0000 8.3082 0.0000 0.0000
# 5 0.0000 0.0000 0.0000 0.0000 25.4512 0.0000
# 6 0.0000 0.0000 0.0000 0.0000 0.0000 59.3754
#
#
#
# Elastic Compliance Matrix: (Units=1/GPa)
#
#
# Indices 1 2 3 4 5 6 
#
# 1 0.005288 -0.002308 -0.000294 0.000000 0.000000 0.000000
# 2 -0.002308 0.010518 -0.002362 0.000000 0.000000 0.000000
# 3 -0.000294 -0.002362 0.014570 0.000000 0.000000 0.000000
# 4 0.000000 0.000000 0.000000 0.120363 0.000000 0.000000
# 5 0.000000 0.000000 0.000000 0.000000 0.039291 0.000000
# 6 0.000000 0.000000 0.000000 0.000000 0.000000 0.016842
#
#
# Mechanical properties :
#
#
# Convention : Reuss Voigt Hill
#
# Bulk Modulus (GPa) = 48.90548 61.50658 55.20603
# Shear Modulus (GPa) = 22.35973 39.49947 30.92960
#
# Velocity S-wave (km/s) = 2.98671 3.96968 3.51275
# Velocity P-wave (km/s) = 5.60401 6.74903 6.20299
#
# Compressibility (1/GPa) = 0.02044760
#
# Stress axis : x y z
#
# Youngs Moduli (GPa) = 189.11509 95.07394 68.63304
#
# Poissons Ratio (x) = 0.21948 0.02015
# Poissons Ratio (y) = 0.43657 0.16213
# Poissons Ratio (z) = 0.05552 0.22459
#
# Static dielectric constant tensor:
#      x y z
#    x 1.474710 0.000000 0.000000 
#    y 0.000000 2.107520 0.000000 
#    z 0.000000 0.000000 2.102230 
# 
# From -- ./inp_files/56427.got.cif
#   From: 2010.05.17/outbox.cif.g08.bks.cpg/sg70_29_cif.got.tgz:56427.got - 2010.06.03 15:57:51.
