data_PCOD9514029
_publ_section_title
;
Structure prediction by ZEFSAII (Michael W. Deem and Ramdas Pophale) SiO2 
 PCOD9514029
Probable space group: F M M M
;
_chemical_formula_sum "Si O2"
_cell_formula_units_Z 44
_cell_length_a 27.000000
_cell_length_b 18.000000
_cell_length_c 18.000000
_cell_angle_alpha 90.000000
_cell_angle_beta 90.000000
_cell_angle_gamma 90.000000
_cell_volume 8748.000000
_symmetry_space_group_name_H-M "F M M M"
_symmetry_group_IT_number 69
_symmetry_cell_setting 'orthorhombic'
loop_
_space_group_symop_operation_xyz
x,y,z
-x,-y,z
x,-y,-z
-x,y,-z
-x,-y,-z
x,y,-z
-x,y,z
x,-y,z
x,1/2+y,1/2+z
-x,1/2-y,1/2+z
x,1/2-y,1/2-z
-x,1/2+y,1/2-z
-x,1/2-y,1/2-z
x,1/2+y,1/2-z
-x,1/2+y,1/2+z
x,1/2-y,1/2+z
1/2+x,y,1/2+z
1/2-x,-y,1/2+z
1/2+x,-y,1/2-z
1/2-x,y,1/2-z
1/2-x,-y,1/2-z
1/2+x,y,1/2-z
1/2-x,y,1/2+z
1/2+x,-y,1/2+z
1/2+x,1/2+y,z
1/2-x,1/2-y,z
1/2+x,1/2-y,-z
1/2-x,1/2+y,-z
1/2-x,1/2-y,-z
1/2+x,1/2+y,-z
1/2-x,1/2+y,z
1/2+x,1/2-y,z
loop_
_atom_site_type_symbol
_atom_site_label
_atom_site_fract_x
_atom_site_fract_y
_atom_site_fract_z
Si Si1 0.862559 0.359284 0.797210
Si Si2 0.692836 0.272270 0.419447
Si Si3 0.293245 0.500000 0.689725
Si Si4 0.941237 0.410837 0.085338
Si Si5 0.556467 0.089138 0.500000
Si Si6 0.132850 0.134766 0.124234
Si Si7 0.795942 0.000000 0.088892
O O1 0.825127 0.307094 0.842457
O O2 0.829807 0.432649 0.799105
O O3 0.909597 0.370015 0.851679
O O4 0.876321 0.344870 0.711082
O O5 0.687005 0.312731 0.500000
O O6 0.750000 0.250000 0.414179
O O7 0.658404 0.200778 0.419966
O O8 0.250000 0.500000 0.750000
O O9 0.261311 0.500000 0.613885
O O10 0.933084 0.500000 0.092066
O O11 0.000000 0.397887 0.094085
O O12 0.927839 0.389890 0.000000
O O13 0.500000 0.116909 0.500000
O O14 0.585437 0.112330 0.575094
O O15 0.556109 0.000000 0.500000
O O16 0.173844 0.069816 0.120644
O O17 0.800055 0.000000 0.000000
#
# Coordination Sequence:
#
# PCOD9514029 Si02
#       7
#    32  32  16  32  16  32  16
#     4  12  24  38  65  97 131 167 220 264 323 393
#     4  11  25  43  64  93 133 179 220 261 320 395
#     4  12  24  38  57  96 134 170 207 267 316 369
#     4   9  19  38  62  88 124 164 204 259 319 376
#     4  11  24  44  73 102 126 165 224 281 339 401
#     4  12  22  42  65  91 129 169 211 275 331 381
#     4  12  22  38  64  87 122 175 218 256 318 390
#
# _framework density 5.0297210000000003
#
# number of rings (size 3 to 8) (size 9 to 14) (size 15 to 20)
#    0.000    0.818    5.455    2.727    0.000    4.364 
#    0.000    2.727    0.000    2.182    0.000    0.000 
#    0.000    0.000    0.000    0.000    0.000    0.000 
#
# Total GULP energy -245372.148883 kJ/mol
# GULP energy per Si atom -5576.639747 kJ/mol
# Density = 0.501827 g / cm^3
# Si number density = 5.029721 Si / 1000 Ang^3
#
#
#
# Elastic Constant Matrix: (Units=GPa)
#
#
# Indices 1 2 3 4 5 6 
#
# 1 113.4283 3.7547 62.9314 0.0000 0.0000 0.0000
# 2 3.7547 31.9261 14.3463 0.0000 0.0000 0.0000
# 3 62.9314 14.3463 208.2761 0.0000 0.0000 0.0000
# 4 0.0000 0.0000 0.0000 30.6038 0.0000 0.0000
# 5 0.0000 0.0000 0.0000 0.0000 36.8524 0.0000
# 6 0.0000 0.0000 0.0000 0.0000 0.0000 21.0292
#
#
#
# Elastic Compliance Matrix: (Units=1/GPa)
#
#
# Indices 1 2 3 4 5 6 
#
# 1 0.010593 0.000199 -0.003214 0.000000 0.000000 0.000000
# 2 0.000199 0.032326 -0.002287 0.000000 0.000000 0.000000
# 3 -0.003214 -0.002287 0.005930 0.000000 0.000000 0.000000
# 4 0.000000 0.000000 0.000000 0.032676 0.000000 0.000000
# 5 0.000000 0.000000 0.000000 0.000000 0.027135 0.000000
# 6 0.000000 0.000000 0.000000 0.000000 0.000000 0.047553
#
#
# Mechanical properties :
#
#
# Convention : Reuss Voigt Hill
#
# Bulk Modulus (GPa) = 26.14749 57.29947 41.72348
# Shear Modulus (GPa) = 27.84485 35.87030 31.85758
#
# Velocity S-wave (km/s) = 3.72427 4.22704 3.98360
# Velocity P-wave (km/s) = 5.61412 7.23644 6.47628
#
# Compressibility (1/GPa) = 0.03824460
#
# Stress axis : x y z
#
# Youngs Moduli (GPa) = 94.40247 30.93439 168.63224
#
# Poissons Ratio (x) = -0.00614 0.54205
# Poissons Ratio (y) = -0.01875 0.38561
# Poissons Ratio (z) = 0.30345 0.07074
#
# Static dielectric constant tensor:
#      x y z
#    x 1.671050 0.000000 0.000000 
#    y 0.000000 1.841760 0.000000 
#    z 0.000000 0.000000 1.745150 
# 
# From -- ./inp_files/23317.got.cif
#   From: 2010.05.17/outbox.ucp.g08.bks.cvg/sg69_12_cif.got.tgz:23317.got - 2010.06.11 16:51:34.
