data_PCOD9514882
_publ_section_title
;
Structure prediction by ZEFSAII (Michael W. Deem and Ramdas Pophale) SiO2 
 PCOD9514882
Probable space group: F D D D
;
_chemical_formula_sum "Si O2"
_cell_formula_units_Z 136
_cell_length_a 26.441906
_cell_length_b 25.481023
_cell_length_c 8.717973
_cell_angle_alpha 90.000000
_cell_angle_beta 90.000000
_cell_angle_gamma 90.000000
_cell_volume 5873.880901
_symmetry_space_group_name_H-M "F D D D"
_symmetry_group_IT_number 70
_space_group.IT_coordinate_system_code '2'
_symmetry_cell_setting 'orthorhombic'
loop_
_space_group_symop_operation_xyz
x,y,z
1/4-x,1/4-y,z
x,1/4-y,1/4-z
1/4-x,y,1/4-z
-x,-y,-z
3/4+x,3/4+y,-z
-x,3/4+y,3/4+z
3/4+x,-y,3/4+z
x,1/2+y,1/2+z
1/4-x,3/4-y,1/2+z
x,3/4-y,3/4-z
1/4-x,1/2+y,3/4-z
-x,1/2-y,1/2-z
3/4+x,1/4+y,1/2-z
-x,1/4+y,1/4+z
3/4+x,1/2-y,1/4+z
1/2+x,y,1/2+z
3/4-x,1/4-y,1/2+z
1/2+x,1/4-y,3/4-z
3/4-x,y,3/4-z
1/2-x,-y,1/2-z
1/4+x,3/4+y,1/2-z
1/2-x,3/4+y,1/4+z
1/4+x,-y,1/4+z
1/2+x,1/2+y,z
3/4-x,3/4-y,z
1/2+x,3/4-y,1/4-z
3/4-x,1/2+y,1/4-z
1/2-x,1/2-y,-z
1/4+x,1/4+y,-z
1/2-x,1/4+y,3/4+z
1/4+x,1/2-y,3/4+z
loop_
_atom_site_type_symbol
_atom_site_label
_atom_site_fract_x
_atom_site_fract_y
_atom_site_fract_z
Si Si1 0.822007 0.469773 0.530336
Si Si2 0.220853 0.430558 0.177398
Si Si3 0.160509 0.518450 0.998625
Si Si4 0.768830 0.063905 0.957488
Si Si5 0.875000 0.875000 0.875000
O O1 0.775713 0.455340 0.642352
O O2 0.871622 0.492438 0.612488
O O3 0.799221 0.511689 0.409864
O O4 0.839490 0.414320 0.466570
O O5 0.182198 0.466499 0.082400
O O6 0.215985 0.432189 0.361532
O O7 0.218701 0.369346 0.131647
O O8 0.125000 0.546856 0.125000
O O9 0.209050 0.552228 0.950539
#
# Coordination Sequence:
#
# PCOD9514882 Si02
#       5
#    32  32  32  32   8
#     4  11  22  43  61  87 128 169 215 267 307 388
#     4  10  20  37  63  97 130 155 202 265 321 377
#     4  11  18  36  66  95 122 162 213 256 315 373
#     4  10  20  36  63  96 134 154 196 273 318 374
#     4  12  28  44  62  84 124 176 228 254 320 378
#
# _framework density 23.153345999999999
#
# number of rings (size 3 to 8) (size 9 to 14) (size 15 to 20)
#    0.000    1.412    4.706    2.824    0.000    0.000 
#    2.118   10.588   10.353    0.000    0.000    0.000 
#    0.000    0.000    0.000    0.000    0.000    0.000 
#
# Total GULP energy -190005.213717 kJ/mol
# GULP energy per Si atom -5588.388639 kJ/mol
# Density = 2.310065 g / cm^3
# Si number density = 23.153346 Si / 1000 Ang^3
#
#
#
# Elastic Constant Matrix: (Units=GPa)
#
#
# Indices 1 2 3 4 5 6 
#
# 1 137.2055 48.7736 40.4765 0.0024 -0.0008 -0.0017
# 2 48.7736 163.0038 23.1727 0.0043 -0.0028 -0.0028
# 3 40.4765 23.1727 25.6441 0.0051 0.0003 -0.0030
# 4 0.0024 0.0043 0.0051 28.4344 -0.0003 -0.0015
# 5 -0.0008 -0.0028 0.0003 -0.0003 3.1267 0.0008
# 6 -0.0017 -0.0028 -0.0030 -0.0015 0.0008 29.4651
#
#
#
# Elastic Compliance Matrix: (Units=1/GPa)
#
#
# Indices 1 2 3 4 5 6 
#
# 1 0.013837 -0.001188 -0.020767 0.000003 0.000005 -0.000001
# 2 -0.001188 0.007141 -0.004578 0.000000 0.000006 0.000000
# 3 -0.020767 -0.004578 0.075909 -0.000011 -0.000017 0.000006
# 4 0.000003 0.000000 -0.000011 0.035169 0.000004 0.000002
# 5 0.000005 0.000006 -0.000017 0.000004 0.319829 -0.000009
# 6 -0.000001 0.000000 0.000006 0.000002 -0.000009 0.033939
#
#
# Mechanical properties :
#
#
# Convention : Reuss Voigt Hill
#
# Bulk Modulus (GPa) = 22.81905 61.18877 42.00391
# Shear Modulus (GPa) = 9.03349 26.43393 17.73371
#
# Velocity S-wave (km/s) = 1.97739 3.38256 2.77054
# Velocity P-wave (km/s) = 3.88464 6.46069 5.33062
#
# Compressibility (1/GPa) = 0.04382303
#
# Stress axis : x y z
#
# Youngs Moduli (GPa) = 72.27030 140.03498 13.17359
#
# Poissons Ratio (x) = 0.16637 0.27357
# Poissons Ratio (y) = 0.08586 0.06030
# Poissons Ratio (z) = 1.50081 0.64102
#
# Static dielectric constant tensor:
#      x y z
#    x 1.867890 0.000000 0.000000 
#    y 0.000000 1.929500 0.000000 
#    z 0.000000 0.000000 1.970770 
# 
# From -- ./inp_files/19377.got.cif
#   From: 2010.05.17/outbox.cif.g08.bks.cpg/sg70_10_cif.got.tgz:19377.got - 2010.06.03 15:57:51.
