data_PCOD9514696
_publ_section_title
;
Structure prediction by ZEFSAII (Michael W. Deem and Ramdas Pophale) SiO2 
 PCOD9514696
Probable space group: F D D D
;
_chemical_formula_sum "Si O2"
_cell_formula_units_Z 152
_cell_length_a 13.868605
_cell_length_b 20.843385
_cell_length_c 23.313441
_cell_angle_alpha 90.000000
_cell_angle_beta 90.000000
_cell_angle_gamma 90.000000
_cell_volume 6739.185463
_symmetry_space_group_name_H-M "F D D D"
_symmetry_group_IT_number 70
_space_group.IT_coordinate_system_code '2'
_symmetry_cell_setting 'orthorhombic'
loop_
_space_group_symop_operation_xyz
x,y,z
1/4-x,1/4-y,z
x,1/4-y,1/4-z
1/4-x,y,1/4-z
-x,-y,-z
3/4+x,3/4+y,-z
-x,3/4+y,3/4+z
3/4+x,-y,3/4+z
x,1/2+y,1/2+z
1/4-x,3/4-y,1/2+z
x,3/4-y,3/4-z
1/4-x,1/2+y,3/4-z
-x,1/2-y,1/2-z
3/4+x,1/4+y,1/2-z
-x,1/4+y,1/4+z
3/4+x,1/2-y,1/4+z
1/2+x,y,1/2+z
3/4-x,1/4-y,1/2+z
1/2+x,1/4-y,3/4-z
3/4-x,y,3/4-z
1/2-x,-y,1/2-z
1/4+x,3/4+y,1/2-z
1/2-x,3/4+y,1/4+z
1/4+x,-y,1/4+z
1/2+x,1/2+y,z
3/4-x,3/4-y,z
1/2+x,3/4-y,1/4-z
3/4-x,1/2+y,1/4-z
1/2-x,1/2-y,-z
1/4+x,1/4+y,-z
1/2-x,1/4+y,3/4+z
1/4+x,1/2-y,3/4+z
loop_
_atom_site_type_symbol
_atom_site_label
_atom_site_fract_x
_atom_site_fract_y
_atom_site_fract_z
Si Si1 0.876375 0.768084 0.457229
Si Si2 0.948920 0.193911 0.068034
Si Si3 0.532268 0.580769 0.845629
Si Si4 0.477824 0.117444 0.218580
Si Si5 0.125000 0.340463 0.625000
Si Si6 0.625000 0.625000 0.125000
O O1 0.928572 0.728882 0.507537
O O2 0.792626 0.817904 0.472921
O O3 0.834669 0.711355 0.419446
O O4 0.960364 0.814784 0.433073
O O5 0.939047 0.257520 0.107850
O O6 0.870682 0.136882 0.062363
O O7 0.052505 0.165725 0.084768
O O8 0.625000 0.625000 0.840312
O O9 0.475550 0.589653 0.784027
O O10 0.461772 0.612961 0.891852
#
# Coordination Sequence:
#
# PCOD9514696 Si02
#       6
#    32  32  32  32  16   8
#     4  10  21  38  67 102 127 152 216 281 344 375
#     4  11  22  44  64  89 129 178 218 256 314 399
#     4  11  21  39  66  92 127 166 207 263 343 380
#     4  10  19  40  70  94 124 167 203 285 339 373
#     4  12  23  35  60 103 129 164 204 270 330 400
#     4  12  30  44  64  86 134 204 224 238 304 404
#
# _framework density 22.554655
#
# number of rings (size 3 to 8) (size 9 to 14) (size 15 to 20)
#    0.000    1.263    6.316    2.526    0.000    5.053 
#    1.895    4.211    0.000    0.000    0.000    0.000 
#    0.000    0.000    0.000    0.000    0.000    0.000 
#
# Total GULP energy -211588.220288 kJ/mol
# GULP energy per Si atom -5568.111060 kJ/mol
# Density = 2.250332 g / cm^3
# Si number density = 22.554655 Si / 1000 Ang^3
#
#
#
# Elastic Constant Matrix: (Units=GPa)
#
#
# Indices 1 2 3 4 5 6 
#
# 1 139.4211 30.3985 12.0582 0.0000 0.0000 0.0000
# 2 30.3985 72.3556 -6.8519 0.0000 0.0000 0.0000
# 3 12.0582 -6.8519 15.0032 0.0000 0.0000 0.0000
# 4 0.0000 0.0000 0.0000 2.5408 0.0000 0.0000
# 5 0.0000 0.0000 0.0000 0.0000 27.9453 0.0000
# 6 0.0000 0.0000 0.0000 0.0000 0.0000 44.0411
#
#
#
# Elastic Compliance Matrix: (Units=1/GPa)
#
#
# Indices 1 2 3 4 5 6 
#
# 1 0.009000 -0.004668 -0.009366 0.000000 0.000000 0.000000
# 2 -0.004668 0.016867 0.011455 0.000000 0.000000 0.000000
# 3 -0.009366 0.011455 0.079411 0.000000 0.000000 0.000000
# 4 0.000000 0.000000 0.000000 0.393576 0.000000 0.000000
# 5 0.000000 0.000000 0.000000 0.000000 0.035784 0.000000
# 6 0.000000 0.000000 0.000000 0.000000 0.000000 0.022706
#
#
# Mechanical properties :
#
#
# Convention : Reuss Voigt Hill
#
# Bulk Modulus (GPa) = 9.98807 33.10995 21.54901
# Shear Modulus (GPa) = 8.39102 27.65045 18.02073
#
# Velocity S-wave (km/s) = 1.93090 3.50513 2.82969
# Velocity P-wave (km/s) = 3.06744 5.57611 4.50012
#
# Compressibility (1/GPa) = 0.10011947
#
# Stress axis : x y z
#
# Youngs Moduli (GPa) = 111.10702 59.28891 12.59277
#
# Poissons Ratio (x) = 0.27677 0.11794
# Poissons Ratio (y) = 0.51867 -0.14425
# Poissons Ratio (z) = 1.04057 -0.67913
#
# Static dielectric constant tensor:
#      x y z
#    x 1.883280 0.000000 0.000000 
#    y 0.000000 1.893710 0.000000 
#    z 0.000000 0.000000 2.053150 
# 
# From -- ./inp_files/27602.got.cif
#   From: 2010.05.17/outbox.cif.g08.bks.cpg/sg70_14_cif.got.tgz:27602.got - 2010.06.03 15:57:51.
