data_PCOD9514624
_publ_section_title
;
Structure prediction by ZEFSAII (Michael W. Deem and Ramdas Pophale) SiO2 
 PCOD9514624
Probable space group: F D D D
;
_chemical_formula_sum "Si O2"
_cell_formula_units_Z 112
_cell_length_a 14.145449
_cell_length_b 36.119577
_cell_length_c 10.780321
_cell_angle_alpha 90.000000
_cell_angle_beta 90.000000
_cell_angle_gamma 90.000000
_cell_volume 5507.963906
_symmetry_space_group_name_H-M "F D D D"
_symmetry_group_IT_number 70
_space_group.IT_coordinate_system_code '2'
_symmetry_cell_setting 'orthorhombic'
loop_
_space_group_symop_operation_xyz
x,y,z
1/4-x,1/4-y,z
x,1/4-y,1/4-z
1/4-x,y,1/4-z
-x,-y,-z
3/4+x,3/4+y,-z
-x,3/4+y,3/4+z
3/4+x,-y,3/4+z
x,1/2+y,1/2+z
1/4-x,3/4-y,1/2+z
x,3/4-y,3/4-z
1/4-x,1/2+y,3/4-z
-x,1/2-y,1/2-z
3/4+x,1/4+y,1/2-z
-x,1/4+y,1/4+z
3/4+x,1/2-y,1/4+z
1/2+x,y,1/2+z
3/4-x,1/4-y,1/2+z
1/2+x,1/4-y,3/4-z
3/4-x,y,3/4-z
1/2-x,-y,1/2-z
1/4+x,3/4+y,1/2-z
1/2-x,3/4+y,1/4+z
1/4+x,-y,1/4+z
1/2+x,1/2+y,z
3/4-x,3/4-y,z
1/2+x,3/4-y,1/4-z
3/4-x,1/2+y,1/4-z
1/2-x,1/2-y,-z
1/4+x,1/4+y,-z
1/2-x,1/4+y,3/4+z
1/4+x,1/2-y,3/4+z
loop_
_atom_site_type_symbol
_atom_site_label
_atom_site_fract_x
_atom_site_fract_y
_atom_site_fract_z
Si Si1 0.375000 0.375000 0.173171
Si Si2 0.978983 0.030645 0.675610
Si Si3 0.668205 0.854810 0.254936
Si Si4 0.918338 0.955201 0.578989
O O1 0.469184 0.386721 0.247692
O O2 0.344444 0.414316 0.113293
O O3 0.006652 0.044332 0.535706
O O4 0.071461 0.033409 0.760751
O O5 0.906627 0.060877 0.727171
O O6 0.946235 0.988515 0.668330
O O7 0.625000 0.867048 0.125000
O O8 0.628124 0.875000 0.375000
#
# Coordination Sequence:
#
# PCOD9514624 Si02
#       4
#    16  32  32  32
#     4  10  19  38  61  88 119 168 211 254 289 382
#     4   9  18  32  52  87 116 150 202 256 299 353
#     4  11  22  38  62  92 124 160 208 259 307 367
#     4   9  17  31  57  80 118 152 206 251 297 352
#
# _framework density 20.334192999999999
#
# number of rings (size 3 to 8) (size 9 to 14) (size 15 to 20)
#    0.000    2.286    2.857    0.429    0.000    2.286 
#    0.000    6.429    0.000    0.000    0.000    0.000 
#    0.000    0.000    0.000    0.000    0.000    0.000 
#
# Total GULP energy -155945.178377 kJ/mol
# GULP energy per Si atom -5569.470656 kJ/mol
# Density = 2.028791 g / cm^3
# Si number density = 20.334193 Si / 1000 Ang^3
#
#
#
# Elastic Constant Matrix: (Units=GPa)
#
#
# Indices 1 2 3 4 5 6 
#
# 1 27.9076 27.4679 23.9219 0.0000 0.0000 0.0000
# 2 27.4679 194.5840 36.9923 0.0000 0.0000 0.0000
# 3 23.9219 36.9923 80.2749 0.0000 0.0000 0.0000
# 4 0.0000 0.0000 0.0000 29.2458 0.0000 0.0000
# 5 0.0000 0.0000 0.0000 0.0000 -5.1958 0.0000
# 6 0.0000 0.0000 0.0000 0.0000 0.0000 27.1973
#
#
#
# Elastic Compliance Matrix: (Units=1/GPa)
#
#
# Indices 1 2 3 4 5 6 
#
# 1 0.051933 -0.004810 -0.013259 0.000000 0.000000 0.000000
# 2 -0.004810 0.006078 -0.001368 0.000000 0.000000 0.000000
# 3 -0.013259 -0.001368 0.017039 0.000000 0.000000 0.000000
# 4 0.000000 0.000000 0.000000 0.034193 0.000000 0.000000
# 5 0.000000 0.000000 0.000000 0.000000 -0.192461 0.000000
# 6 0.000000 0.000000 0.000000 0.000000 0.000000 0.036768
#
#
# Mechanical properties :
#
#
# Convention : Reuss Voigt Hill
#
# Bulk Modulus (GPa) = 27.64305 53.28120 40.46212
# Shear Modulus (GPa) = 1115.62497 24.54175 570.08336
#
# Velocity S-wave (km/s) = 23.44858 3.47784 16.76203
# Velocity P-wave (km/s) = 27.32651 6.51052 19.86360
#
# Compressibility (1/GPa) = 0.03617545
#
# Stress axis : x y z
#
# Youngs Moduli (GPa) = 19.25572 164.52348 58.69013
#
# Poissons Ratio (x) = 0.79139 0.77819
# Poissons Ratio (y) = 0.09262 0.08026
# Poissons Ratio (z) = 0.25532 0.22499
#
# Static dielectric constant tensor:
#      x y z
#    x 1.738240 0.000000 0.000000 
#    y 0.000000 1.784510 0.000000 
#    z 0.000000 0.000000 1.757520 
# 
# From -- ./inp_files/16506.got.cif
#   From: 2010.05.17/outbox.cif.g08.bks.cpg/sg70_9_cif.got.tgz:16506.got - 2010.06.03 15:57:51.
