data_PCOD9514612
_publ_section_title
;
Structure prediction by ZEFSAII (Michael W. Deem and Ramdas Pophale) SiO2 
 PCOD9514612
Probable space group: F D D D
;
_chemical_formula_sum "Si O2"
_cell_formula_units_Z 160
_cell_length_a 22.981386
_cell_length_b 15.036673
_cell_length_c 23.878639
_cell_angle_alpha 90.000000
_cell_angle_beta 90.000000
_cell_angle_gamma 90.000000
_cell_volume 8251.588130
_symmetry_space_group_name_H-M "F D D D"
_symmetry_group_IT_number 70
_space_group.IT_coordinate_system_code '2'
_symmetry_cell_setting 'orthorhombic'
loop_
_space_group_symop_operation_xyz
x,y,z
1/4-x,1/4-y,z
x,1/4-y,1/4-z
1/4-x,y,1/4-z
-x,-y,-z
3/4+x,3/4+y,-z
-x,3/4+y,3/4+z
3/4+x,-y,3/4+z
x,1/2+y,1/2+z
1/4-x,3/4-y,1/2+z
x,3/4-y,3/4-z
1/4-x,1/2+y,3/4-z
-x,1/2-y,1/2-z
3/4+x,1/4+y,1/2-z
-x,1/4+y,1/4+z
3/4+x,1/2-y,1/4+z
1/2+x,y,1/2+z
3/4-x,1/4-y,1/2+z
1/2+x,1/4-y,3/4-z
3/4-x,y,3/4-z
1/2-x,-y,1/2-z
1/4+x,3/4+y,1/2-z
1/2-x,3/4+y,1/4+z
1/4+x,-y,1/4+z
1/2+x,1/2+y,z
3/4-x,3/4-y,z
1/2+x,3/4-y,1/4-z
3/4-x,1/2+y,1/4-z
1/2-x,1/2-y,-z
1/4+x,1/4+y,-z
1/2-x,1/4+y,3/4+z
1/4+x,1/2-y,3/4+z
loop_
_atom_site_type_symbol
_atom_site_label
_atom_site_fract_x
_atom_site_fract_y
_atom_site_fract_z
Si Si1 0.440424 0.349098 0.659893
Si Si2 0.284751 0.862465 0.036088
Si Si3 0.534668 0.967410 0.216507
Si Si4 0.908639 0.060507 0.486352
Si Si5 0.676562 0.903734 0.810895
O O1 0.375000 0.375000 0.675069
O O2 0.443966 0.341563 0.592684
O O3 0.486113 0.424672 0.677772
O O4 0.450055 0.253828 0.688578
O O5 0.218165 0.832099 0.044444
O O6 0.280913 0.930451 0.984303
O O7 0.325972 0.779340 0.020785
O O8 0.601750 0.953127 0.198042
O O9 0.532209 0.910800 0.274706
O O10 0.885399 0.136227 0.529587
O O11 0.671109 0.875000 0.875000
#
# Coordination Sequence:
#
# PCOD9514612 Si02
#       5
#    32  32  32  32  32
#     4  12  22  36  62  87 119 162 208 242 312 369
#     4  11  20  40  61  90 121 159 202 256 312 367
#     4  10  22  37  60  88 123 155 197 261 295 367
#     4   9  22  36  60  87 119 155 201 250 304 364
#     4  10  19  38  59  86 119 159 201 248 304 366
#
# _framework density 19.390208000000001
#
# number of rings (size 3 to 8) (size 9 to 14) (size 15 to 20)
#    1.200    0.400    2.000    4.800    0.000    0.800 
#    0.000    3.000    0.000    5.400    0.000    0.000 
#    0.000    0.000    0.000    0.000    0.000    0.000 
#
# Total GULP energy -222743.783018 kJ/mol
# GULP energy per Si atom -5568.594575 kJ/mol
# Density = 1.934607 g / cm^3
# Si number density = 19.390208 Si / 1000 Ang^3
#
#
#
# Elastic Constant Matrix: (Units=GPa)
#
#
# Indices 1 2 3 4 5 6 
#
# 1 116.3369 15.9967 7.6289 0.0000 0.0000 0.0000
# 2 15.9967 73.2528 0.1755 0.0000 0.0000 0.0000
# 3 7.6289 0.1755 33.4543 0.0000 0.0000 0.0000
# 4 0.0000 0.0000 0.0000 27.3953 0.0000 0.0000
# 5 0.0000 0.0000 0.0000 0.0000 26.0470 0.0000
# 6 0.0000 0.0000 0.0000 0.0000 0.0000 27.9157
#
#
#
# Elastic Compliance Matrix: (Units=1/GPa)
#
#
# Indices 1 2 3 4 5 6 
#
# 1 0.008999 -0.001960 -0.002042 0.000000 0.000000 0.000000
# 2 -0.001960 0.014079 0.000373 0.000000 0.000000 0.000000
# 3 -0.002042 0.000373 0.030355 0.000000 0.000000 0.000000
# 4 0.000000 0.000000 0.000000 0.036503 0.000000 0.000000
# 5 0.000000 0.000000 0.000000 0.000000 0.038392 0.000000
# 6 0.000000 0.000000 0.000000 0.000000 0.000000 0.035822
#
#
# Mechanical properties :
#
#
# Convention : Reuss Voigt Hill
#
# Bulk Modulus (GPa) = 21.65680 30.07180 25.86430
# Shear Modulus (GPa) = 26.76665 29.55444 28.16055
#
# Velocity S-wave (km/s) = 3.71943 3.90833 3.81505
# Velocity P-wave (km/s) = 5.44415 5.99242 5.72485
#
# Compressibility (1/GPa) = 0.04617487
#
# Stress axis : x y z
#
# Youngs Moduli (GPa) = 111.12133 71.03001 32.94330
#
# Poissons Ratio (x) = 0.13924 0.06727
# Poissons Ratio (y) = 0.21783 -0.01229
# Poissons Ratio (z) = 0.22690 -0.02651
#
# Static dielectric constant tensor:
#      x y z
#    x 1.699040 0.000000 0.000000 
#    y 0.000000 1.726840 0.000000 
#    z 0.000000 0.000000 1.649570 
# 
# From -- ./inp_files/54270.got.cif
#   From: 2010.05.17/outbox.cif.g08.bks.cpg/sg70_28_cif.got.tgz:54270.got - 2010.06.03 15:57:51.
