data_PCOD9514863
_publ_section_title
;
Structure prediction by ZEFSAII (Michael W. Deem and Ramdas Pophale) SiO2 
 PCOD9514863
Probable space group: F D D D
;
_chemical_formula_sum "Si O2"
_cell_formula_units_Z 240
_cell_length_a 21.926524
_cell_length_b 28.287449
_cell_length_c 17.183138
_cell_angle_alpha 90.000000
_cell_angle_beta 90.000000
_cell_angle_gamma 90.000000
_cell_volume 10657.762807
_symmetry_space_group_name_H-M "F D D D"
_symmetry_group_IT_number 70
_space_group.IT_coordinate_system_code '2'
_symmetry_cell_setting 'orthorhombic'
loop_
_space_group_symop_operation_xyz
x,y,z
1/4-x,1/4-y,z
x,1/4-y,1/4-z
1/4-x,y,1/4-z
-x,-y,-z
3/4+x,3/4+y,-z
-x,3/4+y,3/4+z
3/4+x,-y,3/4+z
x,1/2+y,1/2+z
1/4-x,3/4-y,1/2+z
x,3/4-y,3/4-z
1/4-x,1/2+y,3/4-z
-x,1/2-y,1/2-z
3/4+x,1/4+y,1/2-z
-x,1/4+y,1/4+z
3/4+x,1/2-y,1/4+z
1/2+x,y,1/2+z
3/4-x,1/4-y,1/2+z
1/2+x,1/4-y,3/4-z
3/4-x,y,3/4-z
1/2-x,-y,1/2-z
1/4+x,3/4+y,1/2-z
1/2-x,3/4+y,1/4+z
1/4+x,-y,1/4+z
1/2+x,1/2+y,z
3/4-x,3/4-y,z
1/2+x,3/4-y,1/4-z
3/4-x,1/2+y,1/4-z
1/2-x,1/2-y,-z
1/4+x,1/4+y,-z
1/2-x,1/4+y,3/4+z
1/4+x,1/2-y,3/4+z
loop_
_atom_site_type_symbol
_atom_site_label
_atom_site_fract_x
_atom_site_fract_y
_atom_site_fract_z
Si Si1 0.598481 0.773922 0.408254
Si Si2 0.971376 0.927192 0.340793
Si Si3 0.009424 0.420948 0.513351
Si Si4 0.471830 0.988665 0.253297
Si Si5 0.656517 0.196856 0.010592
Si Si6 0.059735 0.649338 0.393629
Si Si7 0.915059 0.625000 0.625000
Si Si8 0.159792 0.009085 0.229926
O O1 0.530268 0.772883 0.443882
O O2 0.639352 0.744805 0.466990
O O3 0.620011 0.827598 0.397876
O O4 0.596851 0.748720 0.324507
O O5 0.987678 0.875000 0.375000
O O6 0.950989 0.955316 0.417907
O O7 0.907533 0.925097 0.292022
O O8 0.015446 0.961372 0.290902
O O9 0.989313 0.390035 0.585789
O O10 0.950259 0.444258 0.472320
O O11 0.044438 0.390855 0.448554
O O12 0.050817 0.463821 0.542407
O O13 0.408709 0.990665 0.300400
O O14 0.459433 0.945105 0.194089
O O15 0.686157 0.163913 0.945541
O O16 0.125000 0.625000 0.414455
#
# Coordination Sequence:
#
# PCOD9514863 Si02
#       8
#    32  32  32  32  32  32  16  32
#     4  10  20  38  62  93 125 170 208 264 315 390
#     4  10  22  40  61  98 128 165 218 275 325 387
#     4  10  21  38  63  90 122 162 214 256 320 383
#     4  11  22  38  62  95 127 168 221 263 330 397
#     4  10  20  38  68  91 127 167 215 273 317 374
#     4  12  20  36  63  94 118 165 215 262 314 384
#     4  10  20  36  61  90 126 162 204 259 324 386
#     4  10  21  41  59  89 128 168 201 265 324 380
#
# _framework density 22.518795999999998
#
# number of rings (size 3 to 8) (size 9 to 14) (size 15 to 20)
#    0.000    1.600    4.000    1.600    0.000    1.600 
#    4.800    9.667    0.000    4.800    0.000    0.000 
#    0.000    0.000    0.000    0.000    0.000    0.000 
#
# Total GULP energy -335529.249382 kJ/mol
# GULP energy per Si atom -5592.154156 kJ/mol
# Density = 2.246754 g / cm^3
# Si number density = 22.518796 Si / 1000 Ang^3
#
#
#
# Elastic Constant Matrix: (Units=GPa)
#
#
# Indices 1 2 3 4 5 6 
#
# 1 44.6486 7.5106 10.7791 0.0000 0.0000 0.0000
# 2 7.5106 106.1980 24.5408 0.0000 0.0000 0.0000
# 3 10.7791 24.5408 74.2490 0.0000 0.0000 0.0000
# 4 0.0000 0.0000 0.0000 39.3683 0.0000 0.0000
# 5 0.0000 0.0000 0.0000 0.0000 22.8136 0.0000
# 6 0.0000 0.0000 0.0000 0.0000 0.0000 28.6050
#
#
#
# Elastic Compliance Matrix: (Units=1/GPa)
#
#
# Indices 1 2 3 4 5 6 
#
# 1 0.023297 -0.000938 -0.003072 0.000000 0.000000 0.000000
# 2 -0.000938 0.010233 -0.003246 0.000000 0.000000 0.000000
# 3 -0.003072 -0.003246 0.014987 0.000000 0.000000 0.000000
# 4 0.000000 0.000000 0.000000 0.025401 0.000000 0.000000
# 5 0.000000 0.000000 0.000000 0.000000 0.043833 0.000000
# 6 0.000000 0.000000 0.000000 0.000000 0.000000 0.034959
#
#
# Mechanical properties :
#
#
# Convention : Reuss Voigt Hill
#
# Bulk Modulus (GPa) = 29.40767 34.52850 31.96808
# Shear Modulus (GPa) = 28.00235 30.30839 29.15537
#
# Velocity S-wave (km/s) = 3.53017 3.67265 3.60212
# Velocity P-wave (km/s) = 5.45010 5.77503 5.61492
#
# Compressibility (1/GPa) = 0.03400473
#
# Stress axis : x y z
#
# Youngs Moduli (GPa) = 42.92485 97.72503 66.72420
#
# Poissons Ratio (x) = 0.09163 0.20499
# Poissons Ratio (y) = 0.04025 0.21659
# Poissons Ratio (z) = 0.13187 0.31722
#
# Static dielectric constant tensor:
#      x y z
#    x 1.869130 0.000000 0.000000 
#    y 0.000000 1.832500 0.000000 
#    z 0.000000 0.000000 1.838250 
# 
# From -- ./inp_files/38974.got.cif
#   From: 2010.05.17/outbox.cif.g08.bks.cpg/sg70_20_cif.got.tgz:38974.got - 2010.06.03 15:57:51.
