data_PCOD9514221
_publ_section_title
;
Structure prediction by ZEFSAII (Michael W. Deem and Ramdas Pophale) SiO2 
 PCOD9514221
Probable space group: F D D D
;
_chemical_formula_sum "Si O2"
_cell_formula_units_Z 80
_cell_length_a 26.129869
_cell_length_b 7.001309
_cell_length_c 16.979079
_cell_angle_alpha 90.000000
_cell_angle_beta 90.000000
_cell_angle_gamma 90.000000
_cell_volume 3106.208522
_symmetry_space_group_name_H-M "F D D D"
_symmetry_group_IT_number 70
_space_group.IT_coordinate_system_code '2'
_symmetry_cell_setting 'orthorhombic'
loop_
_space_group_symop_operation_xyz
x,y,z
1/4-x,1/4-y,z
x,1/4-y,1/4-z
1/4-x,y,1/4-z
-x,-y,-z
3/4+x,3/4+y,-z
-x,3/4+y,3/4+z
3/4+x,-y,3/4+z
x,1/2+y,1/2+z
1/4-x,3/4-y,1/2+z
x,3/4-y,3/4-z
1/4-x,1/2+y,3/4-z
-x,1/2-y,1/2-z
3/4+x,1/4+y,1/2-z
-x,1/4+y,1/4+z
3/4+x,1/2-y,1/4+z
1/2+x,y,1/2+z
3/4-x,1/4-y,1/2+z
1/2+x,1/4-y,3/4-z
3/4-x,y,3/4-z
1/2-x,-y,1/2-z
1/4+x,3/4+y,1/2-z
1/2-x,3/4+y,1/4+z
1/4+x,-y,1/4+z
1/2+x,1/2+y,z
3/4-x,3/4-y,z
1/2+x,3/4-y,1/4-z
3/4-x,1/2+y,1/4-z
1/2-x,1/2-y,-z
1/4+x,1/4+y,-z
1/2-x,1/4+y,3/4+z
1/4+x,1/2-y,3/4+z
loop_
_atom_site_type_symbol
_atom_site_label
_atom_site_fract_x
_atom_site_fract_y
_atom_site_fract_z
Si Si1 0.625000 0.125000 0.979065
Si Si2 0.461149 0.901228 0.603941
Si Si3 0.320492 0.038036 0.311516
O O1 0.577107 0.072517 0.920672
O O2 0.610508 0.303414 0.033480
O O3 0.520039 0.844464 0.591113
O O4 0.464293 0.125000 0.625000
O O5 0.438729 0.910795 0.516821
O O6 0.328136 0.875000 0.375000
#
# Coordination Sequence:
#
# PCOD9514221 Si02
#       3
#    16  32  32
#     4  10  18  32  65 110 149 188 242 308 381 442
#     4   8  16  32  59 102 146 184 241 315 381 433
#     4   9  17  33  61 102 147 190 245 308 368 441
#
# _framework density 25.754871999999999
#
# number of rings (size 3 to 8) (size 9 to 14) (size 15 to 20)
#    0.000    3.200    0.000    2.400    0.000    0.000 
#    0.000    1.000    0.000   24.000    0.000   53.200 
#    0.000   70.400    0.000    0.000    0.000    0.000 
#
# Total GULP energy -111724.873297 kJ/mol
# GULP energy per Si atom -5586.243665 kJ/mol
# Density = 2.569625 g / cm^3
# Si number density = 25.754872 Si / 1000 Ang^3
#
#
#
# Elastic Constant Matrix: (Units=GPa)
#
#
# Indices 1 2 3 4 5 6 
#
# 1 190.9376 77.9876 83.7690 0.0000 0.0000 0.0000
# 2 77.9876 141.6605 97.6106 0.0000 0.0000 0.0001
# 3 83.7690 97.6106 223.7094 0.0000 0.0000 0.0000
# 4 0.0000 0.0000 0.0000 43.4112 0.0000 0.0000
# 5 0.0000 0.0000 0.0000 0.0000 72.8636 0.0000
# 6 0.0000 0.0001 0.0000 0.0000 0.0000 10.8390
#
#
#
# Elastic Compliance Matrix: (Units=1/GPa)
#
#
# Indices 1 2 3 4 5 6 
#
# 1 0.007030 -0.002941 -0.001350 0.000000 0.000000 0.000000
# 2 -0.002941 0.011324 -0.003840 0.000000 0.000000 0.000000
# 3 -0.001350 -0.003840 0.006651 0.000000 0.000000 0.000000
# 4 0.000000 0.000000 0.000000 0.023036 0.000000 0.000000
# 5 0.000000 0.000000 0.000000 0.000000 0.013724 0.000000
# 6 0.000000 0.000000 0.000000 0.000000 0.000000 0.092260
#
#
# Mechanical properties :
#
#
# Convention : Reuss Voigt Hill
#
# Bulk Modulus (GPa) = 114.34687 119.44909 116.89798
# Shear Modulus (GPa) = 28.86851 45.21879 37.04365
#
# Velocity S-wave (km/s) = 3.35161 4.19470 3.79663
# Velocity P-wave (km/s) = 7.71183 8.36305 8.04403
#
# Compressibility (1/GPa) = 0.00874532
#
# Stress axis : x y z
#
# Youngs Moduli (GPa) = 142.23870 88.31006 150.35739
#
# Poissons Ratio (x) = 0.25968 0.20291
# Poissons Ratio (y) = 0.41826 0.57734
# Poissons Ratio (z) = 0.19196 0.33909
#
# Static dielectric constant tensor:
#      x y z
#    x 2.277390 0.000000 0.000000 
#    y 0.000000 2.012590 0.000000 
#    z 0.000000 0.000000 2.212380 
# 
# From -- ./inp_files/7057.got.cif
#   From: 2010.05.17/outbox.cif.g08.bks.cpg/sg70_4_cif.got.tgz:7057.got - 2010.06.03 15:57:51.
