data_PCOD9514828
_publ_section_title
;
Structure prediction by ZEFSAII (Michael W. Deem and Ramdas Pophale) SiO2 
 PCOD9514828
Probable space group: F D D D
;
_chemical_formula_sum "Si O2"
_cell_formula_units_Z 216
_cell_length_a 29.139493
_cell_length_b 20.457948
_cell_length_c 18.623541
_cell_angle_alpha 90.000000
_cell_angle_beta 90.000000
_cell_angle_gamma 90.000000
_cell_volume 11102.130321
_symmetry_space_group_name_H-M "F D D D"
_symmetry_group_IT_number 70
_space_group.IT_coordinate_system_code '2'
_symmetry_cell_setting 'orthorhombic'
loop_
_space_group_symop_operation_xyz
x,y,z
1/4-x,1/4-y,z
x,1/4-y,1/4-z
1/4-x,y,1/4-z
-x,-y,-z
3/4+x,3/4+y,-z
-x,3/4+y,3/4+z
3/4+x,-y,3/4+z
x,1/2+y,1/2+z
1/4-x,3/4-y,1/2+z
x,3/4-y,3/4-z
1/4-x,1/2+y,3/4-z
-x,1/2-y,1/2-z
3/4+x,1/4+y,1/2-z
-x,1/4+y,1/4+z
3/4+x,1/2-y,1/4+z
1/2+x,y,1/2+z
3/4-x,1/4-y,1/2+z
1/2+x,1/4-y,3/4-z
3/4-x,y,3/4-z
1/2-x,-y,1/2-z
1/4+x,3/4+y,1/2-z
1/2-x,3/4+y,1/4+z
1/4+x,-y,1/4+z
1/2+x,1/2+y,z
3/4-x,3/4-y,z
1/2+x,3/4-y,1/4-z
3/4-x,1/2+y,1/4-z
1/2-x,1/2-y,-z
1/4+x,1/4+y,-z
1/2-x,1/4+y,3/4+z
1/4+x,1/2-y,3/4+z
loop_
_atom_site_type_symbol
_atom_site_label
_atom_site_fract_x
_atom_site_fract_y
_atom_site_fract_z
Si Si1 0.315407 0.261330 0.189620
Si Si2 0.125000 0.625000 0.125000
Si Si3 0.415768 0.253990 0.145372
Si Si4 0.981760 0.418140 0.302827
Si Si5 0.639798 0.551425 0.009666
Si Si6 0.956757 0.960007 0.025184
Si Si7 0.472105 0.625000 0.625000
Si Si8 0.447866 0.850402 0.764763
O O1 0.367548 0.236174 0.183791
O O2 0.277145 0.209229 0.213900
O O3 0.300720 0.279964 0.108971
O O4 0.314840 0.328036 0.234447
O O5 0.159107 0.584107 0.175733
O O6 0.402927 0.295135 0.074332
O O7 0.441417 0.189581 0.117988
O O8 0.444955 0.297892 0.200924
O O9 0.987405 0.375000 0.375000
O O10 0.935670 0.463073 0.304827
O O11 0.969065 0.364693 0.242936
O O12 0.625000 0.625000 0.029040
O O13 0.590309 0.516582 0.014058
O O14 0.000000 0.000000 0.000000
O O15 0.504644 0.609667 0.556840
#
# Coordination Sequence:
#
# PCOD9514828 Si02
#       8
#    32   8  32  32  32  32  16  32
#     4  11  22  37  65  82 121 165 204 249 314 376
#     4  10  20  36  64  96 108 148 218 264 296 364
#     4  11  21  41  62  88 118 162 203 248 316 378
#     4  11  21  35  56  89 119 154 199 256 303 353
#     4   9  20  35  59  84 112 159 209 240 292 374
#     4  10  20  36  54  85 118 160 206 252 298 373
#     4  11  26  35  64  94 126 146 203 268 313 368
#     4  11  21  41  62  91 119 161 206 259 309 384
#
# _framework density 19.455725000000001
#
# number of rings (size 3 to 8) (size 9 to 14) (size 15 to 20)
#    0.000    1.481    2.963    4.000    1.037    2.667 
#    0.000    0.000    0.000    0.000    0.000    0.000 
#    0.000    0.000    0.000    0.000    0.000    0.000 
#
# Total GULP energy -301059.266227 kJ/mol
# GULP energy per Si atom -5575.171597 kJ/mol
# Density = 1.941144 g / cm^3
# Si number density = 19.455725 Si / 1000 Ang^3
#
#
#
# Elastic Constant Matrix: (Units=GPa)
#
#
# Indices 1 2 3 4 5 6 
#
# 1 143.0069 48.9773 19.9678 0.0000 0.0000 0.0000
# 2 48.9773 57.1248 13.1002 0.0000 0.0000 0.0000
# 3 19.9678 13.1002 47.2826 0.0000 0.0000 0.0000
# 4 0.0000 0.0000 0.0000 18.8061 0.0000 0.0000
# 5 0.0000 0.0000 0.0000 0.0000 29.0401 0.0000
# 6 0.0000 0.0000 0.0000 0.0000 0.0000 28.3411
#
#
#
# Elastic Compliance Matrix: (Units=1/GPa)
#
#
# Indices 1 2 3 4 5 6 
#
# 1 0.010071 -0.008179 -0.001987 0.000000 0.000000 0.000000
# 2 -0.008179 0.025336 -0.003565 0.000000 0.000000 0.000000
# 3 -0.001987 -0.003565 0.022976 0.000000 0.000000 0.000000
# 4 0.000000 0.000000 0.000000 0.053174 0.000000 0.000000
# 5 0.000000 0.000000 0.000000 0.000000 0.034435 0.000000
# 6 0.000000 0.000000 0.000000 0.000000 0.000000 0.035284
#
#
# Mechanical properties :
#
#
# Convention : Reuss Voigt Hill
#
# Bulk Modulus (GPa) = 32.34134 45.72277 39.03205
# Shear Modulus (GPa) = 22.82607 26.26204 24.54406
#
# Velocity S-wave (km/s) = 3.42896 3.67800 3.55566
# Velocity P-wave (km/s) = 5.68649 6.44894 6.07968
#
# Compressibility (1/GPa) = 0.03092018
#
# Stress axis : x y z
#
# Youngs Moduli (GPa) = 99.29135 39.46976 43.52282
#
# Poissons Ratio (x) = 0.32283 0.08648
# Poissons Ratio (y) = 0.81213 0.15518
# Poissons Ratio (z) = 0.19730 0.14073
#
# Static dielectric constant tensor:
#      x y z
#    x 1.759910 0.000000 0.000000 
#    y 0.000000 1.686870 0.000000 
#    z 0.000000 0.000000 1.710770 
# 
# From -- ./inp_files/47091.got.cif
#   From: 2010.05.17/outbox.cif.g08.bks.cpg/sg70_24_cif.got.tgz:47091.got - 2010.06.03 15:57:51.
