data_PCOD9514505
_publ_section_title
;
Structure prediction by ZEFSAII (Michael W. Deem and Ramdas Pophale) SiO2 
 PCOD9514505
Probable space group: F D D D
;
_chemical_formula_sum "Si O2"
_cell_formula_units_Z 192
_cell_length_a 13.309787
_cell_length_b 26.621100
_cell_length_c 26.840787
_cell_angle_alpha 90.000000
_cell_angle_beta 90.000000
_cell_angle_gamma 90.000000
_cell_volume 9510.259073
_symmetry_space_group_name_H-M "F D D D"
_symmetry_group_IT_number 70
_space_group.IT_coordinate_system_code '2'
_symmetry_cell_setting 'orthorhombic'
loop_
_space_group_symop_operation_xyz
x,y,z
1/4-x,1/4-y,z
x,1/4-y,1/4-z
1/4-x,y,1/4-z
-x,-y,-z
3/4+x,3/4+y,-z
-x,3/4+y,3/4+z
3/4+x,-y,3/4+z
x,1/2+y,1/2+z
1/4-x,3/4-y,1/2+z
x,3/4-y,3/4-z
1/4-x,1/2+y,3/4-z
-x,1/2-y,1/2-z
3/4+x,1/4+y,1/2-z
-x,1/4+y,1/4+z
3/4+x,1/2-y,1/4+z
1/2+x,y,1/2+z
3/4-x,1/4-y,1/2+z
1/2+x,1/4-y,3/4-z
3/4-x,y,3/4-z
1/2-x,-y,1/2-z
1/4+x,3/4+y,1/2-z
1/2-x,3/4+y,1/4+z
1/4+x,-y,1/4+z
1/2+x,1/2+y,z
3/4-x,3/4-y,z
1/2+x,3/4-y,1/4-z
3/4-x,1/2+y,1/4-z
1/2-x,1/2-y,-z
1/4+x,1/4+y,-z
1/2-x,1/4+y,3/4+z
1/4+x,1/2-y,3/4+z
loop_
_atom_site_type_symbol
_atom_site_label
_atom_site_fract_x
_atom_site_fract_y
_atom_site_fract_z
Si Si1 0.400513 0.773046 0.002330
Si Si2 0.191078 0.875000 0.375000
Si Si3 0.894552 0.578716 0.223051
Si Si4 0.754569 0.519770 0.097492
Si Si5 0.545096 0.323931 0.215731
Si Si6 0.875000 0.124914 0.875000
Si Si7 0.300008 0.034289 0.312062
O O1 0.416239 0.747956 0.056710
O O2 0.314283 0.813827 0.011642
O O3 0.502391 0.797515 0.981222
O O4 0.357377 0.727671 0.969482
O O5 0.127951 0.904146 0.332872
O O6 0.252888 0.920334 0.399625
O O7 0.907169 0.631341 0.252127
O O8 0.807126 0.547837 0.253435
O O9 0.776330 0.496051 0.152270
O O10 0.652188 0.496314 0.075117
O O11 0.551141 0.343007 0.159267
O O12 0.938604 0.087800 0.910183
#
# Coordination Sequence:
#
# PCOD9514505 Si02
#       7
#    32  16  32  32  32  16  32
#     4  10  20  35  56  78 118 156 189 228 293 361
#     4  12  22  33  57  84 122 146 188 248 304 344
#     4  10  21  37  54  83 116 151 191 243 292 353
#     4   9  18  35  56  81 106 149 191 237 290 355
#     4  10  19  35  55  81 110 154 193 233 291 355
#     4   8  16  32  58  79  99 138 192 244 270 336
#     4   8  18  37  59  78 101 146 198 233 293 342
#
# _framework density 20.188725000000002
#
# number of rings (size 3 to 8) (size 9 to 14) (size 15 to 20)
#    0.000    2.667    1.667    1.500    0.000    3.333 
#    0.000    0.833    0.000    0.000    0.000    0.000 
#    0.000    0.000    0.000    0.000    0.000    0.000 
#
# Total GULP energy -267223.008736 kJ/mol
# GULP energy per Si atom -5567.146015 kJ/mol
# Density = 2.014277 g / cm^3
# Si number density = 20.188725 Si / 1000 Ang^3
#
#
#
# Elastic Constant Matrix: (Units=GPa)
#
#
# Indices 1 2 3 4 5 6 
#
# 1 28.8946 35.0602 20.7878 0.0000 0.0000 0.0000
# 2 35.0602 124.1821 43.1935 0.0000 0.0000 0.0000
# 3 20.7878 43.1935 118.4596 0.0000 0.0000 0.0000
# 4 0.0000 0.0000 0.0000 13.4444 0.0000 0.0000
# 5 0.0000 0.0000 0.0000 0.0000 14.1274 0.0000
# 6 0.0000 0.0000 0.0000 0.0000 0.0000 153.2883
#
#
#
# Elastic Compliance Matrix: (Units=1/GPa)
#
#
# Indices 1 2 3 4 5 6 
#
# 1 0.054698 -0.013862 -0.004544 0.000000 0.000000 0.000000
# 2 -0.013862 0.012735 -0.002211 0.000000 0.000000 0.000000
# 3 -0.004544 -0.002211 0.010045 0.000000 0.000000 0.000000
# 4 0.000000 0.000000 0.000000 0.074381 0.000000 0.000000
# 5 0.000000 0.000000 0.000000 0.000000 0.070784 0.000000
# 6 0.000000 0.000000 0.000000 0.000000 0.000000 0.006524
#
#
# Mechanical properties :
#
#
# Convention : Reuss Voigt Hill
#
# Bulk Modulus (GPa) = 27.59085 52.17991 39.88538
# Shear Modulus (GPa) = 17.70014 47.67167 32.68590
#
# Velocity S-wave (km/s) = 2.96418 4.86459 4.02807
# Velocity P-wave (km/s) = 5.04096 7.57988 6.43684
#
# Compressibility (1/GPa) = 0.03624390
#
# Stress axis : x y z
#
# Youngs Moduli (GPa) = 18.28221 78.52075 99.54877
#
# Poissons Ratio (x) = 1.08848 0.45236
# Poissons Ratio (y) = 0.25343 0.22011
# Poissons Ratio (z) = 0.08308 0.17362
#
# Static dielectric constant tensor:
#      x y z
#    x 1.728280 0.000000 0.000000 
#    y 0.000000 1.730210 0.000000 
#    z 0.000000 0.000000 1.766790 
# 
# From -- ./inp_files/58652.got.cif
#   From: 2010.05.17/outbox.cif.g08.bks.cpg/sg70_30_cif.got.tgz:58652.got - 2010.06.03 15:57:51.
