data_PCOD9514371
_publ_section_title
;
Structure prediction by ZEFSAII (Michael W. Deem and Ramdas Pophale) SiO2 
 PCOD9514371
Probable space group: F D D D
;
_chemical_formula_sum "Si O2"
_cell_formula_units_Z 160
_cell_length_a 22.959734
_cell_length_b 24.137862
_cell_length_c 13.476344
_cell_angle_alpha 90.000000
_cell_angle_beta 90.000000
_cell_angle_gamma 90.000000
_cell_volume 7468.574897
_symmetry_space_group_name_H-M "F D D D"
_symmetry_group_IT_number 70
_space_group.IT_coordinate_system_code '2'
_symmetry_cell_setting 'orthorhombic'
loop_
_space_group_symop_operation_xyz
x,y,z
1/4-x,1/4-y,z
x,1/4-y,1/4-z
1/4-x,y,1/4-z
-x,-y,-z
3/4+x,3/4+y,-z
-x,3/4+y,3/4+z
3/4+x,-y,3/4+z
x,1/2+y,1/2+z
1/4-x,3/4-y,1/2+z
x,3/4-y,3/4-z
1/4-x,1/2+y,3/4-z
-x,1/2-y,1/2-z
3/4+x,1/4+y,1/2-z
-x,1/4+y,1/4+z
3/4+x,1/2-y,1/4+z
1/2+x,y,1/2+z
3/4-x,1/4-y,1/2+z
1/2+x,1/4-y,3/4-z
3/4-x,y,3/4-z
1/2-x,-y,1/2-z
1/4+x,3/4+y,1/2-z
1/2-x,3/4+y,1/4+z
1/4+x,-y,1/4+z
1/2+x,1/2+y,z
3/4-x,3/4-y,z
1/2+x,3/4-y,1/4-z
3/4-x,1/2+y,1/4-z
1/2-x,1/2-y,-z
1/4+x,1/4+y,-z
1/2-x,1/4+y,3/4+z
1/4+x,1/2-y,3/4+z
loop_
_atom_site_type_symbol
_atom_site_label
_atom_site_fract_x
_atom_site_fract_y
_atom_site_fract_z
Si Si1 0.219400 0.857976 0.709872
Si Si2 0.001289 0.028014 0.391189
Si Si3 0.079568 0.548430 0.209706
Si Si4 0.125000 0.273302 0.125000
Si Si5 0.129588 0.375000 0.375000
Si Si6 0.628935 0.751190 0.912161
O O1 0.248928 0.906065 0.645992
O O2 0.272203 0.835267 0.776629
O O3 0.181026 0.812156 0.652003
O O4 0.171303 0.885453 0.780993
O O5 0.059035 0.003663 0.342069
O O6 0.000000 0.000000 0.500000
O O7 0.944613 0.009110 0.332517
O O8 0.125000 0.566938 0.125000
O O9 0.102251 0.537561 0.320960
O O10 0.107208 0.239187 0.223099
O O11 0.100594 0.434829 0.394447
#
# Coordination Sequence:
#
# PCOD9514371 Si02
#       6
#    32  32  32  16  16  32
#     4  11  23  39  65  96 134 172 219 269 339 403
#     4  12  22  42  61 100 136 167 211 275 339 395
#     4  12  24  41  70 101 131 172 217 281 343 402
#     4  10  24  46  66  85 132 181 224 274 308 396
#     4  10  18  40  61  90 122 169 208 274 320 382
#     4  11  24  41  65  93 131 171 219 273 328 395
#
# _framework density 21.423096999999999
#
# number of rings (size 3 to 8) (size 9 to 14) (size 15 to 20)
#    0.000    0.800    8.000    0.000    7.000    1.600 
#    3.600    0.000    0.000    1.200    0.000    0.000 
#    0.000    0.000    0.000    0.000    0.000    0.000 
#
# Total GULP energy -223054.067136 kJ/mol
# GULP energy per Si atom -5576.351678 kJ/mol
# Density = 2.137434 g / cm^3
# Si number density = 21.423097 Si / 1000 Ang^3
#
#
#
# Elastic Constant Matrix: (Units=GPa)
#
#
# Indices 1 2 3 4 5 6 
#
# 1 58.3527 3.3169 26.2289 0.0000 0.0000 0.0000
# 2 3.3169 45.0020 11.0993 0.0000 0.0000 0.0000
# 3 26.2289 11.0993 153.5270 0.0000 0.0000 0.0000
# 4 0.0000 0.0000 0.0000 7.1927 0.0000 0.0000
# 5 0.0000 0.0000 0.0000 0.0000 30.7032 0.0000
# 6 0.0000 0.0000 0.0000 0.0000 0.0000 12.2393
#
#
#
# Elastic Compliance Matrix: (Units=1/GPa)
#
#
# Indices 1 2 3 4 5 6 
#
# 1 0.018578 -0.000597 -0.003131 0.000000 0.000000 0.000000
# 2 -0.000597 0.022644 -0.001535 0.000000 0.000000 0.000000
# 3 -0.003131 -0.001535 0.007159 0.000000 0.000000 0.000000
# 4 0.000000 0.000000 0.000000 0.139031 0.000000 0.000000
# 5 0.000000 0.000000 0.000000 0.000000 0.032570 0.000000
# 6 0.000000 0.000000 0.000000 0.000000 0.000000 0.081704
#
#
# Mechanical properties :
#
#
# Convention : Reuss Voigt Hill
#
# Bulk Modulus (GPa) = 26.41615 37.57467 31.99541
# Shear Modulus (GPa) = 15.39264 24.44281 19.91773
#
# Velocity S-wave (km/s) = 2.68341 3.38147 3.05246
# Velocity P-wave (km/s) = 4.68597 5.72915 5.23362
#
# Compressibility (1/GPa) = 0.03785562
#
# Stress axis : x y z
#
# Youngs Moduli (GPa) = 53.82603 44.16211 139.67729
#
# Poissons Ratio (x) = 0.02637 0.43730
# Poissons Ratio (y) = 0.03214 0.21441
# Poissons Ratio (z) = 0.16852 0.06779
#
# Static dielectric constant tensor:
#      x y z
#    x 1.776120 0.000000 0.000000 
#    y 0.000000 1.833720 0.000000 
#    z 0.000000 0.000000 1.831100 
# 
# From -- ./inp_files/28908.got.cif
#   From: 2010.05.17/outbox.cif.g08.bks.cpg/sg70_15_cif.got.tgz:28908.got - 2010.06.03 15:57:51.
