data_PCOD9514721
_publ_section_title
;
Structure prediction by ZEFSAII (Michael W. Deem and Ramdas Pophale) SiO2 
 PCOD9514721
Probable space group: F D D D
;
_chemical_formula_sum "Si O2"
_cell_formula_units_Z 232
_cell_length_a 14.096353
_cell_length_b 23.171857
_cell_length_c 30.109041
_cell_angle_alpha 90.000000
_cell_angle_beta 90.000000
_cell_angle_gamma 90.000000
_cell_volume 9834.777286
_symmetry_space_group_name_H-M "F D D D"
_symmetry_group_IT_number 70
_space_group.IT_coordinate_system_code '2'
_symmetry_cell_setting 'orthorhombic'
loop_
_space_group_symop_operation_xyz
x,y,z
1/4-x,1/4-y,z
x,1/4-y,1/4-z
1/4-x,y,1/4-z
-x,-y,-z
3/4+x,3/4+y,-z
-x,3/4+y,3/4+z
3/4+x,-y,3/4+z
x,1/2+y,1/2+z
1/4-x,3/4-y,1/2+z
x,3/4-y,3/4-z
1/4-x,1/2+y,3/4-z
-x,1/2-y,1/2-z
3/4+x,1/4+y,1/2-z
-x,1/4+y,1/4+z
3/4+x,1/2-y,1/4+z
1/2+x,y,1/2+z
3/4-x,1/4-y,1/2+z
1/2+x,1/4-y,3/4-z
3/4-x,y,3/4-z
1/2-x,-y,1/2-z
1/4+x,3/4+y,1/2-z
1/2-x,3/4+y,1/4+z
1/4+x,-y,1/4+z
1/2+x,1/2+y,z
3/4-x,3/4-y,z
1/2+x,3/4-y,1/4-z
3/4-x,1/2+y,1/4-z
1/2-x,1/2-y,-z
1/4+x,1/4+y,-z
1/2-x,1/4+y,3/4+z
1/4+x,1/2-y,3/4+z
loop_
_atom_site_type_symbol
_atom_site_label
_atom_site_fract_x
_atom_site_fract_y
_atom_site_fract_z
Si Si1 0.483014 0.090572 0.255191
Si Si2 0.017471 0.750761 0.931338
Si Si3 0.472851 0.792078 0.710656
Si Si4 0.030012 0.881540 0.764465
Si Si5 0.833010 0.162867 0.831334
Si Si6 0.492580 0.530876 0.670556
Si Si7 0.625000 0.125000 0.125000
Si Si8 0.472953 0.565535 0.096506
O O1 0.543077 0.145844 0.267343
O O2 0.392021 0.118333 0.231228
O O3 0.518423 0.041152 0.222181
O O4 0.461010 0.053857 0.299231
O O5 0.129441 0.731124 0.935273
O O6 0.007170 0.807103 0.963164
O O7 0.987231 0.769867 0.882039
O O8 0.500000 0.750000 0.750000
O O9 0.571874 0.805036 0.686166
O O10 0.026656 0.883059 0.710321
O O11 0.984906 0.833079 0.797832
O O12 0.875000 0.131353 0.875000
O O13 0.767198 0.216847 0.844471
O O14 0.554978 0.581124 0.649300
O O15 0.382914 0.542476 0.661554
O O16 0.469547 0.625000 0.125000
#
# Coordination Sequence:
#
# PCOD9514721 Si02
#       8
#    32  32  32  32  32  32   8  32
#     4  10  20  30  45  60  89 131 167 206 247 291
#     4  11  18  30  46  62  86 127 168 208 248 287
#     4  11  20  30  42  61  95 128 165 208 242 285
#     4   9  19  33  45  64  91 121 163 208 245 297
#     4  11  20  29  42  62  88 124 161 201 246 290
#     4  11  20  28  38  60  89 124 170 204 236 276
#     4  12  24  20  36  56  84 124 172 196 232 268
#     4   9  19  32  44  60  88 121 163 208 236 289
#
# _framework density 23.589756000000001
#
# number of rings (size 3 to 8) (size 9 to 14) (size 15 to 20)
#    0.000    1.655    5.517    1.241    3.862    0.000 
#    0.000    0.000    0.000    0.000    0.000    3.862 
#    0.000    0.000    0.000    0.000    0.000    7.724 
#
# Total GULP energy -322891.156720 kJ/mol
# GULP energy per Si atom -5567.088909 kJ/mol
# Density = 2.353606 g / cm^3
# Si number density = 23.589756 Si / 1000 Ang^3
#
#
#
# Elastic Constant Matrix: (Units=GPa)
#
#
# Indices 1 2 3 4 5 6 
#
# 1 40.9899 3.5167 -6.1650 0.0000 0.0000 0.0000
# 2 3.5167 71.9232 49.9941 0.0000 0.0000 0.0000
# 3 -6.1650 49.9941 162.0597 0.0000 0.0000 0.0000
# 4 0.0000 0.0000 0.0000 37.5028 0.0000 0.0000
# 5 0.0000 0.0000 0.0000 0.0000 7.4853 0.0000
# 6 0.0000 0.0000 0.0000 0.0000 0.0000 4.8686
#
#
#
# Elastic Compliance Matrix: (Units=1/GPa)
#
#
# Indices 1 2 3 4 5 6 
#
# 1 0.024854 -0.002384 0.001681 0.000000 0.000000 0.000000
# 2 -0.002384 0.017928 -0.005621 0.000000 0.000000 0.000000
# 3 0.001681 -0.005621 0.007969 0.000000 0.000000 0.000000
# 4 0.000000 0.000000 0.000000 0.026665 0.000000 0.000000
# 5 0.000000 0.000000 0.000000 0.000000 0.133596 0.000000
# 6 0.000000 0.000000 0.000000 0.000000 0.000000 0.205400
#
#
# Mechanical properties :
#
#
# Convention : Reuss Voigt Hill
#
# Bulk Modulus (GPa) = 26.24544 41.07380 33.65962
# Shear Modulus (GPa) = 11.31840 25.14645 18.23243
#
# Velocity S-wave (km/s) = 2.19281 3.26849 2.78312
# Velocity P-wave (km/s) = 4.19061 5.62970 4.96260
#
# Compressibility (1/GPa) = 0.03810185
#
# Stress axis : x y z
#
# Youngs Moduli (GPa) = 40.23567 55.77997 125.49262
#
# Poissons Ratio (x) = 0.13295 -0.21093
# Poissons Ratio (y) = 0.09590 0.70542
# Poissons Ratio (z) = -0.06763 0.31355
#
# Static dielectric constant tensor:
#      x y z
#    x 1.908470 0.000000 0.000000 
#    y 0.000000 1.825240 0.000000 
#    z 0.000000 0.000000 2.069540 
# 
# From -- ./inp_files/66885.got.cif
#   From: 2010.05.17/outbox.cif.g08.bks.cpg/sg70_34_cif.got.tgz:66885.got - 2010.06.03 15:57:51.
