data_PCOD9514083
_publ_section_title
;
Structure prediction by ZEFSAII (Michael W. Deem and Ramdas Pophale) SiO2 
 PCOD9514083
Probable space group: F D D D
;
_chemical_formula_sum "Si O2"
_cell_formula_units_Z 208
_cell_length_a 29.866693
_cell_length_b 19.842946
_cell_length_c 18.823808
_cell_angle_alpha 90.000000
_cell_angle_beta 90.000000
_cell_angle_gamma 90.000000
_cell_volume 11155.801365
_symmetry_space_group_name_H-M "F D D D"
_symmetry_group_IT_number 70
_space_group.IT_coordinate_system_code '2'
_symmetry_cell_setting 'orthorhombic'
loop_
_space_group_symop_operation_xyz
x,y,z
1/4-x,1/4-y,z
x,1/4-y,1/4-z
1/4-x,y,1/4-z
-x,-y,-z
3/4+x,3/4+y,-z
-x,3/4+y,3/4+z
3/4+x,-y,3/4+z
x,1/2+y,1/2+z
1/4-x,3/4-y,1/2+z
x,3/4-y,3/4-z
1/4-x,1/2+y,3/4-z
-x,1/2-y,1/2-z
3/4+x,1/4+y,1/2-z
-x,1/4+y,1/4+z
3/4+x,1/2-y,1/4+z
1/2+x,y,1/2+z
3/4-x,1/4-y,1/2+z
1/2+x,1/4-y,3/4-z
3/4-x,y,3/4-z
1/2-x,-y,1/2-z
1/4+x,3/4+y,1/2-z
1/2-x,3/4+y,1/4+z
1/4+x,-y,1/4+z
1/2+x,1/2+y,z
3/4-x,3/4-y,z
1/2+x,3/4-y,1/4-z
3/4-x,1/2+y,1/4-z
1/2-x,1/2-y,-z
1/4+x,1/4+y,-z
1/2-x,1/4+y,3/4+z
1/4+x,1/2-y,3/4+z
loop_
_atom_site_type_symbol
_atom_site_label
_atom_site_fract_x
_atom_site_fract_y
_atom_site_fract_z
Si Si1 0.335351 0.991839 0.160318
Si Si2 0.198347 0.125000 0.125000
Si Si3 0.457819 0.740422 0.306436
Si Si4 0.770552 0.361958 0.632779
Si Si5 0.305841 0.645745 0.264083
Si Si6 0.823922 0.302042 0.231076
Si Si7 0.890197 0.625000 0.125000
Si Si8 0.625000 0.926985 0.625000
O O1 0.309948 0.943268 0.105168
O O2 0.377049 0.954240 0.197121
O O3 0.298741 0.003863 0.222589
O O4 0.357629 0.060663 0.133542
O O5 0.222956 0.191133 0.095087
O O6 0.175507 0.153074 0.197267
O O7 0.483703 0.675791 0.334401
O O8 0.407079 0.725927 0.331288
O O9 0.741737 0.378076 0.703638
O O10 0.792452 0.417885 0.581501
O O11 0.306219 0.727442 0.253042
O O12 0.326520 0.616943 0.191918
O O13 0.344290 0.634045 0.322941
#
# Coordination Sequence:
#
# PCOD9514083 Si02
#       8
#    32  16  32  32  32  32  16  16
#     4  11  22  36  53  85 116 151 198 233 289 346
#     4  12  20  30  56  81 124 158 176 214 275 369
#     4  11  20  32  52  84 122 153 185 215 283 352
#     4  11  23  35  54  86 122 149 192 242 276 347
#     4  10  22  42  57  83 113 153 201 238 291 336
#     4  11  22  35  55  84 119 159 186 226 291 353
#     4  10  22  41  64  77 109 161 202 240 289 345
#     4  10  16  35  54  76 112 150 177 226 278 354
#
# _framework density 18.645007
#
# number of rings (size 3 to 8) (size 9 to 14) (size 15 to 20)
#    0.000    1.231    7.692    0.923    0.000    4.000 
#    0.000    3.077    0.000    0.000    0.000    1.077 
#    0.000    0.000    0.000    0.000    0.000    0.000 
#
# Total GULP energy -289707.253880 kJ/mol
# GULP energy per Si atom -5571.293344 kJ/mol
# Density = 1.860257 g / cm^3
# Si number density = 18.645007 Si / 1000 Ang^3
#
#
#
# Elastic Constant Matrix: (Units=GPa)
#
#
# Indices 1 2 3 4 5 6 
#
# 1 67.9024 19.7462 39.5105 0.0000 0.0000 0.0000
# 2 19.7462 51.1379 23.3128 0.0000 0.0000 0.0000
# 3 39.5105 23.3128 105.3838 0.0000 0.0000 0.0000
# 4 0.0000 0.0000 0.0000 33.5539 0.0000 0.0000
# 5 0.0000 0.0000 0.0000 0.0000 38.5727 0.0000
# 6 0.0000 0.0000 0.0000 0.0000 0.0000 29.9479
#
#
#
# Elastic Compliance Matrix: (Units=1/GPa)
#
#
# Indices 1 2 3 4 5 6 
#
# 1 0.019820 -0.004744 -0.006381 0.000000 0.000000 0.000000
# 2 -0.004744 0.022884 -0.003284 0.000000 0.000000 0.000000
# 3 -0.006381 -0.003284 0.012608 0.000000 0.000000 0.000000
# 4 0.000000 0.000000 0.000000 0.029803 0.000000 0.000000
# 5 0.000000 0.000000 0.000000 0.000000 0.025925 0.000000
# 6 0.000000 0.000000 0.000000 0.000000 0.000000 0.033391
#
#
# Mechanical properties :
#
#
# Convention : Reuss Voigt Hill
#
# Bulk Modulus (GPa) = 37.74517 43.28480 40.51498
# Shear Modulus (GPa) = 27.46047 29.87185 28.66616
#
# Velocity S-wave (km/s) = 3.84188 4.00701 3.92531
# Velocity P-wave (km/s) = 6.32203 6.68385 6.50546
#
# Compressibility (1/GPa) = 0.02649346
#
# Stress axis : x y z
#
# Youngs Moduli (GPa) = 50.45488 43.69912 79.31453
#
# Poissons Ratio (x) = 0.20731 0.50613
# Poissons Ratio (y) = 0.23936 0.26044
# Poissons Ratio (z) = 0.32197 0.14349
#
# Static dielectric constant tensor:
#      x y z
#    x 1.722340 0.000000 0.000000 
#    y 0.000000 1.663070 0.000000 
#    z 0.000000 0.000000 1.729070 
# 
# From -- ./inp_files/46975.got.cif
#   From: 2010.05.17/outbox.cif.g08.bks.cpg/sg70_24_cif.got.tgz:46975.got - 2010.06.03 15:57:51.
