data_PCOD9514634
_publ_section_title
;
Structure prediction by ZEFSAII (Michael W. Deem and Ramdas Pophale) SiO2 
 PCOD9514634
Probable space group: F D D D
;
_chemical_formula_sum "Si O2"
_cell_formula_units_Z 208
_cell_length_a 29.112597
_cell_length_b 19.069180
_cell_length_c 18.483216
_cell_angle_alpha 90.000000
_cell_angle_beta 90.000000
_cell_angle_gamma 90.000000
_cell_volume 10261.019327
_symmetry_space_group_name_H-M "F D D D"
_symmetry_group_IT_number 70
_space_group.IT_coordinate_system_code '2'
_symmetry_cell_setting 'orthorhombic'
loop_
_space_group_symop_operation_xyz
x,y,z
1/4-x,1/4-y,z
x,1/4-y,1/4-z
1/4-x,y,1/4-z
-x,-y,-z
3/4+x,3/4+y,-z
-x,3/4+y,3/4+z
3/4+x,-y,3/4+z
x,1/2+y,1/2+z
1/4-x,3/4-y,1/2+z
x,3/4-y,3/4-z
1/4-x,1/2+y,3/4-z
-x,1/2-y,1/2-z
3/4+x,1/4+y,1/2-z
-x,1/4+y,1/4+z
3/4+x,1/2-y,1/4+z
1/2+x,y,1/2+z
3/4-x,1/4-y,1/2+z
1/2+x,1/4-y,3/4-z
3/4-x,y,3/4-z
1/2-x,-y,1/2-z
1/4+x,3/4+y,1/2-z
1/2-x,3/4+y,1/4+z
1/4+x,-y,1/4+z
1/2+x,1/2+y,z
3/4-x,3/4-y,z
1/2+x,3/4-y,1/4-z
3/4-x,1/2+y,1/4-z
1/2-x,1/2-y,-z
1/4+x,1/4+y,-z
1/2-x,1/4+y,3/4+z
1/4+x,1/2-y,3/4+z
loop_
_atom_site_type_symbol
_atom_site_label
_atom_site_fract_x
_atom_site_fract_y
_atom_site_fract_z
Si Si1 0.035611 0.548323 0.102669
Si Si2 0.810498 0.228371 0.034143
Si Si3 0.243232 0.467947 0.642180
Si Si4 0.677522 0.103187 0.394020
Si Si5 0.205873 0.410574 0.779078
Si Si6 0.492026 0.977526 0.243412
Si Si7 0.124715 0.375000 0.875000
O O1 0.054104 0.625000 0.125000
O O2 0.018571 0.512926 0.176810
O O3 0.989218 0.555041 0.053653
O O4 0.065415 0.497188 0.050857
O O5 0.814749 0.303373 0.074686
O O6 0.845688 0.176704 0.074181
O O7 0.288660 0.419578 0.642203
O O8 0.206216 0.434969 0.696150
O O9 0.257279 0.541506 0.678790
O O10 0.228758 0.473348 0.559555
O O11 0.625000 0.125000 0.399646
O O12 0.696761 0.058171 0.460937
O O13 0.224136 0.331307 0.776218
O O14 0.158475 0.416617 0.821166
#
# Coordination Sequence:
#
# PCOD9514634 Si02
#       7
#    32  32  32  32  32  32  16
#     4  10  20  40  64  91 124 171 218 261 323 398
#     4  10  22  37  63  93 124 168 217 265 327 383
#     4  10  19  38  64  90 123 164 213 254 321 401
#     4  10  21  36  61  94 121 163 211 261 318 377
#     4  10  21  35  64  89 116 168 211 253 325 386
#     4  10  20  37  64  91 122 165 209 258 324 394
#     4  12  20  40  64  90 133 168 219 286 314 382
#
# _framework density 20.270890999999999
#
# number of rings (size 3 to 8) (size 9 to 14) (size 15 to 20)
#    0.000    1.846    2.308    1.846    0.000    1.231 
#    0.000    0.769    3.385   26.769    0.000    0.000 
#    0.000    0.000    0.000    0.000    0.000    0.000 
#
# Total GULP energy -290140.927465 kJ/mol
# GULP energy per Si atom -5579.633220 kJ/mol
# Density = 2.022475 g / cm^3
# Si number density = 20.270891 Si / 1000 Ang^3
#
#
#
# Elastic Constant Matrix: (Units=GPa)
#
#
# Indices 1 2 3 4 5 6 
#
# 1 56.1191 6.7188 22.0626 0.0000 0.0000 0.0000
# 2 6.7188 59.8275 33.2486 0.0000 0.0000 0.0000
# 3 22.0626 33.2486 157.4004 0.0000 0.0000 0.0000
# 4 0.0000 0.0000 0.0000 32.9677 0.0000 0.0000
# 5 0.0000 0.0000 0.0000 0.0000 19.8016 0.0000
# 6 0.0000 0.0000 0.0000 0.0000 0.0000 13.0827
#
#
#
# Elastic Compliance Matrix: (Units=1/GPa)
#
#
# Indices 1 2 3 4 5 6 
#
# 1 0.018887 -0.000736 -0.002492 0.000000 0.000000 0.000000
# 2 -0.000736 0.018967 -0.003903 0.000000 0.000000 0.000000
# 3 -0.002492 -0.003903 0.007527 0.000000 0.000000 0.000000
# 4 0.000000 0.000000 0.000000 0.030333 0.000000 0.000000
# 5 0.000000 0.000000 0.000000 0.000000 0.050501 0.000000
# 6 0.000000 0.000000 0.000000 0.000000 0.000000 0.076437
#
#
# Mechanical properties :
#
#
# Convention : Reuss Voigt Hill
#
# Bulk Modulus (GPa) = 32.13575 44.15633 38.14604
# Shear Modulus (GPa) = 21.99869 27.25821 24.62845
#
# Velocity S-wave (km/s) = 3.29787 3.67099 3.48942
# Velocity P-wave (km/s) = 5.51260 6.30862 5.92399
#
# Compressibility (1/GPa) = 0.03111799
#
# Stress axis : x y z
#
# Youngs Moduli (GPa) = 52.94643 52.72428 132.85493
#
# Poissons Ratio (x) = 0.03882 0.33105
# Poissons Ratio (y) = 0.03898 0.51856
# Poissons Ratio (z) = 0.13193 0.20580
#
# Static dielectric constant tensor:
#      x y z
#    x 1.697610 0.000000 0.000000 
#    y 0.000000 1.762140 0.000000 
#    z 0.000000 0.000000 1.760400 
# 
# From -- ./inp_files/39872.got.cif
#   From: 2010.05.17/outbox.cif.g08.bks.cpg/sg70_20_cif.got.tgz:39872.got - 2010.06.03 15:57:51.
