data_PCOD9514513
_publ_section_title
;
Structure prediction by ZEFSAII (Michael W. Deem and Ramdas Pophale) SiO2 
 PCOD9514513
Probable space group: F D D D
;
_chemical_formula_sum "Si O2"
_cell_formula_units_Z 136
_cell_length_a 30.017920
_cell_length_b 9.694237
_cell_length_c 24.778890
_cell_angle_alpha 90.000000
_cell_angle_beta 90.000000
_cell_angle_gamma 90.000000
_cell_volume 7210.677574
_symmetry_space_group_name_H-M "F D D D"
_symmetry_group_IT_number 70
_space_group.IT_coordinate_system_code '2'
_symmetry_cell_setting 'orthorhombic'
loop_
_space_group_symop_operation_xyz
x,y,z
1/4-x,1/4-y,z
x,1/4-y,1/4-z
1/4-x,y,1/4-z
-x,-y,-z
3/4+x,3/4+y,-z
-x,3/4+y,3/4+z
3/4+x,-y,3/4+z
x,1/2+y,1/2+z
1/4-x,3/4-y,1/2+z
x,3/4-y,3/4-z
1/4-x,1/2+y,3/4-z
-x,1/2-y,1/2-z
3/4+x,1/4+y,1/2-z
-x,1/4+y,1/4+z
3/4+x,1/2-y,1/4+z
1/2+x,y,1/2+z
3/4-x,1/4-y,1/2+z
1/2+x,1/4-y,3/4-z
3/4-x,y,3/4-z
1/2-x,-y,1/2-z
1/4+x,3/4+y,1/2-z
1/2-x,3/4+y,1/4+z
1/4+x,-y,1/4+z
1/2+x,1/2+y,z
3/4-x,3/4-y,z
1/2+x,3/4-y,1/4-z
3/4-x,1/2+y,1/4-z
1/2-x,1/2-y,-z
1/4+x,1/4+y,-z
1/2-x,1/4+y,3/4+z
1/4+x,1/2-y,3/4+z
loop_
_atom_site_type_symbol
_atom_site_label
_atom_site_fract_x
_atom_site_fract_y
_atom_site_fract_z
Si Si1 0.877403 0.721542 0.544094
Si Si2 0.733858 0.626209 0.306880
Si Si3 0.375000 0.375000 0.875000
Si Si4 0.947749 0.125000 0.625000
Si Si5 0.548083 0.875000 0.375000
Si Si6 0.424964 0.516332 0.971922
O O1 0.834336 0.695114 0.580736
O O2 0.919350 0.707502 0.584720
O O3 0.885875 0.598644 0.502230
O O4 0.875000 0.875000 0.520507
O O5 0.724801 0.758192 0.343400
O O6 0.729645 0.487110 0.342477
O O7 0.783557 0.621525 0.283863
O O8 0.696334 0.602873 0.260373
O O9 0.406325 0.461674 0.915588
#
# Coordination Sequence:
#
# PCOD9514513 Si02
#       6
#    32  32   8  16  16  32
#     4  10  19  35  57  91 114 151 189 248 286 350
#     4  10  20  39  59  93 115 151 189 251 290 352
#     4  12  22  44  60  84 104 176 200 234 266 378
#     4  11  20  34  65  93 116 146 198 239 303 342
#     4   9  17  32  62  83 120 146 190 237 296 342
#     4  10  23  38  62  80 123 152 203 232 292 342
#
# _framework density 18.860918999999999
#
# number of rings (size 3 to 8) (size 9 to 14) (size 15 to 20)
#    0.000    1.882    2.353    2.118    0.000    0.000 
#    4.235    1.176    0.000    0.000    0.000    0.000 
#    0.000    0.000    0.000    0.000    0.000    0.000 
#
# Total GULP energy -189696.174203 kJ/mol
# GULP energy per Si atom -5579.299241 kJ/mol
# Density = 1.881799 g / cm^3
# Si number density = 18.860919 Si / 1000 Ang^3
#
#
#
# Elastic Constant Matrix: (Units=GPa)
#
#
# Indices 1 2 3 4 5 6 
#
# 1 56.1661 40.3580 29.0575 0.0000 0.0000 0.0000
# 2 40.3580 87.1846 44.4387 0.0000 0.0000 0.0000
# 3 29.0575 44.4387 113.2582 0.0000 0.0000 0.0000
# 4 0.0000 0.0000 0.0000 44.7496 0.0000 0.0000
# 5 0.0000 0.0000 0.0000 0.0000 -7.7482 0.0000
# 6 0.0000 0.0000 0.0000 0.0000 0.0000 14.3783
#
#
#
# Elastic Compliance Matrix: (Units=1/GPa)
#
#
# Indices 1 2 3 4 5 6 
#
# 1 0.027256 -0.011316 -0.002553 0.000000 0.000000 0.000000
# 2 -0.011316 0.019035 -0.004566 0.000000 0.000000 0.000000
# 3 -0.002553 -0.004566 0.011276 0.000000 0.000000 0.000000
# 4 0.000000 0.000000 0.000000 0.022347 0.000000 0.000000
# 5 0.000000 0.000000 0.000000 0.000000 -0.129062 0.000000
# 6 0.000000 0.000000 0.000000 0.000000 0.000000 0.069549
#
#
# Mechanical properties :
#
#
# Convention : Reuss Voigt Hill
#
# Bulk Modulus (GPa) = 48.31268 53.81303 51.06286
# Shear Modulus (GPa) = 77.92036 19.79291 48.85663
#
# Velocity S-wave (km/s) = 6.43450 3.24298 5.09508
# Velocity P-wave (km/s) = 8.99303 6.52809 7.85782
#
# Compressibility (1/GPa) = 0.02069850
#
# Stress axis : x y z
#
# Youngs Moduli (GPa) = 36.68935 52.53472 88.68599
#
# Poissons Ratio (x) = 0.59446 0.22641
# Poissons Ratio (y) = 0.41516 0.40490
# Poissons Ratio (z) = 0.09366 0.23985
#
# Static dielectric constant tensor:
#      x y z
#    x 1.659210 0.000000 0.000000 
#    y 0.000000 1.640750 0.000000 
#    z 0.000000 0.000000 1.682650 
# 
# From -- ./inp_files/19258.got.cif
#   From: 2010.05.17/outbox.cif.g08.bks.cpg/sg70_10_cif.got.tgz:19258.got - 2010.06.03 15:57:51.
