data_PCOD9514045
_publ_section_title
;
Structure prediction by ZEFSAII (Michael W. Deem and Ramdas Pophale) SiO2 
 PCOD9514045
Probable space group: F D D D
;
_chemical_formula_sum "Si O2"
_cell_formula_units_Z 240
_cell_length_a 25.557335
_cell_length_b 15.281116
_cell_length_c 28.498650
_cell_angle_alpha 90.000000
_cell_angle_beta 90.000000
_cell_angle_gamma 90.000000
_cell_volume 11129.993887
_symmetry_space_group_name_H-M "F D D D"
_symmetry_group_IT_number 70
_space_group.IT_coordinate_system_code '2'
_symmetry_cell_setting 'orthorhombic'
loop_
_space_group_symop_operation_xyz
x,y,z
1/4-x,1/4-y,z
x,1/4-y,1/4-z
1/4-x,y,1/4-z
-x,-y,-z
3/4+x,3/4+y,-z
-x,3/4+y,3/4+z
3/4+x,-y,3/4+z
x,1/2+y,1/2+z
1/4-x,3/4-y,1/2+z
x,3/4-y,3/4-z
1/4-x,1/2+y,3/4-z
-x,1/2-y,1/2-z
3/4+x,1/4+y,1/2-z
-x,1/4+y,1/4+z
3/4+x,1/2-y,1/4+z
1/2+x,y,1/2+z
3/4-x,1/4-y,1/2+z
1/2+x,1/4-y,3/4-z
3/4-x,y,3/4-z
1/2-x,-y,1/2-z
1/4+x,3/4+y,1/2-z
1/2-x,3/4+y,1/4+z
1/4+x,-y,1/4+z
1/2+x,1/2+y,z
3/4-x,3/4-y,z
1/2+x,3/4-y,1/4-z
3/4-x,1/2+y,1/4-z
1/2-x,1/2-y,-z
1/4+x,1/4+y,-z
1/2-x,1/4+y,3/4+z
1/4+x,1/2-y,3/4+z
loop_
_atom_site_type_symbol
_atom_site_label
_atom_site_fract_x
_atom_site_fract_y
_atom_site_fract_z
Si Si1 0.206004 0.820671 0.832648
Si Si2 0.887409 0.287750 0.122229
Si Si3 0.980393 0.684504 0.482807
Si Si4 0.740321 0.957510 0.908611
Si Si5 0.414709 0.196671 0.912623
Si Si6 0.875590 0.627272 0.509055
Si Si7 0.125000 0.625000 0.701234
Si Si8 0.307387 0.458313 0.717513
O O1 0.232778 0.875000 0.875000
O O2 0.163232 0.761977 0.859857
O O3 0.241707 0.755811 0.800969
O O4 0.169893 0.881938 0.798313
O O5 0.875000 0.375000 0.093311
O O6 0.928933 0.225889 0.097197
O O7 0.918781 0.321203 0.168223
O O8 0.999961 0.696552 0.536239
O O9 0.917738 0.695068 0.487554
O O10 0.999549 0.585131 0.468012
O O11 0.752458 0.875000 0.875000
O O12 0.776131 0.040961 0.894900
O O13 0.375000 0.156874 0.875000
O O14 0.405875 0.155120 0.963254
O O15 0.397290 0.297135 0.920804
O O16 0.918051 0.556092 0.529736
O O17 0.083446 0.665550 0.737082
#
# Coordination Sequence:
#
# PCOD9514045 Si02
#       8
#    32  32  32  32  32  32  16  32
#     4  11  22  42  62  92 132 172 226 291 336 393
#     4  11  21  37  59  88 122 162 219 274 331 395
#     4  12  21  38  60  91 127 178 221 267 340 413
#     4  12  24  37  57  94 133 170 212 261 340 419
#     4  11  22  32  47  81 132 175 200 241 311 406
#     4  10  22  35  57  89 132 173 219 267 330 411
#     4  10  15  32  46  70 120 170 204 236 291 380
#     4  10  17  32  54  82 121 164 208 258 315 395
#
# _framework density 21.563354
#
# number of rings (size 3 to 8) (size 9 to 14) (size 15 to 20)
#    0.000    1.067    4.667    5.000    3.733    0.000 
#    0.000    0.000    0.000    0.800    3.467    0.000 
#    0.000    0.000    0.000    0.000    0.000    0.000 
#
# Total GULP energy -334229.724462 kJ/mol
# GULP energy per Si atom -5570.495408 kJ/mol
# Density = 2.151427 g / cm^3
# Si number density = 21.563354 Si / 1000 Ang^3
#
#
#
# Elastic Constant Matrix: (Units=GPa)
#
#
# Indices 1 2 3 4 5 6 
#
# 1 77.2620 26.3668 27.7197 0.0000 0.0000 0.0000
# 2 26.3668 28.2823 41.4917 0.0000 0.0000 0.0000
# 3 27.7197 41.4917 121.8571 0.0000 0.0000 0.0000
# 4 0.0000 0.0000 0.0000 42.4120 0.0000 0.0000
# 5 0.0000 0.0000 0.0000 0.0000 35.2672 0.0000
# 6 0.0000 0.0000 0.0000 0.0000 0.0000 27.4533
#
#
#
# Elastic Compliance Matrix: (Units=1/GPa)
#
#
# Indices 1 2 3 4 5 6 
#
# 1 0.019720 -0.023584 0.003545 0.000000 0.000000 0.000000
# 2 -0.023584 0.098855 -0.028295 0.000000 0.000000 0.000000
# 3 0.003545 -0.028295 0.017034 0.000000 0.000000 0.000000
# 4 0.000000 0.000000 0.000000 0.023578 0.000000 0.000000
# 5 0.000000 0.000000 0.000000 0.000000 0.028355 0.000000
# 6 0.000000 0.000000 0.000000 0.000000 0.000000 0.036426
#
#
# Mechanical properties :
#
#
# Convention : Reuss Voigt Hill
#
# Bulk Modulus (GPa) = 25.68057 46.50643 36.09350
# Shear Modulus (GPa) = 14.98728 29.81471 22.40100
#
# Velocity S-wave (km/s) = 2.63921 3.72244 3.22661
# Velocity P-wave (km/s) = 4.60678 6.33164 5.53679
#
# Compressibility (1/GPa) = 0.03893994
#
# Stress axis : x y z
#
# Youngs Moduli (GPa) = 50.71053 10.11585 58.70530
#
# Poissons Ratio (x) = 0.23857 -0.20808
# Poissons Ratio (y) = 1.19597 1.66105
# Poissons Ratio (z) = -0.17975 0.28622
#
# Static dielectric constant tensor:
#      x y z
#    x 1.873780 0.000000 0.000000 
#    y 0.000000 1.808820 0.000000 
#    z 0.000000 0.000000 1.804420 
# 
# From -- ./inp_files/61878.got.cif
#   From: 2010.05.17/outbox.cif.g08.bks.cpg/sg70_31_cif.got.tgz:61878.got - 2010.06.03 15:57:51.
