data_PCOD9514022
_publ_section_title
;
Structure prediction by ZEFSAII (Michael W. Deem and Ramdas Pophale) SiO2 
 PCOD9514022
Probable space group: F M M M
;
_chemical_formula_sum "Si O2"
_cell_formula_units_Z 32
_cell_length_a 21.000000
_cell_length_b 21.000000
_cell_length_c 15.000000
_cell_angle_alpha 90.000000
_cell_angle_beta 90.000000
_cell_angle_gamma 90.000000
_cell_volume 6615.000000
_symmetry_space_group_name_H-M "F M M M"
_symmetry_group_IT_number 69
_symmetry_cell_setting 'orthorhombic'
loop_
_space_group_symop_operation_xyz
x,y,z
-x,-y,z
x,-y,-z
-x,y,-z
-x,-y,-z
x,y,-z
-x,y,z
x,-y,z
x,1/2+y,1/2+z
-x,1/2-y,1/2+z
x,1/2-y,1/2-z
-x,1/2+y,1/2-z
-x,1/2-y,1/2-z
x,1/2+y,1/2-z
-x,1/2+y,1/2+z
x,1/2-y,1/2+z
1/2+x,y,1/2+z
1/2-x,-y,1/2+z
1/2+x,-y,1/2-z
1/2-x,y,1/2-z
1/2-x,-y,1/2-z
1/2+x,y,1/2-z
1/2-x,y,1/2+z
1/2+x,-y,1/2+z
1/2+x,1/2+y,z
1/2-x,1/2-y,z
1/2+x,1/2-y,-z
1/2-x,1/2+y,-z
1/2-x,1/2-y,-z
1/2+x,1/2+y,-z
1/2-x,1/2+y,z
1/2+x,1/2-y,z
loop_
_atom_site_type_symbol
_atom_site_label
_atom_site_fract_x
_atom_site_fract_y
_atom_site_fract_z
Si Si1 0.074559 0.868582 0.818445
Si Si2 0.928116 0.287583 0.500000
Si Si3 0.692188 0.201720 0.000000
Si Si4 0.127445 0.000000 0.893876
Si Si5 0.281616 0.500000 0.392377
Si Si6 0.811180 0.133643 0.311510
O O1 0.096962 0.938604 0.848161
O O2 0.124603 0.848256 0.741911
O O3 0.000000 0.866875 0.791311
O O4 0.080713 0.828098 0.909550
O O5 0.875888 0.234238 0.500000
O O6 0.000000 0.262926 0.500000
O O7 0.750000 0.250000 0.000000
O O8 0.696905 0.165160 0.092598
O O9 0.204352 0.000000 0.885197
O O10 0.113262 0.000000 0.000000
O O11 0.295805 0.500000 0.500000
O O12 0.309088 0.559842 0.339238
O O13 0.750000 0.147981 0.250000
#
# Coordination Sequence:
#
# PCOD9514022 Si02
#       6
#    32  16  16  16  16  32
#     4  11  23  39  65  98 129 165 211 260 313 376
#     4  10  24  45  64  91 130 168 211 264 318 363
#     4  12  28  43  65  93 125 165 219 269 304 364
#     4  11  20  34  68  98 133 165 203 254 324 378
#     4  11  22  40  67  97 129 167 197 255 326 387
#     4  12  24  43  67  94 127 166 207 257 321 377
#
# _framework density 4.837491
#
# number of rings (size 3 to 8) (size 9 to 14) (size 15 to 20)
#    0.000    0.750    5.000    3.000    0.000    5.000 
#    0.000    2.500    0.000    0.750    0.000    0.000 
#    0.000    0.000    0.000    0.000    0.000    0.000 
#
# Total GULP energy -178828.233811 kJ/mol
# GULP energy per Si atom -5588.382307 kJ/mol
# Density = 0.482648 g / cm^3
# Si number density = 4.837491 Si / 1000 Ang^3
#
#
#
# Elastic Constant Matrix: (Units=GPa)
#
#
# Indices 1 2 3 4 5 6 
#
# 1 106.2902 36.2474 85.2802 0.0000 0.0000 0.0000
# 2 36.2474 66.0452 41.1644 0.0000 0.0000 0.0000
# 3 85.2802 41.1644 163.3887 0.0000 0.0000 0.0000
# 4 0.0000 0.0000 0.0000 134.9276 0.0000 0.0000
# 5 0.0000 0.0000 0.0000 0.0000 41.9799 0.0000
# 6 0.0000 0.0000 0.0000 0.0000 0.0000 11.4129
#
#
#
# Elastic Compliance Matrix: (Units=1/GPa)
#
#
# Indices 1 2 3 4 5 6 
#
# 1 0.017282 -0.004582 -0.007866 0.000000 0.000000 0.000000
# 2 -0.004582 0.019177 -0.002440 0.000000 0.000000 0.000000
# 3 -0.007866 -0.002440 0.010841 0.000000 0.000000 0.000000
# 4 0.000000 0.000000 0.000000 0.007411 0.000000 0.000000
# 5 0.000000 0.000000 0.000000 0.000000 0.023821 0.000000
# 6 0.000000 0.000000 0.000000 0.000000 0.000000 0.087620
#
#
# Mechanical properties :
#
#
# Convention : Reuss Voigt Hill
#
# Bulk Modulus (GPa) = 57.06578 73.45644 65.26111
# Shear Modulus (GPa) = 24.78095 49.19956 36.99025
#
# Velocity S-wave (km/s) = 3.58253 5.04791 4.37698
# Velocity P-wave (km/s) = 6.83141 8.48644 7.70350
#
# Compressibility (1/GPa) = 0.01752364
#
# Stress axis : x y z
#
# Youngs Moduli (GPa) = 57.86454 52.14691 92.24651
#
# Poissons Ratio (x) = 0.23895 0.72558
# Poissons Ratio (y) = 0.26515 0.22506
# Poissons Ratio (z) = 0.45515 0.12722
#
# Static dielectric constant tensor:
#      x y z
#    x 1.640040 0.000000 0.000000 
#    y 0.000000 1.713960 0.000000 
#    z 0.000000 0.000000 1.699330 
# 
# From -- ./inp_files/16401.got.cif
#   From: 2010.05.17/outbox.ucp.g08.bks.cvg/sg69_9_cif.got.tgz:16401.got - 2010.06.11 16:51:34.
