data_PCOD9514127
_publ_section_title
;
Structure prediction by ZEFSAII (Michael W. Deem and Ramdas Pophale) SiO2 
 PCOD9514127
Probable space group: F D D D
;
_chemical_formula_sum "Si O2"
_cell_formula_units_Z 80
_cell_length_a 15.313683
_cell_length_b 37.962851
_cell_length_c 7.097371
_cell_angle_alpha 90.000000
_cell_angle_beta 90.000000
_cell_angle_gamma 90.000000
_cell_volume 4126.064197
_symmetry_space_group_name_H-M "F D D D"
_symmetry_group_IT_number 70
_space_group.IT_coordinate_system_code '2'
_symmetry_cell_setting 'orthorhombic'
loop_
_space_group_symop_operation_xyz
x,y,z
1/4-x,1/4-y,z
x,1/4-y,1/4-z
1/4-x,y,1/4-z
-x,-y,-z
3/4+x,3/4+y,-z
-x,3/4+y,3/4+z
3/4+x,-y,3/4+z
x,1/2+y,1/2+z
1/4-x,3/4-y,1/2+z
x,3/4-y,3/4-z
1/4-x,1/2+y,3/4-z
-x,1/2-y,1/2-z
3/4+x,1/4+y,1/2-z
-x,1/4+y,1/4+z
3/4+x,1/2-y,1/4+z
1/2+x,y,1/2+z
3/4-x,1/4-y,1/2+z
1/2+x,1/4-y,3/4-z
3/4-x,y,3/4-z
1/2-x,-y,1/2-z
1/4+x,3/4+y,1/2-z
1/2-x,3/4+y,1/4+z
1/4+x,-y,1/4+z
1/2+x,1/2+y,z
3/4-x,3/4-y,z
1/2+x,3/4-y,1/4-z
3/4-x,1/2+y,1/4-z
1/2-x,1/2-y,-z
1/4+x,1/4+y,-z
1/2-x,1/4+y,3/4+z
1/4+x,1/2-y,3/4+z
loop_
_atom_site_type_symbol
_atom_site_label
_atom_site_fract_x
_atom_site_fract_y
_atom_site_fract_z
Si Si1 0.246703 0.453760 0.613282
Si Si2 0.634785 0.333308 0.906382
Si Si3 0.125000 0.231541 0.125000
O O1 0.189031 0.436337 0.781997
O O2 0.225922 0.430138 0.432830
O O3 0.204415 0.492165 0.573764
O O4 0.342131 0.459078 0.698014
O O5 0.626342 0.375000 0.875000
O O6 0.625000 0.324992 0.125000
#
# Coordination Sequence:
#
# PCOD9514127 Si02
#       3
#    32  32  16
#     4   9  18  32  55  74 107 140 177 233 263 342
#     4  10  17  31  52  77 102 142 186 218 277 329
#     4   8  16  36  51  76 106 142 178 218 290 306
#
# _framework density 19.388938
#
# number of rings (size 3 to 8) (size 9 to 14) (size 15 to 20)
#    0.000    3.200    4.000    0.000    0.000    0.000 
#    0.000   35.000    0.000    2.400    0.000    0.000 
#    0.000    0.000    0.000    0.000    0.000    0.000 
#
# Total GULP energy -111368.721793 kJ/mol
# GULP energy per Si atom -5568.436090 kJ/mol
# Density = 1.934481 g / cm^3
# Si number density = 19.388938 Si / 1000 Ang^3
#
#
#
# Elastic Constant Matrix: (Units=GPa)
#
#
# Indices 1 2 3 4 5 6 
#
# 1 60.0552 29.3578 40.7729 0.0000 0.0000 0.0000
# 2 29.3578 89.0424 44.0991 0.0000 0.0000 0.0000
# 3 40.7729 44.0991 168.9229 0.0001 0.0001 -0.0001
# 4 0.0000 0.0000 0.0001 8.4427 -0.0001 0.0001
# 5 0.0000 0.0000 0.0001 -0.0001 39.3878 0.0001
# 6 0.0000 0.0000 -0.0001 0.0001 0.0001 -12.6303
#
#
#
# Elastic Compliance Matrix: (Units=1/GPa)
#
#
# Indices 1 2 3 4 5 6 
#
# 1 0.021883 -0.005282 -0.003903 0.000000 0.000000 0.000000
# 2 -0.005282 0.014173 -0.002425 0.000000 0.000000 0.000000
# 3 -0.003903 -0.002425 0.007495 0.000000 0.000000 0.000000
# 4 0.000000 0.000000 0.000000 0.118445 0.000000 0.000001
# 5 0.000000 0.000000 0.000000 0.000000 0.025389 0.000000
# 6 0.000000 0.000000 0.000000 0.000001 0.000000 -0.079175
#
#
# Mechanical properties :
#
#
# Convention : Reuss Voigt Hill
#
# Bulk Modulus (GPa) = 49.18564 60.72000 54.95282
# Shear Modulus (GPa) = 36.17744 20.62609 28.40177
#
# Velocity S-wave (km/s) = 4.32427 3.26514 3.83148
# Velocity P-wave (km/s) = 7.09615 6.75275 6.92658
#
# Compressibility (1/GPa) = 0.02033114
#
# Stress axis : x y z
#
# Youngs Moduli (GPa) = 45.69688 70.55571 133.42140
#
# Poissons Ratio (x) = 0.37268 0.52075
# Poissons Ratio (y) = 0.24137 0.32357
# Poissons Ratio (z) = 0.17836 0.17111
#
# Static dielectric constant tensor:
#      x y z
#    x 1.742380 0.000000 0.000000 
#    y 0.000000 1.684700 0.000000 
#    z 0.000000 0.000000 1.710170 
# 
# From -- ./inp_files/7035.got.cif
#   From: 2010.05.17/outbox.cif.g08.bks.cpg/sg70_4_cif.got.tgz:7035.got - 2010.06.03 15:57:51.
