data_PCOD9514376
_publ_section_title
;
Structure prediction by ZEFSAII (Michael W. Deem and Ramdas Pophale) SiO2 
 PCOD9514376
Probable space group: F D D D
;
_chemical_formula_sum "Si O2"
_cell_formula_units_Z 176
_cell_length_a 21.534313
_cell_length_b 22.610764
_cell_length_c 16.654009
_cell_angle_alpha 90.000000
_cell_angle_beta 90.000000
_cell_angle_gamma 90.000000
_cell_volume 8108.958043
_symmetry_space_group_name_H-M "F D D D"
_symmetry_group_IT_number 70
_space_group.IT_coordinate_system_code '2'
_symmetry_cell_setting 'orthorhombic'
loop_
_space_group_symop_operation_xyz
x,y,z
1/4-x,1/4-y,z
x,1/4-y,1/4-z
1/4-x,y,1/4-z
-x,-y,-z
3/4+x,3/4+y,-z
-x,3/4+y,3/4+z
3/4+x,-y,3/4+z
x,1/2+y,1/2+z
1/4-x,3/4-y,1/2+z
x,3/4-y,3/4-z
1/4-x,1/2+y,3/4-z
-x,1/2-y,1/2-z
3/4+x,1/4+y,1/2-z
-x,1/4+y,1/4+z
3/4+x,1/2-y,1/4+z
1/2+x,y,1/2+z
3/4-x,1/4-y,1/2+z
1/2+x,1/4-y,3/4-z
3/4-x,y,3/4-z
1/2-x,-y,1/2-z
1/4+x,3/4+y,1/2-z
1/2-x,3/4+y,1/4+z
1/4+x,-y,1/4+z
1/2+x,1/2+y,z
3/4-x,3/4-y,z
1/2+x,3/4-y,1/4-z
3/4-x,1/2+y,1/4-z
1/2-x,1/2-y,-z
1/4+x,1/4+y,-z
1/2-x,1/4+y,3/4+z
1/4+x,1/2-y,3/4+z
loop_
_atom_site_type_symbol
_atom_site_label
_atom_site_fract_x
_atom_site_fract_y
_atom_site_fract_z
Si Si1 0.614348 0.440683 0.386679
Si Si2 0.687590 0.031888 0.778973
Si Si3 0.471865 0.312923 0.412245
Si Si4 0.125000 0.755838 0.625000
Si Si5 0.676002 0.801113 0.566390
Si Si6 0.998941 0.665141 0.915581
O O1 0.641983 0.375000 0.375000
O O2 0.654466 0.487941 0.340660
O O3 0.546390 0.438161 0.347033
O O4 0.603175 0.456034 0.479171
O O5 0.710892 0.085699 0.833971
O O6 0.750000 0.000000 0.750000
O O7 0.644688 0.034455 0.700683
O O8 0.449753 0.375000 0.375000
O O9 0.446158 0.259053 0.359694
O O10 0.463308 0.309276 0.508098
O O11 0.064559 0.796326 0.600516
O O12 0.625000 0.829035 0.625000
O O13 0.730571 0.848711 0.560082
#
# Coordination Sequence:
#
# PCOD9514376 Si02
#       6
#    32  32  32  16  32  32
#     4  11  21  41  67  96 130 176 225 274 335 406
#     4  10  22  37  67  99 132 173 224 279 326 393
#     4  11  23  41  66  97 133 168 218 281 335 403
#     4  10  18  40  66  91 131 174 220 270 326 390
#     4  12  24  40  68  96 127 175 224 272 341 410
#     4  11  21  39  65 100 127 172 226 272 332 399
#
# _framework density 21.704391999999999
#
# number of rings (size 3 to 8) (size 9 to 14) (size 15 to 20)
#    0.000    1.091    6.364    1.636    2.545    0.364 
#    0.000    0.909    0.000    1.091    0.000    0.000 
#    0.000    0.000    0.000    0.000    0.000    0.000 
#
# Total GULP energy -245800.046683 kJ/mol
# GULP energy per Si atom -5586.364697 kJ/mol
# Density = 2.165499 g / cm^3
# Si number density = 21.704392 Si / 1000 Ang^3
#
#
#
# Elastic Constant Matrix: (Units=GPa)
#
#
# Indices 1 2 3 4 5 6 
#
# 1 49.2695 31.4850 36.2933 0.0000 0.0000 0.0000
# 2 31.4850 64.1493 55.2801 0.0000 0.0000 0.0000
# 3 36.2933 55.2801 205.4281 0.0000 0.0000 0.0000
# 4 0.0000 0.0000 0.0000 -9.0739 0.0000 0.0000
# 5 0.0000 0.0000 0.0000 0.0000 25.7392 0.0000
# 6 0.0000 0.0000 0.0000 0.0000 0.0000 -324.5266
#
#
#
# Elastic Compliance Matrix: (Units=1/GPa)
#
#
# Indices 1 2 3 4 5 6 
#
# 1 0.030044 -0.013243 -0.001744 0.000000 0.000000 0.000000
# 2 -0.013243 0.026132 -0.004692 0.000000 0.000000 0.000000
# 3 -0.001744 -0.004692 0.006439 0.000000 0.000000 0.000000
# 4 0.000000 0.000000 0.000000 -0.110206 0.000000 0.000000
# 5 0.000000 0.000000 0.000000 0.000000 0.038851 0.000000
# 6 0.000000 0.000000 0.000000 0.000000 0.000000 -0.003081
#
#
# Mechanical properties :
#
#
# Convention : Reuss Voigt Hill
#
# Bulk Modulus (GPa) = 43.00004 62.77376 52.88690
# Shear Modulus (GPa) = 141.68578 -48.51970 46.58304
#
# Velocity S-wave (km/s) = 8.08836 -4.73321 4.63779
# Velocity P-wave (km/s) = 10.34811 0.94136 7.28688
#
# Compressibility (1/GPa) = 0.02325579
#
# Stress axis : x y z
#
# Youngs Moduli (GPa) = 33.28449 38.26739 155.30898
#
# Poissons Ratio (x) = 0.50676 0.27091
# Poissons Ratio (y) = 0.44078 0.72877
# Poissons Ratio (z) = 0.05806 0.17957
#
# Static dielectric constant tensor:
#      x y z
#    x 1.771630 0.000000 0.000000 
#    y 0.000000 1.788730 0.000000 
#    z 0.000000 0.000000 1.808510 
# 
# From -- ./inp_files/28751.got.cif
#   From: 2010.05.17/outbox.cif.g08.bks.cpg/sg70_15_cif.got.tgz:28751.got - 2010.06.03 15:57:51.
