data_PCOD9514730
_publ_section_title
;
Structure prediction by ZEFSAII (Michael W. Deem and Ramdas Pophale) SiO2 
 PCOD9514730
Probable space group: F D D D
;
_chemical_formula_sum "Si O2"
_cell_formula_units_Z 216
_cell_length_a 21.324317
_cell_length_b 30.606684
_cell_length_c 18.522632
_cell_angle_alpha 90.000000
_cell_angle_beta 90.000000
_cell_angle_gamma 90.000000
_cell_volume 12089.103842
_symmetry_space_group_name_H-M "F D D D"
_symmetry_group_IT_number 70
_space_group.IT_coordinate_system_code '2'
_symmetry_cell_setting 'orthorhombic'
loop_
_space_group_symop_operation_xyz
x,y,z
1/4-x,1/4-y,z
x,1/4-y,1/4-z
1/4-x,y,1/4-z
-x,-y,-z
3/4+x,3/4+y,-z
-x,3/4+y,3/4+z
3/4+x,-y,3/4+z
x,1/2+y,1/2+z
1/4-x,3/4-y,1/2+z
x,3/4-y,3/4-z
1/4-x,1/2+y,3/4-z
-x,1/2-y,1/2-z
3/4+x,1/4+y,1/2-z
-x,1/4+y,1/4+z
3/4+x,1/2-y,1/4+z
1/2+x,y,1/2+z
3/4-x,1/4-y,1/2+z
1/2+x,1/4-y,3/4-z
3/4-x,y,3/4-z
1/2-x,-y,1/2-z
1/4+x,3/4+y,1/2-z
1/2-x,3/4+y,1/4+z
1/4+x,-y,1/4+z
1/2+x,1/2+y,z
3/4-x,3/4-y,z
1/2+x,3/4-y,1/4-z
3/4-x,1/2+y,1/4-z
1/2-x,1/2-y,-z
1/4+x,1/4+y,-z
1/2-x,1/4+y,3/4+z
1/4+x,1/2-y,3/4+z
loop_
_atom_site_type_symbol
_atom_site_label
_atom_site_fract_x
_atom_site_fract_y
_atom_site_fract_z
Si Si1 0.470037 0.327631 0.595423
Si Si2 0.125000 0.125000 0.625000
Si Si3 0.796493 0.830699 0.767320
Si Si4 0.003600 0.677375 0.354738
Si Si5 0.307317 0.824748 0.487596
Si Si6 0.144427 0.554490 0.239481
Si Si7 0.625000 0.979435 0.125000
Si Si8 0.950552 0.256784 0.376749
O O1 0.498593 0.375851 0.585045
O O2 0.441899 0.325085 0.676148
O O3 0.415315 0.319689 0.537221
O O4 0.520720 0.289211 0.600129
O O5 0.160038 0.091833 0.679567
O O6 0.786105 0.821221 0.683320
O O7 0.870399 0.829596 0.784424
O O8 0.773479 0.879837 0.783748
O O9 0.772180 0.791645 0.815858
O O10 0.047414 0.699993 0.294383
O O11 0.936562 0.699805 0.365409
O O12 0.283159 0.781320 0.448661
O O13 0.125502 0.511510 0.194648
O O14 0.875000 0.251858 0.375000
#
# Coordination Sequence:
#
# PCOD9514730 Si02
#       8
#    32   8  32  32  32  32  16  32
#     4  11  20  34  60  79 116 155 194 237 302 357
#     4  10  20  36  64  96 104 138 204 268 292 340
#     4   9  17  32  55  78 108 147 194 232 284 332
#     4  11  21  39  60  87 116 152 195 249 305 359
#     4   9  17  31  53  81 107 147 193 237 273 338
#     4  11  21  41  63  88 113 152 204 255 295 363
#     4  11  26  37  62  90 120 148 195 254 311 360
#     4  10  20  31  49  84 119 150 187 237 288 358
#
# _framework density 17.867329000000002
#
# number of rings (size 3 to 8) (size 9 to 14) (size 15 to 20)
#    0.000    1.778    2.963    2.222    1.037    1.778 
#    0.000    0.000    0.000    0.000    7.704    0.000 
#    0.000    0.000    0.000    0.000    0.000    0.000 
#
# Total GULP energy -300618.792746 kJ/mol
# GULP energy per Si atom -5567.014680 kJ/mol
# Density = 1.782666 g / cm^3
# Si number density = 17.867329 Si / 1000 Ang^3
#
#
#
# Elastic Constant Matrix: (Units=GPa)
#
#
# Indices 1 2 3 4 5 6 
#
# 1 84.4005 63.9952 42.5300 0.0000 0.0000 0.0000
# 2 63.9952 128.0019 55.9474 0.0000 0.0000 0.0000
# 3 42.5300 55.9474 106.2161 0.0000 0.0000 0.0000
# 4 0.0000 0.0000 0.0000 35.4877 0.0000 0.0000
# 5 0.0000 0.0000 0.0000 0.0000 2.5080 0.0000
# 6 0.0000 0.0000 0.0000 0.0000 0.0000 28.3087
#
#
#
# Elastic Compliance Matrix: (Units=1/GPa)
#
#
# Indices 1 2 3 4 5 6 
#
# 1 0.020075 -0.008474 -0.003575 0.000000 0.000000 0.000000
# 2 -0.008474 0.013726 -0.003837 0.000000 0.000000 0.000000
# 3 -0.003575 -0.003837 0.012867 0.000000 0.000000 0.000000
# 4 0.000000 0.000000 0.000000 0.028179 0.000000 0.000000
# 5 0.000000 0.000000 0.000000 0.000000 0.398729 0.000000
# 6 0.000000 0.000000 0.000000 0.000000 0.000000 0.035325
#
#
# Mechanical properties :
#
#
# Convention : Reuss Voigt Hill
#
# Bulk Modulus (GPa) = 67.12808 71.50709 69.31758
# Shear Modulus (GPa) = 9.16359 23.67058 16.41709
#
# Velocity S-wave (km/s) = 2.26712 3.64372 3.03451
# Velocity P-wave (km/s) = 6.67120 7.60331 7.15246
#
# Compressibility (1/GPa) = 0.01489690
#
# Stress axis : x y z
#
# Youngs Moduli (GPa) = 49.81336 72.85394 77.71785
#
# Poissons Ratio (x) = 0.61738 0.27781
# Poissons Ratio (y) = 0.42213 0.29819
# Poissons Ratio (z) = 0.17806 0.27953
#
# Static dielectric constant tensor:
#      x y z
#    x 1.599380 0.000000 0.000000 
#    y 0.000000 1.664100 0.000000 
#    z 0.000000 0.000000 1.636550 
# 
# From -- ./inp_files/46187.got.cif
#   From: 2010.05.17/outbox.cif.g08.bks.cpg/sg70_24_cif.got.tgz:46187.got - 2010.06.03 15:57:51.
