data_PCOD9514897
_publ_section_title
;
Structure prediction by ZEFSAII (Michael W. Deem and Ramdas Pophale) SiO2 
 PCOD9514897
Probable space group: F D D D
;
_chemical_formula_sum "Si O2"
_cell_formula_units_Z 176
_cell_length_a 10.790970
_cell_length_b 25.710871
_cell_length_c 27.379137
_cell_angle_alpha 90.000000
_cell_angle_beta 90.000000
_cell_angle_gamma 90.000000
_cell_volume 7596.211171
_symmetry_space_group_name_H-M "F D D D"
_symmetry_group_IT_number 70
_space_group.IT_coordinate_system_code '2'
_symmetry_cell_setting 'orthorhombic'
loop_
_space_group_symop_operation_xyz
x,y,z
1/4-x,1/4-y,z
x,1/4-y,1/4-z
1/4-x,y,1/4-z
-x,-y,-z
3/4+x,3/4+y,-z
-x,3/4+y,3/4+z
3/4+x,-y,3/4+z
x,1/2+y,1/2+z
1/4-x,3/4-y,1/2+z
x,3/4-y,3/4-z
1/4-x,1/2+y,3/4-z
-x,1/2-y,1/2-z
3/4+x,1/4+y,1/2-z
-x,1/4+y,1/4+z
3/4+x,1/2-y,1/4+z
1/2+x,y,1/2+z
3/4-x,1/4-y,1/2+z
1/2+x,1/4-y,3/4-z
3/4-x,y,3/4-z
1/2-x,-y,1/2-z
1/4+x,3/4+y,1/2-z
1/2-x,3/4+y,1/4+z
1/4+x,-y,1/4+z
1/2+x,1/2+y,z
3/4-x,3/4-y,z
1/2+x,3/4-y,1/4-z
3/4-x,1/2+y,1/4-z
1/2-x,1/2-y,-z
1/4+x,1/4+y,-z
1/2-x,1/4+y,3/4+z
1/4+x,1/2-y,3/4+z
loop_
_atom_site_type_symbol
_atom_site_label
_atom_site_fract_x
_atom_site_fract_y
_atom_site_fract_z
Si Si1 0.664698 0.206179 0.555994
Si Si2 0.294393 0.626732 0.955612
Si Si3 0.295568 0.561438 0.053104
Si Si4 0.625000 0.802565 0.125000
Si Si5 0.290496 0.943225 0.547576
Si Si6 0.125000 0.625000 0.125000
Si Si7 0.625000 0.125000 0.625000
Si Si8 0.125000 0.625000 0.889324
O O1 0.806813 0.189529 0.563736
O O2 0.654361 0.263472 0.580236
O O3 0.630345 0.198257 0.499663
O O4 0.574264 0.167632 0.586412
O O5 0.286607 0.595175 0.902230
O O6 0.423943 0.655661 0.961395
O O7 0.186605 0.663238 0.936686
O O8 0.280054 0.590057 0.001398
O O9 0.249779 0.502385 0.053660
O O10 0.215648 0.591679 0.091802
O O11 0.353819 0.920445 0.595599
#
# Coordination Sequence:
#
# PCOD9514897 Si02
#       8
#    32  32  32  16  32   8   8  16
#     4  11  23  42  72 106 142 192 244 313 380 443
#     4  12  25  46  70 109 150 193 253 316 371 456
#     4  12  27  50  72 105 150 201 248 310 381 454
#     4  11  22  44  68 110 148 182 244 329 374 430
#     4  12  25  43  78 108 146 195 257 313 379 444
#     4  12  32  54  72 106 164 206 248 310 372 464
#     4  10  20  36  68 106 136 176 240 294 380 434
#     4  12  24  42  70 106 146 202 250 316 376 458
#
# _framework density 23.169446000000001
#
# number of rings (size 3 to 8) (size 9 to 14) (size 15 to 20)
#    0.000    0.364    3.636    5.455    2.545    1.455 
#    3.273    1.818    0.000    0.000    0.000    0.000 
#    0.000    0.000    0.000    0.000    0.000    0.000 
#
# Total GULP energy -244971.680321 kJ/mol
# GULP energy per Si atom -5567.538189 kJ/mol
# Density = 2.311671 g / cm^3
# Si number density = 23.169446 Si / 1000 Ang^3
#
#
#
# Elastic Constant Matrix: (Units=GPa)
#
#
# Indices 1 2 3 4 5 6 
#
# 1 114.4547 50.0382 74.5721 0.0000 0.0000 0.0000
# 2 50.0382 157.5860 89.9231 0.0000 0.0000 0.0000
# 3 74.5721 89.9231 191.9266 0.0000 0.0000 0.0000
# 4 0.0000 0.0000 0.0000 41.2123 0.0000 0.0000
# 5 0.0000 0.0000 0.0000 0.0000 37.9745 0.0000
# 6 0.0000 0.0000 0.0000 0.0000 0.0000 14.7904
#
#
#
# Elastic Compliance Matrix: (Units=1/GPa)
#
#
# Indices 1 2 3 4 5 6 
#
# 1 0.011975 -0.001566 -0.003919 0.000000 0.000000 0.000000
# 2 -0.001566 0.008866 -0.003546 0.000000 0.000000 0.000000
# 3 -0.003919 -0.003546 0.008394 0.000000 0.000000 0.000000
# 4 0.000000 0.000000 0.000000 0.024265 0.000000 0.000000
# 5 0.000000 0.000000 0.000000 0.000000 0.026333 0.000000
# 6 0.000000 0.000000 0.000000 0.000000 0.000000 0.067612
#
#
# Mechanical properties :
#
#
# Convention : Reuss Voigt Hill
#
# Bulk Modulus (GPa) = 89.49270 99.22601 94.35935
# Shear Modulus (GPa) = 29.54527 35.42436 32.48481
#
# Velocity S-wave (km/s) = 3.57484 3.91439 3.74846
# Velocity P-wave (km/s) = 7.46649 7.95922 7.71679
#
# Compressibility (1/GPa) = 0.01117410
#
# Stress axis : x y z
#
# Youngs Moduli (GPa) = 83.50548 112.78736 119.12847
#
# Poissons Ratio (x) = 0.17664 0.46688
# Poissons Ratio (y) = 0.13078 0.42238
# Poissons Ratio (z) = 0.32727 0.39990
#
# Static dielectric constant tensor:
#      x y z
#    x 2.252890 0.000000 0.000000 
#    y 0.000000 1.903440 0.000000 
#    z 0.000000 0.000000 1.892740 
# 
# From -- ./inp_files/57654.got.cif
#   From: 2010.05.17/outbox.cif.g08.bks.cpg/sg70_29_cif.got.tgz:57654.got - 2010.06.03 15:57:51.
