data_PCOD9514835
_publ_section_title
;
Structure prediction by ZEFSAII (Michael W. Deem and Ramdas Pophale) SiO2 
 PCOD9514835
Probable space group: F D D D
;
_chemical_formula_sum "Si O2"
_cell_formula_units_Z 184
_cell_length_a 21.817188
_cell_length_b 25.993097
_cell_length_c 15.908318
_cell_angle_alpha 90.000000
_cell_angle_beta 90.000000
_cell_angle_gamma 90.000000
_cell_volume 9021.548022
_symmetry_space_group_name_H-M "F D D D"
_symmetry_group_IT_number 70
_space_group.IT_coordinate_system_code '2'
_symmetry_cell_setting 'orthorhombic'
loop_
_space_group_symop_operation_xyz
x,y,z
1/4-x,1/4-y,z
x,1/4-y,1/4-z
1/4-x,y,1/4-z
-x,-y,-z
3/4+x,3/4+y,-z
-x,3/4+y,3/4+z
3/4+x,-y,3/4+z
x,1/2+y,1/2+z
1/4-x,3/4-y,1/2+z
x,3/4-y,3/4-z
1/4-x,1/2+y,3/4-z
-x,1/2-y,1/2-z
3/4+x,1/4+y,1/2-z
-x,1/4+y,1/4+z
3/4+x,1/2-y,1/4+z
1/2+x,y,1/2+z
3/4-x,1/4-y,1/2+z
1/2+x,1/4-y,3/4-z
3/4-x,y,3/4-z
1/2-x,-y,1/2-z
1/4+x,3/4+y,1/2-z
1/2-x,3/4+y,1/4+z
1/4+x,-y,1/4+z
1/2+x,1/2+y,z
3/4-x,3/4-y,z
1/2+x,3/4-y,1/4-z
3/4-x,1/2+y,1/4-z
1/2-x,1/2-y,-z
1/4+x,1/4+y,-z
1/2-x,1/4+y,3/4+z
1/4+x,1/2-y,3/4+z
loop_
_atom_site_type_symbol
_atom_site_label
_atom_site_fract_x
_atom_site_fract_y
_atom_site_fract_z
Si Si1 0.625000 0.625000 0.125000
Si Si2 0.875000 0.621061 0.375000
Si Si3 0.344566 0.703932 0.518709
Si Si4 0.819389 0.335114 0.674057
Si Si5 0.768718 0.078199 0.301343
Si Si6 0.285797 0.808905 0.484174
Si Si7 0.589589 0.997531 0.929410
O O1 0.667047 0.593241 0.186258
O O2 0.872931 0.584874 0.456268
O O3 0.814010 0.654970 0.374345
O O4 0.312496 0.751588 0.470088
O O5 0.281356 0.680015 0.552659
O O6 0.388094 0.725393 0.590611
O O7 0.875000 0.375000 0.657884
O O8 0.769210 0.369785 0.723778
O O9 0.789925 0.319722 0.584389
O O10 0.852926 0.283741 0.710666
O O11 0.813642 0.049414 0.235413
O O12 0.717509 0.036801 0.327608
#
# Coordination Sequence:
#
# PCOD9514835 Si02
#       7
#     8  16  32  32  32  32  32
#     4  12  22  32  60  96 124 156 206 236 312 384
#     4  12  23  38  62  93 127 162 204 259 328 386
#     4  10  22  39  58  89 129 164 203 253 312 377
#     4   9  16  36  64  87 122 167 200 257 316 365
#     4  10  21  40  63  91 122 166 216 260 314 378
#     4  10  20  36  56  90 128 162 199 245 305 389
#     4   9  21  41  65  90 123 165 216 264 314 377
#
# _framework density 20.395613000000001
#
# number of rings (size 3 to 8) (size 9 to 14) (size 15 to 20)
#    0.000    2.087    2.609    0.522    0.000    2.087 
#    3.130    0.000    0.000    0.000    0.000    0.000 
#    0.000    0.000    0.000    0.000    0.000    0.000 
#
# Total GULP energy -256156.727769 kJ/mol
# GULP energy per Si atom -5568.624517 kJ/mol
# Density = 2.034919 g / cm^3
# Si number density = 20.395613 Si / 1000 Ang^3
#
#
#
# Elastic Constant Matrix: (Units=GPa)
#
#
# Indices 1 2 3 4 5 6 
#
# 1 109.6915 43.0317 36.5188 0.0000 0.0000 0.0000
# 2 43.0317 93.8965 39.2806 0.0000 0.0000 0.0000
# 3 36.5188 39.2806 48.3658 0.0000 0.0000 0.0000
# 4 0.0000 0.0000 0.0000 18.5672 0.0000 0.0000
# 5 0.0000 0.0000 0.0000 0.0000 18.5051 0.0000
# 6 0.0000 0.0000 0.0000 0.0000 0.0000 36.0238
#
#
#
# Elastic Compliance Matrix: (Units=1/GPa)
#
#
# Indices 1 2 3 4 5 6 
#
# 1 0.012621 -0.002722 -0.007318 0.000000 0.000000 0.000000
# 2 -0.002722 0.016718 -0.011522 0.000000 0.000000 0.000000
# 3 -0.007318 -0.011522 0.035559 0.000000 0.000000 0.000000
# 4 0.000000 0.000000 0.000000 0.053858 0.000000 0.000000
# 5 0.000000 0.000000 0.000000 0.000000 0.054039 0.000000
# 6 0.000000 0.000000 0.000000 0.000000 0.000000 0.027759
#
#
# Mechanical properties :
#
#
# Convention : Reuss Voigt Hill
#
# Bulk Modulus (GPa) = 45.92979 54.40179 50.16579
# Shear Modulus (GPa) = 19.92526 23.49406 21.70966
#
# Velocity S-wave (km/s) = 3.12899 3.39767 3.26610
# Velocity P-wave (km/s) = 5.96846 6.49026 6.23482
#
# Compressibility (1/GPa) = 0.02177236
#
# Stress axis : x y z
#
# Youngs Moduli (GPa) = 79.23317 59.81685 28.12219
#
# Poissons Ratio (x) = 0.16285 0.20581
# Poissons Ratio (y) = 0.21571 0.32402
# Poissons Ratio (z) = 0.57987 0.68920
#
# Static dielectric constant tensor:
#      x y z
#    x 1.796980 0.000000 0.000000 
#    y 0.000000 1.797960 0.000000 
#    z 0.000000 0.000000 1.791980 
# 
# From -- ./inp_files/37658.got.cif
#   From: 2010.05.17/outbox.cif.g08.bks.cpg/sg70_19_cif.got.tgz:37658.got - 2010.06.03 15:57:51.
