data_PCOD9514537
_publ_section_title
;
Structure prediction by ZEFSAII (Michael W. Deem and Ramdas Pophale) SiO2 
 PCOD9514537
Probable space group: F D D D
;
_chemical_formula_sum "Si O2"
_cell_formula_units_Z 240
_cell_length_a 20.370444
_cell_length_b 27.505254
_cell_length_c 20.239973
_cell_angle_alpha 90.000000
_cell_angle_beta 90.000000
_cell_angle_gamma 90.000000
_cell_volume 11340.340215
_symmetry_space_group_name_H-M "F D D D"
_symmetry_group_IT_number 70
_space_group.IT_coordinate_system_code '2'
_symmetry_cell_setting 'orthorhombic'
loop_
_space_group_symop_operation_xyz
x,y,z
1/4-x,1/4-y,z
x,1/4-y,1/4-z
1/4-x,y,1/4-z
-x,-y,-z
3/4+x,3/4+y,-z
-x,3/4+y,3/4+z
3/4+x,-y,3/4+z
x,1/2+y,1/2+z
1/4-x,3/4-y,1/2+z
x,3/4-y,3/4-z
1/4-x,1/2+y,3/4-z
-x,1/2-y,1/2-z
3/4+x,1/4+y,1/2-z
-x,1/4+y,1/4+z
3/4+x,1/2-y,1/4+z
1/2+x,y,1/2+z
3/4-x,1/4-y,1/2+z
1/2+x,1/4-y,3/4-z
3/4-x,y,3/4-z
1/2-x,-y,1/2-z
1/4+x,3/4+y,1/2-z
1/2-x,3/4+y,1/4+z
1/4+x,-y,1/4+z
1/2+x,1/2+y,z
3/4-x,3/4-y,z
1/2+x,3/4-y,1/4-z
3/4-x,1/2+y,1/4-z
1/2-x,1/2-y,-z
1/4+x,1/4+y,-z
1/2-x,1/4+y,3/4+z
1/4+x,1/2-y,3/4+z
loop_
_atom_site_type_symbol
_atom_site_label
_atom_site_fract_x
_atom_site_fract_y
_atom_site_fract_z
Si Si1 0.815537 0.031630 0.737951
Si Si2 0.140726 0.410794 0.935052
Si Si3 0.184513 0.161431 0.459815
Si Si4 0.559835 0.730562 0.662716
Si Si5 0.076519 0.346191 0.684040
Si Si6 0.268483 0.927771 0.380063
Si Si7 0.625000 0.761265 0.125000
Si Si8 0.579139 0.499817 0.366649
O O1 0.781054 0.067571 0.683811
O O2 0.874405 0.005992 0.696752
O O3 0.750000 0.000000 0.750000
O O4 0.848323 0.039857 0.810330
O O5 0.124522 0.375000 0.875000
O O6 0.217295 0.423369 0.939890
O O7 0.107373 0.461874 0.919566
O O8 0.111765 0.387787 0.999737
O O9 0.125000 0.125000 0.473495
O O10 0.199816 0.195211 0.524264
O O11 0.251912 0.135389 0.436889
O O12 0.166622 0.197406 0.399555
O O13 0.625000 0.714211 0.625000
O O14 0.570329 0.786926 0.683756
O O15 0.497170 0.733940 0.613701
O O16 0.125000 0.358473 0.625000
O O17 0.301633 0.875000 0.375000
O O18 0.315412 0.973315 0.389287
#
# Coordination Sequence:
#
# PCOD9514537 Si02
#       8
#    32  32  32  32  32  32  16  32
#     4   9  20  38  62  91 122 156 210 267 312 374
#     4  10  19  35  65  85 113 165 214 254 314 374
#     4  11  22  39  61  96 134 170 207 273 329 377
#     4  10  20  36  63  97 128 173 212 259 315 398
#     4  10  20  39  64  90 128 167 220 259 313 400
#     4   9  19  35  61  87 120 160 207 252 312 380
#     4  10  19  36  60  94 122 158 208 264 314 364
#     4  10  19  41  62  84 132 173 210 255 322 390
#
# _framework density 21.163387
#
# number of rings (size 3 to 8) (size 9 to 14) (size 15 to 20)
#    0.000    2.133    2.667    1.000    0.000    4.533 
#    2.400    9.333   13.200    0.000    0.000    0.000 
#    0.000    0.000    0.000    0.000    0.000    0.000 
#
# Total GULP energy -334187.350265 kJ/mol
# GULP energy per Si atom -5569.789171 kJ/mol
# Density = 2.111522 g / cm^3
# Si number density = 21.163387 Si / 1000 Ang^3
#
#
#
# Elastic Constant Matrix: (Units=GPa)
#
#
# Indices 1 2 3 4 5 6 
#
# 1 159.3061 34.9315 62.2406 0.0000 0.0000 0.0000
# 2 34.9315 51.1751 16.2229 0.0000 0.0000 0.0000
# 3 62.2406 16.2229 111.9149 0.0000 0.0000 0.0000
# 4 0.0000 0.0000 0.0000 6.4436 0.0000 0.0000
# 5 0.0000 0.0000 0.0000 0.0000 36.6567 0.0000
# 6 0.0000 0.0000 0.0000 0.0000 0.0000 30.2838
#
#
#
# Elastic Compliance Matrix: (Units=1/GPa)
#
#
# Indices 1 2 3 4 5 6 
#
# 1 0.009014 -0.004783 -0.004320 0.000000 0.000000 0.000000
# 2 -0.004783 0.023020 -0.000677 0.000000 0.000000 0.000000
# 3 -0.004320 -0.000677 0.011436 0.000000 0.000000 0.000000
# 4 0.000000 0.000000 0.000000 0.155193 0.000000 0.000000
# 5 0.000000 0.000000 0.000000 0.000000 0.027280 0.000000
# 6 0.000000 0.000000 0.000000 0.000000 0.000000 0.033021
#
#
# Mechanical properties :
#
#
# Convention : Reuss Voigt Hill
#
# Bulk Modulus (GPa) = 41.82251 61.02066 51.42159
# Shear Modulus (GPa) = 17.45239 28.61021 23.03130
#
# Velocity S-wave (km/s) = 2.87479 3.68077 3.30246
# Velocity P-wave (km/s) = 5.55192 6.85272 6.23633
#
# Compressibility (1/GPa) = 0.02391057
#
# Stress axis : x y z
#
# Youngs Moduli (GPa) = 110.94218 43.43984 87.44521
#
# Poissons Ratio (x) = 0.20779 0.37772
# Poissons Ratio (y) = 0.53067 0.05918
# Poissons Ratio (z) = 0.47922 0.02940
#
# Static dielectric constant tensor:
#      x y z
#    x 1.841620 0.000000 0.000000 
#    y 0.000000 1.840420 0.000000 
#    z 0.000000 0.000000 1.824050 
# 
# From -- ./inp_files/45304.got.cif
#   From: 2010.05.17/outbox.cif.g08.bks.cpg/sg70_23_cif.got.tgz:45304.got - 2010.06.03 15:57:51.
