data_PCOD9514264
_publ_section_title
;
Structure prediction by ZEFSAII (Michael W. Deem and Ramdas Pophale) SiO2 
 PCOD9514264
Probable space group: F D D D
;
_chemical_formula_sum "Si O2"
_cell_formula_units_Z 208
_cell_length_a 25.556723
_cell_length_b 22.376658
_cell_length_c 17.312712
_cell_angle_alpha 90.000000
_cell_angle_beta 90.000000
_cell_angle_gamma 90.000000
_cell_volume 9900.690731
_symmetry_space_group_name_H-M "F D D D"
_symmetry_group_IT_number 70
_space_group.IT_coordinate_system_code '2'
_symmetry_cell_setting 'orthorhombic'
loop_
_space_group_symop_operation_xyz
x,y,z
1/4-x,1/4-y,z
x,1/4-y,1/4-z
1/4-x,y,1/4-z
-x,-y,-z
3/4+x,3/4+y,-z
-x,3/4+y,3/4+z
3/4+x,-y,3/4+z
x,1/2+y,1/2+z
1/4-x,3/4-y,1/2+z
x,3/4-y,3/4-z
1/4-x,1/2+y,3/4-z
-x,1/2-y,1/2-z
3/4+x,1/4+y,1/2-z
-x,1/4+y,1/4+z
3/4+x,1/2-y,1/4+z
1/2+x,y,1/2+z
3/4-x,1/4-y,1/2+z
1/2+x,1/4-y,3/4-z
3/4-x,y,3/4-z
1/2-x,-y,1/2-z
1/4+x,3/4+y,1/2-z
1/2-x,3/4+y,1/4+z
1/4+x,-y,1/4+z
1/2+x,1/2+y,z
3/4-x,3/4-y,z
1/2+x,3/4-y,1/4-z
3/4-x,1/2+y,1/4-z
1/2-x,1/2-y,-z
1/4+x,1/4+y,-z
1/2-x,1/4+y,3/4+z
1/4+x,1/2-y,3/4+z
loop_
_atom_site_type_symbol
_atom_site_label
_atom_site_fract_x
_atom_site_fract_y
_atom_site_fract_z
Si Si1 0.908665 0.651672 0.794931
Si Si2 0.869087 0.445587 0.108448
Si Si3 0.372013 0.031577 0.785228
Si Si4 0.181235 0.779729 0.785648
Si Si5 0.493862 0.569388 0.480003
Si Si6 0.750444 0.814709 0.137714
Si Si7 0.252833 0.125000 0.625000
O O1 0.875000 0.650628 0.875000
O O2 0.916425 0.582093 0.773237
O O3 0.872237 0.686471 0.735987
O O4 0.961729 0.685388 0.815345
O O5 0.875000 0.375000 0.100653
O O6 0.910595 0.470718 0.171284
O O7 0.808259 0.458818 0.127531
O O8 0.877871 0.479553 0.027132
O O9 0.375000 0.011549 0.875000
O O10 0.319413 0.070484 0.770933
O O11 0.219673 0.782447 0.710156
O O12 0.212146 0.819495 0.847837
O O13 0.500000 0.500000 0.500000
O O14 0.505786 0.614254 0.410163
O O15 0.524854 0.602283 0.549189
#
# Coordination Sequence:
#
# PCOD9514264 Si02
#       7
#    32  32  32  32  32  32  16
#     4   9  16  37  65  90 107 148 219 260 296 368
#     4  12  26  39  55  91 136 161 202 261 318 376
#     4  11  20  38  62  82 116 159 199 252 297 373
#     4  10  19  38  64  83 121 160 209 263 304 374
#     4  11  20  34  58  88 119 155 203 250 307 377
#     4  10  22  38  62  92 117 164 207 259 324 369
#     4  10  18  34  60  84 109 162 207 238 300 364
#
# _framework density 21.008635000000002
#
# number of rings (size 3 to 8) (size 9 to 14) (size 15 to 20)
#    0.000    1.538    7.692    0.923    0.000    4.615 
#    0.000    0.000    0.000    6.000    0.000    0.000 
#    0.000    0.000    0.000    0.000    0.000    0.000 
#
# Total GULP energy -289499.895702 kJ/mol
# GULP energy per Si atom -5567.305687 kJ/mol
# Density = 2.096082 g / cm^3
# Si number density = 21.008635 Si / 1000 Ang^3
#
#
#
# Elastic Constant Matrix: (Units=GPa)
#
#
# Indices 1 2 3 4 5 6 
#
# 1 87.0728 9.6767 4.1360 0.0000 0.0000 0.0000
# 2 9.6767 95.8597 23.0651 0.0000 0.0000 0.0000
# 3 4.1360 23.0651 39.9151 0.0000 0.0000 0.0000
# 4 0.0000 0.0000 0.0000 26.1740 0.0000 0.0000
# 5 0.0000 0.0000 0.0000 0.0000 15.4946 0.0000
# 6 0.0000 0.0000 0.0000 0.0000 0.0000 12.6346
#
#
#
# Elastic Compliance Matrix: (Units=1/GPa)
#
#
# Indices 1 2 3 4 5 6 
#
# 1 0.011628 -0.001027 -0.000612 0.000000 0.000000 0.000000
# 2 -0.001027 0.012207 -0.006948 0.000000 0.000000 0.000000
# 3 -0.000612 -0.006948 0.029131 0.000000 0.000000 0.000000
# 4 0.000000 0.000000 0.000000 0.038206 0.000000 0.000000
# 5 0.000000 0.000000 0.000000 0.000000 0.064538 0.000000
# 6 0.000000 0.000000 0.000000 0.000000 0.000000 0.079148
#
#
# Mechanical properties :
#
#
# Convention : Reuss Voigt Hill
#
# Bulk Modulus (GPa) = 27.93723 32.95591 30.44657
# Shear Modulus (GPa) = 18.94216 23.25863 21.10039
#
# Velocity S-wave (km/s) = 3.00598 3.33092 3.17261
# Velocity P-wave (km/s) = 5.03734 5.52397 5.28626
#
# Compressibility (1/GPa) = 0.03579453
#
# Stress axis : x y z
#
# Youngs Moduli (GPa) = 86.00089 81.91865 34.32739
#
# Poissons Ratio (x) = 0.08410 0.02100
# Poissons Ratio (y) = 0.08829 0.23849
# Poissons Ratio (z) = 0.05260 0.56914
#
# Static dielectric constant tensor:
#      x y z
#    x 1.842720 0.000000 0.000000 
#    y 0.000000 1.804950 0.000000 
#    z 0.000000 0.000000 1.827280 
# 
# From -- ./inp_files/39880.got.cif
#   From: 2010.05.17/outbox.cif.g08.bks.cpg/sg70_20_cif.got.tgz:39880.got - 2010.06.03 15:57:51.
