data_PCOD9514347
_publ_section_title
;
Structure prediction by ZEFSAII (Michael W. Deem and Ramdas Pophale) SiO2 
 PCOD9514347
Probable space group: F D D D
;
_chemical_formula_sum "Si O2"
_cell_formula_units_Z 120
_cell_length_a 9.855136
_cell_length_b 17.476637
_cell_length_c 31.883359
_cell_angle_alpha 90.000000
_cell_angle_beta 90.000000
_cell_angle_gamma 90.000000
_cell_volume 5491.418683
_symmetry_space_group_name_H-M "F D D D"
_symmetry_group_IT_number 70
_space_group.IT_coordinate_system_code '2'
_symmetry_cell_setting 'orthorhombic'
loop_
_space_group_symop_operation_xyz
x,y,z
1/4-x,1/4-y,z
x,1/4-y,1/4-z
1/4-x,y,1/4-z
-x,-y,-z
3/4+x,3/4+y,-z
-x,3/4+y,3/4+z
3/4+x,-y,3/4+z
x,1/2+y,1/2+z
1/4-x,3/4-y,1/2+z
x,3/4-y,3/4-z
1/4-x,1/2+y,3/4-z
-x,1/2-y,1/2-z
3/4+x,1/4+y,1/2-z
-x,1/4+y,1/4+z
3/4+x,1/2-y,1/4+z
1/2+x,y,1/2+z
3/4-x,1/4-y,1/2+z
1/2+x,1/4-y,3/4-z
3/4-x,y,3/4-z
1/2-x,-y,1/2-z
1/4+x,3/4+y,1/2-z
1/2-x,3/4+y,1/4+z
1/4+x,-y,1/4+z
1/2+x,1/2+y,z
3/4-x,3/4-y,z
1/2+x,3/4-y,1/4-z
3/4-x,1/2+y,1/4-z
1/2-x,1/2-y,-z
1/4+x,1/4+y,-z
1/2-x,1/4+y,3/4+z
1/4+x,1/2-y,3/4+z
loop_
_atom_site_type_symbol
_atom_site_label
_atom_site_fract_x
_atom_site_fract_y
_atom_site_fract_z
Si Si1 0.715066 0.267980 0.261407
Si Si2 0.943639 0.106604 0.700783
Si Si3 0.444207 0.988465 0.419523
Si Si4 0.625000 0.125000 0.125000
Si Si5 0.875000 0.375000 0.196521
O O1 0.724222 0.189652 0.235683
O O2 0.584782 0.306875 0.283507
O O3 0.823197 0.253743 0.297864
O O4 0.773980 0.328745 0.227390
O O5 0.023327 0.087636 0.658013
O O6 0.793822 0.074499 0.690088
O O7 0.375000 0.970934 0.375000
O O8 0.536455 0.065191 0.419682
#
# Coordination Sequence:
#
# PCOD9514347 Si02
#       5
#    32  32  32   8  16
#     4  11  19  41  70  94 121 174 221 277 337 410
#     4  11  23  41  66  93 136 172 230 276 340 406
#     4  11  21  37  66  99 125 170 221 285 334 402
#     4  12  28  44  56  96 136 180 216 286 332 412
#     4  10  18  38  60  96 128 160 216 276 336 400
#
# _framework density 21.852276
#
# number of rings (size 3 to 8) (size 9 to 14) (size 15 to 20)
#    0.000    1.067    5.333    3.200    0.000    2.133 
#    9.600    1.333    0.000    0.000    0.000    0.000 
#    0.000    0.000    0.000    0.000    0.000    0.000 
#
# Total GULP energy -167333.491057 kJ/mol
# GULP energy per Si atom -5577.783035 kJ/mol
# Density = 2.180254 g / cm^3
# Si number density = 21.852276 Si / 1000 Ang^3
#
#
#
# Elastic Constant Matrix: (Units=GPa)
#
#
# Indices 1 2 3 4 5 6 
#
# 1 103.3174 33.7558 51.8897 0.0000 0.0000 0.0000
# 2 33.7558 83.3001 37.2364 0.0000 0.0000 0.0000
# 3 51.8897 37.2364 140.4497 0.0000 0.0000 0.0000
# 4 0.0000 0.0000 0.0000 10.5868 0.0000 0.0000
# 5 0.0000 0.0000 0.0000 0.0000 108.3398 0.0000
# 6 0.0000 0.0000 0.0000 0.0000 0.0000 19.8587
#
#
#
# Elastic Compliance Matrix: (Units=1/GPa)
#
#
# Indices 1 2 3 4 5 6 
#
# 1 0.012707 -0.003461 -0.003777 0.000000 0.000000 0.000000
# 2 -0.003461 0.014561 -0.002582 0.000000 0.000000 0.000000
# 3 -0.003777 -0.002582 0.009200 0.000000 0.000000 0.000000
# 4 0.000000 0.000000 0.000000 0.094457 0.000000 0.000000
# 5 0.000000 0.000000 0.000000 0.000000 0.009230 0.000000
# 6 0.000000 0.000000 0.000000 0.000000 0.000000 0.050356
#
#
# Mechanical properties :
#
#
# Convention : Reuss Voigt Hill
#
# Bulk Modulus (GPa) = 59.42296 63.64790 61.53543
# Shear Modulus (GPa) = 23.17388 41.36940 32.27164
#
# Velocity S-wave (km/s) = 3.26003 4.35574 3.84710
# Velocity P-wave (km/s) = 6.43603 7.38148 6.92491
#
# Compressibility (1/GPa) = 0.01682851
#
# Stress axis : x y z
#
# Youngs Moduli (GPa) = 78.69980 68.67491 108.69640
#
# Poissons Ratio (x) = 0.23767 0.41054
# Poissons Ratio (y) = 0.27236 0.28065
# Poissons Ratio (z) = 0.29725 0.17732
#
# Static dielectric constant tensor:
#      x y z
#    x 1.230360 0.000000 0.000000 
#    y 0.000000 1.863620 0.000000 
#    z 0.000000 0.000000 1.808710 
# 
# From -- ./inp_files/17396.got.cif
#   From: 2010.05.17/outbox.cif.g08.bks.cpg/sg70_9_cif.got.tgz:17396.got - 2010.06.03 15:57:51.
