data_PCOD9514632
_publ_section_title
;
Structure prediction by ZEFSAII (Michael W. Deem and Ramdas Pophale) SiO2 
 PCOD9514632
Probable space group: F D D D
;
_chemical_formula_sum "Si O2"
_cell_formula_units_Z 176
_cell_length_a 21.904553
_cell_length_b 24.892604
_cell_length_c 15.676540
_cell_angle_alpha 90.000000
_cell_angle_beta 90.000000
_cell_angle_gamma 90.000000
_cell_volume 8547.811577
_symmetry_space_group_name_H-M "F D D D"
_symmetry_group_IT_number 70
_space_group.IT_coordinate_system_code '2'
_symmetry_cell_setting 'orthorhombic'
loop_
_space_group_symop_operation_xyz
x,y,z
1/4-x,1/4-y,z
x,1/4-y,1/4-z
1/4-x,y,1/4-z
-x,-y,-z
3/4+x,3/4+y,-z
-x,3/4+y,3/4+z
3/4+x,-y,3/4+z
x,1/2+y,1/2+z
1/4-x,3/4-y,1/2+z
x,3/4-y,3/4-z
1/4-x,1/2+y,3/4-z
-x,1/2-y,1/2-z
3/4+x,1/4+y,1/2-z
-x,1/4+y,1/4+z
3/4+x,1/2-y,1/4+z
1/2+x,y,1/2+z
3/4-x,1/4-y,1/2+z
1/2+x,1/4-y,3/4-z
3/4-x,y,3/4-z
1/2-x,-y,1/2-z
1/4+x,3/4+y,1/2-z
1/2-x,3/4+y,1/4+z
1/4+x,-y,1/4+z
1/2+x,1/2+y,z
3/4-x,3/4-y,z
1/2+x,3/4-y,1/4-z
3/4-x,1/2+y,1/4-z
1/2-x,1/2-y,-z
1/4+x,1/4+y,-z
1/2-x,1/4+y,3/4+z
1/4+x,1/2-y,3/4+z
loop_
_atom_site_type_symbol
_atom_site_label
_atom_site_fract_x
_atom_site_fract_y
_atom_site_fract_z
Si Si1 0.977206 0.183785 0.794390
Si Si2 0.125000 0.734657 0.625000
Si Si3 0.069425 0.522928 0.178595
Si Si4 0.160564 0.503822 0.321178
Si Si5 0.905521 0.316388 0.203317
Si Si6 0.232722 0.435755 0.570295
O O1 0.955058 0.226247 0.866330
O O2 0.952218 0.203487 0.703229
O O3 0.957965 0.124687 0.816996
O O4 0.049730 0.193907 0.793178
O O5 0.093435 0.697927 0.697447
O O6 0.070702 0.771994 0.588048
O O7 0.125000 0.550515 0.125000
O O8 0.103643 0.496404 0.259072
O O9 0.017441 0.555196 0.229357
O O10 0.136927 0.519522 0.412811
O O11 0.875000 0.375000 0.191478
O O12 0.967555 0.313559 0.147822
#
# Coordination Sequence:
#
# PCOD9514632 Si02
#       6
#    32  16  32  32  32  32
#     4  10  19  38  63  95 132 167 204 270 342 390
#     4  12  27  42  64 102 130 178 231 276 328 414
#     4   9  20  38  63  94 130 166 214 269 326 403
#     4   9  19  36  64  89 125 165 215 264 322 396
#     4  11  22  45  68  91 132 178 226 277 331 396
#     4  11  24  40  71  96 136 177 219 279 341 400
#
# _framework density 20.590064999999999
#
# number of rings (size 3 to 8) (size 9 to 14) (size 15 to 20)
#    0.000    1.818    1.818    1.909    3.818    0.000 
#    0.000   19.091    0.000    0.000    0.000    0.000 
#    0.000    0.000    0.000    0.000    0.000    0.000 
#
# Total GULP energy -245058.183773 kJ/mol
# GULP energy per Si atom -5569.504177 kJ/mol
# Density = 2.054320 g / cm^3
# Si number density = 20.590065 Si / 1000 Ang^3
#
#
#
# Elastic Constant Matrix: (Units=GPa)
#
#
# Indices 1 2 3 4 5 6 
#
# 1 61.1192 19.7989 26.4181 0.0000 0.0000 0.0000
# 2 19.7989 64.5223 40.7312 0.0000 0.0000 0.0000
# 3 26.4181 40.7312 121.0191 0.0000 0.0000 0.0000
# 4 0.0000 0.0000 0.0000 26.7233 0.0000 0.0000
# 5 0.0000 0.0000 0.0000 0.0000 35.0253 0.0000
# 6 0.0000 0.0000 0.0000 0.0000 0.0000 18.7071
#
#
#
# Elastic Compliance Matrix: (Units=1/GPa)
#
#
# Indices 1 2 3 4 5 6 
#
# 1 0.018864 -0.004049 -0.002755 0.000000 0.000000 0.000000
# 2 -0.004049 0.020549 -0.006032 0.000000 0.000000 0.000000
# 3 -0.002755 -0.006032 0.010895 0.000000 0.000000 0.000000
# 4 0.000000 0.000000 0.000000 0.037421 0.000000 0.000000
# 5 0.000000 0.000000 0.000000 0.000000 0.028551 0.000000
# 6 0.000000 0.000000 0.000000 0.000000 0.000000 0.053456
#
#
# Mechanical properties :
#
#
# Convention : Reuss Voigt Hill
#
# Bulk Modulus (GPa) = 40.59310 46.72855 43.66082
# Shear Modulus (GPa) = 24.55559 26.73863 25.64711
#
# Velocity S-wave (km/s) = 3.45714 3.60754 3.53314
# Velocity P-wave (km/s) = 5.97440 6.33218 6.15589
#
# Compressibility (1/GPa) = 0.02463473
#
# Stress axis : x y z
#
# Youngs Moduli (GPa) = 53.01088 48.66409 91.78656
#
# Poissons Ratio (x) = 0.19705 0.25288
# Poissons Ratio (y) = 0.21466 0.55368
# Poissons Ratio (z) = 0.14605 0.29355
#
# Static dielectric constant tensor:
#      x y z
#    x 1.880870 0.000000 0.000000 
#    y 0.000000 1.693680 0.000000 
#    z 0.000000 0.000000 1.784250 
# 
# From -- ./inp_files/28778.got.cif
#   From: 2010.05.17/outbox.cif.g08.bks.cpg/sg70_15_cif.got.tgz:28778.got - 2010.06.03 15:57:51.
