data_PCOD9514789
_publ_section_title
;
Structure prediction by ZEFSAII (Michael W. Deem and Ramdas Pophale) SiO2 
 PCOD9514789
Probable space group: F D D D
;
_chemical_formula_sum "Si O2"
_cell_formula_units_Z 176
_cell_length_a 29.155951
_cell_length_b 22.964016
_cell_length_c 13.274465
_cell_angle_alpha 90.000000
_cell_angle_beta 90.000000
_cell_angle_gamma 90.000000
_cell_volume 8887.755100
_symmetry_space_group_name_H-M "F D D D"
_symmetry_group_IT_number 70
_space_group.IT_coordinate_system_code '2'
_symmetry_cell_setting 'orthorhombic'
loop_
_space_group_symop_operation_xyz
x,y,z
1/4-x,1/4-y,z
x,1/4-y,1/4-z
1/4-x,y,1/4-z
-x,-y,-z
3/4+x,3/4+y,-z
-x,3/4+y,3/4+z
3/4+x,-y,3/4+z
x,1/2+y,1/2+z
1/4-x,3/4-y,1/2+z
x,3/4-y,3/4-z
1/4-x,1/2+y,3/4-z
-x,1/2-y,1/2-z
3/4+x,1/4+y,1/2-z
-x,1/4+y,1/4+z
3/4+x,1/2-y,1/4+z
1/2+x,y,1/2+z
3/4-x,1/4-y,1/2+z
1/2+x,1/4-y,3/4-z
3/4-x,y,3/4-z
1/2-x,-y,1/2-z
1/4+x,3/4+y,1/2-z
1/2-x,3/4+y,1/4+z
1/4+x,-y,1/4+z
1/2+x,1/2+y,z
3/4-x,3/4-y,z
1/2+x,3/4-y,1/4-z
3/4-x,1/2+y,1/4-z
1/2-x,1/2-y,-z
1/4+x,1/4+y,-z
1/2-x,1/4+y,3/4+z
1/4+x,1/2-y,3/4+z
loop_
_atom_site_type_symbol
_atom_site_label
_atom_site_fract_x
_atom_site_fract_y
_atom_site_fract_z
Si Si1 0.096748 0.892792 0.489426
Si Si2 0.125000 0.963800 0.125000
Si Si3 0.294231 0.538071 0.756892
Si Si4 0.571912 0.108967 0.242933
Si Si5 0.987650 0.653250 0.372769
Si Si6 0.064087 0.779408 0.974194
O O1 0.090445 0.875000 0.375000
O O2 0.107355 0.831166 0.541347
O O3 0.050254 0.917124 0.537490
O O4 0.139703 0.936105 0.507730
O O5 0.083378 0.995104 0.070811
O O6 0.250000 0.500000 0.750000
O O7 0.280175 0.595560 0.818367
O O8 0.309206 0.548202 0.642225
O O9 0.625000 0.125000 0.262316
O O10 0.562129 0.125000 0.125000
O O11 0.535866 0.141110 0.317890
O O12 0.568142 0.039747 0.262770
O O13 0.979792 0.701355 0.459090
#
# Coordination Sequence:
#
# PCOD9514789 Si02
#       6
#    32  16  32  32  32  32
#     4  11  19  35  66 100 128 160 227 274 321 389
#     4  10  20  34  60  98 132 168 220 274 318 402
#     4  11  21  41  67 100 139 169 220 279 341 395
#     4  11  28  48  62  94 142 177 223 283 345 406
#     4  11  23  42  69 103 121 178 230 267 334 420
#     4  12  22  42  72  94 135 182 211 290 345 387
#
# _framework density 19.802524999999999
#
# number of rings (size 3 to 8) (size 9 to 14) (size 15 to 20)
#    0.000    0.909    7.273    1.091    5.091    0.727 
#    6.545    0.000    0.000    1.091    0.000    0.000 
#    0.000    0.000    0.000    0.000    0.000    0.000 
#
# Total GULP energy -245445.143574 kJ/mol
# GULP energy per Si atom -5578.298718 kJ/mol
# Density = 1.975745 g / cm^3
# Si number density = 19.802525 Si / 1000 Ang^3
#
#
#
# Elastic Constant Matrix: (Units=GPa)
#
#
# Indices 1 2 3 4 5 6 
#
# 1 155.0396 39.5590 71.6621 0.0000 0.0000 0.0000
# 2 39.5590 60.2231 22.3393 0.0000 0.0000 0.0000
# 3 71.6621 22.3393 157.8401 0.0000 0.0000 0.0000
# 4 0.0000 0.0000 0.0000 15.5425 0.0000 0.0000
# 5 0.0000 0.0000 0.0000 0.0000 42.6176 0.0000
# 6 0.0000 0.0000 0.0000 0.0000 0.0000 43.1609
#
#
#
# Elastic Compliance Matrix: (Units=1/GPa)
#
#
# Indices 1 2 3 4 5 6 
#
# 1 0.009316 -0.004803 -0.003550 0.000000 0.000000 0.000000
# 2 -0.004803 0.020001 -0.000650 0.000000 0.000000 0.000000
# 3 -0.003550 -0.000650 0.008039 0.000000 0.000000 0.000000
# 4 0.000000 0.000000 0.000000 0.064340 0.000000 0.000000
# 5 0.000000 0.000000 0.000000 0.000000 0.023464 0.000000
# 6 0.000000 0.000000 0.000000 0.000000 0.000000 0.023169
#
#
# Mechanical properties :
#
#
# Convention : Reuss Voigt Hill
#
# Bulk Modulus (GPa) = 51.67814 71.13596 61.40705
# Shear Modulus (GPa) = 28.93751 36.23369 32.58560
#
# Velocity S-wave (km/s) = 3.82685 4.28220 4.06091
# Velocity P-wave (km/s) = 6.75868 7.77498 7.28457
#
# Compressibility (1/GPa) = 0.01935054
#
# Stress axis : x y z
#
# Youngs Moduli (GPa) = 107.33883 49.99763 124.38866
#
# Poissons Ratio (x) = 0.24013 0.44158
# Poissons Ratio (y) = 0.51552 0.08088
# Poissons Ratio (z) = 0.38105 0.03251
#
# Static dielectric constant tensor:
#      x y z
#    x 1.720740 0.000000 0.000000 
#    y 0.000000 1.703140 0.000000 
#    z 0.000000 0.000000 1.293640 
# 
# From -- ./inp_files/22280.got.cif
#   From: 2010.05.17/outbox.cif.g08.bks.cpg/sg70_12_cif.got.tgz:22280.got - 2010.06.03 15:57:51.
