data_PCOD9514244
_publ_section_title
;
Structure prediction by ZEFSAII (Michael W. Deem and Ramdas Pophale) SiO2 
 PCOD9514244
Probable space group: F D D D
;
_chemical_formula_sum "Si O2"
_cell_formula_units_Z 160
_cell_length_a 13.245403
_cell_length_b 28.159629
_cell_length_c 18.752779
_cell_angle_alpha 90.000000
_cell_angle_beta 90.000000
_cell_angle_gamma 90.000000
_cell_volume 6994.517173
_symmetry_space_group_name_H-M "F D D D"
_symmetry_group_IT_number 70
_space_group.IT_coordinate_system_code '2'
_symmetry_cell_setting 'orthorhombic'
loop_
_space_group_symop_operation_xyz
x,y,z
1/4-x,1/4-y,z
x,1/4-y,1/4-z
1/4-x,y,1/4-z
-x,-y,-z
3/4+x,3/4+y,-z
-x,3/4+y,3/4+z
3/4+x,-y,3/4+z
x,1/2+y,1/2+z
1/4-x,3/4-y,1/2+z
x,3/4-y,3/4-z
1/4-x,1/2+y,3/4-z
-x,1/2-y,1/2-z
3/4+x,1/4+y,1/2-z
-x,1/4+y,1/4+z
3/4+x,1/2-y,1/4+z
1/2+x,y,1/2+z
3/4-x,1/4-y,1/2+z
1/2+x,1/4-y,3/4-z
3/4-x,y,3/4-z
1/2-x,-y,1/2-z
1/4+x,3/4+y,1/2-z
1/2-x,3/4+y,1/4+z
1/4+x,-y,1/4+z
1/2+x,1/2+y,z
3/4-x,3/4-y,z
1/2+x,3/4-y,1/4-z
3/4-x,1/2+y,1/4-z
1/2-x,1/2-y,-z
1/4+x,1/4+y,-z
1/2-x,1/4+y,3/4+z
1/4+x,1/2-y,3/4+z
loop_
_atom_site_type_symbol
_atom_site_label
_atom_site_fract_x
_atom_site_fract_y
_atom_site_fract_z
Si Si1 0.992299 0.469459 0.394615
Si Si2 0.558945 0.683588 0.283782
Si Si3 0.875000 0.375000 0.100624
Si Si4 0.375000 0.283549 0.375000
Si Si5 0.293470 0.044640 0.985104
Si Si6 0.994490 0.442042 0.999372
O O1 0.875000 0.475068 0.375000
O O2 0.992611 0.428566 0.456096
O O3 0.029814 0.516046 0.434007
O O4 0.049030 0.466047 0.319943
O O5 0.540570 0.646648 0.346770
O O6 0.680711 0.685763 0.273711
O O7 0.833197 0.332260 0.053079
O O8 0.311812 0.249291 0.320205
O O9 0.298317 0.315416 0.420457
O O10 0.395126 0.075374 0.976900
O O11 0.000000 0.500000 0.000000
#
# Coordination Sequence:
#
# PCOD9514244 Si02
#       6
#    32  32  16  16  32  32
#     4   9  19  37  64  97 128 179 234 282 359 436
#     4  10  20  37  62  91 136 173 224 296 349 433
#     4  12  24  41  65 100 138 176 242 296 352 436
#     4  10  18  33  64  94 130 176 230 282 350 428
#     4  10  18  36  64  93 126 183 230 271 363 436
#     4  10  22  39  66  96 133 184 230 291 364 434
#
# _framework density 22.875060000000001
#
# number of rings (size 3 to 8) (size 9 to 14) (size 15 to 20)
#    0.000    2.000    0.000    6.000    0.000    0.400 
#    3.600    4.500    4.400    0.000    0.000    0.000 
#    0.000    0.000    0.000    0.000    0.000    0.000 
#
# Total GULP energy -222788.911067 kJ/mol
# GULP energy per Si atom -5569.722777 kJ/mol
# Density = 2.282299 g / cm^3
# Si number density = 22.875060 Si / 1000 Ang^3
#
#
#
# Elastic Constant Matrix: (Units=GPa)
#
#
# Indices 1 2 3 4 5 6 
#
# 1 8.4420 -2.4651 22.2742 0.0000 0.0000 0.0000
# 2 -2.4651 57.7461 44.7566 0.0000 0.0000 0.0000
# 3 22.2742 44.7566 173.9025 0.0000 0.0000 0.0000
# 4 0.0000 0.0000 0.0000 7.2820 0.0000 0.0000
# 5 0.0000 0.0000 0.0000 0.0000 30.8626 0.0000
# 6 0.0000 0.0000 0.0000 0.0000 0.0000 29.6201
#
#
#
# Elastic Compliance Matrix: (Units=1/GPa)
#
#
# Indices 1 2 3 4 5 6 
#
# 1 0.241822 0.042884 -0.042010 0.000000 0.000000 0.000000
# 2 0.042884 0.029237 -0.013017 0.000000 0.000000 0.000000
# 3 -0.042010 -0.013017 0.014481 0.000000 0.000000 0.000000
# 4 0.000000 0.000000 0.000000 0.137325 0.000000 0.000000
# 5 0.000000 0.000000 0.000000 0.000000 0.032402 0.000000
# 6 0.000000 0.000000 0.000000 0.000000 0.000000 0.033761
#
#
# Mechanical properties :
#
#
# Convention : Reuss Voigt Hill
#
# Bulk Modulus (GPa) = 3.82772 41.02468 22.42620
# Shear Modulus (GPa) = 8.32778 25.25460 16.79119
#
# Velocity S-wave (km/s) = 1.91009 3.32629 2.71225
# Velocity P-wave (km/s) = 2.55765 5.72062 4.43097
#
# Compressibility (1/GPa) = 0.26125183
#
# Stress axis : x y z
#
# Youngs Moduli (GPa) = 4.13528 34.20321 69.05381
#
# Poissons Ratio (x) = -1.46676 2.90098
# Poissons Ratio (y) = -0.17734 0.89890
# Poissons Ratio (z) = 0.17372 0.44523
#
# Static dielectric constant tensor:
#      x y z
#    x 1.904520 0.000000 0.000000 
#    y 0.000000 1.931710 0.000000 
#    z 0.000000 0.000000 1.984200 
# 
# From -- ./inp_files/34024.got.cif
#   From: 2010.05.17/outbox.cif.g08.bks.cpg/sg70_18_cif.got.tgz:34024.got - 2010.06.03 15:57:51.
