data_PCOD9514502
_publ_section_title
;
Structure prediction by ZEFSAII (Michael W. Deem and Ramdas Pophale) SiO2 
 PCOD9514502
Probable space group: F D D D
;
_chemical_formula_sum "Si O2"
_cell_formula_units_Z 208
_cell_length_a 20.567989
_cell_length_b 28.475953
_cell_length_c 19.384853
_cell_angle_alpha 90.000000
_cell_angle_beta 90.000000
_cell_angle_gamma 90.000000
_cell_volume 11353.574415
_symmetry_space_group_name_H-M "F D D D"
_symmetry_group_IT_number 70
_space_group.IT_coordinate_system_code '2'
_symmetry_cell_setting 'orthorhombic'
loop_
_space_group_symop_operation_xyz
x,y,z
1/4-x,1/4-y,z
x,1/4-y,1/4-z
1/4-x,y,1/4-z
-x,-y,-z
3/4+x,3/4+y,-z
-x,3/4+y,3/4+z
3/4+x,-y,3/4+z
x,1/2+y,1/2+z
1/4-x,3/4-y,1/2+z
x,3/4-y,3/4-z
1/4-x,1/2+y,3/4-z
-x,1/2-y,1/2-z
3/4+x,1/4+y,1/2-z
-x,1/4+y,1/4+z
3/4+x,1/2-y,1/4+z
1/2+x,y,1/2+z
3/4-x,1/4-y,1/2+z
1/2+x,1/4-y,3/4-z
3/4-x,y,3/4-z
1/2-x,-y,1/2-z
1/4+x,3/4+y,1/2-z
1/2-x,3/4+y,1/4+z
1/4+x,-y,1/4+z
1/2+x,1/2+y,z
3/4-x,3/4-y,z
1/2+x,3/4-y,1/4-z
3/4-x,1/2+y,1/4-z
1/2-x,1/2-y,-z
1/4+x,1/4+y,-z
1/2-x,1/4+y,3/4+z
1/4+x,1/2-y,3/4+z
loop_
_atom_site_type_symbol
_atom_site_label
_atom_site_fract_x
_atom_site_fract_y
_atom_site_fract_z
Si Si1 0.623092 0.804551 0.924225
Si Si2 0.989920 0.906644 0.934801
Si Si3 0.561546 0.158365 0.463037
Si Si4 0.443375 0.775985 0.663717
Si Si5 0.683857 0.209538 0.070239
Si Si6 0.268281 0.125000 0.625000
Si Si7 0.615669 0.235014 0.704061
O O1 0.691427 0.827404 0.905317
O O2 0.602315 0.763026 0.872288
O O3 0.566043 0.843112 0.921781
O O4 0.635031 0.780128 0.997635
O O5 0.956345 0.875000 0.875000
O O6 0.948211 0.952142 0.955108
O O7 0.993712 0.873244 0.001793
O O8 0.625000 0.125000 0.461597
O O9 0.551040 0.180225 0.388091
O O10 0.578136 0.201620 0.514163
O O11 0.416438 0.788489 0.739292
O O12 0.514148 0.751600 0.669401
O O13 0.625000 0.212967 0.125000
O O14 0.722873 0.161336 0.084384
O O15 0.625000 0.247563 0.625000
#
# Coordination Sequence:
#
# PCOD9514502 Si02
#       7
#    32  32  32  32  32  16  32
#     4  10  21  38  56  81 119 151 187 248 299 352
#     4  11  19  32  58  83 112 159 195 227 299 371
#     4   9  19  33  56  85 117 153 187 235 284 351
#     4   9  21  41  58  87 120 148 199 253 295 356
#     4  10  21  40  65  84 110 157 202 248 307 365
#     4  10  21  40  58  82 115 150 200 254 308 352
#     4  10  19  35  54  80 116 150 191 230 283 362
#
# _framework density 18.320221
#
# number of rings (size 3 to 8) (size 9 to 14) (size 15 to 20)
#    0.000    2.154    2.308    0.692    0.000    2.462 
#    8.308    0.000    0.000    0.000    0.000    0.000 
#    0.000    0.000    0.000    0.000    0.000    0.000 
#
# Total GULP energy -289875.103626 kJ/mol
# GULP energy per Si atom -5574.521224 kJ/mol
# Density = 1.827852 g / cm^3
# Si number density = 18.320221 Si / 1000 Ang^3
#
#
#
# Elastic Constant Matrix: (Units=GPa)
#
#
# Indices 1 2 3 4 5 6 
#
# 1 68.8009 21.8793 36.2205 0.0000 0.0000 0.0000
# 2 21.8793 82.9707 50.2960 0.0000 0.0000 0.0000
# 3 36.2205 50.2960 150.6646 0.0000 0.0000 0.0000
# 4 0.0000 0.0000 0.0000 31.0691 0.0000 0.0000
# 5 0.0000 0.0000 0.0000 0.0000 22.7778 0.0000
# 6 0.0000 0.0000 0.0000 0.0000 0.0000 11.3747
#
#
#
# Elastic Compliance Matrix: (Units=1/GPa)
#
#
# Indices 1 2 3 4 5 6 
#
# 1 0.017052 -0.002522 -0.003257 0.000000 0.000000 0.000000
# 2 -0.002522 0.015483 -0.004562 0.000000 0.000000 0.000000
# 3 -0.003257 -0.004562 0.008943 0.000000 0.000000 0.000000
# 4 0.000000 0.000000 0.000000 0.032186 0.000000 0.000000
# 5 0.000000 0.000000 0.000000 0.000000 0.043902 0.000000
# 6 0.000000 0.000000 0.000000 0.000000 0.000000 0.087915
#
#
# Mechanical properties :
#
#
# Convention : Reuss Voigt Hill
#
# Bulk Modulus (GPa) = 48.08918 57.69199 52.89058
# Shear Modulus (GPa) = 21.45035 25.98035 23.71535
#
# Velocity S-wave (km/s) = 3.42549 3.76988 3.60181
# Velocity P-wave (km/s) = 6.47700 7.10694 6.79927
#
# Compressibility (1/GPa) = 0.02079470
#
# Stress axis : x y z
#
# Youngs Moduli (GPa) = 58.64575 64.58630 111.81398
#
# Poissons Ratio (x) = 0.16288 0.36422
# Poissons Ratio (y) = 0.14790 0.51014
# Poissons Ratio (z) = 0.19103 0.29467
#
# Static dielectric constant tensor:
#      x y z
#    x 1.639620 0.000000 0.000000 
#    y 0.000000 1.639670 0.000000 
#    z 0.000000 0.000000 1.634760 
# 
# From -- ./inp_files/37814.got.cif
#   From: 2010.05.17/outbox.cif.g08.bks.cpg/sg70_19_cif.got.tgz:37814.got - 2010.06.03 15:57:51.
