data_PCOD9514091
_publ_section_title
;
Structure prediction by ZEFSAII (Michael W. Deem and Ramdas Pophale) SiO2 
 PCOD9514091
Probable space group: F D D D
;
_chemical_formula_sum "Si O2"
_cell_formula_units_Z 120
_cell_length_a 22.954761
_cell_length_b 19.853443
_cell_length_c 13.376577
_cell_angle_alpha 90.000000
_cell_angle_beta 90.000000
_cell_angle_gamma 90.000000
_cell_volume 6096.121336
_symmetry_space_group_name_H-M "F D D D"
_symmetry_group_IT_number 70
_space_group.IT_coordinate_system_code '2'
_symmetry_cell_setting 'orthorhombic'
loop_
_space_group_symop_operation_xyz
x,y,z
1/4-x,1/4-y,z
x,1/4-y,1/4-z
1/4-x,y,1/4-z
-x,-y,-z
3/4+x,3/4+y,-z
-x,3/4+y,3/4+z
3/4+x,-y,3/4+z
x,1/2+y,1/2+z
1/4-x,3/4-y,1/2+z
x,3/4-y,3/4-z
1/4-x,1/2+y,3/4-z
-x,1/2-y,1/2-z
3/4+x,1/4+y,1/2-z
-x,1/4+y,1/4+z
3/4+x,1/2-y,1/4+z
1/2+x,y,1/2+z
3/4-x,1/4-y,1/2+z
1/2+x,1/4-y,3/4-z
3/4-x,y,3/4-z
1/2-x,-y,1/2-z
1/4+x,3/4+y,1/2-z
1/2-x,3/4+y,1/4+z
1/4+x,-y,1/4+z
1/2+x,1/2+y,z
3/4-x,3/4-y,z
1/2+x,3/4-y,1/4-z
3/4-x,1/2+y,1/4-z
1/2-x,1/2-y,-z
1/4+x,1/4+y,-z
1/2-x,1/4+y,3/4+z
1/4+x,1/2-y,3/4+z
loop_
_atom_site_type_symbol
_atom_site_label
_atom_site_fract_x
_atom_site_fract_y
_atom_site_fract_z
Si Si1 0.832521 0.813214 0.521195
Si Si2 0.466366 0.546664 0.374923
Si Si3 0.625000 0.402705 0.125000
Si Si4 0.425115 0.263527 0.017739
Si Si5 0.375000 0.375000 0.875000
O O1 0.875000 0.875000 0.496147
O O2 0.820933 0.757098 0.437571
O O3 0.765727 0.831281 0.553428
O O4 0.854429 0.778568 0.624544
O O5 0.425319 0.604305 0.334056
O O6 0.506517 0.509471 0.293941
O O7 0.599592 0.449230 0.211995
O O8 0.412913 0.326926 0.946087
#
# Coordination Sequence:
#
# PCOD9514091 Si02
#       5
#    32  32  16  32   8
#     4   9  18  41  67  88 125 165 213 257 314 371
#     4   9  21  39  59  97 122 164 210 253 311 375
#     4  11  22  37  63  96 125 160 208 258 321 372
#     4   9  19  38  61  91 128 158 207 262 308 373
#     4  10  16  36  68  88 130 166 198 264 320 380
#
# _framework density 19.684647999999999
#
# number of rings (size 3 to 8) (size 9 to 14) (size 15 to 20)
#    1.600    1.067    1.333    0.000    0.000    3.200 
#    0.000   18.000    0.000    0.000    0.000    0.000 
#    0.000    0.000    0.000    0.000    0.000    0.000 
#
# Total GULP energy -167003.049635 kJ/mol
# GULP energy per Si atom -5566.768321 kJ/mol
# Density = 1.963984 g / cm^3
# Si number density = 19.684648 Si / 1000 Ang^3
#
#
#
# Elastic Constant Matrix: (Units=GPa)
#
#
# Indices 1 2 3 4 5 6 
#
# 1 107.0456 88.6134 60.1406 0.0000 0.0000 0.0000
# 2 88.6134 131.0633 65.8801 0.0000 0.0000 0.0000
# 3 60.1406 65.8801 112.8942 0.0000 0.0000 0.0000
# 4 0.0000 0.0000 0.0000 1.6426 0.0000 0.0000
# 5 0.0000 0.0000 0.0000 0.0000 -62.6956 0.0000
# 6 0.0000 0.0000 0.0000 0.0000 0.0000 37.5757
#
#
#
# Elastic Compliance Matrix: (Units=1/GPa)
#
#
# Indices 1 2 3 4 5 6 
#
# 1 0.022684 -0.013108 -0.004435 0.000000 0.000000 0.000000
# 2 -0.013108 0.018371 -0.003738 0.000000 0.000000 0.000000
# 3 -0.004435 -0.003738 0.013402 0.000000 0.000000 0.000000
# 4 0.000000 0.000000 0.000000 0.608783 0.000000 0.000000
# 5 0.000000 0.000000 0.000000 0.000000 -0.015950 0.000000
# 6 0.000000 0.000000 0.000000 0.000000 0.000000 0.026613
#
#
# Mechanical properties :
#
#
# Convention : Reuss Voigt Hill
#
# Bulk Modulus (GPa) = 84.06461 86.69680 85.38071
# Shear Modulus (GPa) = 6.94030 4.39580 5.66805
#
# Velocity S-wave (km/s) = 1.87973 1.49598 1.69873
# Velocity P-wave (km/s) = 6.89272 6.86458 6.87866
#
# Compressibility (1/GPa) = 0.01189561
#
# Stress axis : x y z
#
# Youngs Moduli (GPa) = 44.08325 54.43344 74.61686
#
# Poissons Ratio (x) = 0.71350 0.33094
# Poissons Ratio (y) = 0.57783 0.27891
# Poissons Ratio (z) = 0.19552 0.20346
#
# Static dielectric constant tensor:
#      x y z
#    x 1.719070 0.000000 0.000000 
#    y 0.000000 1.674590 0.000000 
#    z 0.000000 0.000000 1.711170 
# 
# From -- ./inp_files/29718.got.cif
#   From: 2010.05.17/outbox.cif.g08.bks.cpg/sg70_15_cif.got.tgz:29718.got - 2010.06.03 15:57:51.
