data_PCOD9514188
_publ_section_title
;
Structure prediction by ZEFSAII (Michael W. Deem and Ramdas Pophale) SiO2 
 PCOD9514188
Probable space group: F D D D
;
_chemical_formula_sum "Si O2"
_cell_formula_units_Z 160
_cell_length_a 20.649075
_cell_length_b 14.290031
_cell_length_c 23.776257
_cell_angle_alpha 90.000000
_cell_angle_beta 90.000000
_cell_angle_gamma 90.000000
_cell_volume 7015.800953
_symmetry_space_group_name_H-M "F D D D"
_symmetry_group_IT_number 70
_space_group.IT_coordinate_system_code '2'
_symmetry_cell_setting 'orthorhombic'
loop_
_space_group_symop_operation_xyz
x,y,z
1/4-x,1/4-y,z
x,1/4-y,1/4-z
1/4-x,y,1/4-z
-x,-y,-z
3/4+x,3/4+y,-z
-x,3/4+y,3/4+z
3/4+x,-y,3/4+z
x,1/2+y,1/2+z
1/4-x,3/4-y,1/2+z
x,3/4-y,3/4-z
1/4-x,1/2+y,3/4-z
-x,1/2-y,1/2-z
3/4+x,1/4+y,1/2-z
-x,1/4+y,1/4+z
3/4+x,1/2-y,1/4+z
1/2+x,y,1/2+z
3/4-x,1/4-y,1/2+z
1/2+x,1/4-y,3/4-z
3/4-x,y,3/4-z
1/2-x,-y,1/2-z
1/4+x,3/4+y,1/2-z
1/2-x,3/4+y,1/4+z
1/4+x,-y,1/4+z
1/2+x,1/2+y,z
3/4-x,3/4-y,z
1/2+x,3/4-y,1/4-z
3/4-x,1/2+y,1/4-z
1/2-x,1/2-y,-z
1/4+x,1/4+y,-z
1/2-x,1/4+y,3/4+z
1/4+x,1/2-y,3/4+z
loop_
_atom_site_type_symbol
_atom_site_label
_atom_site_fract_x
_atom_site_fract_y
_atom_site_fract_z
Si Si1 0.169208 0.328212 0.253126
Si Si2 0.430649 0.797868 0.596238
Si Si3 0.052997 0.124909 0.460951
Si Si4 0.476283 0.975145 0.346319
Si Si5 0.965500 0.079589 0.959904
O O1 0.159632 0.295818 0.316520
O O2 0.237020 0.382069 0.246241
O O3 0.178943 0.241610 0.207193
O O4 0.100750 0.369171 0.234909
O O5 0.375000 0.875000 0.590227
O O6 0.448883 0.798369 0.661201
O O7 0.487830 0.835691 0.556272
O O8 0.125000 0.125000 0.486515
O O9 0.040861 0.223183 0.426671
O O10 0.485002 0.875000 0.375000
O O11 0.452050 0.714837 0.350980
O O12 0.000000 0.000000 0.000000
#
# Coordination Sequence:
#
# PCOD9514188 Si02
#       5
#    32  32  32  32  32
#     4  10  20  29  48  71 101 142 171 210 269 313
#     4  10  18  31  46  73 105 138 170 208 259 328
#     4   8  19  34  48  67 106 141 177 212 260 315
#     4   9  19  29  45  73 102 137 168 204 265 327
#     4  11  19  28  46  73 109 132 165 210 263 334
#
# _framework density 22.805664
#
# number of rings (size 3 to 8) (size 9 to 14) (size 15 to 20)
#    1.200    1.200    2.000    1.800    0.000    0.800 
#    0.000    0.000    0.000    1.200    0.000    0.000 
#    0.000    0.000    0.000    0.000    0.000    0.000 
#
# Total GULP energy -222736.513449 kJ/mol
# GULP energy per Si atom -5568.412836 kJ/mol
# Density = 2.275376 g / cm^3
# Si number density = 22.805664 Si / 1000 Ang^3
#
#
#
# Elastic Constant Matrix: (Units=GPa)
#
#
# Indices 1 2 3 4 5 6 
#
# 1 152.6470 -1.7482 7.9215 0.0000 0.0000 0.0000
# 2 -1.7482 26.2548 6.7470 0.0000 0.0000 0.0000
# 3 7.9215 6.7470 78.5414 0.0000 0.0000 0.0000
# 4 0.0000 0.0000 0.0000 4.8942 0.0000 0.0000
# 5 0.0000 0.0000 0.0000 0.0000 8.6004 0.0000
# 6 0.0000 0.0000 0.0000 0.0000 0.0000 11.4088
#
#
#
# Elastic Compliance Matrix: (Units=1/GPa)
#
#
# Indices 1 2 3 4 5 6 
#
# 1 0.006596 0.000624 -0.000719 0.000000 0.000000 0.000000
# 2 0.000624 0.039007 -0.003414 0.000000 0.000000 0.000000
# 3 -0.000719 -0.003414 0.013098 0.000000 0.000000 0.000000
# 4 0.000000 0.000000 0.000000 0.204323 0.000000 0.000000
# 5 0.000000 0.000000 0.000000 0.000000 0.116274 0.000000
# 6 0.000000 0.000000 0.000000 0.000000 0.000000 0.087652
#
#
# Mechanical properties :
#
#
# Convention : Reuss Voigt Hill
#
# Bulk Modulus (GPa) = 19.34867 31.47599 25.41233
# Shear Modulus (GPa) = 10.17927 21.28220 15.73074
#
# Velocity S-wave (km/s) = 2.11499 3.05814 2.62920
# Velocity P-wave (km/s) = 3.80352 5.12849 4.51488
#
# Compressibility (1/GPa) = 0.05168313
#
# Stress axis : x y z
#
# Youngs Moduli (GPa) = 151.61833 25.63631 76.34814
#
# Poissons Ratio (x) = -0.01599 0.05488
# Poissons Ratio (y) = -0.09459 0.26064
# Poissons Ratio (z) = 0.10898 0.08752
#
# Static dielectric constant tensor:
#      x y z
#    x 1.949990 0.000000 0.000000 
#    y 0.000000 1.165420 0.000000 
#    z 0.000000 0.000000 1.863900 
# 
# From -- ./inp_files/67240.got.cif
#   From: 2010.05.17/outbox.cif.g08.bks.cpg/sg70_34_cif.got.tgz:67240.got - 2010.06.03 15:57:51.
