data_PCOD9514226
_publ_section_title
;
Structure prediction by ZEFSAII (Michael W. Deem and Ramdas Pophale) SiO2 
 PCOD9514226
Probable space group: F D D D
;
_chemical_formula_sum "Si O2"
_cell_formula_units_Z 160
_cell_length_a 19.850140
_cell_length_b 33.614410
_cell_length_c 13.702097
_cell_angle_alpha 90.000000
_cell_angle_beta 90.000000
_cell_angle_gamma 90.000000
_cell_volume 9142.734425
_symmetry_space_group_name_H-M "F D D D"
_symmetry_group_IT_number 70
_space_group.IT_coordinate_system_code '2'
_symmetry_cell_setting 'orthorhombic'
loop_
_space_group_symop_operation_xyz
x,y,z
1/4-x,1/4-y,z
x,1/4-y,1/4-z
1/4-x,y,1/4-z
-x,-y,-z
3/4+x,3/4+y,-z
-x,3/4+y,3/4+z
3/4+x,-y,3/4+z
x,1/2+y,1/2+z
1/4-x,3/4-y,1/2+z
x,3/4-y,3/4-z
1/4-x,1/2+y,3/4-z
-x,1/2-y,1/2-z
3/4+x,1/4+y,1/2-z
-x,1/4+y,1/4+z
3/4+x,1/2-y,1/4+z
1/2+x,y,1/2+z
3/4-x,1/4-y,1/2+z
1/2+x,1/4-y,3/4-z
3/4-x,y,3/4-z
1/2-x,-y,1/2-z
1/4+x,3/4+y,1/2-z
1/2-x,3/4+y,1/4+z
1/4+x,-y,1/4+z
1/2+x,1/2+y,z
3/4-x,3/4-y,z
1/2+x,3/4-y,1/4-z
3/4-x,1/2+y,1/4-z
1/2-x,1/2-y,-z
1/4+x,1/4+y,-z
1/2-x,1/4+y,3/4+z
1/4+x,1/2-y,3/4+z
loop_
_atom_site_type_symbol
_atom_site_label
_atom_site_fract_x
_atom_site_fract_y
_atom_site_fract_z
Si Si1 0.130918 0.403900 0.967008
Si Si2 0.093322 0.667708 0.484563
Si Si3 0.768635 0.799462 0.085943
Si Si4 0.269301 0.634141 0.893562
Si Si5 0.767325 0.710331 0.132565
O O1 0.134306 0.375000 0.875000
O O2 0.164624 0.445211 0.934114
O O3 0.057113 0.402612 0.014112
O O4 0.179930 0.387859 0.051907
O O5 0.125000 0.625000 0.514913
O O6 0.154243 0.695401 0.449994
O O7 0.045246 0.687054 0.566751
O O8 0.046468 0.657446 0.391882
O O9 0.748484 0.837520 0.150116
O O10 0.757519 0.757552 0.138006
O O11 0.729295 0.799650 0.982532
#
# Coordination Sequence:
#
# PCOD9514226 Si02
#       5
#    32  32  32  32  32
#     4  10  18  33  52  75 109 140 179 222 264 333
#     4   9  19  34  55  75 106 144 179 217 271 329
#     4  10  19  33  50  80 109 132 174 231 272 325
#     4   9  19  33  54  77 103 144 183 212 266 329
#     4  10  20  31  50  81 109 135 172 223 293 317
#
# _framework density 17.500233999999999
#
# number of rings (size 3 to 8) (size 9 to 14) (size 15 to 20)
#    0.000    2.400    2.000    0.600    0.000    4.000 
#    3.600    1.000    0.000   10.200    0.000    0.000 
#    0.000    0.000    0.000    0.000    0.000    0.000 
#
# Total GULP energy -222944.731045 kJ/mol
# GULP energy per Si atom -5573.618276 kJ/mol
# Density = 1.746040 g / cm^3
# Si number density = 17.500234 Si / 1000 Ang^3
#
#
#
# Elastic Constant Matrix: (Units=GPa)
#
#
# Indices 1 2 3 4 5 6 
#
# 1 61.8879 35.3429 30.7392 0.0000 0.0000 0.0000
# 2 35.3429 103.3036 33.2095 0.0000 0.0000 0.0000
# 3 30.7392 33.2095 56.3718 0.0000 0.0000 0.0000
# 4 0.0000 0.0000 0.0000 17.1801 0.0000 0.0000
# 5 0.0000 0.0000 0.0000 0.0000 15.2764 0.0000
# 6 0.0000 0.0000 0.0000 0.0000 0.0000 18.4030
#
#
#
# Elastic Compliance Matrix: (Units=1/GPa)
#
#
# Indices 1 2 3 4 5 6 
#
# 1 0.024051 -0.004950 -0.010199 0.000000 0.000000 0.000000
# 2 -0.004950 0.012960 -0.004936 0.000000 0.000000 0.000000
# 3 -0.010199 -0.004936 0.026209 0.000000 0.000000 0.000000
# 4 0.000000 0.000000 0.000000 0.058207 0.000000 0.000000
# 5 0.000000 0.000000 0.000000 0.000000 0.065461 0.000000
# 6 0.000000 0.000000 0.000000 0.000000 0.000000 0.054339
#
#
# Mechanical properties :
#
#
# Convention : Reuss Voigt Hill
#
# Bulk Modulus (GPa) = 43.38295 46.68294 45.03295
# Shear Modulus (GPa) = 17.29633 18.32334 17.80984
#
# Velocity S-wave (km/s) = 3.14721 3.23930 3.19359
# Velocity P-wave (km/s) = 6.16850 6.38156 6.27593
#
# Compressibility (1/GPa) = 0.02305053
#
# Stress axis : x y z
#
# Youngs Moduli (GPa) = 41.57913 77.15765 38.15542
#
# Poissons Ratio (x) = 0.38191 0.38913
# Poissons Ratio (y) = 0.20580 0.18834
# Poissons Ratio (z) = 0.42405 0.38086
#
# Static dielectric constant tensor:
#      x y z
#    x 1.637620 0.000000 0.000000 
#    y 0.000000 1.595150 0.000000 
#    z 0.000000 0.000000 1.593010 
# 
# From -- ./inp_files/19507.got.cif
#   From: 2010.05.17/outbox.cif.g08.bks.cpg/sg70_10_cif.got.tgz:19507.got - 2010.06.03 15:57:51.
