data_PCOD9514826
_publ_section_title
;
Structure prediction by ZEFSAII (Michael W. Deem and Ramdas Pophale) SiO2 
 PCOD9514826
Probable space group: F D D D
;
_chemical_formula_sum "Si O2"
_cell_formula_units_Z 96
_cell_length_a 17.957698
_cell_length_b 27.489445
_cell_length_c 8.114671
_cell_angle_alpha 90.000000
_cell_angle_beta 90.000000
_cell_angle_gamma 90.000000
_cell_volume 4005.784224
_symmetry_space_group_name_H-M "F D D D"
_symmetry_group_IT_number 70
_space_group.IT_coordinate_system_code '2'
_symmetry_cell_setting 'orthorhombic'
loop_
_space_group_symop_operation_xyz
x,y,z
1/4-x,1/4-y,z
x,1/4-y,1/4-z
1/4-x,y,1/4-z
-x,-y,-z
3/4+x,3/4+y,-z
-x,3/4+y,3/4+z
3/4+x,-y,3/4+z
x,1/2+y,1/2+z
1/4-x,3/4-y,1/2+z
x,3/4-y,3/4-z
1/4-x,1/2+y,3/4-z
-x,1/2-y,1/2-z
3/4+x,1/4+y,1/2-z
-x,1/4+y,1/4+z
3/4+x,1/2-y,1/4+z
1/2+x,y,1/2+z
3/4-x,1/4-y,1/2+z
1/2+x,1/4-y,3/4-z
3/4-x,y,3/4-z
1/2-x,-y,1/2-z
1/4+x,3/4+y,1/2-z
1/2-x,3/4+y,1/4+z
1/4+x,-y,1/4+z
1/2+x,1/2+y,z
3/4-x,3/4-y,z
1/2+x,3/4-y,1/4-z
3/4-x,1/2+y,1/4-z
1/2-x,1/2-y,-z
1/4+x,1/4+y,-z
1/2-x,1/4+y,3/4+z
1/4+x,1/2-y,3/4+z
loop_
_atom_site_type_symbol
_atom_site_label
_atom_site_fract_x
_atom_site_fract_y
_atom_site_fract_z
Si Si1 0.625000 0.551453 0.625000
Si Si2 0.875000 0.619007 0.875000
Si Si3 0.757997 0.125000 0.625000
Si Si4 0.743820 0.875000 0.375000
Si Si5 0.180097 0.216339 0.978662
O O1 0.551677 0.583110 0.576708
O O2 0.646676 0.526943 0.453223
O O3 0.934537 0.595746 0.746286
O O4 0.814552 0.645304 0.759639
O O5 0.706873 0.160980 0.518643
O O6 0.125000 0.229214 0.125000
O O7 0.250000 0.250000 0.000000
#
# Coordination Sequence:
#
# PCOD9514826 Si02
#       5
#    16  16  16  16  32
#     4  11  24  47  72 109 152 192 254 315 392 454
#     4  10  20  35  72 103 144 185 249 305 372 463
#     4  11  23  45  71 111 145 196 252 315 388 462
#     4  10  20  37  69 107 139 192 236 314 378 451
#     4  12  29  47  76 108 155 201 257 322 388 463
#
# _framework density 23.965344000000002
#
# number of rings (size 3 to 8) (size 9 to 14) (size 15 to 20)
#    0.000    1.000    3.333    2.500    7.000    2.667 
#    0.000    0.000    0.000    0.000    0.000    0.000 
#    0.000    0.000    0.000    0.000    0.000    0.000 
#
# Total GULP energy -133710.334448 kJ/mol
# GULP energy per Si atom -5571.263935 kJ/mol
# Density = 2.391080 g / cm^3
# Si number density = 23.965344 Si / 1000 Ang^3
#
#
#
# Elastic Constant Matrix: (Units=GPa)
#
#
# Indices 1 2 3 4 5 6 
#
# 1 194.5942 35.7622 98.2067 0.0000 0.0000 0.0000
# 2 35.7622 53.0283 38.9506 0.0000 0.0000 0.0000
# 3 98.2067 38.9506 203.9147 0.0000 0.0000 0.0000
# 4 0.0000 0.0000 0.0000 -34.5605 0.0000 0.0000
# 5 0.0000 0.0000 0.0000 0.0000 83.4763 0.0000
# 6 0.0000 0.0000 0.0000 0.0000 0.0000 18.5069
#
#
#
# Elastic Compliance Matrix: (Units=1/GPa)
#
#
# Indices 1 2 3 4 5 6 
#
# 1 0.007094 -0.002646 -0.002911 0.000000 0.000000 0.000000
# 2 -0.002646 0.022922 -0.003104 0.000000 0.000000 0.000000
# 3 -0.002911 -0.003104 0.006899 0.000000 0.000000 0.000000
# 4 0.000000 0.000000 0.000000 -0.028935 0.000000 0.000000
# 5 0.000000 0.000000 0.000000 0.000000 0.011979 0.000000
# 6 0.000000 0.000000 0.000000 0.000000 0.000000 0.054034
#
#
# Mechanical properties :
#
#
# Convention : Reuss Voigt Hill
#
# Bulk Modulus (GPa) = 51.03891 88.59736 69.81813
# Shear Modulus (GPa) = 51.09950 32.05906 41.57928
#
# Velocity S-wave (km/s) = 4.62261 3.66146 4.16982
# Velocity P-wave (km/s) = 7.05936 7.41109 7.23736
#
# Compressibility (1/GPa) = 0.01959290
#
# Stress axis : x y z
#
# Youngs Moduli (GPa) = 140.95542 43.62545 144.94754
#
# Poissons Ratio (x) = 0.11544 0.42199
# Poissons Ratio (y) = 0.37298 0.44994
# Poissons Ratio (z) = 0.41036 0.13542
#
# Static dielectric constant tensor:
#      x y z
#    x 1.826620 0.000000 0.000000 
#    y 0.000000 1.976240 0.000000 
#    z 0.000000 0.000000 1.983410 
# 
# From -- ./inp_files/8160.got.cif
#   From: 2010.05.17/outbox.cif.g08.bks.cpg/sg70_5_cif.got.tgz:8160.got - 2010.06.03 15:57:51.
