data_PCOD9514556
_publ_section_title
;
Structure prediction by ZEFSAII (Michael W. Deem and Ramdas Pophale) SiO2 
 PCOD9514556
Probable space group: F D D D
;
_chemical_formula_sum "Si O2"
_cell_formula_units_Z 208
_cell_length_a 18.117976
_cell_length_b 19.744419
_cell_length_c 28.628475
_cell_angle_alpha 90.000000
_cell_angle_beta 90.000000
_cell_angle_gamma 90.000000
_cell_volume 10241.233145
_symmetry_space_group_name_H-M "F D D D"
_symmetry_group_IT_number 70
_space_group.IT_coordinate_system_code '2'
_symmetry_cell_setting 'orthorhombic'
loop_
_space_group_symop_operation_xyz
x,y,z
1/4-x,1/4-y,z
x,1/4-y,1/4-z
1/4-x,y,1/4-z
-x,-y,-z
3/4+x,3/4+y,-z
-x,3/4+y,3/4+z
3/4+x,-y,3/4+z
x,1/2+y,1/2+z
1/4-x,3/4-y,1/2+z
x,3/4-y,3/4-z
1/4-x,1/2+y,3/4-z
-x,1/2-y,1/2-z
3/4+x,1/4+y,1/2-z
-x,1/4+y,1/4+z
3/4+x,1/2-y,1/4+z
1/2+x,y,1/2+z
3/4-x,1/4-y,1/2+z
1/2+x,1/4-y,3/4-z
3/4-x,y,3/4-z
1/2-x,-y,1/2-z
1/4+x,3/4+y,1/2-z
1/2-x,3/4+y,1/4+z
1/4+x,-y,1/4+z
1/2+x,1/2+y,z
3/4-x,3/4-y,z
1/2+x,3/4-y,1/4-z
3/4-x,1/2+y,1/4-z
1/2-x,1/2-y,-z
1/4+x,1/4+y,-z
1/2-x,1/4+y,3/4+z
1/4+x,1/2-y,3/4+z
loop_
_atom_site_type_symbol
_atom_site_label
_atom_site_fract_x
_atom_site_fract_y
_atom_site_fract_z
Si Si1 0.375000 0.375000 0.265808
Si Si2 0.305695 0.006334 0.537157
Si Si3 0.393257 0.014328 0.820064
Si Si4 0.304169 0.340753 0.790989
Si Si5 0.539477 0.778752 0.112885
Si Si6 0.806797 0.181211 0.583257
Si Si7 0.476220 0.628215 0.786628
O O1 0.383626 0.439223 0.299388
O O2 0.443848 0.353020 0.233357
O O3 0.230505 0.977903 0.559973
O O4 0.363725 0.038139 0.572655
O O5 0.295176 0.068427 0.500071
O O6 0.332276 0.942707 0.506560
O O7 0.375000 0.018358 0.875000
O O8 0.338272 0.065859 0.792485
O O9 0.375000 0.375000 0.814619
O O10 0.281277 0.278428 0.823232
O O11 0.235428 0.391989 0.791257
O O12 0.625000 0.787121 0.125000
O O13 0.494021 0.745792 0.154467
O O14 0.513043 0.846707 0.088185
O O15 0.810011 0.125000 0.625000
#
# Coordination Sequence:
#
# PCOD9514556 Si02
#       7
#    16  32  32  32  32  32  32
#     4  10  23  42  66  90 114 160 212 248 318 374
#     4  10  23  39  57  93 121 160 208 249 309 371
#     4  11  23  42  64  88 121 160 204 258 311 367
#     4  10  19  36  59  85 122 163 200 244 305 377
#     4  10  19  36  59  86 119 161 203 241 308 373
#     4  10  21  36  62  90 124 164 206 261 307 370
#     4  10  22  40  62  87 123 158 200 259 308 369
#
# _framework density 20.310054000000001
#
# number of rings (size 3 to 8) (size 9 to 14) (size 15 to 20)
#    0.000    1.846    1.538    2.077    0.000    5.538 
#    5.538    0.000    0.000    0.000    0.000    0.000 
#    0.000    0.000    0.000    0.000    0.000    0.000 
#
# Total GULP energy -289560.568995 kJ/mol
# GULP energy per Si atom -5568.472481 kJ/mol
# Density = 2.026383 g / cm^3
# Si number density = 20.310054 Si / 1000 Ang^3
#
#
#
# Elastic Constant Matrix: (Units=GPa)
#
#
# Indices 1 2 3 4 5 6 
#
# 1 85.3955 12.7269 22.0782 0.0000 0.0000 0.0000
# 2 12.7269 50.2943 18.4542 0.0000 0.0000 0.0000
# 3 22.0782 18.4542 55.1774 0.0000 0.0000 0.0000
# 4 0.0000 0.0000 0.0000 39.9178 0.0000 0.0000
# 5 0.0000 0.0000 0.0000 0.0000 10.6282 0.0000
# 6 0.0000 0.0000 0.0000 0.0000 0.0000 29.1334
#
#
#
# Elastic Compliance Matrix: (Units=1/GPa)
#
#
# Indices 1 2 3 4 5 6 
#
# 1 0.013173 -0.001595 -0.004737 0.000000 0.000000 0.000000
# 2 -0.001595 0.022857 -0.007006 0.000000 0.000000 0.000000
# 3 -0.004737 -0.007006 0.022362 0.000000 0.000000 0.000000
# 4 0.000000 0.000000 0.000000 0.025051 0.000000 0.000000
# 5 0.000000 0.000000 0.000000 0.000000 0.094090 0.000000
# 6 0.000000 0.000000 0.000000 0.000000 0.000000 0.034325
#
#
# Mechanical properties :
#
#
# Convention : Reuss Voigt Hill
#
# Bulk Modulus (GPa) = 31.53119 33.04286 32.28702
# Shear Modulus (GPa) = 20.07164 25.10973 22.59069
#
# Velocity S-wave (km/s) = 3.14707 3.51995 3.33872
# Velocity P-wave (km/s) = 5.36321 5.72927 5.54926
#
# Compressibility (1/GPa) = 0.03171463
#
# Stress axis : x y z
#
# Youngs Moduli (GPa) = 75.91436 43.74940 44.71823
#
# Poissons Ratio (x) = 0.06978 0.21185
# Poissons Ratio (y) = 0.12109 0.31332
# Poissons Ratio (z) = 0.35963 0.30653
#
# Static dielectric constant tensor:
#      x y z
#    x 1.742310 0.000000 0.000000 
#    y 0.000000 1.731790 0.000000 
#    z 0.000000 0.000000 1.756020 
# 
# From -- ./inp_files/66814.got.cif
#   From: 2010.05.17/outbox.cif.g08.bks.cpg/sg70_34_cif.got.tgz:66814.got - 2010.06.03 15:57:51.
