data_PCOD9514039
_publ_section_title
;
Structure prediction by ZEFSAII (Michael W. Deem and Ramdas Pophale) SiO2 
 PCOD9514039
Probable space group: F D D D
;
_chemical_formula_sum "Si O2"
_cell_formula_units_Z 96
_cell_length_a 14.351440
_cell_length_b 7.745144
_cell_length_c 34.622007
_cell_angle_alpha 90.000000
_cell_angle_beta 90.000000
_cell_angle_gamma 90.000000
_cell_volume 3848.373507
_symmetry_space_group_name_H-M "F D D D"
_symmetry_group_IT_number 70
_space_group.IT_coordinate_system_code '2'
_symmetry_cell_setting 'orthorhombic'
loop_
_space_group_symop_operation_xyz
x,y,z
1/4-x,1/4-y,z
x,1/4-y,1/4-z
1/4-x,y,1/4-z
-x,-y,-z
3/4+x,3/4+y,-z
-x,3/4+y,3/4+z
3/4+x,-y,3/4+z
x,1/2+y,1/2+z
1/4-x,3/4-y,1/2+z
x,3/4-y,3/4-z
1/4-x,1/2+y,3/4-z
-x,1/2-y,1/2-z
3/4+x,1/4+y,1/2-z
-x,1/4+y,1/4+z
3/4+x,1/2-y,1/4+z
1/2+x,y,1/2+z
3/4-x,1/4-y,1/2+z
1/2+x,1/4-y,3/4-z
3/4-x,y,3/4-z
1/2-x,-y,1/2-z
1/4+x,3/4+y,1/2-z
1/2-x,3/4+y,1/4+z
1/4+x,-y,1/4+z
1/2+x,1/2+y,z
3/4-x,3/4-y,z
1/2+x,3/4-y,1/4-z
3/4-x,1/2+y,1/4-z
1/2-x,1/2-y,-z
1/4+x,1/4+y,-z
1/2-x,1/4+y,3/4+z
1/4+x,1/2-y,3/4+z
loop_
_atom_site_type_symbol
_atom_site_label
_atom_site_fract_x
_atom_site_fract_y
_atom_site_fract_z
Si Si1 0.495478 0.184482 0.581324
Si Si2 0.856941 0.117643 0.455149
Si Si3 0.578093 0.435540 0.291275
O O1 0.506569 0.125000 0.625000
O O2 0.556412 0.354100 0.573516
O O3 0.543515 0.039351 0.553558
O O4 0.387550 0.183010 0.569940
O O5 0.781397 0.965552 0.452029
O O6 0.899124 0.123762 0.498029
O O7 0.625000 0.625000 0.295267
#
# Coordination Sequence:
#
# PCOD9514039 Si02
#       3
#    32  32  32
#     4  10  18  25  37  64 105 134 167 223 264 309
#     4  10  15  25  41  62  93 140 169 212 269 313
#     4  10  15  24  41  62  94 136 173 211 267 314
#
# _framework density 24.945602000000001
#
# number of rings (size 3 to 8) (size 9 to 14) (size 15 to 20)
#    0.000    2.000    6.667    4.000    0.000    0.000 
#    0.000    0.000    0.000    0.000    0.000    0.000 
#    0.000  122.667    0.000    0.000    0.000   34.000 
#
# Total GULP energy -134174.941273 kJ/mol
# GULP energy per Si atom -5590.622553 kJ/mol
# Density = 2.488882 g / cm^3
# Si number density = 24.945602 Si / 1000 Ang^3
#
#
#
# Elastic Constant Matrix: (Units=GPa)
#
#
# Indices 1 2 3 4 5 6 
#
# 1 277.4142 68.3963 80.8088 0.0000 0.0000 0.0000
# 2 68.3963 119.0555 36.5763 0.0000 0.0000 0.0000
# 3 80.8088 36.5763 114.9881 0.0000 0.0000 0.0000
# 4 0.0000 0.0000 0.0000 -7.0839 0.0000 0.0000
# 5 0.0000 0.0000 0.0000 0.0000 -16.2908 0.0000
# 6 0.0000 0.0000 0.0000 0.0000 0.0000 42.9367
#
#
#
# Elastic Compliance Matrix: (Units=1/GPa)
#
#
# Indices 1 2 3 4 5 6 
#
# 1 0.004910 -0.001951 -0.002830 0.000000 0.000000 0.000000
# 2 -0.001951 0.010085 -0.001836 0.000000 0.000000 0.000000
# 3 -0.002830 -0.001836 0.011269 0.000000 0.000000 0.000000
# 4 0.000000 0.000000 0.000000 -0.141164 0.000000 0.000000
# 5 0.000000 0.000000 0.000000 0.000000 -0.061384 0.000000
# 6 0.000000 0.000000 0.000000 0.000000 0.000000 0.023290
#
#
# Mechanical properties :
#
#
# Convention : Reuss Voigt Hill
#
# Bulk Modulus (GPa) = 76.75341 98.11338 87.43340
# Shear Modulus (GPa) = -36.92336 25.62416 -5.64960
#
# Velocity S-wave (km/s) = -3.85145 3.20848 -1.50655
# Velocity P-wave (km/s) = 3.32519 7.28986 5.66564
#
# Compressibility (1/GPa) = 0.01302874
#
# Stress axis : x y z
#
# Youngs Moduli (GPa) = 203.65825 99.15995 88.73534
#
# Poissons Ratio (x) = 0.19350 0.25112
# Poissons Ratio (y) = 0.39743 0.16296
# Poissons Ratio (z) = 0.57634 0.18210
#
# Static dielectric constant tensor:
#      x y z
#    x 2.069970 0.000000 0.000000 
#    y 0.000000 2.084990 0.000000 
#    z 0.000000 0.000000 1.879710 
# 
# From -- ./inp_files/25392.got.cif
#   From: 2010.05.17/outbox.cif.g08.bks.cpg/sg70_13_cif.got.tgz:25392.got - 2010.06.03 15:57:51.
