data_PCOD9514515
_publ_section_title
;
Structure prediction by ZEFSAII (Michael W. Deem and Ramdas Pophale) SiO2 
 PCOD9514515
Probable space group: F D D D
;
_chemical_formula_sum "Si O2"
_cell_formula_units_Z 168
_cell_length_a 26.573610
_cell_length_b 27.136238
_cell_length_c 12.259403
_cell_angle_alpha 90.000000
_cell_angle_beta 90.000000
_cell_angle_gamma 90.000000
_cell_volume 8840.351194
_symmetry_space_group_name_H-M "F D D D"
_symmetry_group_IT_number 70
_space_group.IT_coordinate_system_code '2'
_symmetry_cell_setting 'orthorhombic'
loop_
_space_group_symop_operation_xyz
x,y,z
1/4-x,1/4-y,z
x,1/4-y,1/4-z
1/4-x,y,1/4-z
-x,-y,-z
3/4+x,3/4+y,-z
-x,3/4+y,3/4+z
3/4+x,-y,3/4+z
x,1/2+y,1/2+z
1/4-x,3/4-y,1/2+z
x,3/4-y,3/4-z
1/4-x,1/2+y,3/4-z
-x,1/2-y,1/2-z
3/4+x,1/4+y,1/2-z
-x,1/4+y,1/4+z
3/4+x,1/2-y,1/4+z
1/2+x,y,1/2+z
3/4-x,1/4-y,1/2+z
1/2+x,1/4-y,3/4-z
3/4-x,y,3/4-z
1/2-x,-y,1/2-z
1/4+x,3/4+y,1/2-z
1/2-x,3/4+y,1/4+z
1/4+x,-y,1/4+z
1/2+x,1/2+y,z
3/4-x,3/4-y,z
1/2+x,3/4-y,1/4-z
3/4-x,1/2+y,1/4-z
1/2-x,1/2-y,-z
1/4+x,1/4+y,-z
1/2-x,1/4+y,3/4+z
1/4+x,1/2-y,3/4+z
loop_
_atom_site_type_symbol
_atom_site_label
_atom_site_fract_x
_atom_site_fract_y
_atom_site_fract_z
Si Si1 0.125000 0.458911 0.625000
Si Si2 0.376627 0.125000 0.625000
Si Si3 0.818356 0.220752 0.925251
Si Si4 0.381322 0.017508 0.617977
Si Si5 0.375000 0.375000 0.375000
Si Si6 0.796227 0.638155 0.817123
Si Si7 0.550804 0.551992 0.743268
O O1 0.118031 0.487581 0.739660
O O2 0.173462 0.423862 0.648189
O O3 0.403231 0.072874 0.639962
O O4 0.338143 0.133963 0.723221
O O5 0.875000 0.215208 0.875000
O O6 0.789300 0.169365 0.906332
O O7 0.792405 0.264358 0.857700
O O8 0.832272 0.233644 0.051232
O O9 0.422174 0.978767 0.660733
O O10 0.409039 0.409297 0.300811
O O11 0.747660 0.667388 0.778552
#
# Coordination Sequence:
#
# PCOD9514515 Si02
#       7
#    16  16  32  32   8  32  32
#     4  10  20  35  60  83 122 159 203 256 298 370
#     4   8  17  34  56  83 114 153 200 248 297 356
#     4   9  17  38  62  88 121 157 201 257 317 367
#     4   9  18  35  60  85 118 158 200 248 310 364
#     4  12  22  42  60  94 132 160 202 264 332 372
#     4  10  19  35  58  93 118 153 207 256 304 375
#     4  11  22  37  61  93 122 160 205 258 324 370
#
# _framework density 19.003769999999999
#
# number of rings (size 3 to 8) (size 9 to 14) (size 15 to 20)
#    0.000    2.286    3.810    0.571    2.667    0.762 
#    6.857    5.714    0.000    0.571    0.000    0.000 
#    0.000    0.000    0.000    0.000    0.000    0.000 
#
# Total GULP energy -233885.651378 kJ/mol
# GULP energy per Si atom -5568.705985 kJ/mol
# Density = 1.896052 g / cm^3
# Si number density = 19.003770 Si / 1000 Ang^3
#
#
#
# Elastic Constant Matrix: (Units=GPa)
#
#
# Indices 1 2 3 4 5 6 
#
# 1 96.1435 64.9780 38.8659 0.0000 0.0000 0.0000
# 2 64.9780 135.8781 47.2338 0.0000 0.0000 0.0000
# 3 38.8659 47.2338 96.3603 0.0001 -0.0001 -0.0001
# 4 0.0000 0.0000 0.0001 9.6905 0.0000 0.0000
# 5 0.0000 0.0000 -0.0001 0.0000 8.4122 0.0000
# 6 0.0000 0.0000 -0.0001 0.0000 0.0000 40.7254
#
#
#
# Elastic Compliance Matrix: (Units=1/GPa)
#
#
# Indices 1 2 3 4 5 6 
#
# 1 0.016193 -0.006597 -0.003297 0.000000 0.000000 0.000000
# 2 -0.006597 0.011559 -0.003005 0.000000 0.000000 0.000000
# 3 -0.003297 -0.003005 0.013181 0.000000 0.000000 0.000000
# 4 0.000000 0.000000 0.000000 0.103194 0.000000 0.000000
# 5 0.000000 0.000000 0.000000 0.000000 0.118874 0.000000
# 6 0.000000 0.000000 0.000000 0.000000 0.000000 0.024555
#
#
# Mechanical properties :
#
#
# Convention : Reuss Voigt Hill
#
# Bulk Modulus (GPa) = 66.08012 70.05968 68.06990
# Shear Modulus (GPa) = 15.70353 23.58590 19.64472
#
# Velocity S-wave (km/s) = 2.87773 3.52677 3.21865
# Velocity P-wave (km/s) = 6.77417 7.31645 7.05052
#
# Compressibility (1/GPa) = 0.01513314
#
# Stress axis : x y z
#
# Youngs Moduli (GPa) = 61.75577 86.51237 75.86870
#
# Poissons Ratio (x) = 0.57075 0.25016
# Poissons Ratio (y) = 0.40742 0.22799
# Poissons Ratio (z) = 0.20363 0.25997
#
# Static dielectric constant tensor:
#      x y z
#    x 1.677950 0.000000 0.000000 
#    y 0.000000 1.744760 0.000000 
#    z 0.000000 0.000000 1.899350 
# 
# From -- ./inp_files/31256.got.cif
#   From: 2010.05.17/outbox.cif.g08.bks.cpg/sg70_16_cif.got.tgz:31256.got - 2010.06.03 15:57:51.
