data_PCOD9514116
_publ_section_title
;
Structure prediction by ZEFSAII (Michael W. Deem and Ramdas Pophale) SiO2 
 PCOD9514116
Probable space group: F D D D
;
_chemical_formula_sum "Si O2"
_cell_formula_units_Z 240
_cell_length_a 33.211426
_cell_length_b 17.243329
_cell_length_c 20.015704
_cell_angle_alpha 90.000000
_cell_angle_beta 90.000000
_cell_angle_gamma 90.000000
_cell_volume 11462.504198
_symmetry_space_group_name_H-M "F D D D"
_symmetry_group_IT_number 70
_space_group.IT_coordinate_system_code '2'
_symmetry_cell_setting 'orthorhombic'
loop_
_space_group_symop_operation_xyz
x,y,z
1/4-x,1/4-y,z
x,1/4-y,1/4-z
1/4-x,y,1/4-z
-x,-y,-z
3/4+x,3/4+y,-z
-x,3/4+y,3/4+z
3/4+x,-y,3/4+z
x,1/2+y,1/2+z
1/4-x,3/4-y,1/2+z
x,3/4-y,3/4-z
1/4-x,1/2+y,3/4-z
-x,1/2-y,1/2-z
3/4+x,1/4+y,1/2-z
-x,1/4+y,1/4+z
3/4+x,1/2-y,1/4+z
1/2+x,y,1/2+z
3/4-x,1/4-y,1/2+z
1/2+x,1/4-y,3/4-z
3/4-x,y,3/4-z
1/2-x,-y,1/2-z
1/4+x,3/4+y,1/2-z
1/2-x,3/4+y,1/4+z
1/4+x,-y,1/4+z
1/2+x,1/2+y,z
3/4-x,3/4-y,z
1/2+x,3/4-y,1/4-z
3/4-x,1/2+y,1/4-z
1/2-x,1/2-y,-z
1/4+x,1/4+y,-z
1/2-x,1/4+y,3/4+z
1/4+x,1/2-y,3/4+z
loop_
_atom_site_type_symbol
_atom_site_label
_atom_site_fract_x
_atom_site_fract_y
_atom_site_fract_z
Si Si1 0.222585 0.712311 0.300390
Si Si2 0.448831 0.632201 0.197736
Si Si3 0.719261 0.498041 0.931715
Si Si4 0.391328 0.079915 0.192679
Si Si5 0.412310 0.570564 0.426099
Si Si6 0.671153 0.150616 0.013415
Si Si7 0.519657 0.125000 0.125000
Si Si8 0.982611 0.099987 0.913979
O O1 0.196182 0.789211 0.284476
O O2 0.259422 0.710085 0.247140
O O3 0.194757 0.634797 0.299757
O O4 0.245158 0.714600 0.371047
O O5 0.468989 0.625000 0.125000
O O6 0.406498 0.675509 0.187312
O O7 0.467422 0.671517 0.262706
O O8 0.671652 0.491699 0.939114
O O9 0.739558 0.448097 0.871271
O O10 0.735179 0.583376 0.927671
O O11 0.403181 0.125000 0.125000
O O12 0.399863 0.124715 0.261910
O O13 0.375000 0.556865 0.375000
O O14 0.424174 0.489492 0.462562
O O15 0.447372 0.610316 0.381528
O O16 0.625000 0.125000 0.012712
O O17 0.698116 0.106034 0.067927
#
# Coordination Sequence:
#
# PCOD9514116 Si02
#       8
#    32  32  32  32  32  32  16  32
#     4  10  23  39  58  92 119 158 209 258 306 376
#     4  10  23  44  64  86 118 158 217 269 322 374
#     4  10  20  33  53  87 123 159 204 245 296 356
#     4  11  22  36  59  85 123 167 213 254 301 362
#     4  12  22  36  58  89 129 180 215 238 306 381
#     4  11  22  32  53  83 129 174 199 233 285 372
#     4  10  17  30  46  76 120 166 208 216 270 346
#     4  11  22  39  61  90 127 158 209 266 311 378
#
# _framework density 20.937833000000001
#
# number of rings (size 3 to 8) (size 9 to 14) (size 15 to 20)
#    0.000    1.333    4.667    1.800    3.733    1.067 
#    0.000    0.000    0.000    0.000    0.000    0.000 
#    0.000    0.000    0.000    0.000    0.000    0.000 
#
# Total GULP energy -334063.604823 kJ/mol
# GULP energy per Si atom -5567.726747 kJ/mol
# Density = 2.089018 g / cm^3
# Si number density = 20.937833 Si / 1000 Ang^3
#
#
#
# Elastic Constant Matrix: (Units=GPa)
#
#
# Indices 1 2 3 4 5 6 
#
# 1 97.2545 19.7101 25.6786 0.0000 0.0000 0.0000
# 2 19.7101 27.9410 -5.0824 0.0000 0.0000 0.0000
# 3 25.6786 -5.0824 115.3907 0.0000 0.0000 0.0000
# 4 0.0000 0.0000 0.0000 13.9121 0.0000 0.0000
# 5 0.0000 0.0000 0.0000 0.0000 27.0626 0.0000
# 6 0.0000 0.0000 0.0000 0.0000 0.0000 14.9125
#
#
#
# Elastic Compliance Matrix: (Units=1/GPa)
#
#
# Indices 1 2 3 4 5 6 
#
# 1 0.013181 -0.009911 -0.003370 0.000000 0.000000 0.000000
# 2 -0.009911 0.043531 0.004123 0.000000 0.000000 0.000000
# 3 -0.003370 0.004123 0.009598 0.000000 0.000000 0.000000
# 4 0.000000 0.000000 0.000000 0.071880 0.000000 0.000000
# 5 0.000000 0.000000 0.000000 0.000000 0.036951 0.000000
# 6 0.000000 0.000000 0.000000 0.000000 0.000000 0.067058
#
#
# Mechanical properties :
#
#
# Convention : Reuss Voigt Hill
#
# Bulk Modulus (GPa) = 20.83599 35.68876 28.26237
# Shear Modulus (GPa) = 18.08242 24.52942 21.30592
#
# Velocity S-wave (km/s) = 2.94194 3.42648 3.19341
# Velocity P-wave (km/s) = 4.63821 5.72158 5.20814
#
# Compressibility (1/GPa) = 0.04799389
#
# Stress axis : x y z
#
# Youngs Moduli (GPa) = 75.86911 22.97220 104.19188
#
# Poissons Ratio (x) = 0.22767 0.35109
# Poissons Ratio (y) = 0.75192 -0.42957
# Poissons Ratio (z) = 0.25565 -0.09471
#
# Static dielectric constant tensor:
#      x y z
#    x 1.762430 0.000000 0.000000 
#    y 0.000000 1.779080 0.000000 
#    z 0.000000 0.000000 1.979510 
# 
# From -- ./inp_files/47813.got.cif
#   From: 2010.05.17/outbox.cif.g08.bks.cpg/sg70_24_cif.got.tgz:47813.got - 2010.06.03 15:57:51.
