data_PCOD9514322
_publ_section_title
;
Structure prediction by ZEFSAII (Michael W. Deem and Ramdas Pophale) SiO2 
 PCOD9514322
Probable space group: F D D D
;
_chemical_formula_sum "Si O2"
_cell_formula_units_Z 128
_cell_length_a 16.735273
_cell_length_b 28.951828
_cell_length_c 12.976928
_cell_angle_alpha 90.000000
_cell_angle_beta 90.000000
_cell_angle_gamma 90.000000
_cell_volume 6287.538920
_symmetry_space_group_name_H-M "F D D D"
_symmetry_group_IT_number 70
_space_group.IT_coordinate_system_code '2'
_symmetry_cell_setting 'orthorhombic'
loop_
_space_group_symop_operation_xyz
x,y,z
1/4-x,1/4-y,z
x,1/4-y,1/4-z
1/4-x,y,1/4-z
-x,-y,-z
3/4+x,3/4+y,-z
-x,3/4+y,3/4+z
3/4+x,-y,3/4+z
x,1/2+y,1/2+z
1/4-x,3/4-y,1/2+z
x,3/4-y,3/4-z
1/4-x,1/2+y,3/4-z
-x,1/2-y,1/2-z
3/4+x,1/4+y,1/2-z
-x,1/4+y,1/4+z
3/4+x,1/2-y,1/4+z
1/2+x,y,1/2+z
3/4-x,1/4-y,1/2+z
1/2+x,1/4-y,3/4-z
3/4-x,y,3/4-z
1/2-x,-y,1/2-z
1/4+x,3/4+y,1/2-z
1/2-x,3/4+y,1/4+z
1/4+x,-y,1/4+z
1/2+x,1/2+y,z
3/4-x,3/4-y,z
1/2+x,3/4-y,1/4-z
3/4-x,1/2+y,1/4-z
1/2-x,1/2-y,-z
1/4+x,1/4+y,-z
1/2-x,1/4+y,3/4+z
1/4+x,1/2-y,3/4+z
loop_
_atom_site_type_symbol
_atom_site_label
_atom_site_fract_x
_atom_site_fract_y
_atom_site_fract_z
Si Si1 0.990549 0.672541 0.932491
Si Si2 0.369219 0.428011 0.045132
Si Si3 0.661639 0.375000 0.875000
Si Si4 0.310204 0.084017 0.951032
Si Si5 0.375000 0.253372 0.875000
O O1 0.959235 0.634756 0.848357
O O2 0.943428 0.719635 0.915974
O O3 0.083138 0.679068 0.902646
O O4 0.966591 0.651338 0.042183
O O5 0.375000 0.375000 0.007022
O O6 0.275576 0.439689 0.049328
O O7 0.407212 0.463218 0.964562
O O8 0.602935 0.408375 0.810004
O O9 0.375000 0.061762 0.875000
#
# Coordination Sequence:
#
# PCOD9514322 Si02
#       5
#    32  32  16  32  16
#     4  10  21  39  59  96 129 165 217 269 321 386
#     4  10  23  36  60  94 134 163 210 268 323 390
#     4  10  18  36  68  84 122 178 212 260 329 381
#     4   9  19  38  60  85 123 166 215 258 313 389
#     4  12  21  36  64 100 130 164 212 284 327 364
#
# _framework density 20.357727000000001
#
# number of rings (size 3 to 8) (size 9 to 14) (size 15 to 20)
#    0.000    2.000    3.750    1.125    7.000    2.000 
#    0.000   15.625    0.000   27.000    0.000    0.000 
#    0.000    0.000    0.000    0.000    0.000    0.000 
#
# Total GULP energy -178489.184060 kJ/mol
# GULP energy per Si atom -5577.787002 kJ/mol
# Density = 2.031139 g / cm^3
# Si number density = 20.357727 Si / 1000 Ang^3
#
#
#
# Elastic Constant Matrix: (Units=GPa)
#
#
# Indices 1 2 3 4 5 6 
#
# 1 118.3240 21.7576 69.1836 0.0000 0.0000 0.0000
# 2 21.7576 87.5520 38.0685 0.0000 0.0000 0.0000
# 3 69.1836 38.0685 125.2607 0.0000 0.0000 0.0000
# 4 0.0000 0.0000 0.0000 -10.9013 0.0000 0.0000
# 5 0.0000 0.0000 0.0000 0.0000 21.9264 0.0000
# 6 0.0000 0.0000 0.0000 0.0000 0.0000 14.2849
#
#
#
# Elastic Compliance Matrix: (Units=1/GPa)
#
#
# Indices 1 2 3 4 5 6 
#
# 1 0.012484 -0.000120 -0.006858 0.000000 0.000000 0.000000
# 2 -0.000120 0.013162 -0.003934 0.000000 0.000000 0.000000
# 3 -0.006858 -0.003934 0.012967 0.000000 0.000000 0.000000
# 4 0.000000 0.000000 0.000000 -0.091732 0.000000 0.000000
# 5 0.000000 0.000000 0.000000 0.000000 0.045607 0.000000
# 6 0.000000 0.000000 0.000000 0.000000 0.000000 0.070004
#
#
# Mechanical properties :
#
#
# Convention : Reuss Voigt Hill
#
# Bulk Modulus (GPa) = 59.56681 65.46179 62.51430
# Shear Modulus (GPa) = 55.61005 18.53714 37.07360
#
# Velocity S-wave (km/s) = 5.23218 3.02084 4.27207
# Velocity P-wave (km/s) = 8.11323 6.66280 7.42352
#
# Compressibility (1/GPa) = 0.01678787
#
# Stress axis : x y z
#
# Youngs Moduli (GPa) = 80.10574 75.97576 77.11983
#
# Poissons Ratio (x) = 0.00913 0.52891
# Poissons Ratio (y) = 0.00963 0.30337
# Poissons Ratio (z) = 0.54939 0.29887
#
# Static dielectric constant tensor:
#      x y z
#    x 1.813100 0.000000 0.000000 
#    y 0.000000 1.709780 0.000000 
#    z 0.000000 0.000000 1.736220 
# 
# From -- ./inp_files/26402.got.cif
#   From: 2010.05.17/outbox.cif.g08.bks.cpg/sg70_14_cif.got.tgz:26402.got - 2010.06.03 15:57:51.
