data_PCOD9514974
_publ_section_title
;
Structure prediction by ZEFSAII (Michael W. Deem and Ramdas Pophale) SiO2 
 PCOD9514974
Probable space group: F D D D
;
_chemical_formula_sum "Si O2"
_cell_formula_units_Z 184
_cell_length_a 24.390801
_cell_length_b 24.122825
_cell_length_c 14.705969
_cell_angle_alpha 90.000000
_cell_angle_beta 90.000000
_cell_angle_gamma 90.000000
_cell_volume 8652.624865
_symmetry_space_group_name_H-M "F D D D"
_symmetry_group_IT_number 70
_space_group.IT_coordinate_system_code '2'
_symmetry_cell_setting 'orthorhombic'
loop_
_space_group_symop_operation_xyz
x,y,z
1/4-x,1/4-y,z
x,1/4-y,1/4-z
1/4-x,y,1/4-z
-x,-y,-z
3/4+x,3/4+y,-z
-x,3/4+y,3/4+z
3/4+x,-y,3/4+z
x,1/2+y,1/2+z
1/4-x,3/4-y,1/2+z
x,3/4-y,3/4-z
1/4-x,1/2+y,3/4-z
-x,1/2-y,1/2-z
3/4+x,1/4+y,1/2-z
-x,1/4+y,1/4+z
3/4+x,1/2-y,1/4+z
1/2+x,y,1/2+z
3/4-x,1/4-y,1/2+z
1/2+x,1/4-y,3/4-z
3/4-x,y,3/4-z
1/2-x,-y,1/2-z
1/4+x,3/4+y,1/2-z
1/2-x,3/4+y,1/4+z
1/4+x,-y,1/4+z
1/2+x,1/2+y,z
3/4-x,3/4-y,z
1/2+x,3/4-y,1/4-z
3/4-x,1/2+y,1/4-z
1/2-x,1/2-y,-z
1/4+x,1/4+y,-z
1/2-x,1/4+y,3/4+z
1/4+x,1/2-y,3/4+z
loop_
_atom_site_type_symbol
_atom_site_label
_atom_site_fract_x
_atom_site_fract_y
_atom_site_fract_z
Si Si1 0.626880 0.810598 0.350366
Si Si2 0.282664 0.056397 0.740579
Si Si3 0.125000 0.125000 0.125000
Si Si4 0.927911 0.786865 0.011853
Si Si5 0.875000 0.021766 0.375000
Si Si6 0.797007 0.260825 0.716840
Si Si7 0.814213 0.369181 0.063727
O O1 0.615843 0.875000 0.375000
O O2 0.686424 0.805230 0.396483
O O3 0.637520 0.767373 0.266612
O O4 0.578294 0.781877 0.403777
O O5 0.235886 0.101516 0.750327
O O6 0.250000 0.000000 0.750000
O O7 0.331516 0.057680 0.815770
O O8 0.090417 0.082989 0.188652
O O9 0.930111 0.823140 0.106331
O O10 0.988007 0.762772 0.991800
O O11 0.836475 0.986916 0.443488
O O12 0.797350 0.318378 0.661933
O O13 0.875000 0.375000 0.023037
#
# Coordination Sequence:
#
# PCOD9514974 Si02
#       7
#    32  32   8  32  16  32  32
#     4  11  23  43  67  99 139 175 222 293 352 419
#     4  11  20  37  64  96 134 173 219 274 358 420
#     4  12  28  48  74  96 134 202 252 302 330 412
#     4  12  24  48  67  98 140 181 242 290 345 411
#     4  10  20  38  60  98 137 162 217 276 340 424
#     4  11  23  40  69 100 131 180 225 278 356 413
#     4  12  21  42  70  94 141 184 222 292 351 424
#
# _framework density 21.265222999999999
#
# number of rings (size 3 to 8) (size 9 to 14) (size 15 to 20)
#    0.000    0.696    6.087    2.087    1.217    0.000 
#    3.130    8.261    0.000    0.000    0.000    0.000 
#    0.000    0.000    0.000    0.000    0.000    0.000 
#
# Total GULP energy -256151.050163 kJ/mol
# GULP energy per Si atom -5568.501090 kJ/mol
# Density = 2.121682 g / cm^3
# Si number density = 21.265223 Si / 1000 Ang^3
#
#
#
# Elastic Constant Matrix: (Units=GPa)
#
#
# Indices 1 2 3 4 5 6 
#
# 1 125.4588 44.7102 23.9970 0.0000 0.0000 0.0000
# 2 44.7102 180.1743 10.6595 0.0000 0.0000 0.0000
# 3 23.9970 10.6595 35.9012 0.0000 0.0000 0.0000
# 4 0.0000 0.0000 0.0000 -395.1724 0.0000 0.0000
# 5 0.0000 0.0000 0.0000 0.0000 11.1583 0.0000
# 6 0.0000 0.0000 0.0000 0.0000 0.0000 39.6503
#
#
#
# Elastic Compliance Matrix: (Units=1/GPa)
#
#
# Indices 1 2 3 4 5 6 
#
# 1 0.009858 -0.002093 -0.005968 0.000000 0.000000 0.000000
# 2 -0.002093 0.006094 -0.000410 0.000000 0.000000 0.000000
# 3 -0.005968 -0.000410 0.031965 0.000000 0.000000 0.000000
# 4 0.000000 0.000000 0.000000 -0.002531 0.000000 0.000000
# 5 0.000000 0.000000 0.000000 0.000000 0.089619 0.000000
# 6 0.000000 0.000000 0.000000 0.000000 0.000000 0.025221
#
#
# Mechanical properties :
#
#
# Convention : Reuss Voigt Hill
#
# Bulk Modulus (GPa) = 32.28463 55.58530 43.93496
# Shear Modulus (GPa) = 26.66757 -51.39491 -12.36367
#
# Velocity S-wave (km/s) = 3.54509 -4.92148 -2.41385
# Velocity P-wave (km/s) = 5.65436 2.46959 3.59673
#
# Compressibility (1/GPa) = 0.03097449
#
# Stress axis : x y z
#
# Youngs Moduli (GPa) = 101.43817 164.09891 31.28417
#
# Poissons Ratio (x) = 0.34350 0.18670
# Poissons Ratio (y) = 0.21233 0.01283
# Poissons Ratio (z) = 0.60537 0.06731
#
# Static dielectric constant tensor:
#      x y z
#    x 1.756290 0.000000 0.000000 
#    y 0.000000 1.755270 0.000000 
#    z 0.000000 0.000000 1.833820 
# 
# From -- ./inp_files/37604.got.cif
#   From: 2010.05.17/outbox.cif.g08.bks.cpg/sg70_19_cif.got.tgz:37604.got - 2010.06.03 15:57:51.
