data_PCOD9514885
_publ_section_title
;
Structure prediction by ZEFSAII (Michael W. Deem and Ramdas Pophale) SiO2 
 PCOD9514885
Probable space group: F D D D
;
_chemical_formula_sum "Si O2"
_cell_formula_units_Z 208
_cell_length_a 17.101081
_cell_length_b 19.522939
_cell_length_c 33.082281
_cell_angle_alpha 90.000000
_cell_angle_beta 90.000000
_cell_angle_gamma 90.000000
_cell_volume 11044.961531
_symmetry_space_group_name_H-M "F D D D"
_symmetry_group_IT_number 70
_space_group.IT_coordinate_system_code '2'
_symmetry_cell_setting 'orthorhombic'
loop_
_space_group_symop_operation_xyz
x,y,z
1/4-x,1/4-y,z
x,1/4-y,1/4-z
1/4-x,y,1/4-z
-x,-y,-z
3/4+x,3/4+y,-z
-x,3/4+y,3/4+z
3/4+x,-y,3/4+z
x,1/2+y,1/2+z
1/4-x,3/4-y,1/2+z
x,3/4-y,3/4-z
1/4-x,1/2+y,3/4-z
-x,1/2-y,1/2-z
3/4+x,1/4+y,1/2-z
-x,1/4+y,1/4+z
3/4+x,1/2-y,1/4+z
1/2+x,y,1/2+z
3/4-x,1/4-y,1/2+z
1/2+x,1/4-y,3/4-z
3/4-x,y,3/4-z
1/2-x,-y,1/2-z
1/4+x,3/4+y,1/2-z
1/2-x,3/4+y,1/4+z
1/4+x,-y,1/4+z
1/2+x,1/2+y,z
3/4-x,3/4-y,z
1/2+x,3/4-y,1/4-z
3/4-x,1/2+y,1/4-z
1/2-x,1/2-y,-z
1/4+x,1/4+y,-z
1/2-x,1/4+y,3/4+z
1/4+x,1/2-y,3/4+z
loop_
_atom_site_type_symbol
_atom_site_label
_atom_site_fract_x
_atom_site_fract_y
_atom_site_fract_z
Si Si1 0.654621 0.890735 0.081618
Si Si2 0.330105 0.617714 0.047472
Si Si3 0.190351 0.230141 0.341632
Si Si4 0.995778 0.875720 0.534513
Si Si5 0.625000 0.625000 0.278957
Si Si6 0.626451 0.227385 0.319141
Si Si7 0.776917 0.674919 0.992505
O O1 0.625000 0.867411 0.125000
O O2 0.720699 0.949757 0.088554
O O3 0.575485 0.903337 0.055825
O O4 0.697952 0.835507 0.053888
O O5 0.310889 0.560827 0.081228
O O6 0.356328 0.692898 0.062124
O O7 0.262745 0.617156 0.013031
O O8 0.404341 0.592471 0.022176
O O9 0.139342 0.189835 0.308061
O O10 0.149920 0.213985 0.384570
O O11 0.932165 0.934068 0.541340
O O12 0.960418 0.806714 0.556390
O O13 0.701677 0.622257 0.251986
O O14 0.750000 0.750000 0.000000
#
# Coordination Sequence:
#
# PCOD9514885 Si02
#       7
#    32  32  32  32  16  32  32
#     4  10  21  38  63  89 121 160 214 254 304 378
#     4  11  24  39  61  92 128 162 202 262 323 371
#     4  11  22  39  64  91 124 163 206 261 318 374
#     4  10  23  40  63  88 121 167 213 254 307 375
#     4  10  20  36  64  84 119 154 212 250 301 376
#     4  11  23  41  63  89 125 163 210 255 315 378
#     4  10  21  36  60  90 119 157 205 256 312 366
#
# _framework density 18.832117
#
# number of rings (size 3 to 8) (size 9 to 14) (size 15 to 20)
#    0.000    1.538    3.077    1.846    8.615    0.000 
#    0.000    0.000    0.000    0.000    0.000    0.000 
#    0.000    0.000    0.000    0.000    0.000    0.000 
#
# Total GULP energy -289594.850914 kJ/mol
# GULP energy per Si atom -5569.131748 kJ/mol
# Density = 1.878925 g / cm^3
# Si number density = 18.832117 Si / 1000 Ang^3
#
#
#
# Elastic Constant Matrix: (Units=GPa)
#
#
# Indices 1 2 3 4 5 6 
#
# 1 83.2736 26.5198 24.9651 0.0000 0.0000 0.0000
# 2 26.5198 120.8578 23.3748 0.0000 0.0000 0.0000
# 3 24.9651 23.3748 51.4338 0.0000 0.0000 0.0000
# 4 0.0000 0.0000 0.0000 -101.4706 0.0000 0.0000
# 5 0.0000 0.0000 0.0000 0.0000 6.5044 0.0000
# 6 0.0000 0.0000 0.0000 0.0000 0.0000 21.8973
#
#
#
# Elastic Compliance Matrix: (Units=1/GPa)
#
#
# Indices 1 2 3 4 5 6 
#
# 1 0.014479 -0.001993 -0.006122 0.000000 0.000000 0.000000
# 2 -0.001993 0.009346 -0.003280 0.000000 0.000000 0.000000
# 3 -0.006122 -0.003280 0.023905 0.000000 0.000000 0.000000
# 4 0.000000 0.000000 0.000000 -0.009855 0.000000 0.000000
# 5 0.000000 0.000000 0.000000 0.000000 0.153743 0.000000
# 6 0.000000 0.000000 0.000000 0.000000 0.000000 0.045668
#
#
# Mechanical properties :
#
#
# Convention : Reuss Voigt Hill
#
# Bulk Modulus (GPa) = 40.09745 45.03161 42.56453
# Shear Modulus (GPa) = 18.62977 -2.56676 8.03150
#
# Velocity S-wave (km/s) = 3.14865 -1.16873 2.06738
# Velocity P-wave (km/s) = 5.87852 4.70561 5.32446
#
# Compressibility (1/GPa) = 0.02493924
#
# Stress axis : x y z
#
# Youngs Moduli (GPa) = 69.06716 106.99896 41.83292
#
# Poissons Ratio (x) = 0.21325 0.25610
# Poissons Ratio (y) = 0.13765 0.13721
# Poissons Ratio (z) = 0.42283 0.35095
#
# Static dielectric constant tensor:
#      x y z
#    x 1.717870 0.000000 0.000000 
#    y 0.000000 1.592450 0.000000 
#    z 0.000000 0.000000 1.649990 
# 
# From -- ./inp_files/66803.got.cif
#   From: 2010.05.17/outbox.cif.g08.bks.cpg/sg70_34_cif.got.tgz:66803.got - 2010.06.03 15:57:51.
