data_PCOD9514438
_publ_section_title
;
Structure prediction by ZEFSAII (Michael W. Deem and Ramdas Pophale) SiO2 
 PCOD9514438
Probable space group: F D D D
;
_chemical_formula_sum "Si O2"
_cell_formula_units_Z 160
_cell_length_a 23.066432
_cell_length_b 26.178761
_cell_length_c 11.102684
_cell_angle_alpha 90.000000
_cell_angle_beta 90.000000
_cell_angle_gamma 90.000000
_cell_volume 6704.362511
_symmetry_space_group_name_H-M "F D D D"
_symmetry_group_IT_number 70
_space_group.IT_coordinate_system_code '2'
_symmetry_cell_setting 'orthorhombic'
loop_
_space_group_symop_operation_xyz
x,y,z
1/4-x,1/4-y,z
x,1/4-y,1/4-z
1/4-x,y,1/4-z
-x,-y,-z
3/4+x,3/4+y,-z
-x,3/4+y,3/4+z
3/4+x,-y,3/4+z
x,1/2+y,1/2+z
1/4-x,3/4-y,1/2+z
x,3/4-y,3/4-z
1/4-x,1/2+y,3/4-z
-x,1/2-y,1/2-z
3/4+x,1/4+y,1/2-z
-x,1/4+y,1/4+z
3/4+x,1/2-y,1/4+z
1/2+x,y,1/2+z
3/4-x,1/4-y,1/2+z
1/2+x,1/4-y,3/4-z
3/4-x,y,3/4-z
1/2-x,-y,1/2-z
1/4+x,3/4+y,1/2-z
1/2-x,3/4+y,1/4+z
1/4+x,-y,1/4+z
1/2+x,1/2+y,z
3/4-x,3/4-y,z
1/2+x,3/4-y,1/4-z
3/4-x,1/2+y,1/4-z
1/2-x,1/2-y,-z
1/4+x,1/4+y,-z
1/2-x,1/4+y,3/4+z
1/4+x,1/2-y,3/4+z
loop_
_atom_site_type_symbol
_atom_site_label
_atom_site_fract_x
_atom_site_fract_y
_atom_site_fract_z
Si Si1 0.047447 0.314678 0.713005
Si Si2 0.583941 0.827864 0.441253
Si Si3 0.573070 0.705071 0.824658
Si Si4 0.806736 0.464594 0.149323
Si Si5 0.062608 0.998705 0.156249
O O1 0.059969 0.322589 0.573981
O O2 0.098036 0.339414 0.789734
O O3 0.062508 0.255255 0.742853
O O4 0.979914 0.328948 0.723644
O O5 0.555544 0.875000 0.375000
O O6 0.572487 0.774506 0.375254
O O7 0.639790 0.687102 0.832666
O O8 0.562362 0.724240 0.963579
O O9 0.806234 0.461047 0.294700
O O10 0.741502 0.460137 0.101096
O O11 0.125000 0.974073 0.125000
#
# Coordination Sequence:
#
# PCOD9514438 Si02
#       5
#    32  32  32  32  32
#     4   9  18  32  48  73 101 135 183 217 278 319
#     4  10  19  33  49  71 110 146 175 219 263 343
#     4   9  16  30  52  73 105 133 171 243 272 318
#     4   9  17  29  49  79 107 136 179 217 286 328
#     4   9  16  28  48  78 110 133 169 233 283 325
#
# _framework density 23.865058999999999
#
# number of rings (size 3 to 8) (size 9 to 14) (size 15 to 20)
#    0.000    2.800    2.000    0.000    0.000    0.000 
#   18.000    0.000    0.000    0.600    0.000    0.000 
#   18.000    0.000    0.000    0.000    0.000    0.000 
#
# Total GULP energy -222855.455477 kJ/mol
# GULP energy per Si atom -5571.386387 kJ/mol
# Density = 2.381074 g / cm^3
# Si number density = 23.865059 Si / 1000 Ang^3
#
#
#
# Elastic Constant Matrix: (Units=GPa)
#
#
# Indices 1 2 3 4 5 6 
#
# 1 232.0933 -12.9190 17.6618 0.0000 0.0000 0.0000
# 2 -12.9190 -78.6291 121.9165 0.0000 0.0003 0.0000
# 3 17.6618 121.9165 -8.1039 0.0000 0.0016 0.0000
# 4 0.0000 0.0000 0.0000 2.6348 0.0008 0.0000
# 5 0.0000 0.0003 0.0016 0.0008 -466.1174 -0.0004
# 6 0.0000 0.0000 0.0000 0.0000 -0.0004 -1.6341
#
#
#
# Elastic Compliance Matrix: (Units=1/GPa)
#
#
# Indices 1 2 3 4 5 6 
#
# 1 0.004270 -0.000615 0.000056 0.000000 0.000000 0.000000
# 2 -0.000615 0.000658 0.008562 0.000000 0.000000 0.000000
# 3 0.000056 0.008562 0.005528 0.000000 0.000000 0.000000
# 4 0.000000 0.000000 0.000000 0.379531 0.000001 0.000001
# 5 0.000000 0.000000 0.000000 0.000001 -0.002145 0.000000
# 6 0.000000 0.000000 0.000000 0.000001 0.000000 -0.611969
#
#
# Mechanical properties :
#
#
# Convention : Reuss Voigt Hill
#
# Bulk Modulus (GPa) = 37.79087 44.29765 41.04426
# Shear Modulus (GPa) = -21.61575 -91.77660 -56.69617
#
# Velocity S-wave (km/s) = -3.01283 -6.20806 -4.87940
# Velocity P-wave (km/s) = 1.94081 5.72578 3.80906
#
# Compressibility (1/GPa) = 0.02646142
#
# Stress axis : x y z
#
# Youngs Moduli (GPa) = 234.18493 1519.34434 180.90670
#
# Poissons Ratio (x) = 0.93423 -0.01012
# Poissons Ratio (y) = 0.14400 -1.54886
# Poissons Ratio (z) = -0.01310 -13.00812
#
# Static dielectric constant tensor:
#      x y z
#    x 2.071390 0.000000 0.000000 
#    y 0.000000 1.877210 0.000000 
#    z 0.000000 0.000000 1.862320 
# 
# From -- ./inp_files/19493.got.cif
#   From: 2010.05.17/outbox.cif.g08.bks.cpg/sg70_10_cif.got.tgz:19493.got - 2010.06.03 15:57:51.
