data_PCOD9514589
_publ_section_title
;
Structure prediction by ZEFSAII (Michael W. Deem and Ramdas Pophale) SiO2 
 PCOD9514589
Probable space group: F D D D
;
_chemical_formula_sum "Si O2"
_cell_formula_units_Z 160
_cell_length_a 27.666627
_cell_length_b 20.053032
_cell_length_c 14.603206
_cell_angle_alpha 90.000000
_cell_angle_beta 90.000000
_cell_angle_gamma 90.000000
_cell_volume 8101.855134
_symmetry_space_group_name_H-M "F D D D"
_symmetry_group_IT_number 70
_space_group.IT_coordinate_system_code '2'
_symmetry_cell_setting 'orthorhombic'
loop_
_space_group_symop_operation_xyz
x,y,z
1/4-x,1/4-y,z
x,1/4-y,1/4-z
1/4-x,y,1/4-z
-x,-y,-z
3/4+x,3/4+y,-z
-x,3/4+y,3/4+z
3/4+x,-y,3/4+z
x,1/2+y,1/2+z
1/4-x,3/4-y,1/2+z
x,3/4-y,3/4-z
1/4-x,1/2+y,3/4-z
-x,1/2-y,1/2-z
3/4+x,1/4+y,1/2-z
-x,1/4+y,1/4+z
3/4+x,1/2-y,1/4+z
1/2+x,y,1/2+z
3/4-x,1/4-y,1/2+z
1/2+x,1/4-y,3/4-z
3/4-x,y,3/4-z
1/2-x,-y,1/2-z
1/4+x,3/4+y,1/2-z
1/2-x,3/4+y,1/4+z
1/4+x,-y,1/4+z
1/2+x,1/2+y,z
3/4-x,3/4-y,z
1/2+x,3/4-y,1/4-z
3/4-x,1/2+y,1/4-z
1/2-x,1/2-y,-z
1/4+x,1/4+y,-z
1/2-x,1/4+y,3/4+z
1/4+x,1/2-y,3/4+z
loop_
_atom_site_type_symbol
_atom_site_label
_atom_site_fract_x
_atom_site_fract_y
_atom_site_fract_z
Si Si1 0.049074 0.561505 0.062201
Si Si2 0.875000 0.047274 0.375000
Si Si3 0.756721 0.875000 0.875000
Si Si4 0.823074 0.000228 0.925607
Si Si5 0.785141 0.273893 0.131831
Si Si6 0.954770 0.121493 0.946125
O O1 0.060819 0.625000 0.125000
O O2 0.084511 0.500737 0.085234
O O3 0.994478 0.538221 0.088011
O O4 0.055094 0.567261 0.953032
O O5 0.902090 0.094559 0.302929
O O6 0.791841 0.814323 0.850010
O O7 0.722344 0.902349 0.794409
O O8 0.875000 0.996285 0.875000
O O9 0.797509 0.065379 0.882110
O O10 0.820826 0.999329 0.036930
O O11 0.743832 0.321526 0.173553
#
# Coordination Sequence:
#
# PCOD9514589 Si02
#       6
#    32  16  16  32  32  32
#     4  10  19  37  59  86 121 155 195 254 305 365
#     4  10  21  36  54  87 114 148 202 244 290 363
#     4  10  23  38  58  84 114 160 202 246 309 374
#     4  11  21  38  60  86 119 157 202 258 303 366
#     4   9  21  36  59  87 115 158 200 238 312 377
#     4  10  20  39  57  81 118 152 196 247 303 358
#
# _framework density 19.748564999999999
#
# number of rings (size 3 to 8) (size 9 to 14) (size 15 to 20)
#    0.000    2.000    1.000    2.400    0.000    1.600 
#    0.000   10.000    0.000    0.000    0.000    0.000 
#    0.000    0.000    0.000    0.000    0.000    0.000 
#
# Total GULP energy -222750.688480 kJ/mol
# GULP energy per Si atom -5568.767212 kJ/mol
# Density = 1.970362 g / cm^3
# Si number density = 19.748565 Si / 1000 Ang^3
#
#
#
# Elastic Constant Matrix: (Units=GPa)
#
#
# Indices 1 2 3 4 5 6 
#
# 1 71.6336 4.0750 37.0331 0.0000 0.0000 0.0000
# 2 4.0750 63.0106 12.5769 0.0000 0.0000 0.0000
# 3 37.0331 12.5769 136.7131 0.0000 0.0000 0.0000
# 4 0.0000 0.0000 0.0000 24.1330 0.0000 0.0000
# 5 0.0000 0.0000 0.0000 0.0000 28.4754 0.0000
# 6 0.0000 0.0000 0.0000 0.0000 0.0000 15.3916
#
#
#
# Elastic Compliance Matrix: (Units=1/GPa)
#
#
# Indices 1 2 3 4 5 6 
#
# 1 0.016235 -0.000175 -0.004382 0.000000 0.000000 0.000000
# 2 -0.000175 0.016169 -0.001440 0.000000 0.000000 0.000000
# 3 -0.004382 -0.001440 0.008634 0.000000 0.000000 0.000000
# 4 0.000000 0.000000 0.000000 0.041437 0.000000 0.000000
# 5 0.000000 0.000000 0.000000 0.000000 0.035118 0.000000
# 6 0.000000 0.000000 0.000000 0.000000 0.000000 0.064970
#
#
# Mechanical properties :
#
#
# Convention : Reuss Voigt Hill
#
# Bulk Modulus (GPa) = 34.43031 42.08082 38.25556
# Shear Modulus (GPa) = 24.48112 28.11149 26.29630
#
# Velocity S-wave (km/s) = 3.52467 3.77698 3.65301
# Velocity P-wave (km/s) = 5.83409 6.35416 6.09967
#
# Compressibility (1/GPa) = 0.02904418
#
# Stress axis : x y z
#
# Youngs Moduli (GPa) = 61.59483 61.84635 115.82160
#
# Poissons Ratio (x) = 0.01085 0.50749
# Poissons Ratio (y) = 0.01080 0.16678
# Poissons Ratio (z) = 0.26989 0.08906
#
# Static dielectric constant tensor:
#      x y z
#    x 1.697400 0.000000 0.000000 
#    y 0.000000 1.695350 0.000000 
#    z 0.000000 0.000000 1.778510 
# 
# From -- ./inp_files/30945.got.cif
#   From: 2010.05.17/outbox.cif.g08.bks.cpg/sg70_16_cif.got.tgz:30945.got - 2010.06.03 15:57:51.
