data_PCOD9514517
_publ_section_title
;
Structure prediction by ZEFSAII (Michael W. Deem and Ramdas Pophale) SiO2 
 PCOD9514517
Probable space group: F D D D
;
_chemical_formula_sum "Si O2"
_cell_formula_units_Z 176
_cell_length_a 25.995736
_cell_length_b 15.618745
_cell_length_c 16.523105
_cell_angle_alpha 90.000000
_cell_angle_beta 90.000000
_cell_angle_gamma 90.000000
_cell_volume 6708.723843
_symmetry_space_group_name_H-M "F D D D"
_symmetry_group_IT_number 70
_space_group.IT_coordinate_system_code '2'
_symmetry_cell_setting 'orthorhombic'
loop_
_space_group_symop_operation_xyz
x,y,z
1/4-x,1/4-y,z
x,1/4-y,1/4-z
1/4-x,y,1/4-z
-x,-y,-z
3/4+x,3/4+y,-z
-x,3/4+y,3/4+z
3/4+x,-y,3/4+z
x,1/2+y,1/2+z
1/4-x,3/4-y,1/2+z
x,3/4-y,3/4-z
1/4-x,1/2+y,3/4-z
-x,1/2-y,1/2-z
3/4+x,1/4+y,1/2-z
-x,1/4+y,1/4+z
3/4+x,1/2-y,1/4+z
1/2+x,y,1/2+z
3/4-x,1/4-y,1/2+z
1/2+x,1/4-y,3/4-z
3/4-x,y,3/4-z
1/2-x,-y,1/2-z
1/4+x,3/4+y,1/2-z
1/2-x,3/4+y,1/4+z
1/4+x,-y,1/4+z
1/2+x,1/2+y,z
3/4-x,3/4-y,z
1/2+x,3/4-y,1/4-z
3/4-x,1/2+y,1/4-z
1/2-x,1/2-y,-z
1/4+x,1/4+y,-z
1/2-x,1/4+y,3/4+z
1/4+x,1/2-y,3/4+z
loop_
_atom_site_type_symbol
_atom_site_label
_atom_site_fract_x
_atom_site_fract_y
_atom_site_fract_z
Si Si1 0.706870 0.639126 0.795278
Si Si2 0.323727 0.696150 0.467771
Si Si3 0.786344 0.880065 0.734159
Si Si4 0.684923 0.314691 0.724899
Si Si5 0.570355 0.025176 0.146553
Si Si6 0.250000 0.500000 0.250000
O O1 0.705602 0.652967 0.889374
O O2 0.765823 0.624311 0.752950
O O3 0.685885 0.716787 0.743514
O O4 0.691716 0.542775 0.774708
O O5 0.272608 0.654765 0.505457
O O6 0.321038 0.799209 0.472099
O O7 0.318730 0.677875 0.372147
O O8 0.377858 0.667225 0.505034
O O9 0.799665 0.782591 0.754110
O O10 0.573777 0.125000 0.125000
O O11 0.625000 0.984492 0.125000
O O12 0.519990 0.995607 0.099362
#
# Coordination Sequence:
#
# PCOD9514517 Si02
#       6
#    32  32  32  32  32  16
#     4  10  21  37  58  86 117 149 201 255 299 373
#     4   9  20  36  58  88 122 158 202 243 306 377
#     4  10  19  35  59  87 120 158 195 250 303 371
#     4  10  19  37  59  87 121 161 198 250 306 372
#     4   9  19  39  59  81 114 154 198 250 303 366
#     4  10  20  40  60  80 112 158 196 248 310 358
#
# _framework density 26.234497999999999
#
# number of rings (size 3 to 8) (size 9 to 14) (size 15 to 20)
#    0.000    2.364    0.000    2.182    0.000    1.455 
#   26.182    0.000    0.000    8.727    0.000    0.000 
#    0.000    0.000    0.000    0.000    0.000    0.000 
#
# Total GULP energy -245007.108960 kJ/mol
# GULP energy per Si atom -5568.343385 kJ/mol
# Density = 2.617479 g / cm^3
# Si number density = 26.234498 Si / 1000 Ang^3
#
#
#
# Elastic Constant Matrix: (Units=GPa)
#
#
# Indices 1 2 3 4 5 6 
#
# 1 139.7202 29.3262 32.1895 0.0000 0.0000 0.0000
# 2 29.3262 136.9997 24.4298 0.0000 0.0000 0.0000
# 3 32.1895 24.4298 68.9385 0.0000 0.0000 0.0000
# 4 0.0000 0.0000 0.0000 27.3898 0.0000 0.0000
# 5 0.0000 0.0000 0.0000 0.0000 21.1138 0.0000
# 6 0.0000 0.0000 0.0000 0.0000 0.0000 29.2760
#
#
#
# Elastic Compliance Matrix: (Units=1/GPa)
#
#
# Indices 1 2 3 4 5 6 
#
# 1 0.008184 -0.001143 -0.003416 0.000000 0.000000 0.000000
# 2 -0.001143 0.007951 -0.002284 0.000000 0.000000 0.000000
# 3 -0.003416 -0.002284 0.016910 0.000000 0.000000 0.000000
# 4 0.000000 0.000000 0.000000 0.036510 0.000000 0.000000
# 5 0.000000 0.000000 0.000000 0.000000 0.047362 0.000000
# 6 0.000000 0.000000 0.000000 0.000000 0.000000 0.034158
#
#
# Mechanical properties :
#
#
# Convention : Reuss Voigt Hill
#
# Bulk Modulus (GPa) = 51.65523 57.50550 54.58037
# Shear Modulus (GPa) = 29.20299 32.87010 31.03655
#
# Velocity S-wave (km/s) = 3.34001 3.54352 3.44327
# Velocity P-wave (km/s) = 5.88275 6.22169 6.05460
#
# Compressibility (1/GPa) = 0.01935912
#
# Stress axis : x y z
#
# Youngs Moduli (GPa) = 122.18807 125.76735 59.13527
#
# Poissons Ratio (x) = 0.14371 0.20203
# Poissons Ratio (y) = 0.13962 0.13507
# Poissons Ratio (z) = 0.41745 0.28727
#
# Static dielectric constant tensor:
#      x y z
#    x 2.239310 0.000000 0.000000 
#    y 0.000000 2.686550 0.000000 
#    z 0.000000 0.000000 2.263870 
# 
# From -- ./inp_files/39689.got.cif
#   From: 2010.05.17/outbox.cif.g08.bks.cpg/sg70_20_cif.got.tgz:39689.got - 2010.06.03 15:57:51.
