data_PCOD9514972
_publ_section_title
;
Structure prediction by ZEFSAII (Michael W. Deem and Ramdas Pophale) SiO2 
 PCOD9514972
Probable space group: F D D D
;
_chemical_formula_sum "Si O2"
_cell_formula_units_Z 192
_cell_length_a 22.615419
_cell_length_b 18.963767
_cell_length_c 21.585606
_cell_angle_alpha 90.000000
_cell_angle_beta 90.000000
_cell_angle_gamma 90.000000
_cell_volume 9257.495183
_symmetry_space_group_name_H-M "F D D D"
_symmetry_group_IT_number 70
_space_group.IT_coordinate_system_code '2'
_symmetry_cell_setting 'orthorhombic'
loop_
_space_group_symop_operation_xyz
x,y,z
1/4-x,1/4-y,z
x,1/4-y,1/4-z
1/4-x,y,1/4-z
-x,-y,-z
3/4+x,3/4+y,-z
-x,3/4+y,3/4+z
3/4+x,-y,3/4+z
x,1/2+y,1/2+z
1/4-x,3/4-y,1/2+z
x,3/4-y,3/4-z
1/4-x,1/2+y,3/4-z
-x,1/2-y,1/2-z
3/4+x,1/4+y,1/2-z
-x,1/4+y,1/4+z
3/4+x,1/2-y,1/4+z
1/2+x,y,1/2+z
3/4-x,1/4-y,1/2+z
1/2+x,1/4-y,3/4-z
3/4-x,y,3/4-z
1/2-x,-y,1/2-z
1/4+x,3/4+y,1/2-z
1/2-x,3/4+y,1/4+z
1/4+x,-y,1/4+z
1/2+x,1/2+y,z
3/4-x,3/4-y,z
1/2+x,3/4-y,1/4-z
3/4-x,1/2+y,1/4-z
1/2-x,1/2-y,-z
1/4+x,1/4+y,-z
1/2-x,1/4+y,3/4+z
1/4+x,1/2-y,3/4+z
loop_
_atom_site_type_symbol
_atom_site_label
_atom_site_fract_x
_atom_site_fract_y
_atom_site_fract_z
Si Si1 0.568278 0.081199 0.759220
Si Si2 0.563474 0.961387 0.101006
Si Si3 0.098004 0.893762 0.472895
Si Si4 0.043390 0.837313 0.700177
Si Si5 0.054505 0.544314 0.631982
Si Si6 0.810565 0.224657 0.136794
O O1 0.625000 0.125000 0.738223
O O2 0.516665 0.136282 0.770346
O O3 0.546149 0.028633 0.704992
O O4 0.581530 0.040946 0.822673
O O5 0.625000 0.995990 0.125000
O O6 0.557461 0.892147 0.144562
O O7 0.504184 0.006624 0.110308
O O8 0.570840 0.934512 0.031106
O O9 0.154084 0.850283 0.500070
O O10 0.105650 0.950998 0.417447
O O11 0.057050 0.838014 0.437062
O O12 0.033797 0.761805 0.668319
O O13 0.033284 0.625000 0.625000
O O14 0.125000 0.541511 0.625000
#
# Coordination Sequence:
#
# PCOD9514972 Si02
#       6
#    32  32  32  32  32  32
#     4  11  23  41  59  88 124 155 207 261 308 364
#     4   9  18  37  63  86 116 163 209 244 307 382
#     4  10  20  38  60  88 122 158 205 246 313 379
#     4  10  22  38  64  87 118 168 203 255 313 377
#     4  11  21  39  60  86 119 166 208 250 306 375
#     4  10  21  36  59  91 121 157 196 264 313 356
#
# _framework density 20.739951000000001
#
# number of rings (size 3 to 8) (size 9 to 14) (size 15 to 20)
#    0.000    1.833    1.667    4.000    0.000    2.000 
#    3.000    6.667    0.000    0.000    0.000    0.000 
#    0.000    0.000    0.000    0.000    0.000    0.000 
#
# Total GULP energy -267692.534693 kJ/mol
# GULP energy per Si atom -5576.927806 kJ/mol
# Density = 2.069275 g / cm^3
# Si number density = 20.739951 Si / 1000 Ang^3
#
#
#
# Elastic Constant Matrix: (Units=GPa)
#
#
# Indices 1 2 3 4 5 6 
#
# 1 53.7408 36.3478 47.7641 0.0000 0.0000 0.0000
# 2 36.3478 88.7776 56.4906 0.0000 0.0000 0.0000
# 3 47.7641 56.4906 159.2456 0.0000 0.0000 0.0000
# 4 0.0000 0.0000 0.0000 42.3577 0.0000 0.0000
# 5 0.0000 0.0000 0.0000 0.0000 15.4654 0.0000
# 6 0.0000 0.0000 0.0000 0.0000 0.0000 14.7685
#
#
#
# Elastic Compliance Matrix: (Units=1/GPa)
#
#
# Indices 1 2 3 4 5 6 
#
# 1 0.029466 -0.008318 -0.005887 0.000000 0.000000 0.000000
# 2 -0.008318 0.016896 -0.003499 0.000000 0.000000 0.000000
# 3 -0.005887 -0.003499 0.009287 0.000000 0.000000 0.000000
# 4 0.000000 0.000000 0.000000 0.023608 0.000000 0.000000
# 5 0.000000 0.000000 0.000000 0.000000 0.064660 0.000000
# 6 0.000000 0.000000 0.000000 0.000000 0.000000 0.067712
#
#
# Mechanical properties :
#
#
# Convention : Reuss Voigt Hill
#
# Bulk Modulus (GPa) = 49.40556 64.77435 57.08996
# Shear Modulus (GPa) = 19.70169 25.26241 22.48205
#
# Velocity S-wave (km/s) = 3.08545 3.49385 3.29598
# Velocity P-wave (km/s) = 6.04703 6.89750 6.48622
#
# Compressibility (1/GPa) = 0.02024064
#
# Stress axis : x y z
#
# Youngs Moduli (GPa) = 33.93686 59.18540 107.68162
#
# Poissons Ratio (x) = 0.49231 0.63397
# Poissons Ratio (y) = 0.28229 0.37675
# Poissons Ratio (z) = 0.19980 0.20708
#
# Static dielectric constant tensor:
#      x y z
#    x 1.865140 0.000000 0.000000 
#    y 0.000000 1.797140 0.000000 
#    z 0.000000 0.000000 1.804560 
# 
# From -- ./inp_files/45941.got.cif
#   From: 2010.05.17/outbox.cif.g08.bks.cpg/sg70_23_cif.got.tgz:45941.got - 2010.06.03 15:57:51.
