data_PCOD9514717
_publ_section_title
;
Structure prediction by ZEFSAII (Michael W. Deem and Ramdas Pophale) SiO2 
 PCOD9514717
Probable space group: F D D D
;
_chemical_formula_sum "Si O2"
_cell_formula_units_Z 208
_cell_length_a 18.814336
_cell_length_b 19.832902
_cell_length_c 26.876353
_cell_angle_alpha 90.000000
_cell_angle_beta 90.000000
_cell_angle_gamma 90.000000
_cell_volume 10028.719818
_symmetry_space_group_name_H-M "F D D D"
_symmetry_group_IT_number 70
_space_group.IT_coordinate_system_code '2'
_symmetry_cell_setting 'orthorhombic'
loop_
_space_group_symop_operation_xyz
x,y,z
1/4-x,1/4-y,z
x,1/4-y,1/4-z
1/4-x,y,1/4-z
-x,-y,-z
3/4+x,3/4+y,-z
-x,3/4+y,3/4+z
3/4+x,-y,3/4+z
x,1/2+y,1/2+z
1/4-x,3/4-y,1/2+z
x,3/4-y,3/4-z
1/4-x,1/2+y,3/4-z
-x,1/2-y,1/2-z
3/4+x,1/4+y,1/2-z
-x,1/4+y,1/4+z
3/4+x,1/2-y,1/4+z
1/2+x,y,1/2+z
3/4-x,1/4-y,1/2+z
1/2+x,1/4-y,3/4-z
3/4-x,y,3/4-z
1/2-x,-y,1/2-z
1/4+x,3/4+y,1/2-z
1/2-x,3/4+y,1/4+z
1/4+x,-y,1/4+z
1/2+x,1/2+y,z
3/4-x,3/4-y,z
1/2+x,3/4-y,1/4-z
3/4-x,1/2+y,1/4-z
1/2-x,1/2-y,-z
1/4+x,1/4+y,-z
1/2-x,1/4+y,3/4+z
1/4+x,1/2-y,3/4+z
loop_
_atom_site_type_symbol
_atom_site_label
_atom_site_fract_x
_atom_site_fract_y
_atom_site_fract_z
Si Si1 0.625000 0.625000 0.837700
Si Si2 0.013042 0.080797 0.494259
Si Si3 0.618043 0.818075 0.988407
Si Si4 0.910422 0.007364 0.630614
Si Si5 0.450171 0.940921 0.899638
Si Si6 0.455117 0.089188 0.675767
Si Si7 0.854547 0.795869 0.817177
O O1 0.560190 0.643175 0.801157
O O2 0.617640 0.561225 0.873303
O O3 0.057777 0.085413 0.544858
O O4 0.941936 0.126643 0.496176
O O5 0.000000 0.000000 0.500000
O O6 0.592647 0.782530 0.937029
O O7 0.686911 0.859776 0.969905
O O8 0.633713 0.761516 0.029993
O O9 0.868526 0.055985 0.592160
O O10 0.991612 0.002765 0.612052
O O11 0.484457 0.875000 0.875000
O O12 0.375000 0.956279 0.875000
O O13 0.481444 0.125000 0.625000
O O14 0.519060 0.040608 0.689777
O O15 0.875000 0.783258 0.875000
O O16 0.875000 0.875000 0.806173
#
# Coordination Sequence:
#
# PCOD9514717 Si02
#       7
#    16  32  32  32  32  32  32
#     4  12  24  38  63  96 143 178 224 298 344 412
#     4  12  23  41  66 101 137 183 231 286 363 423
#     4  11  24  41  70  97 129 178 240 281 339 437
#     4  11  22  42  65  98 136 182 236 276 345 426
#     4  11  20  39  66  94 135 183 225 279 344 424
#     4  10  19  43  69  88 128 181 219 277 347 416
#     4  11  24  46  68  98 137 179 231 293 366 417
#
# _framework density 20.740434
#
# number of rings (size 3 to 8) (size 9 to 14) (size 15 to 20)
#    0.000    0.923    6.154    2.308    1.077    0.615 
#    0.000    2.308    0.000    0.000    0.000    0.000 
#    0.000    0.000    0.000    0.000    0.000    0.000 
#
# Total GULP energy -289738.530181 kJ/mol
# GULP energy per Si atom -5571.894811 kJ/mol
# Density = 2.069323 g / cm^3
# Si number density = 20.740434 Si / 1000 Ang^3
#
#
#
# Elastic Constant Matrix: (Units=GPa)
#
#
# Indices 1 2 3 4 5 6 
#
# 1 81.3865 21.9516 25.6395 0.0000 0.0000 0.0000
# 2 21.9516 122.8056 53.0182 0.0000 0.0000 0.0000
# 3 25.6395 53.0182 84.8252 0.0000 0.0000 0.0000
# 4 0.0000 0.0000 0.0000 32.3186 0.0000 0.0000
# 5 0.0000 0.0000 0.0000 0.0000 5.8040 0.0000
# 6 0.0000 0.0000 0.0000 0.0000 0.0000 -3.8993
#
#
#
# Elastic Compliance Matrix: (Units=1/GPa)
#
#
# Indices 1 2 3 4 5 6 
#
# 1 0.013653 -0.000902 -0.003563 0.000000 0.000000 0.000000
# 2 -0.000902 0.011212 -0.006735 0.000000 0.000000 0.000000
# 3 -0.003563 -0.006735 0.017075 0.000000 0.000000 0.000000
# 4 0.000000 0.000000 0.000000 0.030942 0.000000 0.000000
# 5 0.000000 0.000000 0.000000 0.000000 0.172294 0.000000
# 6 0.000000 0.000000 0.000000 0.000000 0.000000 -0.256453
#
#
# Mechanical properties :
#
#
# Convention : Reuss Voigt Hill
#
# Bulk Modulus (GPa) = 51.17726 54.47067 52.82397
# Shear Modulus (GPa) = 283.49818 19.40518 151.45168
#
# Velocity S-wave (km/s) = 11.70408 3.06211 8.55459
# Velocity P-wave (km/s) = 14.40055 6.23074 11.09500
#
# Compressibility (1/GPa) = 0.01953993
#
# Stress axis : x y z
#
# Youngs Moduli (GPa) = 73.24490 89.19074 58.56364
#
# Poissons Ratio (x) = 0.08048 0.20865
# Poissons Ratio (y) = 0.06609 0.39443
# Poissons Ratio (z) = 0.26095 0.60070
#
# Static dielectric constant tensor:
#      x y z
#    x 1.790580 0.000000 0.000000 
#    y 0.000000 1.814670 0.000000 
#    z 0.000000 0.000000 1.689840 
# 
# From -- ./inp_files/59612.got.cif
#   From: 2010.05.17/outbox.cif.g08.bks.cpg/sg70_30_cif.got.tgz:59612.got - 2010.06.03 15:57:51.
