data_PCOD9514753
_publ_section_title
;
Structure prediction by ZEFSAII (Michael W. Deem and Ramdas Pophale) SiO2 
 PCOD9514753
Probable space group: F D D D
;
_chemical_formula_sum "Si O2"
_cell_formula_units_Z 200
_cell_length_a 20.083927
_cell_length_b 18.916147
_cell_length_c 21.300835
_cell_angle_alpha 90.000000
_cell_angle_beta 90.000000
_cell_angle_gamma 90.000000
_cell_volume 8092.411205
_symmetry_space_group_name_H-M "F D D D"
_symmetry_group_IT_number 70
_space_group.IT_coordinate_system_code '2'
_symmetry_cell_setting 'orthorhombic'
loop_
_space_group_symop_operation_xyz
x,y,z
1/4-x,1/4-y,z
x,1/4-y,1/4-z
1/4-x,y,1/4-z
-x,-y,-z
3/4+x,3/4+y,-z
-x,3/4+y,3/4+z
3/4+x,-y,3/4+z
x,1/2+y,1/2+z
1/4-x,3/4-y,1/2+z
x,3/4-y,3/4-z
1/4-x,1/2+y,3/4-z
-x,1/2-y,1/2-z
3/4+x,1/4+y,1/2-z
-x,1/4+y,1/4+z
3/4+x,1/2-y,1/4+z
1/2+x,y,1/2+z
3/4-x,1/4-y,1/2+z
1/2+x,1/4-y,3/4-z
3/4-x,y,3/4-z
1/2-x,-y,1/2-z
1/4+x,3/4+y,1/2-z
1/2-x,3/4+y,1/4+z
1/4+x,-y,1/4+z
1/2+x,1/2+y,z
3/4-x,3/4-y,z
1/2+x,3/4-y,1/4-z
3/4-x,1/2+y,1/4-z
1/2-x,1/2-y,-z
1/4+x,1/4+y,-z
1/2-x,1/4+y,3/4+z
1/4+x,1/2-y,3/4+z
loop_
_atom_site_type_symbol
_atom_site_label
_atom_site_fract_x
_atom_site_fract_y
_atom_site_fract_z
Si Si1 0.461675 0.932510 0.563545
Si Si2 0.669699 0.483489 0.915559
Si Si3 0.963033 0.693520 0.486800
Si Si4 0.826073 0.619336 0.761655
Si Si5 0.125000 0.125000 0.125000
Si Si6 0.187512 0.084202 0.811804
Si Si7 0.212473 0.247559 0.157720
O O1 0.390706 0.969533 0.554036
O O2 0.498621 0.881719 0.515344
O O3 0.452224 0.882935 0.625984
O O4 0.516003 0.989150 0.586702
O O5 0.741905 0.507177 0.942343
O O6 0.660656 0.405470 0.943902
O O7 0.671824 0.508205 0.843098
O O8 0.887174 0.680258 0.469536
O O9 0.971029 0.729920 0.553884
O O10 0.753400 0.585408 0.770008
O O11 0.823237 0.685830 0.810476
O O12 0.168448 0.178788 0.164442
O O13 0.125000 0.125000 0.781300
#
# Coordination Sequence:
#
# PCOD9514753 Si02
#       7
#    32  32  32  32   8  32  32
#     4   9  18  35  53  73 114 157 186 233 289 344
#     4   9  19  32  54  80 108 153 192 224 290 357
#     4  10  20  33  56  83 112 152 197 239 290 353
#     4  10  20  34  56  80 110 147 193 240 292 347
#     4  12  24  32  44  76 124 152 186 248 264 340
#     4   8  16  34  56  77 106 144 189 238 290 353
#     4  10  23  35  50  82 116 156 199 234 286 356
#
# _framework density 24.714511999999999
#
# number of rings (size 3 to 8) (size 9 to 14) (size 15 to 20)
#    0.000    2.560    0.000    2.400    6.720    5.760 
#    0.000    0.000    0.000   17.280    0.000    0.000 
#    0.000    0.000    0.000    0.000    0.000    0.000 
#
# Total GULP energy -279319.186142 kJ/mol
# GULP energy per Si atom -5586.383723 kJ/mol
# Density = 2.465826 g / cm^3
# Si number density = 24.714512 Si / 1000 Ang^3
#
#
#
# Elastic Constant Matrix: (Units=GPa)
#
#
# Indices 1 2 3 4 5 6 
#
# 1 164.9945 19.7609 21.1117 0.0000 0.0000 0.0000
# 2 19.7609 61.3330 12.3437 0.0000 0.0000 0.0000
# 3 21.1117 12.3437 46.9317 0.0000 0.0000 0.0000
# 4 0.0000 0.0000 0.0000 33.7648 0.0000 0.0000
# 5 0.0000 0.0000 0.0000 0.0000 23.2669 0.0000
# 6 0.0000 0.0000 0.0000 0.0000 0.0000 29.3248
#
#
#
# Elastic Compliance Matrix: (Units=1/GPa)
#
#
# Indices 1 2 3 4 5 6 
#
# 1 0.006578 -0.001609 -0.002536 0.000000 0.000000 0.000000
# 2 -0.001609 0.017609 -0.003908 0.000000 0.000000 0.000000
# 3 -0.002536 -0.003908 0.023476 0.000000 0.000000 0.000000
# 4 0.000000 0.000000 0.000000 0.029617 0.000000 0.000000
# 5 0.000000 0.000000 0.000000 0.000000 0.042980 0.000000
# 6 0.000000 0.000000 0.000000 0.000000 0.000000 0.034101
#
#
# Mechanical properties :
#
#
# Convention : Reuss Voigt Hill
#
# Bulk Modulus (GPa) = 31.68742 42.18795 36.93769
# Shear Modulus (GPa) = 27.62663 31.94083 29.78373
#
# Velocity S-wave (km/s) = 3.34702 3.59889 3.47524
# Velocity P-wave (km/s) = 5.27124 5.86315 5.57505
#
# Compressibility (1/GPa) = 0.03155827
#
# Stress axis : x y z
#
# Youngs Moduli (GPa) = 152.02227 56.78818 42.59660
#
# Poissons Ratio (x) = 0.09137 0.10802
# Poissons Ratio (y) = 0.24460 0.16645
# Poissons Ratio (z) = 0.38550 0.22191
#
# Static dielectric constant tensor:
#      x y z
#    x 1.970640 0.000000 0.000000 
#    y 0.000000 2.039800 0.000000 
#    z 0.000000 0.000000 2.006840 
# 
# From -- ./inp_files/59618.got.cif
#   From: 2010.05.17/outbox.cif.g08.bks.cpg/sg70_30_cif.got.tgz:59618.got - 2010.06.03 15:57:51.
