data_PCOD9514079
_publ_section_title
;
Structure prediction by ZEFSAII (Michael W. Deem and Ramdas Pophale) SiO2 
 PCOD9514079
Probable space group: F D D D
;
_chemical_formula_sum "Si O2"
_cell_formula_units_Z 208
_cell_length_a 15.433529
_cell_length_b 20.177011
_cell_length_c 31.746448
_cell_angle_alpha 90.000000
_cell_angle_beta 90.000000
_cell_angle_gamma 90.000000
_cell_volume 9885.922778
_symmetry_space_group_name_H-M "F D D D"
_symmetry_group_IT_number 70
_space_group.IT_coordinate_system_code '2'
_symmetry_cell_setting 'orthorhombic'
loop_
_space_group_symop_operation_xyz
x,y,z
1/4-x,1/4-y,z
x,1/4-y,1/4-z
1/4-x,y,1/4-z
-x,-y,-z
3/4+x,3/4+y,-z
-x,3/4+y,3/4+z
3/4+x,-y,3/4+z
x,1/2+y,1/2+z
1/4-x,3/4-y,1/2+z
x,3/4-y,3/4-z
1/4-x,1/2+y,3/4-z
-x,1/2-y,1/2-z
3/4+x,1/4+y,1/2-z
-x,1/4+y,1/4+z
3/4+x,1/2-y,1/4+z
1/2+x,y,1/2+z
3/4-x,1/4-y,1/2+z
1/2+x,1/4-y,3/4-z
3/4-x,y,3/4-z
1/2-x,-y,1/2-z
1/4+x,3/4+y,1/2-z
1/2-x,3/4+y,1/4+z
1/4+x,-y,1/4+z
1/2+x,1/2+y,z
3/4-x,3/4-y,z
1/2+x,3/4-y,1/4-z
3/4-x,1/2+y,1/4-z
1/2-x,1/2-y,-z
1/4+x,1/4+y,-z
1/2-x,1/4+y,3/4+z
1/4+x,1/2-y,3/4+z
loop_
_atom_site_type_symbol
_atom_site_label
_atom_site_fract_x
_atom_site_fract_y
_atom_site_fract_z
Si Si1 0.188647 0.709364 0.916737
Si Si2 0.479397 0.614512 0.298714
Si Si3 0.492403 0.441344 0.189962
Si Si4 0.874565 0.471753 0.178814
Si Si5 0.898298 0.658791 0.018779
Si Si6 0.375000 0.079800 0.375000
Si Si7 0.970278 0.343412 0.830388
O O1 0.222708 0.637078 0.930176
O O2 0.102147 0.724049 0.944191
O O3 0.145212 0.709751 0.870171
O O4 0.264099 0.764322 0.917247
O O5 0.549931 0.673295 0.304559
O O6 0.533617 0.548066 0.300868
O O7 0.425463 0.620619 0.256520
O O8 0.418931 0.624977 0.339347
O O9 0.550995 0.446701 0.231177
O O10 0.551532 0.461700 0.149773
O O11 0.856514 0.544431 0.195732
O O12 0.969111 0.615549 0.042433
O O13 0.000418 0.375000 0.875000
O O14 0.875000 0.375000 0.824142
#
# Coordination Sequence:
#
# PCOD9514079 Si02
#       7
#    32  32  32  32  32  16  32
#     4  11  21  42  66  85 130 174 223 266 321 402
#     4  10  21  37  64  93 124 161 210 265 332 380
#     4  10  22  37  63  98 119 165 220 281 324 370
#     4  11  20  41  65  91 125 168 212 262 327 393
#     4  11  25  39  60  95 128 162 212 271 333 389
#     4  10  16  34  58  96 122 148 212 268 316 380
#     4  11  26  44  60  89 130 182 216 258 333 411
#
# _framework density 21.040018
#
# number of rings (size 3 to 8) (size 9 to 14) (size 15 to 20)
#    0.000    1.385    4.615    1.385    4.308    4.308 
#    0.000    0.000    0.000    0.000    0.000    0.000 
#    0.000    0.000    0.000    0.000    0.000    0.000 
#
# Total GULP energy -290133.914070 kJ/mol
# GULP energy per Si atom -5579.498347 kJ/mol
# Density = 2.099213 g / cm^3
# Si number density = 21.040018 Si / 1000 Ang^3
#
#
#
# Elastic Constant Matrix: (Units=GPa)
#
#
# Indices 1 2 3 4 5 6 
#
# 1 94.5989 3.3550 5.6110 0.0000 0.0000 0.0000
# 2 3.3550 41.5436 2.7102 0.0000 0.0000 0.0000
# 3 5.6110 2.7102 57.0748 0.0000 0.0000 0.0000
# 4 0.0000 0.0000 0.0000 21.0401 0.0000 0.0000
# 5 0.0000 0.0000 0.0000 0.0000 31.4930 0.0000
# 6 0.0000 0.0000 0.0000 0.0000 0.0000 25.8405
#
#
#
# Elastic Compliance Matrix: (Units=1/GPa)
#
#
# Indices 1 2 3 4 5 6 
#
# 1 0.010659 -0.000795 -0.001010 0.000000 0.000000 0.000000
# 2 -0.000795 0.024205 -0.001071 0.000000 0.000000 0.000000
# 3 -0.001010 -0.001071 0.017671 0.000000 0.000000 0.000000
# 4 0.000000 0.000000 0.000000 0.047528 0.000000 0.000000
# 5 0.000000 0.000000 0.000000 0.000000 0.031753 0.000000
# 6 0.000000 0.000000 0.000000 0.000000 0.000000 0.038699
#
#
# Mechanical properties :
#
#
# Convention : Reuss Voigt Hill
#
# Bulk Modulus (GPa) = 21.37544 24.06332 22.71938
# Shear Modulus (GPa) = 26.06034 27.77746 26.91890
#
# Velocity S-wave (km/s) = 3.52320 3.63743 3.58077
# Velocity P-wave (km/s) = 5.17031 5.39471 5.28370
#
# Compressibility (1/GPa) = 0.04678266
#
# Stress axis : x y z
#
# Youngs Moduli (GPa) = 93.81696 41.31345 56.58972
#
# Poissons Ratio (x) = 0.03284 0.05716
# Poissons Ratio (y) = 0.07458 0.06062
# Poissons Ratio (z) = 0.09477 0.04426
#
# Static dielectric constant tensor:
#      x y z
#    x 1.805420 0.000000 0.000000 
#    y 0.000000 1.772950 0.000000 
#    z 0.000000 0.000000 1.768570 
# 
# From -- ./inp_files/66862.got.cif
#   From: 2010.05.17/outbox.cif.g08.bks.cpg/sg70_34_cif.got.tgz:66862.got - 2010.06.03 15:57:51.
