data_PCOD9514295
_publ_section_title
;
Structure prediction by ZEFSAII (Michael W. Deem and Ramdas Pophale) SiO2 
 PCOD9514295
Probable space group: F D D D
;
_chemical_formula_sum "Si O2"
_cell_formula_units_Z 208
_cell_length_a 27.554923
_cell_length_b 24.161403
_cell_length_c 14.027796
_cell_angle_alpha 90.000000
_cell_angle_beta 90.000000
_cell_angle_gamma 90.000000
_cell_volume 9339.224010
_symmetry_space_group_name_H-M "F D D D"
_symmetry_group_IT_number 70
_space_group.IT_coordinate_system_code '2'
_symmetry_cell_setting 'orthorhombic'
loop_
_space_group_symop_operation_xyz
x,y,z
1/4-x,1/4-y,z
x,1/4-y,1/4-z
1/4-x,y,1/4-z
-x,-y,-z
3/4+x,3/4+y,-z
-x,3/4+y,3/4+z
3/4+x,-y,3/4+z
x,1/2+y,1/2+z
1/4-x,3/4-y,1/2+z
x,3/4-y,3/4-z
1/4-x,1/2+y,3/4-z
-x,1/2-y,1/2-z
3/4+x,1/4+y,1/2-z
-x,1/4+y,1/4+z
3/4+x,1/2-y,1/4+z
1/2+x,y,1/2+z
3/4-x,1/4-y,1/2+z
1/2+x,1/4-y,3/4-z
3/4-x,y,3/4-z
1/2-x,-y,1/2-z
1/4+x,3/4+y,1/2-z
1/2-x,3/4+y,1/4+z
1/4+x,-y,1/4+z
1/2+x,1/2+y,z
3/4-x,3/4-y,z
1/2+x,3/4-y,1/4-z
3/4-x,1/2+y,1/4-z
1/2-x,1/2-y,-z
1/4+x,1/4+y,-z
1/2-x,1/4+y,3/4+z
1/4+x,1/2-y,3/4+z
loop_
_atom_site_type_symbol
_atom_site_label
_atom_site_fract_x
_atom_site_fract_y
_atom_site_fract_z
Si Si1 0.632805 0.959247 0.513108
Si Si2 0.751152 0.680399 0.766192
Si Si3 0.472183 0.045938 0.769050
Si Si4 0.125217 0.837286 0.009181
Si Si5 0.481350 0.188122 0.264399
Si Si6 0.203313 0.212082 0.967225
Si Si7 0.530640 0.125000 0.625000
O O1 0.625000 0.969506 0.625000
O O2 0.691015 0.946134 0.512906
O O3 0.612421 0.899638 0.481295
O O4 0.597981 0.004677 0.463867
O O5 0.731645 0.732153 0.708022
O O6 0.742828 0.618098 0.730658
O O7 0.724057 0.688356 0.867789
O O8 0.417889 0.048287 0.731414
O O9 0.477838 0.074091 0.871783
O O10 0.502662 0.079281 0.690487
O O11 0.125000 0.837690 0.125000
O O12 0.176824 0.816646 0.973963
O O13 0.500000 0.250000 0.250000
O O14 0.250000 0.250000 0.000000
O O15 0.194716 0.163723 0.045310
#
# Coordination Sequence:
#
# PCOD9514295 Si02
#       7
#    32  32  32  32  32  32  16
#     4  10  18  35  60  89 126 175 219 260 322 399
#     4  11  23  40  65  95 130 176 224 276 338 406
#     4  11  21  38  63  95 124 168 218 263 334 402
#     4   8  18  36  64  88 113 161 218 267 323 389
#     4  10  22  44  67  88 127 167 220 285 336 391
#     4  12  21  37  62  93 135 176 215 273 332 405
#     4  12  22  34  65  96 134 176 214 262 339 404
#
# _framework density 22.271657999999999
#
# number of rings (size 3 to 8) (size 9 to 14) (size 15 to 20)
#    0.000    1.538    4.615    1.846    0.000    0.615 
#    2.769    4.231    0.000    2.769    0.000    0.000 
#    0.000    0.000    0.000    0.000    0.000    0.000 
#
# Total GULP energy -289596.323580 kJ/mol
# GULP energy per Si atom -5569.160069 kJ/mol
# Density = 2.222097 g / cm^3
# Si number density = 22.271658 Si / 1000 Ang^3
#
#
#
# Elastic Constant Matrix: (Units=GPa)
#
#
# Indices 1 2 3 4 5 6 
#
# 1 72.0633 65.9214 12.4633 0.0000 0.0000 0.0000
# 2 65.9214 169.8916 17.0042 0.0000 0.0000 0.0000
# 3 12.4633 17.0042 109.1747 0.0000 0.0000 0.0000
# 4 0.0000 0.0000 0.0000 34.9409 0.0000 0.0000
# 5 0.0000 0.0000 0.0000 0.0000 9.1542 0.0000
# 6 0.0000 0.0000 0.0000 0.0000 0.0000 31.1436
#
#
#
# Elastic Compliance Matrix: (Units=1/GPa)
#
#
# Indices 1 2 3 4 5 6 
#
# 1 0.021662 -0.008287 -0.001182 0.000000 0.000000 0.000000
# 2 -0.008287 0.009150 -0.000479 0.000000 0.000000 0.000000
# 3 -0.001182 -0.000479 0.009369 0.000000 0.000000 0.000000
# 4 0.000000 0.000000 0.000000 0.028620 0.000000 0.000000
# 5 0.000000 0.000000 0.000000 0.000000 0.109240 0.000000
# 6 0.000000 0.000000 0.000000 0.000000 0.000000 0.032109
#
#
# Mechanical properties :
#
#
# Convention : Reuss Voigt Hill
#
# Bulk Modulus (GPa) = 49.29926 60.21192 54.75559
# Shear Modulus (GPa) = 21.11423 32.09712 26.60567
#
# Velocity S-wave (km/s) = 3.08235 3.80039 3.46005
# Velocity P-wave (km/s) = 5.90350 6.80817 6.37191
#
# Compressibility (1/GPa) = 0.02028428
#
# Stress axis : x y z
#
# Youngs Moduli (GPa) = 46.16434 109.29529 106.73270
#
# Poissons Ratio (x) = 0.90572 0.12618
# Poissons Ratio (y) = 0.38256 0.05113
# Poissons Ratio (z) = 0.05457 0.05236
#
# Static dielectric constant tensor:
#      x y z
#    x 1.858640 0.000000 0.000000 
#    y 0.000000 1.857160 0.000000 
#    z 0.000000 0.000000 1.780020 
# 
# From -- ./inp_files/38869.got.cif
#   From: 2010.05.17/outbox.cif.g08.bks.cpg/sg70_20_cif.got.tgz:38869.got - 2010.06.03 15:57:51.
