data_PCOD9514151
_publ_section_title
;
Structure prediction by ZEFSAII (Michael W. Deem and Ramdas Pophale) SiO2 
 PCOD9514151
Probable space group: F D D D
;
_chemical_formula_sum "Si O2"
_cell_formula_units_Z 160
_cell_length_a 22.931389
_cell_length_b 15.202626
_cell_length_c 22.537858
_cell_angle_alpha 90.000000
_cell_angle_beta 90.000000
_cell_angle_gamma 90.000000
_cell_volume 7857.087894
_symmetry_space_group_name_H-M "F D D D"
_symmetry_group_IT_number 70
_space_group.IT_coordinate_system_code '2'
_symmetry_cell_setting 'orthorhombic'
loop_
_space_group_symop_operation_xyz
x,y,z
1/4-x,1/4-y,z
x,1/4-y,1/4-z
1/4-x,y,1/4-z
-x,-y,-z
3/4+x,3/4+y,-z
-x,3/4+y,3/4+z
3/4+x,-y,3/4+z
x,1/2+y,1/2+z
1/4-x,3/4-y,1/2+z
x,3/4-y,3/4-z
1/4-x,1/2+y,3/4-z
-x,1/2-y,1/2-z
3/4+x,1/4+y,1/2-z
-x,1/4+y,1/4+z
3/4+x,1/2-y,1/4+z
1/2+x,y,1/2+z
3/4-x,1/4-y,1/2+z
1/2+x,1/4-y,3/4-z
3/4-x,y,3/4-z
1/2-x,-y,1/2-z
1/4+x,3/4+y,1/2-z
1/2-x,3/4+y,1/4+z
1/4+x,-y,1/4+z
1/2+x,1/2+y,z
3/4-x,3/4-y,z
1/2+x,3/4-y,1/4-z
3/4-x,1/2+y,1/4-z
1/2-x,1/2-y,-z
1/4+x,1/4+y,-z
1/2-x,1/4+y,3/4+z
1/4+x,1/2-y,3/4+z
loop_
_atom_site_type_symbol
_atom_site_label
_atom_site_fract_x
_atom_site_fract_y
_atom_site_fract_z
Si Si1 0.279136 0.011399 0.362462
Si Si2 0.168548 0.393401 0.282118
Si Si3 0.571048 0.375000 0.875000
Si Si4 0.116285 0.221988 0.030672
Si Si5 0.231193 0.125000 0.625000
Si Si6 0.435940 0.690754 0.850373
O O1 0.269286 0.113212 0.381499
O O2 0.221619 0.953568 0.354417
O O3 0.318774 0.969821 0.415766
O O4 0.321671 0.004839 0.306026
O O5 0.113195 0.413977 0.323709
O O6 0.158062 0.292290 0.264547
O O7 0.226718 0.397018 0.320310
O O8 0.177570 0.445202 0.220596
O O9 0.125000 0.125000 0.006438
O O10 0.196087 0.215531 0.630969
O O11 0.375000 0.654258 0.875000
#
# Coordination Sequence:
#
# PCOD9514151 Si02
#       6
#    32  32  16  32  16  32
#     4  10  18  36  61  91 122 156 194 248 309 373
#     4  10  24  41  58  94 130 157 212 261 297 377
#     4  11  22  37  61  93 135 164 193 256 320 368
#     4  10  17  35  61  87 125 156 198 244 307 368
#     4  11  25  44  65  83 124 171 211 260 314 352
#     4  11  22  43  66  90 119 163 218 259 304 376
#
# _framework density 20.363779000000001
#
# number of rings (size 3 to 8) (size 9 to 14) (size 15 to 20)
#    0.000    1.600    6.000    1.500    0.000    5.600 
#    0.000    5.000    0.000    0.000    0.000    0.000 
#    0.000    0.000    0.000    0.000    0.000    0.000 
#
# Total GULP energy -223164.540782 kJ/mol
# GULP energy per Si atom -5579.113520 kJ/mol
# Density = 2.031743 g / cm^3
# Si number density = 20.363779 Si / 1000 Ang^3
#
#
#
# Elastic Constant Matrix: (Units=GPa)
#
#
# Indices 1 2 3 4 5 6 
#
# 1 63.6691 13.0875 5.7032 0.0000 0.0000 0.0000
# 2 13.0875 87.5583 -23.4747 0.0000 0.0000 0.0000
# 3 5.7032 -23.4747 44.1911 0.0000 0.0000 0.0000
# 4 0.0000 0.0000 0.0000 18.5651 0.0000 0.0000
# 5 0.0000 0.0000 0.0000 0.0000 4.7196 0.0000
# 6 0.0000 0.0000 0.0000 0.0000 0.0000 15.8922
#
#
#
# Elastic Compliance Matrix: (Units=1/GPa)
#
#
# Indices 1 2 3 4 5 6 
#
# 1 0.016814 -0.003609 -0.004087 0.000000 0.000000 0.000000
# 2 -0.003609 0.014092 0.007952 0.000000 0.000000 0.000000
# 3 -0.004087 0.007952 0.027380 0.000000 0.000000 0.000000
# 4 0.000000 0.000000 0.000000 0.053864 0.000000 0.000000
# 5 0.000000 0.000000 0.000000 0.000000 0.211881 0.000000
# 6 0.000000 0.000000 0.000000 0.000000 0.000000 0.062924
#
#
# Mechanical properties :
#
#
# Convention : Reuss Voigt Hill
#
# Bulk Modulus (GPa) = 17.00735 20.67227 18.83981
# Shear Modulus (GPa) = 12.31392 21.17556 16.74474
#
# Velocity S-wave (km/s) = 2.46173 3.22819 2.87065
# Velocity P-wave (km/s) = 4.05586 4.90596 4.50103
#
# Compressibility (1/GPa) = 0.05879811
#
# Stress axis : x y z
#
# Youngs Moduli (GPa) = 59.47364 70.96072 36.52235
#
# Poissons Ratio (x) = 0.25610 0.14927
# Poissons Ratio (y) = 0.21464 -0.29042
# Poissons Ratio (z) = 0.24308 -0.56426
#
# Static dielectric constant tensor:
#      x y z
#    x 1.705560 0.000000 0.000000 
#    y 0.000000 1.712330 0.000000 
#    z 0.000000 0.000000 1.751680 
# 
# From -- ./inp_files/53575.got.cif
#   From: 2010.05.17/outbox.cif.g08.bks.cpg/sg70_27_cif.got.tgz:53575.got - 2010.06.03 15:57:51.
