data_PCOD9514030
_publ_section_title
;
Structure prediction by ZEFSAII (Michael W. Deem and Ramdas Pophale) SiO2 
 PCOD9514030
Probable space group: F M M M
;
_chemical_formula_sum "Si O2"
_cell_formula_units_Z 40
_cell_length_a 30.000000
_cell_length_b 30.000000
_cell_length_c 9.000000
_cell_angle_alpha 90.000000
_cell_angle_beta 90.000000
_cell_angle_gamma 90.000000
_cell_volume 8100.000000
_symmetry_space_group_name_H-M "F M M M"
_symmetry_group_IT_number 69
_symmetry_cell_setting 'orthorhombic'
loop_
_space_group_symop_operation_xyz
x,y,z
-x,-y,z
x,-y,-z
-x,y,-z
-x,-y,-z
x,y,-z
-x,y,z
x,-y,z
x,1/2+y,1/2+z
-x,1/2-y,1/2+z
x,1/2-y,1/2-z
-x,1/2+y,1/2-z
-x,1/2-y,1/2-z
x,1/2+y,1/2-z
-x,1/2+y,1/2+z
x,1/2-y,1/2+z
1/2+x,y,1/2+z
1/2-x,-y,1/2+z
1/2+x,-y,1/2-z
1/2-x,y,1/2-z
1/2-x,-y,1/2-z
1/2+x,y,1/2-z
1/2-x,y,1/2+z
1/2+x,-y,1/2+z
1/2+x,1/2+y,z
1/2-x,1/2-y,z
1/2+x,1/2-y,-z
1/2-x,1/2+y,-z
1/2-x,1/2-y,-z
1/2+x,1/2+y,-z
1/2-x,1/2+y,z
1/2+x,1/2-y,z
loop_
_atom_site_type_symbol
_atom_site_label
_atom_site_fract_x
_atom_site_fract_y
_atom_site_fract_z
Si Si1 0.295185 0.104226 0.820018
Si Si2 0.416501 0.827120 0.165853
Si Si3 0.949078 0.000000 0.823147
Si Si4 0.819080 0.204588 0.676462
Si Si5 0.000000 0.296947 0.670972
Si Si6 0.612272 0.929656 0.830799
O O1 0.250000 0.087312 0.750000
O O2 0.301144 0.156295 0.772033
O O3 0.337202 0.074225 0.773812
O O4 0.294658 0.104493 0.000000
O O5 0.372286 0.799431 0.201742
O O6 0.455839 0.821794 0.279304
O O7 0.402377 0.878366 0.161728
O O8 0.431761 0.813995 0.000000
O O9 0.921602 0.957797 0.765056
O O10 0.000000 0.000000 0.766946
O O11 0.950208 0.000000 0.000000
O O12 0.811552 0.207182 0.500000
O O13 0.802381 0.250000 0.750000
O O14 0.000000 0.250000 0.750000
O O15 0.000000 0.289631 0.500000
O O16 0.612399 0.946952 0.000000
#
# Coordination Sequence:
#
# PCOD9514030 Si02
#       6
#    32  32  16  32  16  32
#     4   9  19  36  57  83 113 147 189 236 280 331
#     4   9  19  36  55  75 103 141 186 233 279 331
#     4  11  25  41  60  91 126 147 176 231 282 333
#     4   9  18  32  50  74 107 144 187 235 278 323
#     4  12  24  34  48  73 106 143 186 234 279 330
#     4   9  20  40  63  85 112 149 190 228 274 341
#
# _framework density 4.9382720000000004
#
# number of rings (size 3 to 8) (size 9 to 14) (size 15 to 20)
#    0.000    2.500    0.000    4.200    1.400    6.000 
#    0.000    6.500    0.000    0.000    0.000    0.000 
#    0.000    0.000    0.000    0.000    0.000    0.000 
#
# Total GULP energy -223031.442560 kJ/mol
# GULP energy per Si atom -5575.786064 kJ/mol
# Density = 0.492703 g / cm^3
# Si number density = 4.938272 Si / 1000 Ang^3
#
#
#
# Elastic Constant Matrix: (Units=GPa)
#
#
# Indices 1 2 3 4 5 6 
#
# 1 132.0991 48.9947 75.4839 0.0110 -0.0105 -0.0088
# 2 48.9947 64.6467 14.9599 0.0019 0.0023 0.0000
# 3 75.4839 14.9599 38.2297 -0.0037 0.0030 0.0015
# 4 0.0110 0.0019 -0.0037 15.5011 -0.0011 -0.0032
# 5 -0.0105 0.0023 0.0030 -0.0011 18.8859 0.0031
# 6 -0.0088 0.0000 0.0015 -0.0032 0.0031 1.8273
#
#
#
# Elastic Compliance Matrix: (Units=1/GPa)
#
#
# Indices 1 2 3 4 5 6 
#
# 1 -0.042769 0.014154 0.078908 0.000048 -0.000038 -0.000268
# 2 0.014154 0.012325 -0.032769 -0.000019 0.000012 0.000094
# 3 0.078908 -0.032769 -0.116822 -0.000080 0.000066 0.000472
# 4 0.000048 -0.000019 -0.000080 0.064512 0.000004 0.000115
# 5 -0.000038 0.000012 0.000066 0.000004 0.052949 -0.000091
# 6 -0.000268 0.000094 0.000472 0.000115 -0.000091 0.547267
#
#
# Mechanical properties :
#
#
# Convention : Reuss Voigt Hill
#
# Bulk Modulus (GPa) = -37.48002 57.09474 9.80736
# Shear Modulus (GPa) = 12.88715 13.61199 13.24957
#
# Velocity S-wave (km/s) = 2.55701 2.62793 2.59271
# Velocity P-wave (km/s) = 3.20901 6.17859 3.73345
#
# Compressibility (1/GPa) = -0.02668088
#
# Stress axis : x y z
#
# Youngs Moduli (GPa) = -23.38134 81.13657 -8.56004
#
# Poissons Ratio (x) = -1.14840 0.67546
# Poissons Ratio (y) = 0.33094 -0.28051
# Poissons Ratio (z) = 1.84498 2.65880
#
# Static dielectric constant tensor:
#      x y z
#    x 1.679450 0.000000 0.000010 
#    y 0.000000 1.703270 -0.000010 
#    z 0.000010 -0.000010 1.673400 
# 
# From -- ./inp_files/5726.got.cif
#   From: 2010.05.17/outbox.ucp.g08.bks.cvg/sg69_3_cif.got.tgz:5726.got - 2010.06.11 16:51:34.
