data_PCOD9514648
_publ_section_title
;
Structure prediction by ZEFSAII (Michael W. Deem and Ramdas Pophale) SiO2 
 PCOD9514648
Probable space group: F D D D
;
_chemical_formula_sum "Si O2"
_cell_formula_units_Z 216
_cell_length_a 21.036083
_cell_length_b 24.621024
_cell_length_c 20.418127
_cell_angle_alpha 90.000000
_cell_angle_beta 90.000000
_cell_angle_gamma 90.000000
_cell_volume 10575.158565
_symmetry_space_group_name_H-M "F D D D"
_symmetry_group_IT_number 70
_space_group.IT_coordinate_system_code '2'
_symmetry_cell_setting 'orthorhombic'
loop_
_space_group_symop_operation_xyz
x,y,z
1/4-x,1/4-y,z
x,1/4-y,1/4-z
1/4-x,y,1/4-z
-x,-y,-z
3/4+x,3/4+y,-z
-x,3/4+y,3/4+z
3/4+x,-y,3/4+z
x,1/2+y,1/2+z
1/4-x,3/4-y,1/2+z
x,3/4-y,3/4-z
1/4-x,1/2+y,3/4-z
-x,1/2-y,1/2-z
3/4+x,1/4+y,1/2-z
-x,1/4+y,1/4+z
3/4+x,1/2-y,1/4+z
1/2+x,y,1/2+z
3/4-x,1/4-y,1/2+z
1/2+x,1/4-y,3/4-z
3/4-x,y,3/4-z
1/2-x,-y,1/2-z
1/4+x,3/4+y,1/2-z
1/2-x,3/4+y,1/4+z
1/4+x,-y,1/4+z
1/2+x,1/2+y,z
3/4-x,3/4-y,z
1/2+x,3/4-y,1/4-z
3/4-x,1/2+y,1/4-z
1/2-x,1/2-y,-z
1/4+x,1/4+y,-z
1/2-x,1/4+y,3/4+z
1/4+x,1/2-y,3/4+z
loop_
_atom_site_type_symbol
_atom_site_label
_atom_site_fract_x
_atom_site_fract_y
_atom_site_fract_z
Si Si1 0.656979 0.767947 0.485165
Si Si2 0.989300 0.643652 0.881764
Si Si3 0.467788 0.838399 0.757890
Si Si4 0.307964 0.350372 0.005875
Si Si5 0.557447 0.737539 0.157005
Si Si6 0.706548 0.418188 0.423157
Si Si7 0.125000 0.807994 0.125000
Si Si8 0.875000 0.375000 0.875000
O O1 0.717117 0.807345 0.472840
O O2 0.677718 0.707193 0.468017
O O3 0.595427 0.791991 0.451497
O O4 0.639876 0.771781 0.562117
O O5 0.012029 0.635976 0.957036
O O6 0.048582 0.641286 0.832775
O O7 0.956794 0.699875 0.858658
O O8 0.936787 0.596798 0.868373
O O9 0.425861 0.851610 0.821341
O O10 0.375000 0.375000 0.983862
O O11 0.306861 0.288111 0.980053
O O12 0.249209 0.383689 0.973980
O O13 0.625000 0.725157 0.125000
O O14 0.505452 0.702963 0.118751
O O15 0.674002 0.375000 0.375000
#
# Coordination Sequence:
#
# PCOD9514648 Si02
#       8
#    32  32  32  32  32  32  16   8
#     4  10  21  45  66  98 119 173 225 282 339 404
#     4  11  23  41  63  99 131 176 218 281 336 410
#     4  10  26  43  69  90 130 170 229 286 342 403
#     4  11  22  39  64  96 137 176 221 269 332 406
#     4  11  22  39  63  99 138 179 214 265 336 411
#     4  10  22  37  67  94 130 174 214 264 333 410
#     4  10  19  38  70  87 127 166 224 275 354 400
#     4  12  26  48  64  92 136 176 220 302 344 384
#
# _framework density 20.425225000000001
#
# number of rings (size 3 to 8) (size 9 to 14) (size 15 to 20)
#    0.000    1.481    3.704    0.889    4.148    0.000 
#    0.000    0.000    0.000    0.000    0.000    0.000 
#    0.000    0.000    0.000    0.000    0.000    0.000 
#
# Total GULP energy -301059.690321 kJ/mol
# GULP energy per Si atom -5575.179450 kJ/mol
# Density = 2.037874 g / cm^3
# Si number density = 20.425225 Si / 1000 Ang^3
#
#
#
# Elastic Constant Matrix: (Units=GPa)
#
#
# Indices 1 2 3 4 5 6 
#
# 1 111.2786 20.1357 34.1593 0.0000 0.0000 0.0000
# 2 20.1357 57.3102 17.7767 0.0000 0.0000 0.0000
# 3 34.1593 17.7767 73.8767 0.0000 0.0000 0.0000
# 4 0.0000 0.0000 0.0000 21.6923 0.0000 0.0000
# 5 0.0000 0.0000 0.0000 0.0000 33.5924 0.0000
# 6 0.0000 0.0000 0.0000 0.0000 0.0000 -18.7629
#
#
#
# Elastic Compliance Matrix: (Units=1/GPa)
#
#
# Indices 1 2 3 4 5 6 
#
# 1 0.010775 -0.002421 -0.004400 0.000000 0.000000 0.000000
# 2 -0.002421 0.019400 -0.003549 0.000000 0.000000 0.000000
# 3 -0.004400 -0.003549 0.016424 0.000000 0.000000 0.000000
# 4 0.000000 0.000000 0.000000 0.046099 0.000000 0.000000
# 5 0.000000 0.000000 0.000000 0.000000 0.029769 0.000000
# 6 0.000000 0.000000 0.000000 0.000000 0.000000 -0.053297
#
#
# Mechanical properties :
#
#
# Convention : Reuss Voigt Hill
#
# Bulk Modulus (GPa) = 38.66864 42.95653 40.81259
# Shear Modulus (GPa) = 50.74585 18.66395 34.70490
#
# Velocity S-wave (km/s) = 4.98985 3.02614 4.12651
# Velocity P-wave (km/s) = 7.22295 5.76947 6.53674
#
# Compressibility (1/GPa) = 0.02586075
#
# Stress axis : x y z
#
# Youngs Moduli (GPa) = 92.80649 51.54557 60.88530
#
# Poissons Ratio (x) = 0.12480 0.26787
# Poissons Ratio (y) = 0.22469 0.21607
# Poissons Ratio (z) = 0.40832 0.18292
#
# Static dielectric constant tensor:
#      x y z
#    x 1.727720 0.000000 0.000000 
#    y 0.000000 1.767780 0.000000 
#    z 0.000000 0.000000 1.778620 
# 
# From -- ./inp_files/45156.got.cif
#   From: 2010.05.17/outbox.cif.g08.bks.cpg/sg70_23_cif.got.tgz:45156.got - 2010.06.03 15:57:51.
