data_PCOD9514020
_publ_section_title
;
Structure prediction by ZEFSAII (Michael W. Deem and Ramdas Pophale) SiO2 
 PCOD9514020
Probable space group: F M M M
;
_chemical_formula_sum "Si O2"
_cell_formula_units_Z 28
_cell_length_a 9.000000
_cell_length_b 27.000000
_cell_length_c 24.000000
_cell_angle_alpha 90.000000
_cell_angle_beta 90.000000
_cell_angle_gamma 90.000000
_cell_volume 5832.000000
_symmetry_space_group_name_H-M "F M M M"
_symmetry_group_IT_number 69
_symmetry_cell_setting 'orthorhombic'
loop_
_space_group_symop_operation_xyz
x,y,z
-x,-y,z
x,-y,-z
-x,y,-z
-x,-y,-z
x,y,-z
-x,y,z
x,-y,z
x,1/2+y,1/2+z
-x,1/2-y,1/2+z
x,1/2-y,1/2-z
-x,1/2+y,1/2-z
-x,1/2-y,1/2-z
x,1/2+y,1/2-z
-x,1/2+y,1/2+z
x,1/2-y,1/2+z
1/2+x,y,1/2+z
1/2-x,-y,1/2+z
1/2+x,-y,1/2-z
1/2-x,y,1/2-z
1/2-x,-y,1/2-z
1/2+x,y,1/2-z
1/2-x,y,1/2+z
1/2+x,-y,1/2+z
1/2+x,1/2+y,z
1/2-x,1/2-y,z
1/2+x,1/2-y,-z
1/2-x,1/2+y,-z
1/2-x,1/2-y,-z
1/2+x,1/2+y,-z
1/2-x,1/2+y,z
1/2+x,1/2-y,z
loop_
_atom_site_type_symbol
_atom_site_label
_atom_site_fract_x
_atom_site_fract_y
_atom_site_fract_z
Si Si1 0.500000 0.178997 0.797633
Si Si2 0.175436 0.943206 0.190769
Si Si3 0.000000 0.294153 0.673351
Si Si4 0.750279 0.352266 0.119211
Si Si5 0.325701 0.694718 0.500000
O O1 0.500000 0.237508 0.810079
O O2 0.500000 0.174747 0.731137
O O3 0.367070 0.155974 0.831501
O O4 0.250000 0.927710 0.250000
O O5 0.197484 0.907346 0.136946
O O6 0.000000 0.943916 0.201436
O O7 0.225864 0.000000 0.179454
O O8 0.134920 0.309853 0.635534
O O9 0.793121 0.338428 0.055840
O O10 0.500000 0.705131 0.500000
O O11 0.250000 0.750000 0.500000
#
# Coordination Sequence:
#
# PCOD9514020 Si02
#       5
#    16  32  16  32  16
#     4  11  22  37  60  90 131 161 207 258 322 394
#     4  10  22  41  67  99 131 167 213 266 327 389
#     4  11  22  37  60  94 123 167 203 260 326 388
#     4  12  24  40  63  91 130 169 213 262 319 378
#     4  12  28  46  67  90 127 179 228 265 309 378
#
# _framework density 4.8010970000000004
#
# number of rings (size 3 to 8) (size 9 to 14) (size 15 to 20)
#    0.000    0.857    2.857    5.143    4.000    2.286 
#    0.000    0.714    0.000    2.571    0.000    0.000 
#    0.000    0.000    0.000    0.000    0.000    0.000 
#
# Total GULP energy -155875.331602 kJ/mol
# GULP energy per Si atom -5566.976129 kJ/mol
# Density = 0.479017 g / cm^3
# Si number density = 4.801097 Si / 1000 Ang^3
#
#
#
# Elastic Constant Matrix: (Units=GPa)
#
#
# Indices 1 2 3 4 5 6 
#
# 1 77.4394 7.9226 30.0152 0.0000 0.0000 0.0000
# 2 7.9226 105.8192 49.4539 0.0000 0.0000 0.0000
# 3 30.0152 49.4539 160.0829 0.0000 0.0000 0.0000
# 4 0.0000 0.0000 0.0000 31.4590 0.0000 0.0000
# 5 0.0000 0.0000 0.0000 0.0000 26.9461 0.0000
# 6 0.0000 0.0000 0.0000 0.0000 0.0000 22.6452
#
#
#
# Elastic Compliance Matrix: (Units=1/GPa)
#
#
# Indices 1 2 3 4 5 6 
#
# 1 0.013929 0.000208 -0.002676 0.000000 0.000000 0.000000
# 2 0.000208 0.011048 -0.003452 0.000000 0.000000 0.000000
# 3 -0.002676 -0.003452 0.007815 0.000000 0.000000 0.000000
# 4 0.000000 0.000000 0.000000 0.031787 0.000000 0.000000
# 5 0.000000 0.000000 0.000000 0.000000 0.037111 0.000000
# 6 0.000000 0.000000 0.000000 0.000000 0.000000 0.044159
#
#
# Mechanical properties :
#
#
# Convention : Reuss Voigt Hill
#
# Bulk Modulus (GPa) = 47.72882 57.56944 52.64913
# Shear Modulus (GPa) = 30.36302 33.27336 31.81819
#
# Velocity S-wave (km/s) = 3.98055 4.16696 4.07482
# Velocity P-wave (km/s) = 6.78479 7.29340 7.04369
#
# Compressibility (1/GPa) = 0.02095170
#
# Stress axis : x y z
#
# Youngs Moduli (GPa) = 71.79148 90.51617 127.96134
#
# Poissons Ratio (x) = -0.01880 0.34241
# Poissons Ratio (y) = -0.01491 0.44171
# Poissons Ratio (z) = 0.19210 0.31245
#
# Static dielectric constant tensor:
#      x y z
#    x 16.758700 0.000000 0.000000 
#    y 0.000000 1.738780 0.000000 
#    z 0.000000 0.000000 1.612110 
# 
# From -- ./inp_files/3763.got.cif
#   From: 2010.05.17/outbox.ucp.g08.bks.cvg/sg69_2_cif.got.tgz:3763.got - 2010.06.11 16:51:34.
