data_PCOD9514545
_publ_section_title
;
Structure prediction by ZEFSAII (Michael W. Deem and Ramdas Pophale) SiO2 
 PCOD9514545
Probable space group: F D D D
;
_chemical_formula_sum "Si O2"
_cell_formula_units_Z 176
_cell_length_a 18.856081
_cell_length_b 28.644285
_cell_length_c 16.664153
_cell_angle_alpha 90.000000
_cell_angle_beta 90.000000
_cell_angle_gamma 90.000000
_cell_volume 9000.624957
_symmetry_space_group_name_H-M "F D D D"
_symmetry_group_IT_number 70
_space_group.IT_coordinate_system_code '2'
_symmetry_cell_setting 'orthorhombic'
loop_
_space_group_symop_operation_xyz
x,y,z
1/4-x,1/4-y,z
x,1/4-y,1/4-z
1/4-x,y,1/4-z
-x,-y,-z
3/4+x,3/4+y,-z
-x,3/4+y,3/4+z
3/4+x,-y,3/4+z
x,1/2+y,1/2+z
1/4-x,3/4-y,1/2+z
x,3/4-y,3/4-z
1/4-x,1/2+y,3/4-z
-x,1/2-y,1/2-z
3/4+x,1/4+y,1/2-z
-x,1/4+y,1/4+z
3/4+x,1/2-y,1/4+z
1/2+x,y,1/2+z
3/4-x,1/4-y,1/2+z
1/2+x,1/4-y,3/4-z
3/4-x,y,3/4-z
1/2-x,-y,1/2-z
1/4+x,3/4+y,1/2-z
1/2-x,3/4+y,1/4+z
1/4+x,-y,1/4+z
1/2+x,1/2+y,z
3/4-x,3/4-y,z
1/2+x,3/4-y,1/4-z
3/4-x,1/2+y,1/4-z
1/2-x,1/2-y,-z
1/4+x,1/4+y,-z
1/2-x,1/4+y,3/4+z
1/4+x,1/2-y,3/4+z
loop_
_atom_site_type_symbol
_atom_site_label
_atom_site_fract_x
_atom_site_fract_y
_atom_site_fract_z
Si Si1 0.600661 0.992852 0.204826
Si Si2 0.797945 0.787665 0.673642
Si Si3 0.397108 0.708823 0.131196
Si Si4 0.933977 0.334898 0.746360
Si Si5 0.300040 0.821644 0.348566
Si Si6 0.795884 0.125000 0.125000
O O1 0.625000 0.966792 0.125000
O O2 0.516926 0.998153 0.190187
O O3 0.614777 0.964570 0.285305
O O4 0.643967 0.040739 0.213252
O O5 0.868464 0.756646 0.668325
O O6 0.790100 0.815620 0.590227
O O7 0.796954 0.819446 0.752163
O O8 0.480969 0.701705 0.137790
O O9 0.348752 0.665382 0.157190
O O10 0.875000 0.375000 0.734431
O O11 0.994923 0.354099 0.805405
O O12 0.298546 0.875000 0.375000
O O13 0.375000 0.800226 0.375000
#
# Coordination Sequence:
#
# PCOD9514545 Si02
#       6
#    32  32  32  32  32  16
#     4  10  19  36  56  85 124 161 194 233 295 356
#     4  10  22  38  61  88 119 155 200 246 294 355
#     4  10  21  37  61  89 119 154 199 246 292 354
#     4  11  22  33  56  90 122 157 194 245 291 348
#     4  10  22  41  66  84 112 159 200 247 302 357
#     4  12  21  36  59  88 124 162 194 234 301 350
#
# _framework density 19.554198
#
# number of rings (size 3 to 8) (size 9 to 14) (size 15 to 20)
#    0.000    1.636    0.909    4.636    2.545    3.636 
#    0.000    0.000    4.000    0.000    0.000    0.000 
#    0.000    0.000    0.000    0.000    0.000    0.000 
#
# Total GULP energy -245442.354764 kJ/mol
# GULP energy per Si atom -5578.235336 kJ/mol
# Density = 1.950969 g / cm^3
# Si number density = 19.554198 Si / 1000 Ang^3
#
#
#
# Elastic Constant Matrix: (Units=GPa)
#
#
# Indices 1 2 3 4 5 6 
#
# 1 151.9805 52.3403 50.9689 0.0000 0.0000 0.0000
# 2 52.3403 66.4555 30.6217 0.0000 0.0000 0.0000
# 3 50.9689 30.6217 98.3020 0.0000 0.0000 0.0000
# 4 0.0000 0.0000 0.0000 12.8891 0.0000 0.0000
# 5 0.0000 0.0000 0.0000 0.0000 27.4541 0.0000
# 6 0.0000 0.0000 0.0000 0.0000 0.0000 26.4578
#
#
#
# Elastic Compliance Matrix: (Units=1/GPa)
#
#
# Indices 1 2 3 4 5 6 
#
# 1 0.009785 -0.006269 -0.003121 0.000000 0.000000 0.000000
# 2 -0.006269 0.021586 -0.003474 0.000000 0.000000 0.000000
# 3 -0.003121 -0.003474 0.012873 0.000000 0.000000 0.000000
# 4 0.000000 0.000000 0.000000 0.077585 0.000000 0.000000
# 5 0.000000 0.000000 0.000000 0.000000 0.036424 0.000000
# 6 0.000000 0.000000 0.000000 0.000000 0.000000 0.037796
#
#
# Mechanical properties :
#
#
# Convention : Reuss Voigt Hill
#
# Bulk Modulus (GPa) = 54.00410 64.95554 59.47982
# Shear Modulus (GPa) = 21.93479 25.54736 23.74108
#
# Velocity S-wave (km/s) = 3.35288 3.61846 3.48820
# Velocity P-wave (km/s) = 6.53197 7.12376 6.83428
#
# Compressibility (1/GPa) = 0.01851711
#
# Stress axis : x y z
#
# Youngs Moduli (GPa) = 102.19361 46.32704 77.68241
#
# Poissons Ratio (x) = 0.29042 0.24243
# Poissons Ratio (y) = 0.64064 0.26984
# Poissons Ratio (z) = 0.31893 0.16093
#
# Static dielectric constant tensor:
#      x y z
#    x 1.754680 0.000000 0.000000 
#    y 0.000000 1.680210 0.000000 
#    z 0.000000 0.000000 1.682430 
# 
# From -- ./inp_files/35268.got.cif
#   From: 2010.05.17/outbox.cif.g08.bks.cpg/sg70_18_cif.got.tgz:35268.got - 2010.06.03 15:57:51.
