data_PCOD9514550
_publ_section_title
;
Structure prediction by ZEFSAII (Michael W. Deem and Ramdas Pophale) SiO2 
 PCOD9514550
Probable space group: F D D D
;
_chemical_formula_sum "Si O2"
_cell_formula_units_Z 160
_cell_length_a 16.622205
_cell_length_b 24.335007
_cell_length_c 17.658960
_cell_angle_alpha 90.000000
_cell_angle_beta 90.000000
_cell_angle_gamma 90.000000
_cell_volume 7143.075368
_symmetry_space_group_name_H-M "F D D D"
_symmetry_group_IT_number 70
_space_group.IT_coordinate_system_code '2'
_symmetry_cell_setting 'orthorhombic'
loop_
_space_group_symop_operation_xyz
x,y,z
1/4-x,1/4-y,z
x,1/4-y,1/4-z
1/4-x,y,1/4-z
-x,-y,-z
3/4+x,3/4+y,-z
-x,3/4+y,3/4+z
3/4+x,-y,3/4+z
x,1/2+y,1/2+z
1/4-x,3/4-y,1/2+z
x,3/4-y,3/4-z
1/4-x,1/2+y,3/4-z
-x,1/2-y,1/2-z
3/4+x,1/4+y,1/2-z
-x,1/4+y,1/4+z
3/4+x,1/2-y,1/4+z
1/2+x,y,1/2+z
3/4-x,1/4-y,1/2+z
1/2+x,1/4-y,3/4-z
3/4-x,y,3/4-z
1/2-x,-y,1/2-z
1/4+x,3/4+y,1/2-z
1/2-x,3/4+y,1/4+z
1/4+x,-y,1/4+z
1/2+x,1/2+y,z
3/4-x,3/4-y,z
1/2+x,3/4-y,1/4-z
3/4-x,1/2+y,1/4-z
1/2-x,1/2-y,-z
1/4+x,1/4+y,-z
1/2-x,1/4+y,3/4+z
1/4+x,1/2-y,3/4+z
loop_
_atom_site_type_symbol
_atom_site_label
_atom_site_fract_x
_atom_site_fract_y
_atom_site_fract_z
Si Si1 0.170097 0.314171 0.201510
Si Si2 0.820598 0.558744 0.805146
Si Si3 0.449939 0.721661 0.183930
Si Si4 0.479187 0.041978 0.723537
Si Si5 0.331667 0.817246 0.132100
O O1 0.125000 0.293717 0.125000
O O2 0.194727 0.375900 0.184389
O O3 0.108853 0.318289 0.271239
O O4 0.237766 0.270956 0.226735
O O5 0.875000 0.537386 0.875000
O O6 0.884003 0.549416 0.738339
O O7 0.728782 0.541165 0.818927
O O8 0.500000 0.750000 0.250000
O O9 0.494816 0.693494 0.114106
O O10 0.398690 0.772119 0.150091
O O11 0.528422 0.072912 0.790009
O O12 0.375000 0.875000 0.113726
#
# Coordination Sequence:
#
# PCOD9514550 Si02
#       5
#    32  32  32  32  32
#     4  10  19  36  58  82 122 170 208 257 322 383
#     4   9  20  38  60  83 119 167 215 256 312 388
#     4  11  22  35  58  88 123 160 200 262 330 376
#     4  10  21  37  58  89 123 162 211 260 317 381
#     4  10  22  39  62  89 119 164 213 259 320 387
#
# _framework density 22.399315999999999
#
# number of rings (size 3 to 8) (size 9 to 14) (size 15 to 20)
#    0.000    2.000    2.000    1.200    5.600    1.600 
#    0.000    1.000    0.000    0.000    0.000    1.400 
#    0.000    0.000    0.000    0.000    0.000    0.000 
#
# Total GULP energy -222886.930281 kJ/mol
# GULP energy per Si atom -5572.173257 kJ/mol
# Density = 2.234833 g / cm^3
# Si number density = 22.399316 Si / 1000 Ang^3
#
#
#
# Elastic Constant Matrix: (Units=GPa)
#
#
# Indices 1 2 3 4 5 6 
#
# 1 110.3726 28.9632 18.2580 0.0000 0.0000 0.0000
# 2 28.9632 49.4545 -5.3848 0.0000 0.0000 0.0000
# 3 18.2580 -5.3848 94.9182 0.0000 0.0000 0.0000
# 4 0.0000 0.0000 0.0000 21.4695 0.0000 0.0000
# 5 0.0000 0.0000 0.0000 0.0000 49.8615 0.0000
# 6 0.0000 0.0000 0.0000 0.0000 0.0000 31.0521
#
#
#
# Elastic Compliance Matrix: (Units=1/GPa)
#
#
# Indices 1 2 3 4 5 6 
#
# 1 0.011293 -0.006893 -0.002563 0.000000 0.000000 0.000000
# 2 -0.006893 0.024554 0.002719 0.000000 0.000000 0.000000
# 3 -0.002563 0.002719 0.011183 0.000000 0.000000 0.000000
# 4 0.000000 0.000000 0.000000 0.046578 0.000000 0.000000
# 5 0.000000 0.000000 0.000000 0.000000 0.020056 0.000000
# 6 0.000000 0.000000 0.000000 0.000000 0.000000 0.032204
#
#
# Mechanical properties :
#
#
# Convention : Reuss Voigt Hill
#
# Bulk Modulus (GPa) = 29.80228 37.60199 33.70214
# Shear Modulus (GPa) = 29.32104 34.67055 31.99580
#
# Velocity S-wave (km/s) = 3.62196 3.93853 3.78355
# Velocity P-wave (km/s) = 5.55205 6.12423 5.84515
#
# Compressibility (1/GPa) = 0.03355448
#
# Stress axis : x y z
#
# Youngs Moduli (GPa) = 88.55012 40.72734 89.42385
#
# Poissons Ratio (x) = 0.28073 0.22922
# Poissons Ratio (y) = 0.61037 -0.24313
# Poissons Ratio (z) = 0.22698 -0.11073
#
# Static dielectric constant tensor:
#      x y z
#    x 1.940060 0.000000 0.000000 
#    y 0.000000 1.853650 0.000000 
#    z 0.000000 0.000000 1.924740 
# 
# From -- ./inp_files/35153.got.cif
#   From: 2010.05.17/outbox.cif.g08.bks.cpg/sg70_18_cif.got.tgz:35153.got - 2010.06.03 15:57:51.
