data_PCOD9514447
_publ_section_title
;
Structure prediction by ZEFSAII (Michael W. Deem and Ramdas Pophale) SiO2 
 PCOD9514447
Probable space group: F D D D
;
_chemical_formula_sum "Si O2"
_cell_formula_units_Z 176
_cell_length_a 30.740151
_cell_length_b 13.760100
_cell_length_c 22.982077
_cell_angle_alpha 90.000000
_cell_angle_beta 90.000000
_cell_angle_gamma 90.000000
_cell_volume 9721.132485
_symmetry_space_group_name_H-M "F D D D"
_symmetry_group_IT_number 70
_space_group.IT_coordinate_system_code '2'
_symmetry_cell_setting 'orthorhombic'
loop_
_space_group_symop_operation_xyz
x,y,z
1/4-x,1/4-y,z
x,1/4-y,1/4-z
1/4-x,y,1/4-z
-x,-y,-z
3/4+x,3/4+y,-z
-x,3/4+y,3/4+z
3/4+x,-y,3/4+z
x,1/2+y,1/2+z
1/4-x,3/4-y,1/2+z
x,3/4-y,3/4-z
1/4-x,1/2+y,3/4-z
-x,1/2-y,1/2-z
3/4+x,1/4+y,1/2-z
-x,1/4+y,1/4+z
3/4+x,1/2-y,1/4+z
1/2+x,y,1/2+z
3/4-x,1/4-y,1/2+z
1/2+x,1/4-y,3/4-z
3/4-x,y,3/4-z
1/2-x,-y,1/2-z
1/4+x,3/4+y,1/2-z
1/2-x,3/4+y,1/4+z
1/4+x,-y,1/4+z
1/2+x,1/2+y,z
3/4-x,3/4-y,z
1/2+x,3/4-y,1/4-z
3/4-x,1/2+y,1/4-z
1/2-x,1/2-y,-z
1/4+x,1/4+y,-z
1/2-x,1/4+y,3/4+z
1/4+x,1/2-y,3/4+z
loop_
_atom_site_type_symbol
_atom_site_label
_atom_site_fract_x
_atom_site_fract_y
_atom_site_fract_z
Si Si1 0.375000 0.375000 0.651829
Si Si2 0.562402 0.452639 0.490723
Si Si3 0.249228 0.826717 0.088657
Si Si4 0.956696 0.268397 0.544634
Si Si5 0.002739 0.443476 0.321480
Si Si6 0.351797 0.700340 0.674648
O O1 0.339574 0.315062 0.688127
O O2 0.349844 0.448892 0.609989
O O3 0.545229 0.457287 0.556810
O O4 0.537040 0.534219 0.453634
O O5 0.547650 0.346485 0.467324
O O6 0.613280 0.458550 0.475955
O O7 0.260433 0.786289 0.152017
O O8 0.249393 0.943350 0.089343
O O9 0.974386 0.317854 0.486191
O O10 0.989824 0.375000 0.375000
O O11 0.053366 0.421450 0.307377
O O12 0.367804 0.625000 0.625000
#
# Coordination Sequence:
#
# PCOD9514447 Si02
#       6
#    16  32  32  32  32  32
#     4  12  20  34  61  86 107 148 198 232 282 336
#     4  10  19  33  59  85 116 140 192 247 285 337
#     4  10  19  34  55  87 112 151 187 236 296 336
#     4  11  21  37  57  85 114 152 192 238 289 344
#     4  10  23  37  54  81 120 152 191 236 287 342
#     4  11  18  34  55  83 109 143 193 237 271 337
#
# _framework density 18.104886
#
# number of rings (size 3 to 8) (size 9 to 14) (size 15 to 20)
#    0.000    1.455    5.455    0.545    0.000    0.727 
#    0.000    1.364    0.000    4.364    0.000    8.909 
#    0.000    0.000    0.000    0.000    0.000    0.000 
#
# Total GULP energy -245467.142771 kJ/mol
# GULP energy per Si atom -5578.798699 kJ/mol
# Density = 1.806368 g / cm^3
# Si number density = 18.104886 Si / 1000 Ang^3
#
#
#
# Elastic Constant Matrix: (Units=GPa)
#
#
# Indices 1 2 3 4 5 6 
#
# 1 65.2276 5.3565 40.6278 0.0000 0.0000 0.0000
# 2 5.3565 81.4318 33.9605 0.0000 0.0000 0.0000
# 3 40.6278 33.9605 102.5233 0.0000 0.0000 0.0000
# 4 0.0000 0.0000 0.0000 23.1910 0.0000 0.0000
# 5 0.0000 0.0000 0.0000 0.0000 32.2542 0.0000
# 6 0.0000 0.0000 0.0000 0.0000 0.0000 21.6419
#
#
#
# Elastic Compliance Matrix: (Units=1/GPa)
#
#
# Indices 1 2 3 4 5 6 
#
# 1 0.020750 0.002395 -0.009016 0.000000 0.000000 0.000000
# 2 0.002395 0.014525 -0.005761 0.000000 0.000000 0.000000
# 3 -0.009016 -0.005761 0.015235 0.000000 0.000000 0.000000
# 4 0.000000 0.000000 0.000000 0.043120 0.000000 0.000000
# 5 0.000000 0.000000 0.000000 0.000000 0.031004 0.000000
# 6 0.000000 0.000000 0.000000 0.000000 0.000000 0.046207
#
#
# Mechanical properties :
#
#
# Convention : Reuss Voigt Hill
#
# Bulk Modulus (GPa) = 38.83943 45.45250 42.14596
# Shear Modulus (GPa) = 24.48744 26.69994 25.59369
#
# Velocity S-wave (km/s) = 3.68167 3.84440 3.76391
# Velocity P-wave (km/s) = 6.29062 6.69817 6.49759
#
# Compressibility (1/GPa) = 0.02574703
#
# Stress axis : x y z
#
# Youngs Moduli (GPa) = 48.19249 68.84655 65.63830
#
# Poissons Ratio (x) = -0.16491 0.59181
# Poissons Ratio (y) = -0.11543 0.37811
# Poissons Ratio (z) = 0.43452 0.39660
#
# Static dielectric constant tensor:
#      x y z
#    x 1.635060 0.000000 0.000000 
#    y 0.000000 1.645480 0.000000 
#    z 0.000000 0.000000 1.601910 
# 
# From -- ./inp_files/20941.got.cif
#   From: 2010.05.17/outbox.cif.g08.bks.cpg/sg70_11_cif.got.tgz:20941.got - 2010.06.03 15:57:51.
