data_PCOD9514180
_publ_section_title
;
Structure prediction by ZEFSAII (Michael W. Deem and Ramdas Pophale) SiO2 
 PCOD9514180
Probable space group: F D D D
;
_chemical_formula_sum "Si O2"
_cell_formula_units_Z 208
_cell_length_a 24.660102
_cell_length_b 26.084810
_cell_length_c 17.681939
_cell_angle_alpha 90.000000
_cell_angle_beta 90.000000
_cell_angle_gamma 90.000000
_cell_volume 11373.979320
_symmetry_space_group_name_H-M "F D D D"
_symmetry_group_IT_number 70
_space_group.IT_coordinate_system_code '2'
_symmetry_cell_setting 'orthorhombic'
loop_
_space_group_symop_operation_xyz
x,y,z
1/4-x,1/4-y,z
x,1/4-y,1/4-z
1/4-x,y,1/4-z
-x,-y,-z
3/4+x,3/4+y,-z
-x,3/4+y,3/4+z
3/4+x,-y,3/4+z
x,1/2+y,1/2+z
1/4-x,3/4-y,1/2+z
x,3/4-y,3/4-z
1/4-x,1/2+y,3/4-z
-x,1/2-y,1/2-z
3/4+x,1/4+y,1/2-z
-x,1/4+y,1/4+z
3/4+x,1/2-y,1/4+z
1/2+x,y,1/2+z
3/4-x,1/4-y,1/2+z
1/2+x,1/4-y,3/4-z
3/4-x,y,3/4-z
1/2-x,-y,1/2-z
1/4+x,3/4+y,1/2-z
1/2-x,3/4+y,1/4+z
1/4+x,-y,1/4+z
1/2+x,1/2+y,z
3/4-x,3/4-y,z
1/2+x,3/4-y,1/4-z
3/4-x,1/2+y,1/4-z
1/2-x,1/2-y,-z
1/4+x,1/4+y,-z
1/2-x,1/4+y,3/4+z
1/4+x,1/2-y,3/4+z
loop_
_atom_site_type_symbol
_atom_site_label
_atom_site_fract_x
_atom_site_fract_y
_atom_site_fract_z
Si Si1 0.822826 0.633987 0.430668
Si Si2 0.463549 0.830120 0.270976
Si Si3 0.041250 0.269681 0.034376
Si Si4 0.388412 0.578369 0.184579
Si Si5 0.875000 0.457823 0.375000
Si Si6 0.492932 0.570558 0.295089
Si Si7 0.950304 0.509489 0.592266
O O1 0.875000 0.623666 0.375000
O O2 0.800909 0.580421 0.464691
O O3 0.842277 0.667045 0.502439
O O4 0.780158 0.662961 0.376528
O O5 0.422748 0.825197 0.339732
O O6 0.466383 0.885522 0.234081
O O7 0.443083 0.787909 0.212187
O O8 0.522238 0.807754 0.297879
O O9 0.096810 0.244163 0.063099
O O10 0.996345 0.258492 0.098995
O O11 0.018534 0.235914 0.964509
O O12 0.385422 0.625000 0.125000
O O13 0.443431 0.576961 0.234965
O O14 0.396098 0.528164 0.133159
#
# Coordination Sequence:
#
# PCOD9514180 Si02
#       7
#    32  32  32  32  16  32  32
#     4  10  20  34  51  76 105 138 183 231 264 319
#     4  10  18  30  46  69 115 138 177 199 266 331
#     4  10  19  31  48  71 104 141 182 206 272 322
#     4  10  19  30  51  76 100 131 186 222 264 315
#     4  10  22  27  44  76 104 146 168 208 248 337
#     4  10  20  33  49  70 106 149 171 219 271 333
#     4   9  18  29  47  71 100 144 171 213 263 321
#
# _framework density 18.287355000000002
#
# number of rings (size 3 to 8) (size 9 to 14) (size 15 to 20)
#    0.000    2.154    3.846    0.000    2.154    1.231 
#    0.000    0.000    0.000    0.923    0.000    0.000 
#    0.000    0.000    0.000    0.000    0.000    0.000 
#
# Total GULP energy -289892.199695 kJ/mol
# GULP energy per Si atom -5574.849994 kJ/mol
# Density = 1.824573 g / cm^3
# Si number density = 18.287355 Si / 1000 Ang^3
#
#
#
# Elastic Constant Matrix: (Units=GPa)
#
#
# Indices 1 2 3 4 5 6 
#
# 1 35.8768 24.8663 27.4556 0.0000 0.0000 0.0000
# 2 24.8663 80.2327 44.9408 0.0000 0.0000 0.0000
# 3 27.4556 44.9408 82.3810 0.0000 0.0000 0.0000
# 4 0.0000 0.0000 0.0000 22.4816 0.0000 0.0000
# 5 0.0000 0.0000 0.0000 0.0000 23.2357 0.0000
# 6 0.0000 0.0000 0.0000 0.0000 0.0000 11.1475
#
#
#
# Elastic Compliance Matrix: (Units=1/GPa)
#
#
# Indices 1 2 3 4 5 6 
#
# 1 0.040046 -0.007107 -0.009469 0.000000 0.000000 0.000000
# 2 -0.007107 0.019209 -0.008111 0.000000 0.000000 0.000000
# 3 -0.009469 -0.008111 0.019719 0.000000 0.000000 0.000000
# 4 0.000000 0.000000 0.000000 0.044481 0.000000 0.000000
# 5 0.000000 0.000000 0.000000 0.000000 0.043037 0.000000
# 6 0.000000 0.000000 0.000000 0.000000 0.000000 0.089707
#
#
# Mechanical properties :
#
#
# Convention : Reuss Voigt Hill
#
# Bulk Modulus (GPa) = 33.78337 43.66845 38.72591
# Shear Modulus (GPa) = 15.85089 18.12145 16.98617
#
# Velocity S-wave (km/s) = 2.94729 3.15132 3.05101
# Velocity P-wave (km/s) = 5.48596 6.09688 5.79947
#
# Compressibility (1/GPa) = 0.02960037
#
# Stress axis : x y z
#
# Youngs Moduli (GPa) = 24.97142 52.05768 50.71250
#
# Poissons Ratio (x) = 0.36999 0.48020
# Poissons Ratio (y) = 0.17748 0.41130
# Poissons Ratio (z) = 0.23646 0.42221
#
# Static dielectric constant tensor:
#      x y z
#    x 1.658680 0.000000 0.000000 
#    y 0.000000 1.647430 0.000000 
#    z 0.000000 0.000000 1.734760 
# 
# From -- ./inp_files/37717.got.cif
#   From: 2010.05.17/outbox.cif.g08.bks.cpg/sg70_19_cif.got.tgz:37717.got - 2010.06.03 15:57:51.
