data_PCOD9514140
_publ_section_title
;
Structure prediction by ZEFSAII (Michael W. Deem and Ramdas Pophale) SiO2 
 PCOD9514140
Probable space group: F D D D
;
_chemical_formula_sum "Si O2"
_cell_formula_units_Z 208
_cell_length_a 16.345605
_cell_length_b 24.662670
_cell_length_c 21.347837
_cell_angle_alpha 90.000000
_cell_angle_beta 90.000000
_cell_angle_gamma 90.000000
_cell_volume 8605.873733
_symmetry_space_group_name_H-M "F D D D"
_symmetry_group_IT_number 70
_space_group.IT_coordinate_system_code '2'
_symmetry_cell_setting 'orthorhombic'
loop_
_space_group_symop_operation_xyz
x,y,z
1/4-x,1/4-y,z
x,1/4-y,1/4-z
1/4-x,y,1/4-z
-x,-y,-z
3/4+x,3/4+y,-z
-x,3/4+y,3/4+z
3/4+x,-y,3/4+z
x,1/2+y,1/2+z
1/4-x,3/4-y,1/2+z
x,3/4-y,3/4-z
1/4-x,1/2+y,3/4-z
-x,1/2-y,1/2-z
3/4+x,1/4+y,1/2-z
-x,1/4+y,1/4+z
3/4+x,1/2-y,1/4+z
1/2+x,y,1/2+z
3/4-x,1/4-y,1/2+z
1/2+x,1/4-y,3/4-z
3/4-x,y,3/4-z
1/2-x,-y,1/2-z
1/4+x,3/4+y,1/2-z
1/2-x,3/4+y,1/4+z
1/4+x,-y,1/4+z
1/2+x,1/2+y,z
3/4-x,3/4-y,z
1/2+x,3/4-y,1/4-z
3/4-x,1/2+y,1/4-z
1/2-x,1/2-y,-z
1/4+x,1/4+y,-z
1/2-x,1/4+y,3/4+z
1/4+x,1/2-y,3/4+z
loop_
_atom_site_type_symbol
_atom_site_label
_atom_site_fract_x
_atom_site_fract_y
_atom_site_fract_z
Si Si1 0.218302 0.209786 0.948338
Si Si2 0.784421 0.043792 0.395804
Si Si3 0.125000 0.465173 0.625000
Si Si4 0.092840 0.686153 0.284037
Si Si5 0.079812 0.286779 0.411416
Si Si6 0.565960 0.055573 0.727594
Si Si7 0.740044 0.681173 0.597484
O O1 0.294288 0.186310 0.906334
O O2 0.174022 0.252047 0.901992
O O3 0.250000 0.250000 0.000000
O O4 0.151710 0.176743 0.989317
O O5 0.875000 0.062576 0.375000
O O6 0.721211 0.059353 0.340949
O O7 0.744564 0.058091 0.462096
O O8 0.783739 0.978551 0.394369
O O9 0.093411 0.502494 0.684021
O O10 0.125000 0.625000 0.286041
O O11 0.157430 0.735293 0.291360
O O12 0.047799 0.694339 0.219055
O O13 0.162702 0.319851 0.412508
O O14 0.001336 0.324148 0.425681
O O15 0.712713 0.625000 0.625000
#
# Coordination Sequence:
#
# PCOD9514140 Si02
#       7
#    32  32  16  32  32  32  32
#     4   9  16  31  57  91 117 163 215 267 327 397
#     4  11  22  40  68  93 131 182 224 275 354 410
#     4   8  18  28  54  92 125 150 214 282 316 390
#     4  11  24  39  60  90 134 170 223 278 342 411
#     4  10  20  39  61  91 130 173 218 282 337 399
#     4  10  17  33  63  87 125 167 221 265 335 406
#     4  11  24  38  60  97 130 172 229 282 335 412
#
# _framework density 24.169537999999999
#
# number of rings (size 3 to 8) (size 9 to 14) (size 15 to 20)
#    0.000    1.846    3.077    3.692    4.308    0.000 
#    0.000    0.000   16.923    0.000    0.000    5.923 
#    0.000    0.000    0.000    0.000    0.000    0.000 
#
# Total GULP energy -289484.149571 kJ/mol
# GULP energy per Si atom -5567.002876 kJ/mol
# Density = 2.411453 g / cm^3
# Si number density = 24.169538 Si / 1000 Ang^3
#
#
#
# Elastic Constant Matrix: (Units=GPa)
#
#
# Indices 1 2 3 4 5 6 
#
# 1 171.7978 17.0793 30.2590 0.0000 0.0000 0.0000
# 2 17.0793 58.4466 16.7418 0.0000 0.0000 0.0000
# 3 30.2590 16.7418 89.5141 0.0000 0.0000 0.0000
# 4 0.0000 0.0000 0.0000 19.4345 0.0000 0.0000
# 5 0.0000 0.0000 0.0000 0.0000 41.0158 0.0000
# 6 0.0000 0.0000 0.0000 0.0000 0.0000 62.5167
#
#
#
# Elastic Compliance Matrix: (Units=1/GPa)
#
#
# Indices 1 2 3 4 5 6 
#
# 1 0.006281 -0.001297 -0.001881 0.000000 0.000000 0.000000
# 2 -0.001297 0.018346 -0.002993 0.000000 0.000000 0.000000
# 3 -0.001881 -0.002993 0.012367 0.000000 0.000000 0.000000
# 4 0.000000 0.000000 0.000000 0.051455 0.000000 0.000000
# 5 0.000000 0.000000 0.000000 0.000000 0.024381 0.000000
# 6 0.000000 0.000000 0.000000 0.000000 0.000000 0.015996
#
#
# Mechanical properties :
#
#
# Convention : Reuss Voigt Hill
#
# Bulk Modulus (GPa) = 40.56269 49.76874 45.16571
# Shear Modulus (GPa) = 33.47089 41.63862 37.55475
#
# Velocity S-wave (km/s) = 3.72538 4.15513 3.94611
# Velocity P-wave (km/s) = 5.94336 6.60730 6.28411
#
# Compressibility (1/GPa) = 0.02465320
#
# Stress axis : x y z
#
# Youngs Moduli (GPa) = 159.21150 54.50819 80.86092
#
# Poissons Ratio (x) = 0.07068 0.15207
# Poissons Ratio (y) = 0.20645 0.24201
# Poissons Ratio (z) = 0.29942 0.16314
#
# Static dielectric constant tensor:
#      x y z
#    x 2.049880 0.000000 0.000000 
#    y 0.000000 1.926210 0.000000 
#    z 0.000000 0.000000 1.789840 
# 
# From -- ./inp_files/43938.got.cif
#   From: 2010.05.17/outbox.cif.g08.bks.cpg/sg70_22_cif.got.tgz:43938.got - 2010.06.03 15:57:51.
