data_PCOD9514003
_publ_section_title
;
Structure prediction by ZEFSAII (Michael W. Deem and Ramdas Pophale) SiO2 
 PCOD9514003
Probable space group: F M M M
;
_chemical_formula_sum "Si O2"
_cell_formula_units_Z 42
_cell_length_a 15.000000
_cell_length_b 24.000000
_cell_length_c 24.000000
_cell_angle_alpha 90.000000
_cell_angle_beta 90.000000
_cell_angle_gamma 90.000000
_cell_volume 8640.000000
_symmetry_space_group_name_H-M "F M M M"
_symmetry_group_IT_number 69
_symmetry_cell_setting 'orthorhombic'
loop_
_space_group_symop_operation_xyz
x,y,z
-x,-y,z
x,-y,-z
-x,y,-z
-x,-y,-z
x,y,-z
-x,y,z
x,-y,z
x,1/2+y,1/2+z
-x,1/2-y,1/2+z
x,1/2-y,1/2-z
-x,1/2+y,1/2-z
-x,1/2-y,1/2-z
x,1/2+y,1/2-z
-x,1/2+y,1/2+z
x,1/2-y,1/2+z
1/2+x,y,1/2+z
1/2-x,-y,1/2+z
1/2+x,-y,1/2-z
1/2-x,y,1/2-z
1/2-x,-y,1/2-z
1/2+x,y,1/2-z
1/2-x,y,1/2+z
1/2+x,-y,1/2+z
1/2+x,1/2+y,z
1/2-x,1/2-y,z
1/2+x,1/2-y,-z
1/2-x,1/2+y,-z
1/2-x,1/2-y,-z
1/2+x,1/2+y,-z
1/2-x,1/2+y,z
1/2+x,1/2-y,z
loop_
_atom_site_type_symbol
_atom_site_label
_atom_site_fract_x
_atom_site_fract_y
_atom_site_fract_z
Si Si1 0.101950 0.065504 0.732146
Si Si2 0.792658 0.434695 0.119689
Si Si3 0.398608 0.394370 0.856284
Si Si4 0.604633 0.767603 0.346176
Si Si5 0.750000 0.750000 0.750000
Si Si6 0.393098 0.168508 0.934985
O O1 0.170740 0.077253 0.682660
O O2 0.111769 0.099745 0.788933
O O3 0.000000 0.073864 0.711451
O O4 0.111542 0.000000 0.747092
O O5 0.814397 0.500000 0.107711
O O6 0.686004 0.426218 0.118565
O O7 0.841002 0.387947 0.082234
O O8 0.500000 0.414565 0.868648
O O9 0.393103 0.329427 0.872515
O O10 0.500000 0.758706 0.328293
O O11 0.675913 0.770899 0.295788
O O12 0.627102 0.718476 0.390655
O O13 0.500000 0.158815 0.930970
O O14 0.373690 0.182901 0.000000
#
# Coordination Sequence:
#
# PCOD9514003 Si02
#       6
#    32  32  32  32   8  32
#     4   9  18  32  52  82 123 166 203 244 300 366
#     4  11  22  36  59  91 122 158 207 259 308 363
#     4  10  21  36  55  85 125 170 208 244 297 366
#     4  10  23  39  60  93 127 164 209 254 306 375
#     4  12  22  36  58  90 130 168 190 242 316 368
#     4  10  23  45  69  90 119 160 205 260 320 373
#
# _framework density 4.8611110000000002
#
# number of rings (size 3 to 8) (size 9 to 14) (size 15 to 20)
#    0.000    1.905    0.000    3.143    5.333    4.190 
#    0.000    5.238    0.000    1.714    0.000    1.333 
#    0.000    0.000    0.000    0.000    0.000    0.000 
#
# Total GULP energy -234254.809291 kJ/mol
# GULP energy per Si atom -5577.495459 kJ/mol
# Density = 0.485005 g / cm^3
# Si number density = 4.861111 Si / 1000 Ang^3
#
#
#
# Elastic Constant Matrix: (Units=GPa)
#
#
# Indices 1 2 3 4 5 6 
#
# 1 91.8430 28.3203 10.0815 0.0000 0.0000 0.0000
# 2 28.3203 91.7752 28.4031 0.0000 0.0000 0.0000
# 3 10.0815 28.4031 41.9694 0.0000 0.0000 0.0000
# 4 0.0000 0.0000 0.0000 0.7507 0.0000 0.0000
# 5 0.0000 0.0000 0.0000 0.0000 27.4832 0.0000
# 6 0.0000 0.0000 0.0000 0.0000 0.0000 32.3720
#
#
#
# Elastic Compliance Matrix: (Units=1/GPa)
#
#
# Indices 1 2 3 4 5 6 
#
# 1 0.012041 -0.003568 -0.000478 0.000000 0.000000 0.000000
# 2 -0.003568 0.014840 -0.009186 0.000000 0.000000 0.000000
# 3 -0.000478 -0.009186 0.030158 0.000000 0.000000 0.000000
# 4 0.000000 0.000000 0.000000 1.332138 0.000000 0.000000
# 5 0.000000 0.000000 0.000000 0.000000 0.036386 0.000000
# 6 0.000000 0.000000 0.000000 0.000000 0.000000 0.030891
#
#
# Mechanical properties :
#
#
# Convention : Reuss Voigt Hill
#
# Bulk Modulus (GPa) = 32.70549 39.91082 36.30815
# Shear Modulus (GPa) = 3.34872 22.70668 13.02770
#
# Velocity S-wave (km/s) = 1.31375 3.42098 2.59124
# Velocity P-wave (km/s) = 4.37695 6.01450 5.25985
#
# Compressibility (1/GPa) = 0.03057591
#
# Stress axis : x y z
#
# Youngs Moduli (GPa) = 83.05155 67.38498 33.15819
#
# Poissons Ratio (x) = 0.24041 0.01584
# Poissons Ratio (y) = 0.29630 0.30460
# Poissons Ratio (z) = 0.03969 0.61901
#
# Static dielectric constant tensor:
#      x y z
#    x 1.714450 0.000000 0.000000 
#    y 0.000000 1.689070 0.000000 
#    z 0.000000 0.000000 1.664430 
# 
# From -- ./inp_files/35919.got.cif
#   From: 2010.05.17/outbox.ucp.g08.bks.cvg/sg69_18_cif.got.tgz:35919.got - 2010.06.11 16:51:34.
