data_PCOD9514445
_publ_section_title
;
Structure prediction by ZEFSAII (Michael W. Deem and Ramdas Pophale) SiO2 
 PCOD9514445
Probable space group: F D D D
;
_chemical_formula_sum "Si O2"
_cell_formula_units_Z 160
_cell_length_a 12.056994
_cell_length_b 28.196758
_cell_length_c 22.212015
_cell_angle_alpha 90.000000
_cell_angle_beta 90.000000
_cell_angle_gamma 90.000000
_cell_volume 7551.377470
_symmetry_space_group_name_H-M "F D D D"
_symmetry_group_IT_number 70
_space_group.IT_coordinate_system_code '2'
_symmetry_cell_setting 'orthorhombic'
loop_
_space_group_symop_operation_xyz
x,y,z
1/4-x,1/4-y,z
x,1/4-y,1/4-z
1/4-x,y,1/4-z
-x,-y,-z
3/4+x,3/4+y,-z
-x,3/4+y,3/4+z
3/4+x,-y,3/4+z
x,1/2+y,1/2+z
1/4-x,3/4-y,1/2+z
x,3/4-y,3/4-z
1/4-x,1/2+y,3/4-z
-x,1/2-y,1/2-z
3/4+x,1/4+y,1/2-z
-x,1/4+y,1/4+z
3/4+x,1/2-y,1/4+z
1/2+x,y,1/2+z
3/4-x,1/4-y,1/2+z
1/2+x,1/4-y,3/4-z
3/4-x,y,3/4-z
1/2-x,-y,1/2-z
1/4+x,3/4+y,1/2-z
1/2-x,3/4+y,1/4+z
1/4+x,-y,1/4+z
1/2+x,1/2+y,z
3/4-x,3/4-y,z
1/2+x,3/4-y,1/4-z
3/4-x,1/2+y,1/4-z
1/2-x,1/2-y,-z
1/4+x,1/4+y,-z
1/2-x,1/4+y,3/4+z
1/4+x,1/2-y,3/4+z
loop_
_atom_site_type_symbol
_atom_site_label
_atom_site_fract_x
_atom_site_fract_y
_atom_site_fract_z
Si Si1 0.527768 0.547254 0.245830
Si Si2 0.043759 0.341839 0.747587
Si Si3 0.875000 0.975832 0.875000
Si Si4 0.313101 0.941788 0.006707
Si Si5 0.297887 0.308212 0.101278
Si Si6 0.625000 0.884015 0.125000
O O1 0.413268 0.574405 0.232517
O O2 0.595712 0.552445 0.184537
O O3 0.495074 0.491697 0.254081
O O4 0.602619 0.559930 0.303768
O O5 0.059515 0.337519 0.675082
O O6 0.009780 0.396162 0.762076
O O7 0.937714 0.311600 0.768983
O O8 0.773337 0.009774 0.853507
O O9 0.327716 0.935176 0.078700
O O10 0.208806 0.349681 0.089021
#
# Coordination Sequence:
#
# PCOD9514445 Si02
#       6
#    32  32  16  32  32  16
#     4  11  20  34  59  83 112 158 195 230 291 347
#     4  10  19  33  56  83 114 146 182 242 291 334
#     4   9  20  34  50  80 118 154 194 233 278 351
#     4   9  20  36  54  86 117 140 189 242 290 350
#     4   9  18  34  57  81 113 147 182 243 293 329
#     4   9  18  34  56  87 110 132 184 239 296 340
#
# _framework density 21.188188
#
# number of rings (size 3 to 8) (size 9 to 14) (size 15 to 20)
#    0.000    2.400    0.000    3.600    0.000    2.400 
#    0.000    0.000    0.000   19.200    0.000   16.800 
#    0.000    0.000    0.000    0.000    0.000    0.000 
#
# Total GULP energy -223104.979693 kJ/mol
# GULP energy per Si atom -5577.624492 kJ/mol
# Density = 2.113996 g / cm^3
# Si number density = 21.188188 Si / 1000 Ang^3
#
#
#
# Elastic Constant Matrix: (Units=GPa)
#
#
# Indices 1 2 3 4 5 6 
#
# 1 109.5758 25.3702 12.7053 0.0000 0.0000 0.0000
# 2 25.3702 40.8274 12.1018 0.0000 0.0000 0.0000
# 3 12.7053 12.1018 31.6442 0.0000 0.0000 0.0000
# 4 0.0000 0.0000 0.0000 13.0758 0.0000 0.0000
# 5 0.0000 0.0000 0.0000 0.0000 25.1966 0.0000
# 6 0.0000 0.0000 0.0000 0.0000 0.0000 27.2520
#
#
#
# Elastic Compliance Matrix: (Units=1/GPa)
#
#
# Indices 1 2 3 4 5 6 
#
# 1 0.010770 -0.006102 -0.001990 0.000000 0.000000 0.000000
# 2 -0.006102 0.031083 -0.009437 0.000000 0.000000 0.000000
# 3 -0.001990 -0.009437 0.036009 0.000000 0.000000 0.000000
# 4 0.000000 0.000000 0.000000 0.076477 0.000000 0.000000
# 5 0.000000 0.000000 0.000000 0.000000 0.039688 0.000000
# 6 0.000000 0.000000 0.000000 0.000000 0.000000 0.036695
#
#
# Mechanical properties :
#
#
# Convention : Reuss Voigt Hill
#
# Bulk Modulus (GPa) = 23.36308 31.37801 27.37055
# Shear Modulus (GPa) = 17.85408 21.89623 19.87516
#
# Velocity S-wave (km/s) = 2.90598 3.21817 3.06605
# Velocity P-wave (km/s) = 4.72335 5.35258 5.04778
#
# Compressibility (1/GPa) = 0.04280258
#
# Stress axis : x y z
#
# Youngs Moduli (GPa) = 92.85241 32.17234 27.77049
#
# Poissons Ratio (x) = 0.19633 0.05527
# Poissons Ratio (y) = 0.56662 0.26207
# Poissons Ratio (z) = 0.18481 0.30361
#
# Static dielectric constant tensor:
#      x y z
#    x 1.834170 0.000000 0.000000 
#    y 0.000000 1.782860 0.000000 
#    z 0.000000 0.000000 1.760590 
# 
# From -- ./inp_files/57570.got.cif
#   From: 2010.05.17/outbox.cif.g08.bks.cpg/sg70_29_cif.got.tgz:57570.got - 2010.06.03 15:57:51.
