data_PCOD9514267
_publ_section_title
;
Structure prediction by ZEFSAII (Michael W. Deem and Ramdas Pophale) SiO2 
 PCOD9514267
Probable space group: F D D D
;
_chemical_formula_sum "Si O2"
_cell_formula_units_Z 112
_cell_length_a 9.206516
_cell_length_b 24.476073
_cell_length_c 26.771135
_cell_angle_alpha 90.000000
_cell_angle_beta 90.000000
_cell_angle_gamma 90.000000
_cell_volume 6032.590366
_symmetry_space_group_name_H-M "F D D D"
_symmetry_group_IT_number 70
_space_group.IT_coordinate_system_code '2'
_symmetry_cell_setting 'orthorhombic'
loop_
_space_group_symop_operation_xyz
x,y,z
1/4-x,1/4-y,z
x,1/4-y,1/4-z
1/4-x,y,1/4-z
-x,-y,-z
3/4+x,3/4+y,-z
-x,3/4+y,3/4+z
3/4+x,-y,3/4+z
x,1/2+y,1/2+z
1/4-x,3/4-y,1/2+z
x,3/4-y,3/4-z
1/4-x,1/2+y,3/4-z
-x,1/2-y,1/2-z
3/4+x,1/4+y,1/2-z
-x,1/4+y,1/4+z
3/4+x,1/2-y,1/4+z
1/2+x,y,1/2+z
3/4-x,1/4-y,1/2+z
1/2+x,1/4-y,3/4-z
3/4-x,y,3/4-z
1/2-x,-y,1/2-z
1/4+x,3/4+y,1/2-z
1/2-x,3/4+y,1/4+z
1/4+x,-y,1/4+z
1/2+x,1/2+y,z
3/4-x,3/4-y,z
1/2+x,3/4-y,1/4-z
3/4-x,1/2+y,1/4-z
1/2-x,1/2-y,-z
1/4+x,1/4+y,-z
1/2-x,1/4+y,3/4+z
1/4+x,1/2-y,3/4+z
loop_
_atom_site_type_symbol
_atom_site_label
_atom_site_fract_x
_atom_site_fract_y
_atom_site_fract_z
Si Si1 0.477458 0.274671 0.592784
Si Si2 0.987673 0.825300 0.090321
Si Si3 0.861367 0.200982 0.012104
Si Si4 0.375000 0.875000 0.729299
O O1 0.625000 0.277773 0.625000
O O2 0.345927 0.276776 0.632035
O O3 0.457097 0.221316 0.558414
O O4 0.444557 0.327498 0.556519
O O5 0.875000 0.875000 0.087406
O O6 0.125000 0.839774 0.125000
O O7 0.039916 0.808847 0.036049
O O8 0.753992 0.149166 0.013116
O O9 0.750000 0.250000 0.000000
#
# Coordination Sequence:
#
# PCOD9514267 Si02
#       4
#    32  32  32  16
#     4  11  22  37  62  91 122 153 200 251 298 354
#     4  12  20  35  64  91 113 150 199 250 298 347
#     4  10  21  36  59  89 120 151 199 245 297 356
#     4  10  18  34  60  89 118 158 201 244 298 356
#
# _framework density 18.565823000000002
#
# number of rings (size 3 to 8) (size 9 to 14) (size 15 to 20)
#    0.000    1.143    7.143    2.571    0.000    1.143 
#    0.000    0.000    0.000   24.857    0.000    0.000 
#    0.000    0.000    0.000    0.000    0.000    0.000 
#
# Total GULP energy -156111.491059 kJ/mol
# GULP energy per Si atom -5575.410395 kJ/mol
# Density = 1.852357 g / cm^3
# Si number density = 18.565823 Si / 1000 Ang^3
#
#
#
# Elastic Constant Matrix: (Units=GPa)
#
#
# Indices 1 2 3 4 5 6 
#
# 1 139.0597 48.8839 78.4573 0.0000 0.0000 0.0000
# 2 48.8839 62.7438 64.1194 0.0000 0.0000 0.0000
# 3 78.4573 64.1194 121.5905 0.0000 0.0000 0.0000
# 4 0.0000 0.0000 0.0000 24.2467 0.0000 0.0000
# 5 0.0000 0.0000 0.0000 0.0000 17.7836 0.0000
# 6 0.0000 0.0000 0.0000 0.0000 0.0000 12.4039
#
#
#
# Elastic Compliance Matrix: (Units=1/GPa)
#
#
# Indices 1 2 3 4 5 6 
#
# 1 0.011563 -0.003002 -0.005878 0.000000 0.000000 0.000000
# 2 -0.003002 0.035344 -0.016702 0.000000 0.000000 0.000000
# 3 -0.005878 -0.016702 0.020825 0.000000 0.000000 0.000000
# 4 0.000000 0.000000 0.000000 0.041243 0.000000 0.000000
# 5 0.000000 0.000000 0.000000 0.000000 0.056232 0.000000
# 6 0.000000 0.000000 0.000000 0.000000 0.000000 0.080620
#
#
# Mechanical properties :
#
#
# Convention : Reuss Voigt Hill
#
# Bulk Modulus (GPa) = 60.35372 78.47949 69.41660
# Shear Modulus (GPa) = 16.52834 19.68240 18.10537
#
# Velocity S-wave (km/s) = 2.98695 3.25951 3.12621
# Velocity P-wave (km/s) = 6.66891 7.51855 7.10644
#
# Compressibility (1/GPa) = 0.01656899
#
# Stress axis : x y z
#
# Youngs Moduli (GPa) = 86.48478 28.29328 48.02020
#
# Poissons Ratio (x) = 0.08493 0.28227
# Poissons Ratio (y) = 0.25959 0.80201
# Poissons Ratio (z) = 0.50837 0.47254
#
# Static dielectric constant tensor:
#      x y z
#    x 1.668210 0.000000 0.000000 
#    y 0.000000 1.694760 0.000000 
#    z 0.000000 0.000000 1.653090 
# 
# From -- ./inp_files/9471.got.cif
#   From: 2010.05.17/outbox.cif.g08.bks.cpg/sg70_5_cif.got.tgz:9471.got - 2010.06.03 15:57:51.
