data_PCOD9514958
_publ_section_title
;
Structure prediction by ZEFSAII (Michael W. Deem and Ramdas Pophale) SiO2 
 PCOD9514958
Probable space group: F D D D
;
_chemical_formula_sum "Si O2"
_cell_formula_units_Z 184
_cell_length_a 16.634787
_cell_length_b 22.834888
_cell_length_c 21.127408
_cell_angle_alpha 90.000000
_cell_angle_beta 90.000000
_cell_angle_gamma 90.000000
_cell_volume 8025.319834
_symmetry_space_group_name_H-M "F D D D"
_symmetry_group_IT_number 70
_space_group.IT_coordinate_system_code '2'
_symmetry_cell_setting 'orthorhombic'
loop_
_space_group_symop_operation_xyz
x,y,z
1/4-x,1/4-y,z
x,1/4-y,1/4-z
1/4-x,y,1/4-z
-x,-y,-z
3/4+x,3/4+y,-z
-x,3/4+y,3/4+z
3/4+x,-y,3/4+z
x,1/2+y,1/2+z
1/4-x,3/4-y,1/2+z
x,3/4-y,3/4-z
1/4-x,1/2+y,3/4-z
-x,1/2-y,1/2-z
3/4+x,1/4+y,1/2-z
-x,1/4+y,1/4+z
3/4+x,1/2-y,1/4+z
1/2+x,y,1/2+z
3/4-x,1/4-y,1/2+z
1/2+x,1/4-y,3/4-z
3/4-x,y,3/4-z
1/2-x,-y,1/2-z
1/4+x,3/4+y,1/2-z
1/2-x,3/4+y,1/4+z
1/4+x,-y,1/4+z
1/2+x,1/2+y,z
3/4-x,3/4-y,z
1/2+x,3/4-y,1/4-z
3/4-x,1/2+y,1/4-z
1/2-x,1/2-y,-z
1/4+x,1/4+y,-z
1/2-x,1/4+y,3/4+z
1/4+x,1/2-y,3/4+z
loop_
_atom_site_type_symbol
_atom_site_label
_atom_site_fract_x
_atom_site_fract_y
_atom_site_fract_z
Si Si1 0.271920 0.071704 0.174569
Si Si2 0.997865 0.794990 0.062567
Si Si3 0.538504 0.177754 0.004724
Si Si4 0.367905 0.752169 0.088256
Si Si5 0.138147 0.894521 0.742146
Si Si6 0.625000 0.625000 0.010873
Si Si7 0.125000 0.625000 0.125000
O O1 0.275516 0.125000 0.125000
O O2 0.310947 0.015948 0.138449
O O3 0.333808 0.091718 0.229266
O O4 0.180246 0.078169 0.199930
O O5 0.962927 0.769472 0.126346
O O6 0.936869 0.841253 0.033231
O O7 0.998246 0.741008 0.013828
O O8 0.085181 0.824125 0.061051
O O9 0.474704 0.131772 0.978993
O O10 0.570644 0.160496 0.074569
O O11 0.607587 0.193507 0.955498
O O12 0.353450 0.694589 0.045935
#
# Coordination Sequence:
#
# PCOD9514958 Si02
#       7
#    32  32  32  32  32  16   8
#     4   9  17  33  62  92 128 177 219 277 319 399
#     4  10  21  40  67  99 137 180 222 284 335 402
#     4  11  23  44  70  98 127 181 231 272 345 411
#     4  10  20  37  68 100 135 172 229 282 337 398
#     4   9  19  39  69  96 129 179 225 267 339 405
#     4  10  21  35  60 100 141 183 228 266 342 402
#     4  12  28  46  76  92 126 182 232 288 330 422
#
# _framework density 22.927436
#
# number of rings (size 3 to 8) (size 9 to 14) (size 15 to 20)
#    0.000    2.087    1.739    2.348    1.217    1.391 
#    0.000   11.304    3.826    0.000    0.000    0.000 
#    0.000    0.000    0.000    0.000    0.000    0.000 
#
# Total GULP energy -256845.142008 kJ/mol
# GULP energy per Si atom -5583.590044 kJ/mol
# Density = 2.287525 g / cm^3
# Si number density = 22.927436 Si / 1000 Ang^3
#
#
#
# Elastic Constant Matrix: (Units=GPa)
#
#
# Indices 1 2 3 4 5 6 
#
# 1 95.9669 48.6822 36.4456 0.0000 0.0000 0.0000
# 2 48.6822 82.1265 25.2257 0.0000 0.0000 0.0000
# 3 36.4456 25.2257 66.2108 0.0000 0.0000 0.0000
# 4 0.0000 0.0000 0.0000 10.1444 0.0000 0.0000
# 5 0.0000 0.0000 0.0000 0.0000 38.0442 0.0000
# 6 0.0000 0.0000 0.0000 0.0000 0.0000 20.0454
#
#
#
# Elastic Compliance Matrix: (Units=1/GPa)
#
#
# Indices 1 2 3 4 5 6 
#
# 1 0.016890 -0.008104 -0.006209 0.000000 0.000000 0.000000
# 2 -0.008104 0.017679 -0.002274 0.000000 0.000000 0.000000
# 3 -0.006209 -0.002274 0.019388 0.000000 0.000000 0.000000
# 4 0.000000 0.000000 0.000000 0.098576 0.000000 0.000000
# 5 0.000000 0.000000 0.000000 0.000000 0.026285 0.000000
# 6 0.000000 0.000000 0.000000 0.000000 0.000000 0.049887
#
#
# Mechanical properties :
#
#
# Convention : Reuss Voigt Hill
#
# Bulk Modulus (GPa) = 48.12282 51.66791 49.89536
# Shear Modulus (GPa) = 18.60068 22.57685 20.58877
#
# Velocity S-wave (km/s) = 2.85140 3.14141 2.99991
# Velocity P-wave (km/s) = 5.64583 5.97849 5.81454
#
# Compressibility (1/GPa) = 0.02078016
#
# Stress axis : x y z
#
# Youngs Moduli (GPa) = 59.20814 56.56408 51.57931
#
# Poissons Ratio (x) = 0.45842 0.32026
# Poissons Ratio (y) = 0.47985 0.11731
# Poissons Ratio (z) = 0.36763 0.12865
#
# Static dielectric constant tensor:
#      x y z
#    x 1.892910 0.000000 0.000000 
#    y 0.000000 1.840820 0.000000 
#    z 0.000000 0.000000 1.888610 
# 
# From -- ./inp_files/43893.got.cif
#   From: 2010.05.17/outbox.cif.g08.bks.cpg/sg70_22_cif.got.tgz:43893.got - 2010.06.03 15:57:51.
