data_PCOD9514134
_publ_section_title
;
Structure prediction by ZEFSAII (Michael W. Deem and Ramdas Pophale) SiO2 
 PCOD9514134
Probable space group: F D D D
;
_chemical_formula_sum "Si O2"
_cell_formula_units_Z 144
_cell_length_a 25.040002
_cell_length_b 26.969542
_cell_length_c 10.431036
_cell_angle_alpha 90.000000
_cell_angle_beta 90.000000
_cell_angle_gamma 90.000000
_cell_volume 7044.259961
_symmetry_space_group_name_H-M "F D D D"
_symmetry_group_IT_number 70
_space_group.IT_coordinate_system_code '2'
_symmetry_cell_setting 'orthorhombic'
loop_
_space_group_symop_operation_xyz
x,y,z
1/4-x,1/4-y,z
x,1/4-y,1/4-z
1/4-x,y,1/4-z
-x,-y,-z
3/4+x,3/4+y,-z
-x,3/4+y,3/4+z
3/4+x,-y,3/4+z
x,1/2+y,1/2+z
1/4-x,3/4-y,1/2+z
x,3/4-y,3/4-z
1/4-x,1/2+y,3/4-z
-x,1/2-y,1/2-z
3/4+x,1/4+y,1/2-z
-x,1/4+y,1/4+z
3/4+x,1/2-y,1/4+z
1/2+x,y,1/2+z
3/4-x,1/4-y,1/2+z
1/2+x,1/4-y,3/4-z
3/4-x,y,3/4-z
1/2-x,-y,1/2-z
1/4+x,3/4+y,1/2-z
1/2-x,3/4+y,1/4+z
1/4+x,-y,1/4+z
1/2+x,1/2+y,z
3/4-x,3/4-y,z
1/2+x,3/4-y,1/4-z
3/4-x,1/2+y,1/4-z
1/2-x,1/2-y,-z
1/4+x,1/4+y,-z
1/2-x,1/4+y,3/4+z
1/4+x,1/2-y,3/4+z
loop_
_atom_site_type_symbol
_atom_site_label
_atom_site_fract_x
_atom_site_fract_y
_atom_site_fract_z
Si Si1 0.966670 0.469111 0.668733
Si Si2 0.435277 0.889729 0.184865
Si Si3 0.824727 0.539311 0.281018
Si Si4 0.186827 0.179191 0.584047
Si Si5 0.021603 0.875000 0.875000
O O1 0.954955 0.412982 0.622379
O O2 0.924496 0.503117 0.592488
O O3 0.963171 0.469314 0.822587
O O4 0.025500 0.480098 0.617086
O O5 0.375000 0.875000 0.226766
O O6 0.478551 0.905564 0.290217
O O7 0.436574 0.928919 0.068850
O O8 0.875000 0.541492 0.375000
O O9 0.807594 0.591738 0.218039
O O10 0.209248 0.125000 0.625000
O O11 0.125000 0.179366 0.625000
#
# Coordination Sequence:
#
# PCOD9514134 Si02
#       5
#    32  32  32  32  16
#     4   9  19  35  60  85 110 154 199 243 314 364
#     4  10  17  32  61  92 122 144 180 253 314 368
#     4  10  22  42  58  77 119 165 208 257 297 363
#     4   9  14  30  54  88 119 140 173 235 312 359
#     4  10  23  38  54  86 114 164 217 238 300 380
#
# _framework density 20.442176
#
# number of rings (size 3 to 8) (size 9 to 14) (size 15 to 20)
#    0.000    2.444    4.444    0.333    0.000    5.333 
#   10.000    2.222    0.000    0.000    0.000    0.000 
#    0.000    0.000    0.000    0.000    0.000    0.000 
#
# Total GULP energy -200402.095806 kJ/mol
# GULP energy per Si atom -5566.724883 kJ/mol
# Density = 2.039565 g / cm^3
# Si number density = 20.442176 Si / 1000 Ang^3
#
#
#
# Elastic Constant Matrix: (Units=GPa)
#
#
# Indices 1 2 3 4 5 6 
#
# 1 97.0235 25.1027 67.8623 0.0000 0.0000 0.0000
# 2 25.1027 50.3096 33.0591 0.0000 -0.0001 0.0000
# 3 67.8623 33.0591 151.1931 0.0002 -0.0003 -0.0001
# 4 0.0000 0.0000 0.0002 35.9583 -0.0001 0.0000
# 5 0.0000 -0.0001 -0.0003 -0.0001 42.2247 0.0000
# 6 0.0000 0.0000 -0.0001 0.0000 0.0000 13.8031
#
#
#
# Elastic Compliance Matrix: (Units=1/GPa)
#
#
# Indices 1 2 3 4 5 6 
#
# 1 0.015596 -0.003716 -0.006188 0.000000 0.000000 0.000000
# 2 -0.003716 0.024097 -0.003601 0.000000 0.000000 0.000000
# 3 -0.006188 -0.003601 0.010179 0.000000 0.000000 0.000000
# 4 0.000000 0.000000 0.000000 0.027810 0.000000 0.000000
# 5 0.000000 0.000000 0.000000 0.000000 0.023683 0.000000
# 6 0.000000 0.000000 0.000000 0.000000 0.000000 0.072447
#
#
# Mechanical properties :
#
#
# Convention : Reuss Voigt Hill
#
# Bulk Modulus (GPa) = 43.73927 61.17495 52.45711
# Shear Modulus (GPa) = 23.98736 29.89735 26.94236
#
# Velocity S-wave (km/s) = 3.42925 3.82846 3.63434
# Velocity P-wave (km/s) = 6.09284 7.03801 6.58241
#
# Compressibility (1/GPa) = 0.02286275
#
# Stress axis : x y z
#
# Youngs Moduli (GPa) = 64.11823 41.49834 98.24320
#
# Poissons Ratio (x) = 0.15420 0.60791
# Poissons Ratio (y) = 0.23826 0.35379
# Poissons Ratio (z) = 0.39675 0.14944
#
# Static dielectric constant tensor:
#      x y z
#    x 1.732510 0.000000 0.000000 
#    y 0.000000 1.785370 0.000000 
#    z 0.000000 0.000000 1.826110 
# 
# From -- ./inp_files/19241.got.cif
#   From: 2010.05.17/outbox.cif.g08.bks.cpg/sg70_10_cif.got.tgz:19241.got - 2010.06.03 15:57:51.
