data_PCOD9514816
_publ_section_title
;
Structure prediction by ZEFSAII (Michael W. Deem and Ramdas Pophale) SiO2 
 PCOD9514816
Probable space group: F D D D
;
_chemical_formula_sum "Si O2"
_cell_formula_units_Z 216
_cell_length_a 11.976475
_cell_length_b 24.979851
_cell_length_c 30.074732
_cell_angle_alpha 90.000000
_cell_angle_beta 90.000000
_cell_angle_gamma 90.000000
_cell_volume 8997.474445
_symmetry_space_group_name_H-M "F D D D"
_symmetry_group_IT_number 70
_space_group.IT_coordinate_system_code '2'
_symmetry_cell_setting 'orthorhombic'
loop_
_space_group_symop_operation_xyz
x,y,z
1/4-x,1/4-y,z
x,1/4-y,1/4-z
1/4-x,y,1/4-z
-x,-y,-z
3/4+x,3/4+y,-z
-x,3/4+y,3/4+z
3/4+x,-y,3/4+z
x,1/2+y,1/2+z
1/4-x,3/4-y,1/2+z
x,3/4-y,3/4-z
1/4-x,1/2+y,3/4-z
-x,1/2-y,1/2-z
3/4+x,1/4+y,1/2-z
-x,1/4+y,1/4+z
3/4+x,1/2-y,1/4+z
1/2+x,y,1/2+z
3/4-x,1/4-y,1/2+z
1/2+x,1/4-y,3/4-z
3/4-x,y,3/4-z
1/2-x,-y,1/2-z
1/4+x,3/4+y,1/2-z
1/2-x,3/4+y,1/4+z
1/4+x,-y,1/4+z
1/2+x,1/2+y,z
3/4-x,3/4-y,z
1/2+x,3/4-y,1/4-z
3/4-x,1/2+y,1/4-z
1/2-x,1/2-y,-z
1/4+x,1/4+y,-z
1/2-x,1/4+y,3/4+z
1/4+x,1/2-y,3/4+z
loop_
_atom_site_type_symbol
_atom_site_label
_atom_site_fract_x
_atom_site_fract_y
_atom_site_fract_z
Si Si1 0.706779 0.910302 0.999523
Si Si2 0.946437 0.791094 0.916007
Si Si3 0.625000 0.625000 0.415507
Si Si4 0.653541 0.821195 0.211927
Si Si5 0.428589 0.261095 0.137123
Si Si6 0.502926 0.272119 0.458169
Si Si7 0.479059 0.309322 0.296964
Si Si8 0.625000 0.625000 0.625000
O O1 0.776333 0.914871 0.953641
O O2 0.579020 0.921090 0.983106
O O3 0.699097 0.862378 0.034991
O O4 0.748299 0.962547 0.024425
O O5 0.875000 0.810730 0.875000
O O6 0.893891 0.735592 0.936353
O O7 0.063568 0.769703 0.896370
O O8 0.515696 0.648701 0.442609
O O9 0.586856 0.574409 0.386005
O O10 0.656493 0.804164 0.264185
O O11 0.484216 0.234111 0.094190
O O12 0.496208 0.248788 0.182198
O O13 0.391090 0.302439 0.474280
O O14 0.456907 0.345590 0.340210
#
# Coordination Sequence:
#
# PCOD9514816 Si02
#       8
#    32  32  16  32  32  32  32   8
#     4  10  21  34  59  88 123 166 207 251 313 367
#     4   9  21  41  61  83 118 166 208 262 315 364
#     4  10  20  37  60  92 125 168 201 252 324 388
#     4  10  20  35  59  91 123 160 203 252 315 373
#     4  10  21  36  58  86 120 162 208 251 311 374
#     4  11  20  36  56  91 129 156 197 259 305 373
#     4  11  20  33  52  89 128 166 196 238 305 384
#     4  12  20  30  56  88 126 172 196 228 308 382
#
# _framework density 24.006734999999999
#
# number of rings (size 3 to 8) (size 9 to 14) (size 15 to 20)
#    0.000    1.778    1.481    4.000    0.000    2.370 
#    0.000    2.963    0.000    3.556    0.000    0.000 
#    0.000    0.000    0.000    0.000    0.000    0.000 
#
# Total GULP energy -301317.389873 kJ/mol
# GULP energy per Si atom -5579.951664 kJ/mol
# Density = 2.395209 g / cm^3
# Si number density = 24.006735 Si / 1000 Ang^3
#
#
#
# Elastic Constant Matrix: (Units=GPa)
#
#
# Indices 1 2 3 4 5 6 
#
# 1 21.4052 18.2703 17.9748 0.0000 0.0000 0.0000
# 2 18.2703 59.8264 -3.0623 0.0000 0.0000 0.0000
# 3 17.9748 -3.0623 71.6474 0.0000 0.0000 0.0000
# 4 0.0000 0.0000 0.0000 10.1348 0.0000 0.0000
# 5 0.0000 0.0000 0.0000 0.0000 14.2663 0.0000
# 6 0.0000 0.0000 0.0000 0.0000 0.0000 41.2244
#
#
#
# Elastic Compliance Matrix: (Units=1/GPa)
#
#
# Indices 1 2 3 4 5 6 
#
# 1 0.092390 -0.029466 -0.024438 0.000000 0.000000 0.000000
# 2 -0.029466 0.026149 0.008510 0.000000 0.000000 0.000000
# 3 -0.024438 0.008510 0.020452 0.000000 0.000000 0.000000
# 4 0.000000 0.000000 0.000000 0.098670 0.000000 0.000000
# 5 0.000000 0.000000 0.000000 0.000000 0.070095 0.000000
# 6 0.000000 0.000000 0.000000 0.000000 0.000000 0.024257
#
#
# Mechanical properties :
#
#
# Convention : Reuss Voigt Hill
#
# Bulk Modulus (GPa) = 20.74548 24.36052 22.55300
# Shear Modulus (GPa) = 11.39293 21.10483 16.24888
#
# Velocity S-wave (km/s) = 2.18083 2.96821 2.60445
# Velocity P-wave (km/s) = 3.87320 4.68150 4.29640
#
# Compressibility (1/GPa) = 0.04820328
#
# Stress axis : x y z
#
# Youngs Moduli (GPa) = 10.82373 38.24230 48.89509
#
# Poissons Ratio (x) = 1.12683 1.19490
# Poissons Ratio (y) = 0.31893 -0.41609
# Poissons Ratio (z) = 0.26451 -0.32544
#
# Static dielectric constant tensor:
#      x y z
#    x 1.924420 0.000000 0.000000 
#    y 0.000000 1.952140 0.000000 
#    z 0.000000 0.000000 1.899260 
# 
# From -- ./inp_files/51610.got.cif
#   From: 2010.05.17/outbox.cif.g08.bks.cpg/sg70_26_cif.got.tgz:51610.got - 2010.06.03 15:57:51.
