data_PCOD9514247
_publ_section_title
;
Structure prediction by ZEFSAII (Michael W. Deem and Ramdas Pophale) SiO2 
 PCOD9514247
Probable space group: F D D D
;
_chemical_formula_sum "Si O2"
_cell_formula_units_Z 160
_cell_length_a 25.603817
_cell_length_b 14.120316
_cell_length_c 22.725991
_cell_angle_alpha 90.000000
_cell_angle_beta 90.000000
_cell_angle_gamma 90.000000
_cell_volume 8216.218131
_symmetry_space_group_name_H-M "F D D D"
_symmetry_group_IT_number 70
_space_group.IT_coordinate_system_code '2'
_symmetry_cell_setting 'orthorhombic'
loop_
_space_group_symop_operation_xyz
x,y,z
1/4-x,1/4-y,z
x,1/4-y,1/4-z
1/4-x,y,1/4-z
-x,-y,-z
3/4+x,3/4+y,-z
-x,3/4+y,3/4+z
3/4+x,-y,3/4+z
x,1/2+y,1/2+z
1/4-x,3/4-y,1/2+z
x,3/4-y,3/4-z
1/4-x,1/2+y,3/4-z
-x,1/2-y,1/2-z
3/4+x,1/4+y,1/2-z
-x,1/4+y,1/4+z
3/4+x,1/2-y,1/4+z
1/2+x,y,1/2+z
3/4-x,1/4-y,1/2+z
1/2+x,1/4-y,3/4-z
3/4-x,y,3/4-z
1/2-x,-y,1/2-z
1/4+x,3/4+y,1/2-z
1/2-x,3/4+y,1/4+z
1/4+x,-y,1/4+z
1/2+x,1/2+y,z
3/4-x,3/4-y,z
1/2+x,3/4-y,1/4-z
3/4-x,1/2+y,1/4-z
1/2-x,1/2-y,-z
1/4+x,1/4+y,-z
1/2-x,1/4+y,3/4+z
1/4+x,1/2-y,3/4+z
loop_
_atom_site_type_symbol
_atom_site_label
_atom_site_fract_x
_atom_site_fract_y
_atom_site_fract_z
Si Si1 0.672442 0.241200 0.989284
Si Si2 0.821639 0.251000 0.578424
Si Si3 0.560271 0.208370 0.396505
Si Si4 0.691930 0.305652 0.285773
Si Si5 0.246652 0.153848 0.714026
O O1 0.680031 0.197395 0.923404
O O2 0.612703 0.272716 0.993834
O O3 0.708375 0.334522 0.988227
O O4 0.695835 0.164489 0.034583
O O5 0.884856 0.257227 0.575739
O O6 0.799029 0.356637 0.574890
O O7 0.802556 0.169140 0.534867
O O8 0.811537 0.219453 0.645454
O O9 0.517250 0.288612 0.407478
O O10 0.735842 0.240828 0.257807
#
# Coordination Sequence:
#
# PCOD9514247 Si02
#       5
#    32  32  32  32  32
#     4  10  20  35  50  81 117 139 178 231 275 325
#     4   9  18  32  56  76 109 136 176 232 275 312
#     4  10  18  34  53  82 107 141 177 229 277 322
#     4  10  18  34  53  82 107 141 177 229 277 322
#     4  11  20  29  56  82 108 143 178 222 276 332
#
# _framework density 19.473679000000001
#
# number of rings (size 3 to 8) (size 9 to 14) (size 15 to 20)
#    0.000    2.000    4.000    1.200    0.000    0.800 
#    0.000    0.000    0.000   20.400    0.000    0.000 
#    0.000    0.000    0.000    0.000    0.000    0.000 
#
# Total GULP energy -222934.549910 kJ/mol
# GULP energy per Si atom -5573.363748 kJ/mol
# Density = 1.942936 g / cm^3
# Si number density = 19.473679 Si / 1000 Ang^3
#
#
#
# Elastic Constant Matrix: (Units=GPa)
#
#
# Indices 1 2 3 4 5 6 
#
# 1 32.8705 35.4051 11.0442 0.0000 0.0000 0.0000
# 2 35.4051 162.2705 21.2008 0.0000 0.0000 0.0000
# 3 11.0442 21.2008 12.9290 0.0000 0.0000 0.0000
# 4 0.0000 0.0000 0.0000 40.1517 0.0000 0.0000
# 5 0.0000 0.0000 0.0000 0.0000 22.3964 0.0000
# 6 0.0000 0.0000 0.0000 0.0000 0.0000 31.4853
#
#
#
# Elastic Compliance Matrix: (Units=1/GPa)
#
#
# Indices 1 2 3 4 5 6 
#
# 1 0.047415 -0.006431 -0.029956 0.000000 0.000000 0.000000
# 2 -0.006431 0.008715 -0.008797 0.000000 0.000000 0.000000
# 3 -0.029956 -0.008797 0.117360 0.000000 0.000000 0.000000
# 4 0.000000 0.000000 0.000000 0.024906 0.000000 0.000000
# 5 0.000000 0.000000 0.000000 0.000000 0.044650 0.000000
# 6 0.000000 0.000000 0.000000 0.000000 0.000000 0.031761
#
#
# Mechanical properties :
#
#
# Convention : Reuss Voigt Hill
#
# Bulk Modulus (GPa) = 12.03078 38.15223 25.09151
# Shear Modulus (GPa) = 12.72644 28.16800 20.44722
#
# Velocity S-wave (km/s) = 2.55918 3.80737 3.24387
# Velocity P-wave (km/s) = 3.86315 6.24198 5.19067
#
# Compressibility (1/GPa) = 0.08312012
#
# Stress axis : x y z
#
# Youngs Moduli (GPa) = 21.09051 114.74289 8.52079
#
# Poissons Ratio (x) = 0.73795 0.25525
# Poissons Ratio (y) = 0.13564 0.07496
# Poissons Ratio (z) = 0.63180 1.00941
#
# Static dielectric constant tensor:
#      x y z
#    x 1.690150 0.000000 0.000000 
#    y 0.000000 1.740030 0.000000 
#    z 0.000000 0.000000 1.688710 
# 
# From -- ./inp_files/28640.got.cif
#   From: 2010.05.17/outbox.cif.g08.bks.cpg/sg70_15_cif.got.tgz:28640.got - 2010.06.03 15:57:51.
