data_PCOD9514649
_publ_section_title
;
Structure prediction by ZEFSAII (Michael W. Deem and Ramdas Pophale) SiO2 
 PCOD9514649
Probable space group: F D D D
;
_chemical_formula_sum "Si O2"
_cell_formula_units_Z 104
_cell_length_a 25.515660
_cell_length_b 5.246206
_cell_length_c 29.898718
_cell_angle_alpha 90.000000
_cell_angle_beta 90.000000
_cell_angle_gamma 90.000000
_cell_volume 4002.254608
_symmetry_space_group_name_H-M "F D D D"
_symmetry_group_IT_number 70
_space_group.IT_coordinate_system_code '2'
_symmetry_cell_setting 'orthorhombic'
loop_
_space_group_symop_operation_xyz
x,y,z
1/4-x,1/4-y,z
x,1/4-y,1/4-z
1/4-x,y,1/4-z
-x,-y,-z
3/4+x,3/4+y,-z
-x,3/4+y,3/4+z
3/4+x,-y,3/4+z
x,1/2+y,1/2+z
1/4-x,3/4-y,1/2+z
x,3/4-y,3/4-z
1/4-x,1/2+y,3/4-z
-x,1/2-y,1/2-z
3/4+x,1/4+y,1/2-z
-x,1/4+y,1/4+z
3/4+x,1/2-y,1/4+z
1/2+x,y,1/2+z
3/4-x,1/4-y,1/2+z
1/2+x,1/4-y,3/4-z
3/4-x,y,3/4-z
1/2-x,-y,1/2-z
1/4+x,3/4+y,1/2-z
1/2-x,3/4+y,1/4+z
1/4+x,-y,1/4+z
1/2+x,1/2+y,z
3/4-x,3/4-y,z
1/2+x,3/4-y,1/4-z
3/4-x,1/2+y,1/4-z
1/2-x,1/2-y,-z
1/4+x,1/4+y,-z
1/2-x,1/4+y,3/4+z
1/4+x,1/2-y,3/4+z
loop_
_atom_site_type_symbol
_atom_site_label
_atom_site_fract_x
_atom_site_fract_y
_atom_site_fract_z
Si Si1 0.206338 0.523781 0.973249
Si Si2 0.466189 0.170089 0.818037
Si Si3 0.324668 0.960967 0.574333
Si Si4 0.625000 0.125000 0.625000
O O1 0.263056 0.434917 0.954126
O O2 0.173319 0.268622 0.961996
O O3 0.210389 0.524749 0.026698
O O4 0.317952 0.733086 0.050926
O O5 0.517901 0.094074 0.846348
O O6 0.413901 0.207049 0.845051
O O7 0.375000 0.875000 0.603205
#
# Coordination Sequence:
#
# PCOD9514649 Si02
#       4
#    32  32  32   8
#     4   9  20  39  69  99 132 180 247 287 350 432
#     4   9  23  37  70  92 148 182 239 280 373 440
#     4  10  19  38  72 101 126 175 248 304 338 412
#     4  12  24  52  62 112 154 200 214 322 394 444
#
# _framework density 25.985353
#
# number of rings (size 3 to 8) (size 9 to 14) (size 15 to 20)
#    1.846    0.615    0.000    1.846    2.154    0.000 
#    0.000    4.615    6.769    0.000    0.000    0.000 
#    0.000    0.000    0.000    0.000    0.000    0.000 
#
# Total GULP energy -144972.344522 kJ/mol
# GULP energy per Si atom -5575.859405 kJ/mol
# Density = 2.592621 g / cm^3
# Si number density = 25.985353 Si / 1000 Ang^3
#
#
#
# Elastic Constant Matrix: (Units=GPa)
#
#
# Indices 1 2 3 4 5 6 
#
# 1 223.2039 64.3922 75.3205 -0.0029 -0.0211 -0.0275
# 2 64.3922 217.2475 50.4938 0.0252 -0.0692 -0.0188
# 3 75.3205 50.4938 102.1156 0.0016 0.0093 0.0071
# 4 -0.0029 0.0252 0.0016 26.5762 0.0002 0.0045
# 5 -0.0211 -0.0692 0.0093 0.0002 48.5450 0.0073
# 6 -0.0275 -0.0188 0.0071 0.0045 0.0073 23.2910
#
#
#
# Elastic Compliance Matrix: (Units=1/GPa)
#
#
# Indices 1 2 3 4 5 6 
#
# 1 0.006104 -0.000862 -0.004076 0.000002 0.000002 0.000008
# 2 -0.000862 0.005322 -0.001996 -0.000005 0.000008 0.000004
# 3 -0.004076 -0.001996 0.013787 0.000001 -0.000007 -0.000011
# 4 0.000002 -0.000005 0.000001 0.037628 0.000000 -0.000007
# 5 0.000002 0.000008 -0.000007 0.000000 0.020599 -0.000006
# 6 0.000008 0.000004 -0.000011 -0.000007 -0.000006 0.042935
#
#
# Mechanical properties :
#
#
# Convention : Reuss Voigt Hill
#
# Bulk Modulus (GPa) = 88.14724 102.55334 95.35029
# Shear Modulus (GPa) = 34.71591 43.17315 38.94453
#
# Velocity S-wave (km/s) = 3.65907 4.08050 3.87552
# Velocity P-wave (km/s) = 7.20050 7.85825 7.53656
#
# Compressibility (1/GPa) = 0.01134465
#
# Stress axis : x y z
#
# Youngs Moduli (GPa) = 163.81443 187.88309 72.53385
#
# Poissons Ratio (x) = 0.16193 0.29568
# Poissons Ratio (y) = 0.14119 0.14479
# Poissons Ratio (z) = 0.66779 0.37503
#
# Static dielectric constant tensor:
#      x y z
#    x 2.310420 -0.000010 0.000000 
#    y -0.000010 2.059010 -0.000010 
#    z 0.000000 -0.000010 2.059390 
# 
# From -- ./inp_files/67650.got.cif
#   From: 2010.05.17/outbox.cif.g08.bks.cpg/sg70_34_cif.got.tgz:67650.got - 2010.06.03 15:57:51.
