data_PCOD9514822
_publ_section_title
;
Structure prediction by ZEFSAII (Michael W. Deem and Ramdas Pophale) SiO2 
 PCOD9514822
Probable space group: F D D D
;
_chemical_formula_sum "Si O2"
_cell_formula_units_Z 160
_cell_length_a 14.779881
_cell_length_b 22.488632
_cell_length_c 22.593166
_cell_angle_alpha 90.000000
_cell_angle_beta 90.000000
_cell_angle_gamma 90.000000
_cell_volume 7509.500809
_symmetry_space_group_name_H-M "F D D D"
_symmetry_group_IT_number 70
_space_group.IT_coordinate_system_code '2'
_symmetry_cell_setting 'orthorhombic'
loop_
_space_group_symop_operation_xyz
x,y,z
1/4-x,1/4-y,z
x,1/4-y,1/4-z
1/4-x,y,1/4-z
-x,-y,-z
3/4+x,3/4+y,-z
-x,3/4+y,3/4+z
3/4+x,-y,3/4+z
x,1/2+y,1/2+z
1/4-x,3/4-y,1/2+z
x,3/4-y,3/4-z
1/4-x,1/2+y,3/4-z
-x,1/2-y,1/2-z
3/4+x,1/4+y,1/2-z
-x,1/4+y,1/4+z
3/4+x,1/2-y,1/4+z
1/2+x,y,1/2+z
3/4-x,1/4-y,1/2+z
1/2+x,1/4-y,3/4-z
3/4-x,y,3/4-z
1/2-x,-y,1/2-z
1/4+x,3/4+y,1/2-z
1/2-x,3/4+y,1/4+z
1/4+x,-y,1/4+z
1/2+x,1/2+y,z
3/4-x,3/4-y,z
1/2+x,3/4-y,1/4-z
3/4-x,1/2+y,1/4-z
1/2-x,1/2-y,-z
1/4+x,1/4+y,-z
1/2-x,1/4+y,3/4+z
1/4+x,1/2-y,3/4+z
loop_
_atom_site_type_symbol
_atom_site_label
_atom_site_fract_x
_atom_site_fract_y
_atom_site_fract_z
Si Si1 0.875000 0.375000 0.243371
Si Si2 0.509116 0.948794 0.171029
Si Si3 0.375000 0.525041 0.875000
Si Si4 0.688861 0.384752 0.698904
Si Si5 0.778949 0.666394 0.680485
Si Si6 0.736890 0.954082 0.804420
O O1 0.832275 0.323756 0.202336
O O2 0.795453 0.398181 0.284286
O O3 0.595398 0.921124 0.205072
O O4 0.511970 0.919320 0.105168
O O5 0.517702 0.019521 0.173444
O O6 0.406910 0.569914 0.823915
O O7 0.460603 0.485618 0.892188
O O8 0.739653 0.371064 0.759621
O O9 0.759946 0.625000 0.625000
O O10 0.885619 0.684171 0.682832
O O11 0.750000 0.000000 0.750000
#
# Coordination Sequence:
#
# PCOD9514822 Si02
#       6
#    16  32  16  32  32  32
#     4  12  20  37  64 102 131 174 202 272 332 418
#     4  10  22  41  68  90 135 178 217 269 338 394
#     4  10  20  35  62  90 135 178 202 256 334 406
#     4  10  22  45  64  92 129 179 221 275 333 396
#     4  12  26  41  65  99 135 172 229 283 321 399
#     4  12  22  38  61  99 136 164 209 265 338 401
#
# _framework density 21.306342000000001
#
# number of rings (size 3 to 8) (size 9 to 14) (size 15 to 20)
#    0.000    1.200    6.000    1.200    2.800    2.400 
#    0.000    2.000    0.000    0.000    0.000    0.000 
#    0.000    0.000    0.000    0.000    0.000    0.000 
#
# Total GULP energy -223482.518362 kJ/mol
# GULP energy per Si atom -5587.062959 kJ/mol
# Density = 2.125785 g / cm^3
# Si number density = 21.306342 Si / 1000 Ang^3
#
#
#
# Elastic Constant Matrix: (Units=GPa)
#
#
# Indices 1 2 3 4 5 6 
#
# 1 37.7739 15.2047 -2.6538 0.0000 0.0000 0.0000
# 2 15.2047 131.1431 57.0369 0.0000 0.0000 0.0000
# 3 -2.6538 57.0369 87.4897 0.0000 0.0000 0.0000
# 4 0.0000 0.0000 0.0000 4.7103 0.0000 0.0000
# 5 0.0000 0.0000 0.0000 0.0000 16.6864 0.0000
# 6 0.0000 0.0000 0.0000 0.0000 0.0000 34.1855
#
#
#
# Elastic Compliance Matrix: (Units=1/GPa)
#
#
# Indices 1 2 3 4 5 6 
#
# 1 0.028867 -0.005203 0.004268 0.000000 0.000000 0.000000
# 2 -0.005203 0.011581 -0.007708 0.000000 0.000000 0.000000
# 3 0.004268 -0.007708 0.016584 0.000000 0.000000 0.000000
# 4 0.000000 0.000000 0.000000 0.212301 0.000000 0.000000
# 5 0.000000 0.000000 0.000000 0.000000 0.059929 0.000000
# 6 0.000000 0.000000 0.000000 0.000000 0.000000 0.029252
#
#
# Mechanical properties :
#
#
# Convention : Reuss Voigt Hill
#
# Bulk Modulus (GPa) = 25.15955 43.95359 34.55657
# Shear Modulus (GPa) = 12.85184 23.57104 18.21144
#
# Velocity S-wave (km/s) = 2.45866 3.32971 2.92677
# Velocity P-wave (km/s) = 4.46029 5.95455 5.26074
#
# Compressibility (1/GPa) = 0.03974634
#
# Stress axis : x y z
#
# Youngs Moduli (GPa) = 34.64115 86.35072 60.29855
#
# Poissons Ratio (x) = 0.44928 -0.25733
# Poissons Ratio (y) = 0.18024 0.46476
# Poissons Ratio (z) = -0.14783 0.66556
#
# Static dielectric constant tensor:
#      x y z
#    x 1.781730 0.000000 0.000000 
#    y 0.000000 1.761370 0.000000 
#    z 0.000000 0.000000 1.819190 
# 
# From -- ./inp_files/36383.got.cif
#   From: 2010.05.17/outbox.cif.g08.bks.cpg/sg70_19_cif.got.tgz:36383.got - 2010.06.03 15:57:51.
