data_PCOD9514500
_publ_section_title
;
Structure prediction by ZEFSAII (Michael W. Deem and Ramdas Pophale) SiO2 
 PCOD9514500
Probable space group: F D D D
;
_chemical_formula_sum "Si O2"
_cell_formula_units_Z 168
_cell_length_a 19.723187
_cell_length_b 37.069101
_cell_length_c 13.527423
_cell_angle_alpha 90.000000
_cell_angle_beta 90.000000
_cell_angle_gamma 90.000000
_cell_volume 9890.180474
_symmetry_space_group_name_H-M "F D D D"
_symmetry_group_IT_number 70
_space_group.IT_coordinate_system_code '2'
_symmetry_cell_setting 'orthorhombic'
loop_
_space_group_symop_operation_xyz
x,y,z
1/4-x,1/4-y,z
x,1/4-y,1/4-z
1/4-x,y,1/4-z
-x,-y,-z
3/4+x,3/4+y,-z
-x,3/4+y,3/4+z
3/4+x,-y,3/4+z
x,1/2+y,1/2+z
1/4-x,3/4-y,1/2+z
x,3/4-y,3/4-z
1/4-x,1/2+y,3/4-z
-x,1/2-y,1/2-z
3/4+x,1/4+y,1/2-z
-x,1/4+y,1/4+z
3/4+x,1/2-y,1/4+z
1/2+x,y,1/2+z
3/4-x,1/4-y,1/2+z
1/2+x,1/4-y,3/4-z
3/4-x,y,3/4-z
1/2-x,-y,1/2-z
1/4+x,3/4+y,1/2-z
1/2-x,3/4+y,1/4+z
1/4+x,-y,1/4+z
1/2+x,1/2+y,z
3/4-x,3/4-y,z
1/2+x,3/4-y,1/4-z
3/4-x,1/2+y,1/4-z
1/2-x,1/2-y,-z
1/4+x,1/4+y,-z
1/2-x,1/4+y,3/4+z
1/4+x,1/2-y,3/4+z
loop_
_atom_site_type_symbol
_atom_site_label
_atom_site_fract_x
_atom_site_fract_y
_atom_site_fract_z
Si Si1 0.206770 0.675152 0.276881
Si Si2 0.625000 0.625000 0.625000
Si Si3 0.463679 0.036390 0.115934
Si Si4 0.433109 0.793340 0.684114
Si Si5 0.871378 0.152106 0.034941
Si Si6 0.737616 0.888870 0.111753
O O1 0.172743 0.648232 0.196439
O O2 0.266324 0.695752 0.219671
O O3 0.146838 0.702710 0.301904
O O4 0.229776 0.650248 0.368424
O O5 0.399566 0.057868 0.070407
O O6 0.451413 0.993848 0.119456
O O7 0.526547 0.042336 0.039096
O O8 0.458927 0.829115 0.628719
O O9 0.861497 0.125000 0.125000
O O10 0.944971 0.146045 0.987151
O O11 0.816786 0.142783 0.950541
#
# Coordination Sequence:
#
# PCOD9514500 Si02
#       6
#    32   8  32  32  32  32
#     4  12  18  32  53  78 110 145 180 223 275 333
#     4  12  16  28  52  76 106 144 168 216 266 332
#     4  10  20  31  49  78 112 144 170 219 287 327
#     4  10  20  30  48  81 113 138 173 223 280 331
#     4  10  19  35  52  76 108 142 183 226 263 320
#     4  10  20  32  53  81 107 140 188 221 264 328
#
# _framework density 16.986546000000001
#
# number of rings (size 3 to 8) (size 9 to 14) (size 15 to 20)
#    0.000    1.524    5.714    1.143    2.667    0.000 
#    0.000    0.000    0.000    3.429    4.952    0.000 
#    0.000    0.000    0.000    0.000    0.000    0.000 
#
# Total GULP energy -234227.294428 kJ/mol
# GULP energy per Si atom -5576.840344 kJ/mol
# Density = 1.694788 g / cm^3
# Si number density = 16.986546 Si / 1000 Ang^3
#
#
#
# Elastic Constant Matrix: (Units=GPa)
#
#
# Indices 1 2 3 4 5 6 
#
# 1 57.0179 24.7920 19.4543 0.0000 0.0000 0.0000
# 2 24.7920 97.6078 24.2899 0.0000 0.0000 0.0000
# 3 19.4543 24.2899 35.7700 0.0000 0.0000 0.0000
# 4 0.0000 0.0000 0.0000 8.1463 0.0000 0.0000
# 5 0.0000 0.0000 0.0000 0.0000 16.9800 0.0000
# 6 0.0000 0.0000 0.0000 0.0000 0.0000 10.6133
#
#
#
# Elastic Compliance Matrix: (Units=1/GPa)
#
#
# Indices 1 2 3 4 5 6 
#
# 1 0.022330 -0.003188 -0.009979 0.000000 0.000000 0.000000
# 2 -0.003188 0.012784 -0.006947 0.000000 0.000000 0.000000
# 3 -0.009979 -0.006947 0.038101 0.000000 0.000000 0.000000
# 4 0.000000 0.000000 0.000000 0.122756 0.000000 0.000000
# 5 0.000000 0.000000 0.000000 0.000000 0.058893 0.000000
# 6 0.000000 0.000000 0.000000 0.000000 0.000000 0.094222
#
#
# Mechanical properties :
#
#
# Convention : Reuss Voigt Hill
#
# Bulk Modulus (GPa) = 30.31642 36.38533 33.35088
# Shear Modulus (GPa) = 12.49037 15.27188 13.88112
#
# Velocity S-wave (km/s) = 2.71460 3.00168 2.86174
# Velocity P-wave (km/s) = 5.26417 5.78619 5.53134
#
# Compressibility (1/GPa) = 0.03298543
#
# Stress axis : x y z
#
# Youngs Moduli (GPa) = 44.78364 78.22514 26.24595
#
# Poissons Ratio (x) = 0.24940 0.26192
# Poissons Ratio (y) = 0.14278 0.18233
# Poissons Ratio (z) = 0.44691 0.54341
#
# Static dielectric constant tensor:
#      x y z
#    x 1.599200 0.000000 0.000000 
#    y 0.000000 1.579760 0.000000 
#    z 0.000000 0.000000 1.569420 
# 
# From -- ./inp_files/27830.got.cif
#   From: 2010.05.17/outbox.cif.g08.bks.cpg/sg70_14_cif.got.tgz:27830.got - 2010.06.03 15:57:51.
