data_PCOD9514448
_publ_section_title
;
Structure prediction by ZEFSAII (Michael W. Deem and Ramdas Pophale) SiO2 
 PCOD9514448
Probable space group: F D D D
;
_chemical_formula_sum "Si O2"
_cell_formula_units_Z 168
_cell_length_a 21.770691
_cell_length_b 14.068115
_cell_length_c 23.779440
_cell_angle_alpha 90.000000
_cell_angle_beta 90.000000
_cell_angle_gamma 90.000000
_cell_volume 7282.990550
_symmetry_space_group_name_H-M "F D D D"
_symmetry_group_IT_number 70
_space_group.IT_coordinate_system_code '2'
_symmetry_cell_setting 'orthorhombic'
loop_
_space_group_symop_operation_xyz
x,y,z
1/4-x,1/4-y,z
x,1/4-y,1/4-z
1/4-x,y,1/4-z
-x,-y,-z
3/4+x,3/4+y,-z
-x,3/4+y,3/4+z
3/4+x,-y,3/4+z
x,1/2+y,1/2+z
1/4-x,3/4-y,1/2+z
x,3/4-y,3/4-z
1/4-x,1/2+y,3/4-z
-x,1/2-y,1/2-z
3/4+x,1/4+y,1/2-z
-x,1/4+y,1/4+z
3/4+x,1/2-y,1/4+z
1/2+x,y,1/2+z
3/4-x,1/4-y,1/2+z
1/2+x,1/4-y,3/4-z
3/4-x,y,3/4-z
1/2-x,-y,1/2-z
1/4+x,3/4+y,1/2-z
1/2-x,3/4+y,1/4+z
1/4+x,-y,1/4+z
1/2+x,1/2+y,z
3/4-x,3/4-y,z
1/2+x,3/4-y,1/4-z
3/4-x,1/2+y,1/4-z
1/2-x,1/2-y,-z
1/4+x,1/4+y,-z
1/2-x,1/4+y,3/4+z
1/4+x,1/2-y,3/4+z
loop_
_atom_site_type_symbol
_atom_site_label
_atom_site_fract_x
_atom_site_fract_y
_atom_site_fract_z
Si Si1 0.875000 0.375000 0.875000
Si Si2 0.678904 0.557195 0.343034
Si Si3 0.441799 0.492252 0.905365
Si Si4 0.348405 0.277054 0.264457
Si Si5 0.872216 0.667569 0.006974
Si Si6 0.778008 0.928908 0.985239
O O1 0.909633 0.305453 0.919320
O O2 0.625000 0.625000 0.368283
O O3 0.744708 0.532847 0.371822
O O4 0.650737 0.458917 0.317062
O O5 0.699249 0.617162 0.288292
O O6 0.375000 0.492855 0.875000
O O7 0.458978 0.359963 0.817351
O O8 0.429429 0.558864 0.960221
O O9 0.375000 0.375000 0.240888
O O10 0.393782 0.190439 0.250515
O O11 0.287881 0.227948 0.240241
O O12 0.926501 0.733792 0.987261
#
# Coordination Sequence:
#
# PCOD9514448 Si02
#       6
#     8  32  32  32  32  32
#     4   8  24  36  56  92 114 168 240 288 342 408
#     4   9  17  33  59  90 121 172 218 264 345 430
#     4  11  20  32  57  97 135 168 218 287 343 406
#     4  10  20  37  57  86 127 167 235 285 337 412
#     4  10  19  33  59  87 124 165 219 274 334 408
#     4  10  19  35  57  90 127 169 224 274 342 421
#
# _framework density 23.067446
#
# number of rings (size 3 to 8) (size 9 to 14) (size 15 to 20)
#    0.571    1.524    3.810    2.857    1.333    2.286 
#    0.000    0.000    0.000    1.143    9.905    0.000 
#    0.000    0.000    0.000    0.000    0.000    0.000 
#
# Total GULP energy -233810.818984 kJ/mol
# GULP energy per Si atom -5566.924262 kJ/mol
# Density = 2.301494 g / cm^3
# Si number density = 23.067446 Si / 1000 Ang^3
#
#
#
# Elastic Constant Matrix: (Units=GPa)
#
#
# Indices 1 2 3 4 5 6 
#
# 1 135.8902 54.3349 32.7434 0.0000 0.0000 0.0000
# 2 54.3349 202.6034 33.7978 0.0000 0.0000 0.0000
# 3 32.7434 33.7978 107.9354 0.0000 0.0000 0.0000
# 4 0.0000 0.0000 0.0000 9.2567 0.0000 0.0000
# 5 0.0000 0.0000 0.0000 0.0000 19.3256 0.0000
# 6 0.0000 0.0000 0.0000 0.0000 0.0000 47.1651
#
#
#
# Elastic Compliance Matrix: (Units=1/GPa)
#
#
# Indices 1 2 3 4 5 6 
#
# 1 0.008633 -0.001982 -0.001998 0.000000 0.000000 0.000000
# 2 -0.001982 0.005663 -0.001172 0.000000 0.000000 0.000000
# 3 -0.001998 -0.001172 0.010238 0.000000 0.000000 0.000000
# 4 0.000000 0.000000 0.000000 0.108029 0.000000 0.000000
# 5 0.000000 0.000000 0.000000 0.000000 0.051745 0.000000
# 6 0.000000 0.000000 0.000000 0.000000 0.000000 0.021202
#
#
# Mechanical properties :
#
#
# Convention : Reuss Voigt Hill
#
# Bulk Modulus (GPa) = 70.27718 76.46459 73.37089
# Shear Modulus (GPa) = 22.66985 36.85301 29.76143
#
# Velocity S-wave (km/s) = 3.13831 4.00136 3.59582
# Velocity P-wave (km/s) = 6.60788 7.38702 7.00829
#
# Compressibility (1/GPa) = 0.01422937
#
# Stress axis : x y z
#
# Youngs Moduli (GPa) = 115.83729 176.59261 97.67546
#
# Poissons Ratio (x) = 0.34998 0.19518
# Poissons Ratio (y) = 0.22957 0.11447
# Poissons Ratio (z) = 0.23148 0.20696
#
# Static dielectric constant tensor:
#      x y z
#    x 2.061070 0.000000 0.000000 
#    y 0.000000 1.921690 0.000000 
#    z 0.000000 0.000000 1.964860 
# 
# From -- ./inp_files/67210.got.cif
#   From: 2010.05.17/outbox.cif.g08.bks.cpg/sg70_34_cif.got.tgz:67210.got - 2010.06.03 15:57:51.
