data_PCOD9514510
_publ_section_title
;
Structure prediction by ZEFSAII (Michael W. Deem and Ramdas Pophale) SiO2 
 PCOD9514510
Probable space group: F D D D
;
_chemical_formula_sum "Si O2"
_cell_formula_units_Z 160
_cell_length_a 13.826204
_cell_length_b 25.063984
_cell_length_c 18.613546
_cell_angle_alpha 90.000000
_cell_angle_beta 90.000000
_cell_angle_gamma 90.000000
_cell_volume 6450.333686
_symmetry_space_group_name_H-M "F D D D"
_symmetry_group_IT_number 70
_space_group.IT_coordinate_system_code '2'
_symmetry_cell_setting 'orthorhombic'
loop_
_space_group_symop_operation_xyz
x,y,z
1/4-x,1/4-y,z
x,1/4-y,1/4-z
1/4-x,y,1/4-z
-x,-y,-z
3/4+x,3/4+y,-z
-x,3/4+y,3/4+z
3/4+x,-y,3/4+z
x,1/2+y,1/2+z
1/4-x,3/4-y,1/2+z
x,3/4-y,3/4-z
1/4-x,1/2+y,3/4-z
-x,1/2-y,1/2-z
3/4+x,1/4+y,1/2-z
-x,1/4+y,1/4+z
3/4+x,1/2-y,1/4+z
1/2+x,y,1/2+z
3/4-x,1/4-y,1/2+z
1/2+x,1/4-y,3/4-z
3/4-x,y,3/4-z
1/2-x,-y,1/2-z
1/4+x,3/4+y,1/2-z
1/2-x,3/4+y,1/4+z
1/4+x,-y,1/4+z
1/2+x,1/2+y,z
3/4-x,3/4-y,z
1/2+x,3/4-y,1/4-z
3/4-x,1/2+y,1/4-z
1/2-x,1/2-y,-z
1/4+x,1/4+y,-z
1/2-x,1/4+y,3/4+z
1/4+x,1/2-y,3/4+z
loop_
_atom_site_type_symbol
_atom_site_label
_atom_site_fract_x
_atom_site_fract_y
_atom_site_fract_z
Si Si1 0.125000 0.037086 0.625000
Si Si2 0.416988 0.201736 0.150978
Si Si3 0.764231 0.535381 0.993910
Si Si4 0.875000 0.618504 0.375000
Si Si5 0.558898 0.076266 0.895627
Si Si6 0.344494 0.214212 0.991143
O O1 0.220823 0.065995 0.656565
O O2 0.173745 0.001401 0.562005
O O3 0.334652 0.182400 0.204534
O O4 0.417618 0.266124 0.168389
O O5 0.379890 0.194839 0.069712
O O6 0.698274 0.570661 0.940930
O O7 0.688271 0.498022 0.035684
O O8 0.798271 0.655239 0.415334
O O9 0.924925 0.581035 0.433192
O O10 0.625000 0.125000 0.919098
O O11 0.250000 0.250000 0.000000
#
# Coordination Sequence:
#
# PCOD9514510 Si02
#       6
#    16  32  32  16  32  32
#     4   8  17  30  52  80 101 133 186 229 260 318
#     4  10  20  36  57  82 111 149 190 229 278 340
#     4  10  19  35  57  81 110 150 188 227 279 343
#     4  12  21  36  58  84 115 145 185 237 288 328
#     4  10  20  34  55  86 114 143 188 240 281 327
#     4  10  20  34  54  81 111 150 189 225 276 347
#
# _framework density 24.804918000000001
#
# number of rings (size 3 to 8) (size 9 to 14) (size 15 to 20)
#    0.000    2.400    0.000    7.800    0.000    0.000 
#    0.000    1.000    0.000    8.400    0.000   11.900 
#    0.000    0.000    0.000    0.000    0.000    0.000 
#
# Total GULP energy -223509.831283 kJ/mol
# GULP energy per Si atom -5587.745782 kJ/mol
# Density = 2.474846 g / cm^3
# Si number density = 24.804918 Si / 1000 Ang^3
#
#
#
# Elastic Constant Matrix: (Units=GPa)
#
#
# Indices 1 2 3 4 5 6 
#
# 1 126.6793 8.8205 11.6994 0.0000 0.0000 0.0000
# 2 8.8205 92.5554 1.3263 0.0000 0.0000 0.0000
# 3 11.6994 1.3263 63.2673 0.0000 0.0000 0.0000
# 4 0.0000 0.0000 0.0000 20.0995 0.0000 0.0000
# 5 0.0000 0.0000 0.0000 0.0000 46.5841 0.0000
# 6 0.0000 0.0000 0.0000 0.0000 0.0000 23.9764
#
#
#
# Elastic Compliance Matrix: (Units=1/GPa)
#
#
# Indices 1 2 3 4 5 6 
#
# 1 0.008083 -0.000749 -0.001479 0.000000 0.000000 0.000000
# 2 -0.000749 0.010877 -0.000090 0.000000 0.000000 0.000000
# 3 -0.001479 -0.000090 0.016081 0.000000 0.000000 0.000000
# 4 0.000000 0.000000 0.000000 0.049753 0.000000 0.000000
# 5 0.000000 0.000000 0.000000 0.000000 0.021467 0.000000
# 6 0.000000 0.000000 0.000000 0.000000 0.000000 0.041708
#
#
# Mechanical properties :
#
#
# Convention : Reuss Voigt Hill
#
# Bulk Modulus (GPa) = 32.88832 36.24383 34.56607
# Shear Modulus (GPa) = 30.72420 35.50905 33.11662
#
# Velocity S-wave (km/s) = 3.52324 3.78766 3.65784
# Velocity P-wave (km/s) = 5.46247 5.81135 5.63961
#
# Compressibility (1/GPa) = 0.03040594
#
# Stress axis : x y z
#
# Youngs Moduli (GPa) = 123.72106 91.93706 62.18398
#
# Poissons Ratio (x) = 0.06887 0.09197
# Poissons Ratio (y) = 0.09268 0.00557
# Poissons Ratio (z) = 0.18298 0.00823
#
# Static dielectric constant tensor:
#      x y z
#    x 2.013410 0.000000 0.000000 
#    y 0.000000 2.043810 0.000000 
#    z 0.000000 0.000000 2.013470 
# 
# From -- ./inp_files/50347.got.cif
#   From: 2010.05.17/outbox.cif.g08.bks.cpg/sg70_26_cif.got.tgz:50347.got - 2010.06.03 15:57:51.
