data_PCOD9514036
_publ_section_title
;
Structure prediction by ZEFSAII (Michael W. Deem and Ramdas Pophale) SiO2 
 PCOD9514036
Probable space group: F D D D
;
_chemical_formula_sum "Si O2"
_cell_formula_units_Z 176
_cell_length_a 13.592997
_cell_length_b 33.478742
_cell_length_c 15.082797
_cell_angle_alpha 90.000000
_cell_angle_beta 90.000000
_cell_angle_gamma 90.000000
_cell_volume 6863.825558
_symmetry_space_group_name_H-M "F D D D"
_symmetry_group_IT_number 70
_space_group.IT_coordinate_system_code '2'
_symmetry_cell_setting 'orthorhombic'
loop_
_space_group_symop_operation_xyz
x,y,z
1/4-x,1/4-y,z
x,1/4-y,1/4-z
1/4-x,y,1/4-z
-x,-y,-z
3/4+x,3/4+y,-z
-x,3/4+y,3/4+z
3/4+x,-y,3/4+z
x,1/2+y,1/2+z
1/4-x,3/4-y,1/2+z
x,3/4-y,3/4-z
1/4-x,1/2+y,3/4-z
-x,1/2-y,1/2-z
3/4+x,1/4+y,1/2-z
-x,1/4+y,1/4+z
3/4+x,1/2-y,1/4+z
1/2+x,y,1/2+z
3/4-x,1/4-y,1/2+z
1/2+x,1/4-y,3/4-z
3/4-x,y,3/4-z
1/2-x,-y,1/2-z
1/4+x,3/4+y,1/2-z
1/2-x,3/4+y,1/4+z
1/4+x,-y,1/4+z
1/2+x,1/2+y,z
3/4-x,3/4-y,z
1/2+x,3/4-y,1/4-z
3/4-x,1/2+y,1/4-z
1/2-x,1/2-y,-z
1/4+x,1/4+y,-z
1/2-x,1/4+y,3/4+z
1/4+x,1/2-y,3/4+z
loop_
_atom_site_type_symbol
_atom_site_label
_atom_site_fract_x
_atom_site_fract_y
_atom_site_fract_z
Si Si1 0.345995 0.511987 0.542333
Si Si2 0.375000 0.875000 0.985261
Si Si3 0.989194 0.301990 0.670264
Si Si4 0.748224 0.917666 0.727428
Si Si5 0.272331 0.565357 0.985367
Si Si6 0.779498 0.422955 0.481167
O O1 0.410786 0.482735 0.601354
O O2 0.429035 0.531941 0.480813
O O3 0.273335 0.478508 0.500780
O O4 0.278137 0.546749 0.581754
O O5 0.311929 0.840000 0.033464
O O6 0.287129 0.904024 0.950434
O O7 0.019932 0.317488 0.575773
O O8 0.749125 0.919723 0.617773
O O9 0.639273 0.933999 0.746406
O O10 0.757294 0.873741 0.772442
O O11 0.855141 0.933172 0.760169
#
# Coordination Sequence:
#
# PCOD9514036 Si02
#       6
#    32  16  32  32  32  32
#     4  10  21  28  47  78 116 137 171 219 287 321
#     4  10  14  30  52  70 103 134 172 209 276 310
#     4  10  18  32  47  79 110 138 172 226 273 327
#     4  10  19  31  55  74 108 136 184 223 273 313
#     4  10  18  31  46  79 107 142 167 225 271 321
#     4  11  18  33  53  81 104 141 180 228 271 329
#
# _framework density 25.641677999999999
#
# number of rings (size 3 to 8) (size 9 to 14) (size 15 to 20)
#    0.000    1.818    5.455    1.636    2.545    0.727 
#    0.000    0.000    0.000    0.000    0.000  118.364 
#    0.000    0.000    0.000    0.000    0.000    0.000 
#
# Total GULP energy -245094.822643 kJ/mol
# GULP energy per Si atom -5570.336878 kJ/mol
# Density = 2.558332 g / cm^3
# Si number density = 25.641678 Si / 1000 Ang^3
#
#
#
# Elastic Constant Matrix: (Units=GPa)
#
#
# Indices 1 2 3 4 5 6 
#
# 1 176.4305 81.7127 29.0477 0.0000 0.0000 0.0000
# 2 81.7127 147.7276 37.7382 0.0000 0.0000 0.0000
# 3 29.0477 37.7382 69.4101 0.0000 0.0000 0.0000
# 4 0.0000 0.0000 0.0000 137.2736 0.0000 0.0000
# 5 0.0000 0.0000 0.0000 0.0000 17.3164 0.0000
# 6 0.0000 0.0000 0.0000 0.0000 0.0000 20.9454
#
#
#
# Elastic Compliance Matrix: (Units=1/GPa)
#
#
# Indices 1 2 3 4 5 6 
#
# 1 0.007686 -0.003983 -0.001051 0.000000 0.000000 0.000000
# 2 -0.003983 0.009925 -0.003729 0.000000 0.000000 0.000000
# 3 -0.001051 -0.003729 0.016875 0.000000 0.000000 0.000000
# 4 0.000000 0.000000 0.000000 0.007285 0.000000 0.000000
# 5 0.000000 0.000000 0.000000 0.000000 0.057749 0.000000
# 6 0.000000 0.000000 0.000000 0.000000 0.000000 0.047743
#
#
# Mechanical properties :
#
#
# Convention : Reuss Voigt Hill
#
# Bulk Modulus (GPa) = 58.96599 76.72951 67.84775
# Shear Modulus (GPa) = 29.33569 51.44503 40.39036
#
# Velocity S-wave (km/s) = 3.38607 4.48404 3.97316
# Velocity P-wave (km/s) = 6.19139 7.53641 6.89677
#
# Compressibility (1/GPa) = 0.01695893
#
# Stress axis : x y z
#
# Youngs Moduli (GPa) = 130.11494 100.75744 59.26048
#
# Poissons Ratio (x) = 0.40128 0.06228
# Poissons Ratio (y) = 0.51820 0.22101
# Poissons Ratio (z) = 0.13675 0.37577
#
# Static dielectric constant tensor:
#      x y z
#    x 3.085560 0.000000 0.000000 
#    y 0.000000 2.249950 0.000000 
#    z 0.000000 0.000000 2.213220 
# 
# From -- ./inp_files/51517.got.cif
#   From: 2010.05.17/outbox.cif.g08.bks.cpg/sg70_26_cif.got.tgz:51517.got - 2010.06.03 15:57:51.
