data_PCOD9514138
_publ_section_title
;
Structure prediction by ZEFSAII (Michael W. Deem and Ramdas Pophale) SiO2 
 PCOD9514138
Probable space group: F D D D
;
_chemical_formula_sum "Si O2"
_cell_formula_units_Z 176
_cell_length_a 11.562078
_cell_length_b 23.551818
_cell_length_c 22.947259
_cell_angle_alpha 90.000000
_cell_angle_beta 90.000000
_cell_angle_gamma 90.000000
_cell_volume 6248.721211
_symmetry_space_group_name_H-M "F D D D"
_symmetry_group_IT_number 70
_space_group.IT_coordinate_system_code '2'
_symmetry_cell_setting 'orthorhombic'
loop_
_space_group_symop_operation_xyz
x,y,z
1/4-x,1/4-y,z
x,1/4-y,1/4-z
1/4-x,y,1/4-z
-x,-y,-z
3/4+x,3/4+y,-z
-x,3/4+y,3/4+z
3/4+x,-y,3/4+z
x,1/2+y,1/2+z
1/4-x,3/4-y,1/2+z
x,3/4-y,3/4-z
1/4-x,1/2+y,3/4-z
-x,1/2-y,1/2-z
3/4+x,1/4+y,1/2-z
-x,1/4+y,1/4+z
3/4+x,1/2-y,1/4+z
1/2+x,y,1/2+z
3/4-x,1/4-y,1/2+z
1/2+x,1/4-y,3/4-z
3/4-x,y,3/4-z
1/2-x,-y,1/2-z
1/4+x,3/4+y,1/2-z
1/2-x,3/4+y,1/4+z
1/4+x,-y,1/4+z
1/2+x,1/2+y,z
3/4-x,3/4-y,z
1/2+x,3/4-y,1/4-z
3/4-x,1/2+y,1/4-z
1/2-x,1/2-y,-z
1/4+x,1/4+y,-z
1/2-x,1/4+y,3/4+z
1/4+x,1/2-y,3/4+z
loop_
_atom_site_type_symbol
_atom_site_label
_atom_site_fract_x
_atom_site_fract_y
_atom_site_fract_z
Si Si1 0.696513 0.493966 0.998562
Si Si2 0.861236 0.208203 0.134826
Si Si3 0.375000 0.480195 0.875000
Si Si4 0.251464 0.325214 0.604447
Si Si5 0.973888 0.337512 0.209331
Si Si6 0.401762 0.587250 0.513831
O O1 0.654998 0.484564 0.065852
O O2 0.414145 0.472319 0.029877
O O3 0.807344 0.536050 0.002618
O O4 0.717211 0.453579 0.942930
O O5 0.838248 0.273751 0.114723
O O6 0.818760 0.170830 0.080515
O O7 0.002500 0.198524 0.137288
O O8 0.125000 0.304570 0.625000
O O9 0.263277 0.381546 0.645762
O O10 0.249129 0.334860 0.535595
O O11 0.875000 0.375000 0.239900
O O12 0.083823 0.355930 0.245501
#
# Coordination Sequence:
#
# PCOD9514138 Si02
#       6
#    32  32  16  32  32  32
#     4  10  19  38  58  80 120 157 202 247 298 357
#     4  11  19  35  56  80 122 149 192 244 297 355
#     4  10  24  36  55  86 124 158 196 244 306 362
#     4  10  17  33  59  80 114 146 194 245 291 353
#     4   9  16  33  55  77 112 152 193 243 282 354
#     4   9  19  32  56  88 110 149 189 247 301 347
#
# _framework density 28.165762999999998
#
# number of rings (size 3 to 8) (size 9 to 14) (size 15 to 20)
#    0.000    2.182    5.455    1.091    0.000    0.000 
#    4.909   11.364    0.000    0.000    0.000    0.000 
#    0.000    0.000    0.000    0.000    0.000    0.000 
#
# Total GULP energy -245332.416239 kJ/mol
# GULP energy per Si atom -5575.736733 kJ/mol
# Density = 2.810166 g / cm^3
# Si number density = 28.165763 Si / 1000 Ang^3
#
#
#
# Elastic Constant Matrix: (Units=GPa)
#
#
# Indices 1 2 3 4 5 6 
#
# 1 53.6487 9.0770 12.0308 0.0000 0.0000 0.0000
# 2 9.0770 61.1372 51.7454 0.0000 0.0000 0.0000
# 3 12.0308 51.7454 271.4746 0.0000 0.0000 0.0000
# 4 0.0000 0.0000 0.0000 44.8075 0.0000 0.0000
# 5 0.0000 0.0000 0.0000 0.0000 44.0312 0.0000
# 6 0.0000 0.0000 0.0000 0.0000 0.0000 34.3647
#
#
#
# Elastic Compliance Matrix: (Units=1/GPa)
#
#
# Indices 1 2 3 4 5 6 
#
# 1 0.019150 -0.002534 -0.000366 0.000000 0.000000 0.000000
# 2 -0.002534 0.019838 -0.003669 0.000000 0.000000 0.000000
# 3 -0.000366 -0.003669 0.004399 0.000000 0.000000 0.000000
# 4 0.000000 0.000000 0.000000 0.022318 0.000000 0.000000
# 5 0.000000 0.000000 0.000000 0.000000 0.022711 0.000000
# 6 0.000000 0.000000 0.000000 0.000000 0.000000 0.029100
#
#
# Mechanical properties :
#
#
# Convention : Reuss Voigt Hill
#
# Bulk Modulus (GPa) = 33.05690 59.10744 46.08217
# Shear Modulus (GPa) = 35.52727 45.53451 40.53089
#
# Velocity S-wave (km/s) = 3.55542 4.02514 3.79755
# Velocity P-wave (km/s) = 5.34946 6.52943 5.96867
#
# Compressibility (1/GPa) = 0.03025087
#
# Stress axis : x y z
#
# Youngs Moduli (GPa) = 52.21804 50.40762 227.31679
#
# Poissons Ratio (x) = 0.12772 0.08314
# Poissons Ratio (y) = 0.13231 0.83404
# Poissons Ratio (z) = 0.01910 0.18495
#
# Static dielectric constant tensor:
#      x y z
#    x 2.305070 0.000000 0.000000 
#    y 0.000000 2.386850 0.000000 
#    z 0.000000 0.000000 2.378490 
# 
# From -- ./inp_files/51337.got.cif
#   From: 2010.05.17/outbox.cif.g08.bks.cpg/sg70_26_cif.got.tgz:51337.got - 2010.06.03 15:57:51.
