data_PCOD9514768
_publ_section_title
;
Structure prediction by ZEFSAII (Michael W. Deem and Ramdas Pophale) SiO2 
 PCOD9514768
Probable space group: F D D D
;
_chemical_formula_sum "Si O2"
_cell_formula_units_Z 144
_cell_length_a 22.725318
_cell_length_b 12.415821
_cell_length_c 27.967635
_cell_angle_alpha 90.000000
_cell_angle_beta 90.000000
_cell_angle_gamma 90.000000
_cell_volume 7891.165555
_symmetry_space_group_name_H-M "F D D D"
_symmetry_group_IT_number 70
_space_group.IT_coordinate_system_code '2'
_symmetry_cell_setting 'orthorhombic'
loop_
_space_group_symop_operation_xyz
x,y,z
1/4-x,1/4-y,z
x,1/4-y,1/4-z
1/4-x,y,1/4-z
-x,-y,-z
3/4+x,3/4+y,-z
-x,3/4+y,3/4+z
3/4+x,-y,3/4+z
x,1/2+y,1/2+z
1/4-x,3/4-y,1/2+z
x,3/4-y,3/4-z
1/4-x,1/2+y,3/4-z
-x,1/2-y,1/2-z
3/4+x,1/4+y,1/2-z
-x,1/4+y,1/4+z
3/4+x,1/2-y,1/4+z
1/2+x,y,1/2+z
3/4-x,1/4-y,1/2+z
1/2+x,1/4-y,3/4-z
3/4-x,y,3/4-z
1/2-x,-y,1/2-z
1/4+x,3/4+y,1/2-z
1/2-x,3/4+y,1/4+z
1/4+x,-y,1/4+z
1/2+x,1/2+y,z
3/4-x,3/4-y,z
1/2+x,3/4-y,1/4-z
3/4-x,1/2+y,1/4-z
1/2-x,1/2-y,-z
1/4+x,1/4+y,-z
1/2-x,1/4+y,3/4+z
1/4+x,1/2-y,3/4+z
loop_
_atom_site_type_symbol
_atom_site_label
_atom_site_fract_x
_atom_site_fract_y
_atom_site_fract_z
Si Si1 0.491967 0.421155 0.135704
Si Si2 0.299945 0.987680 0.291105
Si Si3 0.315152 0.239082 0.780794
Si Si4 0.419249 0.775731 0.570846
Si Si5 0.088963 0.875000 0.875000
O O1 0.529826 0.454886 0.089432
O O2 0.531112 0.411487 0.183033
O O3 0.454981 0.319234 0.116619
O O4 0.448816 0.523627 0.142851
O O5 0.306774 0.860292 0.300822
O O6 0.250000 0.000000 0.250000
O O7 0.364715 0.030606 0.277865
O O8 0.293575 0.247267 0.726044
O O9 0.375000 0.875000 0.557761
O O10 0.379847 0.674783 0.584431
#
# Coordination Sequence:
#
# PCOD9514768 Si02
#       5
#    32  32  32  32  16
#     4  11  20  32  52  79 109 138 174 219 267 319
#     4  11  18  32  49  76 113 137 164 209 273 331
#     4  11  20  30  52  79 108 138 169 216 272 319
#     4  10  20  35  51  76 103 142 179 214 265 322
#     4  10  20  34  55  72 107 144 178 220 260 310
#
# _framework density 18.248253999999999
#
# number of rings (size 3 to 8) (size 9 to 14) (size 15 to 20)
#    0.000    1.333    6.667    2.000    0.000    1.778 
#    0.000    1.111    0.000    0.000    0.000    3.111 
#    0.000    0.000    0.000    0.000    0.000    0.000 
#
# Total GULP energy -200724.142201 kJ/mol
# GULP energy per Si atom -5575.670617 kJ/mol
# Density = 1.820672 g / cm^3
# Si number density = 18.248254 Si / 1000 Ang^3
#
#
#
# Elastic Constant Matrix: (Units=GPa)
#
#
# Indices 1 2 3 4 5 6 
#
# 1 82.8995 20.3044 45.4322 0.0000 0.0000 0.0000
# 2 20.3044 27.1629 20.9583 0.0000 0.0000 0.0000
# 3 45.4322 20.9583 112.0943 0.0000 0.0000 0.0000
# 4 0.0000 0.0000 0.0000 15.2299 0.0000 0.0000
# 5 0.0000 0.0000 0.0000 0.0000 33.8709 0.0000
# 6 0.0000 0.0000 0.0000 0.0000 0.0000 12.0527
#
#
#
# Elastic Compliance Matrix: (Units=1/GPa)
#
#
# Indices 1 2 3 4 5 6 
#
# 1 0.017098 -0.008687 -0.005306 0.000000 0.000000 0.000000
# 2 -0.008687 0.047435 -0.005348 0.000000 0.000000 0.000000
# 3 -0.005306 -0.005348 0.012071 0.000000 0.000000 0.000000
# 4 0.000000 0.000000 0.000000 0.065661 0.000000 0.000000
# 5 0.000000 0.000000 0.000000 0.000000 0.029524 0.000000
# 6 0.000000 0.000000 0.000000 0.000000 0.000000 0.082969
#
#
# Mechanical properties :
#
#
# Convention : Reuss Voigt Hill
#
# Bulk Modulus (GPa) = 26.36936 43.94961 35.15949
# Shear Modulus (GPa) = 16.33554 21.26147 18.79851
#
# Velocity S-wave (km/s) = 2.99521 3.41709 3.21308
# Velocity P-wave (km/s) = 5.14232 6.30121 5.75103
#
# Compressibility (1/GPa) = 0.03792280
#
# Stress axis : x y z
#
# Youngs Moduli (GPa) = 58.48523 21.08148 82.84038
#
# Poissons Ratio (x) = 0.18314 0.43953
# Poissons Ratio (y) = 0.50808 0.44302
# Poissons Ratio (z) = 0.31031 0.11274
#
# Static dielectric constant tensor:
#      x y z
#    x 1.693780 0.000000 0.000000 
#    y 0.000000 1.624820 0.000000 
#    z 0.000000 0.000000 1.677210 
# 
# From -- ./inp_files/19183.got.cif
#   From: 2010.05.17/outbox.cif.g08.bks.cpg/sg70_10_cif.got.tgz:19183.got - 2010.06.03 15:57:51.
