data_PCOD9514966
_publ_section_title
;
Structure prediction by ZEFSAII (Michael W. Deem and Ramdas Pophale) SiO2 
 PCOD9514966
Probable space group: F D D D
;
_chemical_formula_sum "Si O2"
_cell_formula_units_Z 208
_cell_length_a 19.301733
_cell_length_b 30.055134
_cell_length_c 19.416000
_cell_angle_alpha 90.000000
_cell_angle_beta 90.000000
_cell_angle_gamma 90.000000
_cell_volume 11263.535591
_symmetry_space_group_name_H-M "F D D D"
_symmetry_group_IT_number 70
_space_group.IT_coordinate_system_code '2'
_symmetry_cell_setting 'orthorhombic'
loop_
_space_group_symop_operation_xyz
x,y,z
1/4-x,1/4-y,z
x,1/4-y,1/4-z
1/4-x,y,1/4-z
-x,-y,-z
3/4+x,3/4+y,-z
-x,3/4+y,3/4+z
3/4+x,-y,3/4+z
x,1/2+y,1/2+z
1/4-x,3/4-y,1/2+z
x,3/4-y,3/4-z
1/4-x,1/2+y,3/4-z
-x,1/2-y,1/2-z
3/4+x,1/4+y,1/2-z
-x,1/4+y,1/4+z
3/4+x,1/2-y,1/4+z
1/2+x,y,1/2+z
3/4-x,1/4-y,1/2+z
1/2+x,1/4-y,3/4-z
3/4-x,y,3/4-z
1/2-x,-y,1/2-z
1/4+x,3/4+y,1/2-z
1/2-x,3/4+y,1/4+z
1/4+x,-y,1/4+z
1/2+x,1/2+y,z
3/4-x,3/4-y,z
1/2+x,3/4-y,1/4-z
3/4-x,1/2+y,1/4-z
1/2-x,1/2-y,-z
1/4+x,1/4+y,-z
1/2-x,1/4+y,3/4+z
1/4+x,1/2-y,3/4+z
loop_
_atom_site_type_symbol
_atom_site_label
_atom_site_fract_x
_atom_site_fract_y
_atom_site_fract_z
Si Si1 0.612566 0.223592 0.412284
Si Si2 0.156493 0.300799 0.234503
Si Si3 0.117648 0.892260 0.797611
Si Si4 0.764484 0.054498 0.848475
Si Si5 0.993302 0.656790 0.432888
Si Si6 0.421253 0.010535 0.017748
Si Si7 0.125000 0.782479 0.125000
O O1 0.586289 0.267064 0.452622
O O2 0.693896 0.217891 0.425504
O O3 0.565829 0.182247 0.436497
O O4 0.603050 0.230323 0.330754
O O5 0.156580 0.352001 0.258735
O O6 0.212650 0.291738 0.175523
O O7 0.080676 0.294718 0.199568
O O8 0.105706 0.875000 0.875000
O O9 0.046416 0.901741 0.755980
O O10 0.159211 0.938384 0.791865
O O11 0.751600 0.107419 0.846663
O O12 0.941746 0.685855 0.384850
O O13 0.380880 0.005458 0.945556
O O14 0.500000 0.000000 0.000000
#
# Coordination Sequence:
#
# PCOD9514966 Si02
#       7
#    32  32  32  32  32  32  16
#     4  12  23  35  61  91 120 150 199 254 308 349
#     4  10  22  39  61  85 112 160 199 244 292 363
#     4  10  20  39  62  86 116 157 205 245 295 364
#     4  10  22  40  59  83 120 156 197 241 298 361
#     4  10  21  38  61  85 118 158 197 239 298 363
#     4  11  22  36  59  89 118 153 203 254 299 358
#     4  10  20  38  60  80 115 158 202 239 290 368
#
# _framework density 18.466671000000002
#
# number of rings (size 3 to 8) (size 9 to 14) (size 15 to 20)
#    0.000    1.538    3.077    3.692    4.308    0.000 
#    0.000    0.000    0.000    3.692    0.000    0.000 
#    0.000    0.000    0.000    0.000    0.000    0.000 
#
# Total GULP energy -290232.110089 kJ/mol
# GULP energy per Si atom -5581.386732 kJ/mol
# Density = 1.842464 g / cm^3
# Si number density = 18.466671 Si / 1000 Ang^3
#
#
#
# Elastic Constant Matrix: (Units=GPa)
#
#
# Indices 1 2 3 4 5 6 
#
# 1 63.3170 24.2282 6.8036 0.0000 0.0000 0.0000
# 2 24.2282 49.1336 28.1512 0.0000 0.0000 0.0000
# 3 6.8036 28.1512 101.5727 0.0000 0.0000 0.0000
# 4 0.0000 0.0000 0.0000 23.9802 0.0000 0.0000
# 5 0.0000 0.0000 0.0000 0.0000 11.5162 0.0000
# 6 0.0000 0.0000 0.0000 0.0000 0.0000 30.2823
#
#
#
# Elastic Compliance Matrix: (Units=1/GPa)
#
#
# Indices 1 2 3 4 5 6 
#
# 1 0.019691 -0.010645 0.001631 0.000000 0.000000 0.000000
# 2 -0.010645 0.029949 -0.007587 0.000000 0.000000 0.000000
# 3 0.001631 -0.007587 0.011839 0.000000 0.000000 0.000000
# 4 0.000000 0.000000 0.000000 0.041701 0.000000 0.000000
# 5 0.000000 0.000000 0.000000 0.000000 0.086834 0.000000
# 6 0.000000 0.000000 0.000000 0.000000 0.000000 0.033023
#
#
# Mechanical properties :
#
#
# Convention : Reuss Voigt Hill
#
# Bulk Modulus (GPa) = 35.36391 36.93212 36.14802
# Shear Modulus (GPa) = 18.82073 23.47842 21.14957
#
# Velocity S-wave (km/s) = 3.19591 3.56953 3.38788
# Velocity P-wave (km/s) = 5.72802 6.08535 5.90938
#
# Compressibility (1/GPa) = 0.02827742
#
# Stress axis : x y z
#
# Youngs Moduli (GPa) = 50.78352 33.39031 84.46816
#
# Poissons Ratio (x) = 0.35543 -0.13779
# Poissons Ratio (y) = 0.54057 0.64089
# Poissons Ratio (z) = -0.08284 0.25335
#
# Static dielectric constant tensor:
#      x y z
#    x 1.633490 0.000000 0.000000 
#    y 0.000000 1.617490 0.000000 
#    z 0.000000 0.000000 1.653640 
# 
# From -- ./inp_files/36704.got.cif
#   From: 2010.05.17/outbox.cif.g08.bks.cpg/sg70_19_cif.got.tgz:36704.got - 2010.06.03 15:57:51.
