data_PCOD9514781
_publ_section_title
;
Structure prediction by ZEFSAII (Michael W. Deem and Ramdas Pophale) SiO2 
 PCOD9514781
Probable space group: F D D D
;
_chemical_formula_sum "Si O2"
_cell_formula_units_Z 160
_cell_length_a 26.718124
_cell_length_b 28.010918
_cell_length_c 9.760071
_cell_angle_alpha 90.000000
_cell_angle_beta 90.000000
_cell_angle_gamma 90.000000
_cell_volume 7304.429138
_symmetry_space_group_name_H-M "F D D D"
_symmetry_group_IT_number 70
_space_group.IT_coordinate_system_code '2'
_symmetry_cell_setting 'orthorhombic'
loop_
_space_group_symop_operation_xyz
x,y,z
1/4-x,1/4-y,z
x,1/4-y,1/4-z
1/4-x,y,1/4-z
-x,-y,-z
3/4+x,3/4+y,-z
-x,3/4+y,3/4+z
3/4+x,-y,3/4+z
x,1/2+y,1/2+z
1/4-x,3/4-y,1/2+z
x,3/4-y,3/4-z
1/4-x,1/2+y,3/4-z
-x,1/2-y,1/2-z
3/4+x,1/4+y,1/2-z
-x,1/4+y,1/4+z
3/4+x,1/2-y,1/4+z
1/2+x,y,1/2+z
3/4-x,1/4-y,1/2+z
1/2+x,1/4-y,3/4-z
3/4-x,y,3/4-z
1/2-x,-y,1/2-z
1/4+x,3/4+y,1/2-z
1/2-x,3/4+y,1/4+z
1/4+x,-y,1/4+z
1/2+x,1/2+y,z
3/4-x,3/4-y,z
1/2+x,3/4-y,1/4-z
3/4-x,1/2+y,1/4-z
1/2-x,1/2-y,-z
1/4+x,1/4+y,-z
1/2-x,1/4+y,3/4+z
1/4+x,1/2-y,3/4+z
loop_
_atom_site_type_symbol
_atom_site_label
_atom_site_fract_x
_atom_site_fract_y
_atom_site_fract_z
Si Si1 0.728130 0.683413 0.949828
Si Si2 0.323127 0.177139 0.441273
Si Si3 0.625038 0.025346 0.471001
Si Si4 0.727497 0.569405 0.974467
Si Si5 0.569662 0.815346 0.005420
O O1 0.722288 0.626002 0.942963
O O2 0.775159 0.700209 0.858164
O O3 0.676458 0.708558 0.904978
O O4 0.733977 0.690787 0.113324
O O5 0.375000 0.195696 0.375000
O O6 0.278839 0.194575 0.345700
O O7 0.304977 0.186634 0.596000
O O8 0.329412 0.119441 0.449201
O O9 0.625000 0.047264 0.625000
O O10 0.677925 0.044111 0.415639
O O11 0.631763 0.968810 0.492110
#
# Coordination Sequence:
#
# PCOD9514781 Si02
#       5
#    32  32  32  32  32
#     4   9  19  37  59  83 113 145 185 232 276 329
#     4  10  22  39  57  79 114 151 185 229 282 338
#     4  10  20  34  58  86 113 144 186 234 277 326
#     4   9  19  36  59  84 110 147 187 227 279 334
#     4  10  22  37  56  83 113 148 190 229 278 336
#
# _framework density 21.904517999999999
#
# number of rings (size 3 to 8) (size 9 to 14) (size 15 to 20)
#    0.000    2.400    0.000    1.200    0.000   16.000 
#    0.000    1.000    0.000    4.800    0.000    0.000 
#    0.000    0.000    0.000    0.000    0.000    0.000 
#
# Total GULP energy -222895.508082 kJ/mol
# GULP energy per Si atom -5572.387702 kJ/mol
# Density = 2.185466 g / cm^3
# Si number density = 21.904518 Si / 1000 Ang^3
#
#
#
# Elastic Constant Matrix: (Units=GPa)
#
#
# Indices 1 2 3 4 5 6 
#
# 1 163.9421 12.7685 63.6297 -0.0005 0.0005 0.0002
# 2 12.7685 60.3362 -2.7383 -0.0008 0.0007 0.0004
# 3 63.6297 -2.7383 67.1705 -0.0028 0.0019 0.0010
# 4 -0.0005 -0.0008 -0.0028 -1.8830 0.0012 0.0004
# 5 0.0005 0.0007 0.0019 0.0012 29.6111 -0.0004
# 6 0.0002 0.0004 0.0010 0.0004 -0.0004 25.6102
#
#
#
# Elastic Compliance Matrix: (Units=1/GPa)
#
#
# Indices 1 2 3 4 5 6 
#
# 1 0.010025 -0.002557 -0.009601 0.000012 0.000001 0.000000
# 2 -0.002557 0.017257 0.003126 -0.000011 -0.000001 0.000000
# 3 -0.009601 0.003126 0.024110 -0.000034 -0.000001 -0.000001
# 4 0.000012 -0.000011 -0.000034 -0.531064 0.000021 0.000007
# 5 0.000001 -0.000001 -0.000001 0.000021 0.033771 0.000001
# 6 0.000000 0.000000 -0.000001 0.000007 0.000001 0.039047
#
#
# Mechanical properties :
#
#
# Convention : Reuss Voigt Hill
#
# Bulk Modulus (GPa) = 30.00543 48.75206 39.37875
# Shear Modulus (GPa) = -13.23873 25.18692 5.97409
#
# Velocity S-wave (km/s) = -2.46109 3.39462 1.65326
# Velocity P-wave (km/s) = 2.37741 6.13755 4.65412
#
# Compressibility (1/GPa) = 0.03332730
#
# Stress axis : x y z
#
# Youngs Moduli (GPa) = 99.74785 57.94798 41.47678
#
# Poissons Ratio (x) = 0.14819 0.39822
# Poissons Ratio (y) = 0.25509 -0.12966
# Poissons Ratio (z) = 0.95769 -0.18115
#
# Static dielectric constant tensor:
#      x y z
#    x 1.816690 0.000000 0.000000 
#    y 0.000000 1.861140 0.000000 
#    z 0.000000 0.000000 1.892170 
# 
# From -- ./inp_files/19490.got.cif
#   From: 2010.05.17/outbox.cif.g08.bks.cpg/sg70_10_cif.got.tgz:19490.got - 2010.06.03 15:57:51.
