data_PCOD9514421
_publ_section_title
;
Structure prediction by ZEFSAII (Michael W. Deem and Ramdas Pophale) SiO2 
 PCOD9514421
Probable space group: F D D D
;
_chemical_formula_sum "Si O2"
_cell_formula_units_Z 144
_cell_length_a 15.745764
_cell_length_b 29.894123
_cell_length_c 12.725919
_cell_angle_alpha 90.000000
_cell_angle_beta 90.000000
_cell_angle_gamma 90.000000
_cell_volume 5990.163957
_symmetry_space_group_name_H-M "F D D D"
_symmetry_group_IT_number 70
_space_group.IT_coordinate_system_code '2'
_symmetry_cell_setting 'orthorhombic'
loop_
_space_group_symop_operation_xyz
x,y,z
1/4-x,1/4-y,z
x,1/4-y,1/4-z
1/4-x,y,1/4-z
-x,-y,-z
3/4+x,3/4+y,-z
-x,3/4+y,3/4+z
3/4+x,-y,3/4+z
x,1/2+y,1/2+z
1/4-x,3/4-y,1/2+z
x,3/4-y,3/4-z
1/4-x,1/2+y,3/4-z
-x,1/2-y,1/2-z
3/4+x,1/4+y,1/2-z
-x,1/4+y,1/4+z
3/4+x,1/2-y,1/4+z
1/2+x,y,1/2+z
3/4-x,1/4-y,1/2+z
1/2+x,1/4-y,3/4-z
3/4-x,y,3/4-z
1/2-x,-y,1/2-z
1/4+x,3/4+y,1/2-z
1/2-x,3/4+y,1/4+z
1/4+x,-y,1/4+z
1/2+x,1/2+y,z
3/4-x,3/4-y,z
1/2+x,3/4-y,1/4-z
3/4-x,1/2+y,1/4-z
1/2-x,1/2-y,-z
1/4+x,1/4+y,-z
1/2-x,1/4+y,3/4+z
1/4+x,1/2-y,3/4+z
loop_
_atom_site_type_symbol
_atom_site_label
_atom_site_fract_x
_atom_site_fract_y
_atom_site_fract_z
Si Si1 0.586866 0.577340 0.452073
Si Si2 0.026872 0.307010 0.046105
Si Si3 0.297941 0.454728 0.993001
Si Si4 0.742966 0.053195 0.727337
Si Si5 0.018573 0.875000 0.375000
O O1 0.625000 0.625000 0.416591
O O2 0.674016 0.550276 0.468151
O O3 0.526505 0.556819 0.362833
O O4 0.537585 0.589962 0.557449
O O5 0.036594 0.322033 0.167674
O O6 0.061165 0.257842 0.022476
O O7 0.059153 0.343746 0.963698
O O8 0.238701 0.438878 0.896270
O O9 0.393074 0.434997 0.983501
O O10 0.750000 0.000000 0.750000
#
# Coordination Sequence:
#
# PCOD9514421 Si02
#       5
#    32  32  32  32  16
#     4   9  17  30  46  68 100 126 155 197 244 281
#     4   9  16  28  46  67  91 124 156 192 234 285
#     4   9  16  27  47  74  87 118 162 199 234 287
#     4   8  15  28  45  71  91 115 154 198 243 280
#     4  10  19  32  44  64 100 132 154 195 242 281
#
# _framework density 24.039408000000002
#
# number of rings (size 3 to 8) (size 9 to 14) (size 15 to 20)
#    0.000    3.111    0.000    3.000    0.000    0.889 
#    0.000   18.889    0.000    0.000  156.000    0.000 
#    0.000    0.000    0.000    0.000    0.000    0.000 
#
# Total GULP energy -200539.792356 kJ/mol
# GULP energy per Si atom -5570.549788 kJ/mol
# Density = 2.398469 g / cm^3
# Si number density = 24.039408 Si / 1000 Ang^3
#
#
#
# Elastic Constant Matrix: (Units=GPa)
#
#
# Indices 1 2 3 4 5 6 
#
# 1 54.4831 13.4462 47.8344 0.0000 0.0000 0.0000
# 2 13.4462 37.5811 53.4960 0.0000 0.0000 0.0000
# 3 47.8344 53.4960 249.3183 0.0000 0.0000 0.0000
# 4 0.0000 0.0000 0.0000 48.8977 0.0000 0.0000
# 5 0.0000 0.0000 0.0000 0.0000 38.6357 0.0000
# 6 0.0000 0.0000 0.0000 0.0000 0.0000 12.0822
#
#
#
# Elastic Compliance Matrix: (Units=1/GPa)
#
#
# Indices 1 2 3 4 5 6 
#
# 1 0.022263 -0.002714 -0.003689 0.000000 0.000000 0.000000
# 2 -0.002714 0.038641 -0.007770 0.000000 0.000000 0.000000
# 3 -0.003689 -0.007770 0.006386 0.000000 0.000000 0.000000
# 4 0.000000 0.000000 0.000000 0.020451 0.000000 0.000000
# 5 0.000000 0.000000 0.000000 0.000000 0.025883 0.000000
# 6 0.000000 0.000000 0.000000 0.000000 0.000000 0.082767
#
#
# Mechanical properties :
#
#
# Convention : Reuss Voigt Hill
#
# Bulk Modulus (GPa) = 25.67865 63.43730 44.55797
# Shear Modulus (GPa) = 21.03321 35.03017 28.03169
#
# Velocity S-wave (km/s) = 2.96116 3.82147 3.41849
# Velocity P-wave (km/s) = 4.73248 6.77626 5.84440
#
# Compressibility (1/GPa) = 0.03894286
#
# Stress axis : x y z
#
# Youngs Moduli (GPa) = 44.91752 25.87899 156.59229
#
# Poissons Ratio (x) = 0.07024 0.57767
# Poissons Ratio (y) = 0.12192 1.21680
# Poissons Ratio (z) = 0.16570 0.20109
#
# Static dielectric constant tensor:
#      x y z
#    x 2.049840 0.000000 0.000000 
#    y 0.000000 1.931900 0.000000 
#    z 0.000000 0.000000 2.067040 
# 
# From -- ./inp_files/20758.got.cif
#   From: 2010.05.17/outbox.cif.g08.bks.cpg/sg70_11_cif.got.tgz:20758.got - 2010.06.03 15:57:51.
