data_PCOD9514198
_publ_section_title
;
Structure prediction by ZEFSAII (Michael W. Deem and Ramdas Pophale) SiO2 
 PCOD9514198
Probable space group: F D D D
;
_chemical_formula_sum "Si O2"
_cell_formula_units_Z 192
_cell_length_a 25.976302
_cell_length_b 24.600627
_cell_length_c 16.653143
_cell_angle_alpha 90.000000
_cell_angle_beta 90.000000
_cell_angle_gamma 90.000000
_cell_volume 10641.913199
_symmetry_space_group_name_H-M "F D D D"
_symmetry_group_IT_number 70
_space_group.IT_coordinate_system_code '2'
_symmetry_cell_setting 'orthorhombic'
loop_
_space_group_symop_operation_xyz
x,y,z
1/4-x,1/4-y,z
x,1/4-y,1/4-z
1/4-x,y,1/4-z
-x,-y,-z
3/4+x,3/4+y,-z
-x,3/4+y,3/4+z
3/4+x,-y,3/4+z
x,1/2+y,1/2+z
1/4-x,3/4-y,1/2+z
x,3/4-y,3/4-z
1/4-x,1/2+y,3/4-z
-x,1/2-y,1/2-z
3/4+x,1/4+y,1/2-z
-x,1/4+y,1/4+z
3/4+x,1/2-y,1/4+z
1/2+x,y,1/2+z
3/4-x,1/4-y,1/2+z
1/2+x,1/4-y,3/4-z
3/4-x,y,3/4-z
1/2-x,-y,1/2-z
1/4+x,3/4+y,1/2-z
1/2-x,3/4+y,1/4+z
1/4+x,-y,1/4+z
1/2+x,1/2+y,z
3/4-x,3/4-y,z
1/2+x,3/4-y,1/4-z
3/4-x,1/2+y,1/4-z
1/2-x,1/2-y,-z
1/4+x,1/4+y,-z
1/2-x,1/4+y,3/4+z
1/4+x,1/2-y,3/4+z
loop_
_atom_site_type_symbol
_atom_site_label
_atom_site_fract_x
_atom_site_fract_y
_atom_site_fract_z
Si Si1 0.375000 0.583195 0.375000
Si Si2 0.278064 0.999699 0.559132
Si Si3 0.980856 0.805616 0.291727
Si Si4 0.690403 0.853238 0.235449
Si Si5 0.320972 0.218965 0.226981
Si Si6 0.641621 0.375000 0.375000
Si Si7 0.890537 0.313599 0.675807
O O1 0.328838 0.622317 0.348154
O O2 0.360421 0.547025 0.451306
O O3 0.234503 0.964092 0.517625
O O4 0.321436 0.967548 0.611107
O O5 0.245628 0.040942 0.617380
O O6 0.298651 0.039699 0.490173
O O7 0.923755 0.815352 0.258715
O O8 0.000000 0.750000 0.250000
O O9 0.014060 0.856874 0.263261
O O10 0.645332 0.860055 0.301233
O O11 0.326592 0.176024 0.155600
O O12 0.340470 0.276711 0.193256
O O13 0.875000 0.375000 0.652602
#
# Coordination Sequence:
#
# PCOD9514198 Si02
#       7
#    16  32  32  32  32  16  32
#     4  10  20  32  55  80 111 140 196 232 276 346
#     4  11  20  35  57  79 114 152 196 238 296 348
#     4  10  18  31  53  83 115 144 182 229 296 362
#     4  11  18  34  55  79 110 154 185 234 286 344
#     4  11  21  35  57  83 115 150 189 243 284 352
#     4  10  18  36  56  78 108 150 194 230 284 340
#     4  11  22  36  55  87 122 154 191 238 300 358
#
# _framework density 18.041868999999998
#
# number of rings (size 3 to 8) (size 9 to 14) (size 15 to 20)
#    0.000    1.333    3.333    7.000    0.000    0.000 
#    0.000    2.917    3.667    3.000    0.000    0.000 
#    0.000    0.000    0.000    0.000    0.000    0.000 
#
# Total GULP energy -267447.226041 kJ/mol
# GULP energy per Si atom -5571.817209 kJ/mol
# Density = 1.800080 g / cm^3
# Si number density = 18.041869 Si / 1000 Ang^3
#
#
#
# Elastic Constant Matrix: (Units=GPa)
#
#
# Indices 1 2 3 4 5 6 
#
# 1 40.2628 16.4745 8.8065 0.0000 0.0000 0.0000
# 2 16.4745 100.0751 28.1464 0.0000 0.0000 0.0000
# 3 8.8065 28.1464 34.4279 0.0000 0.0000 0.0000
# 4 0.0000 0.0000 0.0000 27.1533 0.0000 0.0000
# 5 0.0000 0.0000 0.0000 0.0000 30.1384 0.0000
# 6 0.0000 0.0000 0.0000 0.0000 0.0000 26.1504
#
#
#
# Elastic Compliance Matrix: (Units=1/GPa)
#
#
# Indices 1 2 3 4 5 6 
#
# 1 0.027105 -0.003262 -0.004266 0.000000 0.000000 0.000000
# 2 -0.003262 0.013369 -0.010095 0.000000 0.000000 0.000000
# 3 -0.004266 -0.010095 0.038391 0.000000 0.000000 0.000000
# 4 0.000000 0.000000 0.000000 0.036828 0.000000 0.000000
# 5 0.000000 0.000000 0.000000 0.000000 0.033180 0.000000
# 6 0.000000 0.000000 0.000000 0.000000 0.000000 0.038240
#
#
# Mechanical properties :
#
#
# Convention : Reuss Voigt Hill
#
# Bulk Modulus (GPa) = 22.92679 31.29119 27.10899
# Shear Modulus (GPa) = 21.10601 24.77764 22.94183
#
# Velocity S-wave (km/s) = 3.42400 3.70988 3.56980
# Velocity P-wave (km/s) = 5.32605 5.97765 5.66123
#
# Compressibility (1/GPa) = 0.04361709
#
# Stress axis : x y z
#
# Youngs Moduli (GPa) = 36.89388 74.80099 26.04788
#
# Poissons Ratio (x) = 0.24401 0.11113
# Poissons Ratio (y) = 0.12035 0.26296
# Poissons Ratio (z) = 0.15740 0.75513
#
# Static dielectric constant tensor:
#      x y z
#    x 1.657650 0.000000 0.000000 
#    y 0.000000 1.712650 0.000000 
#    z 0.000000 0.000000 1.625120 
# 
# From -- ./inp_files/47061.got.cif
#   From: 2010.05.17/outbox.cif.g08.bks.cpg/sg70_24_cif.got.tgz:47061.got - 2010.06.03 15:57:51.
