data_PCOD9514699
_publ_section_title
;
Structure prediction by ZEFSAII (Michael W. Deem and Ramdas Pophale) SiO2 
 PCOD9514699
Probable space group: F D D D
;
_chemical_formula_sum "Si O2"
_cell_formula_units_Z 136
_cell_length_a 10.725590
_cell_length_b 18.658807
_cell_length_c 29.073005
_cell_angle_alpha 90.000000
_cell_angle_beta 90.000000
_cell_angle_gamma 90.000000
_cell_volume 5818.284950
_symmetry_space_group_name_H-M "F D D D"
_symmetry_group_IT_number 70
_space_group.IT_coordinate_system_code '2'
_symmetry_cell_setting 'orthorhombic'
loop_
_space_group_symop_operation_xyz
x,y,z
1/4-x,1/4-y,z
x,1/4-y,1/4-z
1/4-x,y,1/4-z
-x,-y,-z
3/4+x,3/4+y,-z
-x,3/4+y,3/4+z
3/4+x,-y,3/4+z
x,1/2+y,1/2+z
1/4-x,3/4-y,1/2+z
x,3/4-y,3/4-z
1/4-x,1/2+y,3/4-z
-x,1/2-y,1/2-z
3/4+x,1/4+y,1/2-z
-x,1/4+y,1/4+z
3/4+x,1/2-y,1/4+z
1/2+x,y,1/2+z
3/4-x,1/4-y,1/2+z
1/2+x,1/4-y,3/4-z
3/4-x,y,3/4-z
1/2-x,-y,1/2-z
1/4+x,3/4+y,1/2-z
1/2-x,3/4+y,1/4+z
1/4+x,-y,1/4+z
1/2+x,1/2+y,z
3/4-x,3/4-y,z
1/2+x,3/4-y,1/4-z
3/4-x,1/2+y,1/4-z
1/2-x,1/2-y,-z
1/4+x,1/4+y,-z
1/2-x,1/4+y,3/4+z
1/4+x,1/2-y,3/4+z
loop_
_atom_site_type_symbol
_atom_site_label
_atom_site_fract_x
_atom_site_fract_y
_atom_site_fract_z
Si Si1 0.951413 0.771902 0.300679
Si Si2 0.982251 0.119370 0.841557
Si Si3 0.705080 0.787380 0.255667
Si Si4 0.548024 0.904338 0.295697
Si Si5 0.875000 0.875000 0.875000
O O1 0.943489 0.700396 0.329916
O O2 0.815550 0.803154 0.291958
O O3 0.000000 0.750000 0.250000
O O4 0.068684 0.818787 0.314501
O O5 0.875000 0.089214 0.875000
O O6 0.983273 0.077558 0.792735
O O7 0.125000 0.125000 0.859404
O O8 0.579983 0.824728 0.275769
O O9 0.731078 0.703810 0.243266
O O10 0.461742 0.915306 0.339520
#
# Coordination Sequence:
#
# PCOD9514699 Si02
#       5
#    32  32  32  32   8
#     4  10  19  40  75  96 128 183 244 295 351 446
#     4  12  23  40  68 111 145 181 244 316 380 441
#     4  11  21  45  77 102 129 197 245 305 353 473
#     4  11  24  44  73  98 146 185 245 298 379 434
#     4  12  32  48  58 104 156 188 216 328 372 456
#
# _framework density 23.374586999999998
#
# number of rings (size 3 to 8) (size 9 to 14) (size 15 to 20)
#    0.000    0.941    9.412    0.706    1.647    2.824 
#    2.118    1.176    0.000    0.000    0.000    0.000 
#    0.000    0.000    0.000    0.000    0.000    0.000 
#
# Total GULP energy -189499.256575 kJ/mol
# GULP energy per Si atom -5573.507546 kJ/mol
# Density = 2.332139 g / cm^3
# Si number density = 23.374587 Si / 1000 Ang^3
#
#
#
# Elastic Constant Matrix: (Units=GPa)
#
#
# Indices 1 2 3 4 5 6 
#
# 1 150.3126 40.9108 58.9869 0.0000 0.0000 0.0000
# 2 40.9108 86.1797 26.0057 0.0000 0.0000 0.0000
# 3 58.9869 26.0057 57.5523 0.0000 0.0000 0.0000
# 4 0.0000 0.0000 0.0000 25.4891 0.0000 0.0000
# 5 0.0000 0.0000 0.0000 0.0000 68.3163 0.0000
# 6 0.0000 0.0000 0.0000 0.0000 0.0000 18.6967
#
#
#
# Elastic Compliance Matrix: (Units=1/GPa)
#
#
# Indices 1 2 3 4 5 6 
#
# 1 0.011478 -0.002199 -0.010770 0.000000 0.000000 0.000000
# 2 -0.002199 0.013857 -0.004008 0.000000 0.000000 0.000000
# 3 -0.010770 -0.004008 0.030226 0.000000 0.000000 0.000000
# 4 0.000000 0.000000 0.000000 0.039233 0.000000 0.000000
# 5 0.000000 0.000000 0.000000 0.000000 0.014638 0.000000
# 6 0.000000 0.000000 0.000000 0.000000 0.000000 0.053485
#
#
# Mechanical properties :
#
#
# Convention : Reuss Voigt Hill
#
# Bulk Modulus (GPa) = 46.28332 60.65018 53.46675
# Shear Modulus (GPa) = 24.50116 33.70982 29.10549
#
# Velocity S-wave (km/s) = 3.24110 3.80169 3.53253
# Velocity P-wave (km/s) = 5.81807 6.72859 6.28983
#
# Compressibility (1/GPa) = 0.02160605
#
# Stress axis : x y z
#
# Youngs Moduli (GPa) = 87.12444 72.16665 33.08464
#
# Poissons Ratio (x) = 0.15866 0.35634
# Poissons Ratio (y) = 0.19155 0.13260
# Poissons Ratio (z) = 0.93837 0.28924
#
# Static dielectric constant tensor:
#      x y z
#    x 2.007360 0.000000 0.000000 
#    y 0.000000 2.011340 0.000000 
#    z 0.000000 0.000000 1.942950 
# 
# From -- ./inp_files/57272.got.cif
#   From: 2010.05.17/outbox.cif.g08.bks.cpg/sg70_29_cif.got.tgz:57272.got - 2010.06.03 15:57:51.
