data_PCOD9514660
_publ_section_title
;
Structure prediction by ZEFSAII (Michael W. Deem and Ramdas Pophale) SiO2 
 PCOD9514660
Probable space group: F D D D
;
_chemical_formula_sum "Si O2"
_cell_formula_units_Z 112
_cell_length_a 15.049095
_cell_length_b 11.645802
_cell_length_c 24.252385
_cell_angle_alpha 90.000000
_cell_angle_beta 90.000000
_cell_angle_gamma 90.000000
_cell_volume 4250.443423
_symmetry_space_group_name_H-M "F D D D"
_symmetry_group_IT_number 70
_space_group.IT_coordinate_system_code '2'
_symmetry_cell_setting 'orthorhombic'
loop_
_space_group_symop_operation_xyz
x,y,z
1/4-x,1/4-y,z
x,1/4-y,1/4-z
1/4-x,y,1/4-z
-x,-y,-z
3/4+x,3/4+y,-z
-x,3/4+y,3/4+z
3/4+x,-y,3/4+z
x,1/2+y,1/2+z
1/4-x,3/4-y,1/2+z
x,3/4-y,3/4-z
1/4-x,1/2+y,3/4-z
-x,1/2-y,1/2-z
3/4+x,1/4+y,1/2-z
-x,1/4+y,1/4+z
3/4+x,1/2-y,1/4+z
1/2+x,y,1/2+z
3/4-x,1/4-y,1/2+z
1/2+x,1/4-y,3/4-z
3/4-x,y,3/4-z
1/2-x,-y,1/2-z
1/4+x,3/4+y,1/2-z
1/2-x,3/4+y,1/4+z
1/4+x,-y,1/4+z
1/2+x,1/2+y,z
3/4-x,3/4-y,z
1/2+x,3/4-y,1/4-z
3/4-x,1/2+y,1/4-z
1/2-x,1/2-y,-z
1/4+x,1/4+y,-z
1/2-x,1/4+y,3/4+z
1/4+x,1/2-y,3/4+z
loop_
_atom_site_type_symbol
_atom_site_label
_atom_site_fract_x
_atom_site_fract_y
_atom_site_fract_z
Si Si1 0.764193 0.022872 0.322005
Si Si2 0.429031 0.518835 0.675814
Si Si3 0.980271 0.125000 0.125000
Si Si4 0.125000 0.625000 0.003240
Si Si5 0.375000 0.375000 0.779173
O O1 0.715201 0.898135 0.316990
O O2 0.751673 0.044933 0.386870
O O3 0.856409 0.985582 0.292604
O O4 0.709044 0.115430 0.287578
O O5 0.339236 0.523761 0.639334
O O6 0.399554 0.473110 0.734881
O O7 0.042370 0.125237 0.178691
#
# Coordination Sequence:
#
# PCOD9514660 Si02
#       5
#    32  32  16  16  16
#     4   9  21  36  63  92 132 166 226 265 341 399
#     4  10  22  38  60  95 125 171 213 288 333 418
#     4   9  22  40  60  93 122 164 230 269 334 422
#     4  10  19  39  63  91 128 178 212 282 330 414
#     4  11  21  40  69  85 134 171 213 288 350 398
#
# _framework density 26.350190000000001
#
# number of rings (size 3 to 8) (size 9 to 14) (size 15 to 20)
#    0.000    2.571    0.000    1.714    8.000    2.286 
#    0.000    0.000    0.000    0.000    0.000    0.000 
#    0.000    0.000    0.000    0.000    0.000    0.000 
#
# Total GULP energy -155893.459227 kJ/mol
# GULP energy per Si atom -5567.623544 kJ/mol
# Density = 2.629022 g / cm^3
# Si number density = 26.350190 Si / 1000 Ang^3
#
#
#
# Elastic Constant Matrix: (Units=GPa)
#
#
# Indices 1 2 3 4 5 6 
#
# 1 74.3814 19.1899 96.7069 0.0000 0.0000 0.0000
# 2 19.1899 65.4848 26.1953 0.0000 0.0000 0.0000
# 3 96.7069 26.1953 242.0711 0.0000 0.0000 0.0000
# 4 0.0000 0.0000 0.0000 42.8835 0.0000 0.0000
# 5 0.0000 0.0000 0.0000 0.0000 21.3545 0.0000
# 6 0.0000 0.0000 0.0000 0.0000 0.0000 149.8590
#
#
#
# Elastic Compliance Matrix: (Units=1/GPa)
#
#
# Indices 1 2 3 4 5 6 
#
# 1 0.028959 -0.004033 -0.011132 0.000000 0.000000 0.000000
# 2 -0.004033 0.016523 -0.000177 0.000000 0.000000 0.000000
# 3 -0.011132 -0.000177 0.008598 0.000000 0.000000 0.000000
# 4 0.000000 0.000000 0.000000 0.023319 0.000000 0.000000
# 5 0.000000 0.000000 0.000000 0.000000 0.046829 0.000000
# 6 0.000000 0.000000 0.000000 0.000000 0.000000 0.006673
#
#
# Mechanical properties :
#
#
# Convention : Reuss Voigt Hill
#
# Bulk Modulus (GPa) = 42.74439 74.01350 58.37895
# Shear Modulus (GPa) = 29.51894 58.80909 44.16402
#
# Velocity S-wave (km/s) = 3.35065 4.72935 4.09839
# Velocity P-wave (km/s) = 5.58803 7.61391 6.67824
#
# Compressibility (1/GPa) = 0.02339488
#
# Stress axis : x y z
#
# Youngs Moduli (GPa) = 34.53206 60.52061 116.31197
#
# Poissons Ratio (x) = 0.24407 1.29484
# Poissons Ratio (y) = 0.13926 0.02058
# Poissons Ratio (z) = 0.38443 0.01071
#
# Static dielectric constant tensor:
#      x y z
#    x 2.184390 0.000000 0.000000 
#    y 0.000000 2.127110 0.000000 
#    z 0.000000 0.000000 2.180340 
# 
# From -- ./inp_files/51928.got.cif
#   From: 2010.05.17/outbox.cif.g08.bks.cpg/sg70_26_cif.got.tgz:51928.got - 2010.06.03 15:57:51.
