data_PCOD9514136
_publ_section_title
;
Structure prediction by ZEFSAII (Michael W. Deem and Ramdas Pophale) SiO2 
 PCOD9514136
Probable space group: F D D D
;
_chemical_formula_sum "Si O2"
_cell_formula_units_Z 176
_cell_length_a 24.863434
_cell_length_b 26.090388
_cell_length_c 11.210882
_cell_angle_alpha 90.000000
_cell_angle_beta 90.000000
_cell_angle_gamma 90.000000
_cell_volume 7272.461486
_symmetry_space_group_name_H-M "F D D D"
_symmetry_group_IT_number 70
_space_group.IT_coordinate_system_code '2'
_symmetry_cell_setting 'orthorhombic'
loop_
_space_group_symop_operation_xyz
x,y,z
1/4-x,1/4-y,z
x,1/4-y,1/4-z
1/4-x,y,1/4-z
-x,-y,-z
3/4+x,3/4+y,-z
-x,3/4+y,3/4+z
3/4+x,-y,3/4+z
x,1/2+y,1/2+z
1/4-x,3/4-y,1/2+z
x,3/4-y,3/4-z
1/4-x,1/2+y,3/4-z
-x,1/2-y,1/2-z
3/4+x,1/4+y,1/2-z
-x,1/4+y,1/4+z
3/4+x,1/2-y,1/4+z
1/2+x,y,1/2+z
3/4-x,1/4-y,1/2+z
1/2+x,1/4-y,3/4-z
3/4-x,y,3/4-z
1/2-x,-y,1/2-z
1/4+x,3/4+y,1/2-z
1/2-x,3/4+y,1/4+z
1/4+x,-y,1/4+z
1/2+x,1/2+y,z
3/4-x,3/4-y,z
1/2+x,3/4-y,1/4-z
3/4-x,1/2+y,1/4-z
1/2-x,1/2-y,-z
1/4+x,1/4+y,-z
1/2-x,1/4+y,3/4+z
1/4+x,1/2-y,3/4+z
loop_
_atom_site_type_symbol
_atom_site_label
_atom_site_fract_x
_atom_site_fract_y
_atom_site_fract_z
Si Si1 0.766866 0.696470 0.065591
Si Si2 0.434587 0.083887 0.339977
Si Si3 0.831788 0.787718 0.782471
Si Si4 0.994530 0.375000 0.875000
Si Si5 0.144914 0.249456 0.814312
Si Si6 0.952147 0.270306 0.831809
O O1 0.724422 0.687748 0.172161
O O2 0.827181 0.705601 0.113322
O O3 0.750000 0.750000 0.000000
O O4 0.775890 0.659439 0.953944
O O5 0.375000 0.103413 0.375000
O O6 0.465365 0.106702 0.228159
O O7 0.426876 0.023345 0.306634
O O8 0.875000 0.808199 0.875000
O O9 0.864236 0.788798 0.656858
O O10 0.956480 0.331248 0.820482
O O11 0.096525 0.260389 0.726594
O O12 0.193662 0.233424 0.725188
O O13 0.000000 0.250000 0.750000
#
# Coordination Sequence:
#
# PCOD9514136 Si02
#       6
#    32  32  32  16  32  32
#     4  10  17  32  62  98 132 169 221 282 343 420
#     4  10  20  39  63  98 137 182 229 288 359 420
#     4  10  18  34  66 103 129 174 229 288 350 424
#     4  12  26  45  66  98 144 182 239 296 356 436
#     4  11  20  38  67  99 133 178 235 285 351 430
#     4  11  26  44  67  98 137 187 234 292 350 427
#
# _framework density 24.200883999999999
#
# number of rings (size 3 to 8) (size 9 to 14) (size 15 to 20)
#    0.000    1.455    5.455    4.364    0.000    1.455 
#    6.545    0.000    0.000    0.000    0.000    0.000 
#    0.000    0.000    0.000    0.000    0.000    0.000 
#
# Total GULP energy -244935.957136 kJ/mol
# GULP energy per Si atom -5566.726299 kJ/mol
# Density = 2.414580 g / cm^3
# Si number density = 24.200884 Si / 1000 Ang^3
#
#
#
# Elastic Constant Matrix: (Units=GPa)
#
#
# Indices 1 2 3 4 5 6 
#
# 1 138.4131 7.6936 78.0071 0.0000 0.0000 0.0000
# 2 7.6936 42.4475 17.2955 0.0000 0.0000 0.0000
# 3 78.0071 17.2955 177.2377 0.0002 -0.0002 0.0002
# 4 0.0000 0.0000 0.0002 20.5181 -0.0001 0.0001
# 5 0.0000 0.0000 -0.0002 -0.0001 68.5351 -0.0001
# 6 0.0000 0.0000 0.0002 0.0001 -0.0001 -13.0277
#
#
#
# Elastic Compliance Matrix: (Units=1/GPa)
#
#
# Indices 1 2 3 4 5 6 
#
# 1 0.009608 -0.000019 -0.004227 0.000000 0.000000 0.000000
# 2 -0.000019 0.024534 -0.002386 0.000000 0.000000 0.000000
# 3 -0.004227 -0.002386 0.007735 0.000000 0.000000 0.000000
# 4 0.000000 0.000000 0.000000 0.048737 0.000000 0.000000
# 5 0.000000 0.000000 0.000000 0.000000 0.014591 0.000000
# 6 0.000000 0.000000 0.000000 0.000000 0.000000 -0.076759
#
#
# Mechanical properties :
#
#
# Convention : Reuss Voigt Hill
#
# Bulk Modulus (GPa) = 34.94810 62.67677 48.81243
# Shear Modulus (GPa) = 97.56521 32.21191 64.88856
#
# Velocity S-wave (km/s) = 6.35628 3.65228 5.18369
# Velocity P-wave (km/s) = 8.26691 6.61364 7.48606
#
# Compressibility (1/GPa) = 0.02861386
#
# Stress axis : x y z
#
# Youngs Moduli (GPa) = 104.07995 40.75971 129.27743
#
# Poissons Ratio (x) = 0.00078 0.54644
# Poissons Ratio (y) = 0.00200 0.30841
# Poissons Ratio (z) = 0.43993 0.09724
#
# Static dielectric constant tensor:
#      x y z
#    x 1.991680 0.000000 0.000000 
#    y 0.000000 1.961980 0.000000 
#    z 0.000000 0.000000 2.118590 
# 
# From -- ./inp_files/21184.got.cif
#   From: 2010.05.17/outbox.cif.g08.bks.cpg/sg70_11_cif.got.tgz:21184.got - 2010.06.03 15:57:51.
