data_PCOD9514211
_publ_section_title
;
Structure prediction by ZEFSAII (Michael W. Deem and Ramdas Pophale) SiO2 
 PCOD9514211
Probable space group: F D D D
;
_chemical_formula_sum "Si O2"
_cell_formula_units_Z 192
_cell_length_a 19.642249
_cell_length_b 28.610654
_cell_length_c 15.718669
_cell_angle_alpha 90.000000
_cell_angle_beta 90.000000
_cell_angle_gamma 90.000000
_cell_volume 8833.539721
_symmetry_space_group_name_H-M "F D D D"
_symmetry_group_IT_number 70
_space_group.IT_coordinate_system_code '2'
_symmetry_cell_setting 'orthorhombic'
loop_
_space_group_symop_operation_xyz
x,y,z
1/4-x,1/4-y,z
x,1/4-y,1/4-z
1/4-x,y,1/4-z
-x,-y,-z
3/4+x,3/4+y,-z
-x,3/4+y,3/4+z
3/4+x,-y,3/4+z
x,1/2+y,1/2+z
1/4-x,3/4-y,1/2+z
x,3/4-y,3/4-z
1/4-x,1/2+y,3/4-z
-x,1/2-y,1/2-z
3/4+x,1/4+y,1/2-z
-x,1/4+y,1/4+z
3/4+x,1/2-y,1/4+z
1/2+x,y,1/2+z
3/4-x,1/4-y,1/2+z
1/2+x,1/4-y,3/4-z
3/4-x,y,3/4-z
1/2-x,-y,1/2-z
1/4+x,3/4+y,1/2-z
1/2-x,3/4+y,1/4+z
1/4+x,-y,1/4+z
1/2+x,1/2+y,z
3/4-x,3/4-y,z
1/2+x,3/4-y,1/4-z
3/4-x,1/2+y,1/4-z
1/2-x,1/2-y,-z
1/4+x,1/4+y,-z
1/2-x,1/4+y,3/4+z
1/4+x,1/2-y,3/4+z
loop_
_atom_site_type_symbol
_atom_site_label
_atom_site_fract_x
_atom_site_fract_y
_atom_site_fract_z
Si Si1 0.375000 0.955226 0.875000
Si Si2 0.633490 0.889885 0.722958
Si Si3 0.018845 0.937124 0.339179
Si Si4 0.730833 0.055683 0.763729
Si Si5 0.883545 0.714712 0.234673
Si Si6 0.625000 0.548367 0.125000
Si Si7 0.006041 0.740652 0.926814
O O1 0.308925 0.924227 0.893347
O O2 0.358436 0.991363 0.797395
O O3 0.625000 0.906918 0.625000
O O4 0.571459 0.904721 0.785848
O O5 0.703920 0.912381 0.756046
O O6 0.635581 0.833978 0.721007
O O7 0.052467 0.954248 0.425614
O O8 0.005938 0.979203 0.274542
O O9 0.664996 0.070506 0.707268
O O10 0.725479 0.053537 0.866745
O O11 0.750000 0.000000 0.750000
O O12 0.821065 0.726316 0.171868
O O13 0.686314 0.516113 0.094542
#
# Coordination Sequence:
#
# PCOD9514211 Si02
#       7
#    16  32  32  32  32  16  32
#     4  10  24  42  66  94 126 165 220 277 321 380
#     4  12  23  42  66  94 131 171 214 269 329 388
#     4  11  21  38  65  93 123 169 217 264 320 392
#     4  10  20  34  60  92 128 168 211 256 314 389
#     4  11  23  41  64  94 127 167 218 275 326 382
#     4  10  18  32  54  88 126 157 200 259 304 376
#     4  10  19  35  60  92 124 167 215 257 316 388
#
# _framework density 21.735340999999998
#
# number of rings (size 3 to 8) (size 9 to 14) (size 15 to 20)
#    0.000    1.333    2.500    6.000    1.167    0.000 
#    0.000    3.333    0.000    2.000    0.000    0.000 
#    0.000    0.000    0.000    0.000    0.000    0.000 
#
# Total GULP energy -267324.782787 kJ/mol
# GULP energy per Si atom -5569.266308 kJ/mol
# Density = 2.168587 g / cm^3
# Si number density = 21.735341 Si / 1000 Ang^3
#
#
#
# Elastic Constant Matrix: (Units=GPa)
#
#
# Indices 1 2 3 4 5 6 
#
# 1 170.7287 27.4327 45.5831 0.0000 0.0000 0.0000
# 2 27.4327 64.3503 15.9542 0.0000 0.0000 0.0000
# 3 45.5831 15.9542 107.9656 0.0000 0.0000 0.0000
# 4 0.0000 0.0000 0.0000 330.6915 0.0000 0.0000
# 5 0.0000 0.0000 0.0000 0.0000 39.5538 0.0000
# 6 0.0000 0.0000 0.0000 0.0000 0.0000 -21.7635
#
#
#
# Elastic Compliance Matrix: (Units=1/GPa)
#
#
# Indices 1 2 3 4 5 6 
#
# 1 0.006917 -0.002309 -0.002579 0.000000 0.000000 0.000000
# 2 -0.002309 0.016902 -0.001523 0.000000 0.000000 0.000000
# 3 -0.002579 -0.001523 0.010576 0.000000 0.000000 0.000000
# 4 0.000000 0.000000 0.000000 0.003024 0.000000 0.000000
# 5 0.000000 0.000000 0.000000 0.000000 0.025282 0.000000
# 6 0.000000 0.000000 0.000000 0.000000 0.000000 -0.045949
#
#
# Mechanical properties :
#
#
# Convention : Reuss Voigt Hill
#
# Bulk Modulus (GPa) = 46.35440 57.88719 52.12079
# Shear Modulus (GPa) = 135.99817 86.63467 111.31642
#
# Velocity S-wave (km/s) = 7.91871 6.32024 7.16419
# Velocity P-wave (km/s) = 10.24602 8.94154 9.61593
#
# Compressibility (1/GPa) = 0.02157293
#
# Stress axis : x y z
#
# Youngs Moduli (GPa) = 144.57358 59.16499 94.55283
#
# Poissons Ratio (x) = 0.13663 0.24386
# Poissons Ratio (y) = 0.33386 0.14397
# Poissons Ratio (z) = 0.37287 0.09009
#
# Static dielectric constant tensor:
#      x y z
#    x 1.710220 0.000000 0.000000 
#    y 0.000000 1.798170 0.000000 
#    z 0.000000 0.000000 1.734610 
# 
# From -- ./inp_files/35538.got.cif
#   From: 2010.05.17/outbox.cif.g08.bks.cpg/sg70_18_cif.got.tgz:35538.got - 2010.06.03 15:57:51.
