data_PCOD9514525
_publ_section_title
;
Structure prediction by ZEFSAII (Michael W. Deem and Ramdas Pophale) SiO2 
 PCOD9514525
Probable space group: F D D D
;
_chemical_formula_sum "Si O2"
_cell_formula_units_Z 96
_cell_length_a 10.616153
_cell_length_b 20.786476
_cell_length_c 17.370930
_cell_angle_alpha 90.000000
_cell_angle_beta 90.000000
_cell_angle_gamma 90.000000
_cell_volume 3833.284979
_symmetry_space_group_name_H-M "F D D D"
_symmetry_group_IT_number 70
_space_group.IT_coordinate_system_code '2'
_symmetry_cell_setting 'orthorhombic'
loop_
_space_group_symop_operation_xyz
x,y,z
1/4-x,1/4-y,z
x,1/4-y,1/4-z
1/4-x,y,1/4-z
-x,-y,-z
3/4+x,3/4+y,-z
-x,3/4+y,3/4+z
3/4+x,-y,3/4+z
x,1/2+y,1/2+z
1/4-x,3/4-y,1/2+z
x,3/4-y,3/4-z
1/4-x,1/2+y,3/4-z
-x,1/2-y,1/2-z
3/4+x,1/4+y,1/2-z
-x,1/4+y,1/4+z
3/4+x,1/2-y,1/4+z
1/2+x,y,1/2+z
3/4-x,1/4-y,1/2+z
1/2+x,1/4-y,3/4-z
3/4-x,y,3/4-z
1/2-x,-y,1/2-z
1/4+x,3/4+y,1/2-z
1/2-x,3/4+y,1/4+z
1/4+x,-y,1/4+z
1/2+x,1/2+y,z
3/4-x,3/4-y,z
1/2+x,3/4-y,1/4-z
3/4-x,1/2+y,1/4-z
1/2-x,1/2-y,-z
1/4+x,1/4+y,-z
1/2-x,1/4+y,3/4+z
1/4+x,1/2-y,3/4+z
loop_
_atom_site_type_symbol
_atom_site_label
_atom_site_fract_x
_atom_site_fract_y
_atom_site_fract_z
Si Si1 0.266196 0.738290 0.621594
Si Si2 0.243989 0.298858 0.571933
Si Si3 0.623732 0.877049 0.793570
O O1 0.377221 0.789242 0.632469
O O2 0.300298 0.693021 0.548390
O O3 0.283409 0.683610 0.690135
O O4 0.125000 0.761416 0.625000
O O5 0.125000 0.283013 0.625000
O O6 0.250000 0.250000 0.500000
O O7 0.211094 0.365422 0.529536
O O8 0.546852 0.875000 0.875000
#
# Coordination Sequence:
#
# PCOD9514525 Si02
#       3
#    32  32  32
#     4   8  15  31  59  88 122 173 223 282 354 403
#     4  10  19  35  60  96 129 178 233 296 348 434
#     4   7  15  30  57  85 123 172 231 270 343 422
#
# _framework density 25.043794999999999
#
# number of rings (size 3 to 8) (size 9 to 14) (size 15 to 20)
#    2.000    1.333    0.000    2.000    0.000    0.000 
#    0.000   20.000    0.000   20.000    0.000    0.000 
#    0.000    0.000    0.000    0.000    0.000    0.000 
#
# Total GULP energy -133786.428823 kJ/mol
# GULP energy per Si atom -5574.434534 kJ/mol
# Density = 2.498679 g / cm^3
# Si number density = 25.043795 Si / 1000 Ang^3
#
#
#
# Elastic Constant Matrix: (Units=GPa)
#
#
# Indices 1 2 3 4 5 6 
#
# 1 246.8105 71.8819 79.3159 0.0000 0.0000 0.0000
# 2 71.8819 73.9622 44.6401 0.0000 0.0000 0.0000
# 3 79.3159 44.6401 89.5691 0.0000 0.0000 0.0000
# 4 0.0000 0.0000 0.0000 36.8416 0.0000 0.0000
# 5 0.0000 0.0000 0.0000 0.0000 24.7032 0.0000
# 6 0.0000 0.0000 0.0000 0.0000 0.0000 27.4055
#
#
#
# Elastic Compliance Matrix: (Units=1/GPa)
#
#
# Indices 1 2 3 4 5 6 
#
# 1 0.006397 -0.004002 -0.003670 0.000000 0.000000 0.000000
# 2 -0.004002 0.021840 -0.007341 0.000000 0.000000 0.000000
# 3 -0.003670 -0.007341 0.018073 0.000000 0.000000 0.000000
# 4 0.000000 0.000000 0.000000 0.027143 0.000000 0.000000
# 5 0.000000 0.000000 0.000000 0.000000 0.040481 0.000000
# 6 0.000000 0.000000 0.000000 0.000000 0.000000 0.036489
#
#
# Mechanical properties :
#
#
# Convention : Reuss Voigt Hill
#
# Bulk Modulus (GPa) = 61.40916 89.11306 75.26111
# Shear Modulus (GPa) = 26.89949 32.09032 29.49491
#
# Velocity S-wave (km/s) = 3.28090 3.58350 3.43553
# Velocity P-wave (km/s) = 6.23910 7.26513 6.77158
#
# Compressibility (1/GPa) = 0.01628422
#
# Stress axis : x y z
#
# Youngs Moduli (GPa) = 156.33513 45.78671 55.33029
#
# Poissons Ratio (x) = 0.18322 0.20306
# Poissons Ratio (y) = 0.62559 0.40620
# Poissons Ratio (z) = 0.57374 0.33614
#
# Static dielectric constant tensor:
#      x y z
#    x 1.974030 0.000000 0.000000 
#    y 0.000000 2.051350 0.000000 
#    z 0.000000 0.000000 2.171550 
# 
# From -- ./inp_files/48988.got.cif
#   From: 2010.05.17/outbox.cif.g08.bks.cpg/sg70_25_cif.got.tgz:48988.got - 2010.06.03 15:57:51.
