data_PCOD9514458
_publ_section_title
;
Structure prediction by ZEFSAII (Michael W. Deem and Ramdas Pophale) SiO2 
 PCOD9514458
Probable space group: F D D D
;
_chemical_formula_sum "Si O2"
_cell_formula_units_Z 192
_cell_length_a 15.508851
_cell_length_b 25.814803
_cell_length_c 20.112435
_cell_angle_alpha 90.000000
_cell_angle_beta 90.000000
_cell_angle_gamma 90.000000
_cell_volume 8052.172911
_symmetry_space_group_name_H-M "F D D D"
_symmetry_group_IT_number 70
_space_group.IT_coordinate_system_code '2'
_symmetry_cell_setting 'orthorhombic'
loop_
_space_group_symop_operation_xyz
x,y,z
1/4-x,1/4-y,z
x,1/4-y,1/4-z
1/4-x,y,1/4-z
-x,-y,-z
3/4+x,3/4+y,-z
-x,3/4+y,3/4+z
3/4+x,-y,3/4+z
x,1/2+y,1/2+z
1/4-x,3/4-y,1/2+z
x,3/4-y,3/4-z
1/4-x,1/2+y,3/4-z
-x,1/2-y,1/2-z
3/4+x,1/4+y,1/2-z
-x,1/4+y,1/4+z
3/4+x,1/2-y,1/4+z
1/2+x,y,1/2+z
3/4-x,1/4-y,1/2+z
1/2+x,1/4-y,3/4-z
3/4-x,y,3/4-z
1/2-x,-y,1/2-z
1/4+x,3/4+y,1/2-z
1/2-x,3/4+y,1/4+z
1/4+x,-y,1/4+z
1/2+x,1/2+y,z
3/4-x,3/4-y,z
1/2+x,3/4-y,1/4-z
3/4-x,1/2+y,1/4-z
1/2-x,1/2-y,-z
1/4+x,1/4+y,-z
1/2-x,1/4+y,3/4+z
1/4+x,1/2-y,3/4+z
loop_
_atom_site_type_symbol
_atom_site_label
_atom_site_fract_x
_atom_site_fract_y
_atom_site_fract_z
Si Si1 0.389229 0.633771 0.951206
Si Si2 0.110847 0.180438 0.407957
Si Si3 0.505097 0.328651 0.923103
Si Si4 0.682689 0.783416 0.357563
Si Si5 0.815337 0.220398 0.297267
Si Si6 0.980074 0.440404 0.979714
O O1 0.375000 0.653145 0.875000
O O2 0.392434 0.571063 0.946316
O O3 0.462292 0.653428 0.003022
O O4 0.301671 0.653062 0.987764
O O5 0.125000 0.125000 0.376428
O O6 0.169981 0.223053 0.374069
O O7 0.141522 0.178785 0.484577
O O8 0.013143 0.197113 0.410676
O O9 0.474815 0.375000 0.875000
O O10 0.592238 0.308048 0.884474
O O11 0.438470 0.281058 0.933859
O O12 0.701584 0.785115 0.280801
O O13 0.756929 0.809634 0.401295
O O14 0.000000 0.500000 0.000000
#
# Coordination Sequence:
#
# PCOD9514458 Si02
#       6
#    32  32  32  32  32  32
#     4  11  23  39  64  89 123 172 217 263 322 395
#     4  10  19  34  53  83 118 157 201 254 306 373
#     4  10  21  40  64  91 127 171 209 267 334 378
#     4   9  20  36  56  82 122 161 201 253 306 383
#     4  11  22  37  63  87 121 168 213 260 327 387
#     4   9  19  35  52  83 125 153 201 256 303 378
#
# _framework density 23.844495999999999
#
# number of rings (size 3 to 8) (size 9 to 14) (size 15 to 20)
#    0.000    2.000    3.333    1.000    4.667    0.667 
#    0.000    1.667    3.667    0.000    0.000    0.000 
#    0.000    0.000    0.000    0.000    0.000    0.000 
#
# Total GULP energy -267785.809043 kJ/mol
# GULP energy per Si atom -5578.871022 kJ/mol
# Density = 2.379023 g / cm^3
# Si number density = 23.844496 Si / 1000 Ang^3
#
#
#
# Elastic Constant Matrix: (Units=GPa)
#
#
# Indices 1 2 3 4 5 6 
#
# 1 48.1596 27.8386 39.9220 0.0000 0.0000 0.0000
# 2 27.8386 169.6032 47.5152 0.0000 0.0000 0.0000
# 3 39.9220 47.5152 157.6592 0.0000 0.0000 0.0000
# 4 0.0000 0.0000 0.0000 27.9595 0.0000 0.0000
# 5 0.0000 0.0000 0.0000 0.0000 17.6871 0.0000
# 6 0.0000 0.0000 0.0000 0.0000 0.0000 11.9886
#
#
#
# Elastic Compliance Matrix: (Units=1/GPa)
#
#
# Indices 1 2 3 4 5 6 
#
# 1 0.027441 -0.002793 -0.006107 0.000000 0.000000 0.000000
# 2 -0.002793 0.006724 -0.001319 0.000000 0.000000 0.000000
# 3 -0.006107 -0.001319 0.008287 0.000000 0.000000 0.000000
# 4 0.000000 0.000000 0.000000 0.035766 0.000000 0.000000
# 5 0.000000 0.000000 0.000000 0.000000 0.056538 0.000000
# 6 0.000000 0.000000 0.000000 0.000000 0.000000 0.083412
#
#
# Mechanical properties :
#
#
# Convention : Reuss Voigt Hill
#
# Bulk Modulus (GPa) = 45.42665 67.33040 56.37852
# Shear Modulus (GPa) = 20.32975 28.87014 24.59995
#
# Velocity S-wave (km/s) = 2.92309 3.48338 3.21547
# Velocity P-wave (km/s) = 5.52134 6.66912 6.12219
#
# Compressibility (1/GPa) = 0.02201351
#
# Stress axis : x y z
#
# Youngs Moduli (GPa) = 36.44164 148.71665 120.67531
#
# Poissons Ratio (x) = 0.41542 0.73693
# Poissons Ratio (y) = 0.10179 0.15920
# Poissons Ratio (z) = 0.22254 0.19619
#
# Static dielectric constant tensor:
#      x y z
#    x 1.905120 0.000000 0.000000 
#    y 0.000000 1.975560 0.000000 
#    z 0.000000 0.000000 1.939120 
# 
# From -- ./inp_files/45087.got.cif
#   From: 2010.05.17/outbox.cif.g08.bks.cpg/sg70_23_cif.got.tgz:45087.got - 2010.06.03 15:57:51.
