data_PCOD9514854
_publ_section_title
;
Structure prediction by ZEFSAII (Michael W. Deem and Ramdas Pophale) SiO2 
 PCOD9514854
Probable space group: F D D D
;
_chemical_formula_sum "Si O2"
_cell_formula_units_Z 160
_cell_length_a 25.577853
_cell_length_b 18.031982
_cell_length_c 14.056694
_cell_angle_alpha 90.000000
_cell_angle_beta 90.000000
_cell_angle_gamma 90.000000
_cell_volume 6483.219760
_symmetry_space_group_name_H-M "F D D D"
_symmetry_group_IT_number 70
_space_group.IT_coordinate_system_code '2'
_symmetry_cell_setting 'orthorhombic'
loop_
_space_group_symop_operation_xyz
x,y,z
1/4-x,1/4-y,z
x,1/4-y,1/4-z
1/4-x,y,1/4-z
-x,-y,-z
3/4+x,3/4+y,-z
-x,3/4+y,3/4+z
3/4+x,-y,3/4+z
x,1/2+y,1/2+z
1/4-x,3/4-y,1/2+z
x,3/4-y,3/4-z
1/4-x,1/2+y,3/4-z
-x,1/2-y,1/2-z
3/4+x,1/4+y,1/2-z
-x,1/4+y,1/4+z
3/4+x,1/2-y,1/4+z
1/2+x,y,1/2+z
3/4-x,1/4-y,1/2+z
1/2+x,1/4-y,3/4-z
3/4-x,y,3/4-z
1/2-x,-y,1/2-z
1/4+x,3/4+y,1/2-z
1/2-x,3/4+y,1/4+z
1/4+x,-y,1/4+z
1/2+x,1/2+y,z
3/4-x,3/4-y,z
1/2+x,3/4-y,1/4-z
3/4-x,1/2+y,1/4-z
1/2-x,1/2-y,-z
1/4+x,1/4+y,-z
1/2-x,1/4+y,3/4+z
1/4+x,1/2-y,3/4+z
loop_
_atom_site_type_symbol
_atom_site_label
_atom_site_fract_x
_atom_site_fract_y
_atom_site_fract_z
Si Si1 0.460994 0.575246 0.244836
Si Si2 0.224224 0.422428 0.223574
Si Si3 0.826872 0.331484 0.238045
Si Si4 0.427484 0.836805 0.035732
Si Si5 0.371154 0.576315 0.990433
O O1 0.465336 0.573708 0.359908
O O2 0.520990 0.575087 0.211046
O O3 0.429732 0.501415 0.216178
O O4 0.428073 0.649287 0.224068
O O5 0.250000 0.500000 0.250000
O O6 0.267485 0.363004 0.257219
O O7 0.168636 0.393881 0.260622
O O8 0.875000 0.375000 0.283387
O O9 0.818820 0.378372 0.141357
O O10 0.847230 0.248705 0.218704
O O11 0.375000 0.875000 0.994316
O O12 0.375000 0.565641 0.875000
#
# Coordination Sequence:
#
# PCOD9514854 Si02
#       5
#    32  32  32  32  32
#     4  10  21  39  63  91 127 175 218 269 331 395
#     4  10  20  36  59  93 131 171 219 273 326 392
#     4  10  22  41  64  93 128 170 216 275 331 391
#     4  10  20  38  60  89 130 168 216 270 329 396
#     4  10  21  40  67  93 130 171 220 271 329 399
#
# _framework density 24.679093999999999
#
# number of rings (size 3 to 8) (size 9 to 14) (size 15 to 20)
#    0.000    2.000    2.000    1.200    0.000    2.000 
#    0.000   11.000    8.800    0.000    0.000    0.000 
#    0.000    0.000    0.000    0.000    0.000    0.000 
#
# Total GULP energy -223559.602231 kJ/mol
# GULP energy per Si atom -5588.990056 kJ/mol
# Density = 2.462292 g / cm^3
# Si number density = 24.679094 Si / 1000 Ang^3
#
#
#
# Elastic Constant Matrix: (Units=GPa)
#
#
# Indices 1 2 3 4 5 6 
#
# 1 199.9740 84.5267 3.8882 0.0000 0.0000 0.0000
# 2 84.5267 159.7916 14.3184 0.0000 0.0000 0.0000
# 3 3.8882 14.3184 73.1653 0.0000 0.0000 0.0000
# 4 0.0000 0.0000 0.0000 -14.1224 0.0000 0.0000
# 5 0.0000 0.0000 0.0000 0.0000 -13.1453 0.0000
# 6 0.0000 0.0000 0.0000 0.0000 0.0000 50.3099
#
#
#
# Elastic Compliance Matrix: (Units=1/GPa)
#
#
# Indices 1 2 3 4 5 6 
#
# 1 0.006449 -0.003441 0.000331 0.000000 0.000000 0.000000
# 2 -0.003441 0.008206 -0.001423 0.000000 0.000000 0.000000
# 3 0.000331 -0.001423 0.013929 0.000000 0.000000 0.000000
# 4 0.000000 0.000000 0.000000 -0.070810 0.000000 0.000000
# 5 0.000000 0.000000 0.000000 0.000000 -0.076073 0.000000
# 6 0.000000 0.000000 0.000000 0.000000 0.000000 0.019877
#
#
# Mechanical properties :
#
#
# Convention : Reuss Voigt Hill
#
# Bulk Modulus (GPa) = 51.23827 70.93305 61.08566
# Shear Modulus (GPa) = -60.34962 26.62160 -16.86401
#
# Velocity S-wave (km/s) = -4.95044 3.28794 -2.61690
# Velocity P-wave (km/s) = 3.44513 6.57408 3.95915
#
# Compressibility (1/GPa) = 0.01951666
#
# Stress axis : x y z
#
# Youngs Moduli (GPa) = 155.07195 121.86509 71.79478
#
# Poissons Ratio (x) = 0.41932 -0.02374
# Poissons Ratio (y) = 0.53358 0.10216
# Poissons Ratio (z) = -0.05128 0.17342
#
# Static dielectric constant tensor:
#      x y z
#    x 1.972270 0.000000 0.000000 
#    y 0.000000 1.962970 0.000000 
#    z 0.000000 0.000000 2.033660 
# 
# From -- ./inp_files/38440.got.cif
#   From: 2010.05.17/outbox.cif.g08.bks.cpg/sg70_20_cif.got.tgz:38440.got - 2010.06.03 15:57:51.
