data_PCOD9514338
_publ_section_title
;
Structure prediction by ZEFSAII (Michael W. Deem and Ramdas Pophale) SiO2 
 PCOD9514338
Probable space group: F D D D
;
_chemical_formula_sum "Si O2"
_cell_formula_units_Z 160
_cell_length_a 9.331966
_cell_length_b 31.341190
_cell_length_c 25.672670
_cell_angle_alpha 90.000000
_cell_angle_beta 90.000000
_cell_angle_gamma 90.000000
_cell_volume 7508.612091
_symmetry_space_group_name_H-M "F D D D"
_symmetry_group_IT_number 70
_space_group.IT_coordinate_system_code '2'
_symmetry_cell_setting 'orthorhombic'
loop_
_space_group_symop_operation_xyz
x,y,z
1/4-x,1/4-y,z
x,1/4-y,1/4-z
1/4-x,y,1/4-z
-x,-y,-z
3/4+x,3/4+y,-z
-x,3/4+y,3/4+z
3/4+x,-y,3/4+z
x,1/2+y,1/2+z
1/4-x,3/4-y,1/2+z
x,3/4-y,3/4-z
1/4-x,1/2+y,3/4-z
-x,1/2-y,1/2-z
3/4+x,1/4+y,1/2-z
-x,1/4+y,1/4+z
3/4+x,1/2-y,1/4+z
1/2+x,y,1/2+z
3/4-x,1/4-y,1/2+z
1/2+x,1/4-y,3/4-z
3/4-x,y,3/4-z
1/2-x,-y,1/2-z
1/4+x,3/4+y,1/2-z
1/2-x,3/4+y,1/4+z
1/4+x,-y,1/4+z
1/2+x,1/2+y,z
3/4-x,3/4-y,z
1/2+x,3/4-y,1/4-z
3/4-x,1/2+y,1/4-z
1/2-x,1/2-y,-z
1/4+x,1/4+y,-z
1/2-x,1/4+y,3/4+z
1/4+x,1/2-y,3/4+z
loop_
_atom_site_type_symbol
_atom_site_label
_atom_site_fract_x
_atom_site_fract_y
_atom_site_fract_z
Si Si1 0.313855 0.631204 0.745103
Si Si2 0.136611 0.002288 0.328320
Si Si3 0.625000 0.552551 0.625000
Si Si4 0.034427 0.587801 0.858504
Si Si5 0.875000 0.375000 0.789120
Si Si6 0.125055 0.048733 0.218753
O O1 0.255605 0.644852 0.801103
O O2 0.480945 0.622802 0.743627
O O3 0.238618 0.586789 0.730685
O O4 0.264506 0.671606 0.708879
O O5 0.098659 0.017457 0.268482
O O6 0.137040 0.047205 0.357591
O O7 0.288809 0.978886 0.323369
O O8 0.012563 0.975021 0.356521
O O9 0.602574 0.584191 0.576345
O O10 0.875000 0.574854 0.875000
O O11 0.125000 0.625000 0.885713
#
# Coordination Sequence:
#
# PCOD9514338 Si02
#       6
#    32  32  16  32  16  32
#     4  10  19  39  60  88 121 163 208 246 320 376
#     4  10  18  37  66  86 122 161 210 260 318 374
#     4  11  22  38  60  92 126 166 202 264 322 367
#     4  11  22  38  60  90 123 163 204 262 321 373
#     4  11  24  38  60  90 130 166 206 258 318 387
#     4   9  18  36  67  86 112 166 209 258 310 376
#
# _framework density 21.308865999999998
#
# number of rings (size 3 to 8) (size 9 to 14) (size 15 to 20)
#    0.000    1.800    7.000    0.000    1.400    0.000 
#    0.000    7.000    0.000    0.000    0.000    0.000 
#    0.000    0.000    0.000    0.000    0.000    0.000 
#
# Total GULP energy -222687.814911 kJ/mol
# GULP energy per Si atom -5567.195373 kJ/mol
# Density = 2.126037 g / cm^3
# Si number density = 21.308866 Si / 1000 Ang^3
#
#
#
# Elastic Constant Matrix: (Units=GPa)
#
#
# Indices 1 2 3 4 5 6 
#
# 1 139.9093 39.9549 37.3354 0.0000 0.0000 0.0000
# 2 39.9549 121.9205 35.7100 0.0000 0.0000 0.0000
# 3 37.3354 35.7100 39.2075 0.0000 0.0000 0.0000
# 4 0.0000 0.0000 0.0000 -5.8373 0.0000 0.0000
# 5 0.0000 0.0000 0.0000 0.0000 31.0591 0.0000
# 6 0.0000 0.0000 0.0000 0.0000 0.0000 29.9994
#
#
#
# Elastic Compliance Matrix: (Units=1/GPa)
#
#
# Indices 1 2 3 4 5 6 
#
# 1 0.009619 -0.000640 -0.008577 0.000000 0.000000 0.000000
# 2 -0.000640 0.011229 -0.009617 0.000000 0.000000 0.000000
# 3 -0.008577 -0.009617 0.042432 0.000000 0.000000 0.000000
# 4 0.000000 0.000000 0.000000 -0.171312 0.000000 0.000000
# 5 0.000000 0.000000 0.000000 0.000000 0.032197 0.000000
# 6 0.000000 0.000000 0.000000 0.000000 0.000000 0.033334
#
#
# Mechanical properties :
#
#
# Convention : Reuss Voigt Hill
#
# Bulk Modulus (GPa) = 39.04545 58.55977 48.80261
# Shear Modulus (GPa) = 1349.59242 23.58003 686.58622
#
# Velocity S-wave (km/s) = 25.19371 3.33014 17.96959
# Velocity P-wave (km/s) = 29.40511 6.50596 21.29540
#
# Compressibility (1/GPa) = 0.02561118
#
# Stress axis : x y z
#
# Youngs Moduli (GPa) = 103.96049 89.05678 23.56709
#
# Poissons Ratio (x) = 0.05702 0.20213
# Poissons Ratio (y) = 0.06656 0.22666
# Poissons Ratio (z) = 0.89163 0.85650
#
# Static dielectric constant tensor:
#      x y z
#    x 1.820130 0.000000 0.000000 
#    y 0.000000 1.798340 0.000000 
#    z 0.000000 0.000000 1.830550 
# 
# From -- ./inp_files/63948.got.cif
#   From: 2010.05.17/outbox.cif.g08.bks.cpg/sg70_32_cif.got.tgz:63948.got - 2010.06.03 15:57:51.
