data_PCOD9514432
_publ_section_title
;
Structure prediction by ZEFSAII (Michael W. Deem and Ramdas Pophale) SiO2 
 PCOD9514432
Probable space group: F D D D
;
_chemical_formula_sum "Si O2"
_cell_formula_units_Z 240
_cell_length_a 24.042521
_cell_length_b 30.552317
_cell_length_c 19.221594
_cell_angle_alpha 90.000000
_cell_angle_beta 90.000000
_cell_angle_gamma 90.000000
_cell_volume 14119.312658
_symmetry_space_group_name_H-M "F D D D"
_symmetry_group_IT_number 70
_space_group.IT_coordinate_system_code '2'
_symmetry_cell_setting 'orthorhombic'
loop_
_space_group_symop_operation_xyz
x,y,z
1/4-x,1/4-y,z
x,1/4-y,1/4-z
1/4-x,y,1/4-z
-x,-y,-z
3/4+x,3/4+y,-z
-x,3/4+y,3/4+z
3/4+x,-y,3/4+z
x,1/2+y,1/2+z
1/4-x,3/4-y,1/2+z
x,3/4-y,3/4-z
1/4-x,1/2+y,3/4-z
-x,1/2-y,1/2-z
3/4+x,1/4+y,1/2-z
-x,1/4+y,1/4+z
3/4+x,1/2-y,1/4+z
1/2+x,y,1/2+z
3/4-x,1/4-y,1/2+z
1/2+x,1/4-y,3/4-z
3/4-x,y,3/4-z
1/2-x,-y,1/2-z
1/4+x,3/4+y,1/2-z
1/2-x,3/4+y,1/4+z
1/4+x,-y,1/4+z
1/2+x,1/2+y,z
3/4-x,3/4-y,z
1/2+x,3/4-y,1/4-z
3/4-x,1/2+y,1/4-z
1/2-x,1/2-y,-z
1/4+x,1/4+y,-z
1/2-x,1/4+y,3/4+z
1/4+x,1/2-y,3/4+z
loop_
_atom_site_type_symbol
_atom_site_label
_atom_site_fract_x
_atom_site_fract_y
_atom_site_fract_z
Si Si1 0.734608 0.263425 0.178741
Si Si2 0.363232 0.618049 0.767389
Si Si3 0.311608 0.387517 0.238878
Si Si4 0.086847 0.797420 0.414823
Si Si5 0.033654 0.361198 0.632768
Si Si6 0.847866 0.038355 0.536094
Si Si7 0.991624 0.625000 0.125000
Si Si8 0.556744 0.236024 0.212716
O O1 0.794764 0.241378 0.184521
O O2 0.728825 0.312423 0.146640
O O3 0.706490 0.266328 0.253957
O O4 0.701089 0.235640 0.120358
O O5 0.384905 0.576072 0.725477
O O6 0.416215 0.636199 0.811173
O O7 0.311045 0.611379 0.819487
O O8 0.345358 0.659053 0.719814
O O9 0.375000 0.375000 0.229166
O O10 0.272033 0.375987 0.173821
O O11 0.279994 0.369336 0.307301
O O12 0.316182 0.438851 0.255248
O O13 0.133332 0.778338 0.363669
O O14 0.048728 0.832741 0.372006
O O15 0.895951 0.019546 0.485719
O O16 0.500000 0.250000 0.250000
#
# Coordination Sequence:
#
# PCOD9514432 Si02
#       8
#    32  32  32  32  32  32  16  32
#     4  11  22  32  52  73 111 148 188 224 273 341
#     4  10  19  32  58  73 103 141 199 245 274 322
#     4  12  24  33  48  76 119 154 179 216 274 351
#     4  12  20  35  52  78 110 151 187 240 281 325
#     4  10  19  37  51  80 102 146 192 237 276 335
#     4  11  20  31  48  73 103 147 186 224 269 330
#     4  12  21  32  46  74 118 152 179 218 264 332
#     4  12  19  33  48  70 106 153 179 217 262 330
#
# _framework density 16.997995
#
# number of rings (size 3 to 8) (size 9 to 14) (size 15 to 20)
#    0.000    0.800    8.000    0.600    1.867    1.067 
#    0.000    0.000    0.000    0.000    0.000   14.933 
#    0.000    7.467    0.000    0.000    0.000    0.000 
#
# Total GULP energy -334539.116440 kJ/mol
# GULP energy per Si atom -5575.651941 kJ/mol
# Density = 1.695931 g / cm^3
# Si number density = 16.997995 Si / 1000 Ang^3
#
#
#
# Elastic Constant Matrix: (Units=GPa)
#
#
# Indices 1 2 3 4 5 6 
#
# 1 98.8862 31.9573 68.1243 0.0000 0.0000 0.0000
# 2 31.9573 54.8285 40.1488 0.0000 0.0000 0.0000
# 3 68.1243 40.1488 90.9633 0.0000 0.0000 0.0000
# 4 0.0000 0.0000 0.0000 24.0975 0.0000 0.0000
# 5 0.0000 0.0000 0.0000 0.0000 36.6838 0.0000
# 6 0.0000 0.0000 0.0000 0.0000 0.0000 16.2376
#
#
#
# Elastic Compliance Matrix: (Units=1/GPa)
#
#
# Indices 1 2 3 4 5 6 
#
# 1 0.020934 -0.001066 -0.015207 0.000000 0.000000 0.000000
# 2 -0.001066 0.027003 -0.011120 0.000000 0.000000 0.000000
# 3 -0.015207 -0.011120 0.027291 0.000000 0.000000 0.000000
# 4 0.000000 0.000000 0.000000 0.041498 0.000000 0.000000
# 5 0.000000 0.000000 0.000000 0.000000 0.027260 0.000000
# 6 0.000000 0.000000 0.000000 0.000000 0.000000 0.061586
#
#
# Mechanical properties :
#
#
# Convention : Reuss Voigt Hill
#
# Bulk Modulus (GPa) = 48.92191 58.34876 53.63533
# Shear Modulus (GPa) = 18.71466 22.36694 20.54080
#
# Velocity S-wave (km/s) = 3.32172 3.63141 3.48001
# Velocity P-wave (km/s) = 6.59964 7.21001 6.91156
#
# Compressibility (1/GPa) = 0.02044074
#
# Stress axis : x y z
#
# Youngs Moduli (GPa) = 47.77026 37.03330 36.64260
#
# Poissons Ratio (x) = 0.03946 0.55723
# Poissons Ratio (y) = 0.05090 0.40747
# Poissons Ratio (z) = 0.72645 0.41182
#
# Static dielectric constant tensor:
#      x y z
#    x 1.580500 0.000000 0.000000 
#    y 0.000000 1.594650 0.000000 
#    z 0.000000 0.000000 1.613270 
# 
# From -- ./inp_files/46199.got.cif
#   From: 2010.05.17/outbox.cif.g08.bks.cpg/sg70_24_cif.got.tgz:46199.got - 2010.06.03 15:57:51.
