data_PCOD9514825
_publ_section_title
;
Structure prediction by ZEFSAII (Michael W. Deem and Ramdas Pophale) SiO2 
 PCOD9514825
Probable space group: F D D D
;
_chemical_formula_sum "Si O2"
_cell_formula_units_Z 176
_cell_length_a 10.405983
_cell_length_b 22.812674
_cell_length_c 30.244408
_cell_angle_alpha 90.000000
_cell_angle_beta 90.000000
_cell_angle_gamma 90.000000
_cell_volume 7179.668534
_symmetry_space_group_name_H-M "F D D D"
_symmetry_group_IT_number 70
_space_group.IT_coordinate_system_code '2'
_symmetry_cell_setting 'orthorhombic'
loop_
_space_group_symop_operation_xyz
x,y,z
1/4-x,1/4-y,z
x,1/4-y,1/4-z
1/4-x,y,1/4-z
-x,-y,-z
3/4+x,3/4+y,-z
-x,3/4+y,3/4+z
3/4+x,-y,3/4+z
x,1/2+y,1/2+z
1/4-x,3/4-y,1/2+z
x,3/4-y,3/4-z
1/4-x,1/2+y,3/4-z
-x,1/2-y,1/2-z
3/4+x,1/4+y,1/2-z
-x,1/4+y,1/4+z
3/4+x,1/2-y,1/4+z
1/2+x,y,1/2+z
3/4-x,1/4-y,1/2+z
1/2+x,1/4-y,3/4-z
3/4-x,y,3/4-z
1/2-x,-y,1/2-z
1/4+x,3/4+y,1/2-z
1/2-x,3/4+y,1/4+z
1/4+x,-y,1/4+z
1/2+x,1/2+y,z
3/4-x,3/4-y,z
1/2+x,3/4-y,1/4-z
3/4-x,1/2+y,1/4-z
1/2-x,1/2-y,-z
1/4+x,1/4+y,-z
1/2-x,1/4+y,3/4+z
1/4+x,1/2-y,3/4+z
loop_
_atom_site_type_symbol
_atom_site_label
_atom_site_fract_x
_atom_site_fract_y
_atom_site_fract_z
Si Si1 0.765629 0.762046 0.702676
Si Si2 0.004249 0.936301 0.550331
Si Si3 0.375000 0.375000 0.749432
Si Si4 0.875000 0.149911 0.375000
Si Si5 0.663038 0.888461 0.470613
Si Si6 0.888862 0.125000 0.125000
Si Si7 0.417310 0.994012 0.631781
O O1 0.614487 0.766569 0.708026
O O2 0.840195 0.818944 0.719881
O O3 0.814518 0.706465 0.729050
O O4 0.796255 0.756266 0.650960
O O5 0.064678 0.891199 0.587012
O O6 0.007915 0.899573 0.505285
O O7 0.880787 0.968077 0.571278
O O8 0.508062 0.368855 0.775971
O O9 0.764690 0.196226 0.388186
O O10 0.694072 0.875889 0.419740
O O11 0.961774 0.188081 0.120428
#
# Coordination Sequence:
#
# PCOD9514825 Si02
#       7
#    32  32  16  16  32  16  32
#     4  10  20  40  66  96 139 184 230 293 367 431
#     4  11  23  42  72 102 136 183 245 292 358 432
#     4  10  20  35  68  96 138 178 240 289 366 432
#     4  12  24  39  72 107 140 176 230 306 356 424
#     4  10  23  40  63  99 137 189 239 298 363 424
#     4  10  26  45  65  96 140 192 229 287 366 422
#     4  11  23  43  68 102 140 183 233 289 358 434
#
# _framework density 24.513667000000002
#
# number of rings (size 3 to 8) (size 9 to 14) (size 15 to 20)
#    0.000    1.455    1.818    3.273    0.000    8.727 
#    0.000    9.091    0.000    0.000    0.000    0.000 
#    0.000    0.000    0.000    0.000    0.000    0.000 
#
# Total GULP energy -245914.155739 kJ/mol
# GULP energy per Si atom -5588.958085 kJ/mol
# Density = 2.445787 g / cm^3
# Si number density = 24.513667 Si / 1000 Ang^3
#
#
#
# Elastic Constant Matrix: (Units=GPa)
#
#
# Indices 1 2 3 4 5 6 
#
# 1 85.1476 27.4309 12.7676 0.0000 0.0000 0.0000
# 2 27.4309 167.4283 41.4243 0.0000 0.0000 0.0000
# 3 12.7676 41.4243 105.2477 0.0000 0.0000 0.0000
# 4 0.0000 0.0000 0.0000 26.1616 0.0000 0.0000
# 5 0.0000 0.0000 0.0000 0.0000 16.0841 0.0000
# 6 0.0000 0.0000 0.0000 0.0000 0.0000 -9.0009
#
#
#
# Elastic Compliance Matrix: (Units=1/GPa)
#
#
# Indices 1 2 3 4 5 6 
#
# 1 0.012457 -0.001847 -0.000784 0.000000 0.000000 0.000000
# 2 -0.001847 0.006891 -0.002488 0.000000 0.000000 0.000000
# 3 -0.000784 -0.002488 0.010576 0.000000 0.000000 0.000000
# 4 0.000000 0.000000 0.000000 0.038224 0.000000 0.000000
# 5 0.000000 0.000000 0.000000 0.000000 0.062173 0.000000
# 6 0.000000 0.000000 0.000000 0.000000 0.000000 -0.111099
#
#
# Mechanical properties :
#
#
# Convention : Reuss Voigt Hill
#
# Bulk Modulus (GPa) = 50.79974 57.89657 54.34816
# Shear Modulus (GPa) = 138.80607 25.06234 81.93420
#
# Velocity S-wave (km/s) = 7.53305 3.20094 5.78761
# Velocity P-wave (km/s) = 9.81990 6.10989 8.17806
#
# Compressibility (1/GPa) = 0.01968514
#
# Stress axis : x y z
#
# Youngs Moduli (GPa) = 80.27687 145.11915 94.55518
#
# Poissons Ratio (x) = 0.26802 0.07415
# Poissons Ratio (y) = 0.14826 0.23527
# Poissons Ratio (z) = 0.06296 0.36108
#
# Static dielectric constant tensor:
#      x y z
#    x 1.974790 0.000000 0.000000 
#    y 0.000000 1.985340 0.000000 
#    z 0.000000 0.000000 1.981340 
# 
# From -- ./inp_files/64807.got.cif
#   From: 2010.05.17/outbox.cif.g08.bks.cpg/sg70_33_cif.got.tgz:64807.got - 2010.06.03 15:57:51.
