data_PCOD9514234
_publ_section_title
;
Structure prediction by ZEFSAII (Michael W. Deem and Ramdas Pophale) SiO2 
 PCOD9514234
Probable space group: F D D D
;
_chemical_formula_sum "Si O2"
_cell_formula_units_Z 128
_cell_length_a 7.162003
_cell_length_b 28.484740
_cell_length_c 30.860867
_cell_angle_alpha 90.000000
_cell_angle_beta 90.000000
_cell_angle_gamma 90.000000
_cell_volume 6295.857377
_symmetry_space_group_name_H-M "F D D D"
_symmetry_group_IT_number 70
_space_group.IT_coordinate_system_code '2'
_symmetry_cell_setting 'orthorhombic'
loop_
_space_group_symop_operation_xyz
x,y,z
1/4-x,1/4-y,z
x,1/4-y,1/4-z
1/4-x,y,1/4-z
-x,-y,-z
3/4+x,3/4+y,-z
-x,3/4+y,3/4+z
3/4+x,-y,3/4+z
x,1/2+y,1/2+z
1/4-x,3/4-y,1/2+z
x,3/4-y,3/4-z
1/4-x,1/2+y,3/4-z
-x,1/2-y,1/2-z
3/4+x,1/4+y,1/2-z
-x,1/4+y,1/4+z
3/4+x,1/2-y,1/4+z
1/2+x,y,1/2+z
3/4-x,1/4-y,1/2+z
1/2+x,1/4-y,3/4-z
3/4-x,y,3/4-z
1/2-x,-y,1/2-z
1/4+x,3/4+y,1/2-z
1/2-x,3/4+y,1/4+z
1/4+x,-y,1/4+z
1/2+x,1/2+y,z
3/4-x,3/4-y,z
1/2+x,3/4-y,1/4-z
3/4-x,1/2+y,1/4-z
1/2-x,1/2-y,-z
1/4+x,1/4+y,-z
1/2-x,1/4+y,3/4+z
1/4+x,1/2-y,3/4+z
loop_
_atom_site_type_symbol
_atom_site_label
_atom_site_fract_x
_atom_site_fract_y
_atom_site_fract_z
Si Si1 0.200793 0.404748 0.038154
Si Si2 0.875000 0.375000 0.770044
Si Si3 0.822007 0.772633 0.649015
Si Si4 0.375000 0.654777 0.375000
Si Si5 0.822331 0.168911 0.150320
O O1 0.375000 0.375000 0.018925
O O2 0.278767 0.454815 0.053985
O O3 0.144701 0.376495 0.082138
O O4 0.017605 0.405367 0.008714
O O5 0.739873 0.345354 0.801523
O O6 0.625000 0.770363 0.625000
O O7 0.909134 0.720640 0.650169
O O8 0.949661 0.810330 0.624460
O O9 0.914820 0.125000 0.125000
O O10 0.625000 0.173950 0.125000
#
# Coordination Sequence:
#
# PCOD9514234 Si02
#       5
#    32  16  32  16  32
#     4  10  20  32  53  83 111 138 178 224 270 330
#     4  10  19  36  54  74 114 150 172 230 273 298
#     4  10  18  33  57  79 107 144 181 219 271 323
#     4  10  20  34  51  86 113 136 176 228 268 324
#     4   8  18  37  57  77 104 144 192 223 258 328
#
# _framework density 20.330831
#
# number of rings (size 3 to 8) (size 9 to 14) (size 15 to 20)
#    0.000    2.750    1.250    1.500    1.750    1.000 
#    0.000   15.625    0.000    6.750    0.000    0.000 
#    0.000    0.000    0.000    0.000    0.000    0.000 
#
# Total GULP energy -178291.116331 kJ/mol
# GULP energy per Si atom -5571.597385 kJ/mol
# Density = 2.028456 g / cm^3
# Si number density = 20.330831 Si / 1000 Ang^3
#
#
#
# Elastic Constant Matrix: (Units=GPa)
#
#
# Indices 1 2 3 4 5 6 
#
# 1 76.5937 21.6703 22.0867 0.0000 0.0000 0.0000
# 2 21.6703 151.0150 29.4624 0.0000 0.0000 0.0000
# 3 22.0867 29.4624 55.9827 0.0000 0.0000 0.0000
# 4 0.0000 0.0000 0.0000 -114.4448 0.0000 0.0000
# 5 0.0000 0.0000 0.0000 0.0000 -9.7951 0.0000
# 6 0.0000 0.0000 0.0000 0.0000 0.0000 -15.5622
#
#
#
# Elastic Compliance Matrix: (Units=1/GPa)
#
#
# Indices 1 2 3 4 5 6 
#
# 1 0.014895 -0.001104 -0.005295 0.000000 0.000000 0.000000
# 2 -0.001104 0.007461 -0.003491 0.000000 0.000000 0.000000
# 3 -0.005295 -0.003491 0.021789 0.000000 0.000000 0.000000
# 4 0.000000 0.000000 0.000000 -0.008738 0.000000 0.000000
# 5 0.000000 0.000000 0.000000 0.000000 -0.102092 0.000000
# 6 0.000000 0.000000 0.000000 0.000000 0.000000 -0.064258
#
#
# Mechanical properties :
#
#
# Convention : Reuss Voigt Hill
#
# Bulk Modulus (GPa) = 41.04385 47.78114 44.41249
# Shear Modulus (GPa) = -48.52529 -13.93563 -31.23046
#
# Velocity S-wave (km/s) = -4.89077 -2.62094 -3.92358
# Velocity P-wave (km/s) = 3.41483 3.79391 1.16891
#
# Compressibility (1/GPa) = 0.02436419
#
# Stress axis : x y z
#
# Youngs Moduli (GPa) = 67.13505 134.02268 45.89446
#
# Poissons Ratio (x) = 0.14801 0.24303
# Poissons Ratio (y) = 0.07414 0.16022
# Poissons Ratio (z) = 0.35551 0.46788
#
# Static dielectric constant tensor:
#      x y z
#    x 1.731300 0.000000 0.000000 
#    y 0.000000 1.787040 0.000000 
#    z 0.000000 0.000000 1.735750 
# 
# From -- ./inp_files/12061.got.cif
#   From: 2010.05.17/outbox.cif.g08.bks.cpg/sg70_7_cif.got.tgz:12061.got - 2010.06.03 15:57:51.
