data_PCOD9514849
_publ_section_title
;
Structure prediction by ZEFSAII (Michael W. Deem and Ramdas Pophale) SiO2 
 PCOD9514849
Probable space group: F D D D
;
_chemical_formula_sum "Si O2"
_cell_formula_units_Z 192
_cell_length_a 18.734819
_cell_length_b 27.127456
_cell_length_c 19.111809
_cell_angle_alpha 90.000000
_cell_angle_beta 90.000000
_cell_angle_gamma 90.000000
_cell_volume 9713.156046
_symmetry_space_group_name_H-M "F D D D"
_symmetry_group_IT_number 70
_space_group.IT_coordinate_system_code '2'
_symmetry_cell_setting 'orthorhombic'
loop_
_space_group_symop_operation_xyz
x,y,z
1/4-x,1/4-y,z
x,1/4-y,1/4-z
1/4-x,y,1/4-z
-x,-y,-z
3/4+x,3/4+y,-z
-x,3/4+y,3/4+z
3/4+x,-y,3/4+z
x,1/2+y,1/2+z
1/4-x,3/4-y,1/2+z
x,3/4-y,3/4-z
1/4-x,1/2+y,3/4-z
-x,1/2-y,1/2-z
3/4+x,1/4+y,1/2-z
-x,1/4+y,1/4+z
3/4+x,1/2-y,1/4+z
1/2+x,y,1/2+z
3/4-x,1/4-y,1/2+z
1/2+x,1/4-y,3/4-z
3/4-x,y,3/4-z
1/2-x,-y,1/2-z
1/4+x,3/4+y,1/2-z
1/2-x,3/4+y,1/4+z
1/4+x,-y,1/4+z
1/2+x,1/2+y,z
3/4-x,3/4-y,z
1/2+x,3/4-y,1/4-z
3/4-x,1/2+y,1/4-z
1/2-x,1/2-y,-z
1/4+x,1/4+y,-z
1/2-x,1/4+y,3/4+z
1/4+x,1/2-y,3/4+z
loop_
_atom_site_type_symbol
_atom_site_label
_atom_site_fract_x
_atom_site_fract_y
_atom_site_fract_z
Si Si1 0.048030 0.029151 0.443343
Si Si2 0.875000 0.375000 0.674292
Si Si3 0.374073 0.637736 0.275882
Si Si4 0.816951 0.532816 0.923149
Si Si5 0.655815 0.875000 0.875000
Si Si6 0.009403 0.428806 0.615155
Si Si7 0.444997 0.228497 0.577947
O O1 0.086233 0.080434 0.466256
O O2 0.998263 0.043044 0.377989
O O3 0.111553 0.993653 0.417543
O O4 0.000000 0.000000 0.500000
O O5 0.815035 0.349144 0.626544
O O6 0.390939 0.581867 0.300837
O O7 0.360834 0.638994 0.193648
O O8 0.311148 0.659786 0.322448
O O9 0.446882 0.666384 0.295570
O O10 0.875000 0.504481 0.875000
O O11 0.789646 0.510860 0.995886
O O12 0.701345 0.921941 0.900140
O O13 0.992385 0.485889 0.625386
#
# Coordination Sequence:
#
# PCOD9514849 Si02
#       7
#    32  16  32  32  16  32  32
#     4  11  21  35  60  92 125 167 205 253 311 383
#     4  10  20  36  58  94 130 154 214 256 296 380
#     4  10  20  39  67  85 120 167 208 250 315 374
#     4  11  18  36  58  86 123 163 200 244 306 379
#     4  10  24  40  60  92 120 158 208 270 302 370
#     4  10  20  38  63  92 117 170 204 255 309 389
#     4  10  24  37  59  91 120 160 212 254 319 371
#
# _framework density 19.767004
#
# number of rings (size 3 to 8) (size 9 to 14) (size 15 to 20)
#    0.000    1.667    5.000    0.000    4.667    0.667 
#    0.000    0.000    0.000    6.500    0.000    0.000 
#    0.000    0.000    0.000    0.000    0.000    0.000 
#
# Total GULP energy -267596.933364 kJ/mol
# GULP energy per Si atom -5574.936112 kJ/mol
# Density = 1.972201 g / cm^3
# Si number density = 19.767004 Si / 1000 Ang^3
#
#
#
# Elastic Constant Matrix: (Units=GPa)
#
#
# Indices 1 2 3 4 5 6 
#
# 1 81.1196 23.9845 19.4613 0.0000 0.0000 0.0000
# 2 23.9845 90.6386 10.0712 0.0000 0.0000 0.0000
# 3 19.4613 10.0712 96.1422 0.0000 0.0000 0.0000
# 4 0.0000 0.0000 0.0000 21.1951 0.0000 0.0000
# 5 0.0000 0.0000 0.0000 0.0000 16.2135 0.0000
# 6 0.0000 0.0000 0.0000 0.0000 0.0000 28.1159
#
#
#
# Elastic Compliance Matrix: (Units=1/GPa)
#
#
# Indices 1 2 3 4 5 6 
#
# 1 0.013927 -0.003412 -0.002462 0.000000 0.000000 0.000000
# 2 -0.003412 0.011999 -0.000566 0.000000 0.000000 0.000000
# 3 -0.002462 -0.000566 0.010959 0.000000 0.000000 0.000000
# 4 0.000000 0.000000 0.000000 0.047181 0.000000 0.000000
# 5 0.000000 0.000000 0.000000 0.000000 0.061677 0.000000
# 6 0.000000 0.000000 0.000000 0.000000 0.000000 0.035567
#
#
# Mechanical properties :
#
#
# Convention : Reuss Voigt Hill
#
# Bulk Modulus (GPa) = 41.65833 41.65938 41.65886
# Shear Modulus (GPa) = 24.72921 27.39712 26.06317
#
# Velocity S-wave (km/s) = 3.54083 3.72694 3.63508
# Velocity P-wave (km/s) = 6.15119 6.29612 6.22408
#
# Compressibility (1/GPa) = 0.02400480
#
# Stress axis : x y z
#
# Youngs Moduli (GPa) = 71.80396 83.34343 91.25015
#
# Poissons Ratio (x) = 0.28435 0.22463
# Poissons Ratio (y) = 0.24498 0.05167
# Poissons Ratio (z) = 0.17676 0.04720
#
# Static dielectric constant tensor:
#      x y z
#    x 1.699100 0.000000 0.000000 
#    y 0.000000 1.752600 0.000000 
#    z 0.000000 0.000000 1.734470 
# 
# From -- ./inp_files/35521.got.cif
#   From: 2010.05.17/outbox.cif.g08.bks.cpg/sg70_18_cif.got.tgz:35521.got - 2010.06.03 15:57:51.
