data_PCOD9514776
_publ_section_title
;
Structure prediction by ZEFSAII (Michael W. Deem and Ramdas Pophale) SiO2 
 PCOD9514776
Probable space group: F D D D
;
_chemical_formula_sum "Si O2"
_cell_formula_units_Z 208
_cell_length_a 19.641378
_cell_length_b 25.312043
_cell_length_c 20.359704
_cell_angle_alpha 90.000000
_cell_angle_beta 90.000000
_cell_angle_gamma 90.000000
_cell_volume 10122.099756
_symmetry_space_group_name_H-M "F D D D"
_symmetry_group_IT_number 70
_space_group.IT_coordinate_system_code '2'
_symmetry_cell_setting 'orthorhombic'
loop_
_space_group_symop_operation_xyz
x,y,z
1/4-x,1/4-y,z
x,1/4-y,1/4-z
1/4-x,y,1/4-z
-x,-y,-z
3/4+x,3/4+y,-z
-x,3/4+y,3/4+z
3/4+x,-y,3/4+z
x,1/2+y,1/2+z
1/4-x,3/4-y,1/2+z
x,3/4-y,3/4-z
1/4-x,1/2+y,3/4-z
-x,1/2-y,1/2-z
3/4+x,1/4+y,1/2-z
-x,1/4+y,1/4+z
3/4+x,1/2-y,1/4+z
1/2+x,y,1/2+z
3/4-x,1/4-y,1/2+z
1/2+x,1/4-y,3/4-z
3/4-x,y,3/4-z
1/2-x,-y,1/2-z
1/4+x,3/4+y,1/2-z
1/2-x,3/4+y,1/4+z
1/4+x,-y,1/4+z
1/2+x,1/2+y,z
3/4-x,3/4-y,z
1/2+x,3/4-y,1/4-z
3/4-x,1/2+y,1/4-z
1/2-x,1/2-y,-z
1/4+x,1/4+y,-z
1/2-x,1/4+y,3/4+z
1/4+x,1/2-y,3/4+z
loop_
_atom_site_type_symbol
_atom_site_label
_atom_site_fract_x
_atom_site_fract_y
_atom_site_fract_z
Si Si1 0.439204 0.834782 0.104194
Si Si2 0.327376 0.562915 0.429059
Si Si3 0.138541 0.777990 0.319064
Si Si4 0.457260 0.377905 0.476746
Si Si5 0.774882 0.625000 0.125000
Si Si6 0.043857 0.615482 0.487618
Si Si7 0.493772 0.961798 0.877709
O O1 0.375000 0.875000 0.112313
O O2 0.423494 0.779232 0.070023
O O3 0.463246 0.823371 0.178149
O O4 0.482948 0.866709 0.050259
O O5 0.375000 0.591695 0.375000
O O6 0.369547 0.547347 0.494196
O O7 0.257958 0.590435 0.456517
O O8 0.302013 0.510185 0.393185
O O9 0.180613 0.824822 0.353278
O O10 0.070453 0.770691 0.360703
O O11 0.375000 0.375000 0.476050
O O12 0.486287 0.333368 0.427892
O O13 0.473339 0.434172 0.445880
O O14 0.732589 0.607171 0.188961
O O15 0.125000 0.625000 0.494413
#
# Coordination Sequence:
#
# PCOD9514776 Si02
#       7
#    32  32  32  32  16  32  32
#     4  10  21  39  61  92 128 165 215 273 316 397
#     4  11  24  40  61  98 135 172 223 277 325 399
#     4  11  24  42  63  97 130 171 227 276 333 394
#     4  10  20  34  56  87 125 167 217 258 313 397
#     4  10  23  44  70  94 127 166 226 296 337 388
#     4  10  22  43  68  94 127 173 223 278 341 401
#     4  11  20  35  61  85 128 180 211 259 327 392
#
# _framework density 20.549095999999999
#
# number of rings (size 3 to 8) (size 9 to 14) (size 15 to 20)
#    0.000    1.538    1.538    4.846    4.308    1.231 
#    0.000    0.000    0.000    1.846    0.000    0.000 
#    0.000    0.000    0.000    0.000    0.000    0.000 
#
# Total GULP energy -289815.161020 kJ/mol
# GULP energy per Si atom -5573.368481 kJ/mol
# Density = 2.050233 g / cm^3
# Si number density = 20.549096 Si / 1000 Ang^3
#
#
#
# Elastic Constant Matrix: (Units=GPa)
#
#
# Indices 1 2 3 4 5 6 
#
# 1 69.8014 9.0431 41.7238 0.0000 0.0000 0.0000
# 2 9.0431 51.9590 17.2904 0.0000 0.0000 0.0000
# 3 41.7238 17.2904 170.4990 0.0000 0.0000 0.0000
# 4 0.0000 0.0000 0.0000 18.1493 0.0000 0.0000
# 5 0.0000 0.0000 0.0000 0.0000 47.7704 0.0000
# 6 0.0000 0.0000 0.0000 0.0000 0.0000 11.5902
#
#
#
# Elastic Compliance Matrix: (Units=1/GPa)
#
#
# Indices 1 2 3 4 5 6 
#
# 1 0.016912 -0.001621 -0.003974 0.000000 0.000000 0.000000
# 2 -0.001621 0.020073 -0.001639 0.000000 0.000000 0.000000
# 3 -0.003974 -0.001639 0.007004 0.000000 0.000000 0.000000
# 4 0.000000 0.000000 0.000000 0.055099 0.000000 0.000000
# 5 0.000000 0.000000 0.000000 0.000000 0.020933 0.000000
# 6 0.000000 0.000000 0.000000 0.000000 0.000000 0.086280
#
#
# Mechanical properties :
#
#
# Convention : Reuss Voigt Hill
#
# Bulk Modulus (GPa) = 33.87415 47.59712 40.73563
# Shear Modulus (GPa) = 21.68165 30.44878 26.06521
#
# Velocity S-wave (km/s) = 3.25178 3.85354 3.56537
# Velocity P-wave (km/s) = 5.53345 6.55840 6.06760
#
# Compressibility (1/GPa) = 0.02952104
#
# Stress axis : x y z
#
# Youngs Moduli (GPa) = 59.12968 49.81703 142.77730
#
# Poissons Ratio (x) = 0.08075 0.56743
# Poissons Ratio (y) = 0.09584 0.23401
# Poissons Ratio (z) = 0.23500 0.08165
#
# Static dielectric constant tensor:
#      x y z
#    x 1.492900 0.000000 0.000000 
#    y 0.000000 1.740970 0.000000 
#    z 0.000000 0.000000 1.799390 
# 
# From -- ./inp_files/43920.got.cif
#   From: 2010.05.17/outbox.cif.g08.bks.cpg/sg70_22_cif.got.tgz:43920.got - 2010.06.03 15:57:51.
