data_PCOD9514774
_publ_section_title
;
Structure prediction by ZEFSAII (Michael W. Deem and Ramdas Pophale) SiO2 
 PCOD9514774
Probable space group: F D D D
;
_chemical_formula_sum "Si O2"
_cell_formula_units_Z 208
_cell_length_a 23.021937
_cell_length_b 18.528849
_cell_length_c 25.483028
_cell_angle_alpha 90.000000
_cell_angle_beta 90.000000
_cell_angle_gamma 90.000000
_cell_volume 10870.295110
_symmetry_space_group_name_H-M "F D D D"
_symmetry_group_IT_number 70
_space_group.IT_coordinate_system_code '2'
_symmetry_cell_setting 'orthorhombic'
loop_
_space_group_symop_operation_xyz
x,y,z
1/4-x,1/4-y,z
x,1/4-y,1/4-z
1/4-x,y,1/4-z
-x,-y,-z
3/4+x,3/4+y,-z
-x,3/4+y,3/4+z
3/4+x,-y,3/4+z
x,1/2+y,1/2+z
1/4-x,3/4-y,1/2+z
x,3/4-y,3/4-z
1/4-x,1/2+y,3/4-z
-x,1/2-y,1/2-z
3/4+x,1/4+y,1/2-z
-x,1/4+y,1/4+z
3/4+x,1/2-y,1/4+z
1/2+x,y,1/2+z
3/4-x,1/4-y,1/2+z
1/2+x,1/4-y,3/4-z
3/4-x,y,3/4-z
1/2-x,-y,1/2-z
1/4+x,3/4+y,1/2-z
1/2-x,3/4+y,1/4+z
1/4+x,-y,1/4+z
1/2+x,1/2+y,z
3/4-x,3/4-y,z
1/2+x,3/4-y,1/4-z
3/4-x,1/2+y,1/4-z
1/2-x,1/2-y,-z
1/4+x,1/4+y,-z
1/2-x,1/4+y,3/4+z
1/4+x,1/2-y,3/4+z
loop_
_atom_site_type_symbol
_atom_site_label
_atom_site_fract_x
_atom_site_fract_y
_atom_site_fract_z
Si Si1 0.003702 0.048146 0.813523
Si Si2 0.789605 0.493507 0.331819
Si Si3 0.939153 0.472605 0.222848
Si Si4 0.860244 0.188937 0.669338
Si Si5 0.875000 0.875000 0.950687
Si Si6 0.568073 0.073593 0.889581
Si Si7 0.426463 0.561956 0.024559
O O1 0.028574 0.128317 0.822080
O O2 0.054644 0.991015 0.826925
O O3 0.961131 0.031688 0.862149
O O4 0.977105 0.028482 0.756976
O O5 0.840614 0.435685 0.329780
O O6 0.800771 0.547376 0.283570
O O7 0.729370 0.453474 0.314789
O O8 0.925139 0.408034 0.262405
O O9 0.960373 0.443021 0.167133
O O10 0.875344 0.506417 0.212504
O O11 0.862106 0.125000 0.625000
O O12 0.911970 0.246070 0.662152
O O13 0.852646 0.139895 0.720585
O O14 0.625000 0.125000 0.879902
#
# Coordination Sequence:
#
# PCOD9514774 Si02
#       7
#    32  32  32  32  16  32  32
#     4  11  24  33  54  85 120 153 196 252 313 358
#     4  10  21  35  52  84 124 152 192 232 298 373
#     4  11  21  34  54  83 116 156 197 232 302 355
#     4  11  19  36  60  81 103 158 213 248 292 361
#     4  10  22  31  54  80 116 154 178 230 276 375
#     4  10  21  39  56  81 118 153 203 260 290 354
#     4  10  20  34  56  81 109 160 197 236 290 359
#
# _framework density 19.134713999999999
#
# number of rings (size 3 to 8) (size 9 to 14) (size 15 to 20)
#    0.000    1.538    3.846    1.846    6.462    3.077 
#    0.000    0.769    0.000    0.000    0.000    0.000 
#    0.000    0.000    0.000    0.000    0.000    0.000 
#
# Total GULP energy -289990.051325 kJ/mol
# GULP energy per Si atom -5576.731756 kJ/mol
# Density = 1.909116 g / cm^3
# Si number density = 19.134714 Si / 1000 Ang^3
#
#
#
# Elastic Constant Matrix: (Units=GPa)
#
#
# Indices 1 2 3 4 5 6 
#
# 1 50.4081 33.3312 30.1066 0.0000 0.0000 0.0000
# 2 33.3312 121.9409 38.6839 0.0000 0.0000 0.0000
# 3 30.1066 38.6839 65.2859 0.0000 0.0000 0.0000
# 4 0.0000 0.0000 0.0000 23.3440 0.0000 0.0000
# 5 0.0000 0.0000 0.0000 0.0000 17.2337 0.0000
# 6 0.0000 0.0000 0.0000 0.0000 0.0000 30.1120
#
#
#
# Elastic Compliance Matrix: (Units=1/GPa)
#
#
# Indices 1 2 3 4 5 6 
#
# 1 0.029325 -0.004588 -0.010805 0.000000 0.000000 0.000000
# 2 -0.004588 0.010817 -0.004294 0.000000 0.000000 0.000000
# 3 -0.010805 -0.004294 0.022844 0.000000 0.000000 0.000000
# 4 0.000000 0.000000 0.000000 0.042838 0.000000 0.000000
# 5 0.000000 0.000000 0.000000 0.000000 0.058026 0.000000
# 6 0.000000 0.000000 0.000000 0.000000 0.000000 0.033209
#
#
# Mechanical properties :
#
#
# Convention : Reuss Voigt Hill
#
# Bulk Modulus (GPa) = 42.34920 49.09758 45.72339
# Shear Modulus (GPa) = 20.46649 23.17218 21.81933
#
# Velocity S-wave (km/s) = 3.27402 3.48372 3.38050
# Velocity P-wave (km/s) = 6.03924 6.47274 6.25975
#
# Compressibility (1/GPa) = 0.02361320
#
# Stress axis : x y z
#
# Youngs Moduli (GPa) = 34.10064 92.44843 43.77544
#
# Poissons Ratio (x) = 0.42416 0.47298
# Poissons Ratio (y) = 0.15646 0.18795
# Poissons Ratio (z) = 0.36845 0.39693
#
# Static dielectric constant tensor:
#      x y z
#    x 1.710800 0.000000 0.000000 
#    y 0.000000 1.700100 0.000000 
#    z 0.000000 0.000000 1.737310 
# 
# From -- ./inp_files/60421.got.cif
#   From: 2010.05.17/outbox.cif.g08.bks.cpg/sg70_31_cif.got.tgz:60421.got - 2010.06.03 15:57:51.
