data_PCOD9514253
_publ_section_title
;
Structure prediction by ZEFSAII (Michael W. Deem and Ramdas Pophale) SiO2 
 PCOD9514253
Probable space group: F D D D
;
_chemical_formula_sum "Si O2"
_cell_formula_units_Z 192
_cell_length_a 31.440234
_cell_length_b 22.203664
_cell_length_c 10.546086
_cell_angle_alpha 90.000000
_cell_angle_beta 90.000000
_cell_angle_gamma 90.000000
_cell_volume 7362.100216
_symmetry_space_group_name_H-M "F D D D"
_symmetry_group_IT_number 70
_space_group.IT_coordinate_system_code '2'
_symmetry_cell_setting 'orthorhombic'
loop_
_space_group_symop_operation_xyz
x,y,z
1/4-x,1/4-y,z
x,1/4-y,1/4-z
1/4-x,y,1/4-z
-x,-y,-z
3/4+x,3/4+y,-z
-x,3/4+y,3/4+z
3/4+x,-y,3/4+z
x,1/2+y,1/2+z
1/4-x,3/4-y,1/2+z
x,3/4-y,3/4-z
1/4-x,1/2+y,3/4-z
-x,1/2-y,1/2-z
3/4+x,1/4+y,1/2-z
-x,1/4+y,1/4+z
3/4+x,1/2-y,1/4+z
1/2+x,y,1/2+z
3/4-x,1/4-y,1/2+z
1/2+x,1/4-y,3/4-z
3/4-x,y,3/4-z
1/2-x,-y,1/2-z
1/4+x,3/4+y,1/2-z
1/2-x,3/4+y,1/4+z
1/4+x,-y,1/4+z
1/2+x,1/2+y,z
3/4-x,3/4-y,z
1/2+x,3/4-y,1/4-z
3/4-x,1/2+y,1/4-z
1/2-x,1/2-y,-z
1/4+x,1/4+y,-z
1/2-x,1/4+y,3/4+z
1/4+x,1/2-y,3/4+z
loop_
_atom_site_type_symbol
_atom_site_label
_atom_site_fract_x
_atom_site_fract_y
_atom_site_fract_z
Si Si1 0.875000 0.775498 0.375000
Si Si2 0.052537 0.169853 0.221064
Si Si3 0.451373 0.737686 0.485839
Si Si4 0.000148 0.327264 0.632497
Si Si5 0.327717 0.133947 0.924096
Si Si6 0.890520 0.011141 0.100015
Si Si7 0.050619 0.625000 0.125000
O O1 0.874374 0.738550 0.506627
O O2 0.916281 0.819145 0.388216
O O3 0.076754 0.125000 0.125000
O O4 0.018603 0.126463 0.283229
O O5 0.080653 0.203140 0.324126
O O6 0.034180 0.222839 0.134145
O O7 0.478819 0.762283 0.601485
O O8 0.448715 0.670670 0.434426
O O9 0.401828 0.749201 0.516425
O O10 0.980311 0.352268 0.762554
O O11 0.048999 0.324517 0.584587
O O12 0.375000 0.125616 0.875000
O O13 0.335117 0.179528 0.044120
#
# Coordination Sequence:
#
# PCOD9514253 Si02
#       7
#    16  32  32  32  32  32  16
#     4  11  20  34  54  92 138 174 190 258 356 402
#     4   9  18  28  51  84 117 155 196 258 308 375
#     4   9  19  34  56  89 122 155 207 271 319 377
#     4  11  20  36  59  89 124 167 217 265 336 397
#     4   9  21  40  65  91 120 166 226 278 329 389
#     4  10  18  34  55  89 128 160 202 266 331 387
#     4  11  22  32  54  94 134 170 206 264 334 415
#
# _framework density 26.079514
#
# number of rings (size 3 to 8) (size 9 to 14) (size 15 to 20)
#    0.000    2.167    3.333    1.500    0.000    7.333 
#    0.000    0.833    5.500    0.000    4.333    0.000 
#    0.000    0.000    0.000    0.000    0.000    0.000 
#
# Total GULP energy -268069.191108 kJ/mol
# GULP energy per Si atom -5584.774815 kJ/mol
# Density = 2.602016 g / cm^3
# Si number density = 26.079514 Si / 1000 Ang^3
#
#
#
# Elastic Constant Matrix: (Units=GPa)
#
#
# Indices 1 2 3 4 5 6 
#
# 1 138.5331 44.0111 44.6893 0.0000 0.0000 0.0000
# 2 44.0111 79.6488 22.4551 0.0001 0.0000 0.0000
# 3 44.6893 22.4551 145.8509 0.0001 0.0000 0.0000
# 4 0.0000 0.0001 0.0001 21.2380 0.0000 0.0000
# 5 0.0000 0.0000 0.0000 0.0000 31.6608 0.0000
# 6 0.0000 0.0000 0.0000 0.0000 0.0000 11.9315
#
#
#
# Elastic Compliance Matrix: (Units=1/GPa)
#
#
# Indices 1 2 3 4 5 6 
#
# 1 0.009368 -0.004565 -0.002168 0.000000 0.000000 0.000000
# 2 -0.004565 0.015350 -0.000964 0.000000 0.000000 0.000000
# 3 -0.002168 -0.000964 0.007669 0.000000 0.000000 0.000000
# 4 0.000000 0.000000 0.000000 0.047085 0.000000 0.000000
# 5 0.000000 0.000000 0.000000 0.000000 0.031585 0.000000
# 6 0.000000 0.000000 0.000000 0.000000 0.000000 0.083812
#
#
# Mechanical properties :
#
#
# Convention : Reuss Voigt Hill
#
# Bulk Modulus (GPa) = 58.85087 65.14931 62.00009
# Shear Modulus (GPa) = 23.15595 29.82456 26.49025
#
# Velocity S-wave (km/s) = 2.98299 3.38539 3.19054
# Velocity P-wave (km/s) = 5.87190 6.34952 6.11538
#
# Compressibility (1/GPa) = 0.01699210
#
# Stress axis : x y z
#
# Youngs Moduli (GPa) = 106.74500 65.14795 130.39624
#
# Poissons Ratio (x) = 0.29743 0.28264
# Poissons Ratio (y) = 0.48733 0.12575
# Poissons Ratio (z) = 0.23137 0.06283
#
# Static dielectric constant tensor:
#      x y z
#    x 2.070230 0.000000 0.000000 
#    y 0.000000 2.171720 0.000000 
#    z 0.000000 0.000000 2.106810 
# 
# From -- ./inp_files/22662.got.cif
#   From: 2010.05.17/outbox.cif.g08.bks.cpg/sg70_12_cif.got.tgz:22662.got - 2010.06.03 15:57:51.
