data_PCOD9514676
_publ_section_title
;
Structure prediction by ZEFSAII (Michael W. Deem and Ramdas Pophale) SiO2 
 PCOD9514676
Probable space group: F D D D
;
_chemical_formula_sum "Si O2"
_cell_formula_units_Z 144
_cell_length_a 22.118859
_cell_length_b 10.491317
_cell_length_c 25.306873
_cell_angle_alpha 90.000000
_cell_angle_beta 90.000000
_cell_angle_gamma 90.000000
_cell_volume 5872.610745
_symmetry_space_group_name_H-M "F D D D"
_symmetry_group_IT_number 70
_space_group.IT_coordinate_system_code '2'
_symmetry_cell_setting 'orthorhombic'
loop_
_space_group_symop_operation_xyz
x,y,z
1/4-x,1/4-y,z
x,1/4-y,1/4-z
1/4-x,y,1/4-z
-x,-y,-z
3/4+x,3/4+y,-z
-x,3/4+y,3/4+z
3/4+x,-y,3/4+z
x,1/2+y,1/2+z
1/4-x,3/4-y,1/2+z
x,3/4-y,3/4-z
1/4-x,1/2+y,3/4-z
-x,1/2-y,1/2-z
3/4+x,1/4+y,1/2-z
-x,1/4+y,1/4+z
3/4+x,1/2-y,1/4+z
1/2+x,y,1/2+z
3/4-x,1/4-y,1/2+z
1/2+x,1/4-y,3/4-z
3/4-x,y,3/4-z
1/2-x,-y,1/2-z
1/4+x,3/4+y,1/2-z
1/2-x,3/4+y,1/4+z
1/4+x,-y,1/4+z
1/2+x,1/2+y,z
3/4-x,3/4-y,z
1/2+x,3/4-y,1/4-z
3/4-x,1/2+y,1/4-z
1/2-x,1/2-y,-z
1/4+x,1/4+y,-z
1/2-x,1/4+y,3/4+z
1/4+x,1/2-y,3/4+z
loop_
_atom_site_type_symbol
_atom_site_label
_atom_site_fract_x
_atom_site_fract_y
_atom_site_fract_z
Si Si1 0.532938 0.439427 0.214616
Si Si2 0.992952 0.695225 0.175557
Si Si3 0.019332 0.945892 0.930742
Si Si4 0.375000 0.875000 0.955976
Si Si5 0.914328 0.151987 0.275534
O O1 0.531678 0.370386 0.271536
O O2 0.489177 0.347723 0.180001
O O3 0.510630 0.581844 0.214900
O O4 0.602343 0.445356 0.197031
O O5 0.967026 0.625000 0.125000
O O6 0.065751 0.675142 0.176245
O O7 0.029390 0.875000 0.875000
O O8 0.970255 0.059350 0.936020
O O9 0.076803 0.969645 0.968369
O O10 0.402139 0.749262 0.983862
#
# Coordination Sequence:
#
# PCOD9514676 Si02
#       5
#    32  32  32  16  32
#     4  10  22  40  60  92 130 166 216 278 322 398
#     4  10  21  36  62  91 125 166 214 271 333 387
#     4  11  24  42  66  95 134 177 220 272 341 406
#     4  10  19  40  62  90 126 164 216 276 317 390
#     4  10  23  41  65  91 132 173 218 273 332 397
#
# _framework density 24.520610000000001
#
# number of rings (size 3 to 8) (size 9 to 14) (size 15 to 20)
#    0.000    1.778    2.222    1.000    3.111    2.667 
#    0.000    0.000    9.778    0.000    0.000    0.000 
#    0.000    0.000    0.000    0.000    0.000    0.000 
#
# Total GULP energy -200712.407239 kJ/mol
# GULP energy per Si atom -5575.344646 kJ/mol
# Density = 2.446480 g / cm^3
# Si number density = 24.520610 Si / 1000 Ang^3
#
#
#
# Elastic Constant Matrix: (Units=GPa)
#
#
# Indices 1 2 3 4 5 6 
#
# 1 35.5400 16.3094 -11.6842 0.0000 0.0000 0.0000
# 2 16.3094 95.3044 14.8013 0.0000 0.0000 0.0000
# 3 -11.6842 14.8013 114.5056 0.0000 0.0000 0.0000
# 4 0.0000 0.0000 0.0000 27.4743 0.0000 0.0000
# 5 0.0000 0.0000 0.0000 0.0000 11.7916 0.0000
# 6 0.0000 0.0000 0.0000 0.0000 0.0000 32.1747
#
#
#
# Elastic Compliance Matrix: (Units=1/GPa)
#
#
# Indices 1 2 3 4 5 6 
#
# 1 0.032313 -0.006166 0.004094 0.000000 0.000000 0.000000
# 2 -0.006166 0.011884 -0.002165 0.000000 0.000000 0.000000
# 3 0.004094 -0.002165 0.009431 0.000000 0.000000 0.000000
# 4 0.000000 0.000000 0.000000 0.036398 0.000000 0.000000
# 5 0.000000 0.000000 0.000000 0.000000 0.084806 0.000000
# 6 0.000000 0.000000 0.000000 0.000000 0.000000 0.031080
#
#
# Mechanical properties :
#
#
# Convention : Reuss Voigt Hill
#
# Bulk Modulus (GPa) = 22.14628 31.57813 26.86220
# Shear Modulus (GPa) = 21.79255 29.34969 25.57112
#
# Velocity S-wave (km/s) = 2.98442 3.46343 3.23281
# Velocity P-wave (km/s) = 4.57460 5.37587 4.99134
#
# Compressibility (1/GPa) = 0.04515431
#
# Stress axis : x y z
#
# Youngs Moduli (GPa) = 30.94761 84.14615 106.03488
#
# Poissons Ratio (x) = 0.51880 -0.43412
# Poissons Ratio (y) = 0.19081 0.22960
# Poissons Ratio (z) = -0.12670 0.18220
#
# Static dielectric constant tensor:
#      x y z
#    x 2.009440 0.000000 0.000000 
#    y 0.000000 2.003430 0.000000 
#    z 0.000000 0.000000 2.084740 
# 
# From -- ./inp_files/60982.got.cif
#   From: 2010.05.17/outbox.cif.g08.bks.cpg/sg70_31_cif.got.tgz:60982.got - 2010.06.03 15:57:51.
