data_PCOD9514475
_publ_section_title
;
Structure prediction by ZEFSAII (Michael W. Deem and Ramdas Pophale) SiO2 
 PCOD9514475
Probable space group: F D D D
;
_chemical_formula_sum "Si O2"
_cell_formula_units_Z 128
_cell_length_a 13.291517
_cell_length_b 30.601849
_cell_length_c 13.316946
_cell_angle_alpha 90.000000
_cell_angle_beta 90.000000
_cell_angle_gamma 90.000000
_cell_volume 5416.601150
_symmetry_space_group_name_H-M "F D D D"
_symmetry_group_IT_number 70
_space_group.IT_coordinate_system_code '2'
_symmetry_cell_setting 'orthorhombic'
loop_
_space_group_symop_operation_xyz
x,y,z
1/4-x,1/4-y,z
x,1/4-y,1/4-z
1/4-x,y,1/4-z
-x,-y,-z
3/4+x,3/4+y,-z
-x,3/4+y,3/4+z
3/4+x,-y,3/4+z
x,1/2+y,1/2+z
1/4-x,3/4-y,1/2+z
x,3/4-y,3/4-z
1/4-x,1/2+y,3/4-z
-x,1/2-y,1/2-z
3/4+x,1/4+y,1/2-z
-x,1/4+y,1/4+z
3/4+x,1/2-y,1/4+z
1/2+x,y,1/2+z
3/4-x,1/4-y,1/2+z
1/2+x,1/4-y,3/4-z
3/4-x,y,3/4-z
1/2-x,-y,1/2-z
1/4+x,3/4+y,1/2-z
1/2-x,3/4+y,1/4+z
1/4+x,-y,1/4+z
1/2+x,1/2+y,z
3/4-x,3/4-y,z
1/2+x,3/4-y,1/4-z
3/4-x,1/2+y,1/4-z
1/2-x,1/2-y,-z
1/4+x,1/4+y,-z
1/2-x,1/4+y,3/4+z
1/4+x,1/2-y,3/4+z
loop_
_atom_site_type_symbol
_atom_site_label
_atom_site_fract_x
_atom_site_fract_y
_atom_site_fract_z
Si Si1 0.875000 0.304591 0.375000
Si Si2 0.001307 0.575482 0.124797
Si Si3 0.731139 0.552555 0.842675
Si Si4 0.723052 0.242666 0.273646
Si Si5 0.125000 0.125000 0.954792
O O1 0.783785 0.272702 0.349149
O O2 0.847015 0.335756 0.468897
O O3 0.966643 0.625000 0.125000
O O4 0.125000 0.575086 0.125000
O O5 0.969236 0.548291 0.221692
O O6 0.971804 0.555334 0.017871
O O7 0.623960 0.528780 0.823939
O O8 0.786270 0.524207 0.926388
O O9 0.707261 0.601372 0.883894
#
# Coordination Sequence:
#
# PCOD9514475 Si02
#       5
#    16  32  32  32  16
#     4   9  20  36  56  86 110 152 190 236 278 347
#     4   9  17  32  56  81 107 147 195 230 273 340
#     4  10  19  34  57  86 107 149 189 242 278 342
#     4  10  20  33  56  80 114 140 191 234 287 332
#     4   9  18  34  57  82 102 146 201 226 264 341
#
# _framework density 23.631056000000001
#
# number of rings (size 3 to 8) (size 9 to 14) (size 15 to 20)
#    0.000    2.500    0.000    3.750    0.000    4.000 
#    0.000    0.000   27.500    0.000    0.000    0.000 
#    0.000    0.000    0.000    0.000    0.000    0.000 
#
# Total GULP energy -178754.054682 kJ/mol
# GULP energy per Si atom -5586.064209 kJ/mol
# Density = 2.357727 g / cm^3
# Si number density = 23.631056 Si / 1000 Ang^3
#
#
#
# Elastic Constant Matrix: (Units=GPa)
#
#
# Indices 1 2 3 4 5 6 
#
# 1 53.1231 36.1484 42.0661 0.0000 0.0000 0.0000
# 2 36.1484 150.5765 36.6433 0.0000 0.0000 0.0000
# 3 42.0661 36.6433 104.4855 0.0000 0.0000 0.0000
# 4 0.0000 0.0000 0.0000 4.4258 0.0000 0.0000
# 5 0.0000 0.0000 0.0000 0.0000 31.3632 0.0000
# 6 0.0000 0.0000 0.0000 0.0000 0.0000 17.2991
#
#
#
# Elastic Compliance Matrix: (Units=1/GPa)
#
#
# Indices 1 2 3 4 5 6 
#
# 1 0.030429 -0.004727 -0.010593 0.000000 0.000000 0.000000
# 2 -0.004727 0.007995 -0.000901 0.000000 0.000000 0.000000
# 3 -0.010593 -0.000901 0.014151 0.000000 0.000000 0.000000
# 4 0.000000 0.000000 0.000000 0.225949 0.000000 0.000000
# 5 0.000000 0.000000 0.000000 0.000000 0.031884 0.000000
# 6 0.000000 0.000000 0.000000 0.000000 0.000000 0.057807
#
#
# Mechanical properties :
#
#
# Convention : Reuss Voigt Hill
#
# Bulk Modulus (GPa) = 49.66778 59.76676 54.71727
# Shear Modulus (GPa) = 12.27388 23.50609 17.88999
#
# Velocity S-wave (km/s) = 2.28150 3.15733 2.75445
# Velocity P-wave (km/s) = 5.29188 6.21596 5.77244
#
# Compressibility (1/GPa) = 0.02013378
#
# Stress axis : x y z
#
# Youngs Moduli (GPa) = 32.86331 125.07527 70.66452
#
# Poissons Ratio (x) = 0.59125 0.74855
# Poissons Ratio (y) = 0.15535 0.06365
# Poissons Ratio (z) = 0.34812 0.11266
#
# Static dielectric constant tensor:
#      x y z
#    x 1.937890 0.000000 0.000000 
#    y 0.000000 1.916440 0.000000 
#    z 0.000000 0.000000 1.881900 
# 
# From -- ./inp_files/26538.got.cif
#   From: 2010.05.17/outbox.cif.g08.bks.cpg/sg70_14_cif.got.tgz:26538.got - 2010.06.03 15:57:51.
