data_PCOD9514756
_publ_section_title
;
Structure prediction by ZEFSAII (Michael W. Deem and Ramdas Pophale) SiO2 
 PCOD9514756
Probable space group: F D D D
;
_chemical_formula_sum "Si O2"
_cell_formula_units_Z 192
_cell_length_a 27.329869
_cell_length_b 11.426873
_cell_length_c 31.697403
_cell_angle_alpha 90.000000
_cell_angle_beta 90.000000
_cell_angle_gamma 90.000000
_cell_volume 9898.938637
_symmetry_space_group_name_H-M "F D D D"
_symmetry_group_IT_number 70
_space_group.IT_coordinate_system_code '2'
_symmetry_cell_setting 'orthorhombic'
loop_
_space_group_symop_operation_xyz
x,y,z
1/4-x,1/4-y,z
x,1/4-y,1/4-z
1/4-x,y,1/4-z
-x,-y,-z
3/4+x,3/4+y,-z
-x,3/4+y,3/4+z
3/4+x,-y,3/4+z
x,1/2+y,1/2+z
1/4-x,3/4-y,1/2+z
x,3/4-y,3/4-z
1/4-x,1/2+y,3/4-z
-x,1/2-y,1/2-z
3/4+x,1/4+y,1/2-z
-x,1/4+y,1/4+z
3/4+x,1/2-y,1/4+z
1/2+x,y,1/2+z
3/4-x,1/4-y,1/2+z
1/2+x,1/4-y,3/4-z
3/4-x,y,3/4-z
1/2-x,-y,1/2-z
1/4+x,3/4+y,1/2-z
1/2-x,3/4+y,1/4+z
1/4+x,-y,1/4+z
1/2+x,1/2+y,z
3/4-x,3/4-y,z
1/2+x,3/4-y,1/4-z
3/4-x,1/2+y,1/4-z
1/2-x,1/2-y,-z
1/4+x,1/4+y,-z
1/2-x,1/4+y,3/4+z
1/4+x,1/2-y,3/4+z
loop_
_atom_site_type_symbol
_atom_site_label
_atom_site_fract_x
_atom_site_fract_y
_atom_site_fract_z
Si Si1 0.028933 0.872341 0.995577
Si Si2 0.193959 0.958997 0.012933
Si Si3 0.128061 0.491658 0.220719
Si Si4 0.625000 0.625000 0.960075
Si Si5 0.625000 0.315051 0.125000
Si Si6 0.943090 0.708722 0.657595
Si Si7 0.455242 0.746620 0.387075
O O1 0.039779 0.876408 0.945870
O O2 0.992977 0.764913 0.006476
O O3 0.080337 0.839149 0.018006
O O4 0.000000 0.000000 0.000000
O O5 0.175244 0.826021 0.010227
O O6 0.199398 0.982658 0.062846
O O7 0.152196 0.035168 0.990598
O O8 0.125000 0.625000 0.236619
O O9 0.133424 0.496971 0.169746
O O10 0.662405 0.691709 0.929849
O O11 0.578346 0.397767 0.117228
O O12 0.914964 0.625000 0.625000
O O13 0.990409 0.757581 0.632786
O O14 0.436568 0.875000 0.375000
#
# Coordination Sequence:
#
# PCOD9514756 Si02
#       7
#    32  32  32  16  16  32  32
#     4  12  21  40  71  96 131 168 223 283 340 396
#     4  11  22  38  66  99 130 170 224 277 333 404
#     4  11  25  42  62  93 134 180 221 275 336 406
#     4  12  24  40  69  98 136 170 232 277 344 400
#     4  10  22  36  62  92 130 173 215 268 338 410
#     4  11  22  40  61  96 134 174 215 280 337 403
#     4  10  20  33  61  99 131 161 209 278 341 387
#
# _framework density 19.396018999999999
#
# number of rings (size 3 to 8) (size 9 to 14) (size 15 to 20)
#    0.000    1.000    6.667    1.500    4.667    0.667 
#    1.500    0.000    7.333    0.000    0.000    0.000 
#    0.000    0.000    0.000    0.000    0.000    0.000 
#
# Total GULP energy -267297.977616 kJ/mol
# GULP energy per Si atom -5568.707867 kJ/mol
# Density = 1.935187 g / cm^3
# Si number density = 19.396019 Si / 1000 Ang^3
#
#
#
# Elastic Constant Matrix: (Units=GPa)
#
#
# Indices 1 2 3 4 5 6 
#
# 1 82.9569 49.1596 27.6598 0.0000 0.0000 0.0000
# 2 49.1596 105.8539 17.6604 0.0000 0.0000 0.0000
# 3 27.6598 17.6604 83.3491 0.0000 0.0000 0.0000
# 4 0.0000 0.0000 0.0000 19.8274 0.0000 0.0000
# 5 0.0000 0.0000 0.0000 0.0000 34.7706 0.0000
# 6 0.0000 0.0000 0.0000 0.0000 0.0000 36.0165
#
#
#
# Elastic Compliance Matrix: (Units=1/GPa)
#
#
# Indices 1 2 3 4 5 6 
#
# 1 0.018045 -0.007652 -0.004367 0.000000 0.000000 0.000000
# 2 -0.007652 0.013038 -0.000223 0.000000 0.000000 0.000000
# 3 -0.004367 -0.000223 0.013494 0.000000 0.000000 0.000000
# 4 0.000000 0.000000 0.000000 0.050435 0.000000 0.000000
# 5 0.000000 0.000000 0.000000 0.000000 0.028760 0.000000
# 6 0.000000 0.000000 0.000000 0.000000 0.000000 0.027765
#
#
# Mechanical properties :
#
#
# Convention : Reuss Voigt Hill
#
# Bulk Modulus (GPa) = 49.76851 51.23548 50.50199
# Shear Modulus (GPa) = 27.36452 29.96823 28.66638
#
# Velocity S-wave (km/s) = 3.76018 3.93500 3.84858
# Velocity P-wave (km/s) = 6.67583 6.86429 6.77072
#
# Compressibility (1/GPa) = 0.02009303
#
# Stress axis : x y z
#
# Youngs Moduli (GPa) = 55.41763 76.70051 74.10564
#
# Poissons Ratio (x) = 0.58688 0.32362
# Poissons Ratio (y) = 0.42403 0.01655
# Poissons Ratio (z) = 0.24201 0.01713
#
# Static dielectric constant tensor:
#      x y z
#    x 1.750750 0.000000 0.000000 
#    y 0.000000 1.709470 0.000000 
#    z 0.000000 0.000000 1.668600 
# 
# From -- ./inp_files/68406.got.cif
#   From: 2010.05.17/outbox.cif.g08.bks.cpg/sg70_35_cif.got.tgz:68406.got - 2010.06.03 15:57:51.
