data_PCOD9514757
_publ_section_title
;
Structure prediction by ZEFSAII (Michael W. Deem and Ramdas Pophale) SiO2 
 PCOD9514757
Probable space group: F D D D
;
_chemical_formula_sum "Si O2"
_cell_formula_units_Z 192
_cell_length_a 21.173263
_cell_length_b 13.730199
_cell_length_c 32.195436
_cell_angle_alpha 90.000000
_cell_angle_beta 90.000000
_cell_angle_gamma 90.000000
_cell_volume 9359.635471
_symmetry_space_group_name_H-M "F D D D"
_symmetry_group_IT_number 70
_space_group.IT_coordinate_system_code '2'
_symmetry_cell_setting 'orthorhombic'
loop_
_space_group_symop_operation_xyz
x,y,z
1/4-x,1/4-y,z
x,1/4-y,1/4-z
1/4-x,y,1/4-z
-x,-y,-z
3/4+x,3/4+y,-z
-x,3/4+y,3/4+z
3/4+x,-y,3/4+z
x,1/2+y,1/2+z
1/4-x,3/4-y,1/2+z
x,3/4-y,3/4-z
1/4-x,1/2+y,3/4-z
-x,1/2-y,1/2-z
3/4+x,1/4+y,1/2-z
-x,1/4+y,1/4+z
3/4+x,1/2-y,1/4+z
1/2+x,y,1/2+z
3/4-x,1/4-y,1/2+z
1/2+x,1/4-y,3/4-z
3/4-x,y,3/4-z
1/2-x,-y,1/2-z
1/4+x,3/4+y,1/2-z
1/2-x,3/4+y,1/4+z
1/4+x,-y,1/4+z
1/2+x,1/2+y,z
3/4-x,3/4-y,z
1/2+x,3/4-y,1/4-z
3/4-x,1/2+y,1/4-z
1/2-x,1/2-y,-z
1/4+x,1/4+y,-z
1/2-x,1/4+y,3/4+z
1/4+x,1/2-y,3/4+z
loop_
_atom_site_type_symbol
_atom_site_label
_atom_site_fract_x
_atom_site_fract_y
_atom_site_fract_z
Si Si1 0.974040 0.269207 0.389040
Si Si2 0.443847 0.984966 0.939342
Si Si3 0.875000 0.607801 0.875000
Si Si4 0.877648 0.489376 0.636126
Si Si5 0.756874 0.681399 0.776961
Si Si6 0.125000 0.625000 0.260156
Si Si7 0.053304 0.349364 0.933387
O O1 0.951824 0.375000 0.375000
O O2 0.934240 0.180476 0.369091
O O3 0.048528 0.261245 0.378288
O O4 0.965909 0.255019 0.438798
O O5 0.390368 0.034154 0.911924
O O6 0.487035 0.075530 0.951732
O O7 0.414571 0.946329 0.981122
O O8 0.485455 0.897002 0.921219
O O9 0.875000 0.375000 0.645863
O O10 0.850192 0.561092 0.671707
O O11 0.832439 0.515322 0.596223
O O12 0.681545 0.692782 0.776640
O O13 0.791154 0.679615 0.731821
#
# Coordination Sequence:
#
# PCOD9514757 Si02
#       7
#    32  32  16  32  32  16  32
#     4  11  23  41  66  97 127 189 229 285 350 417
#     4  10  22  36  59  91 124 174 209 282 341 392
#     4  10  23  43  60  88 136 166 246 264 338 420
#     4  11  23  38  69  97 136 179 234 289 350 425
#     4  10  23  37  63  95 132 174 227 285 351 409
#     4  10  20  33  62  88 128 164 210 268 348 408
#     4  10  21  42  61  95 137 164 232 291 350 412
#
# _framework density 20.513618999999998
#
# number of rings (size 3 to 8) (size 9 to 14) (size 15 to 20)
#    0.000    1.667    1.667    4.250    5.833    8.333 
#    0.000    3.333    0.000    6.000    0.000    0.000 
#    0.000    0.000    0.000    0.000    0.000    0.000 
#
# Total GULP energy -267384.340761 kJ/mol
# GULP energy per Si atom -5570.507099 kJ/mol
# Density = 2.046693 g / cm^3
# Si number density = 20.513619 Si / 1000 Ang^3
#
#
#
# Elastic Constant Matrix: (Units=GPa)
#
#
# Indices 1 2 3 4 5 6 
#
# 1 96.7608 9.6703 35.0592 0.0000 0.0000 0.0000
# 2 9.6703 78.3050 28.0445 0.0000 0.0000 0.0000
# 3 35.0592 28.0445 118.9435 0.0000 0.0000 0.0000
# 4 0.0000 0.0000 0.0000 39.8530 0.0000 0.0000
# 5 0.0000 0.0000 0.0000 0.0000 40.5107 0.0000
# 6 0.0000 0.0000 0.0000 0.0000 0.0000 7.3048
#
#
#
# Elastic Compliance Matrix: (Units=1/GPa)
#
#
# Indices 1 2 3 4 5 6 
#
# 1 0.011574 -0.000227 -0.003358 0.000000 0.000000 0.000000
# 2 -0.000227 0.013953 -0.003223 0.000000 0.000000 0.000000
# 3 -0.003358 -0.003223 0.010157 0.000000 0.000000 0.000000
# 4 0.000000 0.000000 0.000000 0.025092 0.000000 0.000000
# 5 0.000000 0.000000 0.000000 0.000000 0.024685 0.000000
# 6 0.000000 0.000000 0.000000 0.000000 0.000000 0.136897
#
#
# Mechanical properties :
#
#
# Convention : Reuss Voigt Hill
#
# Bulk Modulus (GPa) = 45.31327 48.83968 47.07647
# Shear Modulus (GPa) = 20.54823 32.28273 26.41548
#
# Velocity S-wave (km/s) = 3.16838 3.97132 3.59235
# Velocity P-wave (km/s) = 5.96005 6.69990 6.34077
#
# Compressibility (1/GPa) = 0.02206859
#
# Stress axis : x y z
#
# Youngs Moduli (GPa) = 86.39950 71.66988 98.45347
#
# Poissons Ratio (x) = 0.01625 0.33062
# Poissons Ratio (y) = 0.01958 0.31731
# Poissons Ratio (z) = 0.29014 0.23099
#
# Static dielectric constant tensor:
#      x y z
#    x 1.428190 0.000000 0.000000 
#    y 0.000000 1.749830 0.000000 
#    z 0.000000 0.000000 1.834910 
# 
# From -- ./inp_files/67959.got.cif
#   From: 2010.05.17/outbox.cif.g08.bks.cpg/sg70_34_cif.got.tgz:67959.got - 2010.06.03 15:57:51.
