data_PCOD9514139
_publ_section_title
;
Structure prediction by ZEFSAII (Michael W. Deem and Ramdas Pophale) SiO2 
 PCOD9514139
Probable space group: F D D D
;
_chemical_formula_sum "Si O2"
_cell_formula_units_Z 136
_cell_length_a 28.960550
_cell_length_b 22.643291
_cell_length_c 10.299458
_cell_angle_alpha 90.000000
_cell_angle_beta 90.000000
_cell_angle_gamma 90.000000
_cell_volume 6753.994837
_symmetry_space_group_name_H-M "F D D D"
_symmetry_group_IT_number 70
_space_group.IT_coordinate_system_code '2'
_symmetry_cell_setting 'orthorhombic'
loop_
_space_group_symop_operation_xyz
x,y,z
1/4-x,1/4-y,z
x,1/4-y,1/4-z
1/4-x,y,1/4-z
-x,-y,-z
3/4+x,3/4+y,-z
-x,3/4+y,3/4+z
3/4+x,-y,3/4+z
x,1/2+y,1/2+z
1/4-x,3/4-y,1/2+z
x,3/4-y,3/4-z
1/4-x,1/2+y,3/4-z
-x,1/2-y,1/2-z
3/4+x,1/4+y,1/2-z
-x,1/4+y,1/4+z
3/4+x,1/2-y,1/4+z
1/2+x,y,1/2+z
3/4-x,1/4-y,1/2+z
1/2+x,1/4-y,3/4-z
3/4-x,y,3/4-z
1/2-x,-y,1/2-z
1/4+x,3/4+y,1/2-z
1/2-x,3/4+y,1/4+z
1/4+x,-y,1/4+z
1/2+x,1/2+y,z
3/4-x,3/4-y,z
1/2+x,3/4-y,1/4-z
3/4-x,1/2+y,1/4-z
1/2-x,1/2-y,-z
1/4+x,1/4+y,-z
1/2-x,1/4+y,3/4+z
1/4+x,1/2-y,3/4+z
loop_
_atom_site_type_symbol
_atom_site_label
_atom_site_fract_x
_atom_site_fract_y
_atom_site_fract_z
Si Si1 0.489729 0.422846 0.257487
Si Si2 0.663843 0.886712 0.520761
Si Si3 0.928108 0.745477 0.331123
Si Si4 0.625000 0.125000 0.625000
Si Si5 0.078664 0.656000 0.377226
O O1 0.487193 0.375000 0.375000
O O2 0.543491 0.431537 0.230304
O O3 0.462225 0.478797 0.310864
O O4 0.461863 0.391510 0.141760
O O5 0.625000 0.901407 0.625000
O O6 0.645112 0.875000 0.375000
O O7 0.685995 0.823314 0.558055
O O8 0.875000 0.751451 0.375000
O O9 0.932872 0.785195 0.201927
O O10 0.593661 0.162893 0.526396
O O11 0.125000 0.625000 0.316073
#
# Coordination Sequence:
#
# PCOD9514139 Si02
#       5
#    32  32  32   8  32
#     4   9  18  31  58  84 106 145 200 241 283 342
#     4  10  23  41  57  84 118 160 195 243 295 352
#     4  10  17  33  63  83 111 147 199 240 297 339
#     4   8  16  28  42  80 128 132 168 226 312 324
#     4   9  16  28  50  84 114 139 180 249 284 343
#
# _framework density 20.136230999999999
#
# number of rings (size 3 to 8) (size 9 to 14) (size 15 to 20)
#    0.706    1.882    2.353    0.000    0.000    8.471 
#    4.235    0.000    0.000    2.824    0.000    4.941 
#    0.000    0.000    0.000    0.000    0.000    0.000 
#
# Total GULP energy -189572.109968 kJ/mol
# GULP energy per Si atom -5575.650293 kJ/mol
# Density = 2.009040 g / cm^3
# Si number density = 20.136231 Si / 1000 Ang^3
#
#
#
# Elastic Constant Matrix: (Units=GPa)
#
#
# Indices 1 2 3 4 5 6 
#
# 1 118.1882 20.0400 55.1359 0.0001 0.0000 0.0000
# 2 20.0400 51.7440 11.6020 0.0000 0.0000 0.0000
# 3 55.1359 11.6020 104.2205 -0.0002 0.0001 0.0000
# 4 0.0001 0.0000 -0.0002 17.0268 0.0000 0.0000
# 5 0.0000 0.0000 0.0001 0.0000 32.1773 0.0000
# 6 0.0000 0.0000 0.0000 0.0000 0.0000 6.8412
#
#
#
# Elastic Compliance Matrix: (Units=1/GPa)
#
#
# Indices 1 2 3 4 5 6 
#
# 1 0.011739 -0.003235 -0.005850 0.000000 0.000000 0.000000
# 2 -0.003235 0.020712 -0.000595 0.000000 0.000000 0.000000
# 3 -0.005850 -0.000595 0.012756 0.000000 0.000000 0.000000
# 4 0.000000 0.000000 0.000000 0.058731 0.000000 0.000000
# 5 0.000000 0.000000 0.000000 0.000000 0.031078 0.000000
# 6 0.000000 0.000000 0.000000 0.000000 0.000000 0.146174
#
#
# Mechanical properties :
#
#
# Convention : Reuss Voigt Hill
#
# Bulk Modulus (GPa) = 38.68707 49.74539 44.21623
# Shear Modulus (GPa) = 16.17264 23.70069 19.93667
#
# Velocity S-wave (km/s) = 2.83708 3.43449 3.14998
# Velocity P-wave (km/s) = 5.47599 6.36284 5.93600
#
# Compressibility (1/GPa) = 0.02584843
#
# Stress axis : x y z
#
# Youngs Moduli (GPa) = 85.18886 48.28133 78.39406
#
# Poissons Ratio (x) = 0.15617 0.45861
# Poissons Ratio (y) = 0.27555 0.04661
# Poissons Ratio (z) = 0.49836 0.02870
#
# Static dielectric constant tensor:
#      x y z
#    x 1.756200 0.000000 0.000000 
#    y 0.000000 1.722730 0.000000 
#    z 0.000000 0.000000 1.724140 
# 
# From -- ./inp_files/22099.got.cif
#   From: 2010.05.17/outbox.cif.g08.bks.cpg/sg70_12_cif.got.tgz:22099.got - 2010.06.03 15:57:51.
