data_PCOD9514927
_publ_section_title
;
Structure prediction by ZEFSAII (Michael W. Deem and Ramdas Pophale) SiO2 
 PCOD9514927
Probable space group: F D D D
;
_chemical_formula_sum "Si O2"
_cell_formula_units_Z 144
_cell_length_a 17.988051
_cell_length_b 17.931891
_cell_length_c 20.544187
_cell_angle_alpha 90.000000
_cell_angle_beta 90.000000
_cell_angle_gamma 90.000000
_cell_volume 6626.728230
_symmetry_space_group_name_H-M "F D D D"
_symmetry_group_IT_number 70
_space_group.IT_coordinate_system_code '2'
_symmetry_cell_setting 'orthorhombic'
loop_
_space_group_symop_operation_xyz
x,y,z
1/4-x,1/4-y,z
x,1/4-y,1/4-z
1/4-x,y,1/4-z
-x,-y,-z
3/4+x,3/4+y,-z
-x,3/4+y,3/4+z
3/4+x,-y,3/4+z
x,1/2+y,1/2+z
1/4-x,3/4-y,1/2+z
x,3/4-y,3/4-z
1/4-x,1/2+y,3/4-z
-x,1/2-y,1/2-z
3/4+x,1/4+y,1/2-z
-x,1/4+y,1/4+z
3/4+x,1/2-y,1/4+z
1/2+x,y,1/2+z
3/4-x,1/4-y,1/2+z
1/2+x,1/4-y,3/4-z
3/4-x,y,3/4-z
1/2-x,-y,1/2-z
1/4+x,3/4+y,1/2-z
1/2-x,3/4+y,1/4+z
1/4+x,-y,1/4+z
1/2+x,1/2+y,z
3/4-x,3/4-y,z
1/2+x,3/4-y,1/4-z
3/4-x,1/2+y,1/4-z
1/2-x,1/2-y,-z
1/4+x,1/4+y,-z
1/2-x,1/4+y,3/4+z
1/4+x,1/2-y,3/4+z
loop_
_atom_site_type_symbol
_atom_site_label
_atom_site_fract_x
_atom_site_fract_y
_atom_site_fract_z
Si Si1 0.125000 0.125000 0.005105
Si Si2 0.472058 0.946632 0.686667
Si Si3 0.299460 0.275660 0.560553
Si Si4 0.009849 0.800660 0.813522
Si Si5 0.829553 0.719533 0.692973
O O1 0.196105 0.139291 0.050992
O O2 0.141551 0.053678 0.959832
O O3 0.387795 0.970522 0.704398
O O4 0.471526 0.859617 0.667965
O O5 0.497952 0.999088 0.627191
O O6 0.525379 0.950821 0.748636
O O7 0.250000 0.250000 0.500000
O O8 0.291163 0.222615 0.623040
O O9 0.094857 0.828680 0.810394
O O10 0.000000 0.750000 0.750000
#
# Coordination Sequence:
#
# PCOD9514927 Si02
#       5
#    16  32  32  32  32
#     4  10  20  37  60  92 130 161 190 232 302 383
#     4  10  22  40  61  87 119 156 203 253 303 361
#     4  10  22  42  62  82 115 158 205 260 308 353
#     4   9  19  36  59  88 124 161 194 238 295 364
#     4  10  21  38  61  88 120 161 202 246 302 366
#
# _framework density 21.730181000000002
#
# number of rings (size 3 to 8) (size 9 to 14) (size 15 to 20)
#    0.000    2.222    0.000    4.000    0.000    8.889 
#    0.000   11.111    0.000    0.000    0.000    0.000 
#    0.000    0.000    0.000    0.000    0.000    0.000 
#
# Total GULP energy -201214.749918 kJ/mol
# GULP energy per Si atom -5589.298609 kJ/mol
# Density = 2.168072 g / cm^3
# Si number density = 21.730181 Si / 1000 Ang^3
#
#
#
# Elastic Constant Matrix: (Units=GPa)
#
#
# Indices 1 2 3 4 5 6 
#
# 1 103.6733 31.2048 85.2458 0.0000 0.0000 0.0000
# 2 31.2048 54.8043 15.2815 0.0000 0.0000 0.0000
# 3 85.2458 15.2815 164.9661 0.0000 0.0000 0.0000
# 4 0.0000 0.0000 0.0000 38.4972 0.0000 0.0000
# 5 0.0000 0.0000 0.0000 0.0000 38.8872 0.0000
# 6 0.0000 0.0000 0.0000 0.0000 0.0000 38.0381
#
#
#
# Elastic Compliance Matrix: (Units=1/GPa)
#
#
# Indices 1 2 3 4 5 6 
#
# 1 0.020224 -0.008829 -0.009633 0.000000 0.000000 0.000000
# 2 -0.008829 0.022585 0.002470 0.000000 0.000000 0.000000
# 3 -0.009633 0.002470 0.010811 0.000000 0.000000 0.000000
# 4 0.000000 0.000000 0.000000 0.025976 0.000000 0.000000
# 5 0.000000 0.000000 0.000000 0.000000 0.025715 0.000000
# 6 0.000000 0.000000 0.000000 0.000000 0.000000 0.026289
#
#
# Mechanical properties :
#
#
# Convention : Reuss Voigt Hill
#
# Bulk Modulus (GPa) = 46.21830 65.21200 55.71515
# Shear Modulus (GPa) = 29.27480 35.86527 32.57003
#
# Velocity S-wave (km/s) = 3.67440 4.06702 3.87568
# Velocity P-wave (km/s) = 6.27032 7.22006 6.76188
#
# Compressibility (1/GPa) = 0.02163645
#
# Stress axis : x y z
#
# Youngs Moduli (GPa) = 49.44702 44.27692 92.50121
#
# Poissons Ratio (x) = 0.39093 0.89103
# Poissons Ratio (y) = 0.43657 -0.22850
# Poissons Ratio (z) = 0.47631 -0.10938
#
# Static dielectric constant tensor:
#      x y z
#    x 1.808950 0.000000 0.000000 
#    y 0.000000 1.813990 0.000000 
#    z 0.000000 0.000000 1.792400 
# 
# From -- ./inp_files/36214.got.cif
#   From: 2010.05.17/outbox.cif.g08.bks.cpg/sg70_19_cif.got.tgz:36214.got - 2010.06.03 15:57:51.
