data_PCOD9514470
_publ_section_title
;
Structure prediction by ZEFSAII (Michael W. Deem and Ramdas Pophale) SiO2 
 PCOD9514470
Probable space group: F D D D
;
_chemical_formula_sum "Si O2"
_cell_formula_units_Z 144
_cell_length_a 10.998621
_cell_length_b 26.444783
_cell_length_c 27.331838
_cell_angle_alpha 90.000000
_cell_angle_beta 90.000000
_cell_angle_gamma 90.000000
_cell_volume 7949.633054
_symmetry_space_group_name_H-M "F D D D"
_symmetry_group_IT_number 70
_space_group.IT_coordinate_system_code '2'
_symmetry_cell_setting 'orthorhombic'
loop_
_space_group_symop_operation_xyz
x,y,z
1/4-x,1/4-y,z
x,1/4-y,1/4-z
1/4-x,y,1/4-z
-x,-y,-z
3/4+x,3/4+y,-z
-x,3/4+y,3/4+z
3/4+x,-y,3/4+z
x,1/2+y,1/2+z
1/4-x,3/4-y,1/2+z
x,3/4-y,3/4-z
1/4-x,1/2+y,3/4-z
-x,1/2-y,1/2-z
3/4+x,1/4+y,1/2-z
-x,1/4+y,1/4+z
3/4+x,1/2-y,1/4+z
1/2+x,y,1/2+z
3/4-x,1/4-y,1/2+z
1/2+x,1/4-y,3/4-z
3/4-x,y,3/4-z
1/2-x,-y,1/2-z
1/4+x,3/4+y,1/2-z
1/2-x,3/4+y,1/4+z
1/4+x,-y,1/4+z
1/2+x,1/2+y,z
3/4-x,3/4-y,z
1/2+x,3/4-y,1/4-z
3/4-x,1/2+y,1/4-z
1/2-x,1/2-y,-z
1/4+x,1/4+y,-z
1/2-x,1/4+y,3/4+z
1/4+x,1/2-y,3/4+z
loop_
_atom_site_type_symbol
_atom_site_label
_atom_site_fract_x
_atom_site_fract_y
_atom_site_fract_z
Si Si1 0.506553 0.098160 0.804934
Si Si2 0.995705 0.575847 0.098424
Si Si3 0.020253 0.940976 0.509697
Si Si4 0.625000 0.823191 0.125000
Si Si5 0.365022 0.964732 0.645107
O O1 0.625000 0.125000 0.782006
O O2 0.411301 0.070273 0.770476
O O3 0.428610 0.140991 0.832700
O O4 0.556957 0.060332 0.846617
O O5 0.940224 0.625000 0.125000
O O6 0.922167 0.523509 0.102634
O O7 0.125000 0.567351 0.125000
O O8 0.014027 0.586185 0.040710
O O9 0.942303 0.933707 0.559110
O O10 0.000000 0.000000 0.500000
O O11 0.740348 0.791883 0.143846
#
# Coordination Sequence:
#
# PCOD9514470 Si02
#       5
#    32  32  32  16  32
#     4  10  19  34  56  88 117 139 185 246 301 347
#     4  10  22  38  56  80 107 152 198 243 280 342
#     4  10  19  35  61  83 111 154 196 240 298 356
#     4  10  20  30  55  88 109 148 172 238 294 348
#     4  10  19  36  57  84 118 142 192 240 296 347
#
# _framework density 18.114045000000001
#
# number of rings (size 3 to 8) (size 9 to 14) (size 15 to 20)
#    0.000    2.000    2.222    2.667    0.000    3.556 
#    0.000    5.000    0.000   14.667    0.000    0.000 
#    0.000    0.000    0.000    0.000    0.000    0.000 
#
# Total GULP energy -200683.170538 kJ/mol
# GULP energy per Si atom -5574.532515 kJ/mol
# Density = 1.807282 g / cm^3
# Si number density = 18.114045 Si / 1000 Ang^3
#
#
#
# Elastic Constant Matrix: (Units=GPa)
#
#
# Indices 1 2 3 4 5 6 
#
# 1 158.2304 54.8873 48.4000 0.0000 0.0000 0.0000
# 2 54.8873 103.6278 26.9232 0.0000 0.0000 0.0000
# 3 48.4000 26.9232 95.2812 0.0000 0.0000 0.0000
# 4 0.0000 0.0000 0.0000 79.9143 0.0000 0.0000
# 5 0.0000 0.0000 0.0000 0.0000 3.5613 0.0000
# 6 0.0000 0.0000 0.0000 0.0000 0.0000 21.7161
#
#
#
# Elastic Compliance Matrix: (Units=1/GPa)
#
#
# Indices 1 2 3 4 5 6 
#
# 1 0.008624 -0.003701 -0.003335 0.000000 0.000000 0.000000
# 2 -0.003701 0.012003 -0.001512 0.000000 0.000000 0.000000
# 3 -0.003335 -0.001512 0.012616 0.000000 0.000000 0.000000
# 4 0.000000 0.000000 0.000000 0.012513 0.000000 0.000000
# 5 0.000000 0.000000 0.000000 0.000000 0.280797 0.000000
# 6 0.000000 0.000000 0.000000 0.000000 0.000000 0.046049
#
#
# Mechanical properties :
#
#
# Convention : Reuss Voigt Hill
#
# Bulk Modulus (GPa) = 61.92706 68.61783 65.27245
# Shear Modulus (GPa) = 12.65564 36.16693 24.41128
#
# Velocity S-wave (km/s) = 2.64609 4.47321 3.67501
# Velocity P-wave (km/s) = 6.60282 8.04007 7.35663
#
# Compressibility (1/GPa) = 0.01614803
#
# Stress axis : x y z
#
# Youngs Moduli (GPa) = 115.95715 83.31226 79.26228
#
# Poissons Ratio (x) = 0.30836 0.26433
# Poissons Ratio (y) = 0.42919 0.11981
# Poissons Ratio (z) = 0.38670 0.12593
#
# Static dielectric constant tensor:
#      x y z
#    x 1.615380 0.000000 0.000000 
#    y 0.000000 1.639910 0.000000 
#    z 0.000000 0.000000 1.670430 
# 
# From -- ./inp_files/20783.got.cif
#   From: 2010.05.17/outbox.cif.g08.bks.cpg/sg70_11_cif.got.tgz:20783.got - 2010.06.03 15:57:51.
