data_PCOD9514548
_publ_section_title
;
Structure prediction by ZEFSAII (Michael W. Deem and Ramdas Pophale) SiO2 
 PCOD9514548
Probable space group: F D D D
;
_chemical_formula_sum "Si O2"
_cell_formula_units_Z 240
_cell_length_a 29.347406
_cell_length_b 19.791366
_cell_length_c 19.674678
_cell_angle_alpha 90.000000
_cell_angle_beta 90.000000
_cell_angle_gamma 90.000000
_cell_volume 11427.549833
_symmetry_space_group_name_H-M "F D D D"
_symmetry_group_IT_number 70
_space_group.IT_coordinate_system_code '2'
_symmetry_cell_setting 'orthorhombic'
loop_
_space_group_symop_operation_xyz
x,y,z
1/4-x,1/4-y,z
x,1/4-y,1/4-z
1/4-x,y,1/4-z
-x,-y,-z
3/4+x,3/4+y,-z
-x,3/4+y,3/4+z
3/4+x,-y,3/4+z
x,1/2+y,1/2+z
1/4-x,3/4-y,1/2+z
x,3/4-y,3/4-z
1/4-x,1/2+y,3/4-z
-x,1/2-y,1/2-z
3/4+x,1/4+y,1/2-z
-x,1/4+y,1/4+z
3/4+x,1/2-y,1/4+z
1/2+x,y,1/2+z
3/4-x,1/4-y,1/2+z
1/2+x,1/4-y,3/4-z
3/4-x,y,3/4-z
1/2-x,-y,1/2-z
1/4+x,3/4+y,1/2-z
1/2-x,3/4+y,1/4+z
1/4+x,-y,1/4+z
1/2+x,1/2+y,z
3/4-x,3/4-y,z
1/2+x,3/4-y,1/4-z
3/4-x,1/2+y,1/4-z
1/2-x,1/2-y,-z
1/4+x,1/4+y,-z
1/2-x,1/4+y,3/4+z
1/4+x,1/2-y,3/4+z
loop_
_atom_site_type_symbol
_atom_site_label
_atom_site_fract_x
_atom_site_fract_y
_atom_site_fract_z
Si Si1 0.601737 0.275664 0.774909
Si Si2 0.020754 0.541619 0.704425
Si Si3 0.452794 0.045330 0.189802
Si Si4 0.439897 0.182649 0.865304
Si Si5 0.454314 0.793142 0.685911
Si Si6 0.706455 0.103464 0.820615
Si Si7 0.803648 0.125000 0.625000
Si Si8 0.554777 0.423802 0.517545
O O1 0.654223 0.262029 0.790688
O O2 0.591802 0.301305 0.698721
O O3 0.572686 0.210748 0.797993
O O4 0.584492 0.336408 0.821790
O O5 0.009672 0.480180 0.755927
O O6 0.055416 0.504184 0.654233
O O7 0.039395 0.599636 0.753810
O O8 0.979083 0.571865 0.662924
O O9 0.441788 0.122288 0.204765
O O10 0.467276 0.013995 0.119440
O O11 0.491340 0.167015 0.838573
O O12 0.428162 0.119912 0.916549
O O13 0.437787 0.854704 0.636760
O O14 0.501093 0.817418 0.718914
O O15 0.427465 0.747858 0.742710
#
# Coordination Sequence:
#
# PCOD9514548 Si02
#       8
#    32  32  32  32  32  32  16  32
#     4  12  24  36  59  91 120 158 201 265 309 354
#     4  10  20  35  56  84 114 168 204 236 294 375
#     4  10  23  38  61  90 124 150 205 263 310 365
#     4  10  19  36  57  84 121 162 206 245 298 378
#     4   9  19  36  60  86 117 157 198 252 310 368
#     4  10  19  36  57  84 121 162 206 245 298 378
#     4  12  22  36  60  87 120 166 210 234 315 384
#     4   9  19  36  60  86 117 157 198 252 310 368
#
# _framework density 21.001878000000001
#
# number of rings (size 3 to 8) (size 9 to 14) (size 15 to 20)
#    0.000    1.867    2.667    1.600    1.867    4.267 
#    0.000    1.333    0.000    0.000    0.000    0.000 
#    0.000    0.000    0.000    0.000    0.000    0.000 
#
# Total GULP energy -334146.948661 kJ/mol
# GULP energy per Si atom -5569.115811 kJ/mol
# Density = 2.095408 g / cm^3
# Si number density = 21.001878 Si / 1000 Ang^3
#
#
#
# Elastic Constant Matrix: (Units=GPa)
#
#
# Indices 1 2 3 4 5 6 
#
# 1 58.4231 26.9643 26.1852 0.0000 0.0000 0.0000
# 2 26.9643 80.0094 35.0497 0.0000 0.0000 0.0000
# 3 26.1852 35.0497 104.0568 0.0000 0.0000 0.0000
# 4 0.0000 0.0000 0.0000 53.1155 0.0000 0.0000
# 5 0.0000 0.0000 0.0000 0.0000 -11.6223 0.0000
# 6 0.0000 0.0000 0.0000 0.0000 0.0000 12.8537
#
#
#
# Elastic Compliance Matrix: (Units=1/GPa)
#
#
# Indices 1 2 3 4 5 6 
#
# 1 0.021274 -0.005659 -0.003447 0.000000 0.000000 0.000000
# 2 -0.005659 0.016168 -0.004022 0.000000 0.000000 0.000000
# 3 -0.003447 -0.004022 0.011832 0.000000 0.000000 0.000000
# 4 0.000000 0.000000 0.000000 0.018827 0.000000 0.000000
# 5 0.000000 0.000000 0.000000 0.000000 -0.086042 0.000000
# 6 0.000000 0.000000 0.000000 0.000000 0.000000 0.077799
#
#
# Mechanical properties :
#
#
# Convention : Reuss Voigt Hill
#
# Bulk Modulus (GPa) = 43.44600 46.54307 44.99454
# Shear Modulus (GPa) = 53.31286 21.15537 37.23412
#
# Velocity S-wave (km/s) = 5.04380 3.17726 4.21514
# Velocity P-wave (km/s) = 7.39267 5.97239 6.72015
#
# Compressibility (1/GPa) = 0.02301708
#
# Stress axis : x y z
#
# Youngs Moduli (GPa) = 47.00683 61.85212 84.51537
#
# Poissons Ratio (x) = 0.35005 0.29133
# Poissons Ratio (y) = 0.26603 0.33989
# Poissons Ratio (z) = 0.16203 0.24874
#
# Static dielectric constant tensor:
#      x y z
#    x 1.734620 0.000000 0.000000 
#    y 0.000000 1.841240 0.000000 
#    z 0.000000 0.000000 1.837760 
# 
# From -- ./inp_files/47841.got.cif
#   From: 2010.05.17/outbox.cif.g08.bks.cpg/sg70_24_cif.got.tgz:47841.got - 2010.06.03 15:57:51.
