data_PCOD9514026
_publ_section_title
;
Structure prediction by ZEFSAII (Michael W. Deem and Ramdas Pophale) SiO2 
 PCOD9514026
Probable space group: F M M M
;
_chemical_formula_sum "Si O2"
_cell_formula_units_Z 40
_cell_length_a 27.000000
_cell_length_b 18.000000
_cell_length_c 18.000000
_cell_angle_alpha 90.000000
_cell_angle_beta 90.000000
_cell_angle_gamma 90.000000
_cell_volume 8748.000000
_symmetry_space_group_name_H-M "F M M M"
_symmetry_group_IT_number 69
_symmetry_cell_setting 'orthorhombic'
loop_
_space_group_symop_operation_xyz
x,y,z
-x,-y,z
x,-y,-z
-x,y,-z
-x,-y,-z
x,y,-z
-x,y,z
x,-y,z
x,1/2+y,1/2+z
-x,1/2-y,1/2+z
x,1/2-y,1/2-z
-x,1/2+y,1/2-z
-x,1/2-y,1/2-z
x,1/2+y,1/2-z
-x,1/2+y,1/2+z
x,1/2-y,1/2+z
1/2+x,y,1/2+z
1/2-x,-y,1/2+z
1/2+x,-y,1/2-z
1/2-x,y,1/2-z
1/2-x,-y,1/2-z
1/2+x,y,1/2-z
1/2-x,y,1/2+z
1/2+x,-y,1/2+z
1/2+x,1/2+y,z
1/2-x,1/2-y,z
1/2+x,1/2-y,-z
1/2-x,1/2+y,-z
1/2-x,1/2-y,-z
1/2+x,1/2+y,-z
1/2-x,1/2+y,z
1/2+x,1/2-y,z
loop_
_atom_site_type_symbol
_atom_site_label
_atom_site_fract_x
_atom_site_fract_y
_atom_site_fract_z
Si Si1 0.439089 0.698299 0.500000
Si Si2 0.309658 0.414690 0.084265
Si Si3 0.654127 0.592592 0.500000
Si Si4 0.095500 0.320092 0.380647
Si Si5 0.721421 0.325101 0.624055
Si Si6 0.000000 0.588133 0.589217
Si Si7 0.655475 0.750000 0.750000
O O1 0.500000 0.687493 0.500000
O O2 0.402624 0.625725 0.500000
O O3 0.422409 0.749534 0.570401
O O4 0.321307 0.500000 0.102424
O O5 0.358821 0.365203 0.083699
O O6 0.267519 0.380445 0.136547
O O7 0.288879 0.412856 0.000000
O O8 0.656212 0.500000 0.500000
O O9 0.683341 0.631543 0.430506
O O10 0.048642 0.374195 0.377292
O O11 0.118960 0.296020 0.302927
O O12 0.750000 0.250000 0.594075
O O13 0.690801 0.297836 0.695580
O O14 0.000000 0.500000 0.599305
O O15 0.000000 0.603297 0.500000
#
# Coordination Sequence:
#
# PCOD9514026 Si02
#       7
#    16  32  16  32  32  16  16
#     4  12  22  44  74  99 120 165 228 272 323 380
#     4  11  22  36  62  98 131 165 211 272 332 382
#     4  12  25  44  70 101 134 170 220 280 327 375
#     4  12  22  41  65  97 126 169 217 269 320 395
#     4  12  23  41  66  93 130 174 221 267 317 384
#     4  11  22  41  70 100 126 156 207 280 339 381
#     4  12  27  39  64  90 134 173 222 263 318 388
#
# _framework density 4.5724739999999997
#
# number of rings (size 3 to 8) (size 9 to 14) (size 15 to 20)
#    0.000    0.300    8.000    1.800    0.000    2.200 
#    0.000    5.000    0.000    0.000    0.000    0.000 
#    0.000    0.000    0.000    0.000    0.000    0.000 
#
# Total GULP energy -223258.849243 kJ/mol
# GULP energy per Si atom -5581.471231 kJ/mol
# Density = 0.456207 g / cm^3
# Si number density = 4.572474 Si / 1000 Ang^3
#
#
#
# Elastic Constant Matrix: (Units=GPa)
#
#
# Indices 1 2 3 4 5 6 
#
# 1 178.4740 65.9311 60.7343 0.0000 0.0000 0.0000
# 2 65.9311 130.2840 56.0782 0.0000 0.0000 0.0000
# 3 60.7343 56.0782 104.8797 0.0000 0.0000 0.0000
# 4 0.0000 0.0000 0.0000 16.6266 0.0000 0.0000
# 5 0.0000 0.0000 0.0000 0.0000 27.0985 0.0000
# 6 0.0000 0.0000 0.0000 0.0000 0.0000 31.3809
#
#
#
# Elastic Compliance Matrix: (Units=1/GPa)
#
#
# Indices 1 2 3 4 5 6 
#
# 1 0.007568 -0.002524 -0.003033 0.000000 0.000000 0.000000
# 2 -0.002524 0.010812 -0.004319 0.000000 0.000000 0.000000
# 3 -0.003033 -0.004319 0.013600 0.000000 0.000000 0.000000
# 4 0.000000 0.000000 0.000000 0.060145 0.000000 0.000000
# 5 0.000000 0.000000 0.000000 0.000000 0.036902 0.000000
# 6 0.000000 0.000000 0.000000 0.000000 0.000000 0.031867
#
#
# Mechanical properties :
#
#
# Convention : Reuss Voigt Hill
#
# Bulk Modulus (GPa) = 81.78190 86.56941 84.17566
# Shear Modulus (GPa) = 27.06771 30.41414 28.74092
#
# Velocity S-wave (km/s) = 3.85116 4.08228 3.96840
# Velocity P-wave (km/s) = 8.03657 8.34593 8.19271
#
# Compressibility (1/GPa) = 0.01222764
#
# Stress axis : x y z
#
# Youngs Moduli (GPa) = 132.14340 92.48831 73.52748
#
# Poissons Ratio (x) = 0.23347 0.22297
# Poissons Ratio (y) = 0.33357 0.31759
# Poissons Ratio (z) = 0.40073 0.39949
#
# Static dielectric constant tensor:
#      x y z
#    x 1.624810 0.000000 0.000000 
#    y 0.000000 1.647830 0.000000 
#    z 0.000000 0.000000 1.678410 
# 
# From -- ./inp_files/26713.got.cif
#   From: 2010.05.17/outbox.ucp.g08.bks.cvg/sg69_14_cif.got.tgz:26713.got - 2010.06.11 16:51:34.
