data_PCOD9514969
_publ_section_title
;
Structure prediction by ZEFSAII (Michael W. Deem and Ramdas Pophale) SiO2 
 PCOD9514969
Probable space group: F D D D
;
_chemical_formula_sum "Si O2"
_cell_formula_units_Z 192
_cell_length_a 17.810301
_cell_length_b 24.174216
_cell_length_c 20.754879
_cell_angle_alpha 90.000000
_cell_angle_beta 90.000000
_cell_angle_gamma 90.000000
_cell_volume 8936.014469
_symmetry_space_group_name_H-M "F D D D"
_symmetry_group_IT_number 70
_space_group.IT_coordinate_system_code '2'
_symmetry_cell_setting 'orthorhombic'
loop_
_space_group_symop_operation_xyz
x,y,z
1/4-x,1/4-y,z
x,1/4-y,1/4-z
1/4-x,y,1/4-z
-x,-y,-z
3/4+x,3/4+y,-z
-x,3/4+y,3/4+z
3/4+x,-y,3/4+z
x,1/2+y,1/2+z
1/4-x,3/4-y,1/2+z
x,3/4-y,3/4-z
1/4-x,1/2+y,3/4-z
-x,1/2-y,1/2-z
3/4+x,1/4+y,1/2-z
-x,1/4+y,1/4+z
3/4+x,1/2-y,1/4+z
1/2+x,y,1/2+z
3/4-x,1/4-y,1/2+z
1/2+x,1/4-y,3/4-z
3/4-x,y,3/4-z
1/2-x,-y,1/2-z
1/4+x,3/4+y,1/2-z
1/2-x,3/4+y,1/4+z
1/4+x,-y,1/4+z
1/2+x,1/2+y,z
3/4-x,3/4-y,z
1/2+x,3/4-y,1/4-z
3/4-x,1/2+y,1/4-z
1/2-x,1/2-y,-z
1/4+x,1/4+y,-z
1/2-x,1/4+y,3/4+z
1/4+x,1/2-y,3/4+z
loop_
_atom_site_type_symbol
_atom_site_label
_atom_site_fract_x
_atom_site_fract_y
_atom_site_fract_z
Si Si1 0.333480 0.679094 0.090899
Si Si2 0.523728 0.171863 0.750791
Si Si3 0.693768 0.701490 0.221538
Si Si4 0.222229 0.004288 0.584305
Si Si5 0.435099 0.031843 0.961440
Si Si6 0.213368 0.754294 0.394648
O O1 0.364430 0.625000 0.125000
O O2 0.253836 0.693936 0.124872
O O3 0.386813 0.731610 0.106862
O O4 0.332689 0.671405 0.013882
O O5 0.606047 0.189003 0.724275
O O6 0.516342 0.107034 0.737992
O O7 0.466012 0.206142 0.707425
O O8 0.524409 0.193878 0.824370
O O9 0.718929 0.741541 0.278832
O O10 0.722610 0.726432 0.154860
O O11 0.215218 0.956800 0.639762
O O12 0.140008 0.004324 0.551912
O O13 0.500000 0.000000 0.000000
#
# Coordination Sequence:
#
# PCOD9514969 Si02
#       6
#    32  32  32  32  32  32
#     4  11  21  37  62  91 118 159 207 252 314 375
#     4  10  23  37  58  91 123 165 214 247 308 375
#     4  11  20  39  62  86 125 165 202 258 316 366
#     4  10  20  38  60  85 120 160 194 256 316 371
#     4   9  20  39  61  84 114 154 201 248 311 377
#     4  11  21  37  60  89 125 166 206 260 303 377
#
# _framework density 21.486089
#
# number of rings (size 3 to 8) (size 9 to 14) (size 15 to 20)
#    0.000    1.667    3.333    2.000    0.000    1.333 
#    3.000    6.667    3.667    0.000    0.000    0.000 
#    0.000    0.000    0.000    0.000    0.000    0.000 
#
# Total GULP energy -267476.915031 kJ/mol
# GULP energy per Si atom -5572.435730 kJ/mol
# Density = 2.143719 g / cm^3
# Si number density = 21.486089 Si / 1000 Ang^3
#
#
#
# Elastic Constant Matrix: (Units=GPa)
#
#
# Indices 1 2 3 4 5 6 
#
# 1 70.6091 -0.7274 14.5444 0.0000 0.0000 0.0000
# 2 -0.7274 33.6942 29.7555 0.0000 0.0000 0.0000
# 3 14.5444 29.7555 134.6394 0.0000 0.0000 0.0000
# 4 0.0000 0.0000 0.0000 25.5742 0.0000 0.0000
# 5 0.0000 0.0000 0.0000 0.0000 42.7131 0.0000
# 6 0.0000 0.0000 0.0000 0.0000 0.0000 20.4173
#
#
#
# Elastic Compliance Matrix: (Units=1/GPa)
#
#
# Indices 1 2 3 4 5 6 
#
# 1 0.014606 0.002123 -0.002047 0.000000 0.000000 0.000000
# 2 0.002123 0.037184 -0.008447 0.000000 0.000000 0.000000
# 3 -0.002047 -0.008447 0.009515 0.000000 0.000000 0.000000
# 4 0.000000 0.000000 0.000000 0.039102 0.000000 0.000000
# 5 0.000000 0.000000 0.000000 0.000000 0.023412 0.000000
# 6 0.000000 0.000000 0.000000 0.000000 0.000000 0.048978
#
#
# Mechanical properties :
#
#
# Convention : Reuss Voigt Hill
#
# Bulk Modulus (GPa) = 22.43998 36.23197 29.33598
# Shear Modulus (GPa) = 24.46255 30.76559 27.61407
#
# Velocity S-wave (km/s) = 3.37787 3.78813 3.58887
# Velocity P-wave (km/s) = 5.06754 6.00274 5.55485
#
# Compressibility (1/GPa) = 0.04456331
#
# Stress axis : x y z
#
# Youngs Moduli (GPa) = 68.46496 26.89311 105.09502
#
# Poissons Ratio (x) = -0.05710 0.21513
# Poissons Ratio (y) = -0.14535 0.88775
# Poissons Ratio (z) = 0.14015 0.22717
#
# Static dielectric constant tensor:
#      x y z
#    x 1.862380 0.000000 0.000000 
#    y 0.000000 1.806350 0.000000 
#    z 0.000000 0.000000 1.818030 
# 
# From -- ./inp_files/44988.got.cif
#   From: 2010.05.17/outbox.cif.g08.bks.cpg/sg70_23_cif.got.tgz:44988.got - 2010.06.03 15:57:51.
