data_PCOD9514152
_publ_section_title
;
Structure prediction by ZEFSAII (Michael W. Deem and Ramdas Pophale) SiO2 
 PCOD9514152
Probable space group: F D D D
;
_chemical_formula_sum "Si O2"
_cell_formula_units_Z 192
_cell_length_a 13.558623
_cell_length_b 28.544658
_cell_length_c 23.017462
_cell_angle_alpha 90.000000
_cell_angle_beta 90.000000
_cell_angle_gamma 90.000000
_cell_volume 8908.362152
_symmetry_space_group_name_H-M "F D D D"
_symmetry_group_IT_number 70
_space_group.IT_coordinate_system_code '2'
_symmetry_cell_setting 'orthorhombic'
loop_
_space_group_symop_operation_xyz
x,y,z
1/4-x,1/4-y,z
x,1/4-y,1/4-z
1/4-x,y,1/4-z
-x,-y,-z
3/4+x,3/4+y,-z
-x,3/4+y,3/4+z
3/4+x,-y,3/4+z
x,1/2+y,1/2+z
1/4-x,3/4-y,1/2+z
x,3/4-y,3/4-z
1/4-x,1/2+y,3/4-z
-x,1/2-y,1/2-z
3/4+x,1/4+y,1/2-z
-x,1/4+y,1/4+z
3/4+x,1/2-y,1/4+z
1/2+x,y,1/2+z
3/4-x,1/4-y,1/2+z
1/2+x,1/4-y,3/4-z
3/4-x,y,3/4-z
1/2-x,-y,1/2-z
1/4+x,3/4+y,1/2-z
1/2-x,3/4+y,1/4+z
1/4+x,-y,1/4+z
1/2+x,1/2+y,z
3/4-x,3/4-y,z
1/2+x,3/4-y,1/4-z
3/4-x,1/2+y,1/4-z
1/2-x,1/2-y,-z
1/4+x,1/4+y,-z
1/2-x,1/4+y,3/4+z
1/4+x,1/2-y,3/4+z
loop_
_atom_site_type_symbol
_atom_site_label
_atom_site_fract_x
_atom_site_fract_y
_atom_site_fract_z
Si Si1 0.810917 0.462699 0.073150
Si Si2 0.875000 0.375000 0.491490
Si Si3 0.961551 0.612685 0.252649
Si Si4 0.021308 0.192007 0.090710
Si Si5 0.475806 0.065128 0.897493
Si Si6 0.390618 0.125000 0.125000
Si Si7 0.229993 0.839117 0.571121
O O1 0.797659 0.422479 0.024391
O O2 0.768696 0.512985 0.056943
O O3 0.742289 0.447337 0.127574
O O4 0.922706 0.463001 0.097088
O O5 0.955754 0.350024 0.453123
O O6 0.824293 0.336114 0.530473
O O7 0.964128 0.660736 0.289439
O O8 0.951924 0.622909 0.184788
O O9 0.864271 0.587673 0.280091
O O10 0.125000 0.199425 0.125000
O O11 0.930912 0.170776 0.127297
O O12 0.375000 0.041162 0.875000
O O13 0.485727 0.110150 0.853797
#
# Coordination Sequence:
#
# PCOD9514152 Si02
#       7
#    32  16  32  32  32  16  32
#     4  11  22  38  64 101 127 158 222 287 315 380
#     4  12  19  36  64  90 130 175 208 254 340 402
#     4  10  20  37  61  94 131 174 214 258 324 398
#     4  12  23  40  61  93 140 173 209 267 333 398
#     4   9  19  38  67  94 122 160 214 277 331 377
#     4  12  23  40  59  86 136 196 209 242 337 414
#     4  10  17  35  65  94 122 167 217 261 330 386
#
# _framework density 21.552783000000002
#
# number of rings (size 3 to 8) (size 9 to 14) (size 15 to 20)
#    0.000    1.333    5.000    4.000    0.000    1.333 
#    0.000    5.833    0.000    2.000    0.000    0.000 
#    0.000    0.000    0.000    0.000    0.000    0.000 
#
# Total GULP energy -267750.125561 kJ/mol
# GULP energy per Si atom -5578.127616 kJ/mol
# Density = 2.150373 g / cm^3
# Si number density = 21.552783 Si / 1000 Ang^3
#
#
#
# Elastic Constant Matrix: (Units=GPa)
#
#
# Indices 1 2 3 4 5 6 
#
# 1 103.9133 16.3344 32.4025 0.0000 0.0000 0.0000
# 2 16.3344 55.9505 14.2303 0.0000 0.0000 0.0000
# 3 32.4025 14.2303 122.3169 0.0000 0.0000 0.0000
# 4 0.0000 0.0000 0.0000 2.8523 0.0000 0.0000
# 5 0.0000 0.0000 0.0000 0.0000 31.6103 0.0000
# 6 0.0000 0.0000 0.0000 0.0000 0.0000 21.2528
#
#
#
# Elastic Compliance Matrix: (Units=1/GPa)
#
#
# Indices 1 2 3 4 5 6 
#
# 1 0.010820 -0.002504 -0.002575 0.000000 0.000000 0.000000
# 2 -0.002504 0.018997 -0.001547 0.000000 0.000000 0.000000
# 3 -0.002575 -0.001547 0.009038 0.000000 0.000000 0.000000
# 4 0.000000 0.000000 0.000000 0.350588 0.000000 0.000000
# 5 0.000000 0.000000 0.000000 0.000000 0.031635 0.000000
# 6 0.000000 0.000000 0.000000 0.000000 0.000000 0.047053
#
#
# Mechanical properties :
#
#
# Convention : Reuss Voigt Hill
#
# Bulk Modulus (GPa) = 39.05726 45.34613 42.20170
# Shear Modulus (GPa) = 10.20581 25.75731 17.98156
#
# Velocity S-wave (km/s) = 2.17843 3.46074 2.89156
# Velocity P-wave (km/s) = 4.94858 6.08722 5.54719
#
# Compressibility (1/GPa) = 0.02560343
#
# Stress axis : x y z
#
# Youngs Moduli (GPa) = 92.42199 52.63887 110.64924
#
# Poissons Ratio (x) = 0.13180 0.28492
# Poissons Ratio (y) = 0.23142 0.17116
# Poissons Ratio (z) = 0.23798 0.08142
#
# Static dielectric constant tensor:
#      x y z
#    x 1.881480 0.000000 0.000000 
#    y 0.000000 1.785350 0.000000 
#    z 0.000000 0.000000 1.800570 
# 
# From -- ./inp_files/51433.got.cif
#   From: 2010.05.17/outbox.cif.g08.bks.cpg/sg70_26_cif.got.tgz:51433.got - 2010.06.03 15:57:51.
