data_PCOD9514509
_publ_section_title
;
Structure prediction by ZEFSAII (Michael W. Deem and Ramdas Pophale) SiO2 
 PCOD9514509
Probable space group: F D D D
;
_chemical_formula_sum "Si O2"
_cell_formula_units_Z 208
_cell_length_a 31.396455
_cell_length_b 17.365937
_cell_length_c 18.014784
_cell_angle_alpha 90.000000
_cell_angle_beta 90.000000
_cell_angle_gamma 90.000000
_cell_volume 9822.180135
_symmetry_space_group_name_H-M "F D D D"
_symmetry_group_IT_number 70
_space_group.IT_coordinate_system_code '2'
_symmetry_cell_setting 'orthorhombic'
loop_
_space_group_symop_operation_xyz
x,y,z
1/4-x,1/4-y,z
x,1/4-y,1/4-z
1/4-x,y,1/4-z
-x,-y,-z
3/4+x,3/4+y,-z
-x,3/4+y,3/4+z
3/4+x,-y,3/4+z
x,1/2+y,1/2+z
1/4-x,3/4-y,1/2+z
x,3/4-y,3/4-z
1/4-x,1/2+y,3/4-z
-x,1/2-y,1/2-z
3/4+x,1/4+y,1/2-z
-x,1/4+y,1/4+z
3/4+x,1/2-y,1/4+z
1/2+x,y,1/2+z
3/4-x,1/4-y,1/2+z
1/2+x,1/4-y,3/4-z
3/4-x,y,3/4-z
1/2-x,-y,1/2-z
1/4+x,3/4+y,1/2-z
1/2-x,3/4+y,1/4+z
1/4+x,-y,1/4+z
1/2+x,1/2+y,z
3/4-x,3/4-y,z
1/2+x,3/4-y,1/4-z
3/4-x,1/2+y,1/4-z
1/2-x,1/2-y,-z
1/4+x,1/4+y,-z
1/2-x,1/4+y,3/4+z
1/4+x,1/2-y,3/4+z
loop_
_atom_site_type_symbol
_atom_site_label
_atom_site_fract_x
_atom_site_fract_y
_atom_site_fract_z
Si Si1 0.541670 0.486764 0.050741
Si Si2 0.251150 0.375000 0.875000
Si Si3 0.041140 0.953385 0.475792
Si Si4 0.041478 0.819722 0.022929
Si Si5 0.879453 0.967842 0.230171
Si Si6 0.619704 0.715641 0.302575
Si Si7 0.290567 0.533641 0.048335
O O1 0.531933 0.551134 0.112612
O O2 0.500000 0.500000 0.000000
O O3 0.545679 0.396979 0.072480
O O4 0.581601 0.506523 0.998962
O O5 0.219508 0.395369 0.942123
O O6 0.034101 0.864038 0.493094
O O7 0.044451 0.955808 0.386815
O O8 0.085073 0.991548 0.503136
O O9 0.000000 0.000000 0.500000
O O10 0.081522 0.761997 0.019986
O O11 0.999085 0.772581 0.040633
O O12 0.875000 0.875000 0.242265
O O13 0.886633 0.980593 0.141055
O O14 0.625000 0.625000 0.295856
O O15 0.663773 0.751735 0.275590
#
# Coordination Sequence:
#
# PCOD9514509 Si02
#       7
#    32  16  32  32  32  32  32
#     4  10  20  34  54  81 115 156 196 239 288 340
#     4  10  22  36  57  86 122 162 198 240 291 350
#     4  10  21  39  60  83 111 143 187 241 293 346
#     4  11  21  37  58  86 119 153 195 241 292 353
#     4  10  20  34  60  88 111 148 195 241 292 352
#     4  10  19  35  56  82 114 149 192 238 283 341
#     4  10  22  37  58  84 112 149 187 234 292 346
#
# _framework density 21.176562000000001
#
# number of rings (size 3 to 8) (size 9 to 14) (size 15 to 20)
#    0.000    1.846    0.000    5.538    0.000    6.154 
#    0.000    4.231    0.000    8.308    0.000    0.000 
#    0.000    0.000    0.000    0.000    0.000    0.000 
#
# Total GULP energy -290293.477787 kJ/mol
# GULP energy per Si atom -5582.566881 kJ/mol
# Density = 2.112836 g / cm^3
# Si number density = 21.176562 Si / 1000 Ang^3
#
#
#
# Elastic Constant Matrix: (Units=GPa)
#
#
# Indices 1 2 3 4 5 6 
#
# 1 155.7648 54.7610 9.3173 0.0000 0.0000 0.0000
# 2 54.7610 151.7617 11.0918 0.0000 0.0000 0.0000
# 3 9.3173 11.0918 20.8896 0.0000 0.0000 0.0000
# 4 0.0000 0.0000 0.0000 71.8131 0.0000 0.0000
# 5 0.0000 0.0000 0.0000 0.0000 19.7243 0.0000
# 6 0.0000 0.0000 0.0000 0.0000 0.0000 46.6856
#
#
#
# Elastic Compliance Matrix: (Units=1/GPa)
#
#
# Indices 1 2 3 4 5 6 
#
# 1 0.007430 -0.002537 -0.001967 0.000000 0.000000 0.000000
# 2 -0.002537 0.007722 -0.002968 0.000000 0.000000 0.000000
# 3 -0.001967 -0.002968 0.050324 0.000000 0.000000 0.000000
# 4 0.000000 0.000000 0.000000 0.013925 0.000000 0.000000
# 5 0.000000 0.000000 0.000000 0.000000 0.050699 0.000000
# 6 0.000000 0.000000 0.000000 0.000000 0.000000 0.021420
#
#
# Mechanical properties :
#
#
# Convention : Reuss Voigt Hill
#
# Bulk Modulus (GPa) = 19.78985 53.19516 36.49250
# Shear Modulus (GPa) = 27.27666 44.52766 35.90216
#
# Velocity S-wave (km/s) = 3.59285 4.59048 4.12196
# Velocity P-wave (km/s) = 5.15527 7.29870 6.31854
#
# Compressibility (1/GPa) = 0.05053095
#
# Stress axis : x y z
#
# Youngs Moduli (GPa) = 134.59824 129.50502 19.87124
#
# Poissons Ratio (x) = 0.32857 0.03908
# Poissons Ratio (y) = 0.34149 0.05899
# Poissons Ratio (z) = 0.26470 0.38443
#
# Static dielectric constant tensor:
#      x y z
#    x 1.688730 0.000000 0.000000 
#    y 0.000000 1.808670 0.000000 
#    z 0.000000 0.000000 1.822890 
# 
# From -- ./inp_files/47726.got.cif
#   From: 2010.05.17/outbox.cif.g08.bks.cpg/sg70_24_cif.got.tgz:47726.got - 2010.06.03 15:57:51.
