data_PCOD9514472
_publ_section_title
;
Structure prediction by ZEFSAII (Michael W. Deem and Ramdas Pophale) SiO2 
 PCOD9514472
Probable space group: F D D D
;
_chemical_formula_sum "Si O2"
_cell_formula_units_Z 160
_cell_length_a 18.814917
_cell_length_b 14.453830
_cell_length_c 24.963063
_cell_angle_alpha 90.000000
_cell_angle_beta 90.000000
_cell_angle_gamma 90.000000
_cell_volume 6788.645366
_symmetry_space_group_name_H-M "F D D D"
_symmetry_group_IT_number 70
_space_group.IT_coordinate_system_code '2'
_symmetry_cell_setting 'orthorhombic'
loop_
_space_group_symop_operation_xyz
x,y,z
1/4-x,1/4-y,z
x,1/4-y,1/4-z
1/4-x,y,1/4-z
-x,-y,-z
3/4+x,3/4+y,-z
-x,3/4+y,3/4+z
3/4+x,-y,3/4+z
x,1/2+y,1/2+z
1/4-x,3/4-y,1/2+z
x,3/4-y,3/4-z
1/4-x,1/2+y,3/4-z
-x,1/2-y,1/2-z
3/4+x,1/4+y,1/2-z
-x,1/4+y,1/4+z
3/4+x,1/2-y,1/4+z
1/2+x,y,1/2+z
3/4-x,1/4-y,1/2+z
1/2+x,1/4-y,3/4-z
3/4-x,y,3/4-z
1/2-x,-y,1/2-z
1/4+x,3/4+y,1/2-z
1/2-x,3/4+y,1/4+z
1/4+x,-y,1/4+z
1/2+x,1/2+y,z
3/4-x,3/4-y,z
1/2+x,3/4-y,1/4-z
3/4-x,1/2+y,1/4-z
1/2-x,1/2-y,-z
1/4+x,1/4+y,-z
1/2-x,1/4+y,3/4+z
1/4+x,1/2-y,3/4+z
loop_
_atom_site_type_symbol
_atom_site_label
_atom_site_fract_x
_atom_site_fract_y
_atom_site_fract_z
Si Si1 0.046861 0.236611 0.612692
Si Si2 0.785150 0.743899 0.176462
Si Si3 0.705326 0.772158 0.946752
Si Si4 0.557140 0.259587 0.297655
Si Si5 0.198550 0.779255 0.773306
O O1 0.050909 0.125000 0.625000
O O2 0.125000 0.273259 0.625000
O O3 0.985406 0.273926 0.650843
O O4 0.018659 0.257275 0.553582
O O5 0.786007 0.633010 0.187035
O O6 0.778389 0.764466 0.113265
O O7 0.862149 0.775910 0.200079
O O8 0.720515 0.783147 0.211681
O O9 0.626553 0.736048 0.962499
O O10 0.750000 0.750000 0.000000
O O11 0.500000 0.250000 0.250000
O O12 0.563369 0.370144 0.299110
#
# Coordination Sequence:
#
# PCOD9514472 Si02
#       5
#    32  32  32  32  32
#     4   9  16  29  52  78 111 150 187 222 281 356
#     4  10  21  40  63  85 119 158 197 253 303 350
#     4  10  22  42  63  83 114 161 208 250 302 350
#     4  10  19  34  56  88 121 154 185 234 301 361
#     4  10  20  37  58  85 116 154 198 241 295 360
#
# _framework density 23.568767000000001
#
# number of rings (size 3 to 8) (size 9 to 14) (size 15 to 20)
#    0.000    2.200    2.000    1.200    0.000    4.000 
#    3.600    4.000    0.000    0.000    0.000    0.000 
#    0.000    0.000    0.000    0.000    0.000    0.000 
#
# Total GULP energy -223030.312250 kJ/mol
# GULP energy per Si atom -5575.757806 kJ/mol
# Density = 2.351512 g / cm^3
# Si number density = 23.568767 Si / 1000 Ang^3
#
#
#
# Elastic Constant Matrix: (Units=GPa)
#
#
# Indices 1 2 3 4 5 6 
#
# 1 106.3699 0.5716 94.7249 0.0000 0.0000 0.0000
# 2 0.5716 65.9809 11.4682 0.0000 0.0000 0.0000
# 3 94.7249 11.4682 205.9483 0.0000 0.0000 0.0000
# 4 0.0000 0.0000 0.0000 25.0381 0.0000 0.0000
# 5 0.0000 0.0000 0.0000 0.0000 40.6756 0.0000
# 6 0.0000 0.0000 0.0000 0.0000 0.0000 9.2577
#
#
#
# Elastic Compliance Matrix: (Units=1/GPa)
#
#
# Indices 1 2 3 4 5 6 
#
# 1 0.016009 0.001152 -0.007428 0.000000 0.000000 0.000000
# 2 0.001152 0.015387 -0.001387 0.000000 0.000000 0.000000
# 3 -0.007428 -0.001387 0.008349 0.000000 0.000000 0.000000
# 4 0.000000 0.000000 0.000000 0.039939 0.000000 0.000000
# 5 0.000000 0.000000 0.000000 0.000000 0.024585 0.000000
# 6 0.000000 0.000000 0.000000 0.000000 0.000000 0.108019
#
#
# Mechanical properties :
#
#
# Convention : Reuss Voigt Hill
#
# Bulk Modulus (GPa) = 40.94798 65.75873 53.35336
# Shear Modulus (GPa) = 21.20867 33.09657 27.15262
#
# Velocity S-wave (km/s) = 3.00303 3.75141 3.39788
# Velocity P-wave (km/s) = 5.42547 6.83560 6.17095
#
# Compressibility (1/GPa) = 0.02442123
#
# Stress axis : x y z
#
# Youngs Moduli (GPa) = 62.46320 64.99009 119.77325
#
# Poissons Ratio (x) = -0.07489 0.88963
# Poissons Ratio (y) = -0.07198 0.16610
# Poissons Ratio (z) = 0.46395 0.09013
#
# Static dielectric constant tensor:
#      x y z
#    x 1.810780 0.000000 0.000000 
#    y 0.000000 1.972940 0.000000 
#    z 0.000000 0.000000 1.782640 
# 
# From -- ./inp_files/36320.got.cif
#   From: 2010.05.17/outbox.cif.g08.bks.cpg/sg70_19_cif.got.tgz:36320.got - 2010.06.03 15:57:51.
