data_PCOD9514296
_publ_section_title
;
Structure prediction by ZEFSAII (Michael W. Deem and Ramdas Pophale) SiO2 
 PCOD9514296
Probable space group: F D D D
;
_chemical_formula_sum "Si O2"
_cell_formula_units_Z 176
_cell_length_a 10.191347
_cell_length_b 25.086119
_cell_length_c 26.599209
_cell_angle_alpha 90.000000
_cell_angle_beta 90.000000
_cell_angle_gamma 90.000000
_cell_volume 6800.389512
_symmetry_space_group_name_H-M "F D D D"
_symmetry_group_IT_number 70
_space_group.IT_coordinate_system_code '2'
_symmetry_cell_setting 'orthorhombic'
loop_
_space_group_symop_operation_xyz
x,y,z
1/4-x,1/4-y,z
x,1/4-y,1/4-z
1/4-x,y,1/4-z
-x,-y,-z
3/4+x,3/4+y,-z
-x,3/4+y,3/4+z
3/4+x,-y,3/4+z
x,1/2+y,1/2+z
1/4-x,3/4-y,1/2+z
x,3/4-y,3/4-z
1/4-x,1/2+y,3/4-z
-x,1/2-y,1/2-z
3/4+x,1/4+y,1/2-z
-x,1/4+y,1/4+z
3/4+x,1/2-y,1/4+z
1/2+x,y,1/2+z
3/4-x,1/4-y,1/2+z
1/2+x,1/4-y,3/4-z
3/4-x,y,3/4-z
1/2-x,-y,1/2-z
1/4+x,3/4+y,1/2-z
1/2-x,3/4+y,1/4+z
1/4+x,-y,1/4+z
1/2+x,1/2+y,z
3/4-x,3/4-y,z
1/2+x,3/4-y,1/4-z
3/4-x,1/2+y,1/4-z
1/2-x,1/2-y,-z
1/4+x,1/4+y,-z
1/2-x,1/4+y,3/4+z
1/4+x,1/2-y,3/4+z
loop_
_atom_site_type_symbol
_atom_site_label
_atom_site_fract_x
_atom_site_fract_y
_atom_site_fract_z
Si Si1 0.836791 0.160491 0.083975
Si Si2 0.837031 0.586377 0.778652
Si Si3 0.761241 0.668400 0.025990
Si Si4 0.785125 0.496442 0.505084
Si Si5 0.625000 0.625000 0.857455
Si Si6 0.979132 0.982817 0.144724
O O1 0.765112 0.125000 0.125000
O O2 0.774797 0.166106 0.028044
O O3 0.965204 0.126029 0.179981
O O4 0.882245 0.216958 0.105014
O O5 0.942618 0.633924 0.772035
O O6 0.740828 0.601340 0.822633
O O7 0.916337 0.531287 0.784031
O O8 0.627239 0.698652 0.016084
O O9 0.869489 0.714341 0.033994
O O10 0.737953 0.527166 0.455099
O O11 0.679186 0.679192 0.882276
O O12 0.125000 0.995971 0.125000
#
# Coordination Sequence:
#
# PCOD9514296 Si02
#       6
#    32  32  32  32  16  32
#     4   9  19  36  60  96 122 152 207 265 335 364
#     4   9  21  35  63  86 125 178 203 267 308 378
#     4   9  18  33  58  98 127 154 208 272 318 372
#     4  10  18  35  60  97 128 155 217 261 326 372
#     4  12  24  48  57  88 136 174 232 240 321 410
#     4  11  23  38  63  88 118 172 206 266 319 379
#
# _framework density 25.880870000000002
#
# number of rings (size 3 to 8) (size 9 to 14) (size 15 to 20)
#    1.091    1.091    1.818    1.636    0.000    4.727 
#    0.000    5.909    0.000    0.000    0.000    0.000 
#    0.000    0.000    0.000    0.000    0.000    0.000 
#
# Total GULP energy -245774.001544 kJ/mol
# GULP energy per Si atom -5585.772762 kJ/mol
# Density = 2.582196 g / cm^3
# Si number density = 25.880870 Si / 1000 Ang^3
#
#
#
# Elastic Constant Matrix: (Units=GPa)
#
#
# Indices 1 2 3 4 5 6 
#
# 1 46.1496 48.1540 7.1119 0.0000 0.0000 0.0000
# 2 48.1540 131.9678 18.1099 0.0000 0.0000 0.0000
# 3 7.1119 18.1099 59.1486 0.0000 0.0000 0.0000
# 4 0.0000 0.0000 0.0000 17.0298 0.0000 0.0000
# 5 0.0000 0.0000 0.0000 0.0000 16.9245 0.0000
# 6 0.0000 0.0000 0.0000 0.0000 0.0000 28.1288
#
#
#
# Elastic Compliance Matrix: (Units=1/GPa)
#
#
# Indices 1 2 3 4 5 6 
#
# 1 0.034997 -0.012727 -0.000311 0.000000 0.000000 0.000000
# 2 -0.012727 0.012539 -0.002309 0.000000 0.000000 0.000000
# 3 -0.000311 -0.002309 0.017651 0.000000 0.000000 0.000000
# 4 0.000000 0.000000 0.000000 0.058721 0.000000 0.000000
# 5 0.000000 0.000000 0.000000 0.000000 0.059086 0.000000
# 6 0.000000 0.000000 0.000000 0.000000 0.000000 0.035551
#
#
# Mechanical properties :
#
#
# Convention : Reuss Voigt Hill
#
# Bulk Modulus (GPa) = 28.99239 42.66860 35.83049
# Shear Modulus (GPa) = 19.17656 23.34263 21.25960
#
# Velocity S-wave (km/s) = 2.72500 3.00647 2.86919
# Velocity P-wave (km/s) = 4.59646 5.34548 4.98505
#
# Compressibility (1/GPa) = 0.03449181
#
# Stress axis : x y z
#
# Youngs Moduli (GPa) = 28.57412 79.75421 56.65447
#
# Poissons Ratio (x) = 1.01506 0.01763
# Poissons Ratio (y) = 0.36367 0.13080
# Poissons Ratio (z) = 0.00889 0.18413
#
# Static dielectric constant tensor:
#      x y z
#    x 2.027230 0.000000 0.000000 
#    y 0.000000 2.085240 0.000000 
#    z 0.000000 0.000000 2.069380 
# 
# From -- ./inp_files/57623.got.cif
#   From: 2010.05.17/outbox.cif.g08.bks.cpg/sg70_29_cif.got.tgz:57623.got - 2010.06.03 15:57:51.
