data_PCOD9514214
_publ_section_title
;
Structure prediction by ZEFSAII (Michael W. Deem and Ramdas Pophale) SiO2 
 PCOD9514214
Probable space group: F D D D
;
_chemical_formula_sum "Si O2"
_cell_formula_units_Z 192
_cell_length_a 27.863646
_cell_length_b 10.681498
_cell_length_c 28.949096
_cell_angle_alpha 90.000000
_cell_angle_beta 90.000000
_cell_angle_gamma 90.000000
_cell_volume 8615.988564
_symmetry_space_group_name_H-M "F D D D"
_symmetry_group_IT_number 70
_space_group.IT_coordinate_system_code '2'
_symmetry_cell_setting 'orthorhombic'
loop_
_space_group_symop_operation_xyz
x,y,z
1/4-x,1/4-y,z
x,1/4-y,1/4-z
1/4-x,y,1/4-z
-x,-y,-z
3/4+x,3/4+y,-z
-x,3/4+y,3/4+z
3/4+x,-y,3/4+z
x,1/2+y,1/2+z
1/4-x,3/4-y,1/2+z
x,3/4-y,3/4-z
1/4-x,1/2+y,3/4-z
-x,1/2-y,1/2-z
3/4+x,1/4+y,1/2-z
-x,1/4+y,1/4+z
3/4+x,1/2-y,1/4+z
1/2+x,y,1/2+z
3/4-x,1/4-y,1/2+z
1/2+x,1/4-y,3/4-z
3/4-x,y,3/4-z
1/2-x,-y,1/2-z
1/4+x,3/4+y,1/2-z
1/2-x,3/4+y,1/4+z
1/4+x,-y,1/4+z
1/2+x,1/2+y,z
3/4-x,3/4-y,z
1/2+x,3/4-y,1/4-z
3/4-x,1/2+y,1/4-z
1/2-x,1/2-y,-z
1/4+x,1/4+y,-z
1/2-x,1/4+y,3/4+z
1/4+x,1/2-y,3/4+z
loop_
_atom_site_type_symbol
_atom_site_label
_atom_site_fract_x
_atom_site_fract_y
_atom_site_fract_z
Si Si1 0.960457 0.489011 0.932514
Si Si2 0.046668 0.904276 0.820533
Si Si3 0.955407 0.625000 0.125000
Si Si4 0.805427 0.775326 0.796066
Si Si5 0.125000 0.625000 0.625000
Si Si6 0.625000 0.125000 0.125000
Si Si7 0.926700 0.843776 0.227696
Si Si8 0.852761 0.190290 0.205117
O O1 0.959849 0.632181 0.946425
O O2 0.911704 0.457545 0.905161
O O3 0.006592 0.459517 0.902587
O O4 0.962313 0.405781 0.978932
O O5 0.044642 0.875000 0.875000
O O6 0.089766 0.821473 0.798730
O O7 0.062385 0.047980 0.809007
O O8 0.993102 0.892275 0.799376
O O9 0.921604 0.534528 0.155653
O O10 0.840207 0.804063 0.839141
O O11 0.833117 0.773489 0.747079
O O12 0.875000 0.875000 0.248914
O O13 0.917475 0.701842 0.212017
#
# Coordination Sequence:
#
# PCOD9514214 Si02
#       8
#    32  32  16  32   8   8  32  32
#     4  10  20  35  62  97 131 168 222 284 350 417
#     4  11  21  40  68  95 135 182 226 276 354 428
#     4  11  20  34  60 104 136 158 206 291 360 418
#     4  11  24  46  68  92 130 187 237 284 350 426
#     4  12  26  50  68  88 130 198 246 292 336 430
#     4  10  18  32  56 100 134 164 214 286 352 404
#     4   9  18  35  63  91 127 173 210 273 344 407
#     4  10  22  41  65  99 135 168 230 290 349 416
#
# _framework density 22.284151999999999
#
# number of rings (size 3 to 8) (size 9 to 14) (size 15 to 20)
#    0.000    1.667    2.500    2.500    0.000    2.667 
#    3.000    4.167    0.000    0.000    0.000    0.000 
#    0.000    0.000    0.000    0.000    0.000    0.000 
#
# Total GULP energy -267849.069075 kJ/mol
# GULP energy per Si atom -5580.188939 kJ/mol
# Density = 2.223343 g / cm^3
# Si number density = 22.284152 Si / 1000 Ang^3
#
#
#
# Elastic Constant Matrix: (Units=GPa)
#
#
# Indices 1 2 3 4 5 6 
#
# 1 206.2594 28.5894 87.4653 0.0000 0.0000 0.0000
# 2 28.5894 44.8606 39.9964 0.0000 0.0000 0.0000
# 3 87.4653 39.9964 147.2976 0.0000 0.0000 0.0000
# 4 0.0000 0.0000 0.0000 26.8970 0.0000 0.0000
# 5 0.0000 0.0000 0.0000 0.0000 26.0589 0.0000
# 6 0.0000 0.0000 0.0000 0.0000 0.0000 14.6966
#
#
#
# Elastic Compliance Matrix: (Units=1/GPa)
#
#
# Indices 1 2 3 4 5 6 
#
# 1 0.006509 -0.000926 -0.003613 0.000000 0.000000 0.000000
# 2 -0.000926 0.029543 -0.007472 0.000000 0.000000 0.000000
# 3 -0.003613 -0.007472 0.010964 0.000000 0.000000 0.000000
# 4 0.000000 0.000000 0.000000 0.037179 0.000000 0.000000
# 5 0.000000 0.000000 0.000000 0.000000 0.038375 0.000000
# 6 0.000000 0.000000 0.000000 0.000000 0.000000 0.068043
#
#
# Mechanical properties :
#
#
# Convention : Reuss Voigt Hill
#
# Bulk Modulus (GPa) = 43.49293 78.94664 61.21979
# Shear Modulus (GPa) = 22.49208 29.68825 26.09017
#
# Velocity S-wave (km/s) = 3.18044 3.65397 3.42540
# Velocity P-wave (km/s) = 5.74863 7.30111 6.57088
#
# Compressibility (1/GPa) = 0.02299224
#
# Stress axis : x y z
#
# Youngs Moduli (GPa) = 153.63360 33.84846 91.21140
#
# Poissons Ratio (x) = 0.03136 0.32959
# Poissons Ratio (y) = 0.14234 0.68152
# Poissons Ratio (z) = 0.55515 0.25291
#
# Static dielectric constant tensor:
#      x y z
#    x 1.879780 0.000000 0.000000 
#    y 0.000000 1.843770 0.000000 
#    z 0.000000 0.000000 1.928010 
# 
# From -- ./inp_files/62268.got.cif
#   From: 2010.05.17/outbox.cif.g08.bks.cpg/sg70_32_cif.got.tgz:62268.got - 2010.06.03 15:57:51.
