data_PCOD9514106
_publ_section_title
;
Structure prediction by ZEFSAII (Michael W. Deem and Ramdas Pophale) SiO2 
 PCOD9514106
Probable space group: F D D D
;
_chemical_formula_sum "Si O2"
_cell_formula_units_Z 112
_cell_length_a 7.043105
_cell_length_b 26.188659
_cell_length_c 26.520396
_cell_angle_alpha 90.000000
_cell_angle_beta 90.000000
_cell_angle_gamma 90.000000
_cell_volume 4891.673123
_symmetry_space_group_name_H-M "F D D D"
_symmetry_group_IT_number 70
_space_group.IT_coordinate_system_code '2'
_symmetry_cell_setting 'orthorhombic'
loop_
_space_group_symop_operation_xyz
x,y,z
1/4-x,1/4-y,z
x,1/4-y,1/4-z
1/4-x,y,1/4-z
-x,-y,-z
3/4+x,3/4+y,-z
-x,3/4+y,3/4+z
3/4+x,-y,3/4+z
x,1/2+y,1/2+z
1/4-x,3/4-y,1/2+z
x,3/4-y,3/4-z
1/4-x,1/2+y,3/4-z
-x,1/2-y,1/2-z
3/4+x,1/4+y,1/2-z
-x,1/4+y,1/4+z
3/4+x,1/2-y,1/4+z
1/2+x,y,1/2+z
3/4-x,1/4-y,1/2+z
1/2+x,1/4-y,3/4-z
3/4-x,y,3/4-z
1/2-x,-y,1/2-z
1/4+x,3/4+y,1/2-z
1/2-x,3/4+y,1/4+z
1/4+x,-y,1/4+z
1/2+x,1/2+y,z
3/4-x,3/4-y,z
1/2+x,3/4-y,1/4-z
3/4-x,1/2+y,1/4-z
1/2-x,1/2-y,-z
1/4+x,1/4+y,-z
1/2-x,1/4+y,3/4+z
1/4+x,1/2-y,3/4+z
loop_
_atom_site_type_symbol
_atom_site_label
_atom_site_fract_x
_atom_site_fract_y
_atom_site_fract_z
Si Si1 0.908730 0.148137 0.464821
Si Si2 0.101540 0.360809 0.820516
Si Si3 0.375000 0.075528 0.875000
Si Si4 0.124604 0.243397 0.801623
O O1 0.125000 0.125000 0.465750
O O2 0.939811 0.208367 0.456929
O O3 0.827314 0.138267 0.519991
O O4 0.818616 0.114704 0.420037
O O5 0.173133 0.375000 0.875000
O O6 0.147229 0.301412 0.816257
O O7 0.875000 0.375000 0.820948
O O8 0.231672 0.037364 0.846453
O O9 0.000000 0.250000 0.750000
#
# Coordination Sequence:
#
# PCOD9514106 Si02
#       4
#    32  32  16  32
#     4   9  18  30  44  73 105 134 167 206 265 314
#     4  10  17  26  45  75 105 122 161 214 264 298
#     4  10  18  30  47  70 109 136 162 208 260 324
#     4  11  18  30  49  78 104 132 166 218 270 302
#
# _framework density 22.896051
#
# number of rings (size 3 to 8) (size 9 to 14) (size 15 to 20)
#    0.000    2.000    8.571    1.714    0.000    0.000 
#    0.000    0.000    0.000    1.714    0.000    1.000 
#    0.000    0.000    0.000    0.000    0.000    0.000 
#
# Total GULP energy -156029.462721 kJ/mol
# GULP energy per Si atom -5572.480811 kJ/mol
# Density = 2.284394 g / cm^3
# Si number density = 22.896051 Si / 1000 Ang^3
#
#
#
# Elastic Constant Matrix: (Units=GPa)
#
#
# Indices 1 2 3 4 5 6 
#
# 1 75.2457 15.2372 18.0221 0.0000 0.0000 0.0000
# 2 15.2372 231.8285 93.6340 0.0000 0.0000 0.0000
# 3 18.0221 93.6340 242.5033 0.0000 0.0000 0.0000
# 4 0.0000 0.0000 0.0000 50.2993 0.0000 0.0000
# 5 0.0000 0.0000 0.0000 0.0000 -9.0487 0.0000
# 6 0.0000 0.0000 0.0000 0.0000 0.0000 -43.2373
#
#
#
# Elastic Compliance Matrix: (Units=1/GPa)
#
#
# Indices 1 2 3 4 5 6 
#
# 1 0.013595 -0.000575 -0.000788 0.000000 0.000000 0.000000
# 2 -0.000575 0.005135 -0.001940 0.000000 0.000000 0.000000
# 3 -0.000788 -0.001940 0.004931 0.000000 0.000000 0.000000
# 4 0.000000 0.000000 0.000000 0.019881 0.000000 0.000000
# 5 0.000000 0.000000 0.000000 0.000000 -0.110513 0.000000
# 6 0.000000 0.000000 0.000000 0.000000 0.000000 -0.023128
#
#
# Mechanical properties :
#
#
# Convention : Reuss Voigt Hill
#
# Bulk Modulus (GPa) = 58.63549 89.26266 73.94908
# Shear Modulus (GPa) = -64.26098 27.78160 -18.23969
#
# Velocity S-wave (km/s) = -5.30352 3.48714 -2.82553
# Velocity P-wave (km/s) = 3.44065 7.43533 4.66080
#
# Compressibility (1/GPa) = 0.01705452
#
# Stress axis : x y z
#
# Youngs Moduli (GPa) = 73.55606 194.74775 202.78807
#
# Poissons Ratio (x) = 0.11201 0.15985
# Poissons Ratio (y) = 0.04231 0.39339
# Poissons Ratio (z) = 0.05798 0.37779
#
# Static dielectric constant tensor:
#      x y z
#    x 1.810160 0.000000 0.000000 
#    y 0.000000 1.739980 0.000000 
#    z 0.000000 0.000000 1.824760 
# 
# From -- ./inp_files/9528.got.cif
#   From: 2010.05.17/outbox.cif.g08.bks.cpg/sg70_5_cif.got.tgz:9528.got - 2010.06.03 15:57:51.
