data_PCOD9514399
_publ_section_title
;
Structure prediction by ZEFSAII (Michael W. Deem and Ramdas Pophale) SiO2 
 PCOD9514399
Probable space group: F D D D
;
_chemical_formula_sum "Si O2"
_cell_formula_units_Z 128
_cell_length_a 9.843024
_cell_length_b 22.992636
_cell_length_c 23.874851
_cell_angle_alpha 90.000000
_cell_angle_beta 90.000000
_cell_angle_gamma 90.000000
_cell_volume 5403.286277
_symmetry_space_group_name_H-M "F D D D"
_symmetry_group_IT_number 70
_space_group.IT_coordinate_system_code '2'
_symmetry_cell_setting 'orthorhombic'
loop_
_space_group_symop_operation_xyz
x,y,z
1/4-x,1/4-y,z
x,1/4-y,1/4-z
1/4-x,y,1/4-z
-x,-y,-z
3/4+x,3/4+y,-z
-x,3/4+y,3/4+z
3/4+x,-y,3/4+z
x,1/2+y,1/2+z
1/4-x,3/4-y,1/2+z
x,3/4-y,3/4-z
1/4-x,1/2+y,3/4-z
-x,1/2-y,1/2-z
3/4+x,1/4+y,1/2-z
-x,1/4+y,1/4+z
3/4+x,1/2-y,1/4+z
1/2+x,y,1/2+z
3/4-x,1/4-y,1/2+z
1/2+x,1/4-y,3/4-z
3/4-x,y,3/4-z
1/2-x,-y,1/2-z
1/4+x,3/4+y,1/2-z
1/2-x,3/4+y,1/4+z
1/4+x,-y,1/4+z
1/2+x,1/2+y,z
3/4-x,3/4-y,z
1/2+x,3/4-y,1/4-z
3/4-x,1/2+y,1/4-z
1/2-x,1/2-y,-z
1/4+x,1/4+y,-z
1/2-x,1/4+y,3/4+z
1/4+x,1/2-y,3/4+z
loop_
_atom_site_type_symbol
_atom_site_label
_atom_site_fract_x
_atom_site_fract_y
_atom_site_fract_z
Si Si1 0.575058 0.416636 0.536250
Si Si2 0.740274 0.232006 0.164526
Si Si3 0.488182 0.455790 0.209837
Si Si4 0.454220 0.568092 0.163222
O O1 0.686435 0.454301 0.569049
O O2 0.557390 0.352664 0.561197
O O3 0.427636 0.448070 0.543027
O O4 0.620701 0.416091 0.470348
O O5 0.625000 0.204269 0.125000
O O6 0.757545 0.202549 0.223672
O O7 0.873408 0.223046 0.129449
O O8 0.550518 0.517108 0.188674
O O9 0.485618 0.625000 0.125000
#
# Coordination Sequence:
#
# PCOD9514399 Si02
#       4
#    32  32  32  32
#     4  10  19  28  41  65 102 126 157 190 226 296
#     4  11  17  28  41  66  96 130 155 180 239 290
#     4  10  19  29  40  65  99 127 159 188 229 293
#     4  11  19  29  46  69 101 133 148 184 247 292
#
# _framework density 23.689285999999999
#
# number of rings (size 3 to 8) (size 9 to 14) (size 15 to 20)
#    0.000    1.500    7.500    1.500    0.000    0.500 
#    0.000    0.000    0.000    0.000    0.000    7.000 
#   15.000    0.000    0.000    0.000    0.000    0.000 
#
# Total GULP energy -178144.781912 kJ/mol
# GULP energy per Si atom -5567.024435 kJ/mol
# Density = 2.363537 g / cm^3
# Si number density = 23.689286 Si / 1000 Ang^3
#
#
#
# Elastic Constant Matrix: (Units=GPa)
#
#
# Indices 1 2 3 4 5 6 
#
# 1 40.0150 28.5807 24.1876 0.0000 0.0000 0.0000
# 2 28.5807 169.0277 54.9174 0.0000 0.0000 0.0000
# 3 24.1876 54.9174 129.5131 0.0000 0.0000 0.0000
# 4 0.0000 0.0000 0.0000 36.2218 0.0000 0.0000
# 5 0.0000 0.0000 0.0000 0.0000 22.2262 0.0000
# 6 0.0000 0.0000 0.0000 0.0000 0.0000 13.0828
#
#
#
# Elastic Compliance Matrix: (Units=1/GPa)
#
#
# Indices 1 2 3 4 5 6 
#
# 1 0.030126 -0.003788 -0.004020 0.000000 0.000000 0.000000
# 2 -0.003788 0.007338 -0.002404 0.000000 0.000000 0.000000
# 3 -0.004020 -0.002404 0.009491 0.000000 0.000000 0.000000
# 4 0.000000 0.000000 0.000000 0.027608 0.000000 0.000000
# 5 0.000000 0.000000 0.000000 0.000000 0.044992 0.000000
# 6 0.000000 0.000000 0.000000 0.000000 0.000000 0.076436
#
#
# Mechanical properties :
#
#
# Convention : Reuss Voigt Hill
#
# Bulk Modulus (GPa) = 37.69138 61.54747 49.61943
# Shear Modulus (GPa) = 22.19672 29.69752 25.94712
#
# Velocity S-wave (km/s) = 3.06436 3.54450 3.31314
# Velocity P-wave (km/s) = 5.33532 6.54132 5.96886
#
# Compressibility (1/GPa) = 0.02653126
#
# Stress axis : x y z
#
# Youngs Moduli (GPa) = 33.19382 136.28172 105.35869
#
# Poissons Ratio (x) = 0.51621 0.42355
# Poissons Ratio (y) = 0.12573 0.25328
# Poissons Ratio (z) = 0.13344 0.32762
#
# Static dielectric constant tensor:
#      x y z
#    x 1.733720 0.000000 0.000000 
#    y 0.000000 2.038920 0.000000 
#    z 0.000000 0.000000 2.045050 
# 
# From -- ./inp_files/18811.got.cif
#   From: 2010.05.17/outbox.cif.g08.bks.cpg/sg70_10_cif.got.tgz:18811.got - 2010.06.03 15:57:51.
