data_PCOD9514552
_publ_section_title
;
Structure prediction by ZEFSAII (Michael W. Deem and Ramdas Pophale) SiO2 
 PCOD9514552
Probable space group: F D D D
;
_chemical_formula_sum "Si O2"
_cell_formula_units_Z 176
_cell_length_a 29.396158
_cell_length_b 9.651574
_cell_length_c 27.939000
_cell_angle_alpha 90.000000
_cell_angle_beta 90.000000
_cell_angle_gamma 90.000000
_cell_volume 7926.830568
_symmetry_space_group_name_H-M "F D D D"
_symmetry_group_IT_number 70
_space_group.IT_coordinate_system_code '2'
_symmetry_cell_setting 'orthorhombic'
loop_
_space_group_symop_operation_xyz
x,y,z
1/4-x,1/4-y,z
x,1/4-y,1/4-z
1/4-x,y,1/4-z
-x,-y,-z
3/4+x,3/4+y,-z
-x,3/4+y,3/4+z
3/4+x,-y,3/4+z
x,1/2+y,1/2+z
1/4-x,3/4-y,1/2+z
x,3/4-y,3/4-z
1/4-x,1/2+y,3/4-z
-x,1/2-y,1/2-z
3/4+x,1/4+y,1/2-z
-x,1/4+y,1/4+z
3/4+x,1/2-y,1/4+z
1/2+x,y,1/2+z
3/4-x,1/4-y,1/2+z
1/2+x,1/4-y,3/4-z
3/4-x,y,3/4-z
1/2-x,-y,1/2-z
1/4+x,3/4+y,1/2-z
1/2-x,3/4+y,1/4+z
1/4+x,-y,1/4+z
1/2+x,1/2+y,z
3/4-x,3/4-y,z
1/2+x,3/4-y,1/4-z
3/4-x,1/2+y,1/4-z
1/2-x,1/2-y,-z
1/4+x,1/4+y,-z
1/2-x,1/4+y,3/4+z
1/4+x,1/2-y,3/4+z
loop_
_atom_site_type_symbol
_atom_site_label
_atom_site_fract_x
_atom_site_fract_y
_atom_site_fract_z
Si Si1 0.806329 0.875000 0.375000
Si Si2 0.733229 0.243602 0.406843
Si Si3 0.260865 0.642556 0.041697
Si Si4 0.413285 0.591032 0.911642
Si Si5 0.702629 0.333866 0.256379
Si Si6 0.926434 0.843527 0.167147
O O1 0.774325 0.819576 0.416698
O O2 0.833547 0.751004 0.352697
O O3 0.719776 0.375000 0.375000
O O4 0.787332 0.224689 0.402084
O O5 0.719253 0.293095 0.459450
O O6 0.707102 0.120106 0.380089
O O7 0.309969 0.692174 0.061609
O O8 0.250000 0.750000 0.000000
O O9 0.244301 0.490508 0.023732
O O10 0.375000 0.533096 0.875000
O O11 0.414414 0.605444 0.969774
O O12 0.686377 0.207751 0.290800
O O13 0.875000 0.875000 0.153558
#
# Coordination Sequence:
#
# PCOD9514552 Si02
#       6
#    16  32  32  32  32  32
#     4  10  19  36  58  96 122 162 210 274 327 386
#     4  10  21  42  64  86 131 180 214 265 336 399
#     4   9  18  35  61  89 122 165 209 265 327 384
#     4  11  22  37  65  92 129 166 221 275 330 396
#     4   9  21  39  61  94 128 173 214 271 339 399
#     4  10  20  39  65  92 127 167 223 274 323 388
#
# _framework density 22.203073
#
# number of rings (size 3 to 8) (size 9 to 14) (size 15 to 20)
#    0.000    2.182    1.818    0.818    0.000    4.727 
#    4.909    0.000    4.000    0.000    0.000    0.000 
#    0.000    0.000    0.000    0.000    0.000    0.000 
#
# Total GULP energy -244962.485632 kJ/mol
# GULP energy per Si atom -5567.329219 kJ/mol
# Density = 2.215254 g / cm^3
# Si number density = 22.203073 Si / 1000 Ang^3
#
#
#
# Elastic Constant Matrix: (Units=GPa)
#
#
# Indices 1 2 3 4 5 6 
#
# 1 101.9090 10.3998 56.8575 0.0000 0.0000 0.0000
# 2 10.3998 69.6177 23.5043 0.0000 0.0000 0.0000
# 3 56.8575 23.5043 161.3795 0.0000 0.0000 0.0000
# 4 0.0000 0.0000 0.0000 30.5487 0.0000 0.0000
# 5 0.0000 0.0000 0.0000 0.0000 35.0957 0.0000
# 6 0.0000 0.0000 0.0000 0.0000 0.0000 24.4509
#
#
#
# Elastic Compliance Matrix: (Units=1/GPa)
#
#
# Indices 1 2 3 4 5 6 
#
# 1 0.012224 -0.000391 -0.004250 0.000000 0.000000 0.000000
# 2 -0.000391 0.015120 -0.002064 0.000000 0.000000 0.000000
# 3 -0.004250 -0.002064 0.007994 0.000000 0.000000 0.000000
# 4 0.000000 0.000000 0.000000 0.032735 0.000000 0.000000
# 5 0.000000 0.000000 0.000000 0.000000 0.028494 0.000000
# 6 0.000000 0.000000 0.000000 0.000000 0.000000 0.040898
#
#
# Mechanical properties :
#
#
# Convention : Reuss Voigt Hill
#
# Bulk Modulus (GPa) = 45.60528 57.15883 51.38205
# Shear Modulus (GPa) = 31.60886 34.16202 32.88544
#
# Velocity S-wave (km/s) = 3.77719 3.92678 3.85271
# Velocity P-wave (km/s) = 6.29345 6.80874 6.55616
#
# Compressibility (1/GPa) = 0.02192729
#
# Stress axis : x y z
#
# Youngs Moduli (GPa) = 81.80899 66.13953 125.08648
#
# Poissons Ratio (x) = 0.02588 0.53157
# Poissons Ratio (y) = 0.03201 0.25821
# Poissons Ratio (z) = 0.34766 0.13653
#
# Static dielectric constant tensor:
#      x y z
#    x 1.852900 0.000000 0.000000 
#    y 0.000000 2.086890 0.000000 
#    z 0.000000 0.000000 1.881300 
# 
# From -- ./inp_files/62182.got.cif
#   From: 2010.05.17/outbox.cif.g08.bks.cpg/sg70_32_cif.got.tgz:62182.got - 2010.06.03 15:57:51.
