data_PCOD9514469
_publ_section_title
;
Structure prediction by ZEFSAII (Michael W. Deem and Ramdas Pophale) SiO2 
 PCOD9514469
Probable space group: F D D D
;
_chemical_formula_sum "Si O2"
_cell_formula_units_Z 176
_cell_length_a 22.693391
_cell_length_b 10.458408
_cell_length_c 29.013077
_cell_angle_alpha 90.000000
_cell_angle_beta 90.000000
_cell_angle_gamma 90.000000
_cell_volume 6885.869170
_symmetry_space_group_name_H-M "F D D D"
_symmetry_group_IT_number 70
_space_group.IT_coordinate_system_code '2'
_symmetry_cell_setting 'orthorhombic'
loop_
_space_group_symop_operation_xyz
x,y,z
1/4-x,1/4-y,z
x,1/4-y,1/4-z
1/4-x,y,1/4-z
-x,-y,-z
3/4+x,3/4+y,-z
-x,3/4+y,3/4+z
3/4+x,-y,3/4+z
x,1/2+y,1/2+z
1/4-x,3/4-y,1/2+z
x,3/4-y,3/4-z
1/4-x,1/2+y,3/4-z
-x,1/2-y,1/2-z
3/4+x,1/4+y,1/2-z
-x,1/4+y,1/4+z
3/4+x,1/2-y,1/4+z
1/2+x,y,1/2+z
3/4-x,1/4-y,1/2+z
1/2+x,1/4-y,3/4-z
3/4-x,y,3/4-z
1/2-x,-y,1/2-z
1/4+x,3/4+y,1/2-z
1/2-x,3/4+y,1/4+z
1/4+x,-y,1/4+z
1/2+x,1/2+y,z
3/4-x,3/4-y,z
1/2+x,3/4-y,1/4-z
3/4-x,1/2+y,1/4-z
1/2-x,1/2-y,-z
1/4+x,1/4+y,-z
1/2-x,1/4+y,3/4+z
1/4+x,1/2-y,3/4+z
loop_
_atom_site_type_symbol
_atom_site_label
_atom_site_fract_x
_atom_site_fract_y
_atom_site_fract_z
Si Si1 0.040327 0.719121 0.706346
Si Si2 0.958096 0.522702 0.821997
Si Si3 0.364404 0.513468 0.190935
Si Si4 0.063425 0.465749 0.752887
Si Si5 0.476137 0.241294 0.321535
Si Si6 0.206758 0.875000 0.375000
O O1 0.998297 0.690413 0.662736
O O2 0.000000 0.750000 0.750000
O O3 0.070476 0.586316 0.719841
O O4 0.074879 0.850546 0.695403
O O5 0.020297 0.517585 0.793825
O O6 0.941793 0.374907 0.813549
O O7 0.960114 0.545034 0.876596
O O8 0.375000 0.375000 0.213677
O O9 0.366312 0.642783 0.221122
O O10 0.296505 0.513984 0.175460
O O11 0.412903 0.527703 0.151192
O O12 0.034574 0.357355 0.719836
#
# Coordination Sequence:
#
# PCOD9514469 Si02
#       6
#    32  32  32  32  32  16
#     4  10  21  37  57  86 123 166 208 256 321 407
#     4   9  17  31  53  81 111 150 206 256 303 368
#     4  11  21  33  55  88 124 157 201 269 332 375
#     4  10  20  36  55  83 124 168 209 255 323 401
#     4  10  19  34  56  86 123 165 207 265 327 395
#     4  12  24  38  62  96 127 160 211 274 334 378
#
# _framework density 25.559591000000001
#
# number of rings (size 3 to 8) (size 9 to 14) (size 15 to 20)
#    0.000    1.818    0.000    7.636    0.000    2.909 
#    0.000    0.000    0.000    0.000    0.000   56.000 
#    0.000    0.000    0.000    0.000    0.000    0.000 
#
# Total GULP energy -245674.233574 kJ/mol
# GULP energy per Si atom -5583.505309 kJ/mol
# Density = 2.550142 g / cm^3
# Si number density = 25.559591 Si / 1000 Ang^3
#
#
#
# Elastic Constant Matrix: (Units=GPa)
#
#
# Indices 1 2 3 4 5 6 
#
# 1 78.1772 17.5896 29.7466 0.0000 0.0000 0.0000
# 2 17.5896 209.2824 40.1358 0.0000 0.0000 0.0000
# 3 29.7466 40.1358 145.9252 0.0000 0.0000 0.0000
# 4 0.0000 0.0000 0.0000 45.5294 0.0000 0.0000
# 5 0.0000 0.0000 0.0000 0.0000 -21.9168 0.0000
# 6 0.0000 0.0000 0.0000 0.0000 0.0000 22.7220
#
#
#
# Elastic Compliance Matrix: (Units=1/GPa)
#
#
# Indices 1 2 3 4 5 6 
#
# 1 0.013953 -0.000662 -0.002662 0.000000 0.000000 0.000000
# 2 -0.000662 0.005076 -0.001261 0.000000 0.000000 0.000000
# 3 -0.002662 -0.001261 0.007742 0.000000 0.000000 0.000000
# 4 0.000000 0.000000 0.000000 0.021964 0.000000 0.000000
# 5 0.000000 0.000000 0.000000 0.000000 -0.045627 0.000000
# 6 0.000000 0.000000 0.000000 0.000000 0.000000 0.044010
#
#
# Mechanical properties :
#
#
# Convention : Reuss Voigt Hill
#
# Bulk Modulus (GPa) = 56.81643 67.59208 62.20425
# Shear Modulus (GPa) = 80.44244 32.32779 56.38511
#
# Velocity S-wave (km/s) = 5.61612 3.56026 4.70193
# Velocity P-wave (km/s) = 8.02070 6.58809 7.33944
#
# Compressibility (1/GPa) = 0.01760054
#
# Stress axis : x y z
#
# Youngs Moduli (GPa) = 71.66691 197.01595 129.15949
#
# Poissons Ratio (x) = 0.13046 0.34385
# Poissons Ratio (y) = 0.04746 0.16288
# Poissons Ratio (z) = 0.19080 0.24845
#
# Static dielectric constant tensor:
#      x y z
#    x 2.009420 0.000000 0.000000 
#    y 0.000000 2.099060 0.000000 
#    z 0.000000 0.000000 1.999360 
# 
# From -- ./inp_files/62204.got.cif
#   From: 2010.05.17/outbox.cif.g08.bks.cpg/sg70_32_cif.got.tgz:62204.got - 2010.06.03 15:57:51.
