data_PCOD9514976
_publ_section_title
;
Structure prediction by ZEFSAII (Michael W. Deem and Ramdas Pophale) SiO2 
 PCOD9514976
Probable space group: F D D D
;
_chemical_formula_sum "Si O2"
_cell_formula_units_Z 192
_cell_length_a 22.758935
_cell_length_b 29.991006
_cell_length_c 13.194180
_cell_angle_alpha 90.000000
_cell_angle_beta 90.000000
_cell_angle_gamma 90.000000
_cell_volume 9005.863782
_symmetry_space_group_name_H-M "F D D D"
_symmetry_group_IT_number 70
_space_group.IT_coordinate_system_code '2'
_symmetry_cell_setting 'orthorhombic'
loop_
_space_group_symop_operation_xyz
x,y,z
1/4-x,1/4-y,z
x,1/4-y,1/4-z
1/4-x,y,1/4-z
-x,-y,-z
3/4+x,3/4+y,-z
-x,3/4+y,3/4+z
3/4+x,-y,3/4+z
x,1/2+y,1/2+z
1/4-x,3/4-y,1/2+z
x,3/4-y,3/4-z
1/4-x,1/2+y,3/4-z
-x,1/2-y,1/2-z
3/4+x,1/4+y,1/2-z
-x,1/4+y,1/4+z
3/4+x,1/2-y,1/4+z
1/2+x,y,1/2+z
3/4-x,1/4-y,1/2+z
1/2+x,1/4-y,3/4-z
3/4-x,y,3/4-z
1/2-x,-y,1/2-z
1/4+x,3/4+y,1/2-z
1/2-x,3/4+y,1/4+z
1/4+x,-y,1/4+z
1/2+x,1/2+y,z
3/4-x,3/4-y,z
1/2+x,3/4-y,1/4-z
3/4-x,1/2+y,1/4-z
1/2-x,1/2-y,-z
1/4+x,1/4+y,-z
1/2-x,1/4+y,3/4+z
1/4+x,1/2-y,3/4+z
loop_
_atom_site_type_symbol
_atom_site_label
_atom_site_fract_x
_atom_site_fract_y
_atom_site_fract_z
Si Si1 0.563167 0.242216 0.476643
Si Si2 0.875000 0.049067 0.375000
Si Si3 0.151136 0.715135 0.995605
Si Si4 0.721596 0.874935 0.154465
Si Si5 0.625000 0.947773 0.625000
Si Si6 0.940895 0.894323 0.773757
Si Si7 0.467706 0.433766 0.307159
O O1 0.573992 0.224515 0.363778
O O2 0.614308 0.271849 0.526550
O O3 0.558282 0.197235 0.539444
O O4 0.506241 0.273483 0.474492
O O5 0.819467 0.081218 0.354104
O O6 0.876898 0.013256 0.466022
O O7 0.197425 0.694652 0.076898
O O8 0.094487 0.683441 0.998786
O O9 0.680767 0.834473 0.115639
O O10 0.745321 0.858356 0.264473
O O11 0.774422 0.881811 0.077092
O O12 0.969758 0.875000 0.875000
O O13 0.875000 0.875000 0.766494
#
# Coordination Sequence:
#
# PCOD9514976 Si02
#       7
#    32  16  32  32  16  32  32
#     4  11  21  39  60  83 117 158 201 252 299 364
#     4   9  20  38  62  92 118 152 206 252 298 360
#     4  10  20  38  61  87 117 161 203 240 298 374
#     4  10  20  39  60  88 124 154 196 259 306 354
#     4   9  22  38  59  86 115 156 207 246 303 364
#     4  11  23  37  55  84 116 152 196 245 302 359
#     4   9  20  36  59  88 116 154 198 240 302 366
#
# _framework density 21.319443
#
# number of rings (size 3 to 8) (size 9 to 14) (size 15 to 20)
#    0.000    2.167    0.000    4.500    0.000    2.667 
#    0.000   15.000    0.000    7.000    0.000    0.000 
#    0.000    0.000    0.000    0.000    0.000    0.000 
#
# Total GULP energy -267796.834052 kJ/mol
# GULP energy per Si atom -5579.100709 kJ/mol
# Density = 2.127092 g / cm^3
# Si number density = 21.319443 Si / 1000 Ang^3
#
#
#
# Elastic Constant Matrix: (Units=GPa)
#
#
# Indices 1 2 3 4 5 6 
#
# 1 94.2254 41.9813 38.6654 0.0000 0.0000 0.0000
# 2 41.9813 116.9331 42.0418 0.0000 0.0000 0.0000
# 3 38.6654 42.0418 79.8133 0.0000 0.0000 0.0000
# 4 0.0000 0.0000 0.0000 31.0445 0.0000 0.0000
# 5 0.0000 0.0000 0.0000 0.0000 -6.3133 0.0000
# 6 0.0000 0.0000 0.0000 0.0000 0.0000 14.7596
#
#
#
# Elastic Compliance Matrix: (Units=1/GPa)
#
#
# Indices 1 2 3 4 5 6 
#
# 1 0.014171 -0.003231 -0.005163 0.000000 0.000000 0.000000
# 2 -0.003231 0.011287 -0.004380 0.000000 0.000000 0.000000
# 3 -0.005163 -0.004380 0.017338 0.000000 0.000000 0.000000
# 4 0.000000 0.000000 0.000000 0.032212 0.000000 0.000000
# 5 0.000000 0.000000 0.000000 0.000000 -0.158395 0.000000
# 6 0.000000 0.000000 0.000000 0.000000 0.000000 0.067753
#
#
# Mechanical properties :
#
#
# Convention : Reuss Voigt Hill
#
# Bulk Modulus (GPa) = 57.98157 59.59431 58.78794
# Shear Modulus (GPa) = 319.23415 19.11703 169.17559
#
# Velocity S-wave (km/s) = 12.25004 2.99773 8.91768
# Velocity P-wave (km/s) = 15.07781 6.32421 11.56149
#
# Compressibility (1/GPa) = 0.01724686
#
# Stress axis : x y z
#
# Youngs Moduli (GPa) = 70.56532 88.59932 57.67826
#
# Poissons Ratio (x) = 0.28631 0.29780
# Poissons Ratio (y) = 0.22803 0.25262
# Poissons Ratio (z) = 0.36433 0.38805
#
# Static dielectric constant tensor:
#      x y z
#    x 1.778900 0.000000 0.000000 
#    y 0.000000 1.785660 0.000000 
#    z 0.000000 0.000000 1.793920 
# 
# From -- ./inp_files/29104.got.cif
#   From: 2010.05.17/outbox.cif.g08.bks.cpg/sg70_15_cif.got.tgz:29104.got - 2010.06.03 15:57:51.
