data_PCOD9514765
_publ_section_title
;
Structure prediction by ZEFSAII (Michael W. Deem and Ramdas Pophale) SiO2 
 PCOD9514765
Probable space group: F D D D
;
_chemical_formula_sum "Si O2"
_cell_formula_units_Z 160
_cell_length_a 13.843028
_cell_length_b 37.421384
_cell_length_c 14.628187
_cell_angle_alpha 90.000000
_cell_angle_beta 90.000000
_cell_angle_gamma 90.000000
_cell_volume 7577.770469
_symmetry_space_group_name_H-M "F D D D"
_symmetry_group_IT_number 70
_space_group.IT_coordinate_system_code '2'
_symmetry_cell_setting 'orthorhombic'
loop_
_space_group_symop_operation_xyz
x,y,z
1/4-x,1/4-y,z
x,1/4-y,1/4-z
1/4-x,y,1/4-z
-x,-y,-z
3/4+x,3/4+y,-z
-x,3/4+y,3/4+z
3/4+x,-y,3/4+z
x,1/2+y,1/2+z
1/4-x,3/4-y,1/2+z
x,3/4-y,3/4-z
1/4-x,1/2+y,3/4-z
-x,1/2-y,1/2-z
3/4+x,1/4+y,1/2-z
-x,1/4+y,1/4+z
3/4+x,1/2-y,1/4+z
1/2+x,y,1/2+z
3/4-x,1/4-y,1/2+z
1/2+x,1/4-y,3/4-z
3/4-x,y,3/4-z
1/2-x,-y,1/2-z
1/4+x,3/4+y,1/2-z
1/2-x,3/4+y,1/4+z
1/4+x,-y,1/4+z
1/2+x,1/2+y,z
3/4-x,3/4-y,z
1/2+x,3/4-y,1/4-z
3/4-x,1/2+y,1/4-z
1/2-x,1/2-y,-z
1/4+x,1/4+y,-z
1/2-x,1/4+y,3/4+z
1/4+x,1/2-y,3/4+z
loop_
_atom_site_type_symbol
_atom_site_label
_atom_site_fract_x
_atom_site_fract_y
_atom_site_fract_z
Si Si1 0.566492 0.736523 0.473498
Si Si2 0.163044 0.086178 0.764496
Si Si3 0.173025 0.661365 0.761507
Si Si4 0.141457 0.737696 0.485324
Si Si5 0.123275 0.814996 0.230178
O O1 0.595702 0.697634 0.510538
O O2 0.616957 0.738520 0.374309
O O3 0.449863 0.741172 0.472648
O O4 0.607355 0.772374 0.520321
O O5 0.125000 0.125000 0.734922
O O6 0.169076 0.087998 0.876438
O O7 0.270553 0.076403 0.730639
O O8 0.125000 0.625000 0.731495
O O9 0.282457 0.666611 0.727687
O O10 0.117239 0.696924 0.732871
O O11 0.250000 0.750000 0.500000
O O12 0.125000 0.826832 0.125000
#
# Coordination Sequence:
#
# PCOD9514765 Si02
#       5
#    32  32  32  32  32
#     4  10  20  34  53  76 103 137 173 210 257 317
#     4   9  17  29  48  75 100 127 169 215 254 295
#     4   8  16  30  49  74  99 128 170 213 254 303
#     4  10  20  34  54  77 102 133 172 218 261 305
#     4   9  17  31  52  74 100 134 168 207 255 310
#
# _framework density 21.114391000000001
#
# number of rings (size 3 to 8) (size 9 to 14) (size 15 to 20)
#    0.000    2.800    0.000    2.400    0.000    1.600 
#    0.000    6.000    0.000   19.800    0.000    0.000 
#    0.000    0.000    0.000    0.000    0.000    0.000 
#
# Total GULP energy -223005.809619 kJ/mol
# GULP energy per Si atom -5575.145240 kJ/mol
# Density = 2.106633 g / cm^3
# Si number density = 21.114391 Si / 1000 Ang^3
#
#
#
# Elastic Constant Matrix: (Units=GPa)
#
#
# Indices 1 2 3 4 5 6 
#
# 1 181.7542 139.8920 -6.0351 0.0000 0.0000 0.0000
# 2 139.8920 190.9914 -10.0148 0.0000 0.0000 0.0000
# 3 -6.0351 -10.0148 41.2508 0.0000 0.0000 0.0000
# 4 0.0000 0.0000 0.0000 11.1954 0.0000 0.0000
# 5 0.0000 0.0000 0.0000 0.0000 18.5661 0.0000
# 6 0.0000 0.0000 0.0000 0.0000 0.0000 25.9085
#
#
#
# Elastic Compliance Matrix: (Units=1/GPa)
#
#
# Indices 1 2 3 4 5 6 
#
# 1 0.012619 -0.009264 -0.000403 0.000000 0.000000 0.000000
# 2 -0.009264 0.012104 0.001583 0.000000 0.000000 0.000000
# 3 -0.000403 0.001583 0.024567 0.000000 0.000000 0.000000
# 4 0.000000 0.000000 0.000000 0.089323 0.000000 0.000000
# 5 0.000000 0.000000 0.000000 0.000000 0.053861 0.000000
# 6 0.000000 0.000000 0.000000 0.000000 0.000000 0.038597
#
#
# Mechanical properties :
#
#
# Convention : Reuss Voigt Hill
#
# Bulk Modulus (GPa) = 30.18994 73.52007 51.85501
# Shear Modulus (GPa) = 19.35892 30.47763 24.91828
#
# Velocity S-wave (km/s) = 3.03125 3.80340 3.43907
# Velocity P-wave (km/s) = 5.15564 7.36093 6.35468
#
# Compressibility (1/GPa) = 0.03312362
#
# Stress axis : x y z
#
# Youngs Moduli (GPa) = 79.24854 82.61735 40.70430
#
# Poissons Ratio (x) = 0.76533 0.01640
# Poissons Ratio (y) = 0.73413 -0.06445
# Poissons Ratio (z) = 0.03193 -0.13081
#
# Static dielectric constant tensor:
#      x y z
#    x 1.757240 0.000000 0.000000 
#    y 0.000000 1.737130 0.000000 
#    z 0.000000 0.000000 1.890150 
# 
# From -- ./inp_files/57686.got.cif
#   From: 2010.05.17/outbox.cif.g08.bks.cpg/sg70_29_cif.got.tgz:57686.got - 2010.06.03 15:57:51.
