data_PCOD9514628
_publ_section_title
;
Structure prediction by ZEFSAII (Michael W. Deem and Ramdas Pophale) SiO2 
 PCOD9514628
Probable space group: F D D D
;
_chemical_formula_sum "Si O2"
_cell_formula_units_Z 240
_cell_length_a 25.868244
_cell_length_b 21.384855
_cell_length_c 20.273385
_cell_angle_alpha 90.000000
_cell_angle_beta 90.000000
_cell_angle_gamma 90.000000
_cell_volume 11215.006419
_symmetry_space_group_name_H-M "F D D D"
_symmetry_group_IT_number 70
_space_group.IT_coordinate_system_code '2'
_symmetry_cell_setting 'orthorhombic'
loop_
_space_group_symop_operation_xyz
x,y,z
1/4-x,1/4-y,z
x,1/4-y,1/4-z
1/4-x,y,1/4-z
-x,-y,-z
3/4+x,3/4+y,-z
-x,3/4+y,3/4+z
3/4+x,-y,3/4+z
x,1/2+y,1/2+z
1/4-x,3/4-y,1/2+z
x,3/4-y,3/4-z
1/4-x,1/2+y,3/4-z
-x,1/2-y,1/2-z
3/4+x,1/4+y,1/2-z
-x,1/4+y,1/4+z
3/4+x,1/2-y,1/4+z
1/2+x,y,1/2+z
3/4-x,1/4-y,1/2+z
1/2+x,1/4-y,3/4-z
3/4-x,y,3/4-z
1/2-x,-y,1/2-z
1/4+x,3/4+y,1/2-z
1/2-x,3/4+y,1/4+z
1/4+x,-y,1/4+z
1/2+x,1/2+y,z
3/4-x,3/4-y,z
1/2+x,3/4-y,1/4-z
3/4-x,1/2+y,1/4-z
1/2-x,1/2-y,-z
1/4+x,1/4+y,-z
1/2-x,1/4+y,3/4+z
1/4+x,1/2-y,3/4+z
loop_
_atom_site_type_symbol
_atom_site_label
_atom_site_fract_x
_atom_site_fract_y
_atom_site_fract_z
Si Si1 0.899361 0.255778 0.208924
Si Si2 0.036214 0.844729 0.283885
Si Si3 0.776871 0.017121 0.037398
Si Si4 0.905851 0.613442 0.739181
Si Si5 0.529214 0.484333 0.844016
Si Si6 0.481391 0.026839 0.909466
Si Si7 0.125000 0.301722 0.625000
Si Si8 0.926161 0.942780 0.908756
O O1 0.837358 0.249178 0.211650
O O2 0.917424 0.186688 0.232824
O O3 0.925321 0.265593 0.137486
O O4 0.916625 0.305778 0.263347
O O5 0.018404 0.911356 0.311057
O O6 0.098186 0.848617 0.288308
O O7 0.018751 0.836387 0.207202
O O8 0.015051 0.780233 0.312926
O O9 0.751174 0.966915 0.085558
O O10 0.749260 0.016901 0.967138
O O11 0.944983 0.575420 0.692686
O O12 0.899684 0.592445 0.815692
O O13 0.481375 0.472065 0.892741
O O14 0.420761 0.010523 0.905345
O O15 0.928499 0.875000 0.875000
O O16 0.875000 0.974219 0.875000
#
# Coordination Sequence:
#
# PCOD9514628 Si02
#       8
#    32  32  32  32  32  32  16  32
#     4  11  24  42  68  93 126 176 221 272 317 392
#     4   9  21  38  64  92 122 170 214 268 328 392
#     4  11  22  41  64  96 128 166 221 270 327 390
#     4  10  21  39  66  97 123 161 226 271 316 379
#     4  12  23  41  65  96 129 165 215 273 328 384
#     4  10  19  38  62  88 129 164 211 267 332 387
#     4  10  20  34  63  92 125 164 204 270 320 390
#     4  11  24  43  60  89 129 170 214 260 326 384
#
# _framework density 21.399899000000001
#
# number of rings (size 3 to 8) (size 9 to 14) (size 15 to 20)
#    0.000    1.467    2.667    2.800    0.933    3.200 
#    2.400    1.333    0.000    0.000    0.000    0.000 
#    0.000    0.000    0.000    0.000    0.000    0.000 
#
# Total GULP energy -334521.368587 kJ/mol
# GULP energy per Si atom -5575.356143 kJ/mol
# Density = 2.135119 g / cm^3
# Si number density = 21.399899 Si / 1000 Ang^3
#
#
#
# Elastic Constant Matrix: (Units=GPa)
#
#
# Indices 1 2 3 4 5 6 
#
# 1 81.7056 33.0598 36.8154 0.0000 0.0000 0.0000
# 2 33.0598 29.1083 11.2453 0.0000 0.0000 0.0000
# 3 36.8154 11.2453 113.9967 0.0000 0.0000 0.0000
# 4 0.0000 0.0000 0.0000 32.3662 0.0000 0.0000
# 5 0.0000 0.0000 0.0000 0.0000 37.5389 0.0000
# 6 0.0000 0.0000 0.0000 0.0000 0.0000 13.4142
#
#
#
# Elastic Compliance Matrix: (Units=1/GPa)
#
#
# Indices 1 2 3 4 5 6 
#
# 1 0.025716 -0.027029 -0.005639 0.000000 0.000000 0.000000
# 2 -0.027029 0.064124 0.002403 0.000000 0.000000 0.000000
# 3 -0.005639 0.002403 0.010356 0.000000 0.000000 0.000000
# 4 0.000000 0.000000 0.000000 0.030896 0.000000 0.000000
# 5 0.000000 0.000000 0.000000 0.000000 0.026639 0.000000
# 6 0.000000 0.000000 0.000000 0.000000 0.000000 0.074548
#
#
# Mechanical properties :
#
#
# Convention : Reuss Voigt Hill
#
# Bulk Modulus (GPa) = 25.20927 43.00572 34.10750
# Shear Modulus (GPa) = 16.33821 26.24319 21.29070
#
# Velocity S-wave (km/s) = 2.76610 3.50569 3.15762
# Velocity P-wave (km/s) = 4.69120 6.04370 5.40988
#
# Compressibility (1/GPa) = 0.03966795
#
# Stress axis : x y z
#
# Youngs Moduli (GPa) = 38.88590 15.59478 96.56097
#
# Poissons Ratio (x) = 0.42151 0.54449
# Poissons Ratio (y) = 1.05104 -0.23208
# Poissons Ratio (z) = 0.21927 -0.03748
#
# Static dielectric constant tensor:
#      x y z
#    x 1.798580 0.000000 0.000000 
#    y 0.000000 1.730140 0.000000 
#    z 0.000000 0.000000 1.912320 
# 
# From -- ./inp_files/47133.got.cif
#   From: 2010.05.17/outbox.cif.g08.bks.cpg/sg70_24_cif.got.tgz:47133.got - 2010.06.03 15:57:51.
