data_PCOD9514454
_publ_section_title
;
Structure prediction by ZEFSAII (Michael W. Deem and Ramdas Pophale) SiO2 
 PCOD9514454
Probable space group: F D D D
;
_chemical_formula_sum "Si O2"
_cell_formula_units_Z 192
_cell_length_a 18.880629
_cell_length_b 23.863730
_cell_length_c 21.865361
_cell_angle_alpha 90.000000
_cell_angle_beta 90.000000
_cell_angle_gamma 90.000000
_cell_volume 9851.705871
_symmetry_space_group_name_H-M "F D D D"
_symmetry_group_IT_number 70
_space_group.IT_coordinate_system_code '2'
_symmetry_cell_setting 'orthorhombic'
loop_
_space_group_symop_operation_xyz
x,y,z
1/4-x,1/4-y,z
x,1/4-y,1/4-z
1/4-x,y,1/4-z
-x,-y,-z
3/4+x,3/4+y,-z
-x,3/4+y,3/4+z
3/4+x,-y,3/4+z
x,1/2+y,1/2+z
1/4-x,3/4-y,1/2+z
x,3/4-y,3/4-z
1/4-x,1/2+y,3/4-z
-x,1/2-y,1/2-z
3/4+x,1/4+y,1/2-z
-x,1/4+y,1/4+z
3/4+x,1/2-y,1/4+z
1/2+x,y,1/2+z
3/4-x,1/4-y,1/2+z
1/2+x,1/4-y,3/4-z
3/4-x,y,3/4-z
1/2-x,-y,1/2-z
1/4+x,3/4+y,1/2-z
1/2-x,3/4+y,1/4+z
1/4+x,-y,1/4+z
1/2+x,1/2+y,z
3/4-x,3/4-y,z
1/2+x,3/4-y,1/4-z
3/4-x,1/2+y,1/4-z
1/2-x,1/2-y,-z
1/4+x,1/4+y,-z
1/2-x,1/4+y,3/4+z
1/4+x,1/2-y,3/4+z
loop_
_atom_site_type_symbol
_atom_site_label
_atom_site_fract_x
_atom_site_fract_y
_atom_site_fract_z
Si Si1 0.453830 0.636500 0.902230
Si Si2 0.860482 0.146676 0.523711
Si Si3 0.149215 0.953120 0.863938
Si Si4 0.515973 0.150730 0.968410
Si Si5 0.099026 0.537356 0.988596
Si Si6 0.451823 0.763021 0.862434
O O1 0.375000 0.627684 0.875000
O O2 0.507666 0.606120 0.855464
O O3 0.462834 0.704131 0.897517
O O4 0.447670 0.613429 0.971298
O O5 0.868884 0.091188 0.565389
O O6 0.855458 0.196123 0.573945
O O7 0.936880 0.155411 0.492777
O O8 0.233555 0.945274 0.874338
O O9 0.153142 0.011302 0.828625
O O10 0.553952 0.093925 0.990189
O O11 0.567702 0.198714 0.993952
O O12 0.063279 0.498634 0.040397
O O13 0.375000 0.789585 0.875000
#
# Coordination Sequence:
#
# PCOD9514454 Si02
#       6
#    32  32  32  32  32  32
#     4   9  18  33  52  67  97 146 170 197 254 316
#     4  10  21  34  49  71 104 140 177 208 250 308
#     4  11  20  33  48  76 108 134 175 218 251 308
#     4  10  19  34  49  75 103 132 172 213 250 312
#     4  11  20  31  51  76 108 130 171 215 260 305
#     4  11  19  30  51  75 107 146 168 193 262 325
#
# _framework density 19.489011000000001
#
# number of rings (size 3 to 8) (size 9 to 14) (size 15 to 20)
#    0.000    1.667    3.333    4.500    0.000    0.000 
#    0.000    0.833    0.000    0.000    0.000    0.000 
#    0.000    3.333    0.000    0.000    0.000    0.000 
#
# Total GULP energy -267325.521681 kJ/mol
# GULP energy per Si atom -5569.281702 kJ/mol
# Density = 1.944465 g / cm^3
# Si number density = 19.489011 Si / 1000 Ang^3
#
#
#
# Elastic Constant Matrix: (Units=GPa)
#
#
# Indices 1 2 3 4 5 6 
#
# 1 30.7736 -4.4743 12.5120 0.0000 0.0000 0.0000
# 2 -4.4743 29.4130 16.1984 0.0000 0.0000 0.0000
# 3 12.5120 16.1984 119.4327 0.0000 0.0000 0.0000
# 4 0.0000 0.0000 0.0000 23.7046 0.0000 0.0000
# 5 0.0000 0.0000 0.0000 0.0000 32.8124 0.0000
# 6 0.0000 0.0000 0.0000 0.0000 0.0000 11.5511
#
#
#
# Elastic Compliance Matrix: (Units=1/GPa)
#
#
# Indices 1 2 3 4 5 6 
#
# 1 0.035634 0.008080 -0.004829 0.000000 0.000000 0.000000
# 2 0.008080 0.038575 -0.006078 0.000000 0.000000 0.000000
# 3 -0.004829 -0.006078 0.009703 0.000000 0.000000 0.000000
# 4 0.000000 0.000000 0.000000 0.042186 0.000000 0.000000
# 5 0.000000 0.000000 0.000000 0.000000 0.030476 0.000000
# 6 0.000000 0.000000 0.000000 0.000000 0.000000 0.086572
#
#
# Mechanical properties :
#
#
# Convention : Reuss Voigt Hill
#
# Bulk Modulus (GPa) = 12.77838 25.34352 19.06095
# Shear Modulus (GPa) = 18.18931 23.97247 21.08089
#
# Velocity S-wave (km/s) = 3.05833 3.51101 3.29246
# Velocity P-wave (km/s) = 4.36373 5.42849 4.92497
#
# Compressibility (1/GPa) = 0.07825721
#
# Stress axis : x y z
#
# Youngs Moduli (GPa) = 28.06343 25.92343 103.05881
#
# Poissons Ratio (x) = -0.20946 0.49766
# Poissons Ratio (y) = -0.22675 0.62643
# Poissons Ratio (z) = 0.13552 0.15757
#
# Static dielectric constant tensor:
#      x y z
#    x 1.758390 0.000000 0.000000 
#    y 0.000000 1.707090 0.000000 
#    z 0.000000 0.000000 1.866180 
# 
# From -- ./inp_files/45103.got.cif
#   From: 2010.05.17/outbox.cif.g08.bks.cpg/sg70_23_cif.got.tgz:45103.got - 2010.06.03 15:57:51.
