data_PCOD9514350
_publ_section_title
;
Structure prediction by ZEFSAII (Michael W. Deem and Ramdas Pophale) SiO2 
 PCOD9514350
Probable space group: F D D D
;
_chemical_formula_sum "Si O2"
_cell_formula_units_Z 128
_cell_length_a 11.988592
_cell_length_b 28.525204
_cell_length_c 15.447645
_cell_angle_alpha 90.000000
_cell_angle_beta 90.000000
_cell_angle_gamma 90.000000
_cell_volume 5282.739796
_symmetry_space_group_name_H-M "F D D D"
_symmetry_group_IT_number 70
_space_group.IT_coordinate_system_code '2'
_symmetry_cell_setting 'orthorhombic'
loop_
_space_group_symop_operation_xyz
x,y,z
1/4-x,1/4-y,z
x,1/4-y,1/4-z
1/4-x,y,1/4-z
-x,-y,-z
3/4+x,3/4+y,-z
-x,3/4+y,3/4+z
3/4+x,-y,3/4+z
x,1/2+y,1/2+z
1/4-x,3/4-y,1/2+z
x,3/4-y,3/4-z
1/4-x,1/2+y,3/4-z
-x,1/2-y,1/2-z
3/4+x,1/4+y,1/2-z
-x,1/4+y,1/4+z
3/4+x,1/2-y,1/4+z
1/2+x,y,1/2+z
3/4-x,1/4-y,1/2+z
1/2+x,1/4-y,3/4-z
3/4-x,y,3/4-z
1/2-x,-y,1/2-z
1/4+x,3/4+y,1/2-z
1/2-x,3/4+y,1/4+z
1/4+x,-y,1/4+z
1/2+x,1/2+y,z
3/4-x,3/4-y,z
1/2+x,3/4-y,1/4-z
3/4-x,1/2+y,1/4-z
1/2-x,1/2-y,-z
1/4+x,1/4+y,-z
1/2-x,1/4+y,3/4+z
1/4+x,1/2-y,3/4+z
loop_
_atom_site_type_symbol
_atom_site_label
_atom_site_fract_x
_atom_site_fract_y
_atom_site_fract_z
Si Si1 0.209033 0.473465 0.833290
Si Si2 0.375000 0.532067 0.375000
Si Si3 0.042781 0.870149 0.197906
Si Si4 0.277053 0.465603 0.501620
Si Si5 0.429124 0.125000 0.625000
O O1 0.250000 0.500000 0.750000
O O2 0.076414 0.467444 0.815549
O O3 0.247527 0.420311 0.846245
O O4 0.244512 0.504642 0.913276
O O5 0.277133 0.569952 0.350702
O O6 0.368363 0.496635 0.454160
O O7 0.125000 0.893644 0.125000
O O8 0.956929 0.911395 0.222691
O O9 0.107016 0.860906 0.289059
#
# Coordination Sequence:
#
# PCOD9514350 Si02
#       5
#    32  16  32  32  16
#     4  11  22  39  67  97 128 174 228 281 342 408
#     4  10  22  42  68  93 138 181 220 284 340 400
#     4   9  19  39  64  90 135 173 217 275 339 396
#     4  11  22  40  67  94 135 180 224 278 347 405
#     4  10  18  38  63  87 132 174 208 276 360 377
#
# _framework density 24.229849999999999
#
# number of rings (size 3 to 8) (size 9 to 14) (size 15 to 20)
#    0.750    1.000    2.500    3.750    0.000    1.000 
#    0.000    6.250   11.000    0.000    0.000    0.000 
#    0.000    0.000    0.000    0.000    0.000    0.000 
#
# Total GULP energy -178304.269249 kJ/mol
# GULP energy per Si atom -5572.008414 kJ/mol
# Density = 2.417470 g / cm^3
# Si number density = 24.229850 Si / 1000 Ang^3
#
#
#
# Elastic Constant Matrix: (Units=GPa)
#
#
# Indices 1 2 3 4 5 6 
#
# 1 39.1458 30.5841 -2.1255 0.0000 0.0000 0.0000
# 2 30.5841 248.5889 52.2438 0.0000 0.0000 0.0000
# 3 -2.1255 52.2438 150.2958 0.0000 0.0000 0.0000
# 4 0.0000 0.0000 0.0000 46.4225 0.0000 0.0000
# 5 0.0000 0.0000 0.0000 0.0000 30.0851 0.0000
# 6 0.0000 0.0000 0.0000 0.0000 0.0000 29.0812
#
#
#
# Elastic Compliance Matrix: (Units=1/GPa)
#
#
# Indices 1 2 3 4 5 6 
#
# 1 0.028688 -0.003900 0.001761 0.000000 0.000000 0.000000
# 2 -0.003900 0.004870 -0.001748 0.000000 0.000000 0.000000
# 3 0.001761 -0.001748 0.007286 0.000000 0.000000 0.000000
# 4 0.000000 0.000000 0.000000 0.021541 0.000000 0.000000
# 5 0.000000 0.000000 0.000000 0.000000 0.033239 0.000000
# 6 0.000000 0.000000 0.000000 0.000000 0.000000 0.034387
#
#
# Mechanical properties :
#
#
# Convention : Reuss Voigt Hill
#
# Bulk Modulus (GPa) = 30.23784 66.60391 48.42088
# Shear Modulus (GPa) = 33.60057 44.93962 39.27010
#
# Velocity S-wave (km/s) = 3.72794 4.31132 4.03020
# Velocity P-wave (km/s) = 5.57106 7.23404 6.45632
#
# Compressibility (1/GPa) = 0.03307115
#
# Stress axis : x y z
#
# Youngs Moduli (GPa) = 34.85787 205.34592 137.24860
#
# Poissons Ratio (x) = 0.80078 -0.24173
# Poissons Ratio (y) = 0.13593 0.23990
# Poissons Ratio (z) = -0.06139 0.35893
#
# Static dielectric constant tensor:
#      x y z
#    x 2.107840 0.000000 0.000000 
#    y 0.000000 1.975290 0.000000 
#    z 0.000000 0.000000 1.867220 
# 
# From -- ./inp_files/26532.got.cif
#   From: 2010.05.17/outbox.cif.g08.bks.cpg/sg70_14_cif.got.tgz:26532.got - 2010.06.03 15:57:51.
