data_PCOD9514867
_publ_section_title
;
Structure prediction by ZEFSAII (Michael W. Deem and Ramdas Pophale) SiO2 
 PCOD9514867
Probable space group: F D D D
;
_chemical_formula_sum "Si O2"
_cell_formula_units_Z 152
_cell_length_a 24.103519
_cell_length_b 9.732543
_cell_length_c 29.604137
_cell_angle_alpha 90.000000
_cell_angle_beta 90.000000
_cell_angle_gamma 90.000000
_cell_volume 6944.791132
_symmetry_space_group_name_H-M "F D D D"
_symmetry_group_IT_number 70
_space_group.IT_coordinate_system_code '2'
_symmetry_cell_setting 'orthorhombic'
loop_
_space_group_symop_operation_xyz
x,y,z
1/4-x,1/4-y,z
x,1/4-y,1/4-z
1/4-x,y,1/4-z
-x,-y,-z
3/4+x,3/4+y,-z
-x,3/4+y,3/4+z
3/4+x,-y,3/4+z
x,1/2+y,1/2+z
1/4-x,3/4-y,1/2+z
x,3/4-y,3/4-z
1/4-x,1/2+y,3/4-z
-x,1/2-y,1/2-z
3/4+x,1/4+y,1/2-z
-x,1/4+y,1/4+z
3/4+x,1/2-y,1/4+z
1/2+x,y,1/2+z
3/4-x,1/4-y,1/2+z
1/2+x,1/4-y,3/4-z
3/4-x,y,3/4-z
1/2-x,-y,1/2-z
1/4+x,3/4+y,1/2-z
1/2-x,3/4+y,1/4+z
1/4+x,-y,1/4+z
1/2+x,1/2+y,z
3/4-x,3/4-y,z
1/2+x,3/4-y,1/4-z
3/4-x,1/2+y,1/4-z
1/2-x,1/2-y,-z
1/4+x,1/4+y,-z
1/2-x,1/4+y,3/4+z
1/4+x,1/2-y,3/4+z
loop_
_atom_site_type_symbol
_atom_site_label
_atom_site_fract_x
_atom_site_fract_y
_atom_site_fract_z
Si Si1 0.689762 0.875000 0.375000
Si Si2 0.125000 0.625000 0.125000
Si Si3 0.967161 0.478710 0.333247
Si Si4 0.279398 0.554232 0.408573
Si Si5 0.295320 0.511353 0.697439
Si Si6 0.875000 0.375000 0.481107
Si Si7 0.125000 0.125000 0.376666
O O1 0.729800 0.804810 0.339003
O O2 0.655305 0.753781 0.398723
O O3 0.086484 0.528028 0.156357
O O4 0.955490 0.375000 0.375000
O O5 0.973270 0.622060 0.359097
O O6 0.915585 0.466777 0.299694
O O7 0.022233 0.415005 0.309635
O O8 0.261099 0.668312 0.444915
O O9 0.335831 0.469178 0.737526
O O10 0.330340 0.456465 0.654390
#
# Coordination Sequence:
#
# PCOD9514867 Si02
#       7
#    16   8  32  32  32  16  16
#     4   9  18  31  54  88 118 157 198 253 300 350
#     4  10  20  36  62  84 116 156 208 266 308 356
#     4  10  21  35  60  92 121 155 211 258 290 368
#     4   9  20  36  57  91 116 157 206 258 300 362
#     4   9  20  36  55  89 128 153 198 246 312 364
#     4  11  21  36  59  96 125 170 192 249 322 373
#     4   9  18  30  57  84 118 160 196 242 303 356
#
# _framework density 21.886907000000001
#
# number of rings (size 3 to 8) (size 9 to 14) (size 15 to 20)
#    0.000    2.526    0.000    0.947   13.263    0.000 
#    0.000    0.000    0.000   20.211    0.000    0.000 
#    0.000    0.000    0.000    0.000    0.000    0.000 
#
# Total GULP energy -211723.690489 kJ/mol
# GULP energy per Si atom -5571.676066 kJ/mol
# Density = 2.183709 g / cm^3
# Si number density = 21.886907 Si / 1000 Ang^3
#
#
#
# Elastic Constant Matrix: (Units=GPa)
#
#
# Indices 1 2 3 4 5 6 
#
# 1 143.3793 58.5990 47.8531 0.0000 0.0000 0.0000
# 2 58.5990 111.0913 17.2045 0.0000 0.0000 0.0000
# 3 47.8531 17.2045 70.4203 0.0000 0.0000 0.0000
# 4 0.0000 0.0000 0.0000 13.4030 0.0000 0.0000
# 5 0.0000 0.0000 0.0000 0.0000 17.3599 0.0000
# 6 0.0000 0.0000 0.0000 0.0000 0.0000 39.4550
#
#
#
# Elastic Compliance Matrix: (Units=1/GPa)
#
#
# Indices 1 2 3 4 5 6 
#
# 1 0.011077 -0.004861 -0.006340 0.000000 0.000000 0.000000
# 2 -0.004861 0.011489 0.000496 0.000000 0.000000 0.000000
# 3 -0.006340 0.000496 0.018387 0.000000 0.000000 0.000000
# 4 0.000000 0.000000 0.000000 0.074610 0.000000 0.000000
# 5 0.000000 0.000000 0.000000 0.000000 0.057604 0.000000
# 6 0.000000 0.000000 0.000000 0.000000 0.000000 0.025345
#
#
# Mechanical properties :
#
#
# Convention : Reuss Voigt Hill
#
# Bulk Modulus (GPa) = 51.16535 63.57823 57.37179
# Shear Modulus (GPa) = 22.08125 27.45919 24.77022
#
# Velocity S-wave (km/s) = 3.17973 3.54587 3.36778
# Velocity P-wave (km/s) = 6.07526 6.77317 6.43369
#
# Compressibility (1/GPa) = 0.01954448
#
# Stress axis : x y z
#
# Youngs Moduli (GPa) = 90.27586 87.04027 54.38571
#
# Poissons Ratio (x) = 0.42312 0.34479
# Poissons Ratio (y) = 0.43885 -0.02700
# Poissons Ratio (z) = 0.57232 -0.04321
#
# Static dielectric constant tensor:
#      x y z
#    x 1.910650 0.000000 0.000000 
#    y 0.000000 1.871600 0.000000 
#    z 0.000000 0.000000 1.826240 
# 
# From -- ./inp_files/67760.got.cif
#   From: 2010.05.17/outbox.cif.g08.bks.cpg/sg70_34_cif.got.tgz:67760.got - 2010.06.03 15:57:51.
