data_PCOD9514851
_publ_section_title
;
Structure prediction by ZEFSAII (Michael W. Deem and Ramdas Pophale) SiO2 
 PCOD9514851
Probable space group: F D D D
;
_chemical_formula_sum "Si O2"
_cell_formula_units_Z 232
_cell_length_a 17.145163
_cell_length_b 22.439380
_cell_length_c 31.416560
_cell_angle_alpha 90.000000
_cell_angle_beta 90.000000
_cell_angle_gamma 90.000000
_cell_volume 12086.793467
_symmetry_space_group_name_H-M "F D D D"
_symmetry_group_IT_number 70
_space_group.IT_coordinate_system_code '2'
_symmetry_cell_setting 'orthorhombic'
loop_
_space_group_symop_operation_xyz
x,y,z
1/4-x,1/4-y,z
x,1/4-y,1/4-z
1/4-x,y,1/4-z
-x,-y,-z
3/4+x,3/4+y,-z
-x,3/4+y,3/4+z
3/4+x,-y,3/4+z
x,1/2+y,1/2+z
1/4-x,3/4-y,1/2+z
x,3/4-y,3/4-z
1/4-x,1/2+y,3/4-z
-x,1/2-y,1/2-z
3/4+x,1/4+y,1/2-z
-x,1/4+y,1/4+z
3/4+x,1/2-y,1/4+z
1/2+x,y,1/2+z
3/4-x,1/4-y,1/2+z
1/2+x,1/4-y,3/4-z
3/4-x,y,3/4-z
1/2-x,-y,1/2-z
1/4+x,3/4+y,1/2-z
1/2-x,3/4+y,1/4+z
1/4+x,-y,1/4+z
1/2+x,1/2+y,z
3/4-x,3/4-y,z
1/2+x,3/4-y,1/4-z
3/4-x,1/2+y,1/4-z
1/2-x,1/2-y,-z
1/4+x,1/4+y,-z
1/2-x,1/4+y,3/4+z
1/4+x,1/2-y,3/4+z
loop_
_atom_site_type_symbol
_atom_site_label
_atom_site_fract_x
_atom_site_fract_y
_atom_site_fract_z
Si Si1 0.719605 0.305373 0.692921
Si Si2 0.807248 0.081397 0.770603
Si Si3 0.592062 0.530841 0.553116
Si Si4 0.846874 0.311557 0.632301
Si Si5 0.153460 0.012187 0.298079
Si Si6 0.216351 0.567243 0.290352
Si Si7 0.625000 0.625000 0.625000
Si Si8 0.233897 0.967557 0.514636
O O1 0.627016 0.309736 0.698426
O O2 0.756828 0.309183 0.646291
O O3 0.752232 0.366107 0.713226
O O4 0.755799 0.250055 0.719034
O O5 0.725104 0.056211 0.787385
O O6 0.803612 0.152157 0.764416
O O7 0.826767 0.048930 0.725958
O O8 0.564506 0.553049 0.506587
O O9 0.535764 0.474012 0.558237
O O10 0.584693 0.578972 0.591043
O O11 0.680613 0.508422 0.545582
O O12 0.875000 0.375000 0.612945
O O13 0.858364 0.259973 0.598468
O O14 0.898116 0.308944 0.675095
O O15 0.072188 0.036460 0.280486
#
# Coordination Sequence:
#
# PCOD9514851 Si02
#       8
#    32  32  32  32  32  32   8  32
#     4  10  20  36  62  89 118 162 214 248 315 385
#     4  10  21  40  61  92 117 165 207 271 327 381
#     4  11  23  40  61  88 133 166 207 247 314 374
#     4  10  20  36  59  89 119 162 206 260 309 375
#     4  10  23  39  61  87 127 154 213 276 320 372
#     4  10  21  41  62  85 124 177 205 245 305 393
#     4  12  28  40  60 108 136 164 206 278 308 368
#     4  11  20  38  65  88 121 168 209 255 324 387
#
# _framework density 19.194503999999998
#
# number of rings (size 3 to 8) (size 9 to 14) (size 15 to 20)
#    0.000    1.655    2.759    2.069    2.897    0.552 
#    0.000    0.690    0.000    0.000    0.000    5.793 
#    0.000    0.000    0.000    0.000    0.000    0.000 
#
# Total GULP energy -323235.752797 kJ/mol
# GULP energy per Si atom -5573.030221 kJ/mol
# Density = 1.915082 g / cm^3
# Si number density = 19.194504 Si / 1000 Ang^3
#
#
#
# Elastic Constant Matrix: (Units=GPa)
#
#
# Indices 1 2 3 4 5 6 
#
# 1 109.4763 15.7525 29.1655 0.0000 0.0000 0.0000
# 2 15.7525 73.2910 25.5831 0.0000 0.0000 0.0000
# 3 29.1655 25.5831 68.7808 0.0000 0.0000 0.0000
# 4 0.0000 0.0000 0.0000 27.5202 0.0000 0.0000
# 5 0.0000 0.0000 0.0000 0.0000 9.8984 0.0000
# 6 0.0000 0.0000 0.0000 0.0000 0.0000 25.1082
#
#
#
# Elastic Compliance Matrix: (Units=1/GPa)
#
#
# Indices 1 2 3 4 5 6 
#
# 1 0.010338 -0.000795 -0.004088 0.000000 0.000000 0.000000
# 2 -0.000795 0.015741 -0.005518 0.000000 0.000000 0.000000
# 3 -0.004088 -0.005518 0.018325 0.000000 0.000000 0.000000
# 4 0.000000 0.000000 0.000000 0.036337 0.000000 0.000000
# 5 0.000000 0.000000 0.000000 0.000000 0.101026 0.000000
# 6 0.000000 0.000000 0.000000 0.000000 0.000000 0.039828
#
#
# Mechanical properties :
#
#
# Convention : Reuss Voigt Hill
#
# Bulk Modulus (GPa) = 42.36884 43.61671 42.99278
# Shear Modulus (GPa) = 19.97896 24.57517 22.27707
#
# Velocity S-wave (km/s) = 3.22975 3.58204 3.41045
# Velocity P-wave (km/s) = 6.00248 6.31513 6.16079
#
# Compressibility (1/GPa) = 0.02360225
#
# Stress axis : x y z
#
# Youngs Moduli (GPa) = 96.73193 63.52766 54.57104
#
# Poissons Ratio (x) = 0.05050 0.22308
# Poissons Ratio (y) = 0.07690 0.30111
# Poissons Ratio (z) = 0.39543 0.35054
#
# Static dielectric constant tensor:
#      x y z
#    x 1.707310 0.000000 0.000000 
#    y 0.000000 1.681210 0.000000 
#    z 0.000000 0.000000 1.683570 
# 
# From -- ./inp_files/66872.got.cif
#   From: 2010.05.17/outbox.cif.g08.bks.cpg/sg70_34_cif.got.tgz:66872.got - 2010.06.03 15:57:51.
