data_PCOD9514250
_publ_section_title
;
Structure prediction by ZEFSAII (Michael W. Deem and Ramdas Pophale) SiO2 
 PCOD9514250
Probable space group: F D D D
;
_chemical_formula_sum "Si O2"
_cell_formula_units_Z 232
_cell_length_a 24.130044
_cell_length_b 31.611301
_cell_length_c 16.072367
_cell_angle_alpha 90.000000
_cell_angle_beta 90.000000
_cell_angle_gamma 90.000000
_cell_volume 12259.713596
_symmetry_space_group_name_H-M "F D D D"
_symmetry_group_IT_number 70
_space_group.IT_coordinate_system_code '2'
_symmetry_cell_setting 'orthorhombic'
loop_
_space_group_symop_operation_xyz
x,y,z
1/4-x,1/4-y,z
x,1/4-y,1/4-z
1/4-x,y,1/4-z
-x,-y,-z
3/4+x,3/4+y,-z
-x,3/4+y,3/4+z
3/4+x,-y,3/4+z
x,1/2+y,1/2+z
1/4-x,3/4-y,1/2+z
x,3/4-y,3/4-z
1/4-x,1/2+y,3/4-z
-x,1/2-y,1/2-z
3/4+x,1/4+y,1/2-z
-x,1/4+y,1/4+z
3/4+x,1/2-y,1/4+z
1/2+x,y,1/2+z
3/4-x,1/4-y,1/2+z
1/2+x,1/4-y,3/4-z
3/4-x,y,3/4-z
1/2-x,-y,1/2-z
1/4+x,3/4+y,1/2-z
1/2-x,3/4+y,1/4+z
1/4+x,-y,1/4+z
1/2+x,1/2+y,z
3/4-x,3/4-y,z
1/2+x,3/4-y,1/4-z
3/4-x,1/2+y,1/4-z
1/2-x,1/2-y,-z
1/4+x,1/4+y,-z
1/2-x,1/4+y,3/4+z
1/4+x,1/2-y,3/4+z
loop_
_atom_site_type_symbol
_atom_site_label
_atom_site_fract_x
_atom_site_fract_y
_atom_site_fract_z
Si Si1 0.230910 0.536992 0.814205
Si Si2 0.218897 0.449184 0.504086
Si Si3 0.707769 0.699111 0.591237
Si Si4 0.867649 0.015593 0.654796
Si Si5 0.393187 0.124694 0.961299
Si Si6 0.567864 0.966013 0.013209
Si Si7 0.625000 0.125000 0.125000
Si Si8 0.460323 0.154852 0.693551
O O1 0.250000 0.500000 0.750000
O O2 0.166519 0.527119 0.830168
O O3 0.248713 0.579275 0.765591
O O4 0.260433 0.537169 0.904619
O O5 0.266115 0.449187 0.433739
O O6 0.166149 0.476530 0.472221
O O7 0.194031 0.401819 0.504937
O O8 0.681790 0.745149 0.576101
O O9 0.758148 0.701844 0.524680
O O10 0.666848 0.658912 0.580405
O O11 0.896669 0.019022 0.566100
O O12 0.822401 0.053633 0.659998
O O13 0.375000 0.145791 0.875000
O O14 0.409206 0.076768 0.949113
O O15 0.340361 0.127566 0.020192
O O16 0.487891 0.125000 0.625000
#
# Coordination Sequence:
#
# PCOD9514250 Si02
#       8
#    32  32  32  32  32  32   8  32
#     4  10  21  35  56  89 119 156 204 254 307 367
#     4  10  21  39  59  91 122 159 205 255 309 367
#     4  10  24  40  62  87 125 163 199 245 304 380
#     4   9  20  34  62  87 122 155 200 256 305 362
#     4  11  20  32  61  89 119 150 199 258 305 356
#     4  10  21  41  59  92 123 158 204 249 306 363
#     4  12  24  40  60  92 120 168 202 236 316 382
#     4  10  18  34  54  87 120 156 195 252 314 362
#
# _framework density 18.923770000000001
#
# number of rings (size 3 to 8) (size 9 to 14) (size 15 to 20)
#    0.000    1.931    2.759    0.828    2.897    0.000 
#    0.000    0.000    0.000    0.000    3.586    0.966 
#    0.000    0.000    0.000    0.000    0.000    0.000 
#
# Total GULP energy -323130.490882 kJ/mol
# GULP energy per Si atom -5571.215360 kJ/mol
# Density = 1.888070 g / cm^3
# Si number density = 18.923770 Si / 1000 Ang^3
#
#
#
# Elastic Constant Matrix: (Units=GPa)
#
#
# Indices 1 2 3 4 5 6 
#
# 1 95.4404 63.3491 47.4524 0.0000 0.0000 0.0000
# 2 63.3491 85.8961 35.6415 0.0000 0.0000 0.0000
# 3 47.4524 35.6415 102.0648 0.0000 0.0000 0.0000
# 4 0.0000 0.0000 0.0000 26.8213 0.0000 0.0000
# 5 0.0000 0.0000 0.0000 0.0000 19.4788 0.0000
# 6 0.0000 0.0000 0.0000 0.0000 0.0000 4.0228
#
#
#
# Elastic Compliance Matrix: (Units=1/GPa)
#
#
# Indices 1 2 3 4 5 6 
#
# 1 0.022943 -0.014612 -0.005564 0.000000 0.000000 0.000000
# 2 -0.014612 0.022921 -0.001211 0.000000 0.000000 0.000000
# 3 -0.005564 -0.001211 0.012807 0.000000 0.000000 0.000000
# 4 0.000000 0.000000 0.000000 0.037284 0.000000 0.000000
# 5 0.000000 0.000000 0.000000 0.000000 0.051338 0.000000
# 6 0.000000 0.000000 0.000000 0.000000 0.000000 0.248584
#
#
# Mechanical properties :
#
#
# Convention : Reuss Voigt Hill
#
# Bulk Modulus (GPa) = 62.90220 64.03190 63.46705
# Shear Modulus (GPa) = 11.26257 19.19515 15.22886
#
# Velocity S-wave (km/s) = 2.44223 3.18833 2.83988
# Velocity P-wave (km/s) = 6.42375 6.88942 6.66066
#
# Compressibility (1/GPa) = 0.01589770
#
# Stress axis : x y z
#
# Youngs Moduli (GPa) = 43.58648 43.62883 78.08000
#
# Poissons Ratio (x) = 0.63750 0.43445
# Poissons Ratio (y) = 0.63688 0.09452
# Poissons Ratio (z) = 0.24252 0.05282
#
# Static dielectric constant tensor:
#      x y z
#    x 1.713040 0.000000 0.000000 
#    y 0.000000 1.661200 0.000000 
#    z 0.000000 0.000000 1.695750 
# 
# From -- ./inp_files/37877.got.cif
#   From: 2010.05.17/outbox.cif.g08.bks.cpg/sg70_19_cif.got.tgz:37877.got - 2010.06.03 15:57:51.
