data_PCOD9514024
_publ_section_title
;
Structure prediction by ZEFSAII (Michael W. Deem and Ramdas Pophale) SiO2 
 PCOD9514024
Probable space group: F M M M
;
_chemical_formula_sum "Si O2"
_cell_formula_units_Z 44
_cell_length_a 15.000000
_cell_length_b 27.000000
_cell_length_c 24.000000
_cell_angle_alpha 90.000000
_cell_angle_beta 90.000000
_cell_angle_gamma 90.000000
_cell_volume 9720.000000
_symmetry_space_group_name_H-M "F M M M"
_symmetry_group_IT_number 69
_symmetry_cell_setting 'orthorhombic'
loop_
_space_group_symop_operation_xyz
x,y,z
-x,-y,z
x,-y,-z
-x,y,-z
-x,-y,-z
x,y,-z
-x,y,z
x,-y,z
x,1/2+y,1/2+z
-x,1/2-y,1/2+z
x,1/2-y,1/2-z
-x,1/2+y,1/2-z
-x,1/2-y,1/2-z
x,1/2+y,1/2-z
-x,1/2+y,1/2+z
x,1/2-y,1/2+z
1/2+x,y,1/2+z
1/2-x,-y,1/2+z
1/2+x,-y,1/2-z
1/2-x,y,1/2-z
1/2-x,-y,1/2-z
1/2+x,y,1/2-z
1/2-x,y,1/2+z
1/2+x,-y,1/2+z
1/2+x,1/2+y,z
1/2-x,1/2-y,z
1/2+x,1/2-y,-z
1/2-x,1/2+y,-z
1/2-x,1/2-y,-z
1/2+x,1/2+y,-z
1/2-x,1/2+y,z
1/2+x,1/2-y,z
loop_
_atom_site_type_symbol
_atom_site_label
_atom_site_fract_x
_atom_site_fract_y
_atom_site_fract_z
Si Si1 0.103434 0.360331 0.873482
Si Si2 0.604881 0.000000 0.566907
Si Si3 0.143773 0.740271 0.064196
Si Si4 0.856929 0.307972 0.753432
Si Si5 0.097039 0.665837 0.629425
Si Si6 0.268405 0.094719 0.568106
O O1 0.119856 0.314420 0.915522
O O2 0.119157 0.337229 0.810784
O O3 0.175678 0.400610 0.896656
O O4 0.000000 0.376482 0.876439
O O5 0.667857 0.952648 0.580402
O O6 0.500000 0.000000 0.587729
O O7 0.596746 0.000000 0.500000
O O8 0.250000 0.750000 0.067440
O O9 0.099867 0.778083 0.107272
O O10 0.116566 0.748541 0.000000
O O11 0.887629 0.250000 0.750000
O O12 0.750000 0.306655 0.750000
O O13 0.888217 0.333852 0.695964
O O14 0.172928 0.639405 0.593322
O O15 0.000000 0.643807 0.616868
O O16 0.255485 0.098172 0.500000
#
# Coordination Sequence:
#
# PCOD9514024 Si02
#       6
#    32  16  32  32  32  32
#     4  12  24  38  58  85 123 169 209 248 294 356
#     4   9  20  42  71  96 119 151 193 249 314 373
#     4  11  21  35  51  77 121 166 205 245 293 350
#     4  11  21  38  58  79 118 168 215 257 292 335
#     4  12  23  35  57  86 117 156 202 254 303 351
#     4  11  23  41  63  91 123 153 194 250 309 370
#
# _framework density 4.5267489999999997
#
# number of rings (size 3 to 8) (size 9 to 14) (size 15 to 20)
#    0.000    0.818    5.455    2.727    0.000    5.091 
#    0.000    0.455    0.000    3.818    0.000    2.545 
#    0.000    0.000    0.000    0.000    0.000    0.000 
#
# Total GULP energy -245482.116178 kJ/mol
# GULP energy per Si atom -5579.139004 kJ/mol
# Density = 0.451645 g / cm^3
# Si number density = 4.526749 Si / 1000 Ang^3
#
#
#
# Elastic Constant Matrix: (Units=GPa)
#
#
# Indices 1 2 3 4 5 6 
#
# 1 156.5520 30.1973 36.4936 0.0000 0.0000 0.0000
# 2 30.1973 68.0948 11.8200 0.0000 0.0000 0.0000
# 3 36.4936 11.8200 123.6268 0.0000 0.0000 0.0000
# 4 0.0000 0.0000 0.0000 19.0629 0.0000 0.0000
# 5 0.0000 0.0000 0.0000 0.0000 17.0798 0.0000
# 6 0.0000 0.0000 0.0000 0.0000 0.0000 16.5274
#
#
#
# Elastic Compliance Matrix: (Units=1/GPa)
#
#
# Indices 1 2 3 4 5 6 
#
# 1 0.007400 -0.002952 -0.001902 0.000000 0.000000 0.000000
# 2 -0.002952 0.016110 -0.000669 0.000000 0.000000 0.000000
# 3 -0.001902 -0.000669 0.008714 0.000000 0.000000 0.000000
# 4 0.000000 0.000000 0.000000 0.052458 0.000000 0.000000
# 5 0.000000 0.000000 0.000000 0.000000 0.058549 0.000000
# 6 0.000000 0.000000 0.000000 0.000000 0.000000 0.060506
#
#
# Mechanical properties :
#
#
# Convention : Reuss Voigt Hill
#
# Bulk Modulus (GPa) = 47.21583 56.14393 51.67988
# Shear Modulus (GPa) = 22.53845 28.51821 25.52833
#
# Velocity S-wave (km/s) = 3.53191 3.97291 3.75888
# Velocity P-wave (km/s) = 6.53951 7.21938 6.88784
#
# Compressibility (1/GPa) = 0.02117934
#
# Stress axis : x y z
#
# Youngs Moduli (GPa) = 135.12710 62.07148 114.75284
#
# Poissons Ratio (x) = 0.18321 0.21830
# Poissons Ratio (y) = 0.39884 0.07677
# Poissons Ratio (z) = 0.25706 0.04153
#
# Static dielectric constant tensor:
#      x y z
#    x 1.686370 0.000000 0.000000 
#    y 0.000000 1.653050 0.000000 
#    z 0.000000 0.000000 1.602510 
# 
# From -- ./inp_files/17899.got.cif
#   From: 2010.05.17/outbox.ucp.g08.bks.cvg/sg69_9_cif.got.tgz:17899.got - 2010.06.11 16:51:34.
