data_PCOD9514426
_publ_section_title
;
Structure prediction by ZEFSAII (Michael W. Deem and Ramdas Pophale) SiO2 
 PCOD9514426
Probable space group: F D D D
;
_chemical_formula_sum "Si O2"
_cell_formula_units_Z 128
_cell_length_a 15.466191
_cell_length_b 13.159091
_cell_length_c 25.354904
_cell_angle_alpha 90.000000
_cell_angle_beta 90.000000
_cell_angle_gamma 90.000000
_cell_volume 5160.255792
_symmetry_space_group_name_H-M "F D D D"
_symmetry_group_IT_number 70
_space_group.IT_coordinate_system_code '2'
_symmetry_cell_setting 'orthorhombic'
loop_
_space_group_symop_operation_xyz
x,y,z
1/4-x,1/4-y,z
x,1/4-y,1/4-z
1/4-x,y,1/4-z
-x,-y,-z
3/4+x,3/4+y,-z
-x,3/4+y,3/4+z
3/4+x,-y,3/4+z
x,1/2+y,1/2+z
1/4-x,3/4-y,1/2+z
x,3/4-y,3/4-z
1/4-x,1/2+y,3/4-z
-x,1/2-y,1/2-z
3/4+x,1/4+y,1/2-z
-x,1/4+y,1/4+z
3/4+x,1/2-y,1/4+z
1/2+x,y,1/2+z
3/4-x,1/4-y,1/2+z
1/2+x,1/4-y,3/4-z
3/4-x,y,3/4-z
1/2-x,-y,1/2-z
1/4+x,3/4+y,1/2-z
1/2-x,3/4+y,1/4+z
1/4+x,-y,1/4+z
1/2+x,1/2+y,z
3/4-x,3/4-y,z
1/2+x,3/4-y,1/4-z
3/4-x,1/2+y,1/4-z
1/2-x,1/2-y,-z
1/4+x,1/4+y,-z
1/2-x,1/4+y,3/4+z
1/4+x,1/2-y,3/4+z
loop_
_atom_site_type_symbol
_atom_site_label
_atom_site_fract_x
_atom_site_fract_y
_atom_site_fract_z
Si Si1 0.699305 0.375000 0.875000
Si Si2 0.875000 0.875000 0.517726
Si Si3 0.053336 0.241417 0.398656
Si Si4 0.952790 0.713167 0.447263
Si Si5 0.125000 0.960650 0.125000
Si Si6 0.625000 0.125000 0.450886
O O1 0.630237 0.318247 0.913633
O O2 0.758814 0.457289 0.904175
O O3 0.949492 0.853363 0.560767
O O4 0.884544 0.777643 0.480765
O O5 0.084012 0.205161 0.340760
O O6 0.955768 0.274388 0.394901
O O7 0.909977 0.616684 0.419786
O O8 0.040517 0.674646 0.477510
#
# Coordination Sequence:
#
# PCOD9514426 Si02
#       6
#    16  16  32  32  16  16
#     4  10  20  38  56  78 110 154 188 218 272 338
#     4  11  22  35  60  93 114 134 182 245 280 313
#     4   9  20  35  55  78 109 143 184 226 269 325
#     4  10  19  32  56  81 112 144 182 231 280 324
#     4  10  20  38  56  78 110 154 188 218 272 338
#     4   7  16  36  50  69 108 154 174 201 274 348
#
# _framework density 24.804970999999998
#
# number of rings (size 3 to 8) (size 9 to 14) (size 15 to 20)
#    0.000    2.500    0.000    3.000    0.000    4.500 
#    0.000    2.500    0.000    9.000    0.000    0.000 
#    0.000    0.000    0.000    0.000    0.000    0.000 
#
# Total GULP energy -178197.680892 kJ/mol
# GULP energy per Si atom -5568.677528 kJ/mol
# Density = 2.474851 g / cm^3
# Si number density = 24.804971 Si / 1000 Ang^3
#
#
#
# Elastic Constant Matrix: (Units=GPa)
#
#
# Indices 1 2 3 4 5 6 
#
# 1 109.6733 35.2722 24.2219 0.0000 0.0000 0.0000
# 2 35.2722 104.0793 32.1342 0.0000 0.0000 0.0000
# 3 24.2219 32.1342 61.0508 0.0000 0.0000 0.0000
# 4 0.0000 0.0000 0.0000 -11.0081 0.0000 0.0000
# 5 0.0000 0.0000 0.0000 0.0000 -17.1852 0.0000
# 6 0.0000 0.0000 0.0000 0.0000 0.0000 15.9832
#
#
#
# Elastic Compliance Matrix: (Units=1/GPa)
#
#
# Indices 1 2 3 4 5 6 
#
# 1 0.010611 -0.002742 -0.002767 0.000000 0.000000 0.000000
# 2 -0.002742 0.012181 -0.005324 0.000000 0.000000 0.000000
# 3 -0.002767 -0.005324 0.020280 0.000000 0.000000 0.000000
# 4 0.000000 0.000000 0.000000 -0.090842 0.000000 0.000000
# 5 0.000000 0.000000 0.000000 0.000000 -0.058190 0.000000
# 6 0.000000 0.000000 0.000000 0.000000 0.000000 0.062566
#
#
# Mechanical properties :
#
#
# Convention : Reuss Voigt Hill
#
# Bulk Modulus (GPa) = 46.71352 50.89556 48.80454
# Shear Modulus (GPa) = -342.58581 9.76967 -166.40807
#
# Velocity S-wave (km/s) = -11.76485 1.98674 -8.19953
# Velocity P-wave (km/s) = 12.87150 5.08190 8.36211
#
# Compressibility (1/GPa) = 0.02140708
#
# Stress axis : x y z
#
# Youngs Moduli (GPa) = 94.24348 82.09586 49.31071
#
# Poissons Ratio (x) = 0.22509 0.13643
# Poissons Ratio (y) = 0.25839 0.26251
# Poissons Ratio (z) = 0.26074 0.43705
#
# Static dielectric constant tensor:
#      x y z
#    x 2.018010 0.000000 0.000000 
#    y 0.000000 2.081960 0.000000 
#    z 0.000000 0.000000 2.015790 
# 
# From -- ./inp_files/26426.got.cif
#   From: 2010.05.17/outbox.cif.g08.bks.cpg/sg70_14_cif.got.tgz:26426.got - 2010.06.03 15:57:51.
