data_PCOD9514669
_publ_section_title
;
Structure prediction by ZEFSAII (Michael W. Deem and Ramdas Pophale) SiO2 
 PCOD9514669
Probable space group: F D D D
;
_chemical_formula_sum "Si O2"
_cell_formula_units_Z 160
_cell_length_a 19.173177
_cell_length_b 17.737520
_cell_length_c 20.996160
_cell_angle_alpha 90.000000
_cell_angle_beta 90.000000
_cell_angle_gamma 90.000000
_cell_volume 7140.470896
_symmetry_space_group_name_H-M "F D D D"
_symmetry_group_IT_number 70
_space_group.IT_coordinate_system_code '2'
_symmetry_cell_setting 'orthorhombic'
loop_
_space_group_symop_operation_xyz
x,y,z
1/4-x,1/4-y,z
x,1/4-y,1/4-z
1/4-x,y,1/4-z
-x,-y,-z
3/4+x,3/4+y,-z
-x,3/4+y,3/4+z
3/4+x,-y,3/4+z
x,1/2+y,1/2+z
1/4-x,3/4-y,1/2+z
x,3/4-y,3/4-z
1/4-x,1/2+y,3/4-z
-x,1/2-y,1/2-z
3/4+x,1/4+y,1/2-z
-x,1/4+y,1/4+z
3/4+x,1/2-y,1/4+z
1/2+x,y,1/2+z
3/4-x,1/4-y,1/2+z
1/2+x,1/4-y,3/4-z
3/4-x,y,3/4-z
1/2-x,-y,1/2-z
1/4+x,3/4+y,1/2-z
1/2-x,3/4+y,1/4+z
1/4+x,-y,1/4+z
1/2+x,1/2+y,z
3/4-x,3/4-y,z
1/2+x,3/4-y,1/4-z
3/4-x,1/2+y,1/4-z
1/2-x,1/2-y,-z
1/4+x,1/4+y,-z
1/2-x,1/4+y,3/4+z
1/4+x,1/2-y,3/4+z
loop_
_atom_site_type_symbol
_atom_site_label
_atom_site_fract_x
_atom_site_fract_y
_atom_site_fract_z
Si Si1 0.223833 0.905217 0.218033
Si Si2 0.827248 0.487491 0.936656
Si Si3 0.241055 0.702775 0.602379
Si Si4 0.219358 0.375000 0.375000
Si Si5 0.625000 0.125000 0.421333
Si Si6 0.872901 0.749421 0.178370
O O1 0.195633 0.824089 0.198834
O O2 0.212108 0.928716 0.290954
O O3 0.308140 0.899910 0.211141
O O4 0.199923 0.974132 0.172674
O O5 0.875000 0.485070 0.875000
O O6 0.765607 0.429514 0.919848
O O7 0.869492 0.468395 0.000815
O O8 0.206170 0.625000 0.625000
O O9 0.293616 0.730311 0.657152
O O10 0.171164 0.426942 0.330300
O O11 0.601425 0.190982 0.373801
#
# Coordination Sequence:
#
# PCOD9514669 Si02
#       6
#    32  32  32  16  16  32
#     4  10  21  41  64  97 135 168 231 280 343 413
#     4  12  27  44  65 102 140 182 238 292 338 424
#     4  10  19  39  70  96 127 179 221 282 343 418
#     4  12  25  46  70 102 138 187 236 292 344 428
#     4  10  22  40  66  96 126 186 226 282 346 418
#     4  11  23  43  70  91 137 189 225 279 365 400
#
# _framework density 22.407485999999999
#
# number of rings (size 3 to 8) (size 9 to 14) (size 15 to 20)
#    0.000    1.200    5.000    0.300    2.800    4.000 
#    0.000    0.500    0.000    0.000    0.000    0.000 
#    0.000    0.000    0.000    0.000    0.000    0.000 
#
# Total GULP energy -223493.667861 kJ/mol
# GULP energy per Si atom -5587.341697 kJ/mol
# Density = 2.235649 g / cm^3
# Si number density = 22.407486 Si / 1000 Ang^3
#
#
#
# Elastic Constant Matrix: (Units=GPa)
#
#
# Indices 1 2 3 4 5 6 
#
# 1 28.9834 1.6106 14.0425 0.0000 0.0000 0.0000
# 2 1.6106 131.6548 0.2651 0.0000 0.0000 0.0000
# 3 14.0425 0.2651 108.4710 0.0000 0.0000 0.0000
# 4 0.0000 0.0000 0.0000 38.5643 0.0000 0.0000
# 5 0.0000 0.0000 0.0000 0.0000 21.6772 0.0000
# 6 0.0000 0.0000 0.0000 0.0000 0.0000 21.6208
#
#
#
# Elastic Compliance Matrix: (Units=1/GPa)
#
#
# Indices 1 2 3 4 5 6 
#
# 1 0.036837 -0.000441 -0.004768 0.000000 0.000000 0.000000
# 2 -0.000441 0.007601 0.000039 0.000000 0.000000 0.000000
# 3 -0.004768 0.000039 0.009836 0.000000 0.000000 0.000000
# 4 0.000000 0.000000 0.000000 0.025931 0.000000 0.000000
# 5 0.000000 0.000000 0.000000 0.000000 0.046131 0.000000
# 6 0.000000 0.000000 0.000000 0.000000 0.000000 0.046252
#
#
# Mechanical properties :
#
#
# Convention : Reuss Voigt Hill
#
# Bulk Modulus (GPa) = 22.76167 33.43841 28.10004
# Shear Modulus (GPa) = 25.30706 33.25185 29.27945
#
# Velocity S-wave (km/s) = 3.36430 3.85640 3.61873
# Velocity P-wave (km/s) = 5.02708 5.89783 5.47978
#
# Compressibility (1/GPa) = 0.04393351
#
# Stress axis : x y z
#
# Youngs Moduli (GPa) = 27.14660 131.56273 101.66531
#
# Poissons Ratio (x) = 0.05803 0.48472
# Poissons Ratio (y) = 0.01197 -0.00392
# Poissons Ratio (z) = 0.12943 -0.00507
#
# Static dielectric constant tensor:
#      x y z
#    x 1.800920 0.000000 0.000000 
#    y 0.000000 1.878540 0.000000 
#    z 0.000000 0.000000 1.795610 
# 
# From -- ./inp_files/36328.got.cif
#   From: 2010.05.17/outbox.cif.g08.bks.cpg/sg70_19_cif.got.tgz:36328.got - 2010.06.03 15:57:51.
