data_PCOD9514914
_publ_section_title
;
Structure prediction by ZEFSAII (Michael W. Deem and Ramdas Pophale) SiO2 
 PCOD9514914
Probable space group: F D D D
;
_chemical_formula_sum "Si O2"
_cell_formula_units_Z 240
_cell_length_a 14.123360
_cell_length_b 30.432305
_cell_length_c 29.431171
_cell_angle_alpha 90.000000
_cell_angle_beta 90.000000
_cell_angle_gamma 90.000000
_cell_volume 12649.705630
_symmetry_space_group_name_H-M "F D D D"
_symmetry_group_IT_number 70
_space_group.IT_coordinate_system_code '2'
_symmetry_cell_setting 'orthorhombic'
loop_
_space_group_symop_operation_xyz
x,y,z
1/4-x,1/4-y,z
x,1/4-y,1/4-z
1/4-x,y,1/4-z
-x,-y,-z
3/4+x,3/4+y,-z
-x,3/4+y,3/4+z
3/4+x,-y,3/4+z
x,1/2+y,1/2+z
1/4-x,3/4-y,1/2+z
x,3/4-y,3/4-z
1/4-x,1/2+y,3/4-z
-x,1/2-y,1/2-z
3/4+x,1/4+y,1/2-z
-x,1/4+y,1/4+z
3/4+x,1/2-y,1/4+z
1/2+x,y,1/2+z
3/4-x,1/4-y,1/2+z
1/2+x,1/4-y,3/4-z
3/4-x,y,3/4-z
1/2-x,-y,1/2-z
1/4+x,3/4+y,1/2-z
1/2-x,3/4+y,1/4+z
1/4+x,-y,1/4+z
1/2+x,1/2+y,z
3/4-x,3/4-y,z
1/2+x,3/4-y,1/4-z
3/4-x,1/2+y,1/4-z
1/2-x,1/2-y,-z
1/4+x,1/4+y,-z
1/2-x,1/4+y,3/4+z
1/4+x,1/2-y,3/4+z
loop_
_atom_site_type_symbol
_atom_site_label
_atom_site_fract_x
_atom_site_fract_y
_atom_site_fract_z
Si Si1 0.463693 0.271720 0.295566
Si Si2 0.625000 0.125000 0.872217
Si Si3 0.980293 0.694966 0.369701
Si Si4 0.291435 0.185721 0.911144
Si Si5 0.020069 0.540122 0.606365
Si Si6 0.417754 0.174843 0.141350
Si Si7 0.312099 0.542388 0.738646
Si Si8 0.748483 0.982279 0.439655
O O1 0.500000 0.250000 0.250000
O O2 0.474094 0.234400 0.334127
O O3 0.525404 0.313116 0.312879
O O4 0.351846 0.279587 0.292503
O O5 0.557568 0.089771 0.896442
O O6 0.700897 0.095181 0.845760
O O7 0.875000 0.675833 0.375000
O O8 0.005082 0.718800 0.417682
O O9 0.375000 0.175735 0.875000
O O10 0.266024 0.237152 0.900892
O O11 0.318978 0.181307 0.964237
O O12 0.125000 0.550853 0.625000
O O13 0.938008 0.554966 0.640994
O O14 0.988025 0.560867 0.557436
O O15 0.413212 0.125000 0.125000
O O16 0.474538 0.199917 0.101751
O O17 0.250000 0.500000 0.750000
O O18 0.416001 0.525793 0.725293
#
# Coordination Sequence:
#
# PCOD9514914 Si02
#       8
#    32  16  32  32  32  32  32  32
#     4  10  21  37  59  85 110 146 194 240 291 347
#     4  12  20  34  56  78 113 150 183 234 292 338
#     4   9  19  36  54  76 108 147 183 220 279 345
#     4  10  21  35  55  82 111 151 196 235 288 359
#     4   9  19  37  60  83 111 150 194 241 296 360
#     4  10  20  37  59  84 113 149 192 236 293 362
#     4   9  17  33  56  81 105 140 190 236 281 343
#     4   9  19  37  58  76 108 150 187 231 284 351
#
# _framework density 18.972773
#
# number of rings (size 3 to 8) (size 9 to 14) (size 15 to 20)
#    0.000    2.400    0.000    4.800    0.000    5.600 
#    0.000   12.000    0.000    0.000    0.000    0.000 
#    0.000    0.000    0.000    0.000    0.000    0.000 
#
# Total GULP energy -334150.821711 kJ/mol
# GULP energy per Si atom -5569.180362 kJ/mol
# Density = 1.892959 g / cm^3
# Si number density = 18.972773 Si / 1000 Ang^3
#
#
#
# Elastic Constant Matrix: (Units=GPa)
#
#
# Indices 1 2 3 4 5 6 
#
# 1 179.2166 42.6090 66.0498 0.0000 0.0000 0.0000
# 2 42.6090 66.3287 12.7424 0.0000 0.0000 0.0000
# 3 66.0498 12.7424 73.5256 0.0000 0.0000 0.0000
# 4 0.0000 0.0000 0.0000 9.2822 0.0000 0.0000
# 5 0.0000 0.0000 0.0000 0.0000 25.0218 0.0000
# 6 0.0000 0.0000 0.0000 0.0000 0.0000 24.5884
#
#
#
# Elastic Compliance Matrix: (Units=1/GPa)
#
#
# Indices 1 2 3 4 5 6 
#
# 1 0.009548 -0.004640 -0.007773 0.000000 0.000000 0.000000
# 2 -0.004640 0.017851 0.001075 0.000000 0.000000 0.000000
# 3 -0.007773 0.001075 0.020397 0.000000 0.000000 0.000000
# 4 0.000000 0.000000 0.000000 0.107733 0.000000 0.000000
# 5 0.000000 0.000000 0.000000 0.000000 0.039965 0.000000
# 6 0.000000 0.000000 0.000000 0.000000 0.000000 0.040670
#
#
# Mechanical properties :
#
#
# Convention : Reuss Voigt Hill
#
# Bulk Modulus (GPa) = 39.81053 62.43035 51.12044
# Shear Modulus (GPa) = 18.71170 24.95645 21.83408
#
# Velocity S-wave (km/s) = 3.14385 3.63075 3.39604
# Velocity P-wave (km/s) = 5.84867 7.11008 6.51000
#
# Compressibility (1/GPa) = 0.02511898
#
# Stress axis : x y z
#
# Youngs Moduli (GPa) = 104.73782 56.02005 49.02713
#
# Poissons Ratio (x) = 0.25994 0.38107
# Poissons Ratio (y) = 0.48600 -0.05269
# Poissons Ratio (z) = 0.81410 -0.06020
#
# Static dielectric constant tensor:
#      x y z
#    x 1.677630 0.000000 0.000000 
#    y 0.000000 1.637250 0.000000 
#    z 0.000000 0.000000 1.663160 
# 
# From -- ./inp_files/66118.got.cif
#   From: 2010.05.17/outbox.cif.g08.bks.cpg/sg70_34_cif.got.tgz:66118.got - 2010.06.03 15:57:51.
