data_PCOD9514396
_publ_section_title
;
Structure prediction by ZEFSAII (Michael W. Deem and Ramdas Pophale) SiO2 
 PCOD9514396
Probable space group: F D D D
;
_chemical_formula_sum "Si O2"
_cell_formula_units_Z 128
_cell_length_a 22.861339
_cell_length_b 31.576909
_cell_length_c 6.830843
_cell_angle_alpha 90.000000
_cell_angle_beta 90.000000
_cell_angle_gamma 90.000000
_cell_volume 4931.120131
_symmetry_space_group_name_H-M "F D D D"
_symmetry_group_IT_number 70
_space_group.IT_coordinate_system_code '2'
_symmetry_cell_setting 'orthorhombic'
loop_
_space_group_symop_operation_xyz
x,y,z
1/4-x,1/4-y,z
x,1/4-y,1/4-z
1/4-x,y,1/4-z
-x,-y,-z
3/4+x,3/4+y,-z
-x,3/4+y,3/4+z
3/4+x,-y,3/4+z
x,1/2+y,1/2+z
1/4-x,3/4-y,1/2+z
x,3/4-y,3/4-z
1/4-x,1/2+y,3/4-z
-x,1/2-y,1/2-z
3/4+x,1/4+y,1/2-z
-x,1/4+y,1/4+z
3/4+x,1/2-y,1/4+z
1/2+x,y,1/2+z
3/4-x,1/4-y,1/2+z
1/2+x,1/4-y,3/4-z
3/4-x,y,3/4-z
1/2-x,-y,1/2-z
1/4+x,3/4+y,1/2-z
1/2-x,3/4+y,1/4+z
1/4+x,-y,1/4+z
1/2+x,1/2+y,z
3/4-x,3/4-y,z
1/2+x,3/4-y,1/4-z
3/4-x,1/2+y,1/4-z
1/2-x,1/2-y,-z
1/4+x,1/4+y,-z
1/2-x,1/4+y,3/4+z
1/4+x,1/2-y,3/4+z
loop_
_atom_site_type_symbol
_atom_site_label
_atom_site_fract_x
_atom_site_fract_y
_atom_site_fract_z
Si Si1 0.228274 0.929652 0.575051
Si Si2 0.221946 0.519157 0.953855
Si Si3 0.635878 0.672760 0.355699
Si Si4 0.806945 0.088018 0.876506
O O1 0.296257 0.931759 0.630662
O O2 0.219672 0.918453 0.342046
O O3 0.199249 0.888111 0.671021
O O4 0.208227 0.978249 0.585262
O O5 0.250000 0.500000 0.750000
O O6 0.161778 0.544609 0.932608
O O7 0.270321 0.554844 0.006800
O O8 0.625000 0.625000 0.422983
O O9 0.625000 0.673061 0.125000
O O10 0.875000 0.076654 0.875000
#
# Coordination Sequence:
#
# PCOD9514396 Si02
#       4
#    32  32  32  32
#     4  10  20  31  46  78 105 135 172 211 259 324
#     4  10  19  26  46  76 101 137 164 202 274 310
#     4  11  16  29  47  71 110 126 160 212 262 317
#     4  10  19  32  47  73 109 136 166 212 272 310
#
# _framework density 25.957588999999999
#
# number of rings (size 3 to 8) (size 9 to 14) (size 15 to 20)
#    0.000    1.750    7.500    1.500    7.000    0.000 
#    0.000    0.000    0.000    1.500    0.000    0.000 
#    0.000    0.000    0.000    0.000    0.000    0.000 
#
# Total GULP energy -179070.199552 kJ/mol
# GULP energy per Si atom -5595.943736 kJ/mol
# Density = 2.589851 g / cm^3
# Si number density = 25.957589 Si / 1000 Ang^3
#
#
#
# Elastic Constant Matrix: (Units=GPa)
#
#
# Indices 1 2 3 4 5 6 
#
# 1 234.2088 95.8227 32.5796 -0.0005 -0.0267 0.0034
# 2 95.8227 267.6381 43.4778 -0.0019 0.0075 0.0041
# 3 32.5796 43.4778 106.7057 0.0074 -0.0276 -0.0003
# 4 -0.0005 -0.0019 0.0074 29.0268 -0.0288 -0.0019
# 5 -0.0267 0.0075 -0.0276 -0.0288 83.4031 0.0161
# 6 0.0034 0.0041 -0.0003 -0.0019 0.0161 55.3259
#
#
#
# Elastic Compliance Matrix: (Units=1/GPa)
#
#
# Indices 1 2 3 4 5 6 
#
# 1 0.005076 -0.001677 -0.000867 0.000000 0.000001 0.000000
# 2 -0.001677 0.004555 -0.001344 0.000001 -0.000001 0.000000
# 3 -0.000867 -0.001344 0.010184 -0.000003 0.000003 0.000000
# 4 0.000000 0.000001 -0.000003 0.034451 0.000012 0.000001
# 5 0.000001 -0.000001 0.000003 0.000012 0.011990 -0.000003
# 6 0.000000 0.000000 0.000000 0.000001 -0.000003 0.018075
#
#
# Mechanical properties :
#
#
# Convention : Reuss Voigt Hill
#
# Bulk Modulus (GPa) = 83.05478 105.81253 94.43366
# Shear Modulus (GPa) = 52.01887 62.66268 57.34078
#
# Velocity S-wave (km/s) = 4.48146 4.91862 4.70512
# Velocity P-wave (km/s) = 7.67097 8.55039 8.12259
#
# Compressibility (1/GPa) = 0.01204025
#
# Stress axis : x y z
#
# Youngs Moduli (GPa) = 196.99651 219.53796 98.19480
#
# Poissons Ratio (x) = 0.36809 0.08511
# Poissons Ratio (y) = 0.33029 0.13198
# Poissons Ratio (z) = 0.17074 0.29507
#
# Static dielectric constant tensor:
#      x y z
#    x 1.908120 0.000020 0.000020 
#    y 0.000020 2.056820 -0.000040 
#    z 0.000020 -0.000040 2.236530 
# 
# From -- ./inp_files/19114.got.cif
#   From: 2010.05.17/outbox.cif.g08.bks.cpg/sg70_10_cif.got.tgz:19114.got - 2010.06.03 15:57:51.
