data_PCOD9514284
_publ_section_title
;
Structure prediction by ZEFSAII (Michael W. Deem and Ramdas Pophale) SiO2 
 PCOD9514284
Probable space group: F D D D
;
_chemical_formula_sum "Si O2"
_cell_formula_units_Z 112
_cell_length_a 10.071409
_cell_length_b 31.137431
_cell_length_c 15.965965
_cell_angle_alpha 90.000000
_cell_angle_beta 90.000000
_cell_angle_gamma 90.000000
_cell_volume 5006.891544
_symmetry_space_group_name_H-M "F D D D"
_symmetry_group_IT_number 70
_space_group.IT_coordinate_system_code '2'
_symmetry_cell_setting 'orthorhombic'
loop_
_space_group_symop_operation_xyz
x,y,z
1/4-x,1/4-y,z
x,1/4-y,1/4-z
1/4-x,y,1/4-z
-x,-y,-z
3/4+x,3/4+y,-z
-x,3/4+y,3/4+z
3/4+x,-y,3/4+z
x,1/2+y,1/2+z
1/4-x,3/4-y,1/2+z
x,3/4-y,3/4-z
1/4-x,1/2+y,3/4-z
-x,1/2-y,1/2-z
3/4+x,1/4+y,1/2-z
-x,1/4+y,1/4+z
3/4+x,1/2-y,1/4+z
1/2+x,y,1/2+z
3/4-x,1/4-y,1/2+z
1/2+x,1/4-y,3/4-z
3/4-x,y,3/4-z
1/2-x,-y,1/2-z
1/4+x,3/4+y,1/2-z
1/2-x,3/4+y,1/4+z
1/4+x,-y,1/4+z
1/2+x,1/2+y,z
3/4-x,3/4-y,z
1/2+x,3/4-y,1/4-z
3/4-x,1/2+y,1/4-z
1/2-x,1/2-y,-z
1/4+x,1/4+y,-z
1/2-x,1/4+y,3/4+z
1/4+x,1/2-y,3/4+z
loop_
_atom_site_type_symbol
_atom_site_label
_atom_site_fract_x
_atom_site_fract_y
_atom_site_fract_z
Si Si1 0.075312 0.410064 0.530181
Si Si2 0.110355 0.173328 0.505594
Si Si3 0.044779 0.068324 0.312557
Si Si4 0.625000 0.742613 0.625000
O O1 0.125000 0.416985 0.625000
O O2 0.201227 0.428974 0.482298
O O3 0.041655 0.358663 0.528307
O O4 0.934396 0.432377 0.513982
O O5 0.125000 0.125000 0.535106
O O6 0.161141 0.172914 0.409536
O O7 0.185751 0.209499 0.557571
O O8 0.966572 0.024362 0.320835
#
# Coordination Sequence:
#
# PCOD9514284 Si02
#       4
#    32  32  32  16
#     4   9  16  33  59  74  99 144 201 222 261 331
#     4  11  20  35  54  80 112 150 187 230 282 339
#     4  10  18  35  57  80 102 149 195 233 265 336
#     4  12  23  30  50  88 122 136 176 246 295 318
#
# _framework density 22.369168999999999
#
# number of rings (size 3 to 8) (size 9 to 14) (size 15 to 20)
#    0.000    1.714    7.143    1.286    0.000    1.143 
#    0.000    0.000    0.000    0.000    0.000   16.000 
#    0.000    0.000    0.000    0.000    0.000    0.000 
#
# Total GULP energy -155969.893841 kJ/mol
# GULP energy per Si atom -5570.353351 kJ/mol
# Density = 2.231826 g / cm^3
# Si number density = 22.369169 Si / 1000 Ang^3
#
#
#
# Elastic Constant Matrix: (Units=GPa)
#
#
# Indices 1 2 3 4 5 6 
#
# 1 80.5353 19.5632 -11.5777 0.0000 0.0000 0.0000
# 2 19.5632 130.9418 9.1087 0.0000 0.0000 0.0000
# 3 -11.5777 9.1087 24.5924 0.0000 0.0000 0.0000
# 4 0.0000 0.0000 0.0000 -7.3295 0.0000 0.0000
# 5 0.0000 0.0000 0.0000 0.0000 -1.3931 0.0000
# 6 0.0000 0.0000 0.0000 0.0000 0.0000 24.3466
#
#
#
# Elastic Compliance Matrix: (Units=1/GPa)
#
#
# Indices 1 2 3 4 5 6 
#
# 1 0.014159 -0.002647 0.007647 0.000000 0.000000 0.000000
# 2 -0.002647 0.008334 -0.004333 0.000000 0.000000 0.000000
# 3 0.007647 -0.004333 0.045868 0.000000 0.000000 0.000000
# 4 0.000000 0.000000 0.000000 -0.136434 0.000000 0.000000
# 5 0.000000 0.000000 0.000000 0.000000 -0.717825 0.000000
# 6 0.000000 0.000000 0.000000 0.000000 0.000000 0.041073
#
#
# Mechanical properties :
#
#
# Convention : Reuss Voigt Hill
#
# Bulk Modulus (GPa) = 14.34864 30.02864 22.18864
# Shear Modulus (GPa) = -6.91634 17.72316 5.40341
#
# Velocity S-wave (km/s) = -1.76029 2.81784 1.55589
# Velocity P-wave (km/s) = 1.51556 4.90308 3.62885
#
# Compressibility (1/GPa) = 0.06969301
#
# Stress axis : x y z
#
# Youngs Moduli (GPa) = 70.62520 119.99139 21.80182
#
# Poissons Ratio (x) = 0.31766 -0.16671
# Poissons Ratio (y) = 0.18697 0.09447
# Poissons Ratio (z) = -0.54004 0.51994
#
# Static dielectric constant tensor:
#      x y z
#    x 1.963680 0.000000 0.000000 
#    y 0.000000 1.813300 0.000000 
#    z 0.000000 0.000000 1.860260 
# 
# From -- ./inp_files/16481.got.cif
#   From: 2010.05.17/outbox.cif.g08.bks.cpg/sg70_9_cif.got.tgz:16481.got - 2010.06.03 15:57:51.
