data_PCOD9514129
_publ_section_title
;
Structure prediction by ZEFSAII (Michael W. Deem and Ramdas Pophale) SiO2 
 PCOD9514129
Probable space group: F D D D
;
_chemical_formula_sum "Si O2"
_cell_formula_units_Z 176
_cell_length_a 15.977269
_cell_length_b 32.131756
_cell_length_c 16.361195
_cell_angle_alpha 90.000000
_cell_angle_beta 90.000000
_cell_angle_gamma 90.000000
_cell_volume 8399.472806
_symmetry_space_group_name_H-M "F D D D"
_symmetry_group_IT_number 70
_space_group.IT_coordinate_system_code '2'
_symmetry_cell_setting 'orthorhombic'
loop_
_space_group_symop_operation_xyz
x,y,z
1/4-x,1/4-y,z
x,1/4-y,1/4-z
1/4-x,y,1/4-z
-x,-y,-z
3/4+x,3/4+y,-z
-x,3/4+y,3/4+z
3/4+x,-y,3/4+z
x,1/2+y,1/2+z
1/4-x,3/4-y,1/2+z
x,3/4-y,3/4-z
1/4-x,1/2+y,3/4-z
-x,1/2-y,1/2-z
3/4+x,1/4+y,1/2-z
-x,1/4+y,1/4+z
3/4+x,1/2-y,1/4+z
1/2+x,y,1/2+z
3/4-x,1/4-y,1/2+z
1/2+x,1/4-y,3/4-z
3/4-x,y,3/4-z
1/2-x,-y,1/2-z
1/4+x,3/4+y,1/2-z
1/2-x,3/4+y,1/4+z
1/4+x,-y,1/4+z
1/2+x,1/2+y,z
3/4-x,3/4-y,z
1/2+x,3/4-y,1/4-z
3/4-x,1/2+y,1/4-z
1/2-x,1/2-y,-z
1/4+x,1/4+y,-z
1/2-x,1/4+y,3/4+z
1/4+x,1/2-y,3/4+z
loop_
_atom_site_type_symbol
_atom_site_label
_atom_site_fract_x
_atom_site_fract_y
_atom_site_fract_z
Si Si1 0.472990 0.103075 0.354462
Si Si2 0.898147 0.287592 0.126172
Si Si3 0.018210 0.172712 0.747112
Si Si4 0.091479 0.285583 0.481107
Si Si5 0.811367 0.907808 0.002877
Si Si6 0.875000 0.278057 0.875000
O O1 0.375000 0.105125 0.375000
O O2 0.511338 0.057311 0.359097
O O3 0.502400 0.124596 0.269346
O O4 0.521519 0.130169 0.423292
O O5 0.866689 0.303841 0.212829
O O6 0.832180 0.308822 0.063779
O O7 0.897002 0.239923 0.102275
O O8 0.927096 0.192415 0.756572
O O9 0.056882 0.191124 0.664720
O O10 0.082145 0.251886 0.555852
O O11 0.018964 0.319107 0.466821
O O12 0.875000 0.875000 0.962254
#
# Coordination Sequence:
#
# PCOD9514129 Si02
#       6
#    32  32  32  32  32  16
#     4  10  17  32  49  69 100 141 183 217 258 325
#     4   9  19  28  45  74 103 127 174 223 269 314
#     4  10  18  29  47  72 106 147 173 209 272 336
#     4  11  17  29  47  73 106 139 175 217 273 326
#     4   9  17  29  47  70  97 134 176 221 258 311
#     4  10  18  26  43  72 110 144 170 212 270 342
#
# _framework density 20.953696999999998
#
# number of rings (size 3 to 8) (size 9 to 14) (size 15 to 20)
#    0.000    2.182    1.818    7.091    0.000    0.000 
#    0.000    7.273    0.000    4.364    0.000    0.000 
#    0.000    0.000    0.000    0.000    0.000    0.000 
#
# Total GULP energy -245059.741226 kJ/mol
# GULP energy per Si atom -5569.539573 kJ/mol
# Density = 2.090601 g / cm^3
# Si number density = 20.953697 Si / 1000 Ang^3
#
#
#
# Elastic Constant Matrix: (Units=GPa)
#
#
# Indices 1 2 3 4 5 6 
#
# 1 129.5009 26.6228 19.1453 0.0000 0.0000 0.0000
# 2 26.6228 14.5089 -1.5789 0.0000 0.0000 0.0000
# 3 19.1453 -1.5789 24.1297 0.0000 0.0000 0.0000
# 4 0.0000 0.0000 0.0000 31.2627 0.0000 0.0000
# 5 0.0000 0.0000 0.0000 0.0000 17.6455 0.0000
# 6 0.0000 0.0000 0.0000 0.0000 0.0000 66.8866
#
#
#
# Elastic Compliance Matrix: (Units=1/GPa)
#
#
# Indices 1 2 3 4 5 6 
#
# 1 0.016565 -0.032053 -0.015240 0.000000 0.000000 0.000000
# 2 -0.032053 0.131442 0.034033 0.000000 0.000000 0.000000
# 3 -0.015240 0.034033 0.055762 0.000000 0.000000 0.000000
# 4 0.000000 0.000000 0.000000 0.031987 0.000000 0.000000
# 5 0.000000 0.000000 0.000000 0.000000 0.056672 0.000000
# 6 0.000000 0.000000 0.000000 0.000000 0.000000 0.014951
#
#
# Mechanical properties :
#
#
# Convention : Reuss Voigt Hill
#
# Bulk Modulus (GPa) = 5.64184 28.50199 17.07192
# Shear Modulus (GPa) = 12.72325 31.42232 22.07278
#
# Velocity S-wave (km/s) = 2.46683 3.87668 3.24915
# Velocity P-wave (km/s) = 3.28817 5.80259 4.71604
#
# Compressibility (1/GPa) = 0.17724709
#
# Stress axis : x y z
#
# Youngs Moduli (GPa) = 60.36979 7.60791 17.93343
#
# Poissons Ratio (x) = 0.24386 0.27331
# Poissons Ratio (y) = 1.93505 -0.61033
# Poissons Ratio (z) = 0.92005 -0.25892
#
# Static dielectric constant tensor:
#      x y z
#    x 1.744030 0.000000 0.000000 
#    y 0.000000 1.764680 0.000000 
#    z 0.000000 0.000000 1.835560 
# 
# From -- ./inp_files/51533.got.cif
#   From: 2010.05.17/outbox.cif.g08.bks.cpg/sg70_26_cif.got.tgz:51533.got - 2010.06.03 15:57:51.
