data_PCOD9514998
_publ_section_title
;
Structure prediction by ZEFSAII (Michael W. Deem and Ramdas Pophale) SiO2 
 PCOD9514998
Probable space group: F D D D
;
_chemical_formula_sum "Si O2"
_cell_formula_units_Z 112
_cell_length_a 31.506339
_cell_length_b 5.416099
_cell_length_c 30.064746
_cell_angle_alpha 90.000000
_cell_angle_beta 90.000000
_cell_angle_gamma 90.000000
_cell_volume 5130.291886
_symmetry_space_group_name_H-M "F D D D"
_symmetry_group_IT_number 70
_space_group.IT_coordinate_system_code '2'
_symmetry_cell_setting 'orthorhombic'
loop_
_space_group_symop_operation_xyz
x,y,z
1/4-x,1/4-y,z
x,1/4-y,1/4-z
1/4-x,y,1/4-z
-x,-y,-z
3/4+x,3/4+y,-z
-x,3/4+y,3/4+z
3/4+x,-y,3/4+z
x,1/2+y,1/2+z
1/4-x,3/4-y,1/2+z
x,3/4-y,3/4-z
1/4-x,1/2+y,3/4-z
-x,1/2-y,1/2-z
3/4+x,1/4+y,1/2-z
-x,1/4+y,1/4+z
3/4+x,1/2-y,1/4+z
1/2+x,y,1/2+z
3/4-x,1/4-y,1/2+z
1/2+x,1/4-y,3/4-z
3/4-x,y,3/4-z
1/2-x,-y,1/2-z
1/4+x,3/4+y,1/2-z
1/2-x,3/4+y,1/4+z
1/4+x,-y,1/4+z
1/2+x,1/2+y,z
3/4-x,3/4-y,z
1/2+x,3/4-y,1/4-z
3/4-x,1/2+y,1/4-z
1/2-x,1/2-y,-z
1/4+x,1/4+y,-z
1/2-x,1/4+y,3/4+z
1/4+x,1/2-y,3/4+z
loop_
_atom_site_type_symbol
_atom_site_label
_atom_site_fract_x
_atom_site_fract_y
_atom_site_fract_z
Si Si1 0.801563 0.625000 0.125000
Si Si2 0.015734 0.544646 0.550679
Si Si3 0.125000 0.125000 0.776414
Si Si4 0.125000 0.125000 0.333975
Si Si5 0.541811 0.707450 0.718853
O O1 0.771889 0.611608 0.082145
O O2 0.833429 0.848327 0.114432
O O3 0.031463 0.271253 0.563746
O O4 0.000000 0.500000 0.500000
O O5 0.048855 0.769680 0.551065
O O6 0.124423 0.378923 0.804369
O O7 0.082379 0.128926 0.747250
O O8 0.500000 0.750000 0.750000
#
# Coordination Sequence:
#
# PCOD9514998 Si02
#       5
#    16  32  16  16  32
#     4  12  26  42  66 101 142 178 222 285 352 426
#     4  10  22  40  62  89 129 178 224 266 332 407
#     4  12  23  42  70 101 139 176 231 287 346 420
#     4  12  25  38  62 104 141 171 213 289 370 418
#     4  10  20  38  63  92 127 175 222 272 332 404
#
# _framework density 21.831119000000001
#
# number of rings (size 3 to 8) (size 9 to 14) (size 15 to 20)
#    0.000    1.143    0.000    9.429    0.000    5.714 
#    0.000    0.000    0.000    5.143    0.000    0.000 
#    0.000    0.000    0.000    0.000    0.000    0.000 
#
# Total GULP energy -156299.225131 kJ/mol
# GULP energy per Si atom -5582.115183 kJ/mol
# Density = 2.178143 g / cm^3
# Si number density = 21.831119 Si / 1000 Ang^3
#
#
#
# Elastic Constant Matrix: (Units=GPa)
#
#
# Indices 1 2 3 4 5 6 
#
# 1 129.8286 43.5277 60.2877 -0.0050 -0.0012 0.0036
# 2 43.5277 217.9460 29.7269 -0.0170 0.0049 0.0234
# 3 60.2877 29.7269 82.9888 -0.0005 -0.0022 0.0007
# 4 -0.0050 -0.0170 -0.0005 23.8086 -0.0102 0.0047
# 5 -0.0012 0.0049 -0.0022 -0.0102 53.8767 -0.0038
# 6 0.0036 0.0234 0.0007 0.0047 -0.0038 36.8747
#
#
#
# Elastic Compliance Matrix: (Units=1/GPa)
#
#
# Indices 1 2 3 4 5 6 
#
# 1 0.011946 -0.001264 -0.008225 0.000001 0.000000 0.000000
# 2 -0.001264 0.004958 -0.000858 0.000003 -0.000001 -0.000003
# 3 -0.008225 -0.000858 0.018332 -0.000002 0.000001 0.000001
# 4 0.000001 0.000003 -0.000002 0.042002 0.000008 -0.000005
# 5 0.000000 -0.000001 0.000001 0.000008 0.018561 0.000002
# 6 0.000000 -0.000003 0.000001 -0.000005 0.000002 0.027119
#
#
# Mechanical properties :
#
#
# Convention : Reuss Voigt Hill
#
# Bulk Modulus (GPa) = 68.76637 77.53867 73.15252
# Shear Modulus (GPa) = 33.67945 42.72674 38.20309
#
# Velocity S-wave (km/s) = 3.93202 4.42877 4.18776
# Velocity P-wave (km/s) = 7.22371 7.85790 7.54747
#
# Compressibility (1/GPa) = 0.01454199
#
# Stress axis : x y z
#
# Youngs Moduli (GPa) = 83.71168 201.70637 54.54818
#
# Poissons Ratio (x) = 0.25493 0.44868
# Poissons Ratio (y) = 0.10580 0.04679
# Poissons Ratio (z) = 0.68856 0.17301
#
# Static dielectric constant tensor:
#      x y z
#    x 1.806990 0.000020 0.000060 
#    y 0.000020 1.984710 -0.000010 
#    z 0.000060 -0.000010 1.951500 
# 
# From -- ./inp_files/68634.got.cif
#   From: 2010.05.17/outbox.cif.g08.bks.cpg/sg70_35_cif.got.tgz:68634.got - 2010.06.03 15:57:51.
