data_PCOD9514172
_publ_section_title
;
Structure prediction by ZEFSAII (Michael W. Deem and Ramdas Pophale) SiO2 
 PCOD9514172
Probable space group: F D D D
;
_chemical_formula_sum "Si O2"
_cell_formula_units_Z 208
_cell_length_a 12.958754
_cell_length_b 19.842626
_cell_length_c 34.237518
_cell_angle_alpha 90.000000
_cell_angle_beta 90.000000
_cell_angle_gamma 90.000000
_cell_volume 8803.688467
_symmetry_space_group_name_H-M "F D D D"
_symmetry_group_IT_number 70
_space_group.IT_coordinate_system_code '2'
_symmetry_cell_setting 'orthorhombic'
loop_
_space_group_symop_operation_xyz
x,y,z
1/4-x,1/4-y,z
x,1/4-y,1/4-z
1/4-x,y,1/4-z
-x,-y,-z
3/4+x,3/4+y,-z
-x,3/4+y,3/4+z
3/4+x,-y,3/4+z
x,1/2+y,1/2+z
1/4-x,3/4-y,1/2+z
x,3/4-y,3/4-z
1/4-x,1/2+y,3/4-z
-x,1/2-y,1/2-z
3/4+x,1/4+y,1/2-z
-x,1/4+y,1/4+z
3/4+x,1/2-y,1/4+z
1/2+x,y,1/2+z
3/4-x,1/4-y,1/2+z
1/2+x,1/4-y,3/4-z
3/4-x,y,3/4-z
1/2-x,-y,1/2-z
1/4+x,3/4+y,1/2-z
1/2-x,3/4+y,1/4+z
1/4+x,-y,1/4+z
1/2+x,1/2+y,z
3/4-x,3/4-y,z
1/2+x,3/4-y,1/4-z
3/4-x,1/2+y,1/4-z
1/2-x,1/2-y,-z
1/4+x,1/4+y,-z
1/2-x,1/4+y,3/4+z
1/4+x,1/2-y,3/4+z
loop_
_atom_site_type_symbol
_atom_site_label
_atom_site_fract_x
_atom_site_fract_y
_atom_site_fract_z
Si Si1 0.246773 0.023659 0.415152
Si Si2 0.760563 0.610997 0.778210
Si Si3 0.743832 0.885424 0.025624
Si Si4 0.761454 0.382660 0.437999
Si Si5 0.614174 0.483267 0.670661
Si Si6 0.749791 0.732001 0.922326
Si Si7 0.625000 0.125000 0.044170
O O1 0.206579 0.947444 0.420189
O O2 0.210917 0.077335 0.447328
O O3 0.373022 0.020920 0.420347
O O4 0.220314 0.042469 0.370902
O O5 0.875176 0.635075 0.766830
O O6 0.785994 0.548583 0.806903
O O7 0.707797 0.597607 0.737221
O O8 0.791197 0.819324 0.045078
O O9 0.728097 0.942407 0.058245
O O10 0.780464 0.904540 0.982934
O O11 0.875000 0.375000 0.419433
O O12 0.716581 0.308235 0.432239
O O13 0.625000 0.469094 0.625000
O O14 0.597372 0.561263 0.679694
#
# Coordination Sequence:
#
# PCOD9514172 Si02
#       7
#    32  32  32  32  32  32  16
#     4   9  16  30  49  75 102 141 177 213 262 313
#     4   9  21  35  60  77 109 139 187 221 275 332
#     4   9  19  33  53  72 107 144 176 215 274 325
#     4  10  18  28  49  79 109 140 181 222 257 319
#     4  10  21  38  62  81 108 143 184 226 283 340
#     4   9  16  28  50  73 103 142 180 208 254 324
#     4  12  21  38  62  88 102 136 188 242 274 320
#
# _framework density 23.626460999999999
#
# number of rings (size 3 to 8) (size 9 to 14) (size 15 to 20)
#    0.923    1.538    0.000    3.462    0.000    1.846 
#    0.000    0.000   10.154    1.846    0.000    0.000 
#    0.000    0.000    0.000    0.000    0.000    0.000 
#
# Total GULP energy -289926.471836 kJ/mol
# GULP energy per Si atom -5575.509074 kJ/mol
# Density = 2.357269 g / cm^3
# Si number density = 23.626461 Si / 1000 Ang^3
#
#
#
# Elastic Constant Matrix: (Units=GPa)
#
#
# Indices 1 2 3 4 5 6 
#
# 1 31.4844 -2.1125 6.0031 0.0000 0.0000 0.0000
# 2 -2.1125 105.9159 6.4981 0.0000 0.0000 0.0000
# 3 6.0031 6.4981 106.4127 0.0000 0.0000 0.0000
# 4 0.0000 0.0000 0.0000 21.7377 0.0000 0.0000
# 5 0.0000 0.0000 0.0000 0.0000 15.7068 0.0000
# 6 0.0000 0.0000 0.0000 0.0000 0.0000 7.5142
#
#
#
# Elastic Compliance Matrix: (Units=1/GPa)
#
#
# Indices 1 2 3 4 5 6 
#
# 1 0.032167 0.000756 -0.001861 0.000000 0.000000 0.000000
# 2 0.000756 0.009495 -0.000622 0.000000 0.000000 0.000000
# 3 -0.001861 -0.000622 0.009540 0.000000 0.000000 0.000000
# 4 0.000000 0.000000 0.000000 0.046003 0.000000 0.000000
# 5 0.000000 0.000000 0.000000 0.000000 0.063667 0.000000
# 6 0.000000 0.000000 0.000000 0.000000 0.000000 0.133081
#
#
# Mechanical properties :
#
#
# Convention : Reuss Voigt Hill
#
# Bulk Modulus (GPa) = 20.94356 29.39893 25.17125
# Shear Modulus (GPa) = 15.95796 24.55337 20.25566
#
# Velocity S-wave (km/s) = 2.60172 3.22721 2.93120
# Velocity P-wave (km/s) = 4.23190 5.13388 4.70456
#
# Compressibility (1/GPa) = 0.04774737
#
# Stress axis : x y z
#
# Youngs Moduli (GPa) = 31.08748 105.32174 104.81791
#
# Poissons Ratio (x) = -0.07960 0.19505
# Poissons Ratio (y) = -0.02349 0.06524
# Poissons Ratio (z) = 0.05785 0.06556
#
# Static dielectric constant tensor:
#      x y z
#    x 1.996760 0.000000 0.000000 
#    y 0.000000 1.874430 0.000000 
#    z 0.000000 0.000000 1.844820 
# 
# From -- ./inp_files/67361.got.cif
#   From: 2010.05.17/outbox.cif.g08.bks.cpg/sg70_34_cif.got.tgz:67361.got - 2010.06.03 15:57:51.
