data_PCOD9514739
_publ_section_title
;
Structure prediction by ZEFSAII (Michael W. Deem and Ramdas Pophale) SiO2 
 PCOD9514739
Probable space group: F D D D
;
_chemical_formula_sum "Si O2"
_cell_formula_units_Z 160
_cell_length_a 15.386883
_cell_length_b 12.244235
_cell_length_c 33.608224
_cell_angle_alpha 90.000000
_cell_angle_beta 90.000000
_cell_angle_gamma 90.000000
_cell_volume 6331.809949
_symmetry_space_group_name_H-M "F D D D"
_symmetry_group_IT_number 70
_space_group.IT_coordinate_system_code '2'
_symmetry_cell_setting 'orthorhombic'
loop_
_space_group_symop_operation_xyz
x,y,z
1/4-x,1/4-y,z
x,1/4-y,1/4-z
1/4-x,y,1/4-z
-x,-y,-z
3/4+x,3/4+y,-z
-x,3/4+y,3/4+z
3/4+x,-y,3/4+z
x,1/2+y,1/2+z
1/4-x,3/4-y,1/2+z
x,3/4-y,3/4-z
1/4-x,1/2+y,3/4-z
-x,1/2-y,1/2-z
3/4+x,1/4+y,1/2-z
-x,1/4+y,1/4+z
3/4+x,1/2-y,1/4+z
1/2+x,y,1/2+z
3/4-x,1/4-y,1/2+z
1/2+x,1/4-y,3/4-z
3/4-x,y,3/4-z
1/2-x,-y,1/2-z
1/4+x,3/4+y,1/2-z
1/2-x,3/4+y,1/4+z
1/4+x,-y,1/4+z
1/2+x,1/2+y,z
3/4-x,3/4-y,z
1/2+x,3/4-y,1/4-z
3/4-x,1/2+y,1/4-z
1/2-x,1/2-y,-z
1/4+x,1/4+y,-z
1/2-x,1/4+y,3/4+z
1/4+x,1/2-y,3/4+z
loop_
_atom_site_type_symbol
_atom_site_label
_atom_site_fract_x
_atom_site_fract_y
_atom_site_fract_z
Si Si1 0.712433 0.870982 0.176567
Si Si2 0.224482 0.136488 0.577352
Si Si3 0.216293 0.475120 0.853492
Si Si4 0.735547 0.844525 0.697763
Si Si5 0.280788 0.408971 0.969326
O O1 0.746831 0.803521 0.138469
O O2 0.608296 0.891503 0.175676
O O3 0.729329 0.787425 0.212019
O O4 0.755328 0.990300 0.181014
O O5 0.125000 0.125000 0.562248
O O6 0.221182 0.125000 0.625000
O O7 0.268574 0.028774 0.559657
O O8 0.163827 0.375000 0.875000
O O9 0.199963 0.567662 0.820983
O O10 0.274280 0.399650 0.823687
O O11 0.718842 0.869578 0.744083
O O12 0.375000 0.375000 0.984344
#
# Coordination Sequence:
#
# PCOD9514739 Si02
#       5
#    32  32  32  32  32
#     4  10  20  34  55  82 111 136 186 236 265 325
#     4   9  17  30  53  80 104 136 182 230 269 319
#     4  10  20  32  55  83 107 135 184 233 269 321
#     4  11  20  33  54  82 112 142 177 232 286 317
#     4  11  23  32  51  82 117 144 176 227 287 331
#
# _framework density 25.269235999999999
#
# number of rings (size 3 to 8) (size 9 to 14) (size 15 to 20)
#    0.000    1.800    4.000    1.200    2.800    0.800 
#    0.000    0.000    0.000    1.200    0.000    0.000 
#    0.000    0.000    0.000    0.000    0.000    0.000 
#
# Total GULP energy -222795.261763 kJ/mol
# GULP energy per Si atom -5569.881544 kJ/mol
# Density = 2.521172 g / cm^3
# Si number density = 25.269236 Si / 1000 Ang^3
#
#
#
# Elastic Constant Matrix: (Units=GPa)
#
#
# Indices 1 2 3 4 5 6 
#
# 1 27.4020 13.9694 -17.8426 0.0000 0.0000 0.0000
# 2 13.9694 252.7608 36.9619 0.0000 0.0000 0.0000
# 3 -17.8426 36.9619 67.1800 0.0000 0.0000 0.0000
# 4 0.0000 0.0000 0.0000 22.9717 0.0000 0.0000
# 5 0.0000 0.0000 0.0000 0.0000 -64.3320 0.0000
# 6 0.0000 0.0000 0.0000 0.0000 0.0000 20.3893
#
#
#
# Elastic Compliance Matrix: (Units=1/GPa)
#
#
# Indices 1 2 3 4 5 6 
#
# 1 0.049435 -0.005059 0.015913 0.000000 0.000000 0.000000
# 2 -0.005059 0.004820 -0.003996 0.000000 0.000000 0.000000
# 3 0.015913 -0.003996 0.021310 0.000000 0.000000 0.000000
# 4 0.000000 0.000000 0.000000 0.043532 0.000000 0.000000
# 5 0.000000 0.000000 0.000000 0.000000 -0.015544 0.000000
# 6 0.000000 0.000000 0.000000 0.000000 0.000000 0.049045
#
#
# Mechanical properties :
#
#
# Convention : Reuss Voigt Hill
#
# Bulk Modulus (GPa) = 11.20056 45.94668 28.57362
# Shear Modulus (GPa) = 29.64863 16.75606 23.20234
#
# Velocity S-wave (km/s) = 3.42908 2.57787 3.03348
# Velocity P-wave (km/s) = 4.48555 5.20412 4.85814
#
# Compressibility (1/GPa) = 0.08928129
#
# Stress axis : x y z
#
# Youngs Moduli (GPa) = 20.22878 207.45951 46.92588
#
# Poissons Ratio (x) = 1.04956 -0.74673
# Poissons Ratio (y) = 0.10234 0.18750
# Poissons Ratio (z) = -0.32190 0.82895
#
# Static dielectric constant tensor:
#      x y z
#    x 2.065660 0.000000 0.000000 
#    y 0.000000 2.044770 0.000000 
#    z 0.000000 0.000000 1.993440 
# 
# From -- ./inp_files/67713.got.cif
#   From: 2010.05.17/outbox.cif.g08.bks.cpg/sg70_34_cif.got.tgz:67713.got - 2010.06.03 15:57:51.
