data_PCOD9514357
_publ_section_title
;
Structure prediction by ZEFSAII (Michael W. Deem and Ramdas Pophale) SiO2 
 PCOD9514357
Probable space group: F D D D
;
_chemical_formula_sum "Si O2"
_cell_formula_units_Z 216
_cell_length_a 22.936373
_cell_length_b 16.751753
_cell_length_c 28.454038
_cell_angle_alpha 90.000000
_cell_angle_beta 90.000000
_cell_angle_gamma 90.000000
_cell_volume 10932.737249
_symmetry_space_group_name_H-M "F D D D"
_symmetry_group_IT_number 70
_space_group.IT_coordinate_system_code '2'
_symmetry_cell_setting 'orthorhombic'
loop_
_space_group_symop_operation_xyz
x,y,z
1/4-x,1/4-y,z
x,1/4-y,1/4-z
1/4-x,y,1/4-z
-x,-y,-z
3/4+x,3/4+y,-z
-x,3/4+y,3/4+z
3/4+x,-y,3/4+z
x,1/2+y,1/2+z
1/4-x,3/4-y,1/2+z
x,3/4-y,3/4-z
1/4-x,1/2+y,3/4-z
-x,1/2-y,1/2-z
3/4+x,1/4+y,1/2-z
-x,1/4+y,1/4+z
3/4+x,1/2-y,1/4+z
1/2+x,y,1/2+z
3/4-x,1/4-y,1/2+z
1/2+x,1/4-y,3/4-z
3/4-x,y,3/4-z
1/2-x,-y,1/2-z
1/4+x,3/4+y,1/2-z
1/2-x,3/4+y,1/4+z
1/4+x,-y,1/4+z
1/2+x,1/2+y,z
3/4-x,3/4-y,z
1/2+x,3/4-y,1/4-z
3/4-x,1/2+y,1/4-z
1/2-x,1/2-y,-z
1/4+x,1/4+y,-z
1/2-x,1/4+y,3/4+z
1/4+x,1/2-y,3/4+z
loop_
_atom_site_type_symbol
_atom_site_label
_atom_site_fract_x
_atom_site_fract_y
_atom_site_fract_z
Si Si1 0.728549 0.840228 0.004345
Si Si2 0.976649 0.879559 0.170012
Si Si3 0.375000 0.875000 0.747388
Si Si4 0.653407 0.316750 0.762922
Si Si5 0.125000 0.125000 0.125000
Si Si6 0.318426 0.324147 0.676831
Si Si7 0.309694 0.027486 0.772488
Si Si8 0.970864 0.964591 0.815083
O O1 0.741902 0.893202 0.957847
O O2 0.750000 0.750000 0.000000
O O3 0.660229 0.825041 0.009480
O O4 0.763122 0.888573 0.044969
O O5 0.931342 0.888800 0.213692
O O6 0.944237 0.835847 0.127760
O O7 0.035328 0.828894 0.183207
O O8 0.993454 0.969899 0.155608
O O9 0.394744 0.795737 0.776532
O O10 0.663571 0.265723 0.809611
O O11 0.669190 0.408766 0.765851
O O12 0.694554 0.267907 0.727164
O O13 0.082628 0.072029 0.156780
O O14 0.375000 0.375000 0.691937
O O15 0.250000 0.000000 0.750000
#
# Coordination Sequence:
#
# PCOD9514357 Si02
#       8
#    32  32  16  32   8  32  32  32
#     4  11  21  36  61  85 121 167 201 247 310 379
#     4  10  21  39  59  92 123 160 204 261 311 355
#     4  10  18  38  67  88 119 160 206 248 308 374
#     4  10  21  40  61  89 119 162 203 242 311 370
#     4  12  24  36  54  80 120 158 196 254 280 358
#     4  11  22  37  61  91 129 159 204 262 308 364
#     4   9  20  39  66  88 120 164 206 250 307 377
#     4  10  24  36  55  86 118 159 207 241 304 370
#
# _framework density 19.757175
#
# number of rings (size 3 to 8) (size 9 to 14) (size 15 to 20)
#    0.000    1.778    2.222    1.778    6.222    1.185 
#    0.000    2.963    0.000    1.778    0.000    0.000 
#    0.000    0.000    0.000    0.000    0.000    0.000 
#
# Total GULP energy -300632.522402 kJ/mol
# GULP energy per Si atom -5567.268933 kJ/mol
# Density = 1.971221 g / cm^3
# Si number density = 19.757175 Si / 1000 Ang^3
#
#
#
# Elastic Constant Matrix: (Units=GPa)
#
#
# Indices 1 2 3 4 5 6 
#
# 1 74.0885 36.7444 -2.0417 0.0000 0.0000 0.0000
# 2 36.7444 137.5951 9.7168 0.0000 0.0000 0.0000
# 3 -2.0417 9.7168 26.3402 0.0000 0.0000 0.0000
# 4 0.0000 0.0000 0.0000 31.4170 0.0000 0.0000
# 5 0.0000 0.0000 0.0000 0.0000 16.5723 0.0000
# 6 0.0000 0.0000 0.0000 0.0000 0.0000 136.7331
#
#
#
# Elastic Compliance Matrix: (Units=1/GPa)
#
#
# Indices 1 2 3 4 5 6 
#
# 1 0.015763 -0.004411 0.002849 0.000000 0.000000 0.000000
# 2 -0.004411 0.008696 -0.003550 0.000000 0.000000 0.000000
# 3 0.002849 -0.003550 0.039495 0.000000 0.000000 0.000000
# 4 0.000000 0.000000 0.000000 0.031830 0.000000 0.000000
# 5 0.000000 0.000000 0.000000 0.000000 0.060342 0.000000
# 6 0.000000 0.000000 0.000000 0.000000 0.000000 0.007314
#
#
# Mechanical properties :
#
#
# Convention : Reuss Voigt Hill
#
# Bulk Modulus (GPa) = 18.61105 36.31809 27.46457
# Shear Modulus (GPa) = 26.09958 49.85142 37.97550
#
# Velocity S-wave (km/s) = 3.63852 5.02860 4.38895
# Velocity P-wave (km/s) = 5.20501 7.22066 6.29405
#
# Compressibility (1/GPa) = 0.05373151
#
# Stress axis : x y z
#
# Youngs Moduli (GPa) = 63.43800 114.99173 25.31953
#
# Poissons Ratio (x) = 0.50720 -0.07214
# Poissons Ratio (y) = 0.27981 0.08988
# Poissons Ratio (z) = -0.18074 0.40821
#
# Static dielectric constant tensor:
#      x y z
#    x 1.731720 0.000000 0.000000 
#    y 0.000000 1.727770 0.000000 
#    z 0.000000 0.000000 1.746930 
# 
# From -- ./inp_files/67981.got.cif
#   From: 2010.05.17/outbox.cif.g08.bks.cpg/sg70_34_cif.got.tgz:67981.got - 2010.06.03 15:57:51.
