data_PCOD9514190
_publ_section_title
;
Structure prediction by ZEFSAII (Michael W. Deem and Ramdas Pophale) SiO2 
 PCOD9514190
Probable space group: F D D D
;
_chemical_formula_sum "Si O2"
_cell_formula_units_Z 160
_cell_length_a 32.895634
_cell_length_b 19.905828
_cell_length_c 11.593539
_cell_angle_alpha 90.000000
_cell_angle_beta 90.000000
_cell_angle_gamma 90.000000
_cell_volume 7591.621297
_symmetry_space_group_name_H-M "F D D D"
_symmetry_group_IT_number 70
_space_group.IT_coordinate_system_code '2'
_symmetry_cell_setting 'orthorhombic'
loop_
_space_group_symop_operation_xyz
x,y,z
1/4-x,1/4-y,z
x,1/4-y,1/4-z
1/4-x,y,1/4-z
-x,-y,-z
3/4+x,3/4+y,-z
-x,3/4+y,3/4+z
3/4+x,-y,3/4+z
x,1/2+y,1/2+z
1/4-x,3/4-y,1/2+z
x,3/4-y,3/4-z
1/4-x,1/2+y,3/4-z
-x,1/2-y,1/2-z
3/4+x,1/4+y,1/2-z
-x,1/4+y,1/4+z
3/4+x,1/2-y,1/4+z
1/2+x,y,1/2+z
3/4-x,1/4-y,1/2+z
1/2+x,1/4-y,3/4-z
3/4-x,y,3/4-z
1/2-x,-y,1/2-z
1/4+x,3/4+y,1/2-z
1/2-x,3/4+y,1/4+z
1/4+x,-y,1/4+z
1/2+x,1/2+y,z
3/4-x,3/4-y,z
1/2+x,3/4-y,1/4-z
3/4-x,1/2+y,1/4-z
1/2-x,1/2-y,-z
1/4+x,1/4+y,-z
1/2-x,1/4+y,3/4+z
1/4+x,1/2-y,3/4+z
loop_
_atom_site_type_symbol
_atom_site_label
_atom_site_fract_x
_atom_site_fract_y
_atom_site_fract_z
Si Si1 0.204780 0.133744 0.882309
Si Si2 0.160321 0.020035 0.033710
Si Si3 0.345800 0.524717 0.617847
Si Si4 0.968022 0.056112 0.960015
Si Si5 0.939241 0.375000 0.875000
Si Si6 0.375000 0.493685 0.375000
O O1 0.175317 0.200116 0.881887
O O2 0.250483 0.135514 0.932010
O O3 0.212263 0.127952 0.745249
O O4 0.180775 0.079510 0.959533
O O5 0.125000 0.042342 0.125000
O O6 0.192997 0.976637 0.104742
O O7 0.136770 0.975055 0.941384
O O8 0.313616 0.568094 0.688494
O O9 0.359009 0.534330 0.485683
O O10 0.000000 0.000000 0.000000
O O11 0.911321 0.440727 0.897689
#
# Coordination Sequence:
#
# PCOD9514190 Si02
#       6
#    32  32  32  32  16  16
#     4  10  18  31  49  77 112 141 171 226 277 329
#     4  10  19  32  53  82 107 138 178 222 273 328
#     4   9  17  29  49  76 102 134 172 220 270 317
#     4   9  20  31  44  75 115 135 172 221 276 324
#     4   9  16  26  48  76 106 140 168 212 274 316
#     4   9  14  26  48  76 104 128 170 220 260 314
#
# _framework density 21.075866000000001
#
# number of rings (size 3 to 8) (size 9 to 14) (size 15 to 20)
#    0.000    2.600    2.000    0.600    0.000   11.200 
#    0.000    1.000    0.000    0.000    0.000   33.600 
#    3.000    0.000    0.000    0.000    0.000    0.000 
#
# Total GULP energy -222674.771291 kJ/mol
# GULP energy per Si atom -5566.869282 kJ/mol
# Density = 2.102790 g / cm^3
# Si number density = 21.075866 Si / 1000 Ang^3
#
#
#
# Elastic Constant Matrix: (Units=GPa)
#
#
# Indices 1 2 3 4 5 6 
#
# 1 137.5946 19.3242 71.3567 0.0000 0.0000 0.0000
# 2 19.3242 22.2814 17.5182 0.0000 0.0000 0.0000
# 3 71.3567 17.5182 145.9686 0.0000 0.0000 0.0000
# 4 0.0000 0.0000 0.0000 18.3949 0.0000 0.0000
# 5 0.0000 0.0000 0.0000 0.0000 31.3268 0.0000
# 6 0.0000 0.0000 0.0000 0.0000 0.0000 -97.4808
#
#
#
# Elastic Compliance Matrix: (Units=1/GPa)
#
#
# Indices 1 2 3 4 5 6 
#
# 1 0.010312 -0.005499 -0.004381 0.000000 0.000000 0.000000
# 2 -0.005499 0.052489 -0.003611 0.000000 0.000000 0.000000
# 3 -0.004381 -0.003611 0.009426 0.000000 0.000000 0.000000
# 4 0.000000 0.000000 0.000000 0.054363 0.000000 0.000000
# 5 0.000000 0.000000 0.000000 0.000000 0.031922 0.000000
# 6 0.000000 0.000000 0.000000 0.000000 0.000000 -0.010258
#
#
# Mechanical properties :
#
#
# Convention : Reuss Voigt Hill
#
# Bulk Modulus (GPa) = 22.10222 58.02699 40.06460
# Shear Modulus (GPa) = 26.27196 3.62453 14.94825
#
# Velocity S-wave (km/s) = 3.53447 1.31282 2.66608
# Velocity P-wave (km/s) = 5.21214 5.46719 5.34119
#
# Compressibility (1/GPa) = 0.04524432
#
# Stress axis : x y z
#
# Youngs Moduli (GPa) = 96.97387 19.05164 106.09089
#
# Poissons Ratio (x) = 0.10476 0.46479
# Poissons Ratio (y) = 0.53325 0.38312
# Poissons Ratio (z) = 0.42485 0.06880
#
# Static dielectric constant tensor:
#      x y z
#    x 1.774740 0.000000 0.000000 
#    y 0.000000 1.772810 0.000000 
#    z 0.000000 0.000000 1.764620 
# 
# From -- ./inp_files/22219.got.cif
#   From: 2010.05.17/outbox.cif.g08.bks.cpg/sg70_12_cif.got.tgz:22219.got - 2010.06.03 15:57:51.
