data_PCOD9514345
_publ_section_title
;
Structure prediction by ZEFSAII (Michael W. Deem and Ramdas Pophale) SiO2 
 PCOD9514345
Probable space group: F D D D
;
_chemical_formula_sum "Si O2"
_cell_formula_units_Z 160
_cell_length_a 23.686161
_cell_length_b 9.872357
_cell_length_c 27.804751
_cell_angle_alpha 90.000000
_cell_angle_beta 90.000000
_cell_angle_gamma 90.000000
_cell_volume 6501.813964
_symmetry_space_group_name_H-M "F D D D"
_symmetry_group_IT_number 70
_space_group.IT_coordinate_system_code '2'
_symmetry_cell_setting 'orthorhombic'
loop_
_space_group_symop_operation_xyz
x,y,z
1/4-x,1/4-y,z
x,1/4-y,1/4-z
1/4-x,y,1/4-z
-x,-y,-z
3/4+x,3/4+y,-z
-x,3/4+y,3/4+z
3/4+x,-y,3/4+z
x,1/2+y,1/2+z
1/4-x,3/4-y,1/2+z
x,3/4-y,3/4-z
1/4-x,1/2+y,3/4-z
-x,1/2-y,1/2-z
3/4+x,1/4+y,1/2-z
-x,1/4+y,1/4+z
3/4+x,1/2-y,1/4+z
1/2+x,y,1/2+z
3/4-x,1/4-y,1/2+z
1/2+x,1/4-y,3/4-z
3/4-x,y,3/4-z
1/2-x,-y,1/2-z
1/4+x,3/4+y,1/2-z
1/2-x,3/4+y,1/4+z
1/4+x,-y,1/4+z
1/2+x,1/2+y,z
3/4-x,3/4-y,z
1/2+x,3/4-y,1/4-z
3/4-x,1/2+y,1/4-z
1/2-x,1/2-y,-z
1/4+x,1/4+y,-z
1/2-x,1/4+y,3/4+z
1/4+x,1/2-y,3/4+z
loop_
_atom_site_type_symbol
_atom_site_label
_atom_site_fract_x
_atom_site_fract_y
_atom_site_fract_z
Si Si1 0.540961 0.009081 0.951406
Si Si2 0.875000 0.875000 0.128487
Si Si3 0.625000 0.625000 0.211980
Si Si4 0.294924 0.469533 0.702273
Si Si5 0.450770 0.033940 0.761499
Si Si6 0.578124 0.895541 0.043000
O O1 0.586935 0.027199 0.910846
O O2 0.476003 0.028256 0.933901
O O3 0.548180 0.134462 0.988655
O O4 0.558777 0.884308 0.986014
O O5 0.917646 0.953024 0.094146
O O6 0.669512 0.560826 0.249101
O O7 0.592365 0.503024 0.185988
O O8 0.244463 0.359856 0.702407
O O9 0.285373 0.627281 0.713173
O O10 0.389825 0.039418 0.787559
#
# Coordination Sequence:
#
# PCOD9514345 Si02
#       6
#    32  16  16  32  32  32
#     4  11  21  36  57  93 127 154 202 263 313 364
#     4  11  22  40  56  98 131 150 192 275 320 352
#     4   9  16  34  56  82 110 158 210 237 290 369
#     4   9  20  34  58  86 119 158 201 249 306 373
#     4  10  18  38  60  85 115 167 211 239 295 395
#     4  10  20  34  60  85 119 166 208 247 302 381
#
# _framework density 24.608516000000002
#
# number of rings (size 3 to 8) (size 9 to 14) (size 15 to 20)
#    0.000    2.000    4.000    0.000    0.000    0.800 
#    3.600    1.000    0.000    0.000    0.000    2.800 
#    0.000    0.000    0.000    0.000    0.000    0.000 
#
# Total GULP energy -222710.396902 kJ/mol
# GULP energy per Si atom -5567.759923 kJ/mol
# Density = 2.455251 g / cm^3
# Si number density = 24.608516 Si / 1000 Ang^3
#
#
#
# Elastic Constant Matrix: (Units=GPa)
#
#
# Indices 1 2 3 4 5 6 
#
# 1 180.8820 14.9533 27.6350 0.0000 0.0000 0.0000
# 2 14.9533 94.3210 -1.1200 0.0000 0.0000 0.0000
# 3 27.6350 -1.1200 59.0467 0.0000 0.0000 0.0000
# 4 0.0000 0.0000 0.0000 9.8507 0.0000 0.0000
# 5 0.0000 0.0000 0.0000 0.0000 37.7144 0.0000
# 6 0.0000 0.0000 0.0000 0.0000 0.0000 31.4939
#
#
#
# Elastic Compliance Matrix: (Units=1/GPa)
#
#
# Indices 1 2 3 4 5 6 
#
# 1 0.006046 -0.000992 -0.002848 0.000000 0.000000 0.000000
# 2 -0.000992 0.010767 0.000669 0.000000 0.000000 0.000000
# 3 -0.002848 0.000669 0.018281 0.000000 0.000000 0.000000
# 4 0.000000 0.000000 0.000000 0.101516 0.000000 0.000000
# 5 0.000000 0.000000 0.000000 0.000000 0.026515 0.000000
# 6 0.000000 0.000000 0.000000 0.000000 0.000000 0.031752
#
#
# Mechanical properties :
#
#
# Convention : Reuss Voigt Hill
#
# Bulk Modulus (GPa) = 34.78189 46.35404 40.56796
# Shear Modulus (GPa) = 23.71863 35.33056 29.52459
#
# Velocity S-wave (km/s) = 3.10794 3.79318 3.46753
# Velocity P-wave (km/s) = 5.20037 6.16942 5.70551
#
# Compressibility (1/GPa) = 0.02875060
#
# Stress axis : x y z
#
# Youngs Moduli (GPa) = 165.40799 92.87337 54.70017
#
# Poissons Ratio (x) = 0.09216 0.15580
# Poissons Ratio (y) = 0.16413 -0.03657
# Poissons Ratio (z) = 0.47113 -0.06210
#
# Static dielectric constant tensor:
#      x y z
#    x 2.182850 0.000000 0.000000 
#    y 0.000000 2.304390 0.000000 
#    z 0.000000 0.000000 1.922740 
# 
# From -- ./inp_files/68325.got.cif
#   From: 2010.05.17/outbox.cif.g08.bks.cpg/sg70_35_cif.got.tgz:68325.got - 2010.06.03 15:57:51.
