data_PCOD9514533
_publ_section_title
;
Structure prediction by ZEFSAII (Michael W. Deem and Ramdas Pophale) SiO2 
 PCOD9514533
Probable space group: F D D D
;
_chemical_formula_sum "Si O2"
_cell_formula_units_Z 144
_cell_length_a 11.207958
_cell_length_b 18.472227
_cell_length_c 25.951261
_cell_angle_alpha 90.000000
_cell_angle_beta 90.000000
_cell_angle_gamma 90.000000
_cell_volume 5372.843829
_symmetry_space_group_name_H-M "F D D D"
_symmetry_group_IT_number 70
_space_group.IT_coordinate_system_code '2'
_symmetry_cell_setting 'orthorhombic'
loop_
_space_group_symop_operation_xyz
x,y,z
1/4-x,1/4-y,z
x,1/4-y,1/4-z
1/4-x,y,1/4-z
-x,-y,-z
3/4+x,3/4+y,-z
-x,3/4+y,3/4+z
3/4+x,-y,3/4+z
x,1/2+y,1/2+z
1/4-x,3/4-y,1/2+z
x,3/4-y,3/4-z
1/4-x,1/2+y,3/4-z
-x,1/2-y,1/2-z
3/4+x,1/4+y,1/2-z
-x,1/4+y,1/4+z
3/4+x,1/2-y,1/4+z
1/2+x,y,1/2+z
3/4-x,1/4-y,1/2+z
1/2+x,1/4-y,3/4-z
3/4-x,y,3/4-z
1/2-x,-y,1/2-z
1/4+x,3/4+y,1/2-z
1/2-x,3/4+y,1/4+z
1/4+x,-y,1/4+z
1/2+x,1/2+y,z
3/4-x,3/4-y,z
1/2+x,3/4-y,1/4-z
3/4-x,1/2+y,1/4-z
1/2-x,1/2-y,-z
1/4+x,1/4+y,-z
1/2-x,1/4+y,3/4+z
1/4+x,1/2-y,3/4+z
loop_
_atom_site_type_symbol
_atom_site_label
_atom_site_fract_x
_atom_site_fract_y
_atom_site_fract_z
Si Si1 0.375000 0.375000 0.752965
Si Si2 0.309286 0.564920 0.581288
Si Si3 0.507634 0.401278 0.264005
Si Si4 0.247733 0.512237 0.395841
Si Si5 0.315435 0.672021 0.423947
O O1 0.299465 0.322988 0.791219
O O2 0.289588 0.426900 0.717841
O O3 0.284971 0.625000 0.625000
O O4 0.418927 0.592000 0.545817
O O5 0.377157 0.501874 0.613285
O O6 0.375000 0.375000 0.256548
O O7 0.512380 0.472022 0.299715
O O8 0.570603 0.410882 0.209962
O O9 0.375000 0.481663 0.375000
O O10 0.268658 0.596913 0.400211
O O11 0.375000 0.715878 0.375000
#
# Coordination Sequence:
#
# PCOD9514533 Si02
#       5
#    16  32  32  32  32
#     4  10  21  42  58  90 136 172 225 270 338 402
#     4   9  18  34  64  92 119 168 210 274 329 389
#     4  10  19  35  63  94 128 170 218 275 338 385
#     4  10  19  38  66 101 125 163 232 280 328 401
#     4  10  24  41  60  94 134 175 223 276 331 405
#
# _framework density 26.801447
#
# number of rings (size 3 to 8) (size 9 to 14) (size 15 to 20)
#    0.000    2.222    2.222    0.333    1.556    0.889 
#    4.000   10.000    0.000    2.667    0.000    0.000 
#    0.000    0.000    0.000    0.000    0.000    0.000 
#
# Total GULP energy -201161.285105 kJ/mol
# GULP energy per Si atom -5587.813475 kJ/mol
# Density = 2.674045 g / cm^3
# Si number density = 26.801447 Si / 1000 Ang^3
#
#
#
# Elastic Constant Matrix: (Units=GPa)
#
#
# Indices 1 2 3 4 5 6 
#
# 1 236.5934 32.9704 110.6981 0.0000 0.0000 0.0000
# 2 32.9704 75.0236 31.8871 0.0000 0.0000 0.0000
# 3 110.6981 31.8871 199.6303 0.0000 0.0000 0.0000
# 4 0.0000 0.0000 0.0000 130.1961 0.0000 0.0000
# 5 0.0000 0.0000 0.0000 0.0000 85.2615 0.0000
# 6 0.0000 0.0000 0.0000 0.0000 0.0000 14.5051
#
#
#
# Elastic Compliance Matrix: (Units=1/GPa)
#
#
# Indices 1 2 3 4 5 6 
#
# 1 0.005818 -0.001272 -0.003023 0.000000 0.000000 0.000000
# 2 -0.001272 0.014578 -0.001623 0.000000 0.000000 0.000000
# 3 -0.003023 -0.001623 0.006945 0.000000 0.000000 0.000000
# 4 0.000000 0.000000 0.000000 0.007681 0.000000 0.000000
# 5 0.000000 0.000000 0.000000 0.000000 0.011729 0.000000
# 6 0.000000 0.000000 0.000000 0.000000 0.000000 0.068941
#
#
# Mechanical properties :
#
#
# Convention : Reuss Voigt Hill
#
# Bulk Modulus (GPa) = 64.49737 95.81762 80.15750
# Shear Modulus (GPa) = 37.67976 68.37199 53.02587
#
# Velocity S-wave (km/s) = 3.75358 5.05628 4.45283
# Velocity P-wave (km/s) = 6.55003 8.36161 7.51064
#
# Compressibility (1/GPa) = 0.01550451
#
# Stress axis : x y z
#
# Youngs Moduli (GPa) = 171.86714 68.59623 143.98928
#
# Poissons Ratio (x) = 0.08726 0.43531
# Poissons Ratio (y) = 0.21863 0.23372
# Poissons Ratio (z) = 0.51959 0.11134
#
# Static dielectric constant tensor:
#      x y z
#    x 2.159960 0.000000 0.000000 
#    y 0.000000 2.452530 0.000000 
#    z 0.000000 0.000000 2.126450 
# 
# From -- ./inp_files/57460.got.cif
#   From: 2010.05.17/outbox.cif.g08.bks.cpg/sg70_29_cif.got.tgz:57460.got - 2010.06.03 15:57:51.
