data_PCOD9514056
_publ_section_title
;
Structure prediction by ZEFSAII (Michael W. Deem and Ramdas Pophale) SiO2 
 PCOD9514056
Probable space group: F D D D
;
_chemical_formula_sum "Si O2"
_cell_formula_units_Z 152
_cell_length_a 31.669670
_cell_length_b 29.073449
_cell_length_c 10.117973
_cell_angle_alpha 90.000000
_cell_angle_beta 90.000000
_cell_angle_gamma 90.000000
_cell_volume 9316.088587
_symmetry_space_group_name_H-M "F D D D"
_symmetry_group_IT_number 70
_space_group.IT_coordinate_system_code '2'
_symmetry_cell_setting 'orthorhombic'
loop_
_space_group_symop_operation_xyz
x,y,z
1/4-x,1/4-y,z
x,1/4-y,1/4-z
1/4-x,y,1/4-z
-x,-y,-z
3/4+x,3/4+y,-z
-x,3/4+y,3/4+z
3/4+x,-y,3/4+z
x,1/2+y,1/2+z
1/4-x,3/4-y,1/2+z
x,3/4-y,3/4-z
1/4-x,1/2+y,3/4-z
-x,1/2-y,1/2-z
3/4+x,1/4+y,1/2-z
-x,1/4+y,1/4+z
3/4+x,1/2-y,1/4+z
1/2+x,y,1/2+z
3/4-x,1/4-y,1/2+z
1/2+x,1/4-y,3/4-z
3/4-x,y,3/4-z
1/2-x,-y,1/2-z
1/4+x,3/4+y,1/2-z
1/2-x,3/4+y,1/4+z
1/4+x,-y,1/4+z
1/2+x,1/2+y,z
3/4-x,3/4-y,z
1/2+x,3/4-y,1/4-z
3/4-x,1/2+y,1/4-z
1/2-x,1/2-y,-z
1/4+x,1/4+y,-z
1/2-x,1/4+y,3/4+z
1/4+x,1/2-y,3/4+z
loop_
_atom_site_type_symbol
_atom_site_label
_atom_site_fract_x
_atom_site_fract_y
_atom_site_fract_z
Si Si1 0.685279 0.323556 0.830891
Si Si2 0.095357 0.550535 0.429679
Si Si3 0.964961 0.324791 0.937439
Si Si4 0.910835 0.490068 0.985210
Si Si5 0.125000 0.125000 0.125000
Si Si6 0.625000 0.473586 0.125000
O O1 0.674167 0.375000 0.875000
O O2 0.734835 0.323079 0.796421
O O3 0.656601 0.306946 0.710237
O O4 0.676124 0.286450 0.945697
O O5 0.058830 0.561321 0.323681
O O6 0.137718 0.542875 0.342140
O O7 0.098128 0.592746 0.529533
O O8 0.097354 0.505753 0.525193
O O9 0.953587 0.375000 0.875000
O O10 0.948632 0.287190 0.833047
O O11 0.875000 0.499767 0.875000
#
# Coordination Sequence:
#
# PCOD9514056 Si02
#       6
#    32  32  32  32   8  16
#     4  10  21  34  53  72  99 135 172 218 250 293
#     4   9  18  31  51  75 102 134 162 203 253 310
#     4  10  19  32  52  79 106 127 165 208 261 304
#     4   9  18  33  53  77 100 130 168 205 256 307
#     4  10  16  28  50  72 104 136 160 194 250 312
#     4   9  20  37  50  70  98 136 177 206 251 300
#
# _framework density 16.315860000000001
#
# number of rings (size 3 to 8) (size 9 to 14) (size 15 to 20)
#    0.000    2.526    0.000    1.895    1.474    3.789 
#    0.000    0.000    2.316    0.000    0.000    0.000 
#    0.000    0.000    0.000    0.000    0.000    0.000 
#
# Total GULP energy -211652.230368 kJ/mol
# GULP energy per Si atom -5569.795536 kJ/mol
# Density = 1.627872 g / cm^3
# Si number density = 16.315860 Si / 1000 Ang^3
#
#
#
# Elastic Constant Matrix: (Units=GPa)
#
#
# Indices 1 2 3 4 5 6 
#
# 1 74.9707 69.8822 54.8700 0.0026 -0.0035 0.0171
# 2 69.8822 131.0480 79.1338 0.0046 -0.0034 0.0102
# 3 54.8700 79.1338 126.8638 0.0075 -0.0063 0.0091
# 4 0.0026 0.0046 0.0075 16.9801 -0.0049 0.0122
# 5 -0.0035 -0.0034 -0.0063 -0.0049 15.0775 -0.0153
# 6 0.0171 0.0102 0.0091 0.0122 -0.0153 89.4799
#
#
#
# Elastic Compliance Matrix: (Units=1/GPa)
#
#
# Indices 1 2 3 4 5 6 
#
# 1 0.028031 -0.012235 -0.004492 0.000001 0.000002 -0.000004
# 2 -0.012235 0.017583 -0.005676 0.000000 -0.000001 0.000001
# 3 -0.004492 -0.005676 0.013365 -0.000004 0.000003 0.000000
# 4 0.000001 0.000000 -0.000004 0.058893 0.000019 -0.000008
# 5 0.000002 -0.000001 0.000003 0.000019 0.066324 0.000011
# 6 -0.000004 0.000001 0.000000 -0.000008 0.000011 0.011176
#
#
# Mechanical properties :
#
#
# Convention : Reuss Voigt Hill
#
# Bulk Modulus (GPa) = 70.55297 82.29494 76.42396
# Shear Modulus (GPa) = 20.41646 32.90726 26.66186
#
# Velocity S-wave (km/s) = 3.54125 4.49585 4.04679
# Velocity P-wave (km/s) = 7.74961 8.80331 8.29321
#
# Compressibility (1/GPa) = 0.01417375
#
# Stress axis : x y z
#
# Youngs Moduli (GPa) = 35.67515 56.87460 74.82022
#
# Poissons Ratio (x) = 0.69588 0.33606
# Poissons Ratio (y) = 0.43650 0.42465
# Poissons Ratio (z) = 0.16024 0.32279
#
# Static dielectric constant tensor:
#      x y z
#    x 1.516910 0.000000 0.000000 
#    y 0.000000 1.541270 0.000000 
#    z 0.000000 0.000000 1.557690 
# 
# From -- ./inp_files/22540.got.cif
#   From: 2010.05.17/outbox.cif.g08.bks.cpg/sg70_12_cif.got.tgz:22540.got - 2010.06.03 15:57:51.
