data_PCOD9514433
_publ_section_title
;
Structure prediction by ZEFSAII (Michael W. Deem and Ramdas Pophale) SiO2 
 PCOD9514433
Probable space group: F D D D
;
_chemical_formula_sum "Si O2"
_cell_formula_units_Z 184
_cell_length_a 15.802596
_cell_length_b 21.065228
_cell_length_c 27.698915
_cell_angle_alpha 90.000000
_cell_angle_beta 90.000000
_cell_angle_gamma 90.000000
_cell_volume 9220.561290
_symmetry_space_group_name_H-M "F D D D"
_symmetry_group_IT_number 70
_space_group.IT_coordinate_system_code '2'
_symmetry_cell_setting 'orthorhombic'
loop_
_space_group_symop_operation_xyz
x,y,z
1/4-x,1/4-y,z
x,1/4-y,1/4-z
1/4-x,y,1/4-z
-x,-y,-z
3/4+x,3/4+y,-z
-x,3/4+y,3/4+z
3/4+x,-y,3/4+z
x,1/2+y,1/2+z
1/4-x,3/4-y,1/2+z
x,3/4-y,3/4-z
1/4-x,1/2+y,3/4-z
-x,1/2-y,1/2-z
3/4+x,1/4+y,1/2-z
-x,1/4+y,1/4+z
3/4+x,1/2-y,1/4+z
1/2+x,y,1/2+z
3/4-x,1/4-y,1/2+z
1/2+x,1/4-y,3/4-z
3/4-x,y,3/4-z
1/2-x,-y,1/2-z
1/4+x,3/4+y,1/2-z
1/2-x,3/4+y,1/4+z
1/4+x,-y,1/4+z
1/2+x,1/2+y,z
3/4-x,3/4-y,z
1/2+x,3/4-y,1/4-z
3/4-x,1/2+y,1/4-z
1/2-x,1/2-y,-z
1/4+x,1/4+y,-z
1/2-x,1/4+y,3/4+z
1/4+x,1/2-y,3/4+z
loop_
_atom_site_type_symbol
_atom_site_label
_atom_site_fract_x
_atom_site_fract_y
_atom_site_fract_z
Si Si1 0.131355 0.994420 0.328662
Si Si2 0.279023 0.441919 0.001778
Si Si3 0.625000 0.125000 0.995304
Si Si4 0.623671 0.998355 0.941371
Si Si5 0.704757 0.553511 0.210301
Si Si6 0.125000 0.125000 0.125000
Si Si7 0.766729 0.625914 0.570992
O O1 0.148757 0.006285 0.385006
O O2 0.218234 0.994658 0.297710
O O3 0.094807 0.923070 0.323094
O O4 0.057636 0.039208 0.306050
O O5 0.197252 0.471136 0.976279
O O6 0.276503 0.366071 0.992994
O O7 0.360936 0.469707 0.973560
O O8 0.651961 0.184100 0.962775
O O9 0.701083 0.105195 0.030592
O O10 0.549940 0.945997 0.940711
O O11 0.686972 0.583840 0.157774
O O12 0.729531 0.625000 0.625000
#
# Coordination Sequence:
#
# PCOD9514433 Si02
#       7
#    32  32  16  32  32   8  32
#     4  11  20  37  60  89 120 158 204 248 301 364
#     4  10  20  35  56  90 117 159 203 248 300 357
#     4  12  23  42  61  88 124 155 198 257 324 350
#     4  11  23  38  62  89 122 158 202 252 305 362
#     4  10  19  32  58  84 121 156 200 247 296 359
#     4   8  16  28  50  84 108 152 204 248 276 350
#     4  10  22  39  65  88 112 158 211 252 293 367
#
# _framework density 19.955400999999998
#
# number of rings (size 3 to 8) (size 9 to 14) (size 15 to 20)
#    0.000    1.739    3.478    3.391    1.217    1.391 
#    0.000    0.000    0.000    0.000    0.000    0.000 
#    0.000    0.000    0.000    0.000    0.000    0.000 
#
# Total GULP energy -256515.527686 kJ/mol
# GULP energy per Si atom -5576.424515 kJ/mol
# Density = 1.990998 g / cm^3
# Si number density = 19.955401 Si / 1000 Ang^3
#
#
#
# Elastic Constant Matrix: (Units=GPa)
#
#
# Indices 1 2 3 4 5 6 
#
# 1 49.5825 9.2525 21.6604 0.0000 0.0000 0.0000
# 2 9.2525 83.3307 36.6733 0.0000 0.0000 0.0000
# 3 21.6604 36.6733 73.2429 0.0000 0.0000 0.0000
# 4 0.0000 0.0000 0.0000 1.6569 0.0000 0.0000
# 5 0.0000 0.0000 0.0000 0.0000 24.3419 0.0000
# 6 0.0000 0.0000 0.0000 0.0000 0.0000 18.8915
#
#
#
# Elastic Compliance Matrix: (Units=1/GPa)
#
#
# Indices 1 2 3 4 5 6 
#
# 1 0.023182 0.000568 -0.007140 0.000000 0.000000 0.000000
# 2 0.000568 0.015406 -0.007882 0.000000 0.000000 0.000000
# 3 -0.007140 -0.007882 0.019711 0.000000 0.000000 0.000000
# 4 0.000000 0.000000 0.000000 0.603551 0.000000 0.000000
# 5 0.000000 0.000000 0.000000 0.000000 0.041081 0.000000
# 6 0.000000 0.000000 0.000000 0.000000 0.000000 0.052934
#
#
# Mechanical properties :
#
#
# Convention : Reuss Voigt Hill
#
# Bulk Modulus (GPa) = 34.02355 37.92540 35.97447
# Shear Modulus (GPa) = 6.29271 18.21606 12.25439
#
# Velocity S-wave (km/s) = 1.77770 3.02460 2.48077
# Velocity P-wave (km/s) = 4.61524 5.58963 5.12564
#
# Compressibility (1/GPa) = 0.02939141
#
# Stress axis : x y z
#
# Youngs Moduli (GPa) = 43.13775 64.90939 50.73209
#
# Poissons Ratio (x) = -0.03689 0.36224
# Poissons Ratio (y) = -0.02452 0.39987
# Poissons Ratio (z) = 0.30801 0.51162
#
# Static dielectric constant tensor:
#      x y z
#    x 1.707830 0.000000 0.000000 
#    y 0.000000 1.735410 0.000000 
#    z 0.000000 0.000000 1.787090 
# 
# From -- ./inp_files/59571.got.cif
#   From: 2010.05.17/outbox.cif.g08.bks.cpg/sg70_30_cif.got.tgz:59571.got - 2010.06.03 15:57:51.
