data_PCOD9514303
_publ_section_title
;
Structure prediction by ZEFSAII (Michael W. Deem and Ramdas Pophale) SiO2 
 PCOD9514303
Probable space group: F D D D
;
_chemical_formula_sum "Si O2"
_cell_formula_units_Z 192
_cell_length_a 16.254233
_cell_length_b 24.012117
_cell_length_c 21.301648
_cell_angle_alpha 90.000000
_cell_angle_beta 90.000000
_cell_angle_gamma 90.000000
_cell_volume 8314.002211
_symmetry_space_group_name_H-M "F D D D"
_symmetry_group_IT_number 70
_space_group.IT_coordinate_system_code '2'
_symmetry_cell_setting 'orthorhombic'
loop_
_space_group_symop_operation_xyz
x,y,z
1/4-x,1/4-y,z
x,1/4-y,1/4-z
1/4-x,y,1/4-z
-x,-y,-z
3/4+x,3/4+y,-z
-x,3/4+y,3/4+z
3/4+x,-y,3/4+z
x,1/2+y,1/2+z
1/4-x,3/4-y,1/2+z
x,3/4-y,3/4-z
1/4-x,1/2+y,3/4-z
-x,1/2-y,1/2-z
3/4+x,1/4+y,1/2-z
-x,1/4+y,1/4+z
3/4+x,1/2-y,1/4+z
1/2+x,y,1/2+z
3/4-x,1/4-y,1/2+z
1/2+x,1/4-y,3/4-z
3/4-x,y,3/4-z
1/2-x,-y,1/2-z
1/4+x,3/4+y,1/2-z
1/2-x,3/4+y,1/4+z
1/4+x,-y,1/4+z
1/2+x,1/2+y,z
3/4-x,3/4-y,z
1/2+x,3/4-y,1/4-z
3/4-x,1/2+y,1/4-z
1/2-x,1/2-y,-z
1/4+x,1/4+y,-z
1/2-x,1/4+y,3/4+z
1/4+x,1/2-y,3/4+z
loop_
_atom_site_type_symbol
_atom_site_label
_atom_site_fract_x
_atom_site_fract_y
_atom_site_fract_z
Si Si1 0.210110 0.650935 0.827024
Si Si2 0.035405 0.440027 0.485891
Si Si3 0.285196 0.527130 0.029223
Si Si4 0.426335 0.625000 0.125000
Si Si5 0.375000 0.056647 0.875000
Si Si6 0.109630 0.029264 0.507863
Si Si7 0.715350 0.441991 0.827727
O O1 0.125000 0.625000 0.853726
O O2 0.240562 0.606741 0.775694
O O3 0.051919 0.538508 0.793566
O O4 0.290015 0.659520 0.871024
O O5 0.132815 0.446358 0.498239
O O6 0.026290 0.421814 0.413010
O O7 0.000000 0.500000 0.500000
O O8 0.203354 0.540577 0.990561
O O9 0.267486 0.552502 0.098668
O O10 0.365694 0.595585 0.175155
O O11 0.380602 0.017364 0.936614
O O12 0.063583 0.001097 0.449804
O O13 0.047012 0.073293 0.539136
#
# Coordination Sequence:
#
# PCOD9514303 Si02
#       7
#    32  32  32  16  16  32  32
#     4  11  21  40  65  88 127 172 213 272 336 397
#     4  11  23  42  66  93 127 174 224 271 334 396
#     4  10  20  40  63  89 126 166 214 271 328 394
#     4  10  22  38  62  94 132 162 220 282 318 396
#     4  10  20  38  60  93 124 161 208 256 330 390
#     4  10  18  35  64  88 119 167 203 251 325 392
#     4  10  19  35  63  90 122 168 209 258 324 398
#
# _framework density 23.093571000000001
#
# number of rings (size 3 to 8) (size 9 to 14) (size 15 to 20)
#    0.000    1.667    5.000    2.000    0.000    0.000 
#    3.000    8.750    3.667    0.000    0.000    0.000 
#    0.000    0.000    0.000    0.000    0.000    0.000 
#
# Total GULP energy -268013.049269 kJ/mol
# GULP energy per Si atom -5583.605193 kJ/mol
# Density = 2.304101 g / cm^3
# Si number density = 23.093571 Si / 1000 Ang^3
#
#
#
# Elastic Constant Matrix: (Units=GPa)
#
#
# Indices 1 2 3 4 5 6 
#
# 1 132.5424 5.5981 24.3624 0.0000 0.0000 0.0000
# 2 5.5981 92.9057 16.1472 0.0000 0.0000 0.0000
# 3 24.3624 16.1472 26.4165 0.0000 0.0000 0.0000
# 4 0.0000 0.0000 0.0000 29.2790 0.0000 0.0000
# 5 0.0000 0.0000 0.0000 0.0000 33.6756 0.0000
# 6 0.0000 0.0000 0.0000 0.0000 0.0000 33.6966
#
#
#
# Elastic Compliance Matrix: (Units=1/GPa)
#
#
# Indices 1 2 3 4 5 6 
#
# 1 0.009171 0.001026 -0.009086 0.000000 0.000000 0.000000
# 2 0.001026 0.012158 -0.008378 0.000000 0.000000 0.000000
# 3 -0.009086 -0.008378 0.051356 0.000000 0.000000 0.000000
# 4 0.000000 0.000000 0.000000 0.034154 0.000000 0.000000
# 5 0.000000 0.000000 0.000000 0.000000 0.029695 0.000000
# 6 0.000000 0.000000 0.000000 0.000000 0.000000 0.029677
#
#
# Mechanical properties :
#
#
# Convention : Reuss Voigt Hill
#
# Bulk Modulus (GPa) = 25.11933 38.23112 31.67522
# Shear Modulus (GPa) = 23.54539 33.04737 28.29638
#
# Velocity S-wave (km/s) = 3.19653 3.78699 3.50422
# Velocity P-wave (km/s) = 4.95222 5.97599 5.48803
#
# Compressibility (1/GPa) = 0.03980999
#
# Stress axis : x y z
#
# Youngs Moduli (GPa) = 109.03427 82.25097 19.47206
#
# Poissons Ratio (x) = -0.08443 0.17692
# Poissons Ratio (y) = -0.11192 0.16314
# Poissons Ratio (z) = 0.99065 0.68912
#
# Static dielectric constant tensor:
#      x y z
#    x 1.928900 0.000000 0.000000 
#    y 0.000000 1.921760 0.000000 
#    z 0.000000 0.000000 1.859890 
# 
# From -- ./inp_files/51432.got.cif
#   From: 2010.05.17/outbox.cif.g08.bks.cpg/sg70_26_cif.got.tgz:51432.got - 2010.06.03 15:57:51.
