data_PCOD9514920
_publ_section_title
;
Structure prediction by ZEFSAII (Michael W. Deem and Ramdas Pophale) SiO2 
 PCOD9514920
Probable space group: F D D D
;
_chemical_formula_sum "Si O2"
_cell_formula_units_Z 128
_cell_length_a 13.589678
_cell_length_b 27.742848
_cell_length_c 16.536948
_cell_angle_alpha 90.000000
_cell_angle_beta 90.000000
_cell_angle_gamma 90.000000
_cell_volume 6234.700124
_symmetry_space_group_name_H-M "F D D D"
_symmetry_group_IT_number 70
_space_group.IT_coordinate_system_code '2'
_symmetry_cell_setting 'orthorhombic'
loop_
_space_group_symop_operation_xyz
x,y,z
1/4-x,1/4-y,z
x,1/4-y,1/4-z
1/4-x,y,1/4-z
-x,-y,-z
3/4+x,3/4+y,-z
-x,3/4+y,3/4+z
3/4+x,-y,3/4+z
x,1/2+y,1/2+z
1/4-x,3/4-y,1/2+z
x,3/4-y,3/4-z
1/4-x,1/2+y,3/4-z
-x,1/2-y,1/2-z
3/4+x,1/4+y,1/2-z
-x,1/4+y,1/4+z
3/4+x,1/2-y,1/4+z
1/2+x,y,1/2+z
3/4-x,1/4-y,1/2+z
1/2+x,1/4-y,3/4-z
3/4-x,y,3/4-z
1/2-x,-y,1/2-z
1/4+x,3/4+y,1/2-z
1/2-x,3/4+y,1/4+z
1/4+x,-y,1/4+z
1/2+x,1/2+y,z
3/4-x,3/4-y,z
1/2+x,3/4-y,1/4-z
3/4-x,1/2+y,1/4-z
1/2-x,1/2-y,-z
1/4+x,1/4+y,-z
1/2-x,1/4+y,3/4+z
1/4+x,1/2-y,3/4+z
loop_
_atom_site_type_symbol
_atom_site_label
_atom_site_fract_x
_atom_site_fract_y
_atom_site_fract_z
Si Si1 0.058382 0.511045 0.836852
Si Si2 0.226858 0.967855 0.090094
Si Si3 0.771287 0.858592 0.602214
Si Si4 0.270174 0.421428 0.331605
O O1 0.025159 0.487466 0.751814
O O2 0.175273 0.520479 0.856369
O O3 0.996310 0.560681 0.847707
O O4 0.033541 0.471139 0.903679
O O5 0.125000 0.988241 0.125000
O O6 0.218033 0.909476 0.090804
O O7 0.875000 0.875000 0.638774
O O8 0.786057 0.838972 0.511831
O O9 0.220418 0.375000 0.375000
O O10 0.375000 0.425946 0.375000
#
# Coordination Sequence:
#
# PCOD9514920 Si02
#       4
#    32  32  32  32
#     4  11  23  40  64  93 127 168 219 271 331 396
#     4  11  24  42  63  87 128 174 219 270 326 390
#     4  10  20  37  59  92 123 158 207 264 324 396
#     4  11  18  35  63  92 129 157 201 268 340 387
#
# _framework density 20.530258
#
# number of rings (size 3 to 8) (size 9 to 14) (size 15 to 20)
#    0.000    1.250    5.000    3.000    0.000    3.000 
#    0.000    0.000    0.000    0.000    0.000    0.000 
#    0.000    0.000    0.000    0.000    0.000    0.000 
#
# Total GULP energy -178152.790847 kJ/mol
# GULP energy per Si atom -5567.274714 kJ/mol
# Density = 2.048353 g / cm^3
# Si number density = 20.530258 Si / 1000 Ang^3
#
#
#
# Elastic Constant Matrix: (Units=GPa)
#
#
# Indices 1 2 3 4 5 6 
#
# 1 56.0434 24.8377 21.0602 0.0000 0.0000 0.0000
# 2 24.8377 152.4787 24.2905 0.0000 0.0000 0.0000
# 3 21.0602 24.2905 46.7427 0.0000 0.0000 0.0000
# 4 0.0000 0.0000 0.0000 54.8119 0.0000 0.0000
# 5 0.0000 0.0000 0.0000 0.0000 18.1691 0.0000
# 6 0.0000 0.0000 0.0000 0.0000 0.0000 -9.2077
#
#
#
# Elastic Compliance Matrix: (Units=1/GPa)
#
#
# Indices 1 2 3 4 5 6 
#
# 1 0.022136 -0.002199 -0.008831 0.000000 0.000000 0.000000
# 2 -0.002199 0.007369 -0.002838 0.000000 0.000000 0.000000
# 3 -0.008831 -0.002838 0.026848 0.000000 0.000000 0.000000
# 4 0.000000 0.000000 0.000000 0.018244 0.000000 0.000000
# 5 0.000000 0.000000 0.000000 0.000000 0.055039 0.000000
# 6 0.000000 0.000000 0.000000 0.000000 0.000000 -0.108604
#
#
# Mechanical properties :
#
#
# Convention : Reuss Voigt Hill
#
# Bulk Modulus (GPa) = 34.94569 43.96018 39.45294
# Shear Modulus (GPa) = 85.75322 25.09305 55.42314
#
# Velocity S-wave (km/s) = 6.46992 3.49986 5.20139
# Velocity P-wave (km/s) = 8.53649 6.14743 7.43850
#
# Compressibility (1/GPa) = 0.02861583
#
# Stress axis : x y z
#
# Youngs Moduli (GPa) = 45.17432 135.70947 37.24724
#
# Poissons Ratio (x) = 0.29843 0.32893
# Poissons Ratio (y) = 0.09934 0.10572
# Poissons Ratio (z) = 0.39893 0.38520
#
# Static dielectric constant tensor:
#      x y z
#    x 1.835720 0.000000 0.000000 
#    y 0.000000 1.783960 0.000000 
#    z 0.000000 0.000000 1.733010 
# 
# From -- ./inp_files/34821.got.cif
#   From: 2010.05.17/outbox.cif.g08.bks.cpg/sg70_18_cif.got.tgz:34821.got - 2010.06.03 15:57:51.
