data_PCOD9514562
_publ_section_title
;
Structure prediction by ZEFSAII (Michael W. Deem and Ramdas Pophale) SiO2 
 PCOD9514562
Probable space group: F D D D
;
_chemical_formula_sum "Si O2"
_cell_formula_units_Z 160
_cell_length_a 17.915400
_cell_length_b 22.042133
_cell_length_c 18.014751
_cell_angle_alpha 90.000000
_cell_angle_beta 90.000000
_cell_angle_gamma 90.000000
_cell_volume 7113.910408
_symmetry_space_group_name_H-M "F D D D"
_symmetry_group_IT_number 70
_space_group.IT_coordinate_system_code '2'
_symmetry_cell_setting 'orthorhombic'
loop_
_space_group_symop_operation_xyz
x,y,z
1/4-x,1/4-y,z
x,1/4-y,1/4-z
1/4-x,y,1/4-z
-x,-y,-z
3/4+x,3/4+y,-z
-x,3/4+y,3/4+z
3/4+x,-y,3/4+z
x,1/2+y,1/2+z
1/4-x,3/4-y,1/2+z
x,3/4-y,3/4-z
1/4-x,1/2+y,3/4-z
-x,1/2-y,1/2-z
3/4+x,1/4+y,1/2-z
-x,1/4+y,1/4+z
3/4+x,1/2-y,1/4+z
1/2+x,y,1/2+z
3/4-x,1/4-y,1/2+z
1/2+x,1/4-y,3/4-z
3/4-x,y,3/4-z
1/2-x,-y,1/2-z
1/4+x,3/4+y,1/2-z
1/2-x,3/4+y,1/4+z
1/4+x,-y,1/4+z
1/2+x,1/2+y,z
3/4-x,3/4-y,z
1/2+x,3/4-y,1/4-z
3/4-x,1/2+y,1/4-z
1/2-x,1/2-y,-z
1/4+x,1/4+y,-z
1/2-x,1/4+y,3/4+z
1/4+x,1/2-y,3/4+z
loop_
_atom_site_type_symbol
_atom_site_label
_atom_site_fract_x
_atom_site_fract_y
_atom_site_fract_z
Si Si1 0.460744 0.938104 0.348746
Si Si2 0.542648 0.349483 0.291281
Si Si3 0.049708 0.584819 0.819354
Si Si4 0.496532 0.682494 0.419165
Si Si5 0.593336 0.528503 0.466040
O O1 0.496801 0.875000 0.375000
O O2 0.375000 0.935900 0.375000
O O3 0.467033 0.940491 0.260326
O O4 0.488311 0.003691 0.372164
O O5 0.544409 0.375000 0.375000
O O6 0.554040 0.405952 0.235130
O O7 0.463579 0.314773 0.270032
O O8 0.598368 0.293612 0.272165
O O9 0.125000 0.625000 0.811229
O O10 0.993123 0.631861 0.855749
O O11 0.060524 0.534963 0.882595
O O12 0.577326 0.688693 0.459359
#
# Coordination Sequence:
#
# PCOD9514562 Si02
#       5
#    32  32  32  32  32
#     4  11  22  39  57  82 108 151 202 245 290 358
#     4  10  19  36  61  88 120 159 196 239 291 361
#     4   9  17  38  58  75 113 151 183 239 297 344
#     4  10  22  37  57  87 120 155 195 245 309 346
#     4   9  20  36  58  86 119 157 193 237 297 361
#
# _framework density 22.491147000000002
#
# number of rings (size 3 to 8) (size 9 to 14) (size 15 to 20)
#    0.000    2.200    2.000    3.000    0.000    3.200 
#    3.600    0.000    0.000    0.000    0.000    0.000 
#    0.000    0.000    0.000    0.000    0.000    0.000 
#
# Total GULP energy -222929.811311 kJ/mol
# GULP energy per Si atom -5573.245283 kJ/mol
# Density = 2.243996 g / cm^3
# Si number density = 22.491147 Si / 1000 Ang^3
#
#
#
# Elastic Constant Matrix: (Units=GPa)
#
#
# Indices 1 2 3 4 5 6 
#
# 1 25.8975 0.3813 -2.7068 0.0000 0.0000 0.0000
# 2 0.3813 121.5017 2.8448 0.0000 0.0000 0.0000
# 3 -2.7068 2.8448 75.3164 0.0000 0.0000 0.0000
# 4 0.0000 0.0000 0.0000 35.7495 0.0000 0.0000
# 5 0.0000 0.0000 0.0000 0.0000 5.8448 0.0000
# 6 0.0000 0.0000 0.0000 0.0000 0.0000 18.7069
#
#
#
# Elastic Compliance Matrix: (Units=1/GPa)
#
#
# Indices 1 2 3 4 5 6 
#
# 1 0.038762 -0.000154 0.001399 0.000000 0.000000 0.000000
# 2 -0.000154 0.008238 -0.000317 0.000000 0.000000 0.000000
# 3 0.001399 -0.000317 0.013340 0.000000 0.000000 0.000000
# 4 0.000000 0.000000 0.000000 0.027972 0.000000 0.000000
# 5 0.000000 0.000000 0.000000 0.000000 0.171094 0.000000
# 6 0.000000 0.000000 0.000000 0.000000 0.000000 0.053456
#
#
# Mechanical properties :
#
#
# Convention : Reuss Voigt Hill
#
# Bulk Modulus (GPa) = 16.07829 24.86157 20.46993
# Shear Modulus (GPa) = 15.07211 26.87333 20.97272
#
# Velocity S-wave (km/s) = 2.59151 3.46040 3.05698
# Velocity P-wave (km/s) = 4.01482 5.20036 4.64556
#
# Compressibility (1/GPa) = 0.06219565
#
# Stress axis : x y z
#
# Youngs Moduli (GPa) = 25.79830 121.38514 74.96503
#
# Poissons Ratio (x) = 0.01874 -0.10487
# Poissons Ratio (y) = 0.00398 0.02374
# Poissons Ratio (z) = -0.03609 0.03844
#
# Static dielectric constant tensor:
#      x y z
#    x 1.881060 0.000000 0.000000 
#    y 0.000000 1.903270 0.000000 
#    z 0.000000 0.000000 1.803300 
# 
# From -- ./inp_files/36311.got.cif
#   From: 2010.05.17/outbox.cif.g08.bks.cpg/sg70_19_cif.got.tgz:36311.got - 2010.06.03 15:57:51.
