data_PCOD9514808
_publ_section_title
;
Structure prediction by ZEFSAII (Michael W. Deem and Ramdas Pophale) SiO2 
 PCOD9514808
Probable space group: F D D D
;
_chemical_formula_sum "Si O2"
_cell_formula_units_Z 160
_cell_length_a 10.026388
_cell_length_b 30.403542
_cell_length_c 30.850321
_cell_angle_alpha 90.000000
_cell_angle_beta 90.000000
_cell_angle_gamma 90.000000
_cell_volume 9404.341165
_symmetry_space_group_name_H-M "F D D D"
_symmetry_group_IT_number 70
_space_group.IT_coordinate_system_code '2'
_symmetry_cell_setting 'orthorhombic'
loop_
_space_group_symop_operation_xyz
x,y,z
1/4-x,1/4-y,z
x,1/4-y,1/4-z
1/4-x,y,1/4-z
-x,-y,-z
3/4+x,3/4+y,-z
-x,3/4+y,3/4+z
3/4+x,-y,3/4+z
x,1/2+y,1/2+z
1/4-x,3/4-y,1/2+z
x,3/4-y,3/4-z
1/4-x,1/2+y,3/4-z
-x,1/2-y,1/2-z
3/4+x,1/4+y,1/2-z
-x,1/4+y,1/4+z
3/4+x,1/2-y,1/4+z
1/2+x,y,1/2+z
3/4-x,1/4-y,1/2+z
1/2+x,1/4-y,3/4-z
3/4-x,y,3/4-z
1/2-x,-y,1/2-z
1/4+x,3/4+y,1/2-z
1/2-x,3/4+y,1/4+z
1/4+x,-y,1/4+z
1/2+x,1/2+y,z
3/4-x,3/4-y,z
1/2+x,3/4-y,1/4-z
3/4-x,1/2+y,1/4-z
1/2-x,1/2-y,-z
1/4+x,1/4+y,-z
1/2-x,1/4+y,3/4+z
1/4+x,1/2-y,3/4+z
loop_
_atom_site_type_symbol
_atom_site_label
_atom_site_fract_x
_atom_site_fract_y
_atom_site_fract_z
Si Si1 0.593340 0.674879 0.675742
Si Si2 0.291767 0.049403 0.058148
Si Si3 0.625000 0.259466 0.625000
Si Si4 0.251683 0.196713 0.957071
Si Si5 0.523694 0.490262 0.267688
Si Si6 0.125000 0.625000 0.740529
O O1 0.625000 0.625000 0.689623
O O2 0.625000 0.679411 0.625000
O O3 0.435959 0.682461 0.680491
O O4 0.684549 0.708873 0.702775
O O5 0.222648 0.022915 0.097689
O O6 0.194662 0.088005 0.039730
O O7 0.310689 0.015098 0.018850
O O8 0.692864 0.291413 0.589921
O O9 0.110122 0.222379 0.958208
O O10 0.359719 0.215477 0.991168
O O11 0.226315 0.148687 0.976421
#
# Coordination Sequence:
#
# PCOD9514808 Si02
#       6
#    32  32  16  32  32  16
#     4  11  22  32  49  78 114 139 169 223 273 321
#     4  10  21  35  57  79 104 143 180 229 270 328
#     4  10  20  35  58  80 106 140 184 226 267 328
#     4   9  18  34  58  76 104 141 178 226 266 327
#     4   9  18  35  54  75 102 142 181 212 271 332
#     4  10  20  35  58  80 106 140 184 226 267 328
#
# _framework density 17.013418999999999
#
# number of rings (size 3 to 8) (size 9 to 14) (size 15 to 20)
#    0.000    2.200    0.000    4.200    0.000    3.600 
#    0.000    0.000   35.200    0.000    0.000    0.000 
#    0.000    0.000    0.000    0.000    0.000    0.000 
#
# Total GULP energy -222747.932286 kJ/mol
# GULP energy per Si atom -5568.698307 kJ/mol
# Density = 1.697470 g / cm^3
# Si number density = 17.013419 Si / 1000 Ang^3
#
#
#
# Elastic Constant Matrix: (Units=GPa)
#
#
# Indices 1 2 3 4 5 6 
#
# 1 70.2016 4.8785 24.7735 0.0000 0.0000 0.0000
# 2 4.8785 37.3857 13.6915 0.0000 0.0000 0.0000
# 3 24.7735 13.6915 66.6969 0.0000 0.0000 0.0000
# 4 0.0000 0.0000 0.0000 20.2572 0.0000 0.0000
# 5 0.0000 0.0000 0.0000 0.0000 5.2814 0.0000
# 6 0.0000 0.0000 0.0000 0.0000 0.0000 16.6717
#
#
#
# Elastic Compliance Matrix: (Units=1/GPa)
#
#
# Indices 1 2 3 4 5 6 
#
# 1 0.016394 0.000098 -0.006109 0.000000 0.000000 0.000000
# 2 0.000098 0.028923 -0.005974 0.000000 0.000000 0.000000
# 3 -0.006109 -0.005974 0.018489 0.000000 0.000000 0.000000
# 4 0.000000 0.000000 0.000000 0.049365 0.000000 0.000000
# 5 0.000000 0.000000 0.000000 0.000000 0.189344 0.000000
# 6 0.000000 0.000000 0.000000 0.000000 0.000000 0.059982
#
#
# Mechanical properties :
#
#
# Convention : Reuss Voigt Hill
#
# Bulk Modulus (GPa) = 25.10316 28.99682 27.04999
# Shear Modulus (GPa) = 12.50796 17.17145 14.83970
#
# Velocity S-wave (km/s) = 2.71437 3.18038 2.95657
# Velocity P-wave (km/s) = 4.96091 5.52873 5.25250
#
# Compressibility (1/GPa) = 0.03983562
#
# Stress axis : x y z
#
# Youngs Moduli (GPa) = 60.99868 34.57443 54.08705
#
# Poissons Ratio (x) = -0.00339 0.33044
# Poissons Ratio (y) = -0.00599 0.32310
# Poissons Ratio (z) = 0.37266 0.20654
#
# Static dielectric constant tensor:
#      x y z
#    x 1.584870 0.000000 0.000000 
#    y 0.000000 1.597110 0.000000 
#    z 0.000000 0.000000 1.569210 
# 
# From -- ./inp_files/12346.got.cif
#   From: 2010.05.17/outbox.cif.g08.bks.cpg/sg70_7_cif.got.tgz:12346.got - 2010.06.03 15:57:51.
