data_PCOD9514342
_publ_section_title
;
Structure prediction by ZEFSAII (Michael W. Deem and Ramdas Pophale) SiO2 
 PCOD9514342
Probable space group: F D D D
;
_chemical_formula_sum "Si O2"
_cell_formula_units_Z 160
_cell_length_a 15.489330
_cell_length_b 19.622469
_cell_length_c 24.864925
_cell_angle_alpha 90.000000
_cell_angle_beta 90.000000
_cell_angle_gamma 90.000000
_cell_volume 7557.417897
_symmetry_space_group_name_H-M "F D D D"
_symmetry_group_IT_number 70
_space_group.IT_coordinate_system_code '2'
_symmetry_cell_setting 'orthorhombic'
loop_
_space_group_symop_operation_xyz
x,y,z
1/4-x,1/4-y,z
x,1/4-y,1/4-z
1/4-x,y,1/4-z
-x,-y,-z
3/4+x,3/4+y,-z
-x,3/4+y,3/4+z
3/4+x,-y,3/4+z
x,1/2+y,1/2+z
1/4-x,3/4-y,1/2+z
x,3/4-y,3/4-z
1/4-x,1/2+y,3/4-z
-x,1/2-y,1/2-z
3/4+x,1/4+y,1/2-z
-x,1/4+y,1/4+z
3/4+x,1/2-y,1/4+z
1/2+x,y,1/2+z
3/4-x,1/4-y,1/2+z
1/2+x,1/4-y,3/4-z
3/4-x,y,3/4-z
1/2-x,-y,1/2-z
1/4+x,3/4+y,1/2-z
1/2-x,3/4+y,1/4+z
1/4+x,-y,1/4+z
1/2+x,1/2+y,z
3/4-x,3/4-y,z
1/2+x,3/4-y,1/4-z
3/4-x,1/2+y,1/4-z
1/2-x,1/2-y,-z
1/4+x,1/4+y,-z
1/2-x,1/4+y,3/4+z
1/4+x,1/2-y,3/4+z
loop_
_atom_site_type_symbol
_atom_site_label
_atom_site_fract_x
_atom_site_fract_y
_atom_site_fract_z
Si Si1 0.076358 0.711665 0.281074
Si Si2 0.036668 0.153662 0.989842
Si Si3 0.025581 0.917842 0.627873
Si Si4 0.132745 0.351562 0.817805
Si Si5 0.514446 0.542546 0.703252
O O1 0.119017 0.770766 0.317223
O O2 0.148523 0.693464 0.236687
O O3 0.000000 0.750000 0.250000
O O4 0.028015 0.661570 0.322759
O O5 0.125000 0.125000 0.011756
O O6 0.037772 0.236077 0.987824
O O7 0.022375 0.132263 0.927629
O O8 0.951805 0.132619 0.021935
O O9 0.125000 0.895176 0.625000
O O10 0.030932 0.997420 0.649161
O O11 0.166453 0.375000 0.875000
O O12 0.043322 0.391823 0.807433
#
# Coordination Sequence:
#
# PCOD9514342 Si02
#       5
#    32  32  32  32  32
#     4  11  20  37  56  85 123 152 195 249 296 360
#     4   9  21  39  56  82 117 153 195 249 299 351
#     4  10  18  38  57  79 120 153 188 242 296 349
#     4  11  20  37  63  84 114 156 201 249 297 355
#     4   9  21  34  54  88 111 150 196 246 294 354
#
# _framework density 21.171251999999999
#
# number of rings (size 3 to 8) (size 9 to 14) (size 15 to 20)
#    1.200    0.800    4.000    0.000    0.000    2.000 
#    7.200    2.000    0.000    0.000    0.000    0.000 
#    0.000    0.000    0.000    0.000    0.000    0.000 
#
# Total GULP energy -222941.159692 kJ/mol
# GULP energy per Si atom -5573.528992 kJ/mol
# Density = 2.112306 g / cm^3
# Si number density = 21.171252 Si / 1000 Ang^3
#
#
#
# Elastic Constant Matrix: (Units=GPa)
#
#
# Indices 1 2 3 4 5 6 
#
# 1 94.7800 -3.8536 11.2254 0.0000 0.0000 0.0000
# 2 -3.8536 33.5340 -19.8506 0.0000 0.0000 0.0000
# 3 11.2254 -19.8506 85.6564 0.0000 0.0000 0.0000
# 4 0.0000 0.0000 0.0000 23.8169 0.0000 0.0000
# 5 0.0000 0.0000 0.0000 0.0000 29.9694 0.0000
# 6 0.0000 0.0000 0.0000 0.0000 0.0000 20.2165
#
#
#
# Elastic Compliance Matrix: (Units=1/GPa)
#
#
# Indices 1 2 3 4 5 6 
#
# 1 0.010723 0.000464 -0.001298 0.000000 0.000000 0.000000
# 2 0.000464 0.034582 0.007953 0.000000 0.000000 0.000000
# 3 -0.001298 0.007953 0.013688 0.000000 0.000000 0.000000
# 4 0.000000 0.000000 0.000000 0.041987 0.000000 0.000000
# 5 0.000000 0.000000 0.000000 0.000000 0.033367 0.000000
# 6 0.000000 0.000000 0.000000 0.000000 0.000000 0.049465
#
#
# Mechanical properties :
#
#
# Convention : Reuss Voigt Hill
#
# Bulk Modulus (GPa) = 13.65511 21.00140 17.32826
# Shear Modulus (GPa) = 25.77542 29.89718 27.83630
#
# Velocity S-wave (km/s) = 3.49302 3.76195 3.62997
# Velocity P-wave (km/s) = 4.76781 5.36759 5.07656
#
# Compressibility (1/GPa) = 0.07323264
#
# Stress axis : x y z
#
# Youngs Moduli (GPa) = 93.25472 28.91682 73.05767
#
# Poissons Ratio (x) = -0.01342 0.09481
# Poissons Ratio (y) = -0.04328 -0.58106
# Poissons Ratio (z) = 0.12102 -0.22999
#
# Static dielectric constant tensor:
#      x y z
#    x 1.741620 0.000000 0.000000 
#    y 0.000000 1.807540 0.000000 
#    z 0.000000 0.000000 1.776310 
# 
# From -- ./inp_files/51122.got.cif
#   From: 2010.05.17/outbox.cif.g08.bks.cpg/sg70_26_cif.got.tgz:51122.got - 2010.06.03 15:57:51.
