data_PCOD9514355
_publ_section_title
;
Structure prediction by ZEFSAII (Michael W. Deem and Ramdas Pophale) SiO2 
 PCOD9514355
Probable space group: F D D D
;
_chemical_formula_sum "Si O2"
_cell_formula_units_Z 240
_cell_length_a 20.273959
_cell_length_b 19.153585
_cell_length_c 27.080133
_cell_angle_alpha 90.000000
_cell_angle_beta 90.000000
_cell_angle_gamma 90.000000
_cell_volume 10515.730085
_symmetry_space_group_name_H-M "F D D D"
_symmetry_group_IT_number 70
_space_group.IT_coordinate_system_code '2'
_symmetry_cell_setting 'orthorhombic'
loop_
_space_group_symop_operation_xyz
x,y,z
1/4-x,1/4-y,z
x,1/4-y,1/4-z
1/4-x,y,1/4-z
-x,-y,-z
3/4+x,3/4+y,-z
-x,3/4+y,3/4+z
3/4+x,-y,3/4+z
x,1/2+y,1/2+z
1/4-x,3/4-y,1/2+z
x,3/4-y,3/4-z
1/4-x,1/2+y,3/4-z
-x,1/2-y,1/2-z
3/4+x,1/4+y,1/2-z
-x,1/4+y,1/4+z
3/4+x,1/2-y,1/4+z
1/2+x,y,1/2+z
3/4-x,1/4-y,1/2+z
1/2+x,1/4-y,3/4-z
3/4-x,y,3/4-z
1/2-x,-y,1/2-z
1/4+x,3/4+y,1/2-z
1/2-x,3/4+y,1/4+z
1/4+x,-y,1/4+z
1/2+x,1/2+y,z
3/4-x,3/4-y,z
1/2+x,3/4-y,1/4-z
3/4-x,1/2+y,1/4-z
1/2-x,1/2-y,-z
1/4+x,1/4+y,-z
1/2-x,1/4+y,3/4+z
1/4+x,1/2-y,3/4+z
loop_
_atom_site_type_symbol
_atom_site_label
_atom_site_fract_x
_atom_site_fract_y
_atom_site_fract_z
Si Si1 0.200326 0.378862 0.259672
Si Si2 0.093733 0.451933 0.079876
Si Si3 0.482580 0.703282 0.646340
Si Si4 0.833502 0.305855 0.759142
Si Si5 0.353181 0.272270 0.144497
Si Si6 0.300610 0.169370 0.022100
Si Si7 0.465135 0.125000 0.625000
Si Si8 0.810773 0.331275 0.546515
O O1 0.202518 0.403532 0.203336
O O2 0.219198 0.442337 0.295481
O O3 0.256188 0.320696 0.267991
O O4 0.125448 0.358526 0.272542
O O5 0.125000 0.410090 0.125000
O O6 0.053345 0.512750 0.107698
O O7 0.140162 0.490928 0.040427
O O8 0.476549 0.625000 0.625000
O O9 0.428530 0.758374 0.627908
O O10 0.875000 0.375000 0.773979
O O11 0.845834 0.295187 0.700783
O O12 0.324669 0.194426 0.138768
O O13 0.316295 0.321261 0.105462
O O14 0.258289 0.147018 0.070896
O O15 0.312114 0.252561 0.024578
O O16 0.258758 0.143016 0.975309
O O17 0.875000 0.375000 0.530925
#
# Coordination Sequence:
#
# PCOD9514355 Si02
#       8
#    32  32  32  32  32  32  16  32
#     4  12  24  42  65  95 133 181 228 282 339 418
#     4  12  27  41  61  97 143 179 224 287 345 411
#     4  12  21  40  67  93 127 180 234 271 332 410
#     4  12  24  40  63  93 138 180 227 284 340 402
#     4  11  21  39  66  96 123 178 227 280 334 415
#     4  10  22  41  67  94 131 173 225 286 344 418
#     4  10  18  38  65  90 123 170 224 270 334 408
#     4  10  23  42  66  99 131 164 224 296 346 407
#
# _framework density 22.822951
#
# number of rings (size 3 to 8) (size 9 to 14) (size 15 to 20)
#    0.000    0.800    4.667    3.200    0.000    4.267 
#    0.000    0.333    0.000    4.800    0.000    0.000 
#    0.000    0.000    0.000    0.000    0.000    0.000 
#
# Total GULP energy -335116.710938 kJ/mol
# GULP energy per Si atom -5585.278516 kJ/mol
# Density = 2.277101 g / cm^3
# Si number density = 22.822951 Si / 1000 Ang^3
#
#
#
# Elastic Constant Matrix: (Units=GPa)
#
#
# Indices 1 2 3 4 5 6 
#
# 1 79.8901 -0.7852 27.3947 0.0000 0.0000 0.0000
# 2 -0.7852 50.7775 2.3784 0.0000 0.0000 0.0000
# 3 27.3947 2.3784 103.7386 0.0000 0.0000 0.0000
# 4 0.0000 0.0000 0.0000 30.5200 0.0000 0.0000
# 5 0.0000 0.0000 0.0000 0.0000 32.0858 0.0000
# 6 0.0000 0.0000 0.0000 0.0000 0.0000 19.8889
#
#
#
# Elastic Compliance Matrix: (Units=1/GPa)
#
#
# Indices 1 2 3 4 5 6 
#
# 1 0.013771 0.000384 -0.003645 0.000000 0.000000 0.000000
# 2 0.000384 0.019726 -0.000554 0.000000 0.000000 0.000000
# 3 -0.003645 -0.000554 0.010615 0.000000 0.000000 0.000000
# 4 0.000000 0.000000 0.000000 0.032765 0.000000 0.000000
# 5 0.000000 0.000000 0.000000 0.000000 0.031166 0.000000
# 6 0.000000 0.000000 0.000000 0.000000 0.000000 0.050279
#
#
# Mechanical properties :
#
#
# Convention : Reuss Voigt Hill
#
# Bulk Modulus (GPa) = 27.41145 32.48687 29.94916
# Shear Modulus (GPa) = 28.07199 30.19348 29.13274
#
# Velocity S-wave (km/s) = 3.51093 3.64118 3.57664
# Velocity P-wave (km/s) = 5.33592 5.65179 5.49612
#
# Compressibility (1/GPa) = 0.03648111
#
# Stress axis : x y z
#
# Youngs Moduli (GPa) = 72.61645 50.69544 94.20677
#
# Poissons Ratio (x) = -0.01945 0.34342
# Poissons Ratio (y) = -0.02786 0.05215
# Poissons Ratio (z) = 0.26471 0.02806
#
# Static dielectric constant tensor:
#      x y z
#    x 1.897560 0.000000 0.000000 
#    y 0.000000 1.840740 0.000000 
#    z 0.000000 0.000000 1.932080 
# 
# From -- ./inp_files/60562.got.cif
#   From: 2010.05.17/outbox.cif.g08.bks.cpg/sg70_31_cif.got.tgz:60562.got - 2010.06.03 15:57:51.
