data_PCOD9514946
_publ_section_title
;
Structure prediction by ZEFSAII (Michael W. Deem and Ramdas Pophale) SiO2 
 PCOD9514946
Probable space group: F D D D
;
_chemical_formula_sum "Si O2"
_cell_formula_units_Z 160
_cell_length_a 28.147460
_cell_length_b 16.417476
_cell_length_c 16.584709
_cell_angle_alpha 90.000000
_cell_angle_beta 90.000000
_cell_angle_gamma 90.000000
_cell_volume 7663.964006
_symmetry_space_group_name_H-M "F D D D"
_symmetry_group_IT_number 70
_space_group.IT_coordinate_system_code '2'
_symmetry_cell_setting 'orthorhombic'
loop_
_space_group_symop_operation_xyz
x,y,z
1/4-x,1/4-y,z
x,1/4-y,1/4-z
1/4-x,y,1/4-z
-x,-y,-z
3/4+x,3/4+y,-z
-x,3/4+y,3/4+z
3/4+x,-y,3/4+z
x,1/2+y,1/2+z
1/4-x,3/4-y,1/2+z
x,3/4-y,3/4-z
1/4-x,1/2+y,3/4-z
-x,1/2-y,1/2-z
3/4+x,1/4+y,1/2-z
-x,1/4+y,1/4+z
3/4+x,1/2-y,1/4+z
1/2+x,y,1/2+z
3/4-x,1/4-y,1/2+z
1/2+x,1/4-y,3/4-z
3/4-x,y,3/4-z
1/2-x,-y,1/2-z
1/4+x,3/4+y,1/2-z
1/2-x,3/4+y,1/4+z
1/4+x,-y,1/4+z
1/2+x,1/2+y,z
3/4-x,3/4-y,z
1/2+x,3/4-y,1/4-z
3/4-x,1/2+y,1/4-z
1/2-x,1/2-y,-z
1/4+x,1/4+y,-z
1/2-x,1/4+y,3/4+z
1/4+x,1/2-y,3/4+z
loop_
_atom_site_type_symbol
_atom_site_label
_atom_site_fract_x
_atom_site_fract_y
_atom_site_fract_z
Si Si1 0.446441 0.143245 0.791757
Si Si2 0.016368 0.422990 0.053732
Si Si3 0.654075 0.921874 0.457758
Si Si4 0.786869 0.924591 0.802602
Si Si5 0.923936 0.396290 0.146075
O O1 0.455164 0.074284 0.859667
O O2 0.392618 0.156704 0.762838
O O3 0.463362 0.231207 0.826585
O O4 0.485121 0.136320 0.719445
O O5 0.966652 0.387929 0.084695
O O6 0.050221 0.368184 0.999357
O O7 0.000000 0.500000 0.000000
O O8 0.643939 0.875000 0.375000
O O9 0.668047 0.735941 0.315454
O O10 0.809024 0.875000 0.875000
O O11 0.816620 0.913667 0.720988
O O12 0.875000 0.375000 0.104259
#
# Coordination Sequence:
#
# PCOD9514946 Si02
#       5
#    32  32  32  32  32
#     4  10  22  39  64  98 133 175 228 283 349 424
#     4  11  24  44  64  94 140 188 231 280 347 436
#     4  12  23  43  70  96 133 183 236 292 363 427
#     4  10  20  37  63 100 135 166 214 284 356 415
#     4  11  23  44  67  98 138 175 233 294 362 427
#
# _framework density 20.876925
#
# number of rings (size 3 to 8) (size 9 to 14) (size 15 to 20)
#    0.000    1.200    4.000    2.400    0.000    0.400 
#    7.200    0.000    0.000    0.000    0.000    0.000 
#    0.000    0.000    0.000    0.000    0.000    0.000 
#
# Total GULP energy -223084.757005 kJ/mol
# GULP energy per Si atom -5577.118925 kJ/mol
# Density = 2.082941 g / cm^3
# Si number density = 20.876925 Si / 1000 Ang^3
#
#
#
# Elastic Constant Matrix: (Units=GPa)
#
#
# Indices 1 2 3 4 5 6 
#
# 1 162.0326 37.3405 37.7547 0.0000 0.0000 0.0000
# 2 37.3405 67.1767 33.1179 0.0000 0.0000 0.0000
# 3 37.7547 33.1179 92.7771 0.0000 0.0000 0.0000
# 4 0.0000 0.0000 0.0000 23.9936 0.0000 0.0000
# 5 0.0000 0.0000 0.0000 0.0000 27.8899 0.0000
# 6 0.0000 0.0000 0.0000 0.0000 0.0000 20.9383
#
#
#
# Elastic Compliance Matrix: (Units=1/GPa)
#
#
# Indices 1 2 3 4 5 6 
#
# 1 0.007332 -0.003161 -0.001855 0.000000 0.000000 0.000000
# 2 -0.003161 0.019428 -0.005649 0.000000 0.000000 0.000000
# 3 -0.001855 -0.005649 0.013550 0.000000 0.000000 0.000000
# 4 0.000000 0.000000 0.000000 0.041678 0.000000 0.000000
# 5 0.000000 0.000000 0.000000 0.000000 0.035855 0.000000
# 6 0.000000 0.000000 0.000000 0.000000 0.000000 0.047759
#
#
# Mechanical properties :
#
#
# Convention : Reuss Voigt Hill
#
# Bulk Modulus (GPa) = 52.68720 59.82362 56.25541
# Shear Modulus (GPa) = 25.87191 28.81591 27.34391
#
# Velocity S-wave (km/s) = 3.52413 3.71924 3.62300
# Velocity P-wave (km/s) = 6.46925 6.86740 6.67130
#
# Compressibility (1/GPa) = 0.01897994
#
# Stress axis : x y z
#
# Youngs Moduli (GPa) = 136.38107 51.47214 73.80088
#
# Poissons Ratio (x) = 0.16270 0.13694
# Poissons Ratio (y) = 0.43110 0.41688
# Poissons Ratio (z) = 0.25305 0.29075
#
# Static dielectric constant tensor:
#      x y z
#    x 1.777920 0.000000 0.000000 
#    y 0.000000 1.829440 0.000000 
#    z 0.000000 0.000000 1.764430 
# 
# From -- ./inp_files/38420.got.cif
#   From: 2010.05.17/outbox.cif.g08.bks.cpg/sg70_20_cif.got.tgz:38420.got - 2010.06.03 15:57:51.
