data_PCOD9514246
_publ_section_title
;
Structure prediction by ZEFSAII (Michael W. Deem and Ramdas Pophale) SiO2 
 PCOD9514246
Probable space group: F D D D
;
_chemical_formula_sum "Si O2"
_cell_formula_units_Z 176
_cell_length_a 27.688000
_cell_length_b 18.472529
_cell_length_c 19.388186
_cell_angle_alpha 90.000000
_cell_angle_beta 90.000000
_cell_angle_gamma 90.000000
_cell_volume 9916.424754
_symmetry_space_group_name_H-M "F D D D"
_symmetry_group_IT_number 70
_space_group.IT_coordinate_system_code '2'
_symmetry_cell_setting 'orthorhombic'
loop_
_space_group_symop_operation_xyz
x,y,z
1/4-x,1/4-y,z
x,1/4-y,1/4-z
1/4-x,y,1/4-z
-x,-y,-z
3/4+x,3/4+y,-z
-x,3/4+y,3/4+z
3/4+x,-y,3/4+z
x,1/2+y,1/2+z
1/4-x,3/4-y,1/2+z
x,3/4-y,3/4-z
1/4-x,1/2+y,3/4-z
-x,1/2-y,1/2-z
3/4+x,1/4+y,1/2-z
-x,1/4+y,1/4+z
3/4+x,1/2-y,1/4+z
1/2+x,y,1/2+z
3/4-x,1/4-y,1/2+z
1/2+x,1/4-y,3/4-z
3/4-x,y,3/4-z
1/2-x,-y,1/2-z
1/4+x,3/4+y,1/2-z
1/2-x,3/4+y,1/4+z
1/4+x,-y,1/4+z
1/2+x,1/2+y,z
3/4-x,3/4-y,z
1/2+x,3/4-y,1/4-z
3/4-x,1/2+y,1/4-z
1/2-x,1/2-y,-z
1/4+x,1/4+y,-z
1/2-x,1/4+y,3/4+z
1/4+x,1/2-y,3/4+z
loop_
_atom_site_type_symbol
_atom_site_label
_atom_site_fract_x
_atom_site_fract_y
_atom_site_fract_z
Si Si1 0.648602 0.520520 0.366719
Si Si2 0.964756 0.773726 0.137069
Si Si3 0.778596 0.448635 0.478557
Si Si4 0.769655 0.375000 0.875000
Si Si5 0.794553 0.125000 0.625000
Si Si6 0.778963 0.908152 0.525937
Si Si7 0.625000 0.625000 0.245360
O O1 0.593052 0.516101 0.389312
O O2 0.672167 0.442627 0.355155
O O3 0.678647 0.560685 0.426117
O O4 0.649953 0.567102 0.296769
O O5 0.983511 0.830097 0.193234
O O6 0.987701 0.694967 0.143168
O O7 0.975770 0.806846 0.061320
O O8 0.739697 0.401715 0.437099
O O9 0.764603 0.533320 0.467148
O O10 0.831961 0.419395 0.458570
O O11 0.794929 0.351603 0.803592
#
# Coordination Sequence:
#
# PCOD9514246 Si02
#       7
#    32  32  32  16  16  32  16
#     4  10  18  34  57  75 105 145 185 213 264 324
#     4  10  18  36  55  79 109 147 180 220 264 330
#     4   9  20  33  54  79 108 138 184 221 269 327
#     4  10  21  30  55  86 107 135 182 227 274 311
#     4  10  21  33  52  88 105 135 184 234 263 311
#     4  10  18  34  53  81 107 141 179 224 268 321
#     4  10  18  37  56  75 104 152 178 218 274 329
#
# _framework density 17.748332000000001
#
# number of rings (size 3 to 8) (size 9 to 14) (size 15 to 20)
#    0.000    2.182    3.636    1.091    0.000    1.091 
#    0.000    1.818    0.000    0.000    4.727    0.000 
#    0.000    0.000    0.000    0.000    0.000    0.000 
#
# Total GULP energy -245111.594738 kJ/mol
# GULP energy per Si atom -5570.718062 kJ/mol
# Density = 1.770794 g / cm^3
# Si number density = 17.748332 Si / 1000 Ang^3
#
#
#
# Elastic Constant Matrix: (Units=GPa)
#
#
# Indices 1 2 3 4 5 6 
#
# 1 69.1635 43.9694 34.9635 0.0000 0.0000 0.0000
# 2 43.9694 136.8203 45.8680 0.0000 0.0000 0.0000
# 3 34.9635 45.8680 58.0054 0.0000 0.0000 0.0000
# 4 0.0000 0.0000 0.0000 23.9691 0.0000 0.0000
# 5 0.0000 0.0000 0.0000 0.0000 27.0385 0.0000
# 6 0.0000 0.0000 0.0000 0.0000 0.0000 14.9764
#
#
#
# Elastic Compliance Matrix: (Units=1/GPa)
#
#
# Indices 1 2 3 4 5 6 
#
# 1 0.022007 -0.003572 -0.010440 0.000000 0.000000 0.000000
# 2 -0.003572 0.010525 -0.006170 0.000000 0.000000 0.000000
# 3 -0.010440 -0.006170 0.028411 0.000000 0.000000 0.000000
# 4 0.000000 0.000000 0.000000 0.041720 0.000000 0.000000
# 5 0.000000 0.000000 0.000000 0.000000 0.036984 0.000000
# 6 0.000000 0.000000 0.000000 0.000000 0.000000 0.066772
#
#
# Mechanical properties :
#
#
# Convention : Reuss Voigt Hill
#
# Bulk Modulus (GPa) = 48.59217 57.06564 52.82890
# Shear Modulus (GPa) = 19.71261 22.47602 21.09431
#
# Velocity S-wave (km/s) = 3.33629 3.56247 3.45124
# Velocity P-wave (km/s) = 6.50223 7.01029 6.76103
#
# Compressibility (1/GPa) = 0.02057945
#
# Stress axis : x y z
#
# Youngs Moduli (GPa) = 45.43933 95.01016 35.19709
#
# Poissons Ratio (x) = 0.33941 0.36747
# Poissons Ratio (y) = 0.16233 0.21715
# Poissons Ratio (z) = 0.47440 0.58617
#
# Static dielectric constant tensor:
#      x y z
#    x 1.597040 0.000000 0.000000 
#    y 0.000000 1.622940 0.000000 
#    z 0.000000 0.000000 1.621300 
# 
# From -- ./inp_files/35298.got.cif
#   From: 2010.05.17/outbox.cif.g08.bks.cpg/sg70_18_cif.got.tgz:35298.got - 2010.06.03 15:57:51.
