data_PCOD9514672
_publ_section_title
;
Structure prediction by ZEFSAII (Michael W. Deem and Ramdas Pophale) SiO2 
 PCOD9514672
Probable space group: F D D D
;
_chemical_formula_sum "Si O2"
_cell_formula_units_Z 168
_cell_length_a 25.895263
_cell_length_b 13.367611
_cell_length_c 26.885212
_cell_angle_alpha 90.000000
_cell_angle_beta 90.000000
_cell_angle_gamma 90.000000
_cell_volume 9306.525906
_symmetry_space_group_name_H-M "F D D D"
_symmetry_group_IT_number 70
_space_group.IT_coordinate_system_code '2'
_symmetry_cell_setting 'orthorhombic'
loop_
_space_group_symop_operation_xyz
x,y,z
1/4-x,1/4-y,z
x,1/4-y,1/4-z
1/4-x,y,1/4-z
-x,-y,-z
3/4+x,3/4+y,-z
-x,3/4+y,3/4+z
3/4+x,-y,3/4+z
x,1/2+y,1/2+z
1/4-x,3/4-y,1/2+z
x,3/4-y,3/4-z
1/4-x,1/2+y,3/4-z
-x,1/2-y,1/2-z
3/4+x,1/4+y,1/2-z
-x,1/4+y,1/4+z
3/4+x,1/2-y,1/4+z
1/2+x,y,1/2+z
3/4-x,1/4-y,1/2+z
1/2+x,1/4-y,3/4-z
3/4-x,y,3/4-z
1/2-x,-y,1/2-z
1/4+x,3/4+y,1/2-z
1/2-x,3/4+y,1/4+z
1/4+x,-y,1/4+z
1/2+x,1/2+y,z
3/4-x,3/4-y,z
1/2+x,3/4-y,1/4-z
3/4-x,1/2+y,1/4-z
1/2-x,1/2-y,-z
1/4+x,1/4+y,-z
1/2-x,1/4+y,3/4+z
1/4+x,1/2-y,3/4+z
loop_
_atom_site_type_symbol
_atom_site_label
_atom_site_fract_x
_atom_site_fract_y
_atom_site_fract_z
Si Si1 0.950593 0.125000 0.125000
Si Si2 0.980667 0.635152 0.253809
Si Si3 0.487642 0.905593 0.634578
Si Si4 0.449253 0.733727 0.940381
Si Si5 0.133974 0.413431 0.971287
Si Si6 0.125000 0.625000 0.125000
Si Si7 0.625000 0.125000 0.329292
O O1 0.984163 0.225747 0.124834
O O2 0.914025 0.119013 0.076146
O O3 0.922702 0.623727 0.233434
O O4 0.000000 0.750000 0.250000
O O5 0.986159 0.609008 0.311724
O O6 0.016358 0.561072 0.222087
O O7 0.516805 0.837133 0.594985
O O8 0.427600 0.872237 0.639439
O O9 0.410438 0.802427 0.908395
O O10 0.418327 0.664994 0.979364
O O11 0.126888 0.528783 0.955470
#
# Coordination Sequence:
#
# PCOD9514672 Si02
#       7
#    16  32  32  32  32   8  16
#     4  10  24  45  62  89 130 173 217 278 304 392
#     4  12  22  38  64  96 129 168 210 272 338 388
#     4  11  24  41  65  91 132 170 221 268 326 386
#     4  12  24  41  65  99 129 174 209 268 337 391
#     4  11  22  39  64  90 129 167 219 263 330 382
#     4  12  26  38  64 110 140 156 210 278 336 410
#     4  10  19  40  60  93 128 165 208 279 314 384
#
# _framework density 18.051849000000001
#
# number of rings (size 3 to 8) (size 9 to 14) (size 15 to 20)
#    0.000    0.762    5.714    4.000    5.333    0.762 
#    0.000    0.000    0.000    4.000    0.000    0.000 
#    0.000    0.000    0.000    0.000    0.000    0.000 
#
# Total GULP energy -234653.737356 kJ/mol
# GULP energy per Si atom -5586.993747 kJ/mol
# Density = 1.801076 g / cm^3
# Si number density = 18.051849 Si / 1000 Ang^3
#
#
#
# Elastic Constant Matrix: (Units=GPa)
#
#
# Indices 1 2 3 4 5 6 
#
# 1 97.2668 18.6521 45.4169 0.0000 0.0000 0.0000
# 2 18.6521 70.4832 32.7554 0.0000 0.0000 0.0000
# 3 45.4169 32.7554 115.9506 0.0000 0.0000 0.0000
# 4 0.0000 0.0000 0.0000 33.7127 0.0000 0.0000
# 5 0.0000 0.0000 0.0000 0.0000 34.8337 0.0000
# 6 0.0000 0.0000 0.0000 0.0000 0.0000 32.4470
#
#
#
# Elastic Compliance Matrix: (Units=1/GPa)
#
#
# Indices 1 2 3 4 5 6 
#
# 1 0.012670 -0.001205 -0.004623 0.000000 0.000000 0.000000
# 2 -0.001205 0.016446 -0.004174 0.000000 0.000000 0.000000
# 3 -0.004623 -0.004174 0.011614 0.000000 0.000000 0.000000
# 4 0.000000 0.000000 0.000000 0.029662 0.000000 0.000000
# 5 0.000000 0.000000 0.000000 0.000000 0.028708 0.000000
# 6 0.000000 0.000000 0.000000 0.000000 0.000000 0.030819
#
#
# Mechanical properties :
#
#
# Convention : Reuss Voigt Hill
#
# Bulk Modulus (GPa) = 48.24373 53.03884 50.64128
# Shear Modulus (GPa) = 31.88103 32.65709 32.26906
#
# Velocity S-wave (km/s) = 4.20704 4.25793 4.23256
# Velocity P-wave (km/s) = 7.09803 7.32247 7.21112
#
# Compressibility (1/GPa) = 0.02072808
#
# Stress axis : x y z
#
# Youngs Moduli (GPa) = 78.92370 60.80349 86.10180
#
# Poissons Ratio (x) = 0.07325 0.39801
# Poissons Ratio (y) = 0.09509 0.35940
# Poissons Ratio (z) = 0.36483 0.25380
#
# Static dielectric constant tensor:
#      x y z
#    x 1.658640 0.000000 0.000000 
#    y 0.000000 1.605440 0.000000 
#    z 0.000000 0.000000 1.621790 
# 
# From -- ./inp_files/28792.got.cif
#   From: 2010.05.17/outbox.cif.g08.bks.cpg/sg70_15_cif.got.tgz:28792.got - 2010.06.03 15:57:51.
