data_PCOD9514228
_publ_section_title
;
Structure prediction by ZEFSAII (Michael W. Deem and Ramdas Pophale) SiO2 
 PCOD9514228
Probable space group: F D D D
;
_chemical_formula_sum "Si O2"
_cell_formula_units_Z 176
_cell_length_a 12.760469
_cell_length_b 34.344682
_cell_length_c 22.549320
_cell_angle_alpha 90.000000
_cell_angle_beta 90.000000
_cell_angle_gamma 90.000000
_cell_volume 9882.335324
_symmetry_space_group_name_H-M "F D D D"
_symmetry_group_IT_number 70
_space_group.IT_coordinate_system_code '2'
_symmetry_cell_setting 'orthorhombic'
loop_
_space_group_symop_operation_xyz
x,y,z
1/4-x,1/4-y,z
x,1/4-y,1/4-z
1/4-x,y,1/4-z
-x,-y,-z
3/4+x,3/4+y,-z
-x,3/4+y,3/4+z
3/4+x,-y,3/4+z
x,1/2+y,1/2+z
1/4-x,3/4-y,1/2+z
x,3/4-y,3/4-z
1/4-x,1/2+y,3/4-z
-x,1/2-y,1/2-z
3/4+x,1/4+y,1/2-z
-x,1/4+y,1/4+z
3/4+x,1/2-y,1/4+z
1/2+x,y,1/2+z
3/4-x,1/4-y,1/2+z
1/2+x,1/4-y,3/4-z
3/4-x,y,3/4-z
1/2-x,-y,1/2-z
1/4+x,3/4+y,1/2-z
1/2-x,3/4+y,1/4+z
1/4+x,-y,1/4+z
1/2+x,1/2+y,z
3/4-x,3/4-y,z
1/2+x,3/4-y,1/4-z
3/4-x,1/2+y,1/4-z
1/2-x,1/2-y,-z
1/4+x,1/4+y,-z
1/2-x,1/4+y,3/4+z
1/4+x,1/2-y,3/4+z
loop_
_atom_site_type_symbol
_atom_site_label
_atom_site_fract_x
_atom_site_fract_y
_atom_site_fract_z
Si Si1 0.629190 0.446530 0.294929
Si Si2 0.637263 0.671236 0.054192
Si Si3 0.754696 0.378180 0.802814
Si Si4 0.625000 0.756613 0.625000
Si Si5 0.684245 0.288649 0.929203
Si Si6 0.509326 0.480350 0.738988
O O1 0.750395 0.437725 0.283016
O O2 0.563046 0.407847 0.280403
O O3 0.619714 0.453246 0.365868
O O4 0.571255 0.483492 0.265754
O O5 0.625000 0.625000 0.045218
O O6 0.625000 0.678110 0.125000
O O7 0.549108 0.694321 0.018691
O O8 0.754813 0.375000 0.875000
O O9 0.705212 0.420059 0.789219
O O10 0.875000 0.375000 0.783414
O O11 0.545821 0.729707 0.662483
O O12 0.695866 0.778222 0.673329
O O13 0.609557 0.262065 0.968927
#
# Coordination Sequence:
#
# PCOD9514228 Si02
#       6
#    32  32  32  16  32  32
#     4  10  20  33  54  88 117 146 186 234 299 347
#     4  11  22  37  61  88 112 148 192 248 303 343
#     4   9  16  28  50  81 114 142 180 237 289 337
#     4  10  22  34  55  84 114 160 192 226 290 348
#     4  10  18  33  54  81 115 150 189 239 285 342
#     4  11  21  36  56  79 119 150 191 237 288 355
#
# _framework density 17.809555
#
# number of rings (size 3 to 8) (size 9 to 14) (size 15 to 20)
#    0.000    1.818    1.818    5.455    5.091    0.000 
#    0.000    0.000    0.000    9.818    2.364    0.000 
#    0.000    0.000    0.000    0.000    0.000    0.000 
#
# Total GULP energy -245419.531920 kJ/mol
# GULP energy per Si atom -5577.716635 kJ/mol
# Density = 1.776902 g / cm^3
# Si number density = 17.809555 Si / 1000 Ang^3
#
#
#
# Elastic Constant Matrix: (Units=GPa)
#
#
# Indices 1 2 3 4 5 6 
#
# 1 124.7425 46.5164 36.4945 0.0000 0.0000 0.0000
# 2 46.5164 92.9090 52.2571 0.0000 0.0000 0.0000
# 3 36.4945 52.2571 57.1967 0.0000 0.0000 0.0000
# 4 0.0000 0.0000 0.0000 11.3821 0.0000 0.0000
# 5 0.0000 0.0000 0.0000 0.0000 31.7946 0.0000
# 6 0.0000 0.0000 0.0000 0.0000 0.0000 22.7524
#
#
#
# Elastic Compliance Matrix: (Units=1/GPa)
#
#
# Indices 1 2 3 4 5 6 
#
# 1 0.010244 -0.002988 -0.003806 0.000000 0.000000 0.000000
# 2 -0.002988 0.023013 -0.019119 0.000000 0.000000 0.000000
# 3 -0.003806 -0.019119 0.037380 0.000000 0.000000 0.000000
# 4 0.000000 0.000000 0.000000 0.087857 0.000000 0.000000
# 5 0.000000 0.000000 0.000000 0.000000 0.031452 0.000000
# 6 0.000000 0.000000 0.000000 0.000000 0.000000 0.043951
#
#
# Mechanical properties :
#
#
# Convention : Reuss Voigt Hill
#
# Bulk Modulus (GPa) = 53.16200 60.59825 56.88012
# Shear Modulus (GPa) = 17.12366 22.49117 19.80741
#
# Velocity S-wave (km/s) = 3.10415 3.55754 3.33855
# Velocity P-wave (km/s) = 6.53932 7.13964 6.84606
#
# Compressibility (1/GPa) = 0.01881043
#
# Stress axis : x y z
#
# Youngs Moduli (GPa) = 97.61466 43.45437 26.75241
#
# Poissons Ratio (x) = 0.12984 0.10183
# Poissons Ratio (y) = 0.29168 0.51147
# Poissons Ratio (z) = 0.37156 0.83079
#
# Static dielectric constant tensor:
#      x y z
#    x 1.659130 0.000000 0.000000 
#    y 0.000000 1.601080 0.000000 
#    z 0.000000 0.000000 1.593220 
# 
# From -- ./inp_files/57616.got.cif
#   From: 2010.05.17/outbox.cif.g08.bks.cpg/sg70_29_cif.got.tgz:57616.got - 2010.06.03 15:57:51.
