data_PCOD9514369
_publ_section_title
;
Structure prediction by ZEFSAII (Michael W. Deem and Ramdas Pophale) SiO2 
 PCOD9514369
Probable space group: F D D D
;
_chemical_formula_sum "Si O2"
_cell_formula_units_Z 208
_cell_length_a 31.964114
_cell_length_b 18.993595
_cell_length_c 17.344801
_cell_angle_alpha 90.000000
_cell_angle_beta 90.000000
_cell_angle_gamma 90.000000
_cell_volume 10530.261729
_symmetry_space_group_name_H-M "F D D D"
_symmetry_group_IT_number 70
_space_group.IT_coordinate_system_code '2'
_symmetry_cell_setting 'orthorhombic'
loop_
_space_group_symop_operation_xyz
x,y,z
1/4-x,1/4-y,z
x,1/4-y,1/4-z
1/4-x,y,1/4-z
-x,-y,-z
3/4+x,3/4+y,-z
-x,3/4+y,3/4+z
3/4+x,-y,3/4+z
x,1/2+y,1/2+z
1/4-x,3/4-y,1/2+z
x,3/4-y,3/4-z
1/4-x,1/2+y,3/4-z
-x,1/2-y,1/2-z
3/4+x,1/4+y,1/2-z
-x,1/4+y,1/4+z
3/4+x,1/2-y,1/4+z
1/2+x,y,1/2+z
3/4-x,1/4-y,1/2+z
1/2+x,1/4-y,3/4-z
3/4-x,y,3/4-z
1/2-x,-y,1/2-z
1/4+x,3/4+y,1/2-z
1/2-x,3/4+y,1/4+z
1/4+x,-y,1/4+z
1/2+x,1/2+y,z
3/4-x,3/4-y,z
1/2+x,3/4-y,1/4-z
3/4-x,1/2+y,1/4-z
1/2-x,1/2-y,-z
1/4+x,1/4+y,-z
1/2-x,1/4+y,3/4+z
1/4+x,1/2-y,3/4+z
loop_
_atom_site_type_symbol
_atom_site_label
_atom_site_fract_x
_atom_site_fract_y
_atom_site_fract_z
Si Si1 0.064691 0.352791 0.164161
Si Si2 0.625767 0.493367 0.799339
Si Si3 0.375000 0.375000 0.661122
Si Si4 0.625000 0.978182 0.125000
Si Si5 0.959826 0.529085 0.259320
Si Si6 0.380147 0.471864 0.962859
Si Si7 0.434879 0.625000 0.625000
Si Si8 0.217088 0.326173 0.801894
O O1 0.087083 0.425038 0.141779
O O2 0.045975 0.323764 0.086554
O O3 0.096859 0.296493 0.201310
O O4 0.033138 0.370051 0.230883
O O5 0.635453 0.561044 0.852532
O O6 0.631450 0.513395 0.708672
O O7 0.655736 0.428655 0.825488
O O8 0.578338 0.462626 0.810836
O O9 0.401825 0.330642 0.726240
O O10 0.916092 0.486430 0.254028
O O11 0.961628 0.578262 0.184416
O O12 0.998720 0.480415 0.277835
O O13 0.375000 0.446587 0.875000
O O14 0.226091 0.375000 0.875000
#
# Coordination Sequence:
#
# PCOD9514369 Si02
#       8
#    32  32  16  16  32  32  16  32
#     4  10  19  40  68  88 119 177 218 262 315 403
#     4  11  23  41  70  92 127 173 223 268 315 402
#     4  12  23  35  60 104 128 158 218 277 317 372
#     4  10  18  39  70  93 112 170 238 258 294 383
#     4  11  22  38  64  96 125 166 216 274 323 381
#     4  10  20  37  61  93 127 166 214 263 322 387
#     4  12  20  46  72  92 118 185 235 248 314 420
#     4  11  24  39  61  96 134 167 211 268 342 389
#
# _framework density 19.752594999999999
#
# number of rings (size 3 to 8) (size 9 to 14) (size 15 to 20)
#    0.000    1.231    6.154    2.077    0.000    4.615 
#    0.000    3.846    0.000    0.000    0.000    0.000 
#    0.000    0.000    0.000    0.000    0.000    0.000 
#
# Total GULP energy -289599.345367 kJ/mol
# GULP energy per Si atom -5569.218180 kJ/mol
# Density = 1.970764 g / cm^3
# Si number density = 19.752595 Si / 1000 Ang^3
#
#
#
# Elastic Constant Matrix: (Units=GPa)
#
#
# Indices 1 2 3 4 5 6 
#
# 1 51.6099 14.5646 39.2148 0.0000 0.0000 0.0000
# 2 14.5646 68.9761 66.8996 0.0000 0.0000 0.0000
# 3 39.2148 66.8996 196.8835 0.0000 0.0000 0.0000
# 4 0.0000 0.0000 0.0000 78.2828 0.0000 0.0000
# 5 0.0000 0.0000 0.0000 0.0000 5.8935 0.0000
# 6 0.0000 0.0000 0.0000 0.0000 0.0000 -19.4447
#
#
#
# Elastic Compliance Matrix: (Units=1/GPa)
#
#
# Indices 1 2 3 4 5 6 
#
# 1 0.022849 -0.000613 -0.004343 0.000000 0.000000 0.000000
# 2 -0.000613 0.021641 -0.007231 0.000000 0.000000 0.000000
# 3 -0.004343 -0.007231 0.008401 0.000000 0.000000 0.000000
# 4 0.000000 0.000000 0.000000 0.012774 0.000000 0.000000
# 5 0.000000 0.000000 0.000000 0.000000 0.169679 0.000000
# 6 0.000000 0.000000 0.000000 0.000000 0.000000 -0.051428
#
#
# Mechanical properties :
#
#
# Convention : Reuss Voigt Hill
#
# Bulk Modulus (GPa) = 35.06629 62.09194 48.57911
# Shear Modulus (GPa) = 22.95731 26.06568 24.51149
#
# Velocity S-wave (km/s) = 3.41287 3.63658 3.52650
# Velocity P-wave (km/s) = 5.77248 7.00971 6.42096
#
# Compressibility (1/GPa) = 0.02851742
#
# Stress axis : x y z
#
# Youngs Moduli (GPa) = 43.76596 46.20899 119.02898
#
# Poissons Ratio (x) = 0.02830 0.51692
# Poissons Ratio (y) = 0.02681 0.86074
# Poissons Ratio (z) = 0.19007 0.33416
#
# Static dielectric constant tensor:
#      x y z
#    x 1.708140 0.000000 0.000000 
#    y 0.000000 1.759180 0.000000 
#    z 0.000000 0.000000 1.753560 
# 
# From -- ./inp_files/39904.got.cif
#   From: 2010.05.17/outbox.cif.g08.bks.cpg/sg70_20_cif.got.tgz:39904.got - 2010.06.03 15:57:51.
