data_PCOD9514327
_publ_section_title
;
Structure prediction by ZEFSAII (Michael W. Deem and Ramdas Pophale) SiO2 
 PCOD9514327
Probable space group: F D D D
;
_chemical_formula_sum "Si O2"
_cell_formula_units_Z 136
_cell_length_a 19.630055
_cell_length_b 10.634748
_cell_length_c 31.155875
_cell_angle_alpha 90.000000
_cell_angle_beta 90.000000
_cell_angle_gamma 90.000000
_cell_volume 6504.121905
_symmetry_space_group_name_H-M "F D D D"
_symmetry_group_IT_number 70
_space_group.IT_coordinate_system_code '2'
_symmetry_cell_setting 'orthorhombic'
loop_
_space_group_symop_operation_xyz
x,y,z
1/4-x,1/4-y,z
x,1/4-y,1/4-z
1/4-x,y,1/4-z
-x,-y,-z
3/4+x,3/4+y,-z
-x,3/4+y,3/4+z
3/4+x,-y,3/4+z
x,1/2+y,1/2+z
1/4-x,3/4-y,1/2+z
x,3/4-y,3/4-z
1/4-x,1/2+y,3/4-z
-x,1/2-y,1/2-z
3/4+x,1/4+y,1/2-z
-x,1/4+y,1/4+z
3/4+x,1/2-y,1/4+z
1/2+x,y,1/2+z
3/4-x,1/4-y,1/2+z
1/2+x,1/4-y,3/4-z
3/4-x,y,3/4-z
1/2-x,-y,1/2-z
1/4+x,3/4+y,1/2-z
1/2-x,3/4+y,1/4+z
1/4+x,-y,1/4+z
1/2+x,1/2+y,z
3/4-x,3/4-y,z
1/2+x,3/4-y,1/4-z
3/4-x,1/2+y,1/4-z
1/2-x,1/2-y,-z
1/4+x,1/4+y,-z
1/2-x,1/4+y,3/4+z
1/4+x,1/2-y,3/4+z
loop_
_atom_site_type_symbol
_atom_site_label
_atom_site_fract_x
_atom_site_fract_y
_atom_site_fract_z
Si Si1 0.162722 0.875000 0.875000
Si Si2 0.875000 0.875000 0.375000
Si Si3 0.875000 0.875000 0.167073
Si Si4 0.494854 0.616704 0.772942
Si Si5 0.364342 0.021100 0.323798
Si Si6 0.730618 0.768038 0.685705
O O1 0.121839 0.757684 0.893023
O O2 0.207380 0.801883 0.838768
O O3 0.830580 0.792371 0.342367
O O4 0.805578 0.873315 0.193408
O O5 0.500000 0.750000 0.750000
O O6 0.423191 0.593349 0.796818
O O7 0.511538 0.518077 0.735316
O O8 0.375000 0.029645 0.375000
O O9 0.290373 0.084813 0.315725
O O10 0.375000 0.875000 0.311989
#
# Coordination Sequence:
#
# PCOD9514327 Si02
#       6
#    16   8  16  32  32  32
#     4  11  26  43  68 100 143 182 227 276 354 419
#     4  10  18  36  70  96 132 172 226 274 330 416
#     4  12  25  44  66 105 136 182 221 288 350 403
#     4  12  24  44  72 102 133 173 237 288 332 408
#     4  11  25  45  71 101 138 184 230 281 349 417
#     4  11  22  41  69 102 129 183 232 280 340 406
#
# _framework density 20.909817
#
# number of rings (size 3 to 8) (size 9 to 14) (size 15 to 20)
#    0.000    0.706    3.529    4.941    0.000    4.706 
#    2.118    0.000    0.000    0.000    0.000    0.000 
#    0.000    0.000    0.000    0.000    0.000    0.000 
#
# Total GULP energy -189619.633435 kJ/mol
# GULP energy per Si atom -5577.048042 kJ/mol
# Density = 2.086223 g / cm^3
# Si number density = 20.909817 Si / 1000 Ang^3
#
#
#
# Elastic Constant Matrix: (Units=GPa)
#
#
# Indices 1 2 3 4 5 6 
#
# 1 53.1274 45.0718 29.0222 0.0000 0.0000 0.0000
# 2 45.0718 174.0288 53.9842 0.0000 0.0000 0.0000
# 3 29.0222 53.9842 89.1560 0.0000 0.0000 0.0000
# 4 0.0000 0.0000 0.0000 35.4902 0.0000 0.0000
# 5 0.0000 0.0000 0.0000 0.0000 26.5731 0.0000
# 6 0.0000 0.0000 0.0000 0.0000 0.0000 33.0028
#
#
#
# Elastic Compliance Matrix: (Units=1/GPa)
#
#
# Indices 1 2 3 4 5 6 
#
# 1 0.026089 -0.005076 -0.005419 0.000000 0.000000 0.000000
# 2 -0.005076 0.008063 -0.003230 0.000000 0.000000 0.000000
# 3 -0.005419 -0.003230 0.014936 0.000000 0.000000 0.000000
# 4 0.000000 0.000000 0.000000 0.028177 0.000000 0.000000
# 5 0.000000 0.000000 0.000000 0.000000 0.037632 0.000000
# 6 0.000000 0.000000 0.000000 0.000000 0.000000 0.030301
#
#
# Mechanical properties :
#
#
# Convention : Reuss Voigt Hill
#
# Bulk Modulus (GPa) = 46.21405 63.60762 54.91084
# Shear Modulus (GPa) = 27.79954 31.56216 29.68085
#
# Velocity S-wave (km/s) = 3.65018 3.88937 3.77167
# Velocity P-wave (km/s) = 6.31781 7.11728 6.72942
#
# Compressibility (1/GPa) = 0.02163844
#
# Stress axis : x y z
#
# Youngs Moduli (GPa) = 38.33004 124.02951 66.95275
#
# Poissons Ratio (x) = 0.62955 0.36283
# Poissons Ratio (y) = 0.19456 0.21623
# Poissons Ratio (z) = 0.20772 0.40057
#
# Static dielectric constant tensor:
#      x y z
#    x 1.765230 0.000000 0.000000 
#    y 0.000000 2.206450 0.000000 
#    z 0.000000 0.000000 1.731650 
# 
# From -- ./inp_files/61019.got.cif
#   From: 2010.05.17/outbox.cif.g08.bks.cpg/sg70_31_cif.got.tgz:61019.got - 2010.06.03 15:57:51.
