data_PCOD9514618
_publ_section_title
;
Structure prediction by ZEFSAII (Michael W. Deem and Ramdas Pophale) SiO2 
 PCOD9514618
Probable space group: F D D D
;
_chemical_formula_sum "Si O2"
_cell_formula_units_Z 112
_cell_length_a 10.161411
_cell_length_b 34.517704
_cell_length_c 14.922803
_cell_angle_alpha 90.000000
_cell_angle_beta 90.000000
_cell_angle_gamma 90.000000
_cell_volume 5234.151919
_symmetry_space_group_name_H-M "F D D D"
_symmetry_group_IT_number 70
_space_group.IT_coordinate_system_code '2'
_symmetry_cell_setting 'orthorhombic'
loop_
_space_group_symop_operation_xyz
x,y,z
1/4-x,1/4-y,z
x,1/4-y,1/4-z
1/4-x,y,1/4-z
-x,-y,-z
3/4+x,3/4+y,-z
-x,3/4+y,3/4+z
3/4+x,-y,3/4+z
x,1/2+y,1/2+z
1/4-x,3/4-y,1/2+z
x,3/4-y,3/4-z
1/4-x,1/2+y,3/4-z
-x,1/2-y,1/2-z
3/4+x,1/4+y,1/2-z
-x,1/4+y,1/4+z
3/4+x,1/2-y,1/4+z
1/2+x,y,1/2+z
3/4-x,1/4-y,1/2+z
1/2+x,1/4-y,3/4-z
3/4-x,y,3/4-z
1/2-x,-y,1/2-z
1/4+x,3/4+y,1/2-z
1/2-x,3/4+y,1/4+z
1/4+x,-y,1/4+z
1/2+x,1/2+y,z
3/4-x,3/4-y,z
1/2+x,3/4-y,1/4-z
3/4-x,1/2+y,1/4-z
1/2-x,1/2-y,-z
1/4+x,1/4+y,-z
1/2-x,1/4+y,3/4+z
1/4+x,1/2-y,3/4+z
loop_
_atom_site_type_symbol
_atom_site_label
_atom_site_fract_x
_atom_site_fract_y
_atom_site_fract_z
Si Si1 0.009064 0.486185 0.333542
Si Si2 0.018067 0.339658 0.325742
Si Si3 0.527450 0.543826 0.364292
Si Si4 0.875000 0.375000 0.163046
O O1 0.068431 0.452786 0.400017
O O2 0.122060 0.518106 0.328612
O O3 0.875000 0.503223 0.375000
O O4 0.959891 0.466367 0.241507
O O5 0.091843 0.375000 0.375000
O O6 0.875000 0.337625 0.375000
O O7 0.984247 0.353764 0.226412
O O8 0.375000 0.535152 0.375000
O O9 0.556827 0.588891 0.384453
#
# Coordination Sequence:
#
# PCOD9514618 Si02
#       4
#    32  32  32  16
#     4  11  21  40  67  91 118 174 216 250 300 390
#     4   8  13  31  61  82 104 151 220 248 270 348
#     4  12  25  40  61  96 136 159 200 272 328 359
#     4  10  19  38  60  88 119 170 210 254 297 372
#
# _framework density 21.397929000000001
#
# number of rings (size 3 to 8) (size 9 to 14) (size 15 to 20)
#    0.000    2.000    8.571    1.714    0.000    1.143 
#    0.000    0.000    0.000    0.857    0.000    0.000 
#    0.000    0.000    0.000    0.000    0.000    0.000 
#
# Total GULP energy -155896.480924 kJ/mol
# GULP energy per Si atom -5567.731462 kJ/mol
# Density = 2.134923 g / cm^3
# Si number density = 21.397929 Si / 1000 Ang^3
#
#
#
# Elastic Constant Matrix: (Units=GPa)
#
#
# Indices 1 2 3 4 5 6 
#
# 1 65.2815 27.3259 -9.8330 0.0000 0.0000 0.0000
# 2 27.3259 127.5972 -6.5691 0.0000 0.0000 0.0000
# 3 -9.8330 -6.5691 17.0558 0.0000 0.0000 0.0000
# 4 0.0000 0.0000 0.0000 17.5402 0.0000 0.0000
# 5 0.0000 0.0000 0.0000 0.0000 12.0703 0.0000
# 6 0.0000 0.0000 0.0000 0.0000 0.0000 102.6592
#
#
#
# Elastic Compliance Matrix: (Units=1/GPa)
#
#
# Indices 1 2 3 4 5 6 
#
# 1 0.018122 -0.003411 0.009134 0.000000 0.000000 0.000000
# 2 -0.003411 0.008638 0.001360 0.000000 0.000000 0.000000
# 3 0.009134 0.001360 0.064421 0.000000 0.000000 0.000000
# 4 0.000000 0.000000 0.000000 0.057012 0.000000 0.000000
# 5 0.000000 0.000000 0.000000 0.000000 0.082848 0.000000
# 6 0.000000 0.000000 0.000000 0.000000 0.000000 0.009741
#
#
# Mechanical properties :
#
#
# Convention : Reuss Voigt Hill
#
# Bulk Modulus (GPa) = 9.49236 25.75356 17.62296
# Shear Modulus (GPa) = 19.10369 39.72131 29.41250
#
# Velocity S-wave (km/s) = 2.99119 4.31317 3.71151
# Velocity P-wave (km/s) = 4.04665 6.07176 5.15954
#
# Compressibility (1/GPa) = 0.10534790
#
# Stress axis : x y z
#
# Youngs Moduli (GPa) = 55.18236 115.77262 15.52288
#
# Poissons Ratio (x) = 0.39486 -0.14178
# Poissons Ratio (y) = 0.18821 -0.02112
# Poissons Ratio (z) = -0.50403 -0.15751
#
# Static dielectric constant tensor:
#      x y z
#    x 1.759460 0.000000 0.000000 
#    y 0.000000 1.966350 0.000000 
#    z 0.000000 0.000000 1.932120 
# 
# From -- ./inp_files/24445.got.cif
#   From: 2010.05.17/outbox.cif.g08.bks.cpg/sg70_13_cif.got.tgz:24445.got - 2010.06.03 15:57:51.
