data_PCOD9514555
_publ_section_title
;
Structure prediction by ZEFSAII (Michael W. Deem and Ramdas Pophale) SiO2 
 PCOD9514555
Probable space group: F D D D
;
_chemical_formula_sum "Si O2"
_cell_formula_units_Z 160
_cell_length_a 23.724430
_cell_length_b 13.690241
_cell_length_c 25.153001
_cell_angle_alpha 90.000000
_cell_angle_beta 90.000000
_cell_angle_gamma 90.000000
_cell_volume 8169.522786
_symmetry_space_group_name_H-M "F D D D"
_symmetry_group_IT_number 70
_space_group.IT_coordinate_system_code '2'
_symmetry_cell_setting 'orthorhombic'
loop_
_space_group_symop_operation_xyz
x,y,z
1/4-x,1/4-y,z
x,1/4-y,1/4-z
1/4-x,y,1/4-z
-x,-y,-z
3/4+x,3/4+y,-z
-x,3/4+y,3/4+z
3/4+x,-y,3/4+z
x,1/2+y,1/2+z
1/4-x,3/4-y,1/2+z
x,3/4-y,3/4-z
1/4-x,1/2+y,3/4-z
-x,1/2-y,1/2-z
3/4+x,1/4+y,1/2-z
-x,1/4+y,1/4+z
3/4+x,1/2-y,1/4+z
1/2+x,y,1/2+z
3/4-x,1/4-y,1/2+z
1/2+x,1/4-y,3/4-z
3/4-x,y,3/4-z
1/2-x,-y,1/2-z
1/4+x,3/4+y,1/2-z
1/2-x,3/4+y,1/4+z
1/4+x,-y,1/4+z
1/2+x,1/2+y,z
3/4-x,3/4-y,z
1/2+x,3/4-y,1/4-z
3/4-x,1/2+y,1/4-z
1/2-x,1/2-y,-z
1/4+x,1/4+y,-z
1/2-x,1/4+y,3/4+z
1/4+x,1/2-y,3/4+z
loop_
_atom_site_type_symbol
_atom_site_label
_atom_site_fract_x
_atom_site_fract_y
_atom_site_fract_z
Si Si1 0.611779 0.817974 0.785286
Si Si2 0.026026 0.535752 0.885927
Si Si3 0.080755 0.038645 0.272900
Si Si4 0.770234 0.460113 0.032791
Si Si5 0.067006 0.680412 0.193532
O O1 0.575046 0.775843 0.834180
O O2 0.674504 0.776024 0.788293
O O3 0.583420 0.769655 0.732950
O O4 0.610411 0.933949 0.781692
O O5 0.044392 0.556189 0.826325
O O6 0.018993 0.635926 0.918229
O O7 0.968840 0.474592 0.895363
O O8 0.125000 0.125000 0.264845
O O9 0.035919 0.021894 0.225894
O O10 0.779421 0.391908 0.980196
O O11 0.125000 0.625000 0.181831
#
# Coordination Sequence:
#
# PCOD9514555 Si02
#       5
#    32  32  32  32  32
#     4  10  19  36  59  83 121 159 196 251 319 364
#     4  11  19  37  61  91 124 154 204 265 312 370
#     4  12  24  36  58  90 119 165 217 250 302 381
#     4  10  20  37  58  87 119 161 201 255 316 367
#     4   9  17  33  61  88 117 155 193 244 325 371
#
# _framework density 19.584987000000002
#
# number of rings (size 3 to 8) (size 9 to 14) (size 15 to 20)
#    0.000    1.600    4.000    4.800    0.000    0.800 
#    0.000    9.000    0.000    0.000    0.000    0.000 
#    0.000    0.000    0.000    0.000    0.000    0.000 
#
# Total GULP energy -223706.875396 kJ/mol
# GULP energy per Si atom -5592.671885 kJ/mol
# Density = 1.954041 g / cm^3
# Si number density = 19.584987 Si / 1000 Ang^3
#
#
#
# Elastic Constant Matrix: (Units=GPa)
#
#
# Indices 1 2 3 4 5 6 
#
# 1 126.2649 82.4364 16.3135 0.0000 0.0000 0.0000
# 2 82.4364 120.0633 39.5886 0.0000 0.0000 0.0000
# 3 16.3135 39.5886 41.9146 0.0000 0.0000 0.0000
# 4 0.0000 0.0000 0.0000 19.2190 0.0000 0.0000
# 5 0.0000 0.0000 0.0000 0.0000 19.0707 0.0000
# 6 0.0000 0.0000 0.0000 0.0000 0.0000 52.0920
#
#
#
# Elastic Compliance Matrix: (Units=1/GPa)
#
#
# Indices 1 2 3 4 5 6 
#
# 1 0.015251 -0.012365 0.005743 0.000000 0.000000 0.000000
# 2 -0.012365 0.022121 -0.016081 0.000000 0.000000 0.000000
# 3 0.005743 -0.016081 0.036812 0.000000 0.000000 0.000000
# 4 0.000000 0.000000 0.000000 0.052032 0.000000 0.000000
# 5 0.000000 0.000000 0.000000 0.000000 0.052436 0.000000
# 6 0.000000 0.000000 0.000000 0.000000 0.000000 0.019197
#
#
# Mechanical properties :
#
#
# Convention : Reuss Voigt Hill
#
# Bulk Modulus (GPa) = 34.74939 62.76887 48.75913
# Shear Modulus (GPa) = 19.77480 28.06998 23.92239
#
# Velocity S-wave (km/s) = 3.18101 3.78992 3.49874
# Velocity P-wave (km/s) = 5.59224 7.16034 6.42431
#
# Compressibility (1/GPa) = 0.02877749
#
# Stress axis : x y z
#
# Youngs Moduli (GPa) = 65.57064 45.20541 27.16542
#
# Poissons Ratio (x) = 0.55896 -0.15601
# Poissons Ratio (y) = 0.81078 0.43685
# Poissons Ratio (z) = -0.37658 0.72695
#
# Static dielectric constant tensor:
#      x y z
#    x 1.690230 0.000000 0.000000 
#    y 0.000000 1.677040 0.000000 
#    z 0.000000 0.000000 1.708570 
# 
# From -- ./inp_files/19465.got.cif
#   From: 2010.05.17/outbox.cif.g08.bks.cpg/sg70_10_cif.got.tgz:19465.got - 2010.06.03 15:57:51.
