data_PCOD9514986
_publ_section_title
;
Structure prediction by ZEFSAII (Michael W. Deem and Ramdas Pophale) SiO2 
 PCOD9514986
Probable space group: F D D D
;
_chemical_formula_sum "Si O2"
_cell_formula_units_Z 176
_cell_length_a 27.144255
_cell_length_b 19.032215
_cell_length_c 14.920576
_cell_angle_alpha 90.000000
_cell_angle_beta 90.000000
_cell_angle_gamma 90.000000
_cell_volume 7708.197804
_symmetry_space_group_name_H-M "F D D D"
_symmetry_group_IT_number 70
_space_group.IT_coordinate_system_code '2'
_symmetry_cell_setting 'orthorhombic'
loop_
_space_group_symop_operation_xyz
x,y,z
1/4-x,1/4-y,z
x,1/4-y,1/4-z
1/4-x,y,1/4-z
-x,-y,-z
3/4+x,3/4+y,-z
-x,3/4+y,3/4+z
3/4+x,-y,3/4+z
x,1/2+y,1/2+z
1/4-x,3/4-y,1/2+z
x,3/4-y,3/4-z
1/4-x,1/2+y,3/4-z
-x,1/2-y,1/2-z
3/4+x,1/4+y,1/2-z
-x,1/4+y,1/4+z
3/4+x,1/2-y,1/4+z
1/2+x,y,1/2+z
3/4-x,1/4-y,1/2+z
1/2+x,1/4-y,3/4-z
3/4-x,y,3/4-z
1/2-x,-y,1/2-z
1/4+x,3/4+y,1/2-z
1/2-x,3/4+y,1/4+z
1/4+x,-y,1/4+z
1/2+x,1/2+y,z
3/4-x,3/4-y,z
1/2+x,3/4-y,1/4-z
3/4-x,1/2+y,1/4-z
1/2-x,1/2-y,-z
1/4+x,1/4+y,-z
1/2-x,1/4+y,3/4+z
1/4+x,1/2-y,3/4+z
loop_
_atom_site_type_symbol
_atom_site_label
_atom_site_fract_x
_atom_site_fract_y
_atom_site_fract_z
Si Si1 0.676673 0.347098 0.750111
Si Si2 0.822685 0.036865 0.691181
Si Si3 0.476393 0.064705 0.729612
Si Si4 0.319300 0.975262 0.370289
Si Si5 0.262828 0.875000 0.875000
Si Si6 0.930027 0.741835 0.340973
O O1 0.629404 0.311974 0.798307
O O2 0.679382 0.305915 0.656385
O O3 0.726022 0.336413 0.806379
O O4 0.674056 0.430587 0.732962
O O5 0.792347 0.106402 0.716599
O O6 0.806549 0.018863 0.590764
O O7 0.808629 0.979087 0.764841
O O8 0.531348 0.059506 0.689101
O O9 0.463205 0.041366 0.829236
O O10 0.375000 0.949236 0.375000
O O11 0.294696 0.816786 0.927649
O O12 0.875000 0.755304 0.375000
#
# Coordination Sequence:
#
# PCOD9514986 Si02
#       6
#    32  32  32  32  16  32
#     4  11  21  40  62  88 118 165 218 253 302 387
#     4  10  21  38  65  89 118 164 214 259 303 383
#     4  11  20  37  63  91 120 159 209 256 320 369
#     4  10  20  38  62  91 122 156 207 263 313 371
#     4  12  25  38  60  90 124 166 207 258 330 372
#     4  12  23  41  60  90 130 163 208 268 317 380
#
# _framework density 22.832833000000001
#
# number of rings (size 3 to 8) (size 9 to 14) (size 15 to 20)
#    0.000    1.091    5.455    3.000    0.000    0.000 
#    0.000    1.818    0.000    0.000    0.000    0.000 
#    0.000    0.000    0.000    0.000    0.000    0.000 
#
# Total GULP energy -245744.149341 kJ/mol
# GULP energy per Si atom -5585.094303 kJ/mol
# Density = 2.278086 g / cm^3
# Si number density = 22.832833 Si / 1000 Ang^3
#
#
#
# Elastic Constant Matrix: (Units=GPa)
#
#
# Indices 1 2 3 4 5 6 
#
# 1 139.2960 21.1530 -2.6454 0.0000 0.0000 0.0000
# 2 21.1530 67.8721 -12.5311 0.0000 0.0000 0.0000
# 3 -2.6454 -12.5311 57.3034 0.0000 0.0000 0.0000
# 4 0.0000 0.0000 0.0000 18.9832 0.0000 0.0000
# 5 0.0000 0.0000 0.0000 0.0000 26.6334 0.0000
# 6 0.0000 0.0000 0.0000 0.0000 0.0000 21.8298
#
#
#
# Elastic Compliance Matrix: (Units=1/GPa)
#
#
# Indices 1 2 3 4 5 6 
#
# 1 0.007537 -0.002381 -0.000173 0.000000 0.000000 0.000000
# 2 -0.002381 0.016106 0.003412 0.000000 0.000000 0.000000
# 3 -0.000173 0.003412 0.018189 0.000000 0.000000 0.000000
# 4 0.000000 0.000000 0.000000 0.052678 0.000000 0.000000
# 5 0.000000 0.000000 0.000000 0.000000 0.037547 0.000000
# 6 0.000000 0.000000 0.000000 0.000000 0.000000 0.045809
#
#
# Mechanical properties :
#
#
# Convention : Reuss Voigt Hill
#
# Bulk Modulus (GPa) = 22.96273 30.71384 26.83828
# Shear Modulus (GPa) = 26.22397 30.72229 28.47313
#
# Velocity S-wave (km/s) = 3.39266 3.67213 3.53516
# Velocity P-wave (km/s) = 5.04238 5.60894 5.33319
#
# Compressibility (1/GPa) = 0.04354883
#
# Stress axis : x y z
#
# Youngs Moduli (GPa) = 132.67463 62.09016 54.97780
#
# Poissons Ratio (x) = 0.14783 0.00950
# Poissons Ratio (y) = 0.31589 -0.18759
# Poissons Ratio (z) = 0.02292 -0.21186
#
# Static dielectric constant tensor:
#      x y z
#    x 1.877790 0.000000 0.000000 
#    y 0.000000 1.915640 0.000000 
#    z 0.000000 0.000000 1.965080 
# 
# From -- ./inp_files/38541.got.cif
#   From: 2010.05.17/outbox.cif.g08.bks.cpg/sg70_20_cif.got.tgz:38541.got - 2010.06.03 15:57:51.
