data_PCOD9514280
_publ_section_title
;
Structure prediction by ZEFSAII (Michael W. Deem and Ramdas Pophale) SiO2 
 PCOD9514280
Probable space group: F D D D
;
_chemical_formula_sum "Si O2"
_cell_formula_units_Z 192
_cell_length_a 20.236142
_cell_length_b 19.785593
_cell_length_c 25.386029
_cell_angle_alpha 90.000000
_cell_angle_beta 90.000000
_cell_angle_gamma 90.000000
_cell_volume 10164.161600
_symmetry_space_group_name_H-M "F D D D"
_symmetry_group_IT_number 70
_space_group.IT_coordinate_system_code '2'
_symmetry_cell_setting 'orthorhombic'
loop_
_space_group_symop_operation_xyz
x,y,z
1/4-x,1/4-y,z
x,1/4-y,1/4-z
1/4-x,y,1/4-z
-x,-y,-z
3/4+x,3/4+y,-z
-x,3/4+y,3/4+z
3/4+x,-y,3/4+z
x,1/2+y,1/2+z
1/4-x,3/4-y,1/2+z
x,3/4-y,3/4-z
1/4-x,1/2+y,3/4-z
-x,1/2-y,1/2-z
3/4+x,1/4+y,1/2-z
-x,1/4+y,1/4+z
3/4+x,1/2-y,1/4+z
1/2+x,y,1/2+z
3/4-x,1/4-y,1/2+z
1/2+x,1/4-y,3/4-z
3/4-x,y,3/4-z
1/2-x,-y,1/2-z
1/4+x,3/4+y,1/2-z
1/2-x,3/4+y,1/4+z
1/4+x,-y,1/4+z
1/2+x,1/2+y,z
3/4-x,3/4-y,z
1/2+x,3/4-y,1/4-z
3/4-x,1/2+y,1/4-z
1/2-x,1/2-y,-z
1/4+x,1/4+y,-z
1/2-x,1/4+y,3/4+z
1/4+x,1/2-y,3/4+z
loop_
_atom_site_type_symbol
_atom_site_label
_atom_site_fract_x
_atom_site_fract_y
_atom_site_fract_z
Si Si1 0.309077 0.650269 0.903453
Si Si2 0.225322 0.952877 0.188663
Si Si3 0.916428 0.310120 0.638511
Si Si4 0.059384 0.159824 0.985577
Si Si5 0.841981 0.548777 0.491879
Si Si6 0.163028 0.444995 0.849725
O O1 0.375000 0.680575 0.875000
O O2 0.290576 0.588703 0.864091
O O3 0.242046 0.693403 0.907476
O O4 0.323153 0.614650 0.958928
O O5 0.253979 0.897048 0.229530
O O6 0.158078 0.978739 0.213309
O O7 0.278244 0.009143 0.173766
O O8 0.875000 0.375000 0.659294
O O9 0.922562 0.322769 0.575369
O O10 0.874441 0.242042 0.642418
O O11 0.125000 0.125000 0.008719
O O12 0.043896 0.233353 0.009488
O O13 0.862334 0.567100 0.551322
O O14 0.185351 0.375000 0.875000
#
# Coordination Sequence:
#
# PCOD9514280 Si02
#       6
#    32  32  32  32  32  32
#     4   9  18  32  55  77 106 141 182 219 263 316
#     4  10  18  35  50  76 114 143 173 212 258 325
#     4   9  15  34  54  71 101 144 180 210 253 320
#     4   9  15  28  50  70  99 146 173 192 248 317
#     4  10  20  32  51  82 110 138 177 219 259 323
#     4  11  21  33  53  82 105 141 181 223 265 317
#
# _framework density 18.889900000000001
#
# number of rings (size 3 to 8) (size 9 to 14) (size 15 to 20)
#    0.000    2.333    6.667    0.500    0.000    1.333 
#    0.000    0.833    0.000    0.500    0.000    0.000 
#    0.000    0.000    0.000    0.000    0.000    0.000 
#
# Total GULP energy -267248.939308 kJ/mol
# GULP energy per Si atom -5567.686236 kJ/mol
# Density = 1.884691 g / cm^3
# Si number density = 18.889900 Si / 1000 Ang^3
#
#
#
# Elastic Constant Matrix: (Units=GPa)
#
#
# Indices 1 2 3 4 5 6 
#
# 1 76.7391 28.0533 -2.8394 0.0000 0.0000 0.0000
# 2 28.0533 63.3766 0.6309 0.0000 0.0000 0.0000
# 3 -2.8394 0.6309 22.7891 0.0000 0.0000 0.0000
# 4 0.0000 0.0000 0.0000 4.8336 0.0000 0.0000
# 5 0.0000 0.0000 0.0000 0.0000 7.1291 0.0000
# 6 0.0000 0.0000 0.0000 0.0000 0.0000 14.6839
#
#
#
# Elastic Compliance Matrix: (Units=1/GPa)
#
#
# Indices 1 2 3 4 5 6 
#
# 1 0.015651 -0.006949 0.002142 0.000000 0.000000 0.000000
# 2 -0.006949 0.018868 -0.001388 0.000000 0.000000 0.000000
# 3 0.002142 -0.001388 0.044186 0.000000 0.000000 0.000000
# 4 0.000000 0.000000 0.000000 0.206885 0.000000 0.000000
# 5 0.000000 0.000000 0.000000 0.000000 0.140269 0.000000
# 6 0.000000 0.000000 0.000000 0.000000 0.000000 0.068102
#
#
# Mechanical properties :
#
#
# Convention : Reuss Voigt Hill
#
# Bulk Modulus (GPa) = 15.07944 23.84382 19.46163
# Shear Modulus (GPa) = 9.46153 14.46667 11.96410
#
# Velocity S-wave (km/s) = 2.24046 2.77039 2.51939
# Velocity P-wave (km/s) = 3.83315 4.78365 4.33453
#
# Compressibility (1/GPa) = 0.06631545
#
# Stress axis : x y z
#
# Youngs Moduli (GPa) = 63.89457 52.99844 22.63166
#
# Poissons Ratio (x) = 0.36829 -0.04849
# Poissons Ratio (y) = 0.44401 0.03142
# Poissons Ratio (z) = -0.13689 0.07357
#
# Static dielectric constant tensor:
#      x y z
#    x 1.707490 0.000000 0.000000 
#    y 0.000000 1.694640 0.000000 
#    z 0.000000 0.000000 1.680740 
# 
# From -- ./inp_files/60482.got.cif
#   From: 2010.05.17/outbox.cif.g08.bks.cpg/sg70_31_cif.got.tgz:60482.got - 2010.06.03 15:57:51.
