data_PCOD9514659
_publ_section_title
;
Structure prediction by ZEFSAII (Michael W. Deem and Ramdas Pophale) SiO2 
 PCOD9514659
Probable space group: F D D D
;
_chemical_formula_sum "Si O2"
_cell_formula_units_Z 128
_cell_length_a 14.431485
_cell_length_b 23.879454
_cell_length_c 13.333052
_cell_angle_alpha 90.000000
_cell_angle_beta 90.000000
_cell_angle_gamma 90.000000
_cell_volume 4594.782811
_symmetry_space_group_name_H-M "F D D D"
_symmetry_group_IT_number 70
_space_group.IT_coordinate_system_code '2'
_symmetry_cell_setting 'orthorhombic'
loop_
_space_group_symop_operation_xyz
x,y,z
1/4-x,1/4-y,z
x,1/4-y,1/4-z
1/4-x,y,1/4-z
-x,-y,-z
3/4+x,3/4+y,-z
-x,3/4+y,3/4+z
3/4+x,-y,3/4+z
x,1/2+y,1/2+z
1/4-x,3/4-y,1/2+z
x,3/4-y,3/4-z
1/4-x,1/2+y,3/4-z
-x,1/2-y,1/2-z
3/4+x,1/4+y,1/2-z
-x,1/4+y,1/4+z
3/4+x,1/2-y,1/4+z
1/2+x,y,1/2+z
3/4-x,1/4-y,1/2+z
1/2+x,1/4-y,3/4-z
3/4-x,y,3/4-z
1/2-x,-y,1/2-z
1/4+x,3/4+y,1/2-z
1/2-x,3/4+y,1/4+z
1/4+x,-y,1/4+z
1/2+x,1/2+y,z
3/4-x,3/4-y,z
1/2+x,3/4-y,1/4-z
3/4-x,1/2+y,1/4-z
1/2-x,1/2-y,-z
1/4+x,1/4+y,-z
1/2-x,1/4+y,3/4+z
1/4+x,1/2-y,3/4+z
loop_
_atom_site_type_symbol
_atom_site_label
_atom_site_fract_x
_atom_site_fract_y
_atom_site_fract_z
Si Si1 0.066632 0.802112 0.732569
Si Si2 0.489428 0.915576 0.016714
Si Si3 0.464022 0.674332 0.978104
Si Si4 0.508970 0.042894 0.192071
O O1 0.125000 0.803204 0.625000
O O2 0.012355 0.860148 0.755421
O O3 0.148634 0.799537 0.812579
O O4 0.000000 0.750000 0.750000
O O5 0.458939 0.954681 0.924527
O O6 0.462193 0.851709 0.992072
O O7 0.469098 0.931719 0.129657
O O8 0.602094 0.916948 0.025641
O O9 0.471767 0.739126 0.010386
#
# Coordination Sequence:
#
# PCOD9514659 Si02
#       4
#    32  32  32  32
#     4  11  24  44  63  92 135 174 226 281 337 409
#     4   9  19  36  59  93 120 161 209 272 335 402
#     4  10  19  39  63  87 128 168 212 273 343 396
#     4  10  20  35  64  90 120 167 216 267 334 408
#
# _framework density 27.857683000000002
#
# number of rings (size 3 to 8) (size 9 to 14) (size 15 to 20)
#    0.000    2.000    5.000    0.750    3.500    1.000 
#    0.000    1.250    0.000   24.000    0.000    0.000 
#    0.000    0.000    0.000    0.000    0.000    0.000 
#
# Total GULP energy -178390.644860 kJ/mol
# GULP energy per Si atom -5574.707652 kJ/mol
# Density = 2.779428 g / cm^3
# Si number density = 27.857683 Si / 1000 Ang^3
#
#
#
# Elastic Constant Matrix: (Units=GPa)
#
#
# Indices 1 2 3 4 5 6 
#
# 1 64.1294 52.9378 27.4524 0.0000 0.0000 0.0000
# 2 52.9378 276.1514 23.9579 0.0000 0.0000 0.0000
# 3 27.4524 23.9579 116.5254 0.0000 0.0000 0.0000
# 4 0.0000 0.0000 0.0000 18.4275 0.0000 0.0000
# 5 0.0000 0.0000 0.0000 0.0000 37.5739 0.0000
# 6 0.0000 0.0000 0.0000 0.0000 0.0000 65.4615
#
#
#
# Elastic Compliance Matrix: (Units=1/GPa)
#
#
# Indices 1 2 3 4 5 6 
#
# 1 0.020237 -0.003529 -0.004042 0.000000 0.000000 0.000000
# 2 -0.003529 0.004302 -0.000053 0.000000 0.000000 0.000000
# 3 -0.004042 -0.000053 0.009545 0.000000 0.000000 0.000000
# 4 0.000000 0.000000 0.000000 0.054267 0.000000 0.000000
# 5 0.000000 0.000000 0.000000 0.000000 0.026614 0.000000
# 6 0.000000 0.000000 0.000000 0.000000 0.000000 0.015276
#
#
# Mechanical properties :
#
#
# Convention : Reuss Voigt Hill
#
# Bulk Modulus (GPa) = 53.08983 73.94472 63.51727
# Shear Modulus (GPa) = 32.94507 47.78978 40.36742
#
# Velocity S-wave (km/s) = 3.44266 4.14635 3.81078
# Velocity P-wave (km/s) = 5.90774 7.03735 6.49714
#
# Compressibility (1/GPa) = 0.01883600
#
# Stress axis : x y z
#
# Youngs Moduli (GPa) = 49.41526 232.43594 104.76639
#
# Poissons Ratio (x) = 0.82019 0.42348
# Poissons Ratio (y) = 0.17437 0.00558
# Poissons Ratio (z) = 0.19974 0.01237
#
# Static dielectric constant tensor:
#      x y z
#    x 2.191940 0.000000 0.000000 
#    y 0.000000 2.263300 0.000000 
#    z 0.000000 0.000000 2.375850 
# 
# From -- ./inp_files/36422.got.cif
#   From: 2010.05.17/outbox.cif.g08.bks.cpg/sg70_19_cif.got.tgz:36422.got - 2010.06.03 15:57:51.
