data_PCOD9514082
_publ_section_title
;
Structure prediction by ZEFSAII (Michael W. Deem and Ramdas Pophale) SiO2 
 PCOD9514082
Probable space group: F D D D
;
_chemical_formula_sum "Si O2"
_cell_formula_units_Z 112
_cell_length_a 28.380138
_cell_length_b 8.080182
_cell_length_c 21.985752
_cell_angle_alpha 90.000000
_cell_angle_beta 90.000000
_cell_angle_gamma 90.000000
_cell_volume 5041.699661
_symmetry_space_group_name_H-M "F D D D"
_symmetry_group_IT_number 70
_space_group.IT_coordinate_system_code '2'
_symmetry_cell_setting 'orthorhombic'
loop_
_space_group_symop_operation_xyz
x,y,z
1/4-x,1/4-y,z
x,1/4-y,1/4-z
1/4-x,y,1/4-z
-x,-y,-z
3/4+x,3/4+y,-z
-x,3/4+y,3/4+z
3/4+x,-y,3/4+z
x,1/2+y,1/2+z
1/4-x,3/4-y,1/2+z
x,3/4-y,3/4-z
1/4-x,1/2+y,3/4-z
-x,1/2-y,1/2-z
3/4+x,1/4+y,1/2-z
-x,1/4+y,1/4+z
3/4+x,1/2-y,1/4+z
1/2+x,y,1/2+z
3/4-x,1/4-y,1/2+z
1/2+x,1/4-y,3/4-z
3/4-x,y,3/4-z
1/2-x,-y,1/2-z
1/4+x,3/4+y,1/2-z
1/2-x,3/4+y,1/4+z
1/4+x,-y,1/4+z
1/2+x,1/2+y,z
3/4-x,3/4-y,z
1/2+x,3/4-y,1/4-z
3/4-x,1/2+y,1/4-z
1/2-x,1/2-y,-z
1/4+x,1/4+y,-z
1/2-x,1/4+y,3/4+z
1/4+x,1/2-y,3/4+z
loop_
_atom_site_type_symbol
_atom_site_label
_atom_site_fract_x
_atom_site_fract_y
_atom_site_fract_z
Si Si1 0.563505 0.372376 0.202847
Si Si2 0.231304 0.892925 0.450615
Si Si3 0.125000 0.625000 0.625000
Si Si4 0.375000 0.375000 0.375000
Si Si5 0.376285 0.176730 0.693452
O O1 0.510305 0.437195 0.208470
O O2 0.590773 0.523393 0.168923
O O3 0.587375 0.225019 0.165703
O O4 0.583244 0.355347 0.269773
O O5 0.233909 0.875000 0.375000
O O6 0.250000 0.750000 0.500000
O O7 0.176169 0.893168 0.466221
O O8 0.371668 0.125000 0.625000
O O9 0.375000 0.375000 0.698578
#
# Coordination Sequence:
#
# PCOD9514082 Si02
#       5
#    32  32   8   8  32
#     4  11  21  44  70 103 141 193 249 299 382 435
#     4  11  22  41  76 110 139 191 264 312 372 464
#     4  10  16  34  74  94 124 180 248 300 340 426
#     4  10  28  38  70 110 152 188 240 328 368 442
#     4  11  24  42  71 104 146 193 239 306 388 449
#
# _framework density 22.214731
#
# number of rings (size 3 to 8) (size 9 to 14) (size 15 to 20)
#    0.000    1.143    5.714    0.000    6.000    0.000 
#    0.000    1.429   15.714    0.000    0.000    0.000 
#    0.000    0.000    0.000    0.000    0.000    0.000 
#
# Total GULP energy -155955.702937 kJ/mol
# GULP energy per Si atom -5569.846533 kJ/mol
# Density = 2.216417 g / cm^3
# Si number density = 22.214731 Si / 1000 Ang^3
#
#
#
# Elastic Constant Matrix: (Units=GPa)
#
#
# Indices 1 2 3 4 5 6 
#
# 1 144.8392 44.8931 24.0194 0.0000 -0.0001 0.0000
# 2 44.8931 94.1379 22.2414 0.0000 -0.0002 0.0000
# 3 24.0194 22.2414 69.8170 0.0000 0.0000 0.0000
# 4 0.0000 0.0000 0.0000 25.2785 0.0000 0.0000
# 5 -0.0001 -0.0002 0.0000 0.0000 63.3006 0.0001
# 6 0.0000 0.0000 0.0000 0.0000 0.0001 29.0622
#
#
#
# Elastic Compliance Matrix: (Units=1/GPa)
#
#
# Indices 1 2 3 4 5 6 
#
# 1 0.008289 -0.003546 -0.001722 0.000000 0.000000 0.000000
# 2 -0.003546 0.013004 -0.002923 0.000000 0.000000 0.000000
# 3 -0.001722 -0.002923 0.015847 0.000000 0.000000 0.000000
# 4 0.000000 0.000000 0.000000 0.039559 0.000000 0.000000
# 5 0.000000 0.000000 0.000000 0.000000 0.015798 0.000000
# 6 0.000000 0.000000 0.000000 0.000000 0.000000 0.034409
#
#
# Mechanical properties :
#
#
# Convention : Reuss Voigt Hill
#
# Bulk Modulus (GPa) = 48.17362 54.56689 51.37025
# Shear Modulus (GPa) = 33.28746 38.03762 35.66254
#
# Velocity S-wave (km/s) = 3.87517 4.14245 4.01104
# Velocity P-wave (km/s) = 6.46182 6.89177 6.68026
#
# Compressibility (1/GPa) = 0.02075825
#
# Stress axis : x y z
#
# Youngs Moduli (GPa) = 120.64384 76.89768 63.10462
#
# Poissons Ratio (x) = 0.27268 0.10867
# Poissons Ratio (y) = 0.42780 0.18444
# Poissons Ratio (z) = 0.20775 0.22476
#
# Static dielectric constant tensor:
#      x y z
#    x 1.798740 0.000000 0.000000 
#    y 0.000000 1.642150 0.000000 
#    z 0.000000 0.000000 1.815440 
# 
# From -- ./inp_files/54072.got.cif
#   From: 2010.05.17/outbox.cif.g08.bks.cpg/sg70_28_cif.got.tgz:54072.got - 2010.06.03 15:57:51.
