data_PCOD9514665
_publ_section_title
;
Structure prediction by ZEFSAII (Michael W. Deem and Ramdas Pophale) SiO2 
 PCOD9514665
Probable space group: F D D D
;
_chemical_formula_sum "Si O2"
_cell_formula_units_Z 240
_cell_length_a 18.903610
_cell_length_b 22.840576
_cell_length_c 29.345662
_cell_angle_alpha 90.000000
_cell_angle_beta 90.000000
_cell_angle_gamma 90.000000
_cell_volume 12670.557139
_symmetry_space_group_name_H-M "F D D D"
_symmetry_group_IT_number 70
_space_group.IT_coordinate_system_code '2'
_symmetry_cell_setting 'orthorhombic'
loop_
_space_group_symop_operation_xyz
x,y,z
1/4-x,1/4-y,z
x,1/4-y,1/4-z
1/4-x,y,1/4-z
-x,-y,-z
3/4+x,3/4+y,-z
-x,3/4+y,3/4+z
3/4+x,-y,3/4+z
x,1/2+y,1/2+z
1/4-x,3/4-y,1/2+z
x,3/4-y,3/4-z
1/4-x,1/2+y,3/4-z
-x,1/2-y,1/2-z
3/4+x,1/4+y,1/2-z
-x,1/4+y,1/4+z
3/4+x,1/2-y,1/4+z
1/2+x,y,1/2+z
3/4-x,1/4-y,1/2+z
1/2+x,1/4-y,3/4-z
3/4-x,y,3/4-z
1/2-x,-y,1/2-z
1/4+x,3/4+y,1/2-z
1/2-x,3/4+y,1/4+z
1/4+x,-y,1/4+z
1/2+x,1/2+y,z
3/4-x,3/4-y,z
1/2+x,3/4-y,1/4-z
3/4-x,1/2+y,1/4-z
1/2-x,1/2-y,-z
1/4+x,1/4+y,-z
1/2-x,1/4+y,3/4+z
1/4+x,1/2-y,3/4+z
loop_
_atom_site_type_symbol
_atom_site_label
_atom_site_fract_x
_atom_site_fract_y
_atom_site_fract_z
Si Si1 0.840304 0.565379 0.598170
Si Si2 0.216448 0.604350 0.321774
Si Si3 0.879177 0.653760 0.323272
Si Si4 0.925928 0.928855 0.015035
Si Si5 0.569902 0.525458 0.667259
Si Si6 0.339951 0.562208 0.748351
Si Si7 0.125000 0.125000 0.735470
Si Si8 0.661201 0.201526 0.376942
O O1 0.835220 0.625000 0.625000
O O2 0.761364 0.538343 0.595267
O O3 0.869458 0.577551 0.547767
O O4 0.896415 0.520537 0.621009
O O5 0.290957 0.573381 0.319750
O O6 0.185016 0.605168 0.271229
O O7 0.217542 0.670432 0.343200
O O8 0.162722 0.572947 0.356438
O O9 0.875000 0.632707 0.375000
O O10 0.827093 0.708326 0.315900
O O11 0.869096 0.601030 0.289082
O O12 0.875000 0.875000 0.002825
O O13 0.926105 0.933324 0.070685
O O14 0.900613 0.992163 0.996911
O O15 0.006121 0.923716 0.997294
O O16 0.625000 0.530518 0.625000
O O17 0.595940 0.572522 0.704450
#
# Coordination Sequence:
#
# PCOD9514665 Si02
#       8
#    32  32  32  32  32  32  16  32
#     4  11  23  40  59  90 127 159 207 252 306 380
#     4  10  20  35  57  91 114 155 200 245 312 346
#     4  11  23  37  58  89 120 150 205 260 298 368
#     4  10  19  39  67  85 117 159 210 251 302 385
#     4  11  23  37  60  83 116 172 208 243 301 365
#     4  10  24  37  61  97 115 160 211 255 317 365
#     4  10  21  36  54  82 126 158 196 248 305 354
#     4   9  18  35  62  84 112 162 198 244 292 362
#
# _framework density 18.941551
#
# number of rings (size 3 to 8) (size 9 to 14) (size 15 to 20)
#    0.000    1.867    1.333    4.200    3.733    2.667 
#    2.400    0.000    0.000    0.000    0.000    0.000 
#    0.000    0.000    0.000    0.000    0.000    0.000 
#
# Total GULP energy -334591.750000 kJ/mol
# GULP energy per Si atom -5576.529167 kJ/mol
# Density = 1.889844 g / cm^3
# Si number density = 18.941551 Si / 1000 Ang^3
#
#
#
# Elastic Constant Matrix: (Units=GPa)
#
#
# Indices 1 2 3 4 5 6 
#
# 1 78.4193 35.7704 22.3524 0.0000 0.0000 0.0000
# 2 35.7704 108.3031 46.6929 0.0000 0.0000 0.0000
# 3 22.3524 46.6929 74.8527 0.0000 0.0000 0.0000
# 4 0.0000 0.0000 0.000022554.4528 0.0000 0.0000
# 5 0.0000 0.0000 0.0000 0.0000 7.4502 0.0000
# 6 0.0000 0.0000 0.0000 0.0000 0.0000 17.5377
#
#
#
# Elastic Compliance Matrix: (Units=1/GPa)
#
#
# Indices 1 2 3 4 5 6 
#
# 1 0.015214 -0.004194 -0.001927 0.000000 0.000000 0.000000
# 2 -0.004194 0.013786 -0.007347 0.000000 0.000000 0.000000
# 3 -0.001927 -0.007347 0.018518 0.000000 0.000000 0.000000
# 4 0.000000 0.000000 0.000000 0.000044 0.000000 0.000000
# 5 0.000000 0.000000 0.000000 0.000000 0.134225 0.000000
# 6 0.000000 0.000000 0.000000 0.000000 0.000000 0.057020
#
#
# Mechanical properties :
#
#
# Convention : Reuss Voigt Hill
#
# Bulk Modulus (GPa) = 48.58655 52.35628 50.47141
# Shear Modulus (GPa) = 18.34152 4526.33878 2272.34015
#
# Velocity S-wave (km/s) = 3.11516 48.93692 34.67367
# Velocity P-wave (km/s) = 6.21655 56.75207 40.36981
#
# Compressibility (1/GPa) = 0.02058183
#
# Stress axis : x y z
#
# Youngs Moduli (GPa) = 65.72727 72.53568 54.00074
#
# Poissons Ratio (x) = 0.30423 0.10406
# Poissons Ratio (y) = 0.27568 0.39676
# Poissons Ratio (z) = 0.12665 0.53295
#
# Static dielectric constant tensor:
#      x y z
#    x 1.774230 0.000000 0.000000 
#    y 0.000000 1.700200 0.000000 
#    z 0.000000 0.000000 1.639790 
# 
# From -- ./inp_files/60563.got.cif
#   From: 2010.05.17/outbox.cif.g08.bks.cpg/sg70_31_cif.got.tgz:60563.got - 2010.06.03 15:57:51.
