data_PCOD9514087
_publ_section_title
;
Structure prediction by ZEFSAII (Michael W. Deem and Ramdas Pophale) SiO2 
 PCOD9514087
Probable space group: F D D D
;
_chemical_formula_sum "Si O2"
_cell_formula_units_Z 120
_cell_length_a 27.835302
_cell_length_b 12.366123
_cell_length_c 15.827810
_cell_angle_alpha 90.000000
_cell_angle_beta 90.000000
_cell_angle_gamma 90.000000
_cell_volume 5448.165951
_symmetry_space_group_name_H-M "F D D D"
_symmetry_group_IT_number 70
_space_group.IT_coordinate_system_code '2'
_symmetry_cell_setting 'orthorhombic'
loop_
_space_group_symop_operation_xyz
x,y,z
1/4-x,1/4-y,z
x,1/4-y,1/4-z
1/4-x,y,1/4-z
-x,-y,-z
3/4+x,3/4+y,-z
-x,3/4+y,3/4+z
3/4+x,-y,3/4+z
x,1/2+y,1/2+z
1/4-x,3/4-y,1/2+z
x,3/4-y,3/4-z
1/4-x,1/2+y,3/4-z
-x,1/2-y,1/2-z
3/4+x,1/4+y,1/2-z
-x,1/4+y,1/4+z
3/4+x,1/2-y,1/4+z
1/2+x,y,1/2+z
3/4-x,1/4-y,1/2+z
1/2+x,1/4-y,3/4-z
3/4-x,y,3/4-z
1/2-x,-y,1/2-z
1/4+x,3/4+y,1/2-z
1/2-x,3/4+y,1/4+z
1/4+x,-y,1/4+z
1/2+x,1/2+y,z
3/4-x,3/4-y,z
1/2+x,3/4-y,1/4-z
3/4-x,1/2+y,1/4-z
1/2-x,1/2-y,-z
1/4+x,1/4+y,-z
1/2-x,1/4+y,3/4+z
1/4+x,1/2-y,3/4+z
loop_
_atom_site_type_symbol
_atom_site_label
_atom_site_fract_x
_atom_site_fract_y
_atom_site_fract_z
Si Si1 0.625000 0.625000 0.905263
Si Si2 0.724202 0.860328 0.475072
Si Si3 0.312176 0.491649 0.515700
Si Si4 0.125964 0.927915 0.025979
Si Si5 0.375000 0.875000 0.875000
O O1 0.665204 0.677380 0.844821
O O2 0.639659 0.528674 0.967365
O O3 0.720975 0.875000 0.375000
O O4 0.750000 0.750000 0.500000
O O5 0.756445 0.959724 0.509736
O O6 0.671167 0.849717 0.512405
O O7 0.328735 0.616734 0.509980
O O8 0.339618 0.443287 0.434192
O O9 0.125000 0.955347 0.125000
#
# Coordination Sequence:
#
# PCOD9514087 Si02
#       5
#    16  32  32  32   8
#     4  11  25  43  63  92 140 182 219 269 349 417
#     4  12  23  40  68 106 133 167 230 293 346 401
#     4  11  21  40  68  99 132 169 226 287 346 395
#     4  12  25  45  66  95 138 186 224 283 341 408
#     4  10  16  36  62 102 126 156 202 288 332 384
#
# _framework density 22.025762
#
# number of rings (size 3 to 8) (size 9 to 14) (size 15 to 20)
#    0.000    0.533    2.667    9.200    0.000    0.000 
#    0.000    8.000    0.000    0.000    0.000    0.000 
#    0.000    0.000    0.000    0.000    0.000    0.000 
#
# Total GULP energy -167816.716820 kJ/mol
# GULP energy per Si atom -5593.890561 kJ/mol
# Density = 2.197563 g / cm^3
# Si number density = 22.025762 Si / 1000 Ang^3
#
#
#
# Elastic Constant Matrix: (Units=GPa)
#
#
# Indices 1 2 3 4 5 6 
#
# 1 74.0550 -0.8504 15.5791 0.0000 0.0000 0.0000
# 2 -0.8504 72.9788 30.6131 0.0000 0.0000 0.0000
# 3 15.5791 30.6131 161.8349 0.0000 0.0000 0.0000
# 4 0.0000 0.0000 0.0000 27.2298 0.0000 0.0000
# 5 0.0000 0.0000 0.0000 0.0000 14.3475 0.0000
# 6 0.0000 0.0000 0.0000 0.0000 0.0000 30.1731
#
#
#
# Elastic Compliance Matrix: (Units=1/GPa)
#
#
# Indices 1 2 3 4 5 6 
#
# 1 0.013823 0.000781 -0.001479 0.000000 0.000000 0.000000
# 2 0.000781 0.014928 -0.002899 0.000000 0.000000 0.000000
# 3 -0.001479 -0.002899 0.006870 0.000000 0.000000 0.000000
# 4 0.000000 0.000000 0.000000 0.036724 0.000000 0.000000
# 5 0.000000 0.000000 0.000000 0.000000 0.069698 0.000000
# 6 0.000000 0.000000 0.000000 0.000000 0.000000 0.033142
#
#
# Mechanical properties :
#
#
# Convention : Reuss Voigt Hill
#
# Bulk Modulus (GPa) = 35.17575 44.39470 39.78522
# Shear Modulus (GPa) = 26.06138 31.91854 28.98996
#
# Velocity S-wave (km/s) = 3.44353 3.81089 3.63186
# Velocity P-wave (km/s) = 5.64052 6.28995 5.97407
#
# Compressibility (1/GPa) = 0.02842868
#
# Stress axis : x y z
#
# Youngs Moduli (GPa) = 72.34063 66.98921 145.56361
#
# Poissons Ratio (x) = -0.05234 0.21522
# Poissons Ratio (y) = -0.05652 0.42199
# Poissons Ratio (z) = 0.10696 0.19420
#
# Static dielectric constant tensor:
#      x y z
#    x 1.781530 0.000000 0.000000 
#    y 0.000000 1.616810 0.000000 
#    z 0.000000 0.000000 1.803180 
# 
# From -- ./inp_files/25511.got.cif
#   From: 2010.05.17/outbox.cif.g08.bks.cpg/sg70_13_cif.got.tgz:25511.got - 2010.06.03 15:57:51.
