data_PCOD9514304
_publ_section_title
;
Structure prediction by ZEFSAII (Michael W. Deem and Ramdas Pophale) SiO2 
 PCOD9514304
Probable space group: F D D D
;
_chemical_formula_sum "Si O2"
_cell_formula_units_Z 112
_cell_length_a 32.810023
_cell_length_b 7.716955
_cell_length_c 21.668799
_cell_angle_alpha 90.000000
_cell_angle_beta 90.000000
_cell_angle_gamma 90.000000
_cell_volume 5486.398432
_symmetry_space_group_name_H-M "F D D D"
_symmetry_group_IT_number 70
_space_group.IT_coordinate_system_code '2'
_symmetry_cell_setting 'orthorhombic'
loop_
_space_group_symop_operation_xyz
x,y,z
1/4-x,1/4-y,z
x,1/4-y,1/4-z
1/4-x,y,1/4-z
-x,-y,-z
3/4+x,3/4+y,-z
-x,3/4+y,3/4+z
3/4+x,-y,3/4+z
x,1/2+y,1/2+z
1/4-x,3/4-y,1/2+z
x,3/4-y,3/4-z
1/4-x,1/2+y,3/4-z
-x,1/2-y,1/2-z
3/4+x,1/4+y,1/2-z
-x,1/4+y,1/4+z
3/4+x,1/2-y,1/4+z
1/2+x,y,1/2+z
3/4-x,1/4-y,1/2+z
1/2+x,1/4-y,3/4-z
3/4-x,y,3/4-z
1/2-x,-y,1/2-z
1/4+x,3/4+y,1/2-z
1/2-x,3/4+y,1/4+z
1/4+x,-y,1/4+z
1/2+x,1/2+y,z
3/4-x,3/4-y,z
1/2+x,3/4-y,1/4-z
3/4-x,1/2+y,1/4-z
1/2-x,1/2-y,-z
1/4+x,1/4+y,-z
1/2-x,1/4+y,3/4+z
1/4+x,1/2-y,3/4+z
loop_
_atom_site_type_symbol
_atom_site_label
_atom_site_fract_x
_atom_site_fract_y
_atom_site_fract_z
Si Si1 0.671013 0.085662 0.755371
Si Si2 0.767236 0.318351 0.137951
Si Si3 0.663819 0.004432 0.934101
Si Si4 0.546766 0.125000 0.625000
O O1 0.625000 0.125000 0.776697
O O2 0.705009 0.166972 0.800380
O O3 0.677323 0.152414 0.686539
O O4 0.674543 0.877543 0.761311
O O5 0.798280 0.376399 0.083918
O O6 0.732219 0.461377 0.138808
O O7 0.752801 0.125000 0.125000
O O8 0.657285 0.875000 0.875000
O O9 0.625000 0.125000 0.944698
#
# Coordination Sequence:
#
# PCOD9514304 Si02
#       4
#    32  32  32  16
#     4  11  23  42  65  89 130 171 207 260 314 376
#     4  11  22  40  69  94 123 161 214 264 313 365
#     4  10  18  35  64  98 123 157 214 269 308 365
#     4  12  25  44  60  92 136 168 204 258 324 376
#
# _framework density 20.414121999999999
#
# number of rings (size 3 to 8) (size 9 to 14) (size 15 to 20)
#    0.000    1.143    4.286    7.286    0.000    1.143 
#    5.143    0.000    0.000    0.000    0.000    0.000 
#    0.000    0.000    0.000    0.000    0.000    0.000 
#
# Total GULP energy -156475.278532 kJ/mol
# GULP energy per Si atom -5588.402805 kJ/mol
# Density = 2.036766 g / cm^3
# Si number density = 20.414122 Si / 1000 Ang^3
#
#
#
# Elastic Constant Matrix: (Units=GPa)
#
#
# Indices 1 2 3 4 5 6 
#
# 1 47.0529 15.9161 8.4104 0.0000 0.0000 0.0000
# 2 15.9161 116.3505 13.7879 0.0001 -0.0002 -0.0001
# 3 8.4104 13.7879 75.8279 0.0000 0.0000 0.0000
# 4 0.0000 0.0001 0.0000 12.8498 0.0000 0.0000
# 5 0.0000 -0.0002 0.0000 0.0000 -4.7526 0.0000
# 6 0.0000 -0.0001 0.0000 0.0000 0.0000 18.9412
#
#
#
# Elastic Compliance Matrix: (Units=1/GPa)
#
#
# Indices 1 2 3 4 5 6 
#
# 1 0.022572 -0.002853 -0.001985 0.000000 0.000000 0.000000
# 2 -0.002853 0.009144 -0.001346 0.000000 0.000000 0.000000
# 3 -0.001985 -0.001346 0.013653 0.000000 0.000000 0.000000
# 4 0.000000 0.000000 0.000000 0.077822 0.000000 0.000000
# 5 0.000000 0.000000 0.000000 0.000000 -0.210410 0.000000
# 6 0.000000 0.000000 0.000000 0.000000 0.000000 0.052795
#
#
# Mechanical properties :
#
#
# Convention : Reuss Voigt Hill
#
# Bulk Modulus (GPa) = 30.30129 35.05113 32.67621
# Shear Modulus (GPa) = -452.27551 18.81548 -216.73002
#
# Velocity S-wave (km/s) = -14.90071 3.03923 -10.31490
# Velocity P-wave (km/s) = 16.76801 5.43352 11.21702
#
# Compressibility (1/GPa) = 0.03300190
#
# Stress axis : x y z
#
# Youngs Moduli (GPa) = 44.30189 109.35558 73.24547
#
# Poissons Ratio (x) = 0.31194 0.14539
# Poissons Ratio (y) = 0.12637 0.09861
# Poissons Ratio (z) = 0.08794 0.14723
#
# Static dielectric constant tensor:
#      x y z
#    x 1.720020 0.000000 0.000000 
#    y 0.000000 1.794400 0.000000 
#    z 0.000000 0.000000 1.759830 
# 
# From -- ./inp_files/54045.got.cif
#   From: 2010.05.17/outbox.cif.g08.bks.cpg/sg70_28_cif.got.tgz:54045.got - 2010.06.03 15:57:51.
