data_PCOD9514514
_publ_section_title
;
Structure prediction by ZEFSAII (Michael W. Deem and Ramdas Pophale) SiO2 
 PCOD9514514
Probable space group: F D D D
;
_chemical_formula_sum "Si O2"
_cell_formula_units_Z 240
_cell_length_a 31.966433
_cell_length_b 15.794293
_cell_length_c 25.186088
_cell_angle_alpha 90.000000
_cell_angle_beta 90.000000
_cell_angle_gamma 90.000000
_cell_volume 12716.133675
_symmetry_space_group_name_H-M "F D D D"
_symmetry_group_IT_number 70
_space_group.IT_coordinate_system_code '2'
_symmetry_cell_setting 'orthorhombic'
loop_
_space_group_symop_operation_xyz
x,y,z
1/4-x,1/4-y,z
x,1/4-y,1/4-z
1/4-x,y,1/4-z
-x,-y,-z
3/4+x,3/4+y,-z
-x,3/4+y,3/4+z
3/4+x,-y,3/4+z
x,1/2+y,1/2+z
1/4-x,3/4-y,1/2+z
x,3/4-y,3/4-z
1/4-x,1/2+y,3/4-z
-x,1/2-y,1/2-z
3/4+x,1/4+y,1/2-z
-x,1/4+y,1/4+z
3/4+x,1/2-y,1/4+z
1/2+x,y,1/2+z
3/4-x,1/4-y,1/2+z
1/2+x,1/4-y,3/4-z
3/4-x,y,3/4-z
1/2-x,-y,1/2-z
1/4+x,3/4+y,1/2-z
1/2-x,3/4+y,1/4+z
1/4+x,-y,1/4+z
1/2+x,1/2+y,z
3/4-x,3/4-y,z
1/2+x,3/4-y,1/4-z
3/4-x,1/2+y,1/4-z
1/2-x,1/2-y,-z
1/4+x,1/4+y,-z
1/2-x,1/4+y,3/4+z
1/4+x,1/2-y,3/4+z
loop_
_atom_site_type_symbol
_atom_site_label
_atom_site_fract_x
_atom_site_fract_y
_atom_site_fract_z
Si Si1 0.685128 0.126710 0.318029
Si Si2 0.620325 0.766835 0.789320
Si Si3 0.051572 0.464927 0.554910
Si Si4 0.507078 0.634305 0.017373
Si Si5 0.389060 0.062562 0.266604
Si Si6 0.772841 0.052039 0.923749
Si Si7 0.183703 0.534933 0.429147
Si Si8 0.071733 0.875000 0.375000
O O1 0.661517 0.214324 0.304754
O O2 0.734644 0.135909 0.312637
O O3 0.675275 0.095240 0.378542
O O4 0.664629 0.055669 0.280295
O O5 0.622877 0.840184 0.746086
O O6 0.601886 0.819813 0.838358
O O7 0.030699 0.554580 0.542084
O O8 0.101478 0.472324 0.552059
O O9 0.034703 0.438751 0.612300
O O10 0.035306 0.400847 0.509059
O O11 0.505497 0.708972 0.060345
O O12 0.535164 0.668612 0.968772
O O13 0.434512 0.063514 0.293506
O O14 0.394990 0.001644 0.214536
O O15 0.203211 0.446325 0.407137
#
# Coordination Sequence:
#
# PCOD9514514 Si02
#       8
#    32  32  32  32  32  32  32  16
#     4  10  19  35  58  84 119 146 196 250 300 346
#     4   9  19  34  54  87 110 146 190 248 297 352
#     4  11  22  39  56  86 119 159 199 243 295 365
#     4  10  22  37  57  84 121 154 198 243 296 352
#     4  10  22  37  58  82 117 158 201 240 300 361
#     4  11  22  38  58  85 117 162 195 246 290 365
#     4   9  18  35  53  83 114 148 190 245 294 346
#     4   8  16  30  52  80 110 141 187 234 296 346
#
# _framework density 18.873661999999999
#
# number of rings (size 3 to 8) (size 9 to 14) (size 15 to 20)
#    0.000    2.133    1.333    1.600    0.000    8.000 
#    2.400    2.667    0.000    0.000    0.000    3.733 
#    0.000    0.000    0.000    0.000    0.000    0.000 
#
# Total GULP energy -334232.210056 kJ/mol
# GULP energy per Si atom -5570.536834 kJ/mol
# Density = 1.883070 g / cm^3
# Si number density = 18.873662 Si / 1000 Ang^3
#
#
#
# Elastic Constant Matrix: (Units=GPa)
#
#
# Indices 1 2 3 4 5 6 
#
# 1 108.2475 25.6152 19.8428 0.0000 0.0000 0.0000
# 2 25.6152 61.8142 6.2960 0.0000 0.0000 0.0000
# 3 19.8428 6.2960 36.2468 0.0000 0.0000 0.0000
# 4 0.0000 0.0000 0.0000 28.4314 0.0000 0.0000
# 5 0.0000 0.0000 0.0000 0.0000 15.2274 0.0000
# 6 0.0000 0.0000 0.0000 0.0000 0.0000 16.6146
#
#
#
# Elastic Compliance Matrix: (Units=1/GPa)
#
#
# Indices 1 2 3 4 5 6 
#
# 1 0.011199 -0.004089 -0.005421 0.000000 0.000000 0.000000
# 2 -0.004089 0.017962 -0.000882 0.000000 0.000000 0.000000
# 3 -0.005421 -0.000882 0.030709 0.000000 0.000000 0.000000
# 4 0.000000 0.000000 0.000000 0.035172 0.000000 0.000000
# 5 0.000000 0.000000 0.000000 0.000000 0.065671 0.000000
# 6 0.000000 0.000000 0.000000 0.000000 0.000000 0.060188
#
#
# Mechanical properties :
#
#
# Convention : Reuss Voigt Hill
#
# Bulk Modulus (GPa) = 25.58319 34.42407 30.00363
# Shear Modulus (GPa) = 19.62991 22.35831 20.99411
#
# Velocity S-wave (km/s) = 3.22851 3.44558 3.33881
# Velocity P-wave (km/s) = 5.24234 5.84022 5.54934
#
# Compressibility (1/GPa) = 0.03908817
#
# Stress axis : x y z
#
# Youngs Moduli (GPa) = 89.29126 55.67415 32.56345
#
# Poissons Ratio (x) = 0.22764 0.17652
# Poissons Ratio (y) = 0.36509 0.02871
# Poissons Ratio (z) = 0.48402 0.04908
#
# Static dielectric constant tensor:
#      x y z
#    x 1.648810 0.000000 0.000000 
#    y 0.000000 1.683040 0.000000 
#    z 0.000000 0.000000 1.689450 
# 
# From -- ./inp_files/69101.got.cif
#   From: 2010.05.17/outbox.cif.g08.bks.cpg/sg70_35_cif.got.tgz:69101.got - 2010.06.03 15:57:51.
