data_PCOD9514663
_publ_section_title
;
Structure prediction by ZEFSAII (Michael W. Deem and Ramdas Pophale) SiO2 
 PCOD9514663
Probable space group: F D D D
;
_chemical_formula_sum "Si O2"
_cell_formula_units_Z 160
_cell_length_a 28.010404
_cell_length_b 15.832626
_cell_length_c 18.714894
_cell_angle_alpha 90.000000
_cell_angle_beta 90.000000
_cell_angle_gamma 90.000000
_cell_volume 8299.648452
_symmetry_space_group_name_H-M "F D D D"
_symmetry_group_IT_number 70
_space_group.IT_coordinate_system_code '2'
_symmetry_cell_setting 'orthorhombic'
loop_
_space_group_symop_operation_xyz
x,y,z
1/4-x,1/4-y,z
x,1/4-y,1/4-z
1/4-x,y,1/4-z
-x,-y,-z
3/4+x,3/4+y,-z
-x,3/4+y,3/4+z
3/4+x,-y,3/4+z
x,1/2+y,1/2+z
1/4-x,3/4-y,1/2+z
x,3/4-y,3/4-z
1/4-x,1/2+y,3/4-z
-x,1/2-y,1/2-z
3/4+x,1/4+y,1/2-z
-x,1/4+y,1/4+z
3/4+x,1/2-y,1/4+z
1/2+x,y,1/2+z
3/4-x,1/4-y,1/2+z
1/2+x,1/4-y,3/4-z
3/4-x,y,3/4-z
1/2-x,-y,1/2-z
1/4+x,3/4+y,1/2-z
1/2-x,3/4+y,1/4+z
1/4+x,-y,1/4+z
1/2+x,1/2+y,z
3/4-x,3/4-y,z
1/2+x,3/4-y,1/4-z
3/4-x,1/2+y,1/4-z
1/2-x,1/2-y,-z
1/4+x,1/4+y,-z
1/2-x,1/4+y,3/4+z
1/4+x,1/2-y,3/4+z
loop_
_atom_site_type_symbol
_atom_site_label
_atom_site_fract_x
_atom_site_fract_y
_atom_site_fract_z
Si Si1 0.028575 0.142812 0.878706
Si Si2 0.904113 0.292745 0.746673
Si Si3 0.431188 0.691952 0.560711
Si Si4 0.574980 0.893446 0.089903
Si Si5 0.583746 0.468067 0.872295
O O1 0.051454 0.179474 0.803879
O O2 0.043749 0.218103 0.931168
O O3 0.972122 0.134015 0.886146
O O4 0.052304 0.050642 0.885687
O O5 0.875000 0.375000 0.766951
O O6 0.919879 0.240093 0.814445
O O7 0.866378 0.237413 0.698715
O O8 0.444004 0.625000 0.625000
O O9 0.438427 0.652862 0.483800
O O10 0.375100 0.710529 0.568947
O O11 0.625000 0.866885 0.125000
O O12 0.560059 0.375000 0.875000
#
# Coordination Sequence:
#
# PCOD9514663 Si02
#       5
#    32  32  32  32  32
#     4  10  21  36  65  91 117 165 211 243 306 383
#     4   9  18  35  60  91 121 157 200 244 313 383
#     4  10  19  39  64  85 123 169 197 248 312 376
#     4  12  24  38  57  94 134 154 201 268 310 351
#     4   9  16  36  68  86 109 163 215 247 295 380
#
# _framework density 19.277926000000001
#
# number of rings (size 3 to 8) (size 9 to 14) (size 15 to 20)
#    0.000    2.000    6.000    2.400    0.000    3.600 
#    0.000    1.000    4.400    0.000    0.000    0.000 
#    0.000    0.000    0.000    0.000    0.000    0.000 
#
# Total GULP energy -222801.221851 kJ/mol
# GULP energy per Si atom -5570.030546 kJ/mol
# Density = 1.923405 g / cm^3
# Si number density = 19.277926 Si / 1000 Ang^3
#
#
#
# Elastic Constant Matrix: (Units=GPa)
#
#
# Indices 1 2 3 4 5 6 
#
# 1 90.9052 53.9993 4.2076 0.0000 0.0000 0.0000
# 2 53.9993 152.1919 22.5384 0.0000 0.0000 0.0000
# 3 4.2076 22.5384 22.2851 0.0000 0.0000 0.0000
# 4 0.0000 0.0000 0.0000 13.2641 0.0000 0.0000
# 5 0.0000 0.0000 0.0000 0.0000 4.9111 0.0000
# 6 0.0000 0.0000 0.0000 0.0000 0.0000 35.5177
#
#
#
# Elastic Compliance Matrix: (Units=1/GPa)
#
#
# Indices 1 2 3 4 5 6 
#
# 1 0.014087 -0.005415 0.002817 0.000000 0.000000 0.000000
# 2 -0.005415 0.009810 -0.008899 0.000000 0.000000 0.000000
# 3 0.002817 -0.008899 0.053341 0.000000 0.000000 0.000000
# 4 0.000000 0.000000 0.000000 0.075391 0.000000 0.000000
# 5 0.000000 0.000000 0.000000 0.000000 0.203621 0.000000
# 6 0.000000 0.000000 0.000000 0.000000 0.000000 0.028155
#
#
# Mechanical properties :
#
#
# Convention : Reuss Voigt Hill
#
# Bulk Modulus (GPa) = 18.43526 47.43031 32.93279
# Shear Modulus (GPa) = 11.75139 23.04771 17.39955
#
# Velocity S-wave (km/s) = 2.47164 3.46142 3.00753
# Velocity P-wave (km/s) = 4.21058 6.37433 5.40190
#
# Compressibility (1/GPa) = 0.05424388
#
# Stress axis : x y z
#
# Youngs Moduli (GPa) = 70.98786 101.93709 18.74720
#
# Poissons Ratio (x) = 0.55203 -0.05282
# Poissons Ratio (y) = 0.38443 0.16683
# Poissons Ratio (z) = -0.19999 0.90714
#
# Static dielectric constant tensor:
#      x y z
#    x 1.683880 0.000000 0.000000 
#    y 0.000000 1.708960 0.000000 
#    z 0.000000 0.000000 1.764630 
# 
# From -- ./inp_files/38430.got.cif
#   From: 2010.05.17/outbox.cif.g08.bks.cpg/sg70_20_cif.got.tgz:38430.got - 2010.06.03 15:57:51.
