data_PCOD9514256
_publ_section_title
;
Structure prediction by ZEFSAII (Michael W. Deem and Ramdas Pophale) SiO2 
 PCOD9514256
Probable space group: F D D D
;
_chemical_formula_sum "Si O2"
_cell_formula_units_Z 192
_cell_length_a 23.032423
_cell_length_b 29.021302
_cell_length_c 14.227317
_cell_angle_alpha 90.000000
_cell_angle_beta 90.000000
_cell_angle_gamma 90.000000
_cell_volume 9509.978359
_symmetry_space_group_name_H-M "F D D D"
_symmetry_group_IT_number 70
_space_group.IT_coordinate_system_code '2'
_symmetry_cell_setting 'orthorhombic'
loop_
_space_group_symop_operation_xyz
x,y,z
1/4-x,1/4-y,z
x,1/4-y,1/4-z
1/4-x,y,1/4-z
-x,-y,-z
3/4+x,3/4+y,-z
-x,3/4+y,3/4+z
3/4+x,-y,3/4+z
x,1/2+y,1/2+z
1/4-x,3/4-y,1/2+z
x,3/4-y,3/4-z
1/4-x,1/2+y,3/4-z
-x,1/2-y,1/2-z
3/4+x,1/4+y,1/2-z
-x,1/4+y,1/4+z
3/4+x,1/2-y,1/4+z
1/2+x,y,1/2+z
3/4-x,1/4-y,1/2+z
1/2+x,1/4-y,3/4-z
3/4-x,y,3/4-z
1/2-x,-y,1/2-z
1/4+x,3/4+y,1/2-z
1/2-x,3/4+y,1/4+z
1/4+x,-y,1/4+z
1/2+x,1/2+y,z
3/4-x,3/4-y,z
1/2+x,3/4-y,1/4-z
3/4-x,1/2+y,1/4-z
1/2-x,1/2-y,-z
1/4+x,1/4+y,-z
1/2-x,1/4+y,3/4+z
1/4+x,1/2-y,3/4+z
loop_
_atom_site_type_symbol
_atom_site_label
_atom_site_fract_x
_atom_site_fract_y
_atom_site_fract_z
Si Si1 0.749733 0.895986 0.272851
Si Si2 0.294401 0.555290 0.949774
Si Si3 0.423201 0.471785 0.171956
Si Si4 0.084113 0.875000 0.875000
Si Si5 0.171831 0.290902 0.987649
Si Si6 0.104679 0.302889 0.732800
Si Si7 0.625000 0.625000 0.458561
O O1 0.736354 0.875000 0.375000
O O2 0.721801 0.859074 0.200788
O O3 0.714303 0.941944 0.250169
O O4 0.819036 0.894696 0.263782
O O5 0.234108 0.531397 0.978482
O O6 0.351422 0.547061 0.011496
O O7 0.309486 0.539820 0.844844
O O8 0.379870 0.505022 0.227988
O O9 0.399234 0.420378 0.157172
O O10 0.435049 0.496201 0.072851
O O11 0.052224 0.835693 0.814637
O O12 0.118408 0.905937 0.797718
O O13 0.125000 0.308494 0.625000
#
# Coordination Sequence:
#
# PCOD9514256 Si02
#       7
#    32  32  32  16  32  32  16
#     4  11  20  37  59  86 121 157 198 248 304 367
#     4  10  20  35  60  87 118 157 192 247 313 362
#     4  10  23  39  56  85 119 157 206 251 300 366
#     4  10  18  34  56  93 118 143 194 260 296 356
#     4  10  19  36  62  85 116 155 198 247 312 358
#     4  11  21  35  60  90 118 151 203 259 304 358
#     4  10  25  40  56  79 120 174 202 243 310 368
#
# _framework density 20.189322000000001
#
# number of rings (size 3 to 8) (size 9 to 14) (size 15 to 20)
#    0.000    1.667    2.500    2.750    0.000    4.667 
#    0.000    1.667    0.000    2.000    0.000    0.000 
#    0.000    0.000    0.000    0.000    0.000    0.000 
#
# Total GULP energy -267562.054080 kJ/mol
# GULP energy per Si atom -5574.209460 kJ/mol
# Density = 2.014337 g / cm^3
# Si number density = 20.189322 Si / 1000 Ang^3
#
#
#
# Elastic Constant Matrix: (Units=GPa)
#
#
# Indices 1 2 3 4 5 6 
#
# 1 109.4760 30.1307 -1.1466 0.0000 0.0000 0.0000
# 2 30.1307 110.2507 24.4117 0.0000 0.0000 0.0000
# 3 -1.1466 24.4117 85.5158 0.0000 0.0000 0.0000
# 4 0.0000 0.0000 0.0000 20.5947 0.0000 0.0000
# 5 0.0000 0.0000 0.0000 0.0000 12.3660 0.0000
# 6 0.0000 0.0000 0.0000 0.0000 0.0000 29.8772
#
#
#
# Elastic Compliance Matrix: (Units=1/GPa)
#
#
# Indices 1 2 3 4 5 6 
#
# 1 0.009952 -0.002935 0.000971 0.000000 0.000000 0.000000
# 2 -0.002935 0.010548 -0.003050 0.000000 0.000000 0.000000
# 3 0.000971 -0.003050 0.012578 0.000000 0.000000 0.000000
# 4 0.000000 0.000000 0.000000 0.048556 0.000000 0.000000
# 5 0.000000 0.000000 0.000000 0.000000 0.080867 0.000000
# 6 0.000000 0.000000 0.000000 0.000000 0.000000 0.033470
#
#
# Mechanical properties :
#
#
# Convention : Reuss Voigt Hill
#
# Bulk Modulus (GPa) = 43.38479 45.78156 44.58317
# Shear Modulus (GPa) = 23.39920 29.35737 26.37829
#
# Velocity S-wave (km/s) = 3.40809 3.81741 3.61854
# Velocity P-wave (km/s) = 6.08460 6.49273 6.29197
#
# Compressibility (1/GPa) = 0.02304955
#
# Stress axis : x y z
#
# Youngs Moduli (GPa) = 100.47858 94.80697 79.50688
#
# Poissons Ratio (x) = 0.27825 -0.07722
# Poissons Ratio (y) = 0.29490 0.24252
# Poissons Ratio (z) = -0.09759 0.28919
#
# Static dielectric constant tensor:
#      x y z
#    x 1.789000 0.000000 0.000000 
#    y 0.000000 1.722050 0.000000 
#    z 0.000000 0.000000 1.715230 
# 
# From -- ./inp_files/28998.got.cif
#   From: 2010.05.17/outbox.cif.g08.bks.cpg/sg70_15_cif.got.tgz:28998.got - 2010.06.03 15:57:51.
