data_PCOD9514542
_publ_section_title
;
Structure prediction by ZEFSAII (Michael W. Deem and Ramdas Pophale) SiO2 
 PCOD9514542
Probable space group: F D D D
;
_chemical_formula_sum "Si O2"
_cell_formula_units_Z 208
_cell_length_a 19.211530
_cell_length_b 23.847759
_cell_length_c 27.218909
_cell_angle_alpha 90.000000
_cell_angle_beta 90.000000
_cell_angle_gamma 90.000000
_cell_volume 12470.395894
_symmetry_space_group_name_H-M "F D D D"
_symmetry_group_IT_number 70
_space_group.IT_coordinate_system_code '2'
_symmetry_cell_setting 'orthorhombic'
loop_
_space_group_symop_operation_xyz
x,y,z
1/4-x,1/4-y,z
x,1/4-y,1/4-z
1/4-x,y,1/4-z
-x,-y,-z
3/4+x,3/4+y,-z
-x,3/4+y,3/4+z
3/4+x,-y,3/4+z
x,1/2+y,1/2+z
1/4-x,3/4-y,1/2+z
x,3/4-y,3/4-z
1/4-x,1/2+y,3/4-z
-x,1/2-y,1/2-z
3/4+x,1/4+y,1/2-z
-x,1/4+y,1/4+z
3/4+x,1/2-y,1/4+z
1/2+x,y,1/2+z
3/4-x,1/4-y,1/2+z
1/2+x,1/4-y,3/4-z
3/4-x,y,3/4-z
1/2-x,-y,1/2-z
1/4+x,3/4+y,1/2-z
1/2-x,3/4+y,1/4+z
1/4+x,-y,1/4+z
1/2+x,1/2+y,z
3/4-x,3/4-y,z
1/2+x,3/4-y,1/4-z
3/4-x,1/2+y,1/4-z
1/2-x,1/2-y,-z
1/4+x,1/4+y,-z
1/2-x,1/4+y,3/4+z
1/4+x,1/2-y,3/4+z
loop_
_atom_site_type_symbol
_atom_site_label
_atom_site_fract_x
_atom_site_fract_y
_atom_site_fract_z
Si Si1 0.007330 0.547062 0.307049
Si Si2 0.456380 0.860082 0.318850
Si Si3 0.625000 0.125000 0.335874
Si Si4 0.501359 0.235303 0.828491
Si Si5 0.395949 0.313472 0.068550
Si Si6 0.219179 0.941652 0.507506
Si Si7 0.386150 0.143147 0.816275
O O1 0.061137 0.598395 0.307836
O O2 0.002371 0.520619 0.362057
O O3 0.037361 0.499613 0.271568
O O4 0.930782 0.572388 0.297110
O O5 0.475839 0.875000 0.375000
O O6 0.375000 0.875000 0.313630
O O7 0.469339 0.794033 0.312468
O O8 0.501761 0.896635 0.281794
O O9 0.597792 0.173011 0.373476
O O10 0.580351 0.226632 0.810617
O O11 0.453328 0.183674 0.811760
O O12 0.375000 0.375000 0.048016
O O13 0.468370 0.297255 0.045787
O O14 0.155325 0.912853 0.536272
O O15 0.375000 0.132748 0.875000
#
# Coordination Sequence:
#
# PCOD9514542 Si02
#       7
#    32  32  16  32  32  32  32
#     4  10  20  35  56  75 101 137 180 220 280 319
#     4  11  23  32  45  75 122 157 176 207 264 316
#     4   8  18  40  58  70 100 142 170 228 272 330
#     4  10  19  36  50  71 109 154 172 216 255 317
#     4   9  17  32  53  75 101 139 187 208 251 303
#     4  12  21  33  52  84 105 139 185 225 260 334
#     4  10  21  35  54  79 110 139 184 225 268 312
#
# _framework density 16.679503
#
# number of rings (size 3 to 8) (size 9 to 14) (size 15 to 20)
#    0.462    1.385    3.077    2.308    6.462    0.615 
#    0.000    0.769    0.000    0.000    0.000    2.692 
#    0.000    0.000    0.000    0.000    0.000    0.000 
#
# Total GULP energy -289937.798061 kJ/mol
# GULP energy per Si atom -5575.726886 kJ/mol
# Density = 1.664154 g / cm^3
# Si number density = 16.679503 Si / 1000 Ang^3
#
#
#
# Elastic Constant Matrix: (Units=GPa)
#
#
# Indices 1 2 3 4 5 6 
#
# 1 53.9694 42.3229 19.5177 0.0000 0.0000 0.0000
# 2 42.3229 83.6486 24.0220 0.0000 0.0000 0.0000
# 3 19.5177 24.0220 46.8978 0.0000 0.0000 0.0000
# 4 0.0000 0.0000 0.0000 13.2831 0.0000 0.0000
# 5 0.0000 0.0000 0.0000 0.0000 13.3969 0.0000
# 6 0.0000 0.0000 0.0000 0.0000 0.0000 31.3616
#
#
#
# Elastic Compliance Matrix: (Units=1/GPa)
#
#
# Indices 1 2 3 4 5 6 
#
# 1 0.032051 -0.014522 -0.005900 0.000000 0.000000 0.000000
# 2 -0.014522 0.020596 -0.004506 0.000000 0.000000 0.000000
# 3 -0.005900 -0.004506 0.026087 0.000000 0.000000 0.000000
# 4 0.000000 0.000000 0.000000 0.075284 0.000000 0.000000
# 5 0.000000 0.000000 0.000000 0.000000 0.074644 0.000000
# 6 0.000000 0.000000 0.000000 0.000000 0.000000 0.031886
#
#
# Mechanical properties :
#
#
# Convention : Reuss Voigt Hill
#
# Bulk Modulus (GPa) = 34.62970 39.58234 37.10602
# Shear Modulus (GPa) = 15.62347 18.18520 16.90433
#
# Velocity S-wave (km/s) = 3.06385 3.30551 3.18697
# Velocity P-wave (km/s) = 5.77262 6.19283 5.98642
#
# Compressibility (1/GPa) = 0.02887695
#
# Stress axis : x y z
#
# Youngs Moduli (GPa) = 31.20011 48.55195 38.33372
#
# Poissons Ratio (x) = 0.70508 0.22618
# Poissons Ratio (y) = 0.45309 0.17274
# Poissons Ratio (z) = 0.18409 0.21878
#
# Static dielectric constant tensor:
#      x y z
#    x 1.554670 0.000000 0.000000 
#    y 0.000000 1.558690 0.000000 
#    z 0.000000 0.000000 1.612350 
# 
# From -- ./inp_files/59719.got.cif
#   From: 2010.05.17/outbox.cif.g08.bks.cpg/sg70_30_cif.got.tgz:59719.got - 2010.06.03 15:57:51.
