data_PCOD9514697
_publ_section_title
;
Structure prediction by ZEFSAII (Michael W. Deem and Ramdas Pophale) SiO2 
 PCOD9514697
Probable space group: F D D D
;
_chemical_formula_sum "Si O2"
_cell_formula_units_Z 184
_cell_length_a 22.033190
_cell_length_b 18.824535
_cell_length_c 21.602454
_cell_angle_alpha 90.000000
_cell_angle_beta 90.000000
_cell_angle_gamma 90.000000
_cell_volume 8959.932249
_symmetry_space_group_name_H-M "F D D D"
_symmetry_group_IT_number 70
_space_group.IT_coordinate_system_code '2'
_symmetry_cell_setting 'orthorhombic'
loop_
_space_group_symop_operation_xyz
x,y,z
1/4-x,1/4-y,z
x,1/4-y,1/4-z
1/4-x,y,1/4-z
-x,-y,-z
3/4+x,3/4+y,-z
-x,3/4+y,3/4+z
3/4+x,-y,3/4+z
x,1/2+y,1/2+z
1/4-x,3/4-y,1/2+z
x,3/4-y,3/4-z
1/4-x,1/2+y,3/4-z
-x,1/2-y,1/2-z
3/4+x,1/4+y,1/2-z
-x,1/4+y,1/4+z
3/4+x,1/2-y,1/4+z
1/2+x,y,1/2+z
3/4-x,1/4-y,1/2+z
1/2+x,1/4-y,3/4-z
3/4-x,y,3/4-z
1/2-x,-y,1/2-z
1/4+x,3/4+y,1/2-z
1/2-x,3/4+y,1/4+z
1/4+x,-y,1/4+z
1/2+x,1/2+y,z
3/4-x,3/4-y,z
1/2+x,3/4-y,1/4-z
3/4-x,1/2+y,1/4-z
1/2-x,1/2-y,-z
1/4+x,1/4+y,-z
1/2-x,1/4+y,3/4+z
1/4+x,1/2-y,3/4+z
loop_
_atom_site_type_symbol
_atom_site_label
_atom_site_fract_x
_atom_site_fract_y
_atom_site_fract_z
Si Si1 0.261553 0.529602 0.661080
Si Si2 0.444494 0.354544 0.737244
Si Si3 0.027019 0.766298 0.985932
Si Si4 0.625000 0.625000 0.625000
Si Si5 0.715288 0.647425 0.515976
Si Si6 0.663304 0.979541 0.291125
Si Si7 0.111265 0.375000 0.375000
O O1 0.205054 0.566063 0.695651
O O2 0.280118 0.455185 0.690859
O O3 0.259667 0.519489 0.587287
O O4 0.315228 0.587486 0.672886
O O5 0.375000 0.375000 0.727643
O O6 0.484668 0.425750 0.732335
O O7 0.098909 0.782329 0.992210
O O8 0.022748 0.685579 0.009208
O O9 0.672725 0.661606 0.576737
O O10 0.678393 0.687404 0.461479
O O11 0.779899 0.686300 0.515417
O O12 0.651894 0.941041 0.355694
#
# Coordination Sequence:
#
# PCOD9514697 Si02
#       7
#    32  32  32   8  32  32  16
#     4  10  22  41  62  92 127 172 215 271 322 404
#     4  11  24  40  66  98 128 169 224 274 336 380
#     4  11  22  45  63  91 135 169 217 275 319 411
#     4  12  22  44  60 104 126 168 202 302 310 398
#     4  11  24  40  67  94 134 164 220 268 336 391
#     4  10  21  42  63  93 122 177 208 258 329 398
#     4  10  19  40  71  83 131 174 214 272 318 401
#
# _framework density 20.535869999999999
#
# number of rings (size 3 to 8) (size 9 to 14) (size 15 to 20)
#    0.000    1.391    5.217    0.522    2.435    4.174 
#    6.261    0.000    0.000    0.000    0.000    0.000 
#    0.000    0.000    0.000    0.000    0.000    0.000 
#
# Total GULP energy -256094.381848 kJ/mol
# GULP energy per Si atom -5567.269171 kJ/mol
# Density = 2.048913 g / cm^3
# Si number density = 20.535870 Si / 1000 Ang^3
#
#
#
# Elastic Constant Matrix: (Units=GPa)
#
#
# Indices 1 2 3 4 5 6 
#
# 1 96.6766 54.8718 -10.5848 0.0000 0.0000 0.0000
# 2 54.8718 172.3098 26.5504 0.0000 0.0000 0.0000
# 3 -10.5848 26.5504 32.5191 0.0000 0.0000 0.0000
# 4 0.0000 0.0000 0.0000 31.9900 0.0000 0.0000
# 5 0.0000 0.0000 0.0000 0.0000 12.0953 0.0000
# 6 0.0000 0.0000 0.0000 0.0000 0.0000 -185.8279
#
#
#
# Elastic Compliance Matrix: (Units=1/GPa)
#
#
# Indices 1 2 3 4 5 6 
#
# 1 0.015049 -0.006345 0.010079 0.000000 0.000000 0.000000
# 2 -0.006345 0.009314 -0.009670 0.000000 0.000000 0.000000
# 3 0.010079 -0.009670 0.041927 0.000000 0.000000 0.000000
# 4 0.000000 0.000000 0.000000 0.031260 0.000000 0.000000
# 5 0.000000 0.000000 0.000000 0.000000 0.082677 0.000000
# 6 0.000000 0.000000 0.000000 0.000000 0.000000 -0.005381
#
#
# Mechanical properties :
#
#
# Convention : Reuss Voigt Hill
#
# Bulk Modulus (GPa) = 18.37658 49.24225 33.80941
# Shear Modulus (GPa) = 24.40736 -12.97064 5.71836
#
# Velocity S-wave (km/s) = 3.45124 -2.51591 1.67051
# Velocity P-wave (km/s) = 4.98491 3.94854 4.49668
#
# Compressibility (1/GPa) = 0.05441708
#
# Stress axis : x y z
#
# Youngs Moduli (GPa) = 66.45096 107.36392 23.85109
#
# Poissons Ratio (x) = 0.68125 -0.24039
# Poissons Ratio (y) = 0.42165 0.23064
# Poissons Ratio (z) = -0.66975 1.03820
#
# Static dielectric constant tensor:
#      x y z
#    x 1.781100 0.000000 0.000000 
#    y 0.000000 1.760430 0.000000 
#    z 0.000000 0.000000 1.815170 
# 
# From -- ./inp_files/53717.got.cif
#   From: 2010.05.17/outbox.cif.g08.bks.cpg/sg70_27_cif.got.tgz:53717.got - 2010.06.03 15:57:51.
