data_PCOD9514359
_publ_section_title
;
Structure prediction by ZEFSAII (Michael W. Deem and Ramdas Pophale) SiO2 
 PCOD9514359
Probable space group: F D D D
;
_chemical_formula_sum "Si O2"
_cell_formula_units_Z 96
_cell_length_a 27.606131
_cell_length_b 17.378233
_cell_length_c 8.385484
_cell_angle_alpha 90.000000
_cell_angle_beta 90.000000
_cell_angle_gamma 90.000000
_cell_volume 4022.900535
_symmetry_space_group_name_H-M "F D D D"
_symmetry_group_IT_number 70
_space_group.IT_coordinate_system_code '2'
_symmetry_cell_setting 'orthorhombic'
loop_
_space_group_symop_operation_xyz
x,y,z
1/4-x,1/4-y,z
x,1/4-y,1/4-z
1/4-x,y,1/4-z
-x,-y,-z
3/4+x,3/4+y,-z
-x,3/4+y,3/4+z
3/4+x,-y,3/4+z
x,1/2+y,1/2+z
1/4-x,3/4-y,1/2+z
x,3/4-y,3/4-z
1/4-x,1/2+y,3/4-z
-x,1/2-y,1/2-z
3/4+x,1/4+y,1/2-z
-x,1/4+y,1/4+z
3/4+x,1/2-y,1/4+z
1/2+x,y,1/2+z
3/4-x,1/4-y,1/2+z
1/2+x,1/4-y,3/4-z
3/4-x,y,3/4-z
1/2-x,-y,1/2-z
1/4+x,3/4+y,1/2-z
1/2-x,3/4+y,1/4+z
1/4+x,-y,1/4+z
1/2+x,1/2+y,z
3/4-x,3/4-y,z
1/2+x,3/4-y,1/4-z
3/4-x,1/2+y,1/4-z
1/2-x,1/2-y,-z
1/4+x,1/4+y,-z
1/2-x,1/4+y,3/4+z
1/4+x,1/2-y,3/4+z
loop_
_atom_site_type_symbol
_atom_site_label
_atom_site_fract_x
_atom_site_fract_y
_atom_site_fract_z
Si Si1 0.323971 0.167961 0.454928
Si Si2 0.107065 0.712318 0.402059
Si Si3 0.801624 0.218760 0.458045
O O1 0.318686 0.125000 0.625000
O O2 0.375000 0.147232 0.375000
O O3 0.326406 0.257402 0.499848
O O4 0.290587 0.120459 0.336563
O O5 0.125000 0.625000 0.398935
O O6 0.156371 0.764041 0.412311
O O7 0.074812 0.734770 0.556273
O O8 0.750000 0.250000 0.500000
#
# Coordination Sequence:
#
# PCOD9514359 Si02
#       3
#    32  32  32
#     4  10  18  38  67  92 127 181 230 273 357 409
#     4  10  21  41  62  96 136 173 225 294 354 409
#     4  10  19  37  66  98 127 181 235 274 333 434
#
# _framework density 23.863379999999999
#
# number of rings (size 3 to 8) (size 9 to 14) (size 15 to 20)
#    0.000    2.000    6.667    2.000    0.000    0.667 
#   12.000    1.667   14.667    0.000    0.000    0.000 
#    0.000    0.000    0.000    0.000    0.000    0.000 
#
# Total GULP energy -133725.352949 kJ/mol
# GULP energy per Si atom -5571.889706 kJ/mol
# Density = 2.380907 g / cm^3
# Si number density = 23.863380 Si / 1000 Ang^3
#
#
#
# Elastic Constant Matrix: (Units=GPa)
#
#
# Indices 1 2 3 4 5 6 
#
# 1 112.3318 26.6197 26.8642 0.0000 0.0000 0.0000
# 2 26.6197 177.4736 45.9294 0.0001 0.0000 0.0000
# 3 26.8642 45.9294 45.5277 0.0002 0.0000 0.0000
# 4 0.0000 0.0001 0.0002 29.5641 0.0000 0.0000
# 5 0.0000 0.0000 0.0000 0.0000 7.2042 0.0000
# 6 0.0000 0.0000 0.0000 0.0000 0.0000 33.8857
#
#
#
# Elastic Compliance Matrix: (Units=1/GPa)
#
#
# Indices 1 2 3 4 5 6 
#
# 1 0.010365 0.000038 -0.006154 0.000000 0.000000 0.000000
# 2 0.000038 0.007626 -0.007715 0.000000 0.000000 0.000000
# 3 -0.006154 -0.007715 0.033380 0.000000 0.000000 0.000000
# 4 0.000000 0.000000 0.000000 0.033825 0.000000 0.000000
# 5 0.000000 0.000000 0.000000 0.000000 0.138808 0.000000
# 6 0.000000 0.000000 0.000000 0.000000 0.000000 0.029511
#
#
# Mechanical properties :
#
#
# Convention : Reuss Voigt Hill
#
# Bulk Modulus (GPa) = 42.18201 59.35109 50.76655
# Shear Modulus (GPa) = 17.29624 29.85878 23.57751
#
# Velocity S-wave (km/s) = 2.69514 3.54112 3.14669
# Velocity P-wave (km/s) = 5.23449 6.45326 5.87556
#
# Compressibility (1/GPa) = 0.02370679
#
# Stress axis : x y z
#
# Youngs Moduli (GPa) = 96.47846 131.13651 29.95840
#
# Poissons Ratio (x) = -0.00499 0.18438
# Poissons Ratio (y) = -0.00367 0.23114
# Poissons Ratio (z) = 0.59377 1.01177
#
# Static dielectric constant tensor:
#      x y z
#    x 1.878410 0.000000 0.000000 
#    y 0.000000 2.027290 0.000000 
#    z 0.000000 0.000000 2.069240 
# 
# From -- ./inp_files/20124.got.cif
#   From: 2010.05.17/outbox.cif.g08.bks.cpg/sg70_11_cif.got.tgz:20124.got - 2010.06.03 15:57:51.
