data_PCOD9514301
_publ_section_title
;
Structure prediction by ZEFSAII (Michael W. Deem and Ramdas Pophale) SiO2 
 PCOD9514301
Probable space group: F D D D
;
_chemical_formula_sum "Si O2"
_cell_formula_units_Z 232
_cell_length_a 22.248550
_cell_length_b 28.475582
_cell_length_c 17.962448
_cell_angle_alpha 90.000000
_cell_angle_beta 90.000000
_cell_angle_gamma 90.000000
_cell_volume 11379.936669
_symmetry_space_group_name_H-M "F D D D"
_symmetry_group_IT_number 70
_space_group.IT_coordinate_system_code '2'
_symmetry_cell_setting 'orthorhombic'
loop_
_space_group_symop_operation_xyz
x,y,z
1/4-x,1/4-y,z
x,1/4-y,1/4-z
1/4-x,y,1/4-z
-x,-y,-z
3/4+x,3/4+y,-z
-x,3/4+y,3/4+z
3/4+x,-y,3/4+z
x,1/2+y,1/2+z
1/4-x,3/4-y,1/2+z
x,3/4-y,3/4-z
1/4-x,1/2+y,3/4-z
-x,1/2-y,1/2-z
3/4+x,1/4+y,1/2-z
-x,1/4+y,1/4+z
3/4+x,1/2-y,1/4+z
1/2+x,y,1/2+z
3/4-x,1/4-y,1/2+z
1/2+x,1/4-y,3/4-z
3/4-x,y,3/4-z
1/2-x,-y,1/2-z
1/4+x,3/4+y,1/2-z
1/2-x,3/4+y,1/4+z
1/4+x,-y,1/4+z
1/2+x,1/2+y,z
3/4-x,3/4-y,z
1/2+x,3/4-y,1/4-z
3/4-x,1/2+y,1/4-z
1/2-x,1/2-y,-z
1/4+x,1/4+y,-z
1/2-x,1/4+y,3/4+z
1/4+x,1/2-y,3/4+z
loop_
_atom_site_type_symbol
_atom_site_label
_atom_site_fract_x
_atom_site_fract_y
_atom_site_fract_z
Si Si1 0.708424 0.306931 0.541037
Si Si2 0.789817 0.956987 0.844544
Si Si3 0.053809 0.624063 0.856095
Si Si4 0.004012 0.424601 0.007819
Si Si5 0.553121 0.511667 0.610497
Si Si6 0.877842 0.646163 0.462806
Si Si7 0.125000 0.125000 0.125000
Si Si8 0.261114 0.044726 0.992180
O O1 0.732566 0.300365 0.457746
O O2 0.685130 0.257167 0.569748
O O3 0.765291 0.328727 0.587705
O O4 0.657818 0.345692 0.540379
O O5 0.832270 0.911785 0.832318
O O6 0.771015 0.961387 0.929844
O O7 0.125000 0.625000 0.845001
O O8 0.039105 0.605247 0.938693
O O9 0.025622 0.584452 0.802401
O O10 0.031734 0.468513 0.056381
O O11 0.064317 0.394913 0.997191
O O12 0.971465 0.443661 0.934757
O O13 0.625000 0.514184 0.625000
O O14 0.520784 0.500027 0.688924
O O15 0.875000 0.660127 0.375000
O O16 0.922829 0.682535 0.501846
#
# Coordination Sequence:
#
# PCOD9514301 Si02
#       8
#    32  32  32  32  32  32   8  32
#     4  10  24  43  65  89 128 166 228 269 328 395
#     4  11  26  42  62  97 120 170 210 273 334 389
#     4  10  21  37  62  94 127 174 214 266 329 406
#     4  10  19  34  64  95 122 176 222 258 340 391
#     4  10  18  35  62  98 129 166 220 279 319 400
#     4  11  17  38  67  92 123 174 221 270 328 402
#     4  12  24  40  68  88 128 160 200 258 338 396
#     4  10  20  38  64  89 129 165 218 274 332 390
#
# _framework density 20.386758
#
# number of rings (size 3 to 8) (size 9 to 14) (size 15 to 20)
#    0.000    1.655    5.517    1.655    4.828    1.103 
#    2.483    0.000    3.034    2.897    0.000    0.000 
#    0.000    0.000    0.000    0.000    0.000    0.000 
#
# Total GULP energy -323680.492503 kJ/mol
# GULP energy per Si atom -5580.698147 kJ/mol
# Density = 2.034036 g / cm^3
# Si number density = 20.386758 Si / 1000 Ang^3
#
#
#
# Elastic Constant Matrix: (Units=GPa)
#
#
# Indices 1 2 3 4 5 6 
#
# 1 106.5435 29.8327 35.5140 0.0000 0.0000 0.0000
# 2 29.8327 88.2534 43.0432 0.0000 0.0000 0.0000
# 3 35.5140 43.0432 93.6357 0.0000 0.0000 0.0000
# 4 0.0000 0.0000 0.0000 4.0282 0.0000 0.0000
# 5 0.0000 0.0000 0.0000 0.0000 13.6255 0.0000
# 6 0.0000 0.0000 0.0000 0.0000 0.0000 27.4602
#
#
#
# Elastic Compliance Matrix: (Units=1/GPa)
#
#
# Indices 1 2 3 4 5 6 
#
# 1 0.011061 -0.002182 -0.003192 0.000000 0.000000 0.000000
# 2 -0.002182 0.015036 -0.006084 0.000000 0.000000 0.000000
# 3 -0.003192 -0.006084 0.014687 0.000000 0.000000 0.000000
# 4 0.000000 0.000000 0.000000 0.248253 0.000000 0.000000
# 5 0.000000 0.000000 0.000000 0.000000 0.073392 0.000000
# 6 0.000000 0.000000 0.000000 0.000000 0.000000 0.036416
#
#
# Mechanical properties :
#
#
# Convention : Reuss Voigt Hill
#
# Bulk Modulus (GPa) = 55.96823 56.13472 56.05148
# Shear Modulus (GPa) = 11.68995 21.02561 16.35778
#
# Velocity S-wave (km/s) = 2.39719 3.21493 2.83569
# Velocity P-wave (km/s) = 5.93084 6.43239 6.18670
#
# Compressibility (1/GPa) = 0.01786728
#
# Stress axis : x y z
#
# Youngs Moduli (GPa) = 90.40906 66.50671 68.08640
#
# Poissons Ratio (x) = 0.14513 0.21734
# Poissons Ratio (y) = 0.19728 0.41426
# Poissons Ratio (z) = 0.28859 0.40464
#
# Static dielectric constant tensor:
#      x y z
#    x 1.750450 0.000000 0.000000 
#    y 0.000000 1.765610 0.000000 
#    z 0.000000 0.000000 1.726930 
# 
# From -- ./inp_files/37866.got.cif
#   From: 2010.05.17/outbox.cif.g08.bks.cpg/sg70_19_cif.got.tgz:37866.got - 2010.06.03 15:57:51.
