data_PCOD9514518
_publ_section_title
;
Structure prediction by ZEFSAII (Michael W. Deem and Ramdas Pophale) SiO2 
 PCOD9514518
Probable space group: F D D D
;
_chemical_formula_sum "Si O2"
_cell_formula_units_Z 160
_cell_length_a 10.847434
_cell_length_b 27.831499
_cell_length_c 22.220405
_cell_angle_alpha 90.000000
_cell_angle_beta 90.000000
_cell_angle_gamma 90.000000
_cell_volume 6708.348014
_symmetry_space_group_name_H-M "F D D D"
_symmetry_group_IT_number 70
_space_group.IT_coordinate_system_code '2'
_symmetry_cell_setting 'orthorhombic'
loop_
_space_group_symop_operation_xyz
x,y,z
1/4-x,1/4-y,z
x,1/4-y,1/4-z
1/4-x,y,1/4-z
-x,-y,-z
3/4+x,3/4+y,-z
-x,3/4+y,3/4+z
3/4+x,-y,3/4+z
x,1/2+y,1/2+z
1/4-x,3/4-y,1/2+z
x,3/4-y,3/4-z
1/4-x,1/2+y,3/4-z
-x,1/2-y,1/2-z
3/4+x,1/4+y,1/2-z
-x,1/4+y,1/4+z
3/4+x,1/2-y,1/4+z
1/2+x,y,1/2+z
3/4-x,1/4-y,1/2+z
1/2+x,1/4-y,3/4-z
3/4-x,y,3/4-z
1/2-x,-y,1/2-z
1/4+x,3/4+y,1/2-z
1/2-x,3/4+y,1/4+z
1/4+x,-y,1/4+z
1/2+x,1/2+y,z
3/4-x,3/4-y,z
1/2+x,3/4-y,1/4-z
3/4-x,1/2+y,1/4-z
1/2-x,1/2-y,-z
1/4+x,1/4+y,-z
1/2-x,1/4+y,3/4+z
1/4+x,1/2-y,3/4+z
loop_
_atom_site_type_symbol
_atom_site_label
_atom_site_fract_x
_atom_site_fract_y
_atom_site_fract_z
Si Si1 0.026058 0.431760 0.574689
Si Si2 0.490619 0.819730 0.550414
Si Si3 0.090095 0.823217 0.454448
Si Si4 0.359816 0.067574 0.066504
Si Si5 0.897351 0.479990 0.941569
O O1 0.125000 0.446437 0.625000
O O2 0.070711 0.442938 0.507628
O O3 0.885297 0.448992 0.579863
O O4 0.015271 0.373309 0.573247
O O5 0.490139 0.818241 0.476686
O O6 0.601468 0.784175 0.563702
O O7 0.078533 0.881018 0.450219
O O8 0.147993 0.812177 0.388365
O O9 0.959993 0.799689 0.474358
O O10 0.459456 0.027823 0.046545
O O11 0.875000 0.457585 0.875000
#
# Coordination Sequence:
#
# PCOD9514518 Si02
#       5
#    32  32  32  32  32
#     4  10  22  42  57  82 121 163 203 242 293 374
#     4  10  21  38  61  86 118 156 206 246 303 354
#     4   9  19  36  60  87 118 156 192 239 310 354
#     4   9  18  36  61  91 118 147 193 252 298 362
#     4  10  19  35  59  90 121 147 193 249 299 360
#
# _framework density 23.85088
#
# number of rings (size 3 to 8) (size 9 to 14) (size 15 to 20)
#    0.000    2.400    0.000    1.800    0.000    4.000 
#   25.200    4.000    0.000    0.000    0.000    0.000 
#    0.000    0.000    0.000    0.000    0.000    0.000 
#
# Total GULP energy -222989.907319 kJ/mol
# GULP energy per Si atom -5574.747683 kJ/mol
# Density = 2.379659 g / cm^3
# Si number density = 23.850880 Si / 1000 Ang^3
#
#
#
# Elastic Constant Matrix: (Units=GPa)
#
#
# Indices 1 2 3 4 5 6 
#
# 1 75.9510 -9.3998 20.9933 0.0000 0.0000 0.0000
# 2 -9.3998 61.5288 -11.4736 0.0000 0.0000 0.0000
# 3 20.9933 -11.4736 97.8292 0.0000 0.0000 0.0000
# 4 0.0000 0.0000 0.0000 6.3206 0.0000 0.0000
# 5 0.0000 0.0000 0.0000 0.0000 32.8329 0.0000
# 6 0.0000 0.0000 0.0000 0.0000 0.0000 19.3485
#
#
#
# Elastic Compliance Matrix: (Units=1/GPa)
#
#
# Indices 1 2 3 4 5 6 
#
# 1 0.014155 0.001632 -0.002846 0.000000 0.000000 0.000000
# 2 0.001632 0.016804 0.001621 0.000000 0.000000 0.000000
# 3 -0.002846 0.001621 0.011023 0.000000 0.000000 0.000000
# 4 0.000000 0.000000 0.000000 0.158213 0.000000 0.000000
# 5 0.000000 0.000000 0.000000 0.000000 0.030457 0.000000
# 6 0.000000 0.000000 0.000000 0.000000 0.000000 0.051683
#
#
# Mechanical properties :
#
#
# Convention : Reuss Voigt Hill
#
# Bulk Modulus (GPa) = 23.36762 26.17208 24.76985
# Shear Modulus (GPa) = 16.90403 27.37968 22.14186
#
# Velocity S-wave (km/s) = 2.66510 3.39182 3.05018
# Velocity P-wave (km/s) = 4.39193 5.13189 4.77626
#
# Compressibility (1/GPa) = 0.04279426
#
# Stress axis : x y z
#
# Youngs Moduli (GPa) = 70.64630 59.50943 90.72158
#
# Poissons Ratio (x) = -0.09710 0.25821
# Poissons Ratio (y) = -0.11528 -0.14703
# Poissons Ratio (z) = 0.20107 -0.09644
#
# Static dielectric constant tensor:
#      x y z
#    x 1.975940 0.000000 0.000000 
#    y 0.000000 1.936040 0.000000 
#    z 0.000000 0.000000 2.046020 
# 
# From -- ./inp_files/50301.got.cif
#   From: 2010.05.17/outbox.cif.g08.bks.cpg/sg70_26_cif.got.tgz:50301.got - 2010.06.03 15:57:51.
