data_PCOD9514204
_publ_section_title
;
Structure prediction by ZEFSAII (Michael W. Deem and Ramdas Pophale) SiO2 
 PCOD9514204
Probable space group: F D D D
;
_chemical_formula_sum "Si O2"
_cell_formula_units_Z 176
_cell_length_a 11.347160
_cell_length_b 23.030455
_cell_length_c 32.171319
_cell_angle_alpha 90.000000
_cell_angle_beta 90.000000
_cell_angle_gamma 90.000000
_cell_volume 8407.339087
_symmetry_space_group_name_H-M "F D D D"
_symmetry_group_IT_number 70
_space_group.IT_coordinate_system_code '2'
_symmetry_cell_setting 'orthorhombic'
loop_
_space_group_symop_operation_xyz
x,y,z
1/4-x,1/4-y,z
x,1/4-y,1/4-z
1/4-x,y,1/4-z
-x,-y,-z
3/4+x,3/4+y,-z
-x,3/4+y,3/4+z
3/4+x,-y,3/4+z
x,1/2+y,1/2+z
1/4-x,3/4-y,1/2+z
x,3/4-y,3/4-z
1/4-x,1/2+y,3/4-z
-x,1/2-y,1/2-z
3/4+x,1/4+y,1/2-z
-x,1/4+y,1/4+z
3/4+x,1/2-y,1/4+z
1/2+x,y,1/2+z
3/4-x,1/4-y,1/2+z
1/2+x,1/4-y,3/4-z
3/4-x,y,3/4-z
1/2-x,-y,1/2-z
1/4+x,3/4+y,1/2-z
1/2-x,3/4+y,1/4+z
1/4+x,-y,1/4+z
1/2+x,1/2+y,z
3/4-x,3/4-y,z
1/2+x,3/4-y,1/4-z
3/4-x,1/2+y,1/4-z
1/2-x,1/2-y,-z
1/4+x,1/4+y,-z
1/2-x,1/4+y,3/4+z
1/4+x,1/2-y,3/4+z
loop_
_atom_site_type_symbol
_atom_site_label
_atom_site_fract_x
_atom_site_fract_y
_atom_site_fract_z
Si Si1 0.698773 0.544045 0.461855
Si Si2 0.957459 0.952467 0.111243
Si Si3 0.949956 0.166059 0.760045
Si Si4 0.228017 0.668562 0.708844
Si Si5 0.207410 0.426569 0.087860
Si Si6 0.125000 0.198732 0.125000
O O1 0.685986 0.548777 0.411417
O O2 0.570305 0.546409 0.484307
O O3 0.760884 0.601855 0.476802
O O4 0.775396 0.486805 0.470956
O O5 0.832640 0.956841 0.089424
O O6 0.016037 0.891840 0.097059
O O7 0.038705 0.006848 0.101074
O O8 0.865440 0.157537 0.720041
O O9 0.859287 0.185853 0.795403
O O10 0.125000 0.625000 0.726333
O O11 0.204527 0.667618 0.659380
O O12 0.125000 0.447526 0.125000
#
# Coordination Sequence:
#
# PCOD9514204 Si02
#       6
#    32  32  32  32  32  16
#     4  10  20  40  64  86 125 162 198 250 324 377
#     4  10  18  31  59  88 120 164 191 246 313 382
#     4  11  21  37  61  95 124 154 197 260 321 378
#     4  11  25  41  61  85 117 167 211 257 298 368
#     4  11  16  29  55  94 127 145 190 244 319 385
#     4  10  21  44  58  74 112 172 220 246 297 358
#
# _framework density 20.934092
#
# number of rings (size 3 to 8) (size 9 to 14) (size 15 to 20)
#    0.000    1.455    4.545    3.000    2.545    0.727 
#    3.273    0.000    0.000    0.000    0.000    0.000 
#    0.000    0.000    0.000    0.000    0.000    0.000 
#
# Total GULP energy -245247.052609 kJ/mol
# GULP energy per Si atom -5573.796650 kJ/mol
# Density = 2.088644 g / cm^3
# Si number density = 20.934092 Si / 1000 Ang^3
#
#
#
# Elastic Constant Matrix: (Units=GPa)
#
#
# Indices 1 2 3 4 5 6 
#
# 1 150.1285 21.8409 54.3134 0.0000 0.0000 0.0000
# 2 21.8409 55.4241 16.2989 0.0000 0.0000 0.0000
# 3 54.3134 16.2989 88.5246 0.0000 0.0000 0.0000
# 4 0.0000 0.0000 0.0000 1.0574 0.0000 0.0000
# 5 0.0000 0.0000 0.0000 0.0000 39.4720 0.0000
# 6 0.0000 0.0000 0.0000 0.0000 0.0000 162.9096
#
#
#
# Elastic Compliance Matrix: (Units=1/GPa)
#
#
# Indices 1 2 3 4 5 6 
#
# 1 0.008762 -0.001979 -0.005011 0.000000 0.000000 0.000000
# 2 -0.001979 0.019523 -0.002380 0.000000 0.000000 0.000000
# 3 -0.005011 -0.002380 0.014809 0.000000 0.000000 0.000000
# 4 0.000000 0.000000 0.000000 0.945740 0.000000 0.000000
# 5 0.000000 0.000000 0.000000 0.000000 0.025334 0.000000
# 6 0.000000 0.000000 0.000000 0.000000 0.000000 0.006138
#
#
# Mechanical properties :
#
#
# Convention : Reuss Voigt Hill
#
# Bulk Modulus (GPa) = 41.06379 53.22040 47.14210
# Shear Modulus (GPa) = 4.77480 54.12940 29.45210
#
# Velocity S-wave (km/s) = 1.51189 5.09050 3.75493
# Velocity P-wave (km/s) = 4.76509 7.74783 6.43176
#
# Compressibility (1/GPa) = 0.02435236
#
# Stress axis : x y z
#
# Youngs Moduli (GPa) = 114.13047 51.22285 67.52543
#
# Poissons Ratio (x) = 0.10137 0.33840
# Poissons Ratio (y) = 0.22587 0.16072
# Poissons Ratio (z) = 0.57195 0.12192
#
# Static dielectric constant tensor:
#      x y z
#    x 1.813360 0.000000 0.000000 
#    y 0.000000 1.854300 0.000000 
#    z 0.000000 0.000000 2.757830 
# 
# From -- ./inp_files/19667.got.cif
#   From: 2010.05.17/outbox.cif.g08.bks.cpg/sg70_10_cif.got.tgz:19667.got - 2010.06.03 15:57:51.
