data_PCOD9514782
_publ_section_title
;
Structure prediction by ZEFSAII (Michael W. Deem and Ramdas Pophale) SiO2 
 PCOD9514782
Probable space group: F D D D
;
_chemical_formula_sum "Si O2"
_cell_formula_units_Z 240
_cell_length_a 25.630451
_cell_length_b 24.084043
_cell_length_c 21.350445
_cell_angle_alpha 90.000000
_cell_angle_beta 90.000000
_cell_angle_gamma 90.000000
_cell_volume 13179.306965
_symmetry_space_group_name_H-M "F D D D"
_symmetry_group_IT_number 70
_space_group.IT_coordinate_system_code '2'
_symmetry_cell_setting 'orthorhombic'
loop_
_space_group_symop_operation_xyz
x,y,z
1/4-x,1/4-y,z
x,1/4-y,1/4-z
1/4-x,y,1/4-z
-x,-y,-z
3/4+x,3/4+y,-z
-x,3/4+y,3/4+z
3/4+x,-y,3/4+z
x,1/2+y,1/2+z
1/4-x,3/4-y,1/2+z
x,3/4-y,3/4-z
1/4-x,1/2+y,3/4-z
-x,1/2-y,1/2-z
3/4+x,1/4+y,1/2-z
-x,1/4+y,1/4+z
3/4+x,1/2-y,1/4+z
1/2+x,y,1/2+z
3/4-x,1/4-y,1/2+z
1/2+x,1/4-y,3/4-z
3/4-x,y,3/4-z
1/2-x,-y,1/2-z
1/4+x,3/4+y,1/2-z
1/2-x,3/4+y,1/4+z
1/4+x,-y,1/4+z
1/2+x,1/2+y,z
3/4-x,3/4-y,z
1/2+x,3/4-y,1/4-z
3/4-x,1/2+y,1/4-z
1/2-x,1/2-y,-z
1/4+x,1/4+y,-z
1/2-x,1/4+y,3/4+z
1/4+x,1/2-y,3/4+z
loop_
_atom_site_type_symbol
_atom_site_label
_atom_site_fract_x
_atom_site_fract_y
_atom_site_fract_z
Si Si1 0.471060 0.665386 0.761590
Si Si2 0.239950 0.453281 0.558996
Si Si3 0.718763 0.375000 0.375000
Si Si4 0.977577 0.770109 0.815899
Si Si5 0.647023 0.899090 0.987475
Si Si6 0.578219 0.014030 0.210063
Si Si7 0.305287 0.466910 0.317647
Si Si8 0.626194 0.787411 0.054057
O O1 0.482173 0.612885 0.805459
O O2 0.414887 0.657841 0.728813
O O3 0.467119 0.722400 0.799944
O O4 0.516620 0.672008 0.711124
O O5 0.245071 0.478175 0.628368
O O6 0.287819 0.468864 0.513966
O O7 0.183181 0.475696 0.535160
O O8 0.753178 0.419927 0.338115
O O9 0.681137 0.345393 0.324706
O O10 0.915199 0.764087 0.808418
O O11 0.000000 0.750000 0.750000
O O12 0.650760 0.836252 0.012510
O O13 0.665275 0.946968 0.035527
O O14 0.637479 0.036977 0.214042
O O15 0.559616 0.034075 0.142202
O O16 0.625000 0.810745 0.125000
#
# Coordination Sequence:
#
# PCOD9514782 Si02
#       8
#    32  32  16  32  32  32  32  32
#     4   9  20  37  56  84 118 152 195 238 299 357
#     4  10  21  37  58  86 112 159 200 245 295 365
#     4  12  22  36  61  92 116 157 198 256 320 364
#     4  11  22  39  59  91 123 154 202 260 313 360
#     4  10  20  34  58  86 113 148 197 247 287 360
#     4  10  20  34  58  86 119 151 200 235 297 358
#     4   9  20  36  57  87 118 159 185 243 294 361
#     4   9  20  36  60  83 110 156 198 247 306 357
#
# _framework density 18.210366
#
# number of rings (size 3 to 8) (size 9 to 14) (size 15 to 20)
#    0.000    2.133    2.667    0.000    7.467    3.200 
#    0.000    4.333    0.000    0.000    3.467    0.000 
#    0.000    0.000    0.000    0.000    0.000    0.000 
#
# Total GULP energy -334402.006234 kJ/mol
# GULP energy per Si atom -5573.366771 kJ/mol
# Density = 1.816892 g / cm^3
# Si number density = 18.210366 Si / 1000 Ang^3
#
#
#
# Elastic Constant Matrix: (Units=GPa)
#
#
# Indices 1 2 3 4 5 6 
#
# 1 89.1656 36.2646 48.4163 0.0000 0.0000 0.0000
# 2 36.2646 64.2399 21.5174 0.0000 0.0000 0.0000
# 3 48.4163 21.5174 72.7801 0.0000 0.0000 0.0000
# 4 0.0000 0.0000 0.0000 28.0091 0.0000 0.0000
# 5 0.0000 0.0000 0.0000 0.0000 27.6312 0.0000
# 6 0.0000 0.0000 0.0000 0.0000 0.0000 27.0551
#
#
#
# Elastic Compliance Matrix: (Units=1/GPa)
#
#
# Indices 1 2 3 4 5 6 
#
# 1 0.020562 -0.007798 -0.011373 0.000000 0.000000 0.000000
# 2 -0.007798 0.020235 -0.000795 0.000000 0.000000 0.000000
# 3 -0.011373 -0.000795 0.021541 0.000000 0.000000 0.000000
# 4 0.000000 0.000000 0.000000 0.035703 0.000000 0.000000
# 5 0.000000 0.000000 0.000000 0.000000 0.036191 0.000000
# 6 0.000000 0.000000 0.000000 0.000000 0.000000 0.036962
#
#
# Mechanical properties :
#
#
# Convention : Reuss Voigt Hill
#
# Bulk Modulus (GPa) = 44.63154 48.73136 46.68145
# Shear Modulus (GPa) = 22.87332 24.53824 23.70578
#
# Velocity S-wave (km/s) = 3.54794 3.67480 3.61192
# Velocity P-wave (km/s) = 6.43008 6.69506 6.56391
#
# Compressibility (1/GPa) = 0.02240568
#
# Stress axis : x y z
#
# Youngs Moduli (GPa) = 48.63247 49.41899 46.42300
#
# Poissons Ratio (x) = 0.38538 0.52799
# Poissons Ratio (y) = 0.37925 0.03690
# Poissons Ratio (z) = 0.55312 0.03928
#
# Static dielectric constant tensor:
#      x y z
#    x 1.658310 0.000000 0.000000 
#    y 0.000000 1.641860 0.000000 
#    z 0.000000 0.000000 1.607180 
# 
# From -- ./inp_files/47191.got.cif
#   From: 2010.05.17/outbox.cif.g08.bks.cpg/sg70_24_cif.got.tgz:47191.got - 2010.06.03 15:57:51.
