data_PCOD9514373
_publ_section_title
;
Structure prediction by ZEFSAII (Michael W. Deem and Ramdas Pophale) SiO2 
 PCOD9514373
Probable space group: F D D D
;
_chemical_formula_sum "Si O2"
_cell_formula_units_Z 112
_cell_length_a 17.214341
_cell_length_b 32.016547
_cell_length_c 9.363283
_cell_angle_alpha 90.000000
_cell_angle_beta 90.000000
_cell_angle_gamma 90.000000
_cell_volume 5160.514977
_symmetry_space_group_name_H-M "F D D D"
_symmetry_group_IT_number 70
_space_group.IT_coordinate_system_code '2'
_symmetry_cell_setting 'orthorhombic'
loop_
_space_group_symop_operation_xyz
x,y,z
1/4-x,1/4-y,z
x,1/4-y,1/4-z
1/4-x,y,1/4-z
-x,-y,-z
3/4+x,3/4+y,-z
-x,3/4+y,3/4+z
3/4+x,-y,3/4+z
x,1/2+y,1/2+z
1/4-x,3/4-y,1/2+z
x,3/4-y,3/4-z
1/4-x,1/2+y,3/4-z
-x,1/2-y,1/2-z
3/4+x,1/4+y,1/2-z
-x,1/4+y,1/4+z
3/4+x,1/2-y,1/4+z
1/2+x,y,1/2+z
3/4-x,1/4-y,1/2+z
1/2+x,1/4-y,3/4-z
3/4-x,y,3/4-z
1/2-x,-y,1/2-z
1/4+x,3/4+y,1/2-z
1/2-x,3/4+y,1/4+z
1/4+x,-y,1/4+z
1/2+x,1/2+y,z
3/4-x,3/4-y,z
1/2+x,3/4-y,1/4-z
3/4-x,1/2+y,1/4-z
1/2-x,1/2-y,-z
1/4+x,1/4+y,-z
1/2-x,1/4+y,3/4+z
1/4+x,1/2-y,3/4+z
loop_
_atom_site_type_symbol
_atom_site_label
_atom_site_fract_x
_atom_site_fract_y
_atom_site_fract_z
Si Si1 0.875000 0.547156 0.875000
Si Si2 0.484404 0.918217 0.959153
Si Si3 0.384667 0.974494 0.636406
Si Si4 0.547800 0.281224 0.558678
O O1 0.802828 0.576116 0.827011
O O2 0.890419 0.514615 0.744154
O O3 0.476113 0.875000 0.875000
O O4 0.512651 0.948364 0.833025
O O5 0.407053 0.936714 0.031481
O O6 0.473008 0.966512 0.590369
O O7 0.330616 0.987945 0.505192
O O8 0.625000 0.301810 0.625000
#
# Coordination Sequence:
#
# PCOD9514373 Si02
#       4
#    16  32  32  32
#     4  10  18  40  63  88 120 164 210 258 307 368
#     4  11  23  37  66  90 127 163 213 267 318 364
#     4  11  19  41  63  89 122 168 215 252 301 377
#     4  11  22  36  61  93 124 160 213 253 307 373
#
# _framework density 21.703261000000001
#
# number of rings (size 3 to 8) (size 9 to 14) (size 15 to 20)
#    0.000    1.143    5.714    2.571    2.000    2.286 
#    0.000    0.000    0.000    0.000    0.000    4.000 
#    0.000    0.000    0.000    0.000    0.000    0.000 
#
# Total GULP energy -156047.934792 kJ/mol
# GULP energy per Si atom -5573.140528 kJ/mol
# Density = 2.165386 g / cm^3
# Si number density = 21.703261 Si / 1000 Ang^3
#
#
#
# Elastic Constant Matrix: (Units=GPa)
#
#
# Indices 1 2 3 4 5 6 
#
# 1 227.9355 60.3944 30.5521 0.0000 0.0000 0.0000
# 2 60.3944 89.6383 27.5157 0.0000 0.0000 0.0000
# 3 30.5521 27.5157 44.1614 0.0000 0.0000 0.0000
# 4 0.0000 0.0000 0.0000 19.1029 0.0000 0.0000
# 5 0.0000 0.0000 0.0000 0.0000 41.2171 0.0000
# 6 0.0000 0.0000 0.0000 0.0000 0.0000 45.7651
#
#
#
# Elastic Compliance Matrix: (Units=1/GPa)
#
#
# Indices 1 2 3 4 5 6 
#
# 1 0.005458 -0.003114 -0.001836 0.000000 0.000000 0.000000
# 2 -0.003114 0.015571 -0.007547 0.000000 0.000000 0.000000
# 3 -0.001836 -0.007547 0.028617 0.000000 0.000000 0.000000
# 4 0.000000 0.000000 0.000000 0.052348 0.000000 0.000000
# 5 0.000000 0.000000 0.000000 0.000000 0.024262 0.000000
# 6 0.000000 0.000000 0.000000 0.000000 0.000000 0.021851
#
#
# Mechanical properties :
#
#
# Convention : Reuss Voigt Hill
#
# Bulk Modulus (GPa) = 40.56568 66.51774 53.54171
# Shear Modulus (GPa) = 27.57576 37.43523 32.50550
#
# Velocity S-wave (km/s) = 3.56839 4.15766 3.87424
# Velocity P-wave (km/s) = 5.97574 7.33235 6.68853
#
# Compressibility (1/GPa) = 0.02465138
#
# Stress axis : x y z
#
# Youngs Moduli (GPa) = 183.20358 64.22267 34.94430
#
# Poissons Ratio (x) = 0.19999 0.06416
# Poissons Ratio (y) = 0.57051 0.26374
# Poissons Ratio (z) = 0.33636 0.48471
#
# Static dielectric constant tensor:
#      x y z
#    x 1.918440 0.000000 0.000000 
#    y 0.000000 1.824960 0.000000 
#    z 0.000000 0.000000 1.856920 
# 
# From -- ./inp_files/14995.got.cif
#   From: 2010.05.17/outbox.cif.g08.bks.cpg/sg70_8_cif.got.tgz:14995.got - 2010.06.03 15:57:51.
