data_PCOD9514750
_publ_section_title
;
Structure prediction by ZEFSAII (Michael W. Deem and Ramdas Pophale) SiO2 
 PCOD9514750
Probable space group: F D D D
;
_chemical_formula_sum "Si O2"
_cell_formula_units_Z 208
_cell_length_a 16.650578
_cell_length_b 28.297728
_cell_length_c 20.213459
_cell_angle_alpha 90.000000
_cell_angle_beta 90.000000
_cell_angle_gamma 90.000000
_cell_volume 9524.046776
_symmetry_space_group_name_H-M "F D D D"
_symmetry_group_IT_number 70
_space_group.IT_coordinate_system_code '2'
_symmetry_cell_setting 'orthorhombic'
loop_
_space_group_symop_operation_xyz
x,y,z
1/4-x,1/4-y,z
x,1/4-y,1/4-z
1/4-x,y,1/4-z
-x,-y,-z
3/4+x,3/4+y,-z
-x,3/4+y,3/4+z
3/4+x,-y,3/4+z
x,1/2+y,1/2+z
1/4-x,3/4-y,1/2+z
x,3/4-y,3/4-z
1/4-x,1/2+y,3/4-z
-x,1/2-y,1/2-z
3/4+x,1/4+y,1/2-z
-x,1/4+y,1/4+z
3/4+x,1/2-y,1/4+z
1/2+x,y,1/2+z
3/4-x,1/4-y,1/2+z
1/2+x,1/4-y,3/4-z
3/4-x,y,3/4-z
1/2-x,-y,1/2-z
1/4+x,3/4+y,1/2-z
1/2-x,3/4+y,1/4+z
1/4+x,-y,1/4+z
1/2+x,1/2+y,z
3/4-x,3/4-y,z
1/2+x,3/4-y,1/4-z
3/4-x,1/2+y,1/4-z
1/2-x,1/2-y,-z
1/4+x,1/4+y,-z
1/2-x,1/4+y,3/4+z
1/4+x,1/2-y,3/4+z
loop_
_atom_site_type_symbol
_atom_site_label
_atom_site_fract_x
_atom_site_fract_y
_atom_site_fract_z
Si Si1 0.815865 0.177426 0.099357
Si Si2 0.440039 0.241325 0.808827
Si Si3 0.275543 0.219787 0.733795
Si Si4 0.224943 0.860600 0.578285
Si Si5 0.799010 0.134918 0.969050
Si Si6 0.375000 0.375000 0.991180
Si Si7 0.251301 0.051891 0.072370
O O1 0.794781 0.125000 0.125000
O O2 0.784500 0.214649 0.154263
O O3 0.912728 0.179378 0.096710
O O4 0.784394 0.175163 0.023702
O O5 0.500000 0.250000 0.750000
O O6 0.358410 0.235404 0.768642
O O7 0.453829 0.192635 0.847520
O O8 0.459626 0.279796 0.863272
O O9 0.261930 0.165712 0.757837
O O10 0.224933 0.262745 0.765595
O O11 0.230899 0.892061 0.644082
O O12 0.146730 0.877819 0.536937
O O13 0.306906 0.853747 0.538761
O O14 0.316177 0.411001 0.952640
#
# Coordination Sequence:
#
# PCOD9514750 Si02
#       7
#    32  32  32  32  32  16  32
#     4  10  21  36  56  84 118 155 206 243 286 361
#     4  11  20  34  52  76 120 171 200 223 285 368
#     4  10  20  33  54  79 108 157 208 230 280 360
#     4  10  20  37  57  81 114 151 206 234 292 356
#     4   9  18  38  60  77 108 161 196 240 286 355
#     4  12  26  36  55  96 123 154 198 256 298 355
#     4  12  23  35  51  83 126 162 190 250 294 348
#
# _framework density 21.839455999999998
#
# number of rings (size 3 to 8) (size 9 to 14) (size 15 to 20)
#    0.000    1.538    4.615    1.385    0.000    2.462 
#    0.000    0.769    0.000    0.923    4.000    4.846 
#    0.000    0.000    0.000    0.000    0.000    0.000 
#
# Total GULP energy -289596.800035 kJ/mol
# GULP energy per Si atom -5569.169231 kJ/mol
# Density = 2.178975 g / cm^3
# Si number density = 21.839456 Si / 1000 Ang^3
#
#
#
# Elastic Constant Matrix: (Units=GPa)
#
#
# Indices 1 2 3 4 5 6 
#
# 1 10.2878 -5.5377 -4.1908 0.0000 0.0000 0.0000
# 2 -5.5377 35.8984 23.9506 0.0000 0.0000 0.0000
# 3 -4.1908 23.9506 118.5735 0.0000 0.0000 0.0000
# 4 0.0000 0.0000 0.0000 45.5625 0.0000 0.0000
# 5 0.0000 0.0000 0.0000 0.0000 28.0226 0.0000
# 6 0.0000 0.0000 0.0000 0.0000 0.0000 4.4384
#
#
#
# Elastic Compliance Matrix: (Units=1/GPa)
#
#
# Indices 1 2 3 4 5 6 
#
# 1 0.106032 0.016014 0.000513 0.000000 0.000000 0.000000
# 2 0.016014 0.034614 -0.006426 0.000000 0.000000 0.000000
# 3 0.000513 -0.006426 0.009750 0.000000 0.000000 0.000000
# 4 0.000000 0.000000 0.000000 0.021948 0.000000 0.000000
# 5 0.000000 0.000000 0.000000 0.000000 0.035685 0.000000
# 6 0.000000 0.000000 0.000000 0.000000 0.000000 0.225306
#
#
# Mechanical properties :
#
#
# Convention : Reuss Voigt Hill
#
# Bulk Modulus (GPa) = 5.86172 21.46711 13.66441
# Shear Modulus (GPa) = 10.63835 25.64054 18.13945
#
# Velocity S-wave (km/s) = 2.20947 3.43015 2.88511
# Velocity P-wave (km/s) = 3.03295 5.05359 4.16759
#
# Compressibility (1/GPa) = 0.17059853
#
# Stress axis : x y z
#
# Youngs Moduli (GPa) = 9.43111 28.89024 102.56812
#
# Poissons Ratio (x) = -0.46266 -0.05260
# Poissons Ratio (y) = -0.15103 0.65906
# Poissons Ratio (z) = -0.00484 0.18564
#
# Static dielectric constant tensor:
#      x y z
#    x 1.874360 0.000000 0.000000 
#    y 0.000000 2.262080 0.000000 
#    z 0.000000 0.000000 1.904210 
# 
# From -- ./inp_files/45246.got.cif
#   From: 2010.05.17/outbox.cif.g08.bks.cpg/sg70_23_cif.got.tgz:45246.got - 2010.06.03 15:57:51.
