data_PCOD9514257
_publ_section_title
;
Structure prediction by ZEFSAII (Michael W. Deem and Ramdas Pophale) SiO2 
 PCOD9514257
Probable space group: F D D D
;
_chemical_formula_sum "Si O2"
_cell_formula_units_Z 160
_cell_length_a 11.827977
_cell_length_b 24.350031
_cell_length_c 26.352750
_cell_angle_alpha 90.000000
_cell_angle_beta 90.000000
_cell_angle_gamma 90.000000
_cell_volume 7589.897866
_symmetry_space_group_name_H-M "F D D D"
_symmetry_group_IT_number 70
_space_group.IT_coordinate_system_code '2'
_symmetry_cell_setting 'orthorhombic'
loop_
_space_group_symop_operation_xyz
x,y,z
1/4-x,1/4-y,z
x,1/4-y,1/4-z
1/4-x,y,1/4-z
-x,-y,-z
3/4+x,3/4+y,-z
-x,3/4+y,3/4+z
3/4+x,-y,3/4+z
x,1/2+y,1/2+z
1/4-x,3/4-y,1/2+z
x,3/4-y,3/4-z
1/4-x,1/2+y,3/4-z
-x,1/2-y,1/2-z
3/4+x,1/4+y,1/2-z
-x,1/4+y,1/4+z
3/4+x,1/2-y,1/4+z
1/2+x,y,1/2+z
3/4-x,1/4-y,1/2+z
1/2+x,1/4-y,3/4-z
3/4-x,y,3/4-z
1/2-x,-y,1/2-z
1/4+x,3/4+y,1/2-z
1/2-x,3/4+y,1/4+z
1/4+x,-y,1/4+z
1/2+x,1/2+y,z
3/4-x,3/4-y,z
1/2+x,3/4-y,1/4-z
3/4-x,1/2+y,1/4-z
1/2-x,1/2-y,-z
1/4+x,1/4+y,-z
1/2-x,1/4+y,3/4+z
1/4+x,1/2-y,3/4+z
loop_
_atom_site_type_symbol
_atom_site_label
_atom_site_fract_x
_atom_site_fract_y
_atom_site_fract_z
Si Si1 0.679629 0.270180 0.677920
Si Si2 0.074454 0.394419 0.043099
Si Si3 0.226857 0.521084 0.470017
Si Si4 0.307587 0.297905 0.465168
Si Si5 0.565736 0.519990 0.392592
O O1 0.625000 0.252036 0.625000
O O2 0.650035 0.333296 0.689646
O O3 0.657029 0.234950 0.728494
O O4 0.814923 0.269213 0.670357
O O5 0.188857 0.426868 0.029658
O O6 0.009112 0.428282 0.087739
O O7 0.991337 0.399585 0.994155
O O8 0.311866 0.468526 0.465674
O O9 0.162713 0.523302 0.416980
O O10 0.250000 0.250000 0.500000
O O11 0.254566 0.283773 0.410468
#
# Coordination Sequence:
#
# PCOD9514257 Si02
#       5
#    32  32  32  32  32
#     4  12  23  34  54  87 115 155 206 236 286 358
#     4  10  18  35  59  85 112 148 193 253 294 341
#     4  10  19  35  55  84 114 153 192 239 302 347
#     4   8  14  31  56  78 108 147 180 231 305 340
#     4  10  18  34  57  79 116 149 186 242 303 342
#
# _framework density 21.080652000000001
#
# number of rings (size 3 to 8) (size 9 to 14) (size 15 to 20)
#    0.000    2.400    6.000    4.200    0.000    0.800 
#    0.000    1.000    0.000    4.800    0.000    0.000 
#    0.000    0.000    0.000    0.000    0.000    0.000 
#
# Total GULP energy -223058.264989 kJ/mol
# GULP energy per Si atom -5576.456625 kJ/mol
# Density = 2.103267 g / cm^3
# Si number density = 21.080652 Si / 1000 Ang^3
#
#
#
# Elastic Constant Matrix: (Units=GPa)
#
#
# Indices 1 2 3 4 5 6 
#
# 1 15.3941 5.2190 14.4688 0.0000 0.0000 0.0000
# 2 5.2190 38.9020 28.3905 0.0000 0.0000 0.0000
# 3 14.4688 28.3905 159.0630 0.0000 0.0000 0.0000
# 4 0.0000 0.0000 0.0000 18.0970 0.0000 0.0000
# 5 0.0000 0.0000 0.0000 0.0000 39.1182 0.0000
# 6 0.0000 0.0000 0.0000 0.0000 0.0000 13.2528
#
#
#
# Elastic Compliance Matrix: (Units=1/GPa)
#
#
# Indices 1 2 3 4 5 6 
#
# 1 0.072085 -0.005617 -0.005554 0.000000 0.000000 0.000000
# 2 -0.005617 0.029993 -0.004842 0.000000 0.000000 0.000000
# 3 -0.005554 -0.004842 0.007656 0.000000 0.000000 0.000000
# 4 0.000000 0.000000 0.000000 0.055258 0.000000 0.000000
# 5 0.000000 0.000000 0.000000 0.000000 0.025564 0.000000
# 6 0.000000 0.000000 0.000000 0.000000 0.000000 0.075456
#
#
# Mechanical properties :
#
#
# Convention : Reuss Voigt Hill
#
# Bulk Modulus (GPa) = 12.86894 34.39063 23.62978
# Shear Modulus (GPa) = 15.43489 25.11232 20.27361
#
# Velocity S-wave (km/s) = 2.70882 3.45519 3.10452
# Velocity P-wave (km/s) = 3.98767 5.68041 4.90757
#
# Compressibility (1/GPa) = 0.07770648
#
# Stress axis : x y z
#
# Youngs Moduli (GPa) = 13.87255 33.34097 130.61020
#
# Poissons Ratio (x) = 0.18728 0.72547
# Poissons Ratio (y) = 0.07792 0.63247
# Poissons Ratio (z) = 0.07705 0.16145
#
# Static dielectric constant tensor:
#      x y z
#    x 1.779910 0.000000 0.000000 
#    y 0.000000 1.804500 0.000000 
#    z 0.000000 0.000000 1.857890 
# 
# From -- ./inp_files/22383.got.cif
#   From: 2010.05.17/outbox.cif.g08.bks.cpg/sg70_12_cif.got.tgz:22383.got - 2010.06.03 15:57:51.
