data_PCOD9514734
_publ_section_title
;
Structure prediction by ZEFSAII (Michael W. Deem and Ramdas Pophale) SiO2 
 PCOD9514734
Probable space group: F D D D
;
_chemical_formula_sum "Si O2"
_cell_formula_units_Z 176
_cell_length_a 28.924711
_cell_length_b 33.504045
_cell_length_c 9.188181
_cell_angle_alpha 90.000000
_cell_angle_beta 90.000000
_cell_angle_gamma 90.000000
_cell_volume 8904.218603
_symmetry_space_group_name_H-M "F D D D"
_symmetry_group_IT_number 70
_space_group.IT_coordinate_system_code '2'
_symmetry_cell_setting 'orthorhombic'
loop_
_space_group_symop_operation_xyz
x,y,z
1/4-x,1/4-y,z
x,1/4-y,1/4-z
1/4-x,y,1/4-z
-x,-y,-z
3/4+x,3/4+y,-z
-x,3/4+y,3/4+z
3/4+x,-y,3/4+z
x,1/2+y,1/2+z
1/4-x,3/4-y,1/2+z
x,3/4-y,3/4-z
1/4-x,1/2+y,3/4-z
-x,1/2-y,1/2-z
3/4+x,1/4+y,1/2-z
-x,1/4+y,1/4+z
3/4+x,1/2-y,1/4+z
1/2+x,y,1/2+z
3/4-x,1/4-y,1/2+z
1/2+x,1/4-y,3/4-z
3/4-x,y,3/4-z
1/2-x,-y,1/2-z
1/4+x,3/4+y,1/2-z
1/2-x,3/4+y,1/4+z
1/4+x,-y,1/4+z
1/2+x,1/2+y,z
3/4-x,3/4-y,z
1/2+x,3/4-y,1/4-z
3/4-x,1/2+y,1/4-z
1/2-x,1/2-y,-z
1/4+x,1/4+y,-z
1/2-x,1/4+y,3/4+z
1/4+x,1/2-y,3/4+z
loop_
_atom_site_type_symbol
_atom_site_label
_atom_site_fract_x
_atom_site_fract_y
_atom_site_fract_z
Si Si1 0.551860 0.143916 0.907814
Si Si2 0.894766 0.933159 0.534450
Si Si3 0.242605 0.375000 0.875000
Si Si4 0.761627 0.035727 0.955248
Si Si5 0.044700 0.789441 0.881242
Si Si6 0.143026 0.760207 0.790613
O O1 0.600148 0.166295 0.879961
O O2 0.567954 0.102157 0.977360
O O3 0.525318 0.134836 0.760074
O O4 0.519721 0.176041 0.989608
O O5 0.875000 0.943010 0.375000
O O6 0.909894 0.970837 0.626173
O O7 0.213662 0.414354 0.919513
O O8 0.774615 0.036712 0.783466
O O9 0.733016 0.994289 0.972737
O O10 0.811177 0.036921 0.032234
O O11 0.098619 0.778001 0.873006
O O12 0.125000 0.752010 0.625000
#
# Coordination Sequence:
#
# PCOD9514734 Si02
#       6
#    32  32  16  32  32  32
#     4  10  20  34  56  86 118 154 194 239 305 354
#     4  11  23  37  57  83 126 152 192 251 303 352
#     4  10  20  31  60  90 120 146 196 259 296 346
#     4   9  17  32  56  87 113 148 192 243 288 355
#     4   9  17  32  52  87 122 140 187 251 294 336
#     4  10  20  35  64  87 115 158 201 244 307 362
#
# _framework density 19.765912
#
# number of rings (size 3 to 8) (size 9 to 14) (size 15 to 20)
#    0.000    2.182    1.818    2.182    5.091    0.727 
#    0.000    0.909    8.000    3.273    0.000    0.000 
#    0.000    0.000    0.000    0.000    0.000    0.000 
#
# Total GULP energy -245271.485931 kJ/mol
# GULP energy per Si atom -5574.351953 kJ/mol
# Density = 1.972092 g / cm^3
# Si number density = 19.765912 Si / 1000 Ang^3
#
#
#
# Elastic Constant Matrix: (Units=GPa)
#
#
# Indices 1 2 3 4 5 6 
#
# 1 130.0048 65.9782 20.8764 -0.0214 0.0100 0.0166
# 2 65.9782 114.5571 24.5351 -0.0239 0.0095 0.0194
# 3 20.8764 24.5351 21.5577 -0.0293 0.0152 0.0412
# 4 -0.0214 -0.0239 -0.0293 17.0633 0.0111 0.0311
# 5 0.0100 0.0095 0.0152 0.0111 22.7034 -0.0121
# 6 0.0166 0.0194 0.0412 0.0311 -0.0121 21.8620
#
#
#
# Elastic Compliance Matrix: (Units=1/GPa)
#
#
# Indices 1 2 3 4 5 6 
#
# 1 0.011209 -0.005462 -0.004638 -0.000002 0.000000 0.000005
# 2 -0.005462 0.014205 -0.010877 -0.000006 0.000004 0.000012
# 3 -0.004638 -0.010877 0.063258 0.000088 -0.000036 -0.000106
# 4 -0.000002 -0.000006 0.000088 0.058606 -0.000029 -0.000084
# 5 0.000000 0.000004 -0.000036 -0.000029 0.044046 0.000024
# 6 0.000005 0.000012 -0.000106 -0.000084 0.000024 0.045742
#
#
# Mechanical properties :
#
#
# Convention : Reuss Voigt Hill
#
# Bulk Modulus (GPa) = 21.40533 54.32210 37.86371
# Shear Modulus (GPa) = 16.97258 22.64106 19.80682
#
# Velocity S-wave (km/s) = 2.93350 3.38814 3.16898
# Velocity P-wave (km/s) = 4.72513 6.54586 5.70855
#
# Compressibility (1/GPa) = 0.04671734
#
# Stress axis : x y z
#
# Youngs Moduli (GPa) = 89.21402 70.39837 15.80824
#
# Poissons Ratio (x) = 0.38455 0.07332
# Poissons Ratio (y) = 0.48732 0.17195
# Poissons Ratio (z) = 0.41377 0.76572
#
# Static dielectric constant tensor:
#      x y z
#    x 1.680450 0.000000 0.000000 
#    y 0.000000 1.728740 0.000000 
#    z 0.000000 0.000000 1.723270 
# 
# From -- ./inp_files/21154.got.cif
#   From: 2010.05.17/outbox.cif.g08.bks.cpg/sg70_11_cif.got.tgz:21154.got - 2010.06.03 15:57:51.
