data_PCOD9514465
_publ_section_title
;
Structure prediction by ZEFSAII (Michael W. Deem and Ramdas Pophale) SiO2 
 PCOD9514465
Probable space group: F D D D
;
_chemical_formula_sum "Si O2"
_cell_formula_units_Z 160
_cell_length_a 26.784433
_cell_length_b 9.101289
_cell_length_c 29.213099
_cell_angle_alpha 90.000000
_cell_angle_beta 90.000000
_cell_angle_gamma 90.000000
_cell_volume 7121.360851
_symmetry_space_group_name_H-M "F D D D"
_symmetry_group_IT_number 70
_space_group.IT_coordinate_system_code '2'
_symmetry_cell_setting 'orthorhombic'
loop_
_space_group_symop_operation_xyz
x,y,z
1/4-x,1/4-y,z
x,1/4-y,1/4-z
1/4-x,y,1/4-z
-x,-y,-z
3/4+x,3/4+y,-z
-x,3/4+y,3/4+z
3/4+x,-y,3/4+z
x,1/2+y,1/2+z
1/4-x,3/4-y,1/2+z
x,3/4-y,3/4-z
1/4-x,1/2+y,3/4-z
-x,1/2-y,1/2-z
3/4+x,1/4+y,1/2-z
-x,1/4+y,1/4+z
3/4+x,1/2-y,1/4+z
1/2+x,y,1/2+z
3/4-x,1/4-y,1/2+z
1/2+x,1/4-y,3/4-z
3/4-x,y,3/4-z
1/2-x,-y,1/2-z
1/4+x,3/4+y,1/2-z
1/2-x,3/4+y,1/4+z
1/4+x,-y,1/4+z
1/2+x,1/2+y,z
3/4-x,3/4-y,z
1/2+x,3/4-y,1/4-z
3/4-x,1/2+y,1/4-z
1/2-x,1/2-y,-z
1/4+x,1/4+y,-z
1/2-x,1/4+y,3/4+z
1/4+x,1/2-y,3/4+z
loop_
_atom_site_type_symbol
_atom_site_label
_atom_site_fract_x
_atom_site_fract_y
_atom_site_fract_z
Si Si1 0.771726 0.421388 0.588706
Si Si2 0.408617 0.105048 0.419013
Si Si3 0.429949 0.371969 0.749645
Si Si4 0.036965 0.002904 0.432136
Si Si5 0.819834 0.541013 0.776616
O O1 0.711743 0.423468 0.594253
O O2 0.784288 0.330637 0.542684
O O3 0.795670 0.581804 0.579675
O O4 0.792687 0.387801 0.639342
O O5 0.375000 0.058509 0.375000
O O6 0.371720 0.212002 0.446864
O O7 0.423281 0.978830 0.455579
O O8 0.375000 0.375000 0.727762
O O9 0.441060 0.535611 0.767038
O O10 0.067559 0.039013 0.477711
O O11 0.978547 0.994742 0.445544
#
# Coordination Sequence:
#
# PCOD9514465 Si02
#       5
#    32  32  32  32  32
#     4  10  19  34  56  81 106 149 186 235 284 337
#     4  11  20  33  54  87 115 147 188 236 284 339
#     4   9  20  35  56  76 111 149 188 230 284 338
#     4   9  18  34  55  76 110 145 187 225 287 340
#     4   9  18  34  52  78 108 145 180 229 278 336
#
# _framework density 22.467614999999999
#
# number of rings (size 3 to 8) (size 9 to 14) (size 15 to 20)
#    0.000    2.400    2.000    0.600    0.000    4.400 
#    0.000    0.000   13.200    0.000    5.200    0.000 
#    0.000    0.000    0.000    0.000    0.000    0.000 
#
# Total GULP energy -222780.727385 kJ/mol
# GULP energy per Si atom -5569.518185 kJ/mol
# Density = 2.241648 g / cm^3
# Si number density = 22.467615 Si / 1000 Ang^3
#
#
#
# Elastic Constant Matrix: (Units=GPa)
#
#
# Indices 1 2 3 4 5 6 
#
# 1 72.3242 -3.0180 47.8284 0.0000 0.0000 -0.0001
# 2 -3.0180 39.4166 31.2063 0.0000 0.0000 -0.0001
# 3 47.8284 31.2063 203.6738 0.0000 0.0000 0.0000
# 4 0.0000 0.0000 0.0000 17.5740 0.0000 0.0000
# 5 0.0000 0.0000 0.0000 0.0000 36.2398 0.0000
# 6 -0.0001 -0.0001 0.0000 0.0000 0.0000 12.8410
#
#
#
# Elastic Compliance Matrix: (Units=1/GPa)
#
#
# Indices 1 2 3 4 5 6 
#
# 1 0.017241 0.005150 -0.004838 0.000000 0.000000 0.000000
# 2 0.005150 0.030411 -0.005869 0.000000 0.000000 0.000000
# 3 -0.004838 -0.005869 0.006945 0.000000 0.000000 0.000000
# 4 0.000000 0.000000 0.000000 0.056902 0.000000 0.000000
# 5 0.000000 0.000000 0.000000 0.000000 0.027594 0.000000
# 6 0.000000 0.000000 0.000000 0.000000 0.000000 0.077876
#
#
# Mechanical properties :
#
#
# Convention : Reuss Voigt Hill
#
# Bulk Modulus (GPa) = 22.99715 51.93864 37.46790
# Shear Modulus (GPa) = 20.61210 29.29082 24.95146
#
# Velocity S-wave (km/s) = 3.03217 3.61458 3.33611
# Velocity P-wave (km/s) = 4.74517 6.37084 5.61713
#
# Compressibility (1/GPa) = 0.04348365
#
# Stress axis : x y z
#
# Youngs Moduli (GPa) = 58.00218 32.88316 143.98764
#
# Poissons Ratio (x) = -0.16935 0.69657
# Poissons Ratio (y) = -0.29872 0.84504
# Poissons Ratio (z) = 0.28060 0.19299
#
# Static dielectric constant tensor:
#      x y z
#    x 1.833780 0.000000 0.000000 
#    y 0.000000 1.884980 0.000000 
#    z 0.000000 0.000000 1.947000 
# 
# From -- ./inp_files/19482.got.cif
#   From: 2010.05.17/outbox.cif.g08.bks.cpg/sg70_10_cif.got.tgz:19482.got - 2010.06.03 15:57:51.
