data_PCOD9514305
_publ_section_title
;
Structure prediction by ZEFSAII (Michael W. Deem and Ramdas Pophale) SiO2 
 PCOD9514305
Probable space group: F D D D
;
_chemical_formula_sum "Si O2"
_cell_formula_units_Z 176
_cell_length_a 26.908307
_cell_length_b 16.540719
_cell_length_c 20.398510
_cell_angle_alpha 90.000000
_cell_angle_beta 90.000000
_cell_angle_gamma 90.000000
_cell_volume 9079.024822
_symmetry_space_group_name_H-M "F D D D"
_symmetry_group_IT_number 70
_space_group.IT_coordinate_system_code '2'
_symmetry_cell_setting 'orthorhombic'
loop_
_space_group_symop_operation_xyz
x,y,z
1/4-x,1/4-y,z
x,1/4-y,1/4-z
1/4-x,y,1/4-z
-x,-y,-z
3/4+x,3/4+y,-z
-x,3/4+y,3/4+z
3/4+x,-y,3/4+z
x,1/2+y,1/2+z
1/4-x,3/4-y,1/2+z
x,3/4-y,3/4-z
1/4-x,1/2+y,3/4-z
-x,1/2-y,1/2-z
3/4+x,1/4+y,1/2-z
-x,1/4+y,1/4+z
3/4+x,1/2-y,1/4+z
1/2+x,y,1/2+z
3/4-x,1/4-y,1/2+z
1/2+x,1/4-y,3/4-z
3/4-x,y,3/4-z
1/2-x,-y,1/2-z
1/4+x,3/4+y,1/2-z
1/2-x,3/4+y,1/4+z
1/4+x,-y,1/4+z
1/2+x,1/2+y,z
3/4-x,3/4-y,z
1/2+x,3/4-y,1/4-z
3/4-x,1/2+y,1/4-z
1/2-x,1/2-y,-z
1/4+x,1/4+y,-z
1/2-x,1/4+y,3/4+z
1/4+x,1/2-y,3/4+z
loop_
_atom_site_type_symbol
_atom_site_label
_atom_site_fract_x
_atom_site_fract_y
_atom_site_fract_z
Si Si1 0.541749 0.835022 0.505931
Si Si2 0.568115 0.596809 0.755320
Si Si3 0.625000 0.625000 0.297915
Si Si4 0.730553 0.125000 0.625000
Si Si5 0.462779 0.300876 0.122012
Si Si6 0.254706 0.375000 0.375000
Si Si7 0.305453 0.755008 0.467558
O O1 0.568251 0.750455 0.492624
O O2 0.512825 0.852923 0.438297
O O3 0.503425 0.825386 0.566845
O O4 0.574156 0.913451 0.525189
O O5 0.625000 0.625000 0.755797
O O6 0.538205 0.640734 0.814513
O O7 0.539744 0.617716 0.688376
O O8 0.590917 0.566692 0.340881
O O9 0.660984 0.568270 0.256161
O O10 0.700189 0.204765 0.603799
O O11 0.472815 0.206587 0.134543
O O12 0.250000 0.750000 0.500000
#
# Coordination Sequence:
#
# PCOD9514305 Si02
#       7
#    32  32  16  16  32  16  32
#     4  10  22  38  62  92 127 167 204 250 323 370
#     4  11  23  40  69  91 122 163 211 262 313 373
#     4  12  22  39  62  93 126 162 220 254 308 385
#     4  10  18  35  65  84 127 173 194 251 322 367
#     4  11  22  42  62  93 122 163 209 265 307 380
#     4  10  25  44  65  88 127 161 208 266 322 362
#     4  10  21  38  59  89 131 162 204 262 311 375
#
# _framework density 19.385342000000001
#
# number of rings (size 3 to 8) (size 9 to 14) (size 15 to 20)
#    0.000    1.455    4.545    1.909    2.545    1.818 
#    0.000    0.000   12.000    0.000    0.000    0.000 
#    0.000    0.000    0.000    0.000    0.000    0.000 
#
# Total GULP energy -245372.309017 kJ/mol
# GULP energy per Si atom -5576.643387 kJ/mol
# Density = 1.934122 g / cm^3
# Si number density = 19.385342 Si / 1000 Ang^3
#
#
#
# Elastic Constant Matrix: (Units=GPa)
#
#
# Indices 1 2 3 4 5 6 
#
# 1 69.3471 56.4519 30.5542 0.0000 0.0000 0.0000
# 2 56.4519 210.8133 71.2576 0.0000 0.0000 0.0000
# 3 30.5542 71.2576 117.0029 0.0000 0.0000 0.0000
# 4 0.0000 0.0000 0.0000 32.0322 0.0000 0.0000
# 5 0.0000 0.0000 0.0000 0.0000 -4.8262 0.0000
# 6 0.0000 0.0000 0.0000 0.0000 0.0000 23.2421
#
#
#
# Elastic Compliance Matrix: (Units=1/GPa)
#
#
# Indices 1 2 3 4 5 6 
#
# 1 0.018934 -0.004280 -0.002338 0.000000 0.000000 0.000000
# 2 -0.004280 0.006941 -0.003109 0.000000 0.000000 0.000000
# 3 -0.002338 -0.003109 0.011051 0.000000 0.000000 0.000000
# 4 0.000000 0.000000 0.000000 0.031219 0.000000 0.000000
# 5 0.000000 0.000000 0.000000 0.000000 -0.207200 0.000000
# 6 0.000000 0.000000 0.000000 0.000000 0.000000 0.043025
#
#
# Mechanical properties :
#
#
# Convention : Reuss Voigt Hill
#
# Bulk Modulus (GPa) = 57.23601 79.29896 68.26749
# Shear Modulus (GPa) = -70.66945 26.01626 -22.32660
#
# Velocity S-wave (km/s) = -6.04436 3.66739 -3.39739
# Velocity P-wave (km/s) = 4.37296 7.67649 4.46126
#
# Compressibility (1/GPa) = 0.01747152
#
# Stress axis : x y z
#
# Youngs Moduli (GPa) = 52.81379 144.07882 90.48981
#
# Poissons Ratio (x) = 0.61667 0.21156
# Poissons Ratio (y) = 0.22605 0.28136
# Poissons Ratio (z) = 0.12347 0.44799
#
# Static dielectric constant tensor:
#      x y z
#    x 1.700310 0.000000 0.000000 
#    y 0.000000 1.744520 0.000000 
#    z 0.000000 0.000000 1.693010 
# 
# From -- ./inp_files/38576.got.cif
#   From: 2010.05.17/outbox.cif.g08.bks.cpg/sg70_20_cif.got.tgz:38576.got - 2010.06.03 15:57:51.
