data_PCOD9514254
_publ_section_title
;
Structure prediction by ZEFSAII (Michael W. Deem and Ramdas Pophale) SiO2 
 PCOD9514254
Probable space group: F D D D
;
_chemical_formula_sum "Si O2"
_cell_formula_units_Z 176
_cell_length_a 17.068198
_cell_length_b 24.789980
_cell_length_c 21.443618
_cell_angle_alpha 90.000000
_cell_angle_beta 90.000000
_cell_angle_gamma 90.000000
_cell_volume 9073.229804
_symmetry_space_group_name_H-M "F D D D"
_symmetry_group_IT_number 70
_space_group.IT_coordinate_system_code '2'
_symmetry_cell_setting 'orthorhombic'
loop_
_space_group_symop_operation_xyz
x,y,z
1/4-x,1/4-y,z
x,1/4-y,1/4-z
1/4-x,y,1/4-z
-x,-y,-z
3/4+x,3/4+y,-z
-x,3/4+y,3/4+z
3/4+x,-y,3/4+z
x,1/2+y,1/2+z
1/4-x,3/4-y,1/2+z
x,3/4-y,3/4-z
1/4-x,1/2+y,3/4-z
-x,1/2-y,1/2-z
3/4+x,1/4+y,1/2-z
-x,1/4+y,1/4+z
3/4+x,1/2-y,1/4+z
1/2+x,y,1/2+z
3/4-x,1/4-y,1/2+z
1/2+x,1/4-y,3/4-z
3/4-x,y,3/4-z
1/2-x,-y,1/2-z
1/4+x,3/4+y,1/2-z
1/2-x,3/4+y,1/4+z
1/4+x,-y,1/4+z
1/2+x,1/2+y,z
3/4-x,3/4-y,z
1/2+x,3/4-y,1/4-z
3/4-x,1/2+y,1/4-z
1/2-x,1/2-y,-z
1/4+x,1/4+y,-z
1/2-x,1/4+y,3/4+z
1/4+x,1/2-y,3/4+z
loop_
_atom_site_type_symbol
_atom_site_label
_atom_site_fract_x
_atom_site_fract_y
_atom_site_fract_z
Si Si1 0.114824 0.875000 0.375000
Si Si2 0.365762 0.739973 0.947737
Si Si3 0.241313 0.918250 0.783164
Si Si4 0.258060 0.044582 0.492834
Si Si5 0.536339 0.775519 0.146964
Si Si6 0.065618 0.808559 0.773769
O O1 0.056925 0.920496 0.401770
O O2 0.166721 0.859468 0.433574
O O3 0.375000 0.729403 0.875000
O O4 0.317262 0.795320 0.959195
O O5 0.314796 0.693914 0.980924
O O6 0.449616 0.751410 0.978065
O O7 0.256878 0.855693 0.767175
O O8 0.247831 0.042920 0.417870
O O9 0.348246 0.032378 0.512236
O O10 0.625000 0.761627 0.125000
O O11 0.538383 0.819395 0.203038
O O12 0.491814 0.727909 0.184223
#
# Coordination Sequence:
#
# PCOD9514254 Si02
#       6
#    16  32  32  32  32  32
#     4  10  18  34  56  78 106 136 172 220 269 316
#     4  11  22  36  54  79 111 144 182 227 275 327
#     4  10  22  35  53  81 108 143 184 221 271 339
#     4  10  20  35  56  78 108 146 181 227 278 328
#     4   9  18  34  55  77 103 137 176 219 271 328
#     4   9  18  32  54  79 102 135 178 218 268 332
#
# _framework density 19.397722999999999
#
# number of rings (size 3 to 8) (size 9 to 14) (size 15 to 20)
#    0.000    2.182    0.000    3.818    0.000    5.818 
#    0.000    0.455    0.000    6.545    0.000    0.000 
#    0.000    0.000    0.000    0.000    0.000    0.000 
#
# Total GULP energy -245077.344741 kJ/mol
# GULP energy per Si atom -5569.939653 kJ/mol
# Density = 1.935357 g / cm^3
# Si number density = 19.397723 Si / 1000 Ang^3
#
#
#
# Elastic Constant Matrix: (Units=GPa)
#
#
# Indices 1 2 3 4 5 6 
#
# 1 31.5852 4.3097 26.3185 0.0000 0.0000 0.0000
# 2 4.3097 15.1586 12.2445 0.0000 0.0000 0.0000
# 3 26.3185 12.2445 161.5129 0.0000 0.0000 0.0000
# 4 0.0000 0.0000 0.0000 21.8801 0.0000 0.0000
# 5 0.0000 0.0000 0.0000 0.0000 31.2156 0.0000
# 6 0.0000 0.0000 0.0000 0.0000 0.0000 14.9764
#
#
#
# Elastic Compliance Matrix: (Units=1/GPa)
#
#
# Indices 1 2 3 4 5 6 
#
# 1 0.037147 -0.006042 -0.005595 0.000000 0.000000 0.000000
# 2 -0.006042 0.071255 -0.004417 0.000000 0.000000 0.000000
# 3 -0.005595 -0.004417 0.007438 0.000000 0.000000 0.000000
# 4 0.000000 0.000000 0.000000 0.045704 0.000000 0.000000
# 5 0.000000 0.000000 0.000000 0.000000 0.032035 0.000000
# 6 0.000000 0.000000 0.000000 0.000000 0.000000 0.066772
#
#
# Mechanical properties :
#
#
# Convention : Reuss Voigt Hill
#
# Bulk Modulus (GPa) = 11.94289 32.66688 22.30489
# Shear Modulus (GPa) = 15.60699 24.64003 20.12351
#
# Velocity S-wave (km/s) = 2.83959 3.56793 3.22439
# Velocity P-wave (km/s) = 4.11354 5.81813 5.03844
#
# Compressibility (1/GPa) = 0.08373181
#
# Stress axis : x y z
#
# Youngs Moduli (GPa) = 26.92021 14.03408 134.44359
#
# Poissons Ratio (x) = 0.08479 0.75222
# Poissons Ratio (y) = 0.16264 0.59390
# Poissons Ratio (z) = 0.15062 0.06199
#
# Static dielectric constant tensor:
#      x y z
#    x 1.742710 0.000000 0.000000 
#    y 0.000000 1.692750 0.000000 
#    z 0.000000 0.000000 1.712040 
# 
# From -- ./inp_files/35232.got.cif
#   From: 2010.05.17/outbox.cif.g08.bks.cpg/sg70_18_cif.got.tgz:35232.got - 2010.06.03 15:57:51.
