data_PCOD9514759
_publ_section_title
;
Structure prediction by ZEFSAII (Michael W. Deem and Ramdas Pophale) SiO2 
 PCOD9514759
Probable space group: F D D D
;
_chemical_formula_sum "Si O2"
_cell_formula_units_Z 176
_cell_length_a 29.755079
_cell_length_b 10.088565
_cell_length_c 23.441719
_cell_angle_alpha 90.000000
_cell_angle_beta 90.000000
_cell_angle_gamma 90.000000
_cell_volume 7036.876998
_symmetry_space_group_name_H-M "F D D D"
_symmetry_group_IT_number 70
_space_group.IT_coordinate_system_code '2'
_symmetry_cell_setting 'orthorhombic'
loop_
_space_group_symop_operation_xyz
x,y,z
1/4-x,1/4-y,z
x,1/4-y,1/4-z
1/4-x,y,1/4-z
-x,-y,-z
3/4+x,3/4+y,-z
-x,3/4+y,3/4+z
3/4+x,-y,3/4+z
x,1/2+y,1/2+z
1/4-x,3/4-y,1/2+z
x,3/4-y,3/4-z
1/4-x,1/2+y,3/4-z
-x,1/2-y,1/2-z
3/4+x,1/4+y,1/2-z
-x,1/4+y,1/4+z
3/4+x,1/2-y,1/4+z
1/2+x,y,1/2+z
3/4-x,1/4-y,1/2+z
1/2+x,1/4-y,3/4-z
3/4-x,y,3/4-z
1/2-x,-y,1/2-z
1/4+x,3/4+y,1/2-z
1/2-x,3/4+y,1/4+z
1/4+x,-y,1/4+z
1/2+x,1/2+y,z
3/4-x,3/4-y,z
1/2+x,3/4-y,1/4-z
3/4-x,1/2+y,1/4-z
1/2-x,1/2-y,-z
1/4+x,1/4+y,-z
1/2-x,1/4+y,3/4+z
1/4+x,1/2-y,3/4+z
loop_
_atom_site_type_symbol
_atom_site_label
_atom_site_fract_x
_atom_site_fract_y
_atom_site_fract_z
Si Si1 0.692595 0.005210 0.335404
Si Si2 0.779979 0.676224 0.363266
Si Si3 0.872786 0.626673 0.747230
Si Si4 0.728171 0.896073 0.993292
Si Si5 0.229035 0.625000 0.625000
Si Si6 0.875000 0.875000 0.663647
Si Si7 0.125000 0.844540 0.125000
O O1 0.686955 0.875000 0.375000
O O2 0.664654 0.974245 0.277879
O O3 0.745414 0.037450 0.337015
O O4 0.667535 0.121086 0.371324
O O5 0.756937 0.714548 0.302586
O O6 0.792365 0.517256 0.358122
O O7 0.829079 0.735675 0.367400
O O8 0.924712 0.583618 0.743114
O O9 0.871912 0.751937 0.705652
O O10 0.865810 0.663510 0.813462
O O11 0.744305 0.925620 0.930162
O O12 0.750000 0.750000 0.000000
#
# Coordination Sequence:
#
# PCOD9514759 Si02
#       7
#    32  32  32  32  16  16  16
#     4  10  23  40  66  96 131 172 222 280 330 406
#     4  10  22  40  60  93 131 171 224 275 347 405
#     4  10  22  38  64  97 134 174 224 278 343 411
#     4   9  19  35  58  93 130 164 207 273 341 406
#     4  10  20  33  68  96 126 168 212 279 350 416
#     4  10  20  37  66  99 128 160 216 292 346 394
#     4  10  24  43  63  92 140 178 223 285 350 420
#
# _framework density 25.011095000000001
#
# number of rings (size 3 to 8) (size 9 to 14) (size 15 to 20)
#    0.000    2.182    0.000    2.182    6.364    8.727 
#    0.000    0.455    0.000    0.000    0.000    0.000 
#    0.000    0.000    0.000    0.000    0.000    0.000 
#
# Total GULP energy -245086.206380 kJ/mol
# GULP energy per Si atom -5570.141054 kJ/mol
# Density = 2.495417 g / cm^3
# Si number density = 25.011095 Si / 1000 Ang^3
#
#
#
# Elastic Constant Matrix: (Units=GPa)
#
#
# Indices 1 2 3 4 5 6 
#
# 1 146.8375 15.8215 65.6569 0.0000 0.0000 0.0000
# 2 15.8215 86.1816 39.8211 0.0000 0.0000 0.0000
# 3 65.6569 39.8211 141.5175 0.0000 0.0000 0.0000
# 4 0.0000 0.0000 0.0000 4.5700 0.0000 0.0000
# 5 0.0000 0.0000 0.0000 0.0000 45.7279 0.0000
# 6 0.0000 0.0000 0.0000 0.0000 0.0000 11.9215
#
#
#
# Elastic Compliance Matrix: (Units=1/GPa)
#
#
# Indices 1 2 3 4 5 6 
#
# 1 0.008600 0.000304 -0.004075 0.000000 0.000000 0.000000
# 2 0.000304 0.013348 -0.003897 0.000000 0.000000 0.000000
# 3 -0.004075 -0.003897 0.010054 0.000000 0.000000 0.000000
# 4 0.000000 0.000000 0.000000 0.218816 0.000000 0.000000
# 5 0.000000 0.000000 0.000000 0.000000 0.021868 0.000000
# 6 0.000000 0.000000 0.000000 0.000000 0.000000 0.083882
#
#
# Mechanical properties :
#
#
# Convention : Reuss Voigt Hill
#
# Bulk Modulus (GPa) = 60.00595 68.57065 64.28830
# Shear Modulus (GPa) = 13.24643 29.32636 21.28639
#
# Velocity S-wave (km/s) = 2.30385 3.42794 2.92049
# Velocity P-wave (km/s) = 5.57860 6.56836 6.09361
#
# Compressibility (1/GPa) = 0.01666501
#
# Stress axis : x y z
#
# Youngs Moduli (GPa) = 116.28214 74.91601 99.46577
#
# Poissons Ratio (x) = -0.02280 0.40537
# Poissons Ratio (y) = -0.03539 0.38764
# Poissons Ratio (z) = 0.47391 0.29196
#
# Static dielectric constant tensor:
#      x y z
#    x 1.998260 0.000000 0.000000 
#    y 0.000000 2.031620 0.000000 
#    z 0.000000 0.000000 2.785370 
# 
# From -- ./inp_files/55035.got.cif
#   From: 2010.05.17/outbox.cif.g08.bks.cpg/sg70_28_cif.got.tgz:55035.got - 2010.06.03 15:57:51.
