data_PCOD9514965
_publ_section_title
;
Structure prediction by ZEFSAII (Michael W. Deem and Ramdas Pophale) SiO2 
 PCOD9514965
Probable space group: F D D D
;
_chemical_formula_sum "Si O2"
_cell_formula_units_Z 160
_cell_length_a 11.994824
_cell_length_b 23.352327
_cell_length_c 24.513533
_cell_angle_alpha 90.000000
_cell_angle_beta 90.000000
_cell_angle_gamma 90.000000
_cell_volume 6866.413471
_symmetry_space_group_name_H-M "F D D D"
_symmetry_group_IT_number 70
_space_group.IT_coordinate_system_code '2'
_symmetry_cell_setting 'orthorhombic'
loop_
_space_group_symop_operation_xyz
x,y,z
1/4-x,1/4-y,z
x,1/4-y,1/4-z
1/4-x,y,1/4-z
-x,-y,-z
3/4+x,3/4+y,-z
-x,3/4+y,3/4+z
3/4+x,-y,3/4+z
x,1/2+y,1/2+z
1/4-x,3/4-y,1/2+z
x,3/4-y,3/4-z
1/4-x,1/2+y,3/4-z
-x,1/2-y,1/2-z
3/4+x,1/4+y,1/2-z
-x,1/4+y,1/4+z
3/4+x,1/2-y,1/4+z
1/2+x,y,1/2+z
3/4-x,1/4-y,1/2+z
1/2+x,1/4-y,3/4-z
3/4-x,y,3/4-z
1/2-x,-y,1/2-z
1/4+x,3/4+y,1/2-z
1/2-x,3/4+y,1/4+z
1/4+x,-y,1/4+z
1/2+x,1/2+y,z
3/4-x,3/4-y,z
1/2+x,3/4-y,1/4-z
3/4-x,1/2+y,1/4-z
1/2-x,1/2-y,-z
1/4+x,1/4+y,-z
1/2-x,1/4+y,3/4+z
1/4+x,1/2-y,3/4+z
loop_
_atom_site_type_symbol
_atom_site_label
_atom_site_fract_x
_atom_site_fract_y
_atom_site_fract_z
Si Si1 0.875000 0.375000 0.468037
Si Si2 0.335259 0.152436 0.460593
Si Si3 0.243956 0.090421 0.674656
Si Si4 0.375000 0.514580 0.375000
Si Si5 0.258499 0.556020 0.812370
Si Si6 0.875000 0.875000 0.599450
Si Si7 0.375000 0.294452 0.875000
O O1 0.810162 0.330466 0.508990
O O2 0.932844 0.333139 0.422726
O O3 0.322459 0.162995 0.523726
O O4 0.412649 0.194263 0.424570
O O5 0.375183 0.088516 0.448485
O O6 0.212051 0.159269 0.436869
O O7 0.125000 0.125000 0.686769
O O8 0.296261 0.125000 0.625000
O O9 0.212238 0.028408 0.652051
O O10 0.192857 0.583814 0.861824
O O11 0.291566 0.494462 0.837778
#
# Coordination Sequence:
#
# PCOD9514965 Si02
#       7
#    16  32  32  16  32  16  16
#     4  10  26  45  72 106 141 180 242 290 336 428
#     4  12  20  41  66  93 132 174 228 274 335 417
#     4   9  21  40  57  88 135 168 209 280 336 393
#     4  10  20  38  59  95 124 170 224 266 334 406
#     4  11  23  45  68 102 138 179 231 284 349 414
#     4  11  20  39  67  97 131 176 225 280 336 404
#     4  11  21  50  73  99 146 187 231 288 352 406
#
# _framework density 23.301829999999999
#
# number of rings (size 3 to 8) (size 9 to 14) (size 15 to 20)
#    0.000    1.600    5.000    1.200    0.000    0.000 
#   18.000    2.000    0.000    0.000    0.000    0.000 
#    0.000    0.000    0.000    0.000    0.000    0.000 
#
# Total GULP energy -222684.015742 kJ/mol
# GULP energy per Si atom -5567.100394 kJ/mol
# Density = 2.324879 g / cm^3
# Si number density = 23.301830 Si / 1000 Ang^3
#
#
#
# Elastic Constant Matrix: (Units=GPa)
#
#
# Indices 1 2 3 4 5 6 
#
# 1 54.7492 15.0706 53.9226 0.0000 0.0000 0.0000
# 2 15.0706 87.2231 64.3611 0.0000 0.0000 0.0000
# 3 53.9226 64.3611 209.8378 0.0000 0.0000 0.0000
# 4 0.0000 0.0000 0.0000 -0.1988 0.0000 0.0000
# 5 0.0000 0.0000 0.0000 0.0000 -508.2598 0.0000
# 6 0.0000 0.0000 0.0000 0.0000 0.0000 7.8847
#
#
#
# Elastic Compliance Matrix: (Units=1/GPa)
#
#
# Indices 1 2 3 4 5 6 
#
# 1 0.024473 0.000533 -0.006452 0.000000 0.000000 0.000000
# 2 0.000533 0.014830 -0.004686 0.000000 0.000000 0.000000
# 3 -0.006452 -0.004686 0.007861 0.000000 0.000000 0.000000
# 4 0.000000 0.000000 0.000000 -5.030319 0.000000 0.000000
# 5 0.000000 0.000000 0.000000 0.000000 -0.001967 0.000000
# 6 0.000000 0.000000 0.000000 0.000000 0.000000 0.126827
#
#
# Mechanical properties :
#
#
# Convention : Reuss Voigt Hill
#
# Bulk Modulus (GPa) = 38.53000 68.72430 53.62715
# Shear Modulus (GPa) = -1.03553 -85.55106 -43.29330
#
# Velocity S-wave (km/s) = -0.66736 -6.06581 -4.31505
# Velocity P-wave (km/s) = 3.99716 4.41606 1.32746
#
# Compressibility (1/GPa) = 0.02595381
#
# Stress axis : x y z
#
# Youngs Moduli (GPa) = 40.86057 67.42963 127.21330
#
# Poissons Ratio (x) = -0.03591 0.82083
# Poissons Ratio (y) = -0.02176 0.59607
# Poissons Ratio (z) = 0.26365 0.31595
#
# Static dielectric constant tensor:
#      x y z
#    x 1.953850 0.000000 0.000000 
#    y 0.000000 1.940050 0.000000 
#    z 0.000000 0.000000 1.886690 
# 
# From -- ./inp_files/51169.got.cif
#   From: 2010.05.17/outbox.cif.g08.bks.cpg/sg70_26_cif.got.tgz:51169.got - 2010.06.03 15:57:51.
