data_PCOD9514054
_publ_section_title
;
Structure prediction by ZEFSAII (Michael W. Deem and Ramdas Pophale) SiO2 
 PCOD9514054
Probable space group: F D D D
;
_chemical_formula_sum "Si O2"
_cell_formula_units_Z 184
_cell_length_a 24.281186
_cell_length_b 15.658435
_cell_length_c 24.816828
_cell_angle_alpha 90.000000
_cell_angle_beta 90.000000
_cell_angle_gamma 90.000000
_cell_volume 9435.491339
_symmetry_space_group_name_H-M "F D D D"
_symmetry_group_IT_number 70
_space_group.IT_coordinate_system_code '2'
_symmetry_cell_setting 'orthorhombic'
loop_
_space_group_symop_operation_xyz
x,y,z
1/4-x,1/4-y,z
x,1/4-y,1/4-z
1/4-x,y,1/4-z
-x,-y,-z
3/4+x,3/4+y,-z
-x,3/4+y,3/4+z
3/4+x,-y,3/4+z
x,1/2+y,1/2+z
1/4-x,3/4-y,1/2+z
x,3/4-y,3/4-z
1/4-x,1/2+y,3/4-z
-x,1/2-y,1/2-z
3/4+x,1/4+y,1/2-z
-x,1/4+y,1/4+z
3/4+x,1/2-y,1/4+z
1/2+x,y,1/2+z
3/4-x,1/4-y,1/2+z
1/2+x,1/4-y,3/4-z
3/4-x,y,3/4-z
1/2-x,-y,1/2-z
1/4+x,3/4+y,1/2-z
1/2-x,3/4+y,1/4+z
1/4+x,-y,1/4+z
1/2+x,1/2+y,z
3/4-x,3/4-y,z
1/2+x,3/4-y,1/4-z
3/4-x,1/2+y,1/4-z
1/2-x,1/2-y,-z
1/4+x,1/4+y,-z
1/2-x,1/4+y,3/4+z
1/4+x,1/2-y,3/4+z
loop_
_atom_site_type_symbol
_atom_site_label
_atom_site_fract_x
_atom_site_fract_y
_atom_site_fract_z
Si Si1 0.875000 0.875000 0.375000
Si Si2 0.650266 0.358218 0.686204
Si Si3 0.180413 0.506329 0.036810
Si Si4 0.174435 0.723614 0.531187
Si Si5 0.977663 0.799025 0.576408
Si Si6 0.725414 0.125000 0.625000
Si Si7 0.231655 0.115861 0.309233
O O1 0.913236 0.819832 0.415244
O O2 0.625000 0.354978 0.625000
O O3 0.620600 0.438936 0.713484
O O4 0.631843 0.273643 0.717592
O O5 0.715485 0.350498 0.684456
O O6 0.236650 0.455147 0.052218
O O7 0.191363 0.545964 0.977669
O O8 0.185907 0.668465 0.582877
O O9 0.184930 0.662231 0.481746
O O10 0.219873 0.799186 0.540461
O O11 0.990245 0.700287 0.595067
O O12 0.959399 0.845352 0.631391
#
# Coordination Sequence:
#
# PCOD9514054 Si02
#       7
#     8  32  32  32  32  16  32
#     4  12  24  44  72  82  96 168 236 266 300 352
#     4  11  19  36  58  89 123 157 197 253 305 373
#     4  11  22  41  64  87 116 156 212 268 304 360
#     4   9  17  27  52  85 125 156 188 226 303 376
#     4  11  21  33  62  91 122 159 197 247 310 367
#     4  10  16  27  52  93 120 155 190 228 292 381
#     4   9  17  34  53  86 123 157 185 247 307 366
#
# _framework density 19.500838999999999
#
# number of rings (size 3 to 8) (size 9 to 14) (size 15 to 20)
#    0.000    1.739    7.826    0.000    2.435    1.391 
#    0.000    3.478    7.652    0.000    0.000    0.000 
#    0.000    0.000    0.000    0.000    0.000    0.000 
#
# Total GULP energy -256327.836592 kJ/mol
# GULP energy per Si atom -5572.344274 kJ/mol
# Density = 1.945645 g / cm^3
# Si number density = 19.500839 Si / 1000 Ang^3
#
#
#
# Elastic Constant Matrix: (Units=GPa)
#
#
# Indices 1 2 3 4 5 6 
#
# 1 44.2729 10.9886 50.9130 0.0000 0.0000 0.0000
# 2 10.9886 50.9992 50.7572 0.0000 0.0000 0.0000
# 3 50.9130 50.7572 148.2971 0.0000 0.0000 0.0000
# 4 0.0000 0.0000 0.0000 12.6426 0.0000 0.0000
# 5 0.0000 0.0000 0.0000 0.0000 30.3227 0.0000
# 6 0.0000 0.0000 0.0000 0.0000 0.0000 9.3770
#
#
#
# Elastic Compliance Matrix: (Units=1/GPa)
#
#
# Indices 1 2 3 4 5 6 
#
# 1 0.039122 0.007489 -0.015995 0.000000 0.000000 0.000000
# 2 0.007489 0.031172 -0.013240 0.000000 0.000000 0.000000
# 3 -0.015995 -0.013240 0.016766 0.000000 0.000000 0.000000
# 4 0.000000 0.000000 0.000000 0.079097 0.000000 0.000000
# 5 0.000000 0.000000 0.000000 0.000000 0.032979 0.000000
# 6 0.000000 0.000000 0.000000 0.000000 0.000000 0.106644
#
#
# Mechanical properties :
#
#
# Convention : Reuss Voigt Hill
#
# Bulk Modulus (GPa) = 22.95225 52.09852 37.52539
# Shear Modulus (GPa) = 13.74403 19.19583 16.46993
#
# Velocity S-wave (km/s) = 2.65767 3.14085 2.90931
# Velocity P-wave (km/s) = 4.60576 6.31881 5.52903
#
# Compressibility (1/GPa) = 0.04356872
#
# Stress axis : x y z
#
# Youngs Moduli (GPa) = 25.56122 32.08004 59.64397
#
# Poissons Ratio (x) = -0.24026 0.95398
# Poissons Ratio (y) = -0.19143 0.78971
# Poissons Ratio (z) = 0.40884 0.42475
#
# Static dielectric constant tensor:
#      x y z
#    x 1.790650 0.000000 0.000000 
#    y 0.000000 1.755210 0.000000 
#    z 0.000000 0.000000 1.720460 
# 
# From -- ./inp_files/55168.got.cif
#   From: 2010.05.17/outbox.cif.g08.bks.cpg/sg70_28_cif.got.tgz:55168.got - 2010.06.03 15:57:51.
