data_PCOD9514940
_publ_section_title
;
Structure prediction by ZEFSAII (Michael W. Deem and Ramdas Pophale) SiO2 
 PCOD9514940
Probable space group: F D D D
;
_chemical_formula_sum "Si O2"
_cell_formula_units_Z 208
_cell_length_a 17.667605
_cell_length_b 21.132296
_cell_length_c 22.050978
_cell_angle_alpha 90.000000
_cell_angle_beta 90.000000
_cell_angle_gamma 90.000000
_cell_volume 8232.888282
_symmetry_space_group_name_H-M "F D D D"
_symmetry_group_IT_number 70
_space_group.IT_coordinate_system_code '2'
_symmetry_cell_setting 'orthorhombic'
loop_
_space_group_symop_operation_xyz
x,y,z
1/4-x,1/4-y,z
x,1/4-y,1/4-z
1/4-x,y,1/4-z
-x,-y,-z
3/4+x,3/4+y,-z
-x,3/4+y,3/4+z
3/4+x,-y,3/4+z
x,1/2+y,1/2+z
1/4-x,3/4-y,1/2+z
x,3/4-y,3/4-z
1/4-x,1/2+y,3/4-z
-x,1/2-y,1/2-z
3/4+x,1/4+y,1/2-z
-x,1/4+y,1/4+z
3/4+x,1/2-y,1/4+z
1/2+x,y,1/2+z
3/4-x,1/4-y,1/2+z
1/2+x,1/4-y,3/4-z
3/4-x,y,3/4-z
1/2-x,-y,1/2-z
1/4+x,3/4+y,1/2-z
1/2-x,3/4+y,1/4+z
1/4+x,-y,1/4+z
1/2+x,1/2+y,z
3/4-x,3/4-y,z
1/2+x,3/4-y,1/4-z
3/4-x,1/2+y,1/4-z
1/2-x,1/2-y,-z
1/4+x,1/4+y,-z
1/2-x,1/4+y,3/4+z
1/4+x,1/2-y,3/4+z
loop_
_atom_site_type_symbol
_atom_site_label
_atom_site_fract_x
_atom_site_fract_y
_atom_site_fract_z
Si Si1 0.944835 0.825707 0.646995
Si Si2 0.050048 0.900049 0.282252
Si Si3 0.304374 0.172402 0.415728
Si Si4 0.963724 0.890499 0.969828
Si Si5 0.433183 0.125000 0.625000
Si Si6 0.797384 0.502842 0.026867
Si Si7 0.924803 0.450605 0.934670
O O1 0.875000 0.875000 0.648009
O O2 0.966950 0.818906 0.717940
O O3 0.934687 0.771916 0.595161
O O4 0.008506 0.869345 0.617351
O O5 0.080567 0.857324 0.227966
O O6 0.115051 0.903236 0.330904
O O7 0.022036 0.965879 0.254949
O O8 0.974285 0.860461 0.300162
O O9 0.375000 0.187084 0.375000
O O10 0.266739 0.240960 0.423905
O O11 0.875000 0.875000 0.961558
O O12 0.000673 0.918503 0.909543
O O13 0.017862 0.825797 0.972187
O O14 0.868819 0.477919 0.986760
O O15 0.875000 0.440301 0.875000
#
# Coordination Sequence:
#
# PCOD9514940 Si02
#       7
#    32  32  32  32  16  32  32
#     4  10  22  42  70 102 137 179 237 301 370 450
#     4  11  23  37  62 100 138 173 225 287 362 449
#     4  10  20  37  62  92 129 173 217 274 346 428
#     4  11  26  49  71  95 134 190 256 319 374 442
#     4  12  25  44  65  94 136 184 238 304 371 448
#     4  11  23  43  71 104 141 185 235 300 381 462
#     4  11  21  37  65 103 146 181 211 270 363 462
#
# _framework density 25.264524000000002
#
# number of rings (size 3 to 8) (size 9 to 14) (size 15 to 20)
#    0.000    1.231    0.000    7.615    0.000    4.308 
#    0.000   10.769    0.000    0.000    0.000    0.000 
#    0.000    0.000    0.000    0.000    0.000    0.000 
#
# Total GULP energy -289540.149175 kJ/mol
# GULP energy per Si atom -5568.079792 kJ/mol
# Density = 2.520702 g / cm^3
# Si number density = 25.264524 Si / 1000 Ang^3
#
#
#
# Elastic Constant Matrix: (Units=GPa)
#
#
# Indices 1 2 3 4 5 6 
#
# 1 112.3583 21.7672 44.6617 0.0000 0.0000 0.0000
# 2 21.7672 43.1158 9.8332 0.0000 0.0000 0.0000
# 3 44.6617 9.8332 158.7051 0.0000 0.0000 0.0000
# 4 0.0000 0.0000 0.0000 22.2051 0.0000 0.0000
# 5 0.0000 0.0000 0.0000 0.0000 34.9985 0.0000
# 6 0.0000 0.0000 0.0000 0.0000 0.0000 9.6411
#
#
#
# Elastic Compliance Matrix: (Units=1/GPa)
#
#
# Indices 1 2 3 4 5 6 
#
# 1 0.010953 -0.004896 -0.002779 0.000000 0.000000 0.000000
# 2 -0.004896 0.025714 -0.000215 0.000000 0.000000 0.000000
# 3 -0.002779 -0.000215 0.007096 0.000000 0.000000 0.000000
# 4 0.000000 0.000000 0.000000 0.045035 0.000000 0.000000
# 5 0.000000 0.000000 0.000000 0.000000 0.028573 0.000000
# 6 0.000000 0.000000 0.000000 0.000000 0.000000 0.103723
#
#
# Mechanical properties :
#
#
# Convention : Reuss Voigt Hill
#
# Bulk Modulus (GPa) = 35.73602 51.85593 43.79598
# Shear Modulus (GPa) = 20.30847 29.23007 24.76927
#
# Velocity S-wave (km/s) = 2.83827 3.40510 3.13453
# Velocity P-wave (km/s) = 4.99164 6.00245 5.52023
#
# Compressibility (1/GPa) = 0.02798297
#
# Stress axis : x y z
#
# Youngs Moduli (GPa) = 91.29715 38.88895 140.91660
#
# Poissons Ratio (x) = 0.19040 0.39161
# Poissons Ratio (y) = 0.44699 0.03036
# Poissons Ratio (z) = 0.25372 0.00838
#
# Static dielectric constant tensor:
#      x y z
#    x 2.056160 0.000000 0.000000 
#    y 0.000000 2.151660 0.000000 
#    z 0.000000 0.000000 2.996680 
# 
# From -- ./inp_files/52364.got.cif
#   From: 2010.05.17/outbox.cif.g08.bks.cpg/sg70_27_cif.got.tgz:52364.got - 2010.06.03 15:57:51.
