data_PCOD9514841
_publ_section_title
;
Structure prediction by ZEFSAII (Michael W. Deem and Ramdas Pophale) SiO2 
 PCOD9514841
Probable space group: F D D D
;
_chemical_formula_sum "Si O2"
_cell_formula_units_Z 176
_cell_length_a 30.118757
_cell_length_b 12.648797
_cell_length_c 22.815884
_cell_angle_alpha 90.000000
_cell_angle_beta 90.000000
_cell_angle_gamma 90.000000
_cell_volume 8692.077049
_symmetry_space_group_name_H-M "F D D D"
_symmetry_group_IT_number 70
_space_group.IT_coordinate_system_code '2'
_symmetry_cell_setting 'orthorhombic'
loop_
_space_group_symop_operation_xyz
x,y,z
1/4-x,1/4-y,z
x,1/4-y,1/4-z
1/4-x,y,1/4-z
-x,-y,-z
3/4+x,3/4+y,-z
-x,3/4+y,3/4+z
3/4+x,-y,3/4+z
x,1/2+y,1/2+z
1/4-x,3/4-y,1/2+z
x,3/4-y,3/4-z
1/4-x,1/2+y,3/4-z
-x,1/2-y,1/2-z
3/4+x,1/4+y,1/2-z
-x,1/4+y,1/4+z
3/4+x,1/2-y,1/4+z
1/2+x,y,1/2+z
3/4-x,1/4-y,1/2+z
1/2+x,1/4-y,3/4-z
3/4-x,y,3/4-z
1/2-x,-y,1/2-z
1/4+x,3/4+y,1/2-z
1/2-x,3/4+y,1/4+z
1/4+x,-y,1/4+z
1/2+x,1/2+y,z
3/4-x,3/4-y,z
1/2+x,3/4-y,1/4-z
3/4-x,1/2+y,1/4-z
1/2-x,1/2-y,-z
1/4+x,1/4+y,-z
1/2-x,1/4+y,3/4+z
1/4+x,1/2-y,3/4+z
loop_
_atom_site_type_symbol
_atom_site_label
_atom_site_fract_x
_atom_site_fract_y
_atom_site_fract_z
Si Si1 0.625071 0.251023 0.273437
Si Si2 0.279666 0.567036 0.207936
Si Si3 0.487958 0.958885 0.163796
Si Si4 0.799327 0.770212 0.022042
Si Si5 0.917833 0.625000 0.625000
Si Si6 0.164908 0.363898 0.076633
O O1 0.578723 0.312667 0.266211
O O2 0.641224 0.289830 0.336943
O O3 0.653952 0.293008 0.219425
O O4 0.625000 0.125000 0.271727
O O5 0.250000 0.500000 0.250000
O O6 0.258315 0.682248 0.200068
O O7 0.281107 0.502782 0.146979
O O8 0.453190 0.885398 0.198814
O O9 0.534877 0.897277 0.152380
O O10 0.806780 0.689220 0.075202
O O11 0.750000 0.750000 0.000000
O O12 0.830223 0.738955 0.966539
O O13 0.125000 0.355985 0.125000
#
# Coordination Sequence:
#
# PCOD9514841 Si02
#       6
#    32  32  32  32  16  32
#     4  11  22  36  58  86 116 155 198 251 312 370
#     4  11  22  37  59  89 120 157 201 253 310 372
#     4  10  21  38  60  88 121 159 204 254 310 376
#     4   9  20  38  61  85 117 162 206 251 309 376
#     4  10  20  36  58  84 115 152 201 248 296 368
#     4  10  21  39  61  89 121 159 206 258 317 380
#
# _framework density 20.248325000000001
#
# number of rings (size 3 to 8) (size 9 to 14) (size 15 to 20)
#    0.000    1.818    0.000    4.364    0.000    4.727 
#    0.000    2.727    0.000    7.636    0.000    0.000 
#    0.000    0.000    0.000    0.000    0.000    0.000 
#
# Total GULP energy -245115.914660 kJ/mol
# GULP energy per Si atom -5570.816242 kJ/mol
# Density = 2.020224 g / cm^3
# Si number density = 20.248325 Si / 1000 Ang^3
#
#
#
# Elastic Constant Matrix: (Units=GPa)
#
#
# Indices 1 2 3 4 5 6 
#
# 1 62.2453 9.8382 14.8543 0.0000 0.0000 0.0000
# 2 9.8382 119.8903 46.5634 0.0000 0.0000 0.0000
# 3 14.8543 46.5634 76.0295 0.0000 0.0000 0.0000
# 4 0.0000 0.0000 0.0000 18.2962 0.0000 0.0000
# 5 0.0000 0.0000 0.0000 0.0000 43.8095 0.0000
# 6 0.0000 0.0000 0.0000 0.0000 0.0000 26.5481
#
#
#
# Elastic Compliance Matrix: (Units=1/GPa)
#
#
# Indices 1 2 3 4 5 6 
#
# 1 0.016853 -0.000137 -0.003209 0.000000 0.000000 0.000000
# 2 -0.000137 0.010945 -0.006677 0.000000 0.000000 0.000000
# 3 -0.003209 -0.006677 0.017869 0.000000 0.000000 0.000000
# 4 0.000000 0.000000 0.000000 0.054656 0.000000 0.000000
# 5 0.000000 0.000000 0.000000 0.000000 0.022826 0.000000
# 6 0.000000 0.000000 0.000000 0.000000 0.000000 0.037667
#
#
# Mechanical properties :
#
#
# Convention : Reuss Voigt Hill
#
# Bulk Modulus (GPa) = 39.02825 44.51967 41.77396
# Shear Modulus (GPa) = 26.39891 30.19137 28.29514
#
# Velocity S-wave (km/s) = 3.61468 3.86561 3.74225
# Velocity P-wave (km/s) = 6.06117 6.47754 6.27281
#
# Compressibility (1/GPa) = 0.02562247
#
# Stress axis : x y z
#
# Youngs Moduli (GPa) = 59.33706 91.36380 55.96362
#
# Poissons Ratio (x) = 0.01248 0.17958
# Poissons Ratio (y) = 0.00811 0.37365
# Poissons Ratio (z) = 0.19041 0.61000
#
# Static dielectric constant tensor:
#      x y z
#    x 1.719980 0.000000 0.000000 
#    y 0.000000 1.714650 0.000000 
#    z 0.000000 0.000000 1.525190 
# 
# From -- ./inp_files/50383.got.cif
#   From: 2010.05.17/outbox.cif.g08.bks.cpg/sg70_26_cif.got.tgz:50383.got - 2010.06.03 15:57:51.
