data_PCOD9514222
_publ_section_title
;
Structure prediction by ZEFSAII (Michael W. Deem and Ramdas Pophale) SiO2 
 PCOD9514222
Probable space group: F D D D
;
_chemical_formula_sum "Si O2"
_cell_formula_units_Z 144
_cell_length_a 26.812416
_cell_length_b 16.042329
_cell_length_c 16.724939
_cell_angle_alpha 90.000000
_cell_angle_beta 90.000000
_cell_angle_gamma 90.000000
_cell_volume 7193.958201
_symmetry_space_group_name_H-M "F D D D"
_symmetry_group_IT_number 70
_space_group.IT_coordinate_system_code '2'
_symmetry_cell_setting 'orthorhombic'
loop_
_space_group_symop_operation_xyz
x,y,z
1/4-x,1/4-y,z
x,1/4-y,1/4-z
1/4-x,y,1/4-z
-x,-y,-z
3/4+x,3/4+y,-z
-x,3/4+y,3/4+z
3/4+x,-y,3/4+z
x,1/2+y,1/2+z
1/4-x,3/4-y,1/2+z
x,3/4-y,3/4-z
1/4-x,1/2+y,3/4-z
-x,1/2-y,1/2-z
3/4+x,1/4+y,1/2-z
-x,1/4+y,1/4+z
3/4+x,1/2-y,1/4+z
1/2+x,y,1/2+z
3/4-x,1/4-y,1/2+z
1/2+x,1/4-y,3/4-z
3/4-x,y,3/4-z
1/2-x,-y,1/2-z
1/4+x,3/4+y,1/2-z
1/2-x,3/4+y,1/4+z
1/4+x,-y,1/4+z
1/2+x,1/2+y,z
3/4-x,3/4-y,z
1/2+x,3/4-y,1/4-z
3/4-x,1/2+y,1/4-z
1/2-x,1/2-y,-z
1/4+x,1/4+y,-z
1/2-x,1/4+y,3/4+z
1/4+x,1/2-y,3/4+z
loop_
_atom_site_type_symbol
_atom_site_label
_atom_site_fract_x
_atom_site_fract_y
_atom_site_fract_z
Si Si1 0.690933 0.520704 0.759595
Si Si2 0.954387 0.982909 0.686623
Si Si3 0.781491 0.375000 0.875000
Si Si4 0.379223 0.611571 0.721355
Si Si5 0.013642 0.406092 0.469050
O O1 0.750000 0.500000 0.750000
O O2 0.683131 0.546496 0.851037
O O3 0.684311 0.591041 0.695081
O O4 0.657984 0.439921 0.741893
O O5 0.979983 0.908265 0.732102
O O6 0.910978 0.028343 0.736213
O O7 0.994888 0.054924 0.663601
O O8 0.382531 0.625000 0.625000
O O9 0.321685 0.605965 0.741895
O O10 0.009371 0.375000 0.375000
O O11 0.000000 0.500000 0.500000
#
# Coordination Sequence:
#
# PCOD9514222 Si02
#       5
#    32  32  16  32  32
#     4   9  16  33  63  98 125 165 196 256 325 387
#     4  10  19  38  67  88 130 166 208 263 318 386
#     4  10  18  32  67 100 126 154 202 257 334 384
#     4   9  18  41  66  89 125 172 211 258 331 385
#     4  11  27  44  64  94 128 176 228 266 314 392
#
# _framework density 20.016797
#
# number of rings (size 3 to 8) (size 9 to 14) (size 15 to 20)
#    0.000    2.222    5.556    0.000    3.111    0.889 
#    0.000   13.333    0.000    0.000    0.000    0.000 
#    0.000    0.000    0.000    0.000    0.000    0.000 
#
# Total GULP energy -200690.402135 kJ/mol
# GULP energy per Si atom -5574.733393 kJ/mol
# Density = 1.997124 g / cm^3
# Si number density = 20.016797 Si / 1000 Ang^3
#
#
#
# Elastic Constant Matrix: (Units=GPa)
#
#
# Indices 1 2 3 4 5 6 
#
# 1 112.9162 60.5482 30.9997 0.0000 0.0000 0.0000
# 2 60.5482 128.8879 64.7687 0.0000 0.0000 0.0000
# 3 30.9997 64.7687 83.4482 0.0000 0.0000 0.0000
# 4 0.0000 0.0000 0.0000 41.8354 0.0000 0.0000
# 5 0.0000 0.0000 0.0000 0.0000 17.6422 0.0000
# 6 0.0000 0.0000 0.0000 0.0000 0.0000 29.1418
#
#
#
# Elastic Compliance Matrix: (Units=1/GPa)
#
#
# Indices 1 2 3 4 5 6 
#
# 1 0.011839 -0.005495 -0.000133 0.000000 0.000000 0.000000
# 2 -0.005495 0.015270 -0.009811 0.000000 0.000000 0.000000
# 3 -0.000133 -0.009811 0.019648 0.000000 0.000000 0.000000
# 4 0.000000 0.000000 0.000000 0.023903 0.000000 0.000000
# 5 0.000000 0.000000 0.000000 0.000000 0.056682 0.000000
# 6 0.000000 0.000000 0.000000 0.000000 0.000000 0.034315
#
#
# Mechanical properties :
#
#
# Convention : Reuss Voigt Hill
#
# Bulk Modulus (GPa) = 62.97494 70.87617 66.92556
# Shear Modulus (GPa) = 25.27454 28.98628 27.13041
#
# Velocity S-wave (km/s) = 3.55726 3.80952 3.68555
# Velocity P-wave (km/s) = 6.95712 7.40507 7.18459
#
# Compressibility (1/GPa) = 0.01587933
#
# Stress axis : x y z
#
# Youngs Moduli (GPa) = 84.46574 65.48779 50.89681
#
# Poissons Ratio (x) = 0.35984 0.00678
# Poissons Ratio (y) = 0.46412 0.49933
# Poissons Ratio (z) = 0.01126 0.64248
#
# Static dielectric constant tensor:
#      x y z
#    x 0.967450 0.000000 0.000000 
#    y 0.000000 1.749020 0.000000 
#    z 0.000000 0.000000 1.734940 
# 
# From -- ./inp_files/37329.got.cif
#   From: 2010.05.17/outbox.cif.g08.bks.cpg/sg70_19_cif.got.tgz:37329.got - 2010.06.03 15:57:51.
