data_PCOD9514904
_publ_section_title
;
Structure prediction by ZEFSAII (Michael W. Deem and Ramdas Pophale) SiO2 
 PCOD9514904
Probable space group: F D D D
;
_chemical_formula_sum "Si O2"
_cell_formula_units_Z 176
_cell_length_a 29.404601
_cell_length_b 9.003840
_cell_length_c 25.024751
_cell_angle_alpha 90.000000
_cell_angle_beta 90.000000
_cell_angle_gamma 90.000000
_cell_volume 6625.411001
_symmetry_space_group_name_H-M "F D D D"
_symmetry_group_IT_number 70
_space_group.IT_coordinate_system_code '2'
_symmetry_cell_setting 'orthorhombic'
loop_
_space_group_symop_operation_xyz
x,y,z
1/4-x,1/4-y,z
x,1/4-y,1/4-z
1/4-x,y,1/4-z
-x,-y,-z
3/4+x,3/4+y,-z
-x,3/4+y,3/4+z
3/4+x,-y,3/4+z
x,1/2+y,1/2+z
1/4-x,3/4-y,1/2+z
x,3/4-y,3/4-z
1/4-x,1/2+y,3/4-z
-x,1/2-y,1/2-z
3/4+x,1/4+y,1/2-z
-x,1/4+y,1/4+z
3/4+x,1/2-y,1/4+z
1/2+x,y,1/2+z
3/4-x,1/4-y,1/2+z
1/2+x,1/4-y,3/4-z
3/4-x,y,3/4-z
1/2-x,-y,1/2-z
1/4+x,3/4+y,1/2-z
1/2-x,3/4+y,1/4+z
1/4+x,-y,1/4+z
1/2+x,1/2+y,z
3/4-x,3/4-y,z
1/2+x,3/4-y,1/4-z
3/4-x,1/2+y,1/4-z
1/2-x,1/2-y,-z
1/4+x,1/4+y,-z
1/2-x,1/4+y,3/4+z
1/4+x,1/2-y,3/4+z
loop_
_atom_site_type_symbol
_atom_site_label
_atom_site_fract_x
_atom_site_fract_y
_atom_site_fract_z
Si Si1 0.592450 0.336845 0.558312
Si Si2 0.538271 0.408200 0.294489
Si Si3 0.555349 0.231271 0.687961
Si Si4 0.048109 0.461926 0.267846
Si Si5 0.875000 0.375000 0.800011
Si Si6 0.275679 0.875580 0.631629
O O1 0.579245 0.367707 0.496373
O O2 0.559851 0.195402 0.569118
O O3 0.643040 0.282453 0.571937
O O4 0.593452 0.504494 0.580750
O O5 0.495925 0.465811 0.259894
O O6 0.520485 0.261536 0.325501
O O7 0.553109 0.534856 0.336429
O O8 0.547981 0.290724 0.748620
O O9 0.518011 0.314262 0.651474
O O10 0.090268 0.536543 0.237884
O O11 0.046550 0.497998 0.330517
#
# Coordination Sequence:
#
# PCOD9514904 Si02
#       6
#    32  32  32  32  16  32
#     4  10  20  42  68 101 147 206 241 327 400 471
#     4  10  21  38  71  99 150 199 261 327 396 467
#     4   9  22  41  69 101 152 197 255 328 413 457
#     4  10  20  39  69 104 141 202 259 315 400 472
#     4  10  20  36  72 101 130 204 256 300 399 466
#     4  10  20  38  67 106 140 202 268 325 388 485
#
# _framework density 26.564391000000001
#
# number of rings (size 3 to 8) (size 9 to 14) (size 15 to 20)
#    0.000    2.182    1.818    0.545    0.000    2.909 
#    0.000    6.364    4.000    5.455    0.000    2.545 
#    0.000    0.000    0.000    0.000    0.000    0.000 
#
# Total GULP energy -245635.106158 kJ/mol
# GULP energy per Si atom -5582.616049 kJ/mol
# Density = 2.650393 g / cm^3
# Si number density = 26.564391 Si / 1000 Ang^3
#
#
#
# Elastic Constant Matrix: (Units=GPa)
#
#
# Indices 1 2 3 4 5 6 
#
# 1 90.0500 30.5212 22.2939 0.0000 0.0000 0.0000
# 2 30.5212 196.3448 89.7813 0.0000 0.0000 0.0000
# 3 22.2939 89.7813 134.4990 0.0000 0.0000 0.0000
# 4 0.0000 0.0000 0.0000 72.9314 0.0000 0.0000
# 5 0.0000 0.0000 0.0000 0.0000 47.0340 0.0000
# 6 0.0000 0.0000 0.0000 0.0000 0.0000 48.7535
#
#
#
# Elastic Compliance Matrix: (Units=1/GPa)
#
#
# Indices 1 2 3 4 5 6 
#
# 1 0.011826 -0.001356 -0.001055 0.000000 0.000000 0.000000
# 2 -0.001356 0.007486 -0.004772 0.000000 0.000000 0.000000
# 3 -0.001055 -0.004772 0.010796 0.000000 0.000000 0.000000
# 4 0.000000 0.000000 0.000000 0.013712 0.000000 0.000000
# 5 0.000000 0.000000 0.000000 0.000000 0.021261 0.000000
# 6 0.000000 0.000000 0.000000 0.000000 0.000000 0.020511
#
#
# Mechanical properties :
#
#
# Convention : Reuss Voigt Hill
#
# Bulk Modulus (GPa) = 63.52968 78.45408 70.99188
# Shear Modulus (GPa) = 47.52626 52.29696 49.91161
#
# Velocity S-wave (km/s) = 4.23436 4.44180 4.33932
# Velocity P-wave (km/s) = 6.91908 7.47688 7.20338
#
# Compressibility (1/GPa) = 0.01574067
#
# Stress axis : x y z
#
# Youngs Moduli (GPa) = 84.56168 133.58124 92.63040
#
# Poissons Ratio (x) = 0.18111 0.09774
# Poissons Ratio (y) = 0.11465 0.44207
# Poissons Ratio (z) = 0.08923 0.63750
#
# Static dielectric constant tensor:
#      x y z
#    x 2.031750 0.000000 0.000000 
#    y 0.000000 2.232490 0.000000 
#    z 0.000000 0.000000 2.197950 
# 
# From -- ./inp_files/29054.got.cif
#   From: 2010.05.17/outbox.cif.g08.bks.cpg/sg70_15_cif.got.tgz:29054.got - 2010.06.03 15:57:51.
