data_PCOD9514471
_publ_section_title
;
Structure prediction by ZEFSAII (Michael W. Deem and Ramdas Pophale) SiO2 
 PCOD9514471
Probable space group: F D D D
;
_chemical_formula_sum "Si O2"
_cell_formula_units_Z 144
_cell_length_a 13.139403
_cell_length_b 17.200131
_cell_length_c 32.072870
_cell_angle_alpha 90.000000
_cell_angle_beta 90.000000
_cell_angle_gamma 90.000000
_cell_volume 7248.451072
_symmetry_space_group_name_H-M "F D D D"
_symmetry_group_IT_number 70
_space_group.IT_coordinate_system_code '2'
_symmetry_cell_setting 'orthorhombic'
loop_
_space_group_symop_operation_xyz
x,y,z
1/4-x,1/4-y,z
x,1/4-y,1/4-z
1/4-x,y,1/4-z
-x,-y,-z
3/4+x,3/4+y,-z
-x,3/4+y,3/4+z
3/4+x,-y,3/4+z
x,1/2+y,1/2+z
1/4-x,3/4-y,1/2+z
x,3/4-y,3/4-z
1/4-x,1/2+y,3/4-z
-x,1/2-y,1/2-z
3/4+x,1/4+y,1/2-z
-x,1/4+y,1/4+z
3/4+x,1/2-y,1/4+z
1/2+x,y,1/2+z
3/4-x,1/4-y,1/2+z
1/2+x,1/4-y,3/4-z
3/4-x,y,3/4-z
1/2-x,-y,1/2-z
1/4+x,3/4+y,1/2-z
1/2-x,3/4+y,1/4+z
1/4+x,-y,1/4+z
1/2+x,1/2+y,z
3/4-x,3/4-y,z
1/2+x,3/4-y,1/4-z
3/4-x,1/2+y,1/4-z
1/2-x,1/2-y,-z
1/4+x,1/4+y,-z
1/2-x,1/4+y,3/4+z
1/4+x,1/2-y,3/4+z
loop_
_atom_site_type_symbol
_atom_site_label
_atom_site_fract_x
_atom_site_fract_y
_atom_site_fract_z
Si Si1 0.903171 0.581635 0.016701
Si Si2 0.889061 0.284465 0.798592
Si Si3 0.261337 0.845338 0.327968
Si Si4 0.761521 0.910066 0.562759
Si Si5 0.125000 0.436627 0.125000
O O1 0.825297 0.625630 0.046334
O O2 0.987735 0.534955 0.043861
O O3 0.848700 0.513033 0.990738
O O4 0.953586 0.633514 0.980021
O O5 0.875000 0.375000 0.798100
O O6 0.840425 0.244786 0.838561
O O7 0.241843 0.875000 0.375000
O O8 0.375000 0.875000 0.317202
O O9 0.250522 0.751621 0.323165
O O10 0.875000 0.875000 0.559973
O O11 0.706748 0.865983 0.601401
#
# Coordination Sequence:
#
# PCOD9514471 Si02
#       5
#    32  32  32  32  16
#     4  10  21  38  62  85 116 166 212 258 320 385
#     4  10  19  34  56  88 120 151 204 264 310 364
#     4  11  24  42  64  92 130 170 210 265 334 401
#     4  11  23  44  65  89 131 173 214 271 337 393
#     4  10  21  34  57  88 120 164 208 254 323 392
#
# _framework density 19.866313000000002
#
# number of rings (size 3 to 8) (size 9 to 14) (size 15 to 20)
#    0.000    1.556    0.000    7.667    0.000    4.444 
#    0.000    4.444    0.000    0.000    0.000    0.000 
#    0.000    0.000    0.000    0.000    0.000    0.000 
#
# Total GULP energy -200615.938747 kJ/mol
# GULP energy per Si atom -5572.664965 kJ/mol
# Density = 1.982110 g / cm^3
# Si number density = 19.866313 Si / 1000 Ang^3
#
#
#
# Elastic Constant Matrix: (Units=GPa)
#
#
# Indices 1 2 3 4 5 6 
#
# 1 107.9706 40.5829 86.6590 0.0000 0.0000 0.0000
# 2 40.5829 143.6460 50.7068 0.0000 0.0000 0.0000
# 3 86.6590 50.7068 146.2369 0.0000 0.0000 0.0000
# 4 0.0000 0.0000 0.0000 24.7382 0.0000 0.0000
# 5 0.0000 0.0000 0.0000 0.0000 40.3797 0.0000
# 6 0.0000 0.0000 0.0000 0.0000 0.0000 32.5185
#
#
#
# Elastic Compliance Matrix: (Units=1/GPa)
#
#
# Indices 1 2 3 4 5 6 
#
# 1 0.017941 -0.001499 -0.010112 0.000000 0.000000 0.000000
# 2 -0.001499 0.008058 -0.001906 0.000000 0.000000 0.000000
# 3 -0.010112 -0.001906 0.013491 0.000000 0.000000 0.000000
# 4 0.000000 0.000000 0.000000 0.040423 0.000000 0.000000
# 5 0.000000 0.000000 0.000000 0.000000 0.024765 0.000000
# 6 0.000000 0.000000 0.000000 0.000000 0.000000 0.030752
#
#
# Mechanical properties :
#
#
# Convention : Reuss Voigt Hill
#
# Bulk Modulus (GPa) = 80.27792 83.75009 82.01400
# Shear Modulus (GPa) = 30.00900 34.18761 32.09830
#
# Velocity S-wave (km/s) = 3.89079 4.15285 4.02396
# Velocity P-wave (km/s) = 7.78981 8.07733 7.93487
#
# Compressibility (1/GPa) = 0.01245673
#
# Stress axis : x y z
#
# Youngs Moduli (GPa) = 55.73680 124.10368 74.12167
#
# Poissons Ratio (x) = 0.18606 0.74953
# Poissons Ratio (y) = 0.08356 0.14124
# Poissons Ratio (z) = 0.56362 0.23648
#
# Static dielectric constant tensor:
#      x y z
#    x 1.824310 0.000000 0.000000 
#    y 0.000000 1.778430 0.000000 
#    z 0.000000 0.000000 1.719910 
# 
# From -- ./inp_files/65654.got.cif
#   From: 2010.05.17/outbox.cif.g08.bks.cpg/sg70_33_cif.got.tgz:65654.got - 2010.06.03 15:57:51.
