data_PCOD9514801
_publ_section_title
;
Structure prediction by ZEFSAII (Michael W. Deem and Ramdas Pophale) SiO2 
 PCOD9514801
Probable space group: F D D D
;
_chemical_formula_sum "Si O2"
_cell_formula_units_Z 160
_cell_length_a 23.291040
_cell_length_b 14.530623
_cell_length_c 25.987389
_cell_angle_alpha 90.000000
_cell_angle_beta 90.000000
_cell_angle_gamma 90.000000
_cell_volume 8794.998377
_symmetry_space_group_name_H-M "F D D D"
_symmetry_group_IT_number 70
_space_group.IT_coordinate_system_code '2'
_symmetry_cell_setting 'orthorhombic'
loop_
_space_group_symop_operation_xyz
x,y,z
1/4-x,1/4-y,z
x,1/4-y,1/4-z
1/4-x,y,1/4-z
-x,-y,-z
3/4+x,3/4+y,-z
-x,3/4+y,3/4+z
3/4+x,-y,3/4+z
x,1/2+y,1/2+z
1/4-x,3/4-y,1/2+z
x,3/4-y,3/4-z
1/4-x,1/2+y,3/4-z
-x,1/2-y,1/2-z
3/4+x,1/4+y,1/2-z
-x,1/4+y,1/4+z
3/4+x,1/2-y,1/4+z
1/2+x,y,1/2+z
3/4-x,1/4-y,1/2+z
1/2+x,1/4-y,3/4-z
3/4-x,y,3/4-z
1/2-x,-y,1/2-z
1/4+x,3/4+y,1/2-z
1/2-x,3/4+y,1/4+z
1/4+x,-y,1/4+z
1/2+x,1/2+y,z
3/4-x,3/4-y,z
1/2+x,3/4-y,1/4-z
3/4-x,1/2+y,1/4-z
1/2-x,1/2-y,-z
1/4+x,1/4+y,-z
1/2-x,1/4+y,3/4+z
1/4+x,1/2-y,3/4+z
loop_
_atom_site_type_symbol
_atom_site_label
_atom_site_fract_x
_atom_site_fract_y
_atom_site_fract_z
Si Si1 0.156965 0.946801 0.750766
Si Si2 0.969946 0.871520 0.138486
Si Si3 0.381921 0.730352 0.109283
Si Si4 0.578962 0.788582 0.583323
Si Si5 0.524406 0.120932 0.237089
O O1 0.117840 0.981664 0.797184
O O2 0.117661 0.903400 0.706993
O O3 0.207291 0.885689 0.775101
O O4 0.189756 0.035506 0.727092
O O5 0.925670 0.787550 0.128190
O O6 0.976157 0.883875 0.200352
O O7 0.029447 0.845924 0.111665
O O8 0.936458 0.962829 0.120197
O O9 0.381284 0.625000 0.125000
O O10 0.625000 0.752900 0.625000
O O11 0.550897 0.708537 0.548155
#
# Coordination Sequence:
#
# PCOD9514801 Si02
#       5
#    32  32  32  32  32
#     4  10  20  35  55  81 121 160 195 245 305 373
#     4  10  21  37  58  87 122 158 205 252 305 364
#     4  10  20  39  61  82 117 167 204 252 304 365
#     4  12  22  35  58  92 122 159 197 252 309 370
#     4  10  20  36  51  83 126 158 194 243 312 370
#
# _framework density 18.192159
#
# number of rings (size 3 to 8) (size 9 to 14) (size 15 to 20)
#    0.000    1.600    4.000    1.800    0.000    1.600 
#    3.600    1.000    0.000    0.600    0.000    0.000 
#    0.000    0.000    0.000    0.000    0.000    0.000 
#
# Total GULP energy -222963.371725 kJ/mol
# GULP energy per Si atom -5574.084293 kJ/mol
# Density = 1.815075 g / cm^3
# Si number density = 18.192159 Si / 1000 Ang^3
#
#
#
# Elastic Constant Matrix: (Units=GPa)
#
#
# Indices 1 2 3 4 5 6 
#
# 1 138.6667 53.1982 65.5715 0.0000 0.0000 0.0000
# 2 53.1982 89.5716 27.7300 0.0000 0.0000 0.0000
# 3 65.5715 27.7300 70.3134 0.0000 0.0000 0.0000
# 4 0.0000 0.0000 0.0000 5.8672 0.0000 0.0000
# 5 0.0000 0.0000 0.0000 0.0000 40.1251 0.0000
# 6 0.0000 0.0000 0.0000 0.0000 0.0000 17.4060
#
#
#
# Elastic Compliance Matrix: (Units=1/GPa)
#
#
# Indices 1 2 3 4 5 6 
#
# 1 0.014703 -0.005112 -0.011696 0.000000 0.000000 0.000000
# 2 -0.005112 0.014494 -0.000949 0.000000 0.000000 0.000000
# 3 -0.011696 -0.000949 0.025503 0.000000 0.000000 0.000000
# 4 0.000000 0.000000 0.000000 0.170440 0.000000 0.000000
# 5 0.000000 0.000000 0.000000 0.000000 0.024922 0.000000
# 6 0.000000 0.000000 0.000000 0.000000 0.000000 0.057451
#
#
# Mechanical properties :
#
#
# Convention : Reuss Voigt Hill
#
# Bulk Modulus (GPa) = 52.11738 65.72790 58.92264
# Shear Modulus (GPa) = 14.30933 22.81647 18.56290
#
# Velocity S-wave (km/s) = 2.80762 3.54530 3.19780
# Velocity P-wave (km/s) = 6.26265 7.27785 6.78925
#
# Compressibility (1/GPa) = 0.01918746
#
# Stress axis : x y z
#
# Youngs Moduli (GPa) = 68.01292 68.99407 39.21073
#
# Poissons Ratio (x) = 0.35267 0.45859
# Poissons Ratio (y) = 0.34766 0.03722
# Poissons Ratio (z) = 0.79545 0.06549
#
# Static dielectric constant tensor:
#      x y z
#    x 1.682400 0.000000 0.000000 
#    y 0.000000 1.642660 0.000000 
#    z 0.000000 0.000000 1.686490 
# 
# From -- ./inp_files/28604.got.cif
#   From: 2010.05.17/outbox.cif.g08.bks.cpg/sg70_15_cif.got.tgz:28604.got - 2010.06.03 15:57:51.
