data_PCOD9514928
_publ_section_title
;
Structure prediction by ZEFSAII (Michael W. Deem and Ramdas Pophale) SiO2 
 PCOD9514928
Probable space group: F D D D
;
_chemical_formula_sum "Si O2"
_cell_formula_units_Z 216
_cell_length_a 26.203417
_cell_length_b 13.347114
_cell_length_c 30.511470
_cell_angle_alpha 90.000000
_cell_angle_beta 90.000000
_cell_angle_gamma 90.000000
_cell_volume 10671.081331
_symmetry_space_group_name_H-M "F D D D"
_symmetry_group_IT_number 70
_space_group.IT_coordinate_system_code '2'
_symmetry_cell_setting 'orthorhombic'
loop_
_space_group_symop_operation_xyz
x,y,z
1/4-x,1/4-y,z
x,1/4-y,1/4-z
1/4-x,y,1/4-z
-x,-y,-z
3/4+x,3/4+y,-z
-x,3/4+y,3/4+z
3/4+x,-y,3/4+z
x,1/2+y,1/2+z
1/4-x,3/4-y,1/2+z
x,3/4-y,3/4-z
1/4-x,1/2+y,3/4-z
-x,1/2-y,1/2-z
3/4+x,1/4+y,1/2-z
-x,1/4+y,1/4+z
3/4+x,1/2-y,1/4+z
1/2+x,y,1/2+z
3/4-x,1/4-y,1/2+z
1/2+x,1/4-y,3/4-z
3/4-x,y,3/4-z
1/2-x,-y,1/2-z
1/4+x,3/4+y,1/2-z
1/2-x,3/4+y,1/4+z
1/4+x,-y,1/4+z
1/2+x,1/2+y,z
3/4-x,3/4-y,z
1/2+x,3/4-y,1/4-z
3/4-x,1/2+y,1/4-z
1/2-x,1/2-y,-z
1/4+x,1/4+y,-z
1/2-x,1/4+y,3/4+z
1/4+x,1/2-y,3/4+z
loop_
_atom_site_type_symbol
_atom_site_label
_atom_site_fract_x
_atom_site_fract_y
_atom_site_fract_z
Si Si1 0.375000 0.375000 0.155868
Si Si2 0.216625 0.088252 0.899556
Si Si3 0.695600 0.279619 0.292668
Si Si4 0.709776 0.989271 0.602363
Si Si5 0.597639 0.480996 0.063659
Si Si6 0.555215 0.996715 0.191458
Si Si7 0.625000 0.125000 0.125000
Si Si8 0.805243 0.994370 0.726380
O O1 0.333949 0.434635 0.126812
O O2 0.343091 0.293147 0.182472
O O3 0.258361 0.140629 0.867547
O O4 0.247786 0.001472 0.923030
O O5 0.200133 0.168346 0.936627
O O6 0.748973 0.285876 0.319368
O O7 0.698434 0.234347 0.243460
O O8 0.678951 0.395363 0.289767
O O9 0.656021 0.973950 0.578314
O O10 0.688838 0.031621 0.649385
O O11 0.576450 0.367582 0.060249
O O12 0.591588 0.532059 0.016838
O O13 0.590348 0.060314 0.158651
O O14 0.750000 0.000000 0.750000
#
# Coordination Sequence:
#
# PCOD9514928 Si02
#       8
#    16  32  32  32  32  32   8  32
#     4  10  23  38  56  91 128 169 198 252 333 386
#     4  10  20  39  60  81 123 160 202 258 314 370
#     4  10  21  37  61  85 123 159 206 255 319 389
#     4   9  17  32  55  83 113 145 186 244 307 362
#     4   9  18  35  59  82 114 150 194 248 311 357
#     4  10  20  37  61  83 115 156 207 259 303 384
#     4  12  22  36  64  92 112 166 212 256 330 374
#     4  11  19  38  61  84 112 163 205 254 313 379
#
# _framework density 20.241623000000001
#
# number of rings (size 3 to 8) (size 9 to 14) (size 15 to 20)
#    0.000    2.074    4.444    2.222    0.000    3.556 
#    0.000    4.444    3.259   13.333    0.000    0.000 
#    0.000    0.000    0.000    0.000    0.000    0.000 
#
# Total GULP energy -301022.396748 kJ/mol
# GULP energy per Si atom -5574.488829 kJ/mol
# Density = 2.019555 g / cm^3
# Si number density = 20.241623 Si / 1000 Ang^3
#
#
#
# Elastic Constant Matrix: (Units=GPa)
#
#
# Indices 1 2 3 4 5 6 
#
# 1 151.1739 34.2444 87.1159 0.0000 0.0000 0.0000
# 2 34.2444 55.6278 38.7362 0.0000 0.0000 0.0000
# 3 87.1159 38.7362 142.5711 0.0000 0.0000 0.0000
# 4 0.0000 0.0000 0.0000 16.0987 0.0000 0.0000
# 5 0.0000 0.0000 0.0000 0.0000 23.6274 0.0000
# 6 0.0000 0.0000 0.0000 0.0000 0.0000 21.1642
#
#
#
# Elastic Compliance Matrix: (Units=1/GPa)
#
#
# Indices 1 2 3 4 5 6 
#
# 1 0.010475 -0.002456 -0.005733 0.000000 0.000000 0.000000
# 2 -0.002456 0.022747 -0.004680 0.000000 0.000000 0.000000
# 3 -0.005733 -0.004680 0.011789 0.000000 0.000000 0.000000
# 4 0.000000 0.000000 0.000000 0.062117 0.000000 0.000000
# 5 0.000000 0.000000 0.000000 0.000000 0.042324 0.000000
# 6 0.000000 0.000000 0.000000 0.000000 0.000000 0.047250
#
#
# Mechanical properties :
#
#
# Convention : Reuss Voigt Hill
#
# Bulk Modulus (GPa) = 51.88604 74.39621 63.14112
# Shear Modulus (GPa) = 21.84706 24.79650 23.32178
#
# Velocity S-wave (km/s) = 3.28886 3.50383 3.39804
# Velocity P-wave (km/s) = 6.33333 7.29404 6.83060
#
# Compressibility (1/GPa) = 0.01927301
#
# Stress axis : x y z
#
# Youngs Moduli (GPa) = 95.46353 43.96148 84.82634
#
# Poissons Ratio (x) = 0.10797 0.48634
# Poissons Ratio (y) = 0.23447 0.39695
# Poissons Ratio (z) = 0.54733 0.20572
#
# Static dielectric constant tensor:
#      x y z
#    x 1.721540 0.000000 0.000000 
#    y 0.000000 1.735400 0.000000 
#    z 0.000000 0.000000 1.779610 
# 
# From -- ./inp_files/68501.got.cif
#   From: 2010.05.17/outbox.cif.g08.bks.cpg/sg70_35_cif.got.tgz:68501.got - 2010.06.03 15:57:51.
