data_PCOD9514392
_publ_section_title
;
Structure prediction by ZEFSAII (Michael W. Deem and Ramdas Pophale) SiO2 
 PCOD9514392
Probable space group: F D D D
;
_chemical_formula_sum "Si O2"
_cell_formula_units_Z 144
_cell_length_a 11.263487
_cell_length_b 30.191066
_cell_length_c 21.161533
_cell_angle_alpha 90.000000
_cell_angle_beta 90.000000
_cell_angle_gamma 90.000000
_cell_volume 7196.120643
_symmetry_space_group_name_H-M "F D D D"
_symmetry_group_IT_number 70
_space_group.IT_coordinate_system_code '2'
_symmetry_cell_setting 'orthorhombic'
loop_
_space_group_symop_operation_xyz
x,y,z
1/4-x,1/4-y,z
x,1/4-y,1/4-z
1/4-x,y,1/4-z
-x,-y,-z
3/4+x,3/4+y,-z
-x,3/4+y,3/4+z
3/4+x,-y,3/4+z
x,1/2+y,1/2+z
1/4-x,3/4-y,1/2+z
x,3/4-y,3/4-z
1/4-x,1/2+y,3/4-z
-x,1/2-y,1/2-z
3/4+x,1/4+y,1/2-z
-x,1/4+y,1/4+z
3/4+x,1/2-y,1/4+z
1/2+x,y,1/2+z
3/4-x,1/4-y,1/2+z
1/2+x,1/4-y,3/4-z
3/4-x,y,3/4-z
1/2-x,-y,1/2-z
1/4+x,3/4+y,1/2-z
1/2-x,3/4+y,1/4+z
1/4+x,-y,1/4+z
1/2+x,1/2+y,z
3/4-x,3/4-y,z
1/2+x,3/4-y,1/4-z
3/4-x,1/2+y,1/4-z
1/2-x,1/2-y,-z
1/4+x,1/4+y,-z
1/2-x,1/4+y,3/4+z
1/4+x,1/2-y,3/4+z
loop_
_atom_site_type_symbol
_atom_site_label
_atom_site_fract_x
_atom_site_fract_y
_atom_site_fract_z
Si Si1 0.375000 0.105409 0.875000
Si Si2 0.522116 0.088294 0.296294
Si Si3 0.670519 0.875000 0.875000
Si Si4 0.144226 0.697950 0.835831
Si Si5 0.625000 0.125000 0.729708
Si Si6 0.498336 0.705080 0.588528
O O1 0.403598 0.135195 0.935901
O O2 0.262711 0.075684 0.888610
O O3 0.625000 0.125000 0.290396
O O4 0.549317 0.059657 0.358670
O O5 0.521164 0.061540 0.232409
O O6 0.759189 0.872279 0.815130
O O7 0.584335 0.832250 0.878942
O O8 0.114875 0.668931 0.773848
O O9 0.176810 0.749160 0.831114
O O10 0.625000 0.710135 0.625000
#
# Coordination Sequence:
#
# PCOD9514392 Si02
#       6
#    16  32  16  32  16  32
#     4  10  18  44  66  93 126 173 226 278 330 400
#     4  10  22  41  66  94 130 176 224 271 336 403
#     4  11  27  46  70  98 145 185 210 286 356 407
#     4  11  23  41  69 100 128 179 229 281 329 403
#     4  11  24  50  68  98 141 184 226 270 345 416
#     4  12  26  43  68 105 138 175 227 290 345 399
#
# _framework density 20.010781000000001
#
# number of rings (size 3 to 8) (size 9 to 14) (size 15 to 20)
#    0.000    1.111    4.444    3.000    3.111    3.556 
#    0.000    0.000    0.000    0.000    0.000    0.000 
#    0.000    0.000    0.000    0.000    0.000    0.000 
#
# Total GULP energy -201065.889919 kJ/mol
# GULP energy per Si atom -5585.163609 kJ/mol
# Density = 1.996524 g / cm^3
# Si number density = 20.010781 Si / 1000 Ang^3
#
#
#
# Elastic Constant Matrix: (Units=GPa)
#
#
# Indices 1 2 3 4 5 6 
#
# 1 69.9604 42.7939 23.8263 0.0000 0.0000 0.0000
# 2 42.7939 175.5378 66.2257 0.0000 0.0000 0.0000
# 3 23.8263 66.2257 122.9606 0.0000 0.0000 0.0000
# 4 0.0000 0.0000 0.0000 7.2350 0.0000 0.0000
# 5 0.0000 0.0000 0.0000 0.0000 38.2943 0.0000
# 6 0.0000 0.0000 0.0000 0.0000 0.0000 17.8092
#
#
#
# Elastic Compliance Matrix: (Units=1/GPa)
#
#
# Indices 1 2 3 4 5 6 
#
# 1 0.016971 -0.003635 -0.001330 0.000000 0.000000 0.000000
# 2 -0.003635 0.007928 -0.003566 0.000000 0.000000 0.000000
# 3 -0.001330 -0.003566 0.010311 0.000000 0.000000 0.000000
# 4 0.000000 0.000000 0.000000 0.138217 0.000000 0.000000
# 5 0.000000 0.000000 0.000000 0.000000 0.026114 0.000000
# 6 0.000000 0.000000 0.000000 0.000000 0.000000 0.056151
#
#
# Mechanical properties :
#
#
# Convention : Reuss Voigt Hill
#
# Bulk Modulus (GPa) = 55.10583 70.46117 62.78350
# Shear Modulus (GPa) = 17.93381 28.37523 23.15452
#
# Velocity S-wave (km/s) = 2.99692 3.76972 3.40531
# Velocity P-wave (km/s) = 6.29073 7.36449 6.84868
#
# Compressibility (1/GPa) = 0.01814690
#
# Stress axis : x y z
#
# Youngs Moduli (GPa) = 58.92558 126.13134 96.98424
#
# Poissons Ratio (x) = 0.45852 0.12904
# Poissons Ratio (y) = 0.21421 0.34582
# Poissons Ratio (z) = 0.07840 0.44975
#
# Static dielectric constant tensor:
#      x y z
#    x 1.591260 0.000000 0.000000 
#    y 0.000000 1.761940 0.000000 
#    z 0.000000 0.000000 1.723980 
# 
# From -- ./inp_files/50194.got.cif
#   From: 2010.05.17/outbox.cif.g08.bks.cpg/sg70_26_cif.got.tgz:50194.got - 2010.06.03 15:57:51.
