data_PCOD9514600
_publ_section_title
;
Structure prediction by ZEFSAII (Michael W. Deem and Ramdas Pophale) SiO2 
 PCOD9514600
Probable space group: F D D D
;
_chemical_formula_sum "Si O2"
_cell_formula_units_Z 128
_cell_length_a 15.955850
_cell_length_b 23.194643
_cell_length_c 15.030373
_cell_angle_alpha 90.000000
_cell_angle_beta 90.000000
_cell_angle_gamma 90.000000
_cell_volume 5562.594419
_symmetry_space_group_name_H-M "F D D D"
_symmetry_group_IT_number 70
_space_group.IT_coordinate_system_code '2'
_symmetry_cell_setting 'orthorhombic'
loop_
_space_group_symop_operation_xyz
x,y,z
1/4-x,1/4-y,z
x,1/4-y,1/4-z
1/4-x,y,1/4-z
-x,-y,-z
3/4+x,3/4+y,-z
-x,3/4+y,3/4+z
3/4+x,-y,3/4+z
x,1/2+y,1/2+z
1/4-x,3/4-y,1/2+z
x,3/4-y,3/4-z
1/4-x,1/2+y,3/4-z
-x,1/2-y,1/2-z
3/4+x,1/4+y,1/2-z
-x,1/4+y,1/4+z
3/4+x,1/2-y,1/4+z
1/2+x,y,1/2+z
3/4-x,1/4-y,1/2+z
1/2+x,1/4-y,3/4-z
3/4-x,y,3/4-z
1/2-x,-y,1/2-z
1/4+x,3/4+y,1/2-z
1/2-x,3/4+y,1/4+z
1/4+x,-y,1/4+z
1/2+x,1/2+y,z
3/4-x,3/4-y,z
1/2+x,3/4-y,1/4-z
3/4-x,1/2+y,1/4-z
1/2-x,1/2-y,-z
1/4+x,1/4+y,-z
1/2-x,1/4+y,3/4+z
1/4+x,1/2-y,3/4+z
loop_
_atom_site_type_symbol
_atom_site_label
_atom_site_fract_x
_atom_site_fract_y
_atom_site_fract_z
Si Si1 0.923001 0.512975 0.728046
Si Si2 0.731112 0.703202 0.395901
Si Si3 0.875000 0.875000 0.732229
Si Si4 0.025516 0.109372 0.726028
Si Si5 0.759919 0.625000 0.125000
O O1 0.828067 0.494964 0.704242
O O2 0.977488 0.452927 0.725897
O O3 0.948373 0.525077 0.829825
O O4 0.945286 0.568314 0.666756
O O5 0.663367 0.674185 0.329130
O O6 0.767401 0.653482 0.457773
O O7 0.800771 0.896710 0.795858
O O8 0.125000 0.125000 0.725098
O O9 0.997649 0.125000 0.625000
#
# Coordination Sequence:
#
# PCOD9514600 Si02
#       5
#    32  32  16  32  16
#     4  10  20  37  60  91 129 167 222 278 331 404
#     4  10  19  37  63  88 124 175 216 272 333 402
#     4   9  16  36  57  88 118 168 217 248 350 403
#     4   9  18  36  62  86 116 172 221 256 327 408
#     4   9  20  32  60  90 124 166 209 282 332 388
#
# _framework density 23.010845
#
# number of rings (size 3 to 8) (size 9 to 14) (size 15 to 20)
#    0.000    2.500    3.750    0.000    0.000    2.000 
#    2.250    0.000    0.000    0.000    0.000    0.000 
#    0.000    0.000    0.000    0.000    0.000    0.000 
#
# Total GULP energy -178294.915889 kJ/mol
# GULP energy per Si atom -5571.716122 kJ/mol
# Density = 2.295847 g / cm^3
# Si number density = 23.010845 Si / 1000 Ang^3
#
#
#
# Elastic Constant Matrix: (Units=GPa)
#
#
# Indices 1 2 3 4 5 6 
#
# 1 88.8878 51.1271 57.3523 0.0000 0.0000 0.0000
# 2 51.1271 164.7282 70.0767 0.0000 0.0000 0.0000
# 3 57.3523 70.0767 145.7809 0.0000 0.0000 0.0000
# 4 0.0000 0.0000 0.0000 41.1298 0.0000 0.0000
# 5 0.0000 0.0000 0.0000 0.0000 43.0329 0.0000
# 6 0.0000 0.0000 0.0000 0.0000 0.0000 10.1741
#
#
#
# Elastic Compliance Matrix: (Units=1/GPa)
#
#
# Indices 1 2 3 4 5 6 
#
# 1 0.016106 -0.002895 -0.004944 0.000000 0.000000 0.000000
# 2 -0.002895 0.008152 -0.002779 0.000000 0.000000 0.000000
# 3 -0.004944 -0.002779 0.010141 0.000000 0.000000 0.000000
# 4 0.000000 0.000000 0.000000 0.024313 0.000000 0.000000
# 5 0.000000 0.000000 0.000000 0.000000 0.023238 0.000000
# 6 0.000000 0.000000 0.000000 0.000000 0.000000 0.098289
#
#
# Mechanical properties :
#
#
# Convention : Reuss Voigt Hill
#
# Bulk Modulus (GPa) = 75.98873 84.05660 80.02267
# Shear Modulus (GPa) = 24.28791 33.59009 28.93900
#
# Velocity S-wave (km/s) = 3.25237 3.82481 3.55015
# Velocity P-wave (km/s) = 6.87012 7.49093 7.18723
#
# Compressibility (1/GPa) = 0.01315985
#
# Stress axis : x y z
#
# Youngs Moduli (GPa) = 62.08952 122.67484 98.61088
#
# Poissons Ratio (x) = 0.35519 0.48757
# Poissons Ratio (y) = 0.17977 0.27408
# Poissons Ratio (z) = 0.30700 0.34096
#
# Static dielectric constant tensor:
#      x y z
#    x 1.862310 0.000000 0.000000 
#    y 0.000000 1.925560 0.000000 
#    z 0.000000 0.000000 1.912460 
# 
# From -- ./inp_files/27288.got.cif
#   From: 2010.05.17/outbox.cif.g08.bks.cpg/sg70_14_cif.got.tgz:27288.got - 2010.06.03 15:57:51.
