data_PCOD9514352
_publ_section_title
;
Structure prediction by ZEFSAII (Michael W. Deem and Ramdas Pophale) SiO2 
 PCOD9514352
Probable space group: F D D D
;
_chemical_formula_sum "Si O2"
_cell_formula_units_Z 176
_cell_length_a 21.037800
_cell_length_b 12.600930
_cell_length_c 28.342957
_cell_angle_alpha 90.000000
_cell_angle_beta 90.000000
_cell_angle_gamma 90.000000
_cell_volume 7513.600140
_symmetry_space_group_name_H-M "F D D D"
_symmetry_group_IT_number 70
_space_group.IT_coordinate_system_code '2'
_symmetry_cell_setting 'orthorhombic'
loop_
_space_group_symop_operation_xyz
x,y,z
1/4-x,1/4-y,z
x,1/4-y,1/4-z
1/4-x,y,1/4-z
-x,-y,-z
3/4+x,3/4+y,-z
-x,3/4+y,3/4+z
3/4+x,-y,3/4+z
x,1/2+y,1/2+z
1/4-x,3/4-y,1/2+z
x,3/4-y,3/4-z
1/4-x,1/2+y,3/4-z
-x,1/2-y,1/2-z
3/4+x,1/4+y,1/2-z
-x,1/4+y,1/4+z
3/4+x,1/2-y,1/4+z
1/2+x,y,1/2+z
3/4-x,1/4-y,1/2+z
1/2+x,1/4-y,3/4-z
3/4-x,y,3/4-z
1/2-x,-y,1/2-z
1/4+x,3/4+y,1/2-z
1/2-x,3/4+y,1/4+z
1/4+x,-y,1/4+z
1/2+x,1/2+y,z
3/4-x,3/4-y,z
1/2+x,3/4-y,1/4-z
3/4-x,1/2+y,1/4-z
1/2-x,1/2-y,-z
1/4+x,1/4+y,-z
1/2-x,1/4+y,3/4+z
1/4+x,1/2-y,3/4+z
loop_
_atom_site_type_symbol
_atom_site_label
_atom_site_fract_x
_atom_site_fract_y
_atom_site_fract_z
Si Si1 0.875000 0.875000 0.276719
Si Si2 0.017706 0.263963 0.087712
Si Si3 0.629639 0.969133 0.938010
Si Si4 0.156364 0.516813 0.785859
Si Si5 0.512572 0.253480 0.194125
Si Si6 0.454629 0.466007 0.940879
O O1 0.860050 0.779511 0.238914
O O2 0.933317 0.836226 0.309404
O O3 0.940068 0.257118 0.092786
O O4 0.053637 0.243864 0.136603
O O5 0.035029 0.378913 0.068750
O O6 0.031320 0.159969 0.056403
O O7 0.557604 0.991484 0.921560
O O8 0.632928 0.842744 0.942793
O O9 0.125000 0.625000 0.801758
O O10 0.152379 0.505580 0.729016
O O11 0.230975 0.526439 0.795875
O O12 0.500000 0.250000 0.250000
#
# Coordination Sequence:
#
# PCOD9514352 Si02
#       6
#    16  32  32  32  32  32
#     4  10  20  34  58  99 118 168 210 262 322 389
#     4  10  18  38  63  91 130 161 220 270 329 384
#     4  10  19  34  61  96 124 161 219 266 326 391
#     4  10  22  37  60  89 126 171 211 263 324 390
#     4  10  19  32  60  97 124 167 212 268 321 396
#     4   9  22  38  60  93 126 169 210 274 323 392
#
# _framework density 23.424189999999999
#
# number of rings (size 3 to 8) (size 9 to 14) (size 15 to 20)
#    0.000    2.182    3.636    0.000    5.091    2.909 
#    0.000    1.818    0.000    4.364    0.000    0.000 
#    0.000    0.000    0.000    0.000    0.000    0.000 
#
# Total GULP energy -245641.808913 kJ/mol
# GULP energy per Si atom -5582.768384 kJ/mol
# Density = 2.337088 g / cm^3
# Si number density = 23.424190 Si / 1000 Ang^3
#
#
#
# Elastic Constant Matrix: (Units=GPa)
#
#
# Indices 1 2 3 4 5 6 
#
# 1 126.7817 36.4879 10.0175 0.0000 0.0000 0.0000
# 2 36.4879 152.4443 15.3036 0.0000 0.0000 0.0000
# 3 10.0175 15.3036 38.2164 0.0000 0.0000 0.0000
# 4 0.0000 0.0000 0.0000 26.6994 0.0000 0.0000
# 5 0.0000 0.0000 0.0000 0.0000 6.8810 0.0000
# 6 0.0000 0.0000 0.0000 0.0000 0.0000 38.5749
#
#
#
# Elastic Compliance Matrix: (Units=1/GPa)
#
#
# Indices 1 2 3 4 5 6 
#
# 1 0.008551 -0.001898 -0.001481 0.000000 0.000000 0.000000
# 2 -0.001898 0.007256 -0.002408 0.000000 0.000000 0.000000
# 3 -0.001481 -0.002408 0.027519 0.000000 0.000000 0.000000
# 4 0.000000 0.000000 0.000000 0.037454 0.000000 0.000000
# 5 0.000000 0.000000 0.000000 0.000000 0.145327 0.000000
# 6 0.000000 0.000000 0.000000 0.000000 0.000000 0.025924
#
#
# Mechanical properties :
#
#
# Convention : Reuss Voigt Hill
#
# Bulk Modulus (GPa) = 31.49481 49.00671 40.25076
# Shear Modulus (GPa) = 18.23556 31.47330 24.85443
#
# Velocity S-wave (km/s) = 2.79317 3.66952 3.26092
# Velocity P-wave (km/s) = 4.88641 6.23865 5.60347
#
# Compressibility (1/GPa) = 0.03175126
#
# Stress axis : x y z
#
# Youngs Moduli (GPa) = 116.94737 137.82089 36.33803
#
# Poissons Ratio (x) = 0.26158 0.05383
# Poissons Ratio (y) = 0.22196 0.08750
# Poissons Ratio (z) = 0.17324 0.33188
#
# Static dielectric constant tensor:
#      x y z
#    x 1.976920 0.000000 0.000000 
#    y 0.000000 1.833960 0.000000 
#    z 0.000000 0.000000 2.026720 
# 
# From -- ./inp_files/67803.got.cif
#   From: 2010.05.17/outbox.cif.g08.bks.cpg/sg70_34_cif.got.tgz:67803.got - 2010.06.03 15:57:51.
