data_PCOD9514742
_publ_section_title
;
Structure prediction by ZEFSAII (Michael W. Deem and Ramdas Pophale) SiO2 
 PCOD9514742
Probable space group: F D D D
;
_chemical_formula_sum "Si O2"
_cell_formula_units_Z 168
_cell_length_a 12.610050
_cell_length_b 26.407694
_cell_length_c 23.837855
_cell_angle_alpha 90.000000
_cell_angle_beta 90.000000
_cell_angle_gamma 90.000000
_cell_volume 7938.061537
_symmetry_space_group_name_H-M "F D D D"
_symmetry_group_IT_number 70
_space_group.IT_coordinate_system_code '2'
_symmetry_cell_setting 'orthorhombic'
loop_
_space_group_symop_operation_xyz
x,y,z
1/4-x,1/4-y,z
x,1/4-y,1/4-z
1/4-x,y,1/4-z
-x,-y,-z
3/4+x,3/4+y,-z
-x,3/4+y,3/4+z
3/4+x,-y,3/4+z
x,1/2+y,1/2+z
1/4-x,3/4-y,1/2+z
x,3/4-y,3/4-z
1/4-x,1/2+y,3/4-z
-x,1/2-y,1/2-z
3/4+x,1/4+y,1/2-z
-x,1/4+y,1/4+z
3/4+x,1/2-y,1/4+z
1/2+x,y,1/2+z
3/4-x,1/4-y,1/2+z
1/2+x,1/4-y,3/4-z
3/4-x,y,3/4-z
1/2-x,-y,1/2-z
1/4+x,3/4+y,1/2-z
1/2-x,3/4+y,1/4+z
1/4+x,-y,1/4+z
1/2+x,1/2+y,z
3/4-x,3/4-y,z
1/2+x,3/4-y,1/4-z
3/4-x,1/2+y,1/4-z
1/2-x,1/2-y,-z
1/4+x,1/4+y,-z
1/2-x,1/4+y,3/4+z
1/4+x,1/2-y,3/4+z
loop_
_atom_site_type_symbol
_atom_site_label
_atom_site_fract_x
_atom_site_fract_y
_atom_site_fract_z
Si Si1 0.780929 0.601601 0.529856
Si Si2 0.375000 0.235772 0.875000
Si Si3 0.125000 0.125000 0.625000
Si Si4 0.388396 0.787043 0.135804
Si Si5 0.375000 0.875000 0.067115
Si Si6 0.920290 0.254663 0.497182
Si Si7 0.091747 0.469640 0.965720
O O1 0.702598 0.594532 0.583191
O O2 0.708477 0.601311 0.474847
O O3 0.853447 0.552981 0.518295
O O4 0.825787 0.658847 0.533806
O O5 0.485829 0.206278 0.874829
O O6 0.374155 0.264526 0.815126
O O7 0.326848 0.832589 0.106504
O O8 0.372131 0.786958 0.201571
O O9 0.351270 0.738764 0.098941
O O10 0.046256 0.264604 0.493051
O O11 0.000000 0.500000 0.000000
#
# Coordination Sequence:
#
# PCOD9514742 Si02
#       7
#    32  16   8  32  16  32  32
#     4  11  20  39  62  94 134 176 207 270 332 398
#     4  10  22  44  64  82 122 174 216 270 332 376
#     4  10  20  32  60  90 132 172 208 256 336 390
#     4  11  23  41  65  95 128 174 221 272 329 402
#     4  11  20  41  64  93 136 165 218 270 328 395
#     4  11  24  41  65  96 130 173 223 277 329 396
#     4  11  21  37  61  97 135 171 216 264 333 403
#
# _framework density 21.163858000000001
#
# number of rings (size 3 to 8) (size 9 to 14) (size 15 to 20)
#    0.000    1.143    5.714    2.857    0.000    2.286 
#    0.000    0.000    0.000   10.857    0.000    0.000 
#    0.000    0.000    0.000    0.000    0.000    0.000 
#
# Total GULP energy -234106.010341 kJ/mol
# GULP energy per Si atom -5573.952627 kJ/mol
# Density = 2.111569 g / cm^3
# Si number density = 21.163858 Si / 1000 Ang^3
#
#
#
# Elastic Constant Matrix: (Units=GPa)
#
#
# Indices 1 2 3 4 5 6 
#
# 1 68.3657 -0.5106 29.7504 0.0000 0.0000 0.0000
# 2 -0.5106 81.9836 26.4170 0.0000 0.0000 0.0000
# 3 29.7504 26.4170 197.0127 0.0000 0.0000 0.0000
# 4 0.0000 0.0000 0.0000 21.8554 0.0000 0.0000
# 5 0.0000 0.0000 0.0000 0.0000 25.9538 0.0000
# 6 0.0000 0.0000 0.0000 0.0000 0.0000 14.9655
#
#
#
# Elastic Compliance Matrix: (Units=1/GPa)
#
#
# Indices 1 2 3 4 5 6 
#
# 1 0.015720 0.000902 -0.002495 0.000000 0.000000 0.000000
# 2 0.000902 0.012800 -0.001853 0.000000 0.000000 0.000000
# 3 -0.002495 -0.001853 0.005701 0.000000 0.000000 0.000000
# 4 0.000000 0.000000 0.000000 0.045755 0.000000 0.000000
# 5 0.000000 0.000000 0.000000 0.000000 0.038530 0.000000
# 6 0.000000 0.000000 0.000000 0.000000 0.000000 0.066820
#
#
# Mechanical properties :
#
#
# Convention : Reuss Voigt Hill
#
# Bulk Modulus (GPa) = 36.59023 50.96395 43.77709
# Shear Modulus (GPa) = 24.83521 32.00195 28.41858
#
# Velocity S-wave (km/s) = 3.42932 3.89280 3.66838
# Velocity P-wave (km/s) = 5.74516 6.65868 6.21872
#
# Compressibility (1/GPa) = 0.02732970
#
# Stress axis : x y z
#
# Youngs Moduli (GPa) = 63.61501 78.12438 175.41003
#
# Poissons Ratio (x) = -0.07045 0.43759
# Poissons Ratio (y) = -0.05736 0.32495
# Poissons Ratio (z) = 0.15870 0.14473
#
# Static dielectric constant tensor:
#      x y z
#    x 1.787330 0.000000 0.000000 
#    y 0.000000 1.808640 0.000000 
#    z 0.000000 0.000000 1.787040 
# 
# From -- ./inp_files/27843.got.cif
#   From: 2010.05.17/outbox.cif.g08.bks.cpg/sg70_14_cif.got.tgz:27843.got - 2010.06.03 15:57:51.
