data_PCOD9514163
_publ_section_title
;
Structure prediction by ZEFSAII (Michael W. Deem and Ramdas Pophale) SiO2 
 PCOD9514163
Probable space group: F D D D
;
_chemical_formula_sum "Si O2"
_cell_formula_units_Z 176
_cell_length_a 13.705042
_cell_length_b 25.959682
_cell_length_c 24.062666
_cell_angle_alpha 90.000000
_cell_angle_beta 90.000000
_cell_angle_gamma 90.000000
_cell_volume 8560.979988
_symmetry_space_group_name_H-M "F D D D"
_symmetry_group_IT_number 70
_space_group.IT_coordinate_system_code '2'
_symmetry_cell_setting 'orthorhombic'
loop_
_space_group_symop_operation_xyz
x,y,z
1/4-x,1/4-y,z
x,1/4-y,1/4-z
1/4-x,y,1/4-z
-x,-y,-z
3/4+x,3/4+y,-z
-x,3/4+y,3/4+z
3/4+x,-y,3/4+z
x,1/2+y,1/2+z
1/4-x,3/4-y,1/2+z
x,3/4-y,3/4-z
1/4-x,1/2+y,3/4-z
-x,1/2-y,1/2-z
3/4+x,1/4+y,1/2-z
-x,1/4+y,1/4+z
3/4+x,1/2-y,1/4+z
1/2+x,y,1/2+z
3/4-x,1/4-y,1/2+z
1/2+x,1/4-y,3/4-z
3/4-x,y,3/4-z
1/2-x,-y,1/2-z
1/4+x,3/4+y,1/2-z
1/2-x,3/4+y,1/4+z
1/4+x,-y,1/4+z
1/2+x,1/2+y,z
3/4-x,3/4-y,z
1/2+x,3/4-y,1/4-z
3/4-x,1/2+y,1/4-z
1/2-x,1/2-y,-z
1/4+x,1/4+y,-z
1/2-x,1/4+y,3/4+z
1/4+x,1/2-y,3/4+z
loop_
_atom_site_type_symbol
_atom_site_label
_atom_site_fract_x
_atom_site_fract_y
_atom_site_fract_z
Si Si1 0.542075 0.375000 0.875000
Si Si2 0.943391 0.521014 0.431024
Si Si3 0.465879 0.454106 0.793949
Si Si4 0.415409 0.958257 0.651714
Si Si5 0.092157 0.878717 0.996056
Si Si6 0.527586 0.848917 0.663101
O O1 0.477902 0.421533 0.851044
O O2 0.601564 0.360573 0.819596
O O3 0.875000 0.524963 0.375000
O O4 0.893475 0.473709 0.462710
O O5 0.928797 0.571018 0.468266
O O6 0.051196 0.517486 0.406971
O O7 0.539136 0.502890 0.802008
O O8 0.504273 0.412937 0.749779
O O9 0.471939 0.903260 0.652968
O O10 0.301848 0.945741 0.655391
O O11 0.185100 0.852015 0.023673
O O12 0.625000 0.844913 0.625000
#
# Coordination Sequence:
#
# PCOD9514163 Si02
#       6
#    16  32  32  32  32  32
#     4   8  22  36  59  95 136 178 215 258 342 427
#     4  10  17  39  68  92 128 167 221 282 330 393
#     4   9  19  38  62  92 135 175 215 269 344 400
#     4  10  20  36  67  93 120 168 217 282 342 382
#     4  10  18  38  64  89 137 172 217 276 331 414
#     4  11  19  37  66  95 124 161 226 290 332 393
#
# _framework density 20.558392999999999
#
# number of rings (size 3 to 8) (size 9 to 14) (size 15 to 20)
#    1.091    1.091    5.455    0.000    0.000    0.727 
#    3.273    7.727   16.000    2.182    0.000    0.000 
#    0.000    0.000    0.000    0.000    0.000    0.000 
#
# Total GULP energy -245094.660306 kJ/mol
# GULP energy per Si atom -5570.333189 kJ/mol
# Density = 2.051160 g / cm^3
# Si number density = 20.558393 Si / 1000 Ang^3
#
#
#
# Elastic Constant Matrix: (Units=GPa)
#
#
# Indices 1 2 3 4 5 6 
#
# 1 108.9290 38.7142 33.4851 0.0000 0.0000 0.0000
# 2 38.7142 91.7094 16.2191 0.0000 0.0000 0.0000
# 3 33.4851 16.2191 93.8804 0.0000 0.0000 0.0000
# 4 0.0000 0.0000 0.0000 35.6699 0.0000 0.0000
# 5 0.0000 0.0000 0.0000 0.0000 21.1864 0.0000
# 6 0.0000 0.0000 0.0000 0.0000 0.0000 16.4330
#
#
#
# Elastic Compliance Matrix: (Units=1/GPa)
#
#
# Indices 1 2 3 4 5 6 
#
# 1 0.011794 -0.004368 -0.003452 0.000000 0.000000 0.000000
# 2 -0.004368 0.012866 -0.000665 0.000000 0.000000 0.000000
# 3 -0.003452 -0.000665 0.011998 0.000000 0.000000 0.000000
# 4 0.000000 0.000000 0.000000 0.028035 0.000000 0.000000
# 5 0.000000 0.000000 0.000000 0.000000 0.047200 0.000000
# 6 0.000000 0.000000 0.000000 0.000000 0.000000 0.060853
#
#
# Mechanical properties :
#
#
# Convention : Reuss Voigt Hill
#
# Bulk Modulus (GPa) = 50.79302 52.37285 51.58293
# Shear Modulus (GPa) = 25.47408 28.39787 26.93597
#
# Velocity S-wave (km/s) = 3.52392 3.72065 3.62362
# Velocity P-wave (km/s) = 6.42788 6.63236 6.53092
#
# Compressibility (1/GPa) = 0.01968775
#
# Stress axis : x y z
#
# Youngs Moduli (GPa) = 84.78935 77.72699 83.34779
#
# Poissons Ratio (x) = 0.33953 0.28771
# Poissons Ratio (y) = 0.37038 0.05540
# Poissons Ratio (z) = 0.29269 0.05166
#
# Static dielectric constant tensor:
#      x y z
#    x 1.776440 0.000000 0.000000 
#    y 0.000000 1.807610 0.000000 
#    z 0.000000 0.000000 1.803160 
# 
# From -- ./inp_files/58723.got.cif
#   From: 2010.05.17/outbox.cif.g08.bks.cpg/sg70_30_cif.got.tgz:58723.got - 2010.06.03 15:57:51.
