data_PCOD9514666
_publ_section_title
;
Structure prediction by ZEFSAII (Michael W. Deem and Ramdas Pophale) SiO2 
 PCOD9514666
Probable space group: F D D D
;
_chemical_formula_sum "Si O2"
_cell_formula_units_Z 208
_cell_length_a 17.255723
_cell_length_b 28.278084
_cell_length_c 20.972734
_cell_angle_alpha 90.000000
_cell_angle_beta 90.000000
_cell_angle_gamma 90.000000
_cell_volume 10233.829790
_symmetry_space_group_name_H-M "F D D D"
_symmetry_group_IT_number 70
_space_group.IT_coordinate_system_code '2'
_symmetry_cell_setting 'orthorhombic'
loop_
_space_group_symop_operation_xyz
x,y,z
1/4-x,1/4-y,z
x,1/4-y,1/4-z
1/4-x,y,1/4-z
-x,-y,-z
3/4+x,3/4+y,-z
-x,3/4+y,3/4+z
3/4+x,-y,3/4+z
x,1/2+y,1/2+z
1/4-x,3/4-y,1/2+z
x,3/4-y,3/4-z
1/4-x,1/2+y,3/4-z
-x,1/2-y,1/2-z
3/4+x,1/4+y,1/2-z
-x,1/4+y,1/4+z
3/4+x,1/2-y,1/4+z
1/2+x,y,1/2+z
3/4-x,1/4-y,1/2+z
1/2+x,1/4-y,3/4-z
3/4-x,y,3/4-z
1/2-x,-y,1/2-z
1/4+x,3/4+y,1/2-z
1/2-x,3/4+y,1/4+z
1/4+x,-y,1/4+z
1/2+x,1/2+y,z
3/4-x,3/4-y,z
1/2+x,3/4-y,1/4-z
3/4-x,1/2+y,1/4-z
1/2-x,1/2-y,-z
1/4+x,1/4+y,-z
1/2-x,1/4+y,3/4+z
1/4+x,1/2-y,3/4+z
loop_
_atom_site_type_symbol
_atom_site_label
_atom_site_fract_x
_atom_site_fract_y
_atom_site_fract_z
Si Si1 0.291083 0.125000 0.125000
Si Si2 0.917933 0.252907 0.941181
Si Si3 0.833417 0.599508 0.438715
Si Si4 0.298193 0.206102 0.030257
Si Si5 0.915819 0.425323 0.701486
Si Si6 0.179025 0.001127 0.881158
Si Si7 0.588081 0.428997 0.465481
O O1 0.256018 0.165576 0.075886
O O2 0.345501 0.154105 0.173535
O O3 0.875000 0.257252 0.875000
O O4 0.002587 0.232478 0.926242
O O5 0.924773 0.301905 0.978772
O O6 0.874216 0.217027 0.987111
O O7 0.875000 0.618629 0.375000
O O8 0.899459 0.569361 0.475580
O O9 0.752846 0.573593 0.422118
O O10 0.804308 0.638996 0.489040
O O11 0.361125 0.229204 0.076959
O O12 0.250000 0.250000 0.000000
O O13 0.875000 0.375000 0.702658
O O14 0.858480 0.458454 0.661156
O O15 0.211294 0.959368 0.834688
#
# Coordination Sequence:
#
# PCOD9514666 Si02
#       7
#    16  32  32  32  32  32  32
#     4   8  18  38  62  95 123 162 218 262 328 392
#     4  11  24  41  63  92 127 173 212 260 329 397
#     4  11  22  39  64  97 125 167 218 267 326 395
#     4  10  19  39  68  93 124 174 216 271 334 393
#     4  11  26  41  61  98 131 163 219 274 323 396
#     4  10  22  43  62  89 128 167 211 266 328 387
#     4   9  21  37  65  87 123 165 209 257 323 385
#
# _framework density 20.324746000000001
#
# number of rings (size 3 to 8) (size 9 to 14) (size 15 to 20)
#    0.000    1.846    1.538    1.385    6.462    1.538 
#    0.000    0.000    0.000    0.923    0.000    0.000 
#    0.000    0.000    0.000    0.000    0.000    0.000 
#
# Total GULP energy -289799.061894 kJ/mol
# GULP energy per Si atom -5573.058883 kJ/mol
# Density = 2.027849 g / cm^3
# Si number density = 20.324746 Si / 1000 Ang^3
#
#
#
# Elastic Constant Matrix: (Units=GPa)
#
#
# Indices 1 2 3 4 5 6 
#
# 1 44.1814 17.9958 15.2111 0.0000 0.0000 0.0000
# 2 17.9958 47.0384 18.6887 0.0000 0.0000 0.0000
# 3 15.2111 18.6887 88.0809 0.0000 0.0000 0.0000
# 4 0.0000 0.0000 0.0000 31.3038 0.0000 0.0000
# 5 0.0000 0.0000 0.0000 0.0000 18.8000 0.0000
# 6 0.0000 0.0000 0.0000 0.0000 0.0000 20.2099
#
#
#
# Elastic Compliance Matrix: (Units=1/GPa)
#
#
# Indices 1 2 3 4 5 6 
#
# 1 0.027404 -0.009396 -0.002739 0.000000 0.000000 0.000000
# 2 -0.009396 0.026438 -0.003987 0.000000 0.000000 0.000000
# 3 -0.002739 -0.003987 0.012672 0.000000 0.000000 0.000000
# 4 0.000000 0.000000 0.000000 0.031945 0.000000 0.000000
# 5 0.000000 0.000000 0.000000 0.000000 0.053192 0.000000
# 6 0.000000 0.000000 0.000000 0.000000 0.000000 0.049481
#
#
# Mechanical properties :
#
#
# Convention : Reuss Voigt Hill
#
# Bulk Modulus (GPa) = 29.17955 31.45464 30.31710
# Shear Modulus (GPa) = 20.42498 22.55642 21.49070
#
# Velocity S-wave (km/s) = 3.17350 3.33498 3.25524
# Velocity P-wave (km/s) = 5.27409 5.50809 5.39236
#
# Compressibility (1/GPa) = 0.03427058
#
# Stress axis : x y z
#
# Youngs Moduli (GPa) = 36.49101 37.82448 78.91344
#
# Poissons Ratio (x) = 0.35540 0.21614
# Poissons Ratio (y) = 0.34287 0.31462
# Poissons Ratio (z) = 0.09995 0.15080
#
# Static dielectric constant tensor:
#      x y z
#    x 1.697910 0.000000 0.000000 
#    y 0.000000 1.777910 0.000000 
#    z 0.000000 0.000000 1.739500 
# 
# From -- ./inp_files/52355.got.cif
#   From: 2010.05.17/outbox.cif.g08.bks.cpg/sg70_27_cif.got.tgz:52355.got - 2010.06.03 15:57:51.
