data_PCOD9514460
_publ_section_title
;
Structure prediction by ZEFSAII (Michael W. Deem and Ramdas Pophale) SiO2 
 PCOD9514460
Probable space group: F D D D
;
_chemical_formula_sum "Si O2"
_cell_formula_units_Z 216
_cell_length_a 18.449821
_cell_length_b 22.098100
_cell_length_c 21.588275
_cell_angle_alpha 90.000000
_cell_angle_beta 90.000000
_cell_angle_gamma 90.000000
_cell_volume 8801.669019
_symmetry_space_group_name_H-M "F D D D"
_symmetry_group_IT_number 70
_space_group.IT_coordinate_system_code '2'
_symmetry_cell_setting 'orthorhombic'
loop_
_space_group_symop_operation_xyz
x,y,z
1/4-x,1/4-y,z
x,1/4-y,1/4-z
1/4-x,y,1/4-z
-x,-y,-z
3/4+x,3/4+y,-z
-x,3/4+y,3/4+z
3/4+x,-y,3/4+z
x,1/2+y,1/2+z
1/4-x,3/4-y,1/2+z
x,3/4-y,3/4-z
1/4-x,1/2+y,3/4-z
-x,1/2-y,1/2-z
3/4+x,1/4+y,1/2-z
-x,1/4+y,1/4+z
3/4+x,1/2-y,1/4+z
1/2+x,y,1/2+z
3/4-x,1/4-y,1/2+z
1/2+x,1/4-y,3/4-z
3/4-x,y,3/4-z
1/2-x,-y,1/2-z
1/4+x,3/4+y,1/2-z
1/2-x,3/4+y,1/4+z
1/4+x,-y,1/4+z
1/2+x,1/2+y,z
3/4-x,3/4-y,z
1/2+x,3/4-y,1/4-z
3/4-x,1/2+y,1/4-z
1/2-x,1/2-y,-z
1/4+x,1/4+y,-z
1/2-x,1/4+y,3/4+z
1/4+x,1/2-y,3/4+z
loop_
_atom_site_type_symbol
_atom_site_label
_atom_site_fract_x
_atom_site_fract_y
_atom_site_fract_z
Si Si1 0.570016 0.178781 0.835787
Si Si2 0.369624 0.125000 0.125000
Si Si3 0.564494 0.421498 0.173583
Si Si4 0.011628 0.481814 0.244399
Si Si5 0.006930 0.095843 0.038828
Si Si6 0.697884 0.289436 0.104496
Si Si7 0.625000 0.125000 0.625000
Si Si8 0.094004 0.492071 0.930705
O O1 0.625000 0.125000 0.819890
O O2 0.510671 0.162592 0.886957
O O3 0.522339 0.188911 0.774439
O O4 0.617968 0.227934 0.870491
O O5 0.316736 0.160247 0.076956
O O6 0.414927 0.171859 0.164391
O O7 0.625000 0.445398 0.125000
O O8 0.543702 0.466002 0.230419
O O9 0.584120 0.350086 0.180008
O O10 0.014134 0.463312 0.172648
O O11 0.093352 0.498904 0.267424
O O12 0.991440 0.418506 0.277215
O O13 0.073394 0.083677 0.083799
O O14 0.625000 0.253735 0.125000
O O15 0.764627 0.269441 0.061976
#
# Coordination Sequence:
#
# PCOD9514460 Si02
#       8
#    32  16  32  32  32  32   8  32
#     4  11  18  35  63  92 125 173 226 278 340 423
#     4   9  22  39  53  90 133 176 226 280 347 418
#     4  10  22  38  64 102 136 174 234 284 353 423
#     4  10  22  40  65 100 140 173 232 294 333 424
#     4  10  19  34  54  88 136 178 218 271 338 409
#     4  11  23  44  70 100 135 183 238 296 357 419
#     4  10  20  28  52  80 134 184 198 256 324 402
#     4  10  22  41  68  94 133 179 230 288 353 417
#
# _framework density 24.540801999999999
#
# number of rings (size 3 to 8) (size 9 to 14) (size 15 to 20)
#    0.000    1.778    3.704    0.000    1.037    2.370 
#    2.667    0.370    3.259    0.000    0.000    0.000 
#    0.000    0.000    0.000    0.000    0.000    0.000 
#
# Total GULP energy -301127.650396 kJ/mol
# GULP energy per Si atom -5576.437970 kJ/mol
# Density = 2.448495 g / cm^3
# Si number density = 24.540802 Si / 1000 Ang^3
#
#
#
# Elastic Constant Matrix: (Units=GPa)
#
#
# Indices 1 2 3 4 5 6 
#
# 1 87.1630 33.5299 -8.4721 0.0000 0.0000 0.0000
# 2 33.5299 66.1201 39.2661 0.0000 0.0000 0.0000
# 3 -8.4721 39.2661 120.1692 0.0000 0.0000 0.0000
# 4 0.0000 0.0000 0.0000 15.3005 0.0000 0.0000
# 5 0.0000 0.0000 0.0000 0.0000 22.2298 0.0000
# 6 0.0000 0.0000 0.0000 0.0000 0.0000 22.2815
#
#
#
# Elastic Compliance Matrix: (Units=1/GPa)
#
#
# Indices 1 2 3 4 5 6 
#
# 1 0.016170 -0.011014 0.004739 0.000000 0.000000 0.000000
# 2 -0.011014 0.026268 -0.009360 0.000000 0.000000 0.000000
# 3 0.004739 -0.009360 0.011714 0.000000 0.000000 0.000000
# 4 0.000000 0.000000 0.000000 0.065358 0.000000 0.000000
# 5 0.000000 0.000000 0.000000 0.000000 0.044985 0.000000
# 6 0.000000 0.000000 0.000000 0.000000 0.000000 0.044880
#
#
# Mechanical properties :
#
#
# Convention : Reuss Voigt Hill
#
# Bulk Modulus (GPa) = 43.70220 44.67777 44.18998
# Shear Modulus (GPa) = 20.13916 25.90425 23.02171
#
# Velocity S-wave (km/s) = 2.86779 3.25246 3.06616
# Velocity P-wave (km/s) = 5.36770 5.68768 5.53001
#
# Compressibility (1/GPa) = 0.02288214
#
# Stress axis : x y z
#
# Youngs Moduli (GPa) = 61.84120 38.06933 85.36740
#
# Poissons Ratio (x) = 0.41931 -0.40456
# Poissons Ratio (y) = 0.68115 0.79902
# Poissons Ratio (z) = -0.29307 0.35632
#
# Static dielectric constant tensor:
#      x y z
#    x 1.930100 0.000000 0.000000 
#    y 0.000000 2.026870 0.000000 
#    z 0.000000 0.000000 2.011090 
# 
# From -- ./inp_files/60526.got.cif
#   From: 2010.05.17/outbox.cif.g08.bks.cpg/sg70_31_cif.got.tgz:60526.got - 2010.06.03 15:57:51.
