data_PCOD9514895
_publ_section_title
;
Structure prediction by ZEFSAII (Michael W. Deem and Ramdas Pophale) SiO2 
 PCOD9514895
Probable space group: F D D D
;
_chemical_formula_sum "Si O2"
_cell_formula_units_Z 160
_cell_length_a 16.530341
_cell_length_b 20.579638
_cell_length_c 17.479040
_cell_angle_alpha 90.000000
_cell_angle_beta 90.000000
_cell_angle_gamma 90.000000
_cell_volume 5946.167242
_symmetry_space_group_name_H-M "F D D D"
_symmetry_group_IT_number 70
_space_group.IT_coordinate_system_code '2'
_symmetry_cell_setting 'orthorhombic'
loop_
_space_group_symop_operation_xyz
x,y,z
1/4-x,1/4-y,z
x,1/4-y,1/4-z
1/4-x,y,1/4-z
-x,-y,-z
3/4+x,3/4+y,-z
-x,3/4+y,3/4+z
3/4+x,-y,3/4+z
x,1/2+y,1/2+z
1/4-x,3/4-y,1/2+z
x,3/4-y,3/4-z
1/4-x,1/2+y,3/4-z
-x,1/2-y,1/2-z
3/4+x,1/4+y,1/2-z
-x,1/4+y,1/4+z
3/4+x,1/2-y,1/4+z
1/2+x,y,1/2+z
3/4-x,1/4-y,1/2+z
1/2+x,1/4-y,3/4-z
3/4-x,y,3/4-z
1/2-x,-y,1/2-z
1/4+x,3/4+y,1/2-z
1/2-x,3/4+y,1/4+z
1/4+x,-y,1/4+z
1/2+x,1/2+y,z
3/4-x,3/4-y,z
1/2+x,3/4-y,1/4-z
3/4-x,1/2+y,1/4-z
1/2-x,1/2-y,-z
1/4+x,1/4+y,-z
1/2-x,1/4+y,3/4+z
1/4+x,1/2-y,3/4+z
loop_
_atom_site_type_symbol
_atom_site_label
_atom_site_fract_x
_atom_site_fract_y
_atom_site_fract_z
Si Si1 0.374389 0.641211 0.025161
Si Si2 0.375000 0.375000 0.161252
Si Si3 0.202822 0.666355 0.726225
Si Si4 0.209952 0.804899 0.667566
Si Si5 0.445150 0.252429 0.132861
Si Si6 0.375000 0.733302 0.875000
O O1 0.353015 0.688153 0.095486
O O2 0.468131 0.621187 0.027284
O O3 0.309893 0.586917 0.000373
O O4 0.375579 0.689070 0.950918
O O5 0.290186 0.338759 0.135014
O O6 0.418363 0.308945 0.194625
O O7 0.125000 0.625000 0.707504
O O8 0.220912 0.728207 0.673424
O O9 0.182800 0.702633 0.807236
O O10 0.125000 0.815212 0.625000
O O11 0.538822 0.232930 0.129991
#
# Coordination Sequence:
#
# PCOD9514895 Si02
#       6
#    32  16  32  32  32  16
#     4  11  22  42  71 106 141 190 243 297 371 433
#     4  12  22  44  74 103 141 186 242 306 372 434
#     4  11  26  46  69 105 146 199 249 296 363 434
#     4  12  26  46  73 107 145 193 247 305 375 445
#     4  11  22  40  72 104 143 190 243 302 368 445
#     4  10  20  36  66 109 143 182 232 298 370 448
#
# _framework density 26.908089
#
# number of rings (size 3 to 8) (size 9 to 14) (size 15 to 20)
#    0.000    0.800    6.000    1.800    0.000    2.000 
#    0.000    2.000    0.000    3.000    0.000    0.000 
#    0.000    0.000    0.000    0.000    0.000    0.000 
#
# Total GULP energy -223292.990836 kJ/mol
# GULP energy per Si atom -5582.324771 kJ/mol
# Density = 2.684685 g / cm^3
# Si number density = 26.908089 Si / 1000 Ang^3
#
#
#
# Elastic Constant Matrix: (Units=GPa)
#
#
# Indices 1 2 3 4 5 6 
#
# 1 270.2422 60.5344 21.7299 0.0000 0.0000 0.0000
# 2 60.5344 143.9021 0.5586 0.0000 0.0000 0.0000
# 3 21.7299 0.5586 96.5728 0.0000 0.0000 0.0000
# 4 0.0000 0.0000 0.0000 30.1366 0.0000 0.0000
# 5 0.0000 0.0000 0.0000 0.0000 22.2100 0.0000
# 6 0.0000 0.0000 0.0000 0.0000 0.0000 46.4609
#
#
#
# Elastic Compliance Matrix: (Units=1/GPa)
#
#
# Indices 1 2 3 4 5 6 
#
# 1 0.004167 -0.001749 -0.000927 0.000000 0.000000 0.000000
# 2 -0.001749 0.007684 0.000349 0.000000 0.000000 0.000000
# 3 -0.000927 0.000349 0.010562 0.000000 0.000000 0.000000
# 4 0.000000 0.000000 0.000000 0.033182 0.000000 0.000000
# 5 0.000000 0.000000 0.000000 0.000000 0.045025 0.000000
# 6 0.000000 0.000000 0.000000 0.000000 0.000000 0.021523
#
#
# Mechanical properties :
#
#
# Convention : Reuss Voigt Hill
#
# Bulk Modulus (GPa) = 56.31601 75.15143 65.73372
# Shear Modulus (GPa) = 37.67429 48.28778 42.98103
#
# Velocity S-wave (km/s) = 3.74586 4.24080 4.00099
# Velocity P-wave (km/s) = 6.29945 7.20894 6.76949
#
# Compressibility (1/GPa) = 0.01775694
#
# Stress axis : x y z
#
# Youngs Moduli (GPa) = 239.99321 130.14659 94.68306
#
# Poissons Ratio (x) = 0.22765 0.08781
# Poissons Ratio (y) = 0.41980 -0.03306
# Poissons Ratio (z) = 0.22258 -0.04544
#
# Static dielectric constant tensor:
#      x y z
#    x 2.075390 0.000000 0.000000 
#    y 0.000000 2.103690 0.000000 
#    z 0.000000 0.000000 2.408440 
# 
# From -- ./inp_files/43691.got.cif
#   From: 2010.05.17/outbox.cif.g08.bks.cpg/sg70_22_cif.got.tgz:43691.got - 2010.06.03 15:57:51.
