data_PCOD9514949
_publ_section_title
;
Structure prediction by ZEFSAII (Michael W. Deem and Ramdas Pophale) SiO2 
 PCOD9514949
Probable space group: F D D D
;
_chemical_formula_sum "Si O2"
_cell_formula_units_Z 160
_cell_length_a 18.570777
_cell_length_b 19.150768
_cell_length_c 19.694723
_cell_angle_alpha 90.000000
_cell_angle_beta 90.000000
_cell_angle_gamma 90.000000
_cell_volume 7004.322709
_symmetry_space_group_name_H-M "F D D D"
_symmetry_group_IT_number 70
_space_group.IT_coordinate_system_code '2'
_symmetry_cell_setting 'orthorhombic'
loop_
_space_group_symop_operation_xyz
x,y,z
1/4-x,1/4-y,z
x,1/4-y,1/4-z
1/4-x,y,1/4-z
-x,-y,-z
3/4+x,3/4+y,-z
-x,3/4+y,3/4+z
3/4+x,-y,3/4+z
x,1/2+y,1/2+z
1/4-x,3/4-y,1/2+z
x,3/4-y,3/4-z
1/4-x,1/2+y,3/4-z
-x,1/2-y,1/2-z
3/4+x,1/4+y,1/2-z
-x,1/4+y,1/4+z
3/4+x,1/2-y,1/4+z
1/2+x,y,1/2+z
3/4-x,1/4-y,1/2+z
1/2+x,1/4-y,3/4-z
3/4-x,y,3/4-z
1/2-x,-y,1/2-z
1/4+x,3/4+y,1/2-z
1/2-x,3/4+y,1/4+z
1/4+x,-y,1/4+z
1/2+x,1/2+y,z
3/4-x,3/4-y,z
1/2+x,3/4-y,1/4-z
3/4-x,1/2+y,1/4-z
1/2-x,1/2-y,-z
1/4+x,1/4+y,-z
1/2-x,1/4+y,3/4+z
1/4+x,1/2-y,3/4+z
loop_
_atom_site_type_symbol
_atom_site_label
_atom_site_fract_x
_atom_site_fract_y
_atom_site_fract_z
Si Si1 0.600990 0.202626 0.289665
Si Si2 0.569629 0.439121 0.711524
Si Si3 0.295420 0.897711 0.280354
Si Si4 0.291120 0.487465 0.641504
Si Si5 0.213616 0.385242 0.184497
O O1 0.625000 0.125000 0.310333
O O2 0.644269 0.237071 0.228132
O O3 0.632038 0.247873 0.353246
O O4 0.519144 0.182275 0.273414
O O5 0.505132 0.417335 0.760122
O O6 0.635633 0.383642 0.718718
O O7 0.544276 0.429680 0.634915
O O8 0.375000 0.875000 0.300123
O O9 0.302513 0.942436 0.210200
O O10 0.253510 0.945622 0.334313
O O11 0.242710 0.439301 0.590741
#
# Coordination Sequence:
#
# PCOD9514949 Si02
#       5
#    32  32  32  32  32
#     4  10  20  39  61  85 120 161 203 254 316 366
#     4  10  20  37  63  89 118 159 210 249 308 373
#     4  10  20  39  61  92 130 162 205 258 306 380
#     4   9  19  38  62  86 124 168 203 243 324 372
#     4   9  19  39  62  87 118 162 205 258 310 375
#
# _framework density 22.843036000000001
#
# number of rings (size 3 to 8) (size 9 to 14) (size 15 to 20)
#    0.000    2.400    0.000    3.600    0.000    0.800 
#   39.600    3.000    4.400    0.000    0.000    0.000 
#    0.000    0.000    0.000    0.000    0.000    0.000 
#
# Total GULP energy -223032.137962 kJ/mol
# GULP energy per Si atom -5575.803449 kJ/mol
# Density = 2.279104 g / cm^3
# Si number density = 22.843036 Si / 1000 Ang^3
#
#
#
# Elastic Constant Matrix: (Units=GPa)
#
#
# Indices 1 2 3 4 5 6 
#
# 1 86.0840 15.8351 -7.4466 0.0000 0.0000 0.0000
# 2 15.8351 71.5501 12.4549 0.0000 0.0000 0.0000
# 3 -7.4466 12.4549 38.3873 0.0000 0.0000 0.0000
# 4 0.0000 0.0000 0.0000 35.8362 0.0000 0.0000
# 5 0.0000 0.0000 0.0000 0.0000 26.7555 0.0000
# 6 0.0000 0.0000 0.0000 0.0000 0.0000 22.3692
#
#
#
# Elastic Compliance Matrix: (Units=1/GPa)
#
#
# Indices 1 2 3 4 5 6 
#
# 1 0.012546 -0.003392 0.003534 0.000000 0.000000 0.000000
# 2 -0.003392 0.015730 -0.005762 0.000000 0.000000 0.000000
# 3 0.003534 -0.005762 0.028605 0.000000 0.000000 0.000000
# 4 0.000000 0.000000 0.000000 0.027905 0.000000 0.000000
# 5 0.000000 0.000000 0.000000 0.000000 0.037376 0.000000
# 6 0.000000 0.000000 0.000000 0.000000 0.000000 0.044704
#
#
# Mechanical properties :
#
#
# Convention : Reuss Voigt Hill
#
# Bulk Modulus (GPa) = 21.90915 26.41200 24.16058
# Shear Modulus (GPa) = 25.86404 28.67071 27.26737
#
# Velocity S-wave (km/s) = 3.36854 3.54661 3.45872
# Velocity P-wave (km/s) = 4.97408 5.32529 5.15268
#
# Compressibility (1/GPa) = 0.04564303
#
# Stress axis : x y z
#
# Youngs Moduli (GPa) = 79.70530 63.57355 34.95860
#
# Poissons Ratio (x) = 0.21563 -0.12355
# Poissons Ratio (y) = 0.27035 0.20142
# Poissons Ratio (z) = -0.28170 0.36628
#
# Static dielectric constant tensor:
#      x y z
#    x 2.004580 0.000000 0.000000 
#    y 0.000000 1.847950 0.000000 
#    z 0.000000 0.000000 1.884290 
# 
# From -- ./inp_files/43668.got.cif
#   From: 2010.05.17/outbox.cif.g08.bks.cpg/sg70_22_cif.got.tgz:43668.got - 2010.06.03 15:57:51.
