data_PCOD9514911
_publ_section_title
;
Structure prediction by ZEFSAII (Michael W. Deem and Ramdas Pophale) SiO2 
 PCOD9514911
Probable space group: F D D D
;
_chemical_formula_sum "Si O2"
_cell_formula_units_Z 160
_cell_length_a 17.662953
_cell_length_b 18.866933
_cell_length_c 26.038904
_cell_angle_alpha 90.000000
_cell_angle_beta 90.000000
_cell_angle_gamma 90.000000
_cell_volume 8677.354114
_symmetry_space_group_name_H-M "F D D D"
_symmetry_group_IT_number 70
_space_group.IT_coordinate_system_code '2'
_symmetry_cell_setting 'orthorhombic'
loop_
_space_group_symop_operation_xyz
x,y,z
1/4-x,1/4-y,z
x,1/4-y,1/4-z
1/4-x,y,1/4-z
-x,-y,-z
3/4+x,3/4+y,-z
-x,3/4+y,3/4+z
3/4+x,-y,3/4+z
x,1/2+y,1/2+z
1/4-x,3/4-y,1/2+z
x,3/4-y,3/4-z
1/4-x,1/2+y,3/4-z
-x,1/2-y,1/2-z
3/4+x,1/4+y,1/2-z
-x,1/4+y,1/4+z
3/4+x,1/2-y,1/4+z
1/2+x,y,1/2+z
3/4-x,1/4-y,1/2+z
1/2+x,1/4-y,3/4-z
3/4-x,y,3/4-z
1/2-x,-y,1/2-z
1/4+x,3/4+y,1/2-z
1/2-x,3/4+y,1/4+z
1/4+x,-y,1/4+z
1/2+x,1/2+y,z
3/4-x,3/4-y,z
1/2+x,3/4-y,1/4-z
3/4-x,1/2+y,1/4-z
1/2-x,1/2-y,-z
1/4+x,1/4+y,-z
1/2-x,1/4+y,3/4+z
1/4+x,1/2-y,3/4+z
loop_
_atom_site_type_symbol
_atom_site_label
_atom_site_fract_x
_atom_site_fract_y
_atom_site_fract_z
Si Si1 0.930238 0.441043 0.647902
Si Si2 0.349725 0.069041 0.586673
Si Si3 0.541228 0.767128 0.020774
Si Si4 0.949159 0.039919 0.933481
Si Si5 0.745072 0.143329 0.537244
O O1 0.875000 0.375000 0.648418
O O2 0.885935 0.504826 0.619410
O O3 0.962559 0.459015 0.704029
O O4 0.006479 0.428536 0.614444
O O5 0.310706 0.125000 0.625000
O O6 0.302804 0.037582 0.538792
O O7 0.421117 0.111030 0.561486
O O8 0.612403 0.801554 0.051188
O O9 0.542966 0.682333 0.030102
O O10 0.955672 0.954347 0.929077
O O11 0.996644 0.070385 0.981549
#
# Coordination Sequence:
#
# PCOD9514911 Si02
#       5
#    32  32  32  32  32
#     4  11  22  37  56  85 120 159 199 246 302 354
#     4  10  20  37  57  81 120 157 193 246 304 349
#     4  11  20  33  59  85 119 156 203 244 293 368
#     4   9  19  31  55  86 123 152 190 238 300 368
#     4   9  17  32  53  87 118 153 186 234 304 368
#
# _framework density 18.438800000000001
#
# number of rings (size 3 to 8) (size 9 to 14) (size 15 to 20)
#    0.000    2.000    2.000    3.600    0.000    0.000 
#    0.000    3.000    0.000    0.600    0.000    0.000 
#    0.000    0.000    0.000    0.000    0.000    0.000 
#
# Total GULP energy -222822.303110 kJ/mol
# GULP energy per Si atom -5570.557578 kJ/mol
# Density = 1.839683 g / cm^3
# Si number density = 18.438800 Si / 1000 Ang^3
#
#
#
# Elastic Constant Matrix: (Units=GPa)
#
#
# Indices 1 2 3 4 5 6 
#
# 1 53.8492 45.9938 51.7870 0.0000 0.0000 0.0000
# 2 45.9938 79.0190 38.6525 0.0000 0.0000 0.0000
# 3 51.7870 38.6525 95.5117 0.0000 0.0000 0.0000
# 4 0.0000 0.0000 0.0000 25.0658 0.0000 0.0000
# 5 0.0000 0.0000 0.0000 0.0000 29.8435 0.0000
# 6 0.0000 0.0000 0.0000 0.0000 0.0000 31.8588
#
#
#
# Elastic Compliance Matrix: (Units=1/GPa)
#
#
# Indices 1 2 3 4 5 6 
#
# 1 0.062973 -0.024877 -0.024077 0.000000 0.000000 0.000000
# 2 -0.024877 0.025606 0.003126 0.000000 0.000000 0.000000
# 3 -0.024077 0.003126 0.022260 0.000000 0.000000 0.000000
# 4 0.000000 0.000000 0.000000 0.039895 0.000000 0.000000
# 5 0.000000 0.000000 0.000000 0.000000 0.033508 0.000000
# 6 0.000000 0.000000 0.000000 0.000000 0.000000 0.031388
#
#
# Mechanical properties :
#
#
# Convention : Reuss Voigt Hill
#
# Bulk Modulus (GPa) = 52.12988 55.69405 53.91197
# Shear Modulus (GPa) = 15.93975 23.48340 19.71158
#
# Velocity S-wave (km/s) = 2.94337 3.57261 3.27314
# Velocity P-wave (km/s) = 6.31542 6.87666 6.60200
#
# Compressibility (1/GPa) = 0.01918286
#
# Stress axis : x y z
#
# Youngs Moduli (GPa) = 15.87971 39.05345 44.92426
#
# Poissons Ratio (x) = 0.97153 1.08165
# Poissons Ratio (y) = 0.39504 -0.14043
# Poissons Ratio (z) = 0.38234 -0.12208
#
# Static dielectric constant tensor:
#      x y z
#    x 1.642870 0.000000 0.000000 
#    y 0.000000 1.642330 0.000000 
#    z 0.000000 0.000000 1.702990 
# 
# From -- ./inp_files/35075.got.cif
#   From: 2010.05.17/outbox.cif.g08.bks.cpg/sg70_18_cif.got.tgz:35075.got - 2010.06.03 15:57:51.
