data_PCOD9514386
_publ_section_title
;
Structure prediction by ZEFSAII (Michael W. Deem and Ramdas Pophale) SiO2 
 PCOD9514386
Probable space group: F D D D
;
_chemical_formula_sum "Si O2"
_cell_formula_units_Z 176
_cell_length_a 13.804449
_cell_length_b 22.877406
_cell_length_c 24.491125
_cell_angle_alpha 90.000000
_cell_angle_beta 90.000000
_cell_angle_gamma 90.000000
_cell_volume 7734.541804
_symmetry_space_group_name_H-M "F D D D"
_symmetry_group_IT_number 70
_space_group.IT_coordinate_system_code '2'
_symmetry_cell_setting 'orthorhombic'
loop_
_space_group_symop_operation_xyz
x,y,z
1/4-x,1/4-y,z
x,1/4-y,1/4-z
1/4-x,y,1/4-z
-x,-y,-z
3/4+x,3/4+y,-z
-x,3/4+y,3/4+z
3/4+x,-y,3/4+z
x,1/2+y,1/2+z
1/4-x,3/4-y,1/2+z
x,3/4-y,3/4-z
1/4-x,1/2+y,3/4-z
-x,1/2-y,1/2-z
3/4+x,1/4+y,1/2-z
-x,1/4+y,1/4+z
3/4+x,1/2-y,1/4+z
1/2+x,y,1/2+z
3/4-x,1/4-y,1/2+z
1/2+x,1/4-y,3/4-z
3/4-x,y,3/4-z
1/2-x,-y,1/2-z
1/4+x,3/4+y,1/2-z
1/2-x,3/4+y,1/4+z
1/4+x,-y,1/4+z
1/2+x,1/2+y,z
3/4-x,3/4-y,z
1/2+x,3/4-y,1/4-z
3/4-x,1/2+y,1/4-z
1/2-x,1/2-y,-z
1/4+x,1/4+y,-z
1/2-x,1/4+y,3/4+z
1/4+x,1/2-y,3/4+z
loop_
_atom_site_type_symbol
_atom_site_label
_atom_site_fract_x
_atom_site_fract_y
_atom_site_fract_z
Si Si1 0.284909 0.591462 0.915195
Si Si2 0.414850 0.227693 0.609510
Si Si3 0.344421 0.100214 0.006941
Si Si4 0.625000 0.625000 0.350786
Si Si5 0.439244 0.932717 0.443473
Si Si6 0.171647 0.022647 0.963545
O O1 0.375000 0.578285 0.875000
O O2 0.205808 0.538515 0.917098
O O3 0.322400 0.621247 0.970200
O O4 0.218966 0.640017 0.885002
O O5 0.378923 0.184878 0.561997
O O6 0.513168 0.204137 0.637800
O O7 0.338790 0.230915 0.660822
O O8 0.274584 0.053856 0.974588
O O9 0.280204 0.155631 0.024291
O O10 0.600811 0.677531 0.311115
O O11 0.375000 0.875000 0.437708
O O12 0.379229 0.982422 0.476758
#
# Coordination Sequence:
#
# PCOD9514386 Si02
#       6
#    32  32  32  16  32  32
#     4  11  23  40  66  91 121 172 215 262 318 385
#     4  11  25  35  62  96 125 171 216 250 324 401
#     4  11  22  39  60  91 130 165 205 265 322 367
#     4  10  18  42  62  89 121 162 218 260 316 372
#     4  10  21  38  56  89 138 163 195 260 325 385
#     4  10  19  38  56  87 129 164 203 259 315 386
#
# _framework density 22.755063
#
# number of rings (size 3 to 8) (size 9 to 14) (size 15 to 20)
#    0.000    1.455    4.545    2.182    7.636    2.182 
#    0.000    3.636    0.000    0.000    0.000    1.273 
#    0.000    0.000    0.000    0.000    0.000    0.000 
#
# Total GULP energy -245113.282908 kJ/mol
# GULP energy per Si atom -5570.756430 kJ/mol
# Density = 2.270327 g / cm^3
# Si number density = 22.755063 Si / 1000 Ang^3
#
#
#
# Elastic Constant Matrix: (Units=GPa)
#
#
# Indices 1 2 3 4 5 6 
#
# 1 39.5857 5.1054 20.3392 0.0000 0.0000 0.0000
# 2 5.1054 52.7111 30.7055 0.0000 0.0000 0.0000
# 3 20.3392 30.7055 138.9578 0.0000 0.0000 0.0000
# 4 0.0000 0.0000 0.0000 45.6257 0.0000 0.0000
# 5 0.0000 0.0000 0.0000 0.0000 38.7704 0.0000
# 6 0.0000 0.0000 0.0000 0.0000 0.0000 15.5975
#
#
#
# Elastic Compliance Matrix: (Units=1/GPa)
#
#
# Indices 1 2 3 4 5 6 
#
# 1 0.027322 -0.000364 -0.003919 0.000000 0.000000 0.000000
# 2 -0.000364 0.021779 -0.004759 0.000000 0.000000 0.000000
# 3 -0.003919 -0.004759 0.008822 0.000000 0.000000 0.000000
# 4 0.000000 0.000000 0.000000 0.021917 0.000000 0.000000
# 5 0.000000 0.000000 0.000000 0.000000 0.025793 0.000000
# 6 0.000000 0.000000 0.000000 0.000000 0.000000 0.064113
#
#
# Mechanical properties :
#
#
# Convention : Reuss Voigt Hill
#
# Bulk Modulus (GPa) = 25.10074 38.17276 31.63675
# Shear Modulus (GPa) = 24.86214 31.67234 28.26724
#
# Velocity S-wave (km/s) = 3.30903 3.73484 3.52837
# Velocity P-wave (km/s) = 5.06502 5.95068 5.52562
#
# Compressibility (1/GPa) = 0.03983946
#
# Stress axis : x y z
#
# Youngs Moduli (GPa) = 36.60047 45.91590 113.35714
#
# Poissons Ratio (x) = 0.01669 0.44422
# Poissons Ratio (y) = 0.01331 0.53950
# Poissons Ratio (z) = 0.14343 0.21853
#
# Static dielectric constant tensor:
#      x y z
#    x 1.871370 0.000000 0.000000 
#    y 0.000000 2.017750 0.000000 
#    z 0.000000 0.000000 2.034260 
# 
# From -- ./inp_files/28764.got.cif
#   From: 2010.05.17/outbox.cif.g08.bks.cpg/sg70_15_cif.got.tgz:28764.got - 2010.06.03 15:57:51.
