data_PCOD9514744
_publ_section_title
;
Structure prediction by ZEFSAII (Michael W. Deem and Ramdas Pophale) SiO2 
 PCOD9514744
Probable space group: F D D D
;
_chemical_formula_sum "Si O2"
_cell_formula_units_Z 160
_cell_length_a 24.769222
_cell_length_b 7.239066
_cell_length_c 31.680138
_cell_angle_alpha 90.000000
_cell_angle_beta 90.000000
_cell_angle_gamma 90.000000
_cell_volume 5680.439864
_symmetry_space_group_name_H-M "F D D D"
_symmetry_group_IT_number 70
_space_group.IT_coordinate_system_code '2'
_symmetry_cell_setting 'orthorhombic'
loop_
_space_group_symop_operation_xyz
x,y,z
1/4-x,1/4-y,z
x,1/4-y,1/4-z
1/4-x,y,1/4-z
-x,-y,-z
3/4+x,3/4+y,-z
-x,3/4+y,3/4+z
3/4+x,-y,3/4+z
x,1/2+y,1/2+z
1/4-x,3/4-y,1/2+z
x,3/4-y,3/4-z
1/4-x,1/2+y,3/4-z
-x,1/2-y,1/2-z
3/4+x,1/4+y,1/2-z
-x,1/4+y,1/4+z
3/4+x,1/2-y,1/4+z
1/2+x,y,1/2+z
3/4-x,1/4-y,1/2+z
1/2+x,1/4-y,3/4-z
3/4-x,y,3/4-z
1/2-x,-y,1/2-z
1/4+x,3/4+y,1/2-z
1/2-x,3/4+y,1/4+z
1/4+x,-y,1/4+z
1/2+x,1/2+y,z
3/4-x,3/4-y,z
1/2+x,3/4-y,1/4-z
3/4-x,1/2+y,1/4-z
1/2-x,1/2-y,-z
1/4+x,1/4+y,-z
1/2-x,1/4+y,3/4+z
1/4+x,1/2-y,3/4+z
loop_
_atom_site_type_symbol
_atom_site_label
_atom_site_fract_x
_atom_site_fract_y
_atom_site_fract_z
Si Si1 0.218482 0.947990 0.498500
Si Si2 0.537863 0.403239 0.129636
Si Si3 0.045895 0.772481 0.431380
Si Si4 0.588828 0.370826 0.924563
Si Si5 0.125244 0.845280 0.556455
O O1 0.250000 0.750000 0.500000
O O2 0.255896 0.065280 0.529838
O O3 0.205512 0.996675 0.450186
O O4 0.157432 0.932539 0.517479
O O5 0.530963 0.625000 0.125000
O O6 0.487957 0.290571 0.110339
O O7 0.583818 0.364261 0.094588
O O8 0.566452 0.357078 0.174436
O O9 0.073965 0.574898 0.440754
O O10 0.096987 0.908158 0.428788
O O11 0.581050 0.375000 0.875000
O O12 0.125000 0.625000 0.549017
#
# Coordination Sequence:
#
# PCOD9514744 Si02
#       5
#    32  32  32  32  32
#     4   9  18  29  46  72 103 131 165 205 257 306
#     4   8  13  25  42  71 101 128 163 202 251 302
#     4   9  18  32  49  73 100 137 168 204 256 309
#     4  10  20  33  48  72 105 136 168 205 258 311
#     4   8  14  22  42  69 100 126 156 206 254 302
#
# _framework density 28.166833
#
# number of rings (size 3 to 8) (size 9 to 14) (size 15 to 20)
#    0.000    3.200    0.000    1.800    5.600    1.600 
#    0.000    1.000    0.000    1.200    0.000    9.800 
#    0.000    0.000    0.000    0.000    0.000    0.000 
#
# Total GULP energy -223335.517572 kJ/mol
# GULP energy per Si atom -5583.387939 kJ/mol
# Density = 2.810272 g / cm^3
# Si number density = 28.166833 Si / 1000 Ang^3
#
#
#
# Elastic Constant Matrix: (Units=GPa)
#
#
# Indices 1 2 3 4 5 6 
#
# 1 237.4768 37.7861 100.8914 0.0001 -0.0005 0.0042
# 2 37.7861 73.3764 17.3423 0.0002 -0.0005 0.0070
# 3 100.8914 17.3423 164.6803 0.0000 0.0000 0.0002
# 4 0.0001 0.0002 0.0000 7.5263 -0.0002 -0.0001
# 5 -0.0005 -0.0005 0.0000 -0.0002 16.3549 0.0004
# 6 0.0042 0.0070 0.0002 -0.0001 0.0004 31.0522
#
#
#
# Elastic Compliance Matrix: (Units=1/GPa)
#
#
# Indices 1 2 3 4 5 6 
#
# 1 0.006048 -0.002296 -0.003463 0.000000 0.000000 0.000000
# 2 -0.002296 0.014848 -0.000157 0.000000 0.000000 -0.000003
# 3 -0.003463 -0.000157 0.008211 0.000000 0.000000 0.000000
# 4 0.000000 0.000000 0.000000 0.132867 0.000001 0.000000
# 5 0.000000 0.000000 0.000000 0.000001 0.061144 -0.000001
# 6 0.000000 -0.000003 0.000000 0.000000 -0.000001 0.032204
#
#
# Mechanical properties :
#
#
# Convention : Reuss Voigt Hill
#
# Bulk Modulus (GPa) = 57.89144 87.50812 72.69978
# Shear Modulus (GPa) = 18.32101 32.28759 25.30430
#
# Velocity S-wave (km/s) = 2.55315 3.38938 3.00054
# Velocity P-wave (km/s) = 5.41194 6.81560 6.15392
#
# Compressibility (1/GPa) = 0.01727371
#
# Stress axis : x y z
#
# Youngs Moduli (GPa) = 165.35484 67.35044 121.79215
#
# Poissons Ratio (x) = 0.15462 0.42180
# Poissons Ratio (y) = 0.37961 0.01913
# Poissons Ratio (z) = 0.57267 0.01058
#
# Static dielectric constant tensor:
#      x y z
#    x 2.259670 0.000000 0.000000 
#    y 0.000000 2.250280 0.000000 
#    z 0.000000 0.000000 2.262490 
# 
# From -- ./inp_files/68305.got.cif
#   From: 2010.05.17/outbox.cif.g08.bks.cpg/sg70_35_cif.got.tgz:68305.got - 2010.06.03 15:57:51.
