data_PCOD9514894
_publ_section_title
;
Structure prediction by ZEFSAII (Michael W. Deem and Ramdas Pophale) SiO2 
 PCOD9514894
Probable space group: F D D D
;
_chemical_formula_sum "Si O2"
_cell_formula_units_Z 120
_cell_length_a 22.219280
_cell_length_b 10.096945
_cell_length_c 26.979126
_cell_angle_alpha 90.000000
_cell_angle_beta 90.000000
_cell_angle_gamma 90.000000
_cell_volume 6052.681883
_symmetry_space_group_name_H-M "F D D D"
_symmetry_group_IT_number 70
_space_group.IT_coordinate_system_code '2'
_symmetry_cell_setting 'orthorhombic'
loop_
_space_group_symop_operation_xyz
x,y,z
1/4-x,1/4-y,z
x,1/4-y,1/4-z
1/4-x,y,1/4-z
-x,-y,-z
3/4+x,3/4+y,-z
-x,3/4+y,3/4+z
3/4+x,-y,3/4+z
x,1/2+y,1/2+z
1/4-x,3/4-y,1/2+z
x,3/4-y,3/4-z
1/4-x,1/2+y,3/4-z
-x,1/2-y,1/2-z
3/4+x,1/4+y,1/2-z
-x,1/4+y,1/4+z
3/4+x,1/2-y,1/4+z
1/2+x,y,1/2+z
3/4-x,1/4-y,1/2+z
1/2+x,1/4-y,3/4-z
3/4-x,y,3/4-z
1/2-x,-y,1/2-z
1/4+x,3/4+y,1/2-z
1/2-x,3/4+y,1/4+z
1/4+x,-y,1/4+z
1/2+x,1/2+y,z
3/4-x,3/4-y,z
1/2+x,3/4-y,1/4-z
3/4-x,1/2+y,1/4-z
1/2-x,1/2-y,-z
1/4+x,1/4+y,-z
1/2-x,1/4+y,3/4+z
1/4+x,1/2-y,3/4+z
loop_
_atom_site_type_symbol
_atom_site_label
_atom_site_fract_x
_atom_site_fract_y
_atom_site_fract_z
Si Si1 0.125000 0.625000 0.125000
Si Si2 0.375000 0.375000 0.540046
Si Si3 0.121323 0.425255 0.048332
Si Si4 0.000650 0.321461 0.090445
Si Si5 0.221657 0.224539 0.053644
O O1 0.155800 0.525413 0.085906
O O2 0.377395 0.504240 0.504552
O O3 0.314232 0.384521 0.571393
O O4 0.053936 0.413877 0.069459
O O5 0.154277 0.284366 0.050585
O O6 0.018692 0.177827 0.067882
O O7 0.000061 0.303420 0.149703
O O8 0.250000 0.250000 0.000000
#
# Coordination Sequence:
#
# PCOD9514894 Si02
#       5
#     8  16  32  32  32
#     4  10  20  36  66 100 116 160 220 268 298 390
#     4  11  24  41  62  98 136 159 210 277 332 382
#     4  11  21  41  68  93 125 172 219 263 323 388
#     4  11  23  42  66  94 131 171 216 269 321 389
#     4  11  22  43  66  92 128 171 219 266 316 389
#
# _framework density 19.825921999999998
#
# number of rings (size 3 to 8) (size 9 to 14) (size 15 to 20)
#    0.000    1.067    5.333    1.600    0.000    2.133 
#    4.800    2.667    0.000    0.000    0.000    0.000 
#    0.000    0.000    0.000    0.000    0.000    0.000 
#
# Total GULP energy -167227.028735 kJ/mol
# GULP energy per Si atom -5574.234291 kJ/mol
# Density = 1.978080 g / cm^3
# Si number density = 19.825922 Si / 1000 Ang^3
#
#
#
# Elastic Constant Matrix: (Units=GPa)
#
#
# Indices 1 2 3 4 5 6 
#
# 1 154.0384 34.7667 69.2457 0.0000 0.0000 0.0000
# 2 34.7667 75.5834 23.0841 0.0000 0.0000 0.0000
# 3 69.2457 23.0841 156.9136 0.0000 0.0000 0.0000
# 4 0.0000 0.0000 0.0000 19.8501 0.0000 0.0000
# 5 0.0000 0.0000 0.0000 0.0000 21.5279 0.0000
# 6 0.0000 0.0000 0.0000 0.0000 0.0000 26.0664
#
#
#
# Elastic Compliance Matrix: (Units=1/GPa)
#
#
# Indices 1 2 3 4 5 6 
#
# 1 0.008687 -0.002958 -0.003399 0.000000 0.000000 0.000000
# 2 -0.002958 0.014860 -0.000881 0.000000 0.000000 0.000000
# 3 -0.003399 -0.000881 0.008002 0.000000 0.000000 0.000000
# 4 0.000000 0.000000 0.000000 0.050378 0.000000 0.000000
# 5 0.000000 0.000000 0.000000 0.000000 0.046451 0.000000
# 6 0.000000 0.000000 0.000000 0.000000 0.000000 0.038364
#
#
# Mechanical properties :
#
#
# Convention : Reuss Voigt Hill
#
# Bulk Modulus (GPa) = 58.56508 71.19206 64.87857
# Shear Modulus (GPa) = 26.75109 30.78481 28.76795
#
# Velocity S-wave (km/s) = 3.67727 3.94478 3.81337
# Velocity P-wave (km/s) = 6.90170 7.53226 7.22386
#
# Compressibility (1/GPa) = 0.01707502
#
# Stress axis : x y z
#
# Youngs Moduli (GPa) = 115.11100 67.29467 124.96461
#
# Poissons Ratio (x) = 0.19906 0.42469
# Poissons Ratio (y) = 0.34050 0.11006
# Poissons Ratio (z) = 0.39121 0.05927
#
# Static dielectric constant tensor:
#      x y z
#    x 1.696500 0.000000 0.000000 
#    y 0.000000 1.756650 0.000000 
#    z 0.000000 0.000000 1.694070 
# 
# From -- ./inp_files/9558.got.cif
#   From: 2010.05.17/outbox.cif.g08.bks.cpg/sg70_5_cif.got.tgz:9558.got - 2010.06.03 15:57:51.
