data_PCOD9514924
_publ_section_title
;
Structure prediction by ZEFSAII (Michael W. Deem and Ramdas Pophale) SiO2 
 PCOD9514924
Probable space group: F D D D
;
_chemical_formula_sum "Si O2"
_cell_formula_units_Z 128
_cell_length_a 26.050928
_cell_length_b 9.622649
_cell_length_c 24.539499
_cell_angle_alpha 90.000000
_cell_angle_beta 90.000000
_cell_angle_gamma 90.000000
_cell_volume 6151.535506
_symmetry_space_group_name_H-M "F D D D"
_symmetry_group_IT_number 70
_space_group.IT_coordinate_system_code '2'
_symmetry_cell_setting 'orthorhombic'
loop_
_space_group_symop_operation_xyz
x,y,z
1/4-x,1/4-y,z
x,1/4-y,1/4-z
1/4-x,y,1/4-z
-x,-y,-z
3/4+x,3/4+y,-z
-x,3/4+y,3/4+z
3/4+x,-y,3/4+z
x,1/2+y,1/2+z
1/4-x,3/4-y,1/2+z
x,3/4-y,3/4-z
1/4-x,1/2+y,3/4-z
-x,1/2-y,1/2-z
3/4+x,1/4+y,1/2-z
-x,1/4+y,1/4+z
3/4+x,1/2-y,1/4+z
1/2+x,y,1/2+z
3/4-x,1/4-y,1/2+z
1/2+x,1/4-y,3/4-z
3/4-x,y,3/4-z
1/2-x,-y,1/2-z
1/4+x,3/4+y,1/2-z
1/2-x,3/4+y,1/4+z
1/4+x,-y,1/4+z
1/2+x,1/2+y,z
3/4-x,3/4-y,z
1/2+x,3/4-y,1/4-z
3/4-x,1/2+y,1/4-z
1/2-x,1/2-y,-z
1/4+x,1/4+y,-z
1/2-x,1/4+y,3/4+z
1/4+x,1/2-y,3/4+z
loop_
_atom_site_type_symbol
_atom_site_label
_atom_site_fract_x
_atom_site_fract_y
_atom_site_fract_z
Si Si1 0.198138 0.087524 0.747369
Si Si2 0.980375 0.079343 0.186695
Si Si3 0.106134 0.305137 0.564207
Si Si4 0.823480 0.935101 0.757113
O O1 0.199605 0.186744 0.801131
O O2 0.192056 0.205993 0.700385
O O3 0.250000 0.000000 0.750000
O O4 0.150001 0.989310 0.730230
O O5 0.987692 0.125000 0.125000
O O6 0.952801 0.209908 0.215285
O O7 0.034558 0.072371 0.218773
O O8 0.125000 0.281241 0.625000
O O9 0.090626 0.463564 0.556199
O O10 0.875000 0.875000 0.732406
#
# Coordination Sequence:
#
# PCOD9514924 Si02
#       4
#    32  32  32  32
#     4  10  20  37  60  87 130 156 200 257 312 364
#     4  10  23  41  60  93 129 162 208 259 312 386
#     4  10  22  39  63  96 124 156 215 263 306 373
#     4  10  22  40  64  91 124 164 210 257 311 376
#
# _framework density 20.807811999999998
#
# number of rings (size 3 to 8) (size 9 to 14) (size 15 to 20)
#    0.000    2.000    0.000    3.000    7.000    0.000 
#   13.500    0.000    0.000    3.000    0.000    0.000 
#    0.000    0.000    0.000    0.000    0.000    0.000 
#
# Total GULP energy -178272.296398 kJ/mol
# GULP energy per Si atom -5571.009262 kJ/mol
# Density = 2.076045 g / cm^3
# Si number density = 20.807812 Si / 1000 Ang^3
#
#
#
# Elastic Constant Matrix: (Units=GPa)
#
#
# Indices 1 2 3 4 5 6 
#
# 1 117.2609 26.0631 40.7427 0.0000 0.0000 0.0000
# 2 26.0631 68.2619 13.0309 0.0000 0.0000 0.0000
# 3 40.7427 13.0309 67.0877 0.0000 0.0000 0.0000
# 4 0.0000 0.0000 0.0000 6.5657 0.0000 0.0000
# 5 0.0000 0.0000 0.0000 0.0000 15.5626 0.0000
# 6 0.0000 0.0000 0.0000 0.0000 0.0000 38.5123
#
#
#
# Elastic Compliance Matrix: (Units=1/GPa)
#
#
# Indices 1 2 3 4 5 6 
#
# 1 0.011428 -0.003155 -0.006327 0.000000 0.000000 0.000000
# 2 -0.003155 0.016085 -0.001208 0.000000 0.000000 0.000000
# 3 -0.006327 -0.001208 0.018983 0.000000 0.000000 0.000000
# 4 0.000000 0.000000 0.000000 0.152307 0.000000 0.000000
# 5 0.000000 0.000000 0.000000 0.000000 0.064256 0.000000
# 6 0.000000 0.000000 0.000000 0.000000 0.000000 0.025966
#
#
# Mechanical properties :
#
#
# Convention : Reuss Voigt Hill
#
# Bulk Modulus (GPa) = 39.81777 45.80933 42.81355
# Shear Modulus (GPa) = 15.68492 23.64636 19.66564
#
# Velocity S-wave (km/s) = 2.74852 3.37474 3.07760
# Velocity P-wave (km/s) = 5.40833 6.10314 5.76621
#
# Compressibility (1/GPa) = 0.02511441
#
# Stress axis : x y z
#
# Youngs Moduli (GPa) = 87.50626 62.17039 52.67857
#
# Poissons Ratio (x) = 0.19617 0.33331
# Poissons Ratio (y) = 0.27612 0.06363
# Poissons Ratio (z) = 0.55367 0.07510
#
# Static dielectric constant tensor:
#      x y z
#    x 1.810990 0.000000 0.000000 
#    y 0.000000 1.789740 0.000000 
#    z 0.000000 0.000000 1.720960 
# 
# From -- ./inp_files/53438.got.cif
#   From: 2010.05.17/outbox.cif.g08.bks.cpg/sg70_27_cif.got.tgz:53438.got - 2010.06.03 15:57:51.
