data_PCOD9514811
_publ_section_title
;
Structure prediction by ZEFSAII (Michael W. Deem and Ramdas Pophale) SiO2 
 PCOD9514811
Probable space group: F D D D
;
_chemical_formula_sum "Si O2"
_cell_formula_units_Z 176
_cell_length_a 12.373777
_cell_length_b 32.169092
_cell_length_c 23.012062
_cell_angle_alpha 90.000000
_cell_angle_beta 90.000000
_cell_angle_gamma 90.000000
_cell_volume 9160.024243
_symmetry_space_group_name_H-M "F D D D"
_symmetry_group_IT_number 70
_space_group.IT_coordinate_system_code '2'
_symmetry_cell_setting 'orthorhombic'
loop_
_space_group_symop_operation_xyz
x,y,z
1/4-x,1/4-y,z
x,1/4-y,1/4-z
1/4-x,y,1/4-z
-x,-y,-z
3/4+x,3/4+y,-z
-x,3/4+y,3/4+z
3/4+x,-y,3/4+z
x,1/2+y,1/2+z
1/4-x,3/4-y,1/2+z
x,3/4-y,3/4-z
1/4-x,1/2+y,3/4-z
-x,1/2-y,1/2-z
3/4+x,1/4+y,1/2-z
-x,1/4+y,1/4+z
3/4+x,1/2-y,1/4+z
1/2+x,y,1/2+z
3/4-x,1/4-y,1/2+z
1/2+x,1/4-y,3/4-z
3/4-x,y,3/4-z
1/2-x,-y,1/2-z
1/4+x,3/4+y,1/2-z
1/2-x,3/4+y,1/4+z
1/4+x,-y,1/4+z
1/2+x,1/2+y,z
3/4-x,3/4-y,z
1/2+x,3/4-y,1/4-z
3/4-x,1/2+y,1/4-z
1/2-x,1/2-y,-z
1/4+x,1/4+y,-z
1/2-x,1/4+y,3/4+z
1/4+x,1/2-y,3/4+z
loop_
_atom_site_type_symbol
_atom_site_label
_atom_site_fract_x
_atom_site_fract_y
_atom_site_fract_z
Si Si1 0.583387 0.315729 0.882636
Si Si2 0.895878 0.140152 0.806793
Si Si3 0.120552 0.480017 0.995443
Si Si4 0.996125 0.860110 0.786635
Si Si5 0.444859 0.451316 0.321252
Si Si6 0.875000 0.875000 0.502757
O O1 0.555935 0.354203 0.925084
O O2 0.498762 0.320148 0.829358
O O3 0.696376 0.317203 0.848104
O O4 0.596244 0.278418 0.928585
O O5 0.875000 0.140029 0.875000
O O6 0.880165 0.186612 0.780593
O O7 0.814286 0.109513 0.772271
O O8 0.017283 0.126904 0.790691
O O9 0.203985 0.511448 0.025777
O O10 0.000000 0.500000 0.000000
O O11 0.875000 0.875000 0.776054
O O12 0.375000 0.467613 0.375000
O O13 0.380727 0.414813 0.288981
#
# Coordination Sequence:
#
# PCOD9514811 Si02
#       6
#    32  32  32  32  32  16
#     4  10  20  35  58  89 119 156 209 247 300 368
#     4  11  24  39  62  93 127 165 210 255 321 376
#     4  11  21  35  55  93 128 167 195 249 321 378
#     4  10  21  41  66  90 119 163 214 261 306 374
#     4  12  21  32  60  90 132 158 195 264 312 362
#     4  12  23  38  60  96 126 157 210 266 318 356
#
# _framework density 19.213923000000001
#
# number of rings (size 3 to 8) (size 9 to 14) (size 15 to 20)
#    0.000    1.091    5.455    3.000    3.818    0.000 
#    0.000    0.000    0.000   14.182    0.000    0.000 
#    0.000    0.000    0.000    0.000    0.000    0.000 
#
# Total GULP energy -245339.347705 kJ/mol
# GULP energy per Si atom -5575.894266 kJ/mol
# Density = 1.917019 g / cm^3
# Si number density = 19.213923 Si / 1000 Ang^3
#
#
#
# Elastic Constant Matrix: (Units=GPa)
#
#
# Indices 1 2 3 4 5 6 
#
# 1 109.8664 6.5814 56.1711 0.0000 0.0000 0.0000
# 2 6.5814 50.6519 34.8262 0.0000 0.0000 0.0000
# 3 56.1711 34.8262 161.4617 0.0000 0.0000 0.0000
# 4 0.0000 0.0000 0.0000 -11.5272 0.0000 0.0000
# 5 0.0000 0.0000 0.0000 0.0000 8.6148 0.0000
# 6 0.0000 0.0000 0.0000 0.0000 0.0000 16.1527
#
#
#
# Elastic Compliance Matrix: (Units=1/GPa)
#
#
# Indices 1 2 3 4 5 6 
#
# 1 0.011159 0.001432 -0.004191 0.000000 0.000000 0.000000
# 2 0.001432 0.023364 -0.005537 0.000000 0.000000 0.000000
# 3 -0.004191 -0.005537 0.008846 0.000000 0.000000 0.000000
# 4 0.000000 0.000000 0.000000 -0.086752 0.000000 0.000000
# 5 0.000000 0.000000 0.000000 0.000000 0.116079 0.000000
# 6 0.000000 0.000000 0.000000 0.000000 0.000000 0.061909
#
#
# Mechanical properties :
#
#
# Convention : Reuss Voigt Hill
#
# Bulk Modulus (GPa) = 37.34822 57.45972 47.40397
# Shear Modulus (GPa) = 31.22575 17.60814 24.41694
#
# Velocity S-wave (km/s) = 4.03570 3.03054 3.56869
# Velocity P-wave (km/s) = 6.41842 6.49736 6.45801
#
# Compressibility (1/GPa) = 0.02677504
#
# Stress axis : x y z
#
# Youngs Moduli (GPa) = 89.61493 42.80098 113.04840
#
# Poissons Ratio (x) = -0.06127 0.47377
# Poissons Ratio (y) = -0.12829 0.62600
# Poissons Ratio (z) = 0.37556 0.23701
#
# Static dielectric constant tensor:
#      x y z
#    x 1.684780 0.000000 0.000000 
#    y 0.000000 1.718150 0.000000 
#    z 0.000000 0.000000 1.684660 
# 
# From -- ./inp_files/50414.got.cif
#   From: 2010.05.17/outbox.cif.g08.bks.cpg/sg70_26_cif.got.tgz:50414.got - 2010.06.03 15:57:51.
