data_PCOD9514963
_publ_section_title
;
Structure prediction by ZEFSAII (Michael W. Deem and Ramdas Pophale) SiO2 
 PCOD9514963
Probable space group: F D D D
;
_chemical_formula_sum "Si O2"
_cell_formula_units_Z 232
_cell_length_a 27.853549
_cell_length_b 16.045488
_cell_length_c 25.286496
_cell_angle_alpha 90.000000
_cell_angle_beta 90.000000
_cell_angle_gamma 90.000000
_cell_volume 11301.136533
_symmetry_space_group_name_H-M "F D D D"
_symmetry_group_IT_number 70
_space_group.IT_coordinate_system_code '2'
_symmetry_cell_setting 'orthorhombic'
loop_
_space_group_symop_operation_xyz
x,y,z
1/4-x,1/4-y,z
x,1/4-y,1/4-z
1/4-x,y,1/4-z
-x,-y,-z
3/4+x,3/4+y,-z
-x,3/4+y,3/4+z
3/4+x,-y,3/4+z
x,1/2+y,1/2+z
1/4-x,3/4-y,1/2+z
x,3/4-y,3/4-z
1/4-x,1/2+y,3/4-z
-x,1/2-y,1/2-z
3/4+x,1/4+y,1/2-z
-x,1/4+y,1/4+z
3/4+x,1/2-y,1/4+z
1/2+x,y,1/2+z
3/4-x,1/4-y,1/2+z
1/2+x,1/4-y,3/4-z
3/4-x,y,3/4-z
1/2-x,-y,1/2-z
1/4+x,3/4+y,1/2-z
1/2-x,3/4+y,1/4+z
1/4+x,-y,1/4+z
1/2+x,1/2+y,z
3/4-x,3/4-y,z
1/2+x,3/4-y,1/4-z
3/4-x,1/2+y,1/4-z
1/2-x,1/2-y,-z
1/4+x,1/4+y,-z
1/2-x,1/4+y,3/4+z
1/4+x,1/2-y,3/4+z
loop_
_atom_site_type_symbol
_atom_site_label
_atom_site_fract_x
_atom_site_fract_y
_atom_site_fract_z
Si Si1 0.687458 0.724540 0.539838
Si Si2 0.226443 0.966589 0.434033
Si Si3 0.274067 0.114554 0.498723
Si Si4 0.382181 0.277612 0.177518
Si Si5 0.813849 0.320467 0.525910
Si Si6 0.658634 0.496851 0.934103
Si Si7 0.625000 0.625000 0.625000
Si Si8 0.486438 0.960504 0.431716
O O1 0.704838 0.820284 0.544255
O O2 0.734266 0.667268 0.530505
O O3 0.657018 0.724627 0.484813
O O4 0.656881 0.684115 0.586849
O O5 0.258607 0.969420 0.380736
O O6 0.233005 0.870767 0.449216
O O7 0.247551 0.035756 0.472898
O O8 0.170312 0.986078 0.426734
O O9 0.315806 0.078007 0.535788
O O10 0.375000 0.375000 0.164048
O O11 0.413287 0.241573 0.129128
O O12 0.821811 0.415094 0.543121
O O13 0.852557 0.259744 0.552768
O O14 0.813066 0.305437 0.462714
O O15 0.762429 0.291997 0.546741
#
# Coordination Sequence:
#
# PCOD9514963 Si02
#       8
#    32  32  32  32  32  32   8  32
#     4  11  27  46  71  93 135 172 229 280 346 405
#     4  11  21  39  63  94 129 172 219 276 335 392
#     4  11  25  45  65 103 133 176 224 283 337 409
#     4  12  21  41  70  99 128 173 226 285 332 397
#     4  10  20  38  58  96 132 171 216 263 323 401
#     4  11  22  40  67  98 135 174 220 277 334 396
#     4  12  24  56  68  96 128 186 220 288 354 412
#     4  10  21  36  61  93 133 173 215 270 329 404
#
# _framework density 20.528908999999999
#
# number of rings (size 3 to 8) (size 9 to 14) (size 15 to 20)
#    0.000    1.103    6.207    0.000    1.931    2.759 
#    2.483    0.000    0.000    0.000    0.000    0.000 
#    0.000    0.000    0.000    0.000    0.000    0.000 
#
# Total GULP energy -323647.912325 kJ/mol
# GULP energy per Si atom -5580.136419 kJ/mol
# Density = 2.048218 g / cm^3
# Si number density = 20.528909 Si / 1000 Ang^3
#
#
#
# Elastic Constant Matrix: (Units=GPa)
#
#
# Indices 1 2 3 4 5 6 
#
# 1 50.3428 19.8125 39.4992 0.0000 0.0000 0.0000
# 2 19.8125 83.1526 24.6154 0.0000 0.0000 0.0000
# 3 39.4992 24.6154 92.3404 0.0000 0.0000 0.0000
# 4 0.0000 0.0000 0.0000 26.5486 0.0000 0.0000
# 5 0.0000 0.0000 0.0000 0.0000 18.8443 0.0000
# 6 0.0000 0.0000 0.0000 0.0000 0.0000 37.6657
#
#
#
# Elastic Compliance Matrix: (Units=1/GPa)
#
#
# Indices 1 2 3 4 5 6 
#
# 1 0.030939 -0.003750 -0.012235 0.000000 0.000000 0.000000
# 2 -0.003750 0.013511 -0.001998 0.000000 0.000000 0.000000
# 3 -0.012235 -0.001998 0.016595 0.000000 0.000000 0.000000
# 4 0.000000 0.000000 0.000000 0.037667 0.000000 0.000000
# 5 0.000000 0.000000 0.000000 0.000000 0.053066 0.000000
# 6 0.000000 0.000000 0.000000 0.000000 0.000000 0.026549
#
#
# Mechanical properties :
#
#
# Convention : Reuss Voigt Hill
#
# Bulk Modulus (GPa) = 39.87096 43.74334 41.80715
# Shear Modulus (GPa) = 22.45650 26.07231 24.26440
#
# Velocity S-wave (km/s) = 3.31100 3.56761 3.44170
# Velocity P-wave (km/s) = 5.83789 6.19071 6.01689
#
# Compressibility (1/GPa) = 0.02508091
#
# Stress axis : x y z
#
# Youngs Moduli (GPa) = 32.32163 74.01434 60.25735
#
# Poissons Ratio (x) = 0.27755 0.73723
# Poissons Ratio (y) = 0.12120 0.12037
# Poissons Ratio (z) = 0.39545 0.14785
#
# Static dielectric constant tensor:
#      x y z
#    x 1.759880 0.000000 0.000000 
#    y 0.000000 1.724120 0.000000 
#    z 0.000000 0.000000 1.829720 
# 
# From -- ./inp_files/55212.got.cif
#   From: 2010.05.17/outbox.cif.g08.bks.cpg/sg70_28_cif.got.tgz:55212.got - 2010.06.03 15:57:51.
