data_PCOD9514035
_publ_section_title
;
Structure prediction by ZEFSAII (Michael W. Deem and Ramdas Pophale) SiO2 
 PCOD9514035
Probable space group: F D D D
;
_chemical_formula_sum "Si O2"
_cell_formula_units_Z 240
_cell_length_a 19.290730
_cell_length_b 22.195057
_cell_length_c 21.967608
_cell_angle_alpha 90.000000
_cell_angle_beta 90.000000
_cell_angle_gamma 90.000000
_cell_volume 9405.625821
_symmetry_space_group_name_H-M "F D D D"
_symmetry_group_IT_number 70
_space_group.IT_coordinate_system_code '2'
_symmetry_cell_setting 'orthorhombic'
loop_
_space_group_symop_operation_xyz
x,y,z
1/4-x,1/4-y,z
x,1/4-y,1/4-z
1/4-x,y,1/4-z
-x,-y,-z
3/4+x,3/4+y,-z
-x,3/4+y,3/4+z
3/4+x,-y,3/4+z
x,1/2+y,1/2+z
1/4-x,3/4-y,1/2+z
x,3/4-y,3/4-z
1/4-x,1/2+y,3/4-z
-x,1/2-y,1/2-z
3/4+x,1/4+y,1/2-z
-x,1/4+y,1/4+z
3/4+x,1/2-y,1/4+z
1/2+x,y,1/2+z
3/4-x,1/4-y,1/2+z
1/2+x,1/4-y,3/4-z
3/4-x,y,3/4-z
1/2-x,-y,1/2-z
1/4+x,3/4+y,1/2-z
1/2-x,3/4+y,1/4+z
1/4+x,-y,1/4+z
1/2+x,1/2+y,z
3/4-x,3/4-y,z
1/2+x,3/4-y,1/4-z
3/4-x,1/2+y,1/4-z
1/2-x,1/2-y,-z
1/4+x,1/4+y,-z
1/2-x,1/4+y,3/4+z
1/4+x,1/2-y,3/4+z
loop_
_atom_site_type_symbol
_atom_site_label
_atom_site_fract_x
_atom_site_fract_y
_atom_site_fract_z
Si Si1 0.372847 0.568825 0.463194
Si Si2 0.955135 0.946763 0.269564
Si Si3 0.771016 0.759046 0.920321
Si Si4 0.990715 0.451204 0.087991
Si Si5 0.994073 0.175057 0.700790
Si Si6 0.760034 0.355734 0.513533
Si Si7 0.125000 0.625000 0.915097
Si Si8 0.678314 0.726666 0.214893
O O1 0.344169 0.500723 0.458910
O O2 0.316081 0.578296 0.335740
O O3 0.414297 0.579612 0.526956
O O4 0.307764 0.611131 0.462252
O O5 0.968545 0.887698 0.309760
O O6 0.921682 0.919351 0.207267
O O7 0.029996 0.976093 0.255974
O O8 0.728018 0.699336 0.938665
O O9 0.781422 0.769582 0.849462
O O10 0.849174 0.756440 0.949668
O O11 0.741262 0.818027 0.952720
O O12 0.930346 0.415734 0.120880
O O13 0.971430 0.446828 0.015442
O O14 0.998008 0.521825 0.097847
O O15 0.810970 0.409802 0.492574
#
# Coordination Sequence:
#
# PCOD9514035 Si02
#       8
#    32  32  32  32  32  32  16  32
#     4   9  15  25  38  69  95 128 171 216 276 343
#     4  10  16  24  44  68  99 136 175 218 284 342
#     4  10  21  38  56  84 112 152 208 256 308 372
#     4   8  14  22  37  63 101 133 162 213 269 330
#     4   8  13  22  35  61  96 129 164 210 262 328
#     4  10  20  33  58  81 107 148 197 251 310 367
#     4  10  14  24  42  68 102 138 169 214 279 348
#     4  10  21  36  58  83 115 154 203 258 308 370
#
# _framework density 25.516642999999998
#
# number of rings (size 3 to 8) (size 9 to 14) (size 15 to 20)
#    0.800    1.867    1.333    2.400    0.000    1.067 
#    0.000    0.000    5.867    0.000    0.000    0.000 
#    0.000    0.000    0.000   12.267    2.133    0.000 
#
# Total GULP energy -335066.031855 kJ/mol
# GULP energy per Si atom -5584.433864 kJ/mol
# Density = 2.545857 g / cm^3
# Si number density = 25.516643 Si / 1000 Ang^3
#
#
#
# Elastic Constant Matrix: (Units=GPa)
#
#
# Indices 1 2 3 4 5 6 
#
# 1 98.7773 32.4208 10.2334 0.0000 0.0000 0.0000
# 2 32.4208 129.7584 18.9179 0.0000 0.0000 0.0000
# 3 10.2334 18.9179 92.5056 0.0000 0.0000 0.0000
# 4 0.0000 0.0000 0.0000 27.6313 0.0000 0.0000
# 5 0.0000 0.0000 0.0000 0.0000 19.7126 0.0000
# 6 0.0000 0.0000 0.0000 0.0000 0.0000 39.2288
#
#
#
# Elastic Compliance Matrix: (Units=1/GPa)
#
#
# Indices 1 2 3 4 5 6 
#
# 1 0.011069 -0.002667 -0.000679 0.000000 0.000000 0.000000
# 2 -0.002667 0.008586 -0.001461 0.000000 0.000000 0.000000
# 3 -0.000679 -0.001461 0.011184 0.000000 0.000000 0.000000
# 4 0.000000 0.000000 0.000000 0.036191 0.000000 0.000000
# 5 0.000000 0.000000 0.000000 0.000000 0.050729 0.000000
# 6 0.000000 0.000000 0.000000 0.000000 0.000000 0.025491
#
#
# Mechanical properties :
#
#
# Convention : Reuss Voigt Hill
#
# Bulk Modulus (GPa) = 47.11244 49.35395 48.23319
# Shear Modulus (GPa) = 31.26184 34.61250 32.93717
#
# Velocity S-wave (km/s) = 3.50402 3.68702 3.59668
# Velocity P-wave (km/s) = 5.90545 6.12449 6.01597
#
# Compressibility (1/GPa) = 0.02122582
#
# Stress axis : x y z
#
# Youngs Moduli (GPa) = 90.33894 116.46982 89.41309
#
# Poissons Ratio (x) = 0.31059 0.06073
# Poissons Ratio (y) = 0.24091 0.13062
# Poissons Ratio (z) = 0.06136 0.17015
#
# Static dielectric constant tensor:
#      x y z
#    x 2.020840 0.000000 0.000000 
#    y 0.000000 2.077030 0.000000 
#    z 0.000000 0.000000 2.074120 
# 
# From -- ./inp_files/60564.got.cif
#   From: 2010.05.17/outbox.cif.g08.bks.cpg/sg70_31_cif.got.tgz:60564.got - 2010.06.03 15:57:51.
