data_PCOD9514630
_publ_section_title
;
Structure prediction by ZEFSAII (Michael W. Deem and Ramdas Pophale) SiO2 
 PCOD9514630
Probable space group: F D D D
;
_chemical_formula_sum "Si O2"
_cell_formula_units_Z 240
_cell_length_a 25.166802
_cell_length_b 22.326653
_cell_length_c 20.372440
_cell_angle_alpha 90.000000
_cell_angle_beta 90.000000
_cell_angle_gamma 90.000000
_cell_volume 11447.079589
_symmetry_space_group_name_H-M "F D D D"
_symmetry_group_IT_number 70
_space_group.IT_coordinate_system_code '2'
_symmetry_cell_setting 'orthorhombic'
loop_
_space_group_symop_operation_xyz
x,y,z
1/4-x,1/4-y,z
x,1/4-y,1/4-z
1/4-x,y,1/4-z
-x,-y,-z
3/4+x,3/4+y,-z
-x,3/4+y,3/4+z
3/4+x,-y,3/4+z
x,1/2+y,1/2+z
1/4-x,3/4-y,1/2+z
x,3/4-y,3/4-z
1/4-x,1/2+y,3/4-z
-x,1/2-y,1/2-z
3/4+x,1/4+y,1/2-z
-x,1/4+y,1/4+z
3/4+x,1/2-y,1/4+z
1/2+x,y,1/2+z
3/4-x,1/4-y,1/2+z
1/2+x,1/4-y,3/4-z
3/4-x,y,3/4-z
1/2-x,-y,1/2-z
1/4+x,3/4+y,1/2-z
1/2-x,3/4+y,1/4+z
1/4+x,-y,1/4+z
1/2+x,1/2+y,z
3/4-x,3/4-y,z
1/2+x,3/4-y,1/4-z
3/4-x,1/2+y,1/4-z
1/2-x,1/2-y,-z
1/4+x,1/4+y,-z
1/2-x,1/4+y,3/4+z
1/4+x,1/2-y,3/4+z
loop_
_atom_site_type_symbol
_atom_site_label
_atom_site_fract_x
_atom_site_fract_y
_atom_site_fract_z
Si Si1 0.878323 0.232946 0.027973
Si Si2 0.566651 0.801303 0.589855
Si Si3 0.186911 0.756436 0.513497
Si Si4 0.590797 0.064757 0.392910
Si Si5 0.716303 0.929601 0.614647
Si Si6 0.037613 0.034193 0.549680
Si Si7 0.477294 0.625000 0.625000
Si Si8 0.904948 0.655650 0.020351
O O1 0.885131 0.261445 0.098583
O O2 0.851865 0.166792 0.024242
O O3 0.930569 0.221013 0.984525
O O4 0.844506 0.279969 0.984399
O O5 0.625000 0.803928 0.625000
O O6 0.544855 0.867473 0.597338
O O7 0.536447 0.753936 0.633940
O O8 0.250000 0.750000 0.500000
O O9 0.162041 0.702655 0.470232
O O10 0.188548 0.768153 0.591881
O O11 0.152272 0.812422 0.485110
O O12 0.625000 0.125000 0.383560
O O13 0.530128 0.067167 0.365828
O O14 0.688436 0.923370 0.544156
O O15 0.014848 0.097582 0.569304
O O16 0.000000 0.000000 0.500000
O O17 0.438726 0.669736 0.585314
#
# Coordination Sequence:
#
# PCOD9514630 Si02
#       8
#    32  32  32  32  32  32  16  32
#     4  11  23  42  67  98 139 187 232 285 352 432
#     4  10  19  38  63  90 122 178 227 280 338 404
#     4  10  23  45  70 100 131 174 240 308 357 417
#     4  11  28  43  65 102 147 185 226 301 372 423
#     4  11  21  43  73  96 130 181 240 288 361 431
#     4  11  23  39  61  94 146 179 234 287 329 415
#     4  12  26  36  65 108 144 196 239 276 350 430
#     4  12  22  42  75 102 131 184 237 292 353 437
#
# _framework density 20.966045999999999
#
# number of rings (size 3 to 8) (size 9 to 14) (size 15 to 20)
#    0.000    1.067    5.333    1.200    5.600    0.000 
#    0.000    2.333    0.000    1.600    0.000    0.000 
#    0.000    0.000    0.000    0.000    0.000    0.000 
#
# Total GULP energy -334376.502197 kJ/mol
# GULP energy per Si atom -5572.941703 kJ/mol
# Density = 2.091833 g / cm^3
# Si number density = 20.966046 Si / 1000 Ang^3
#
#
#
# Elastic Constant Matrix: (Units=GPa)
#
#
# Indices 1 2 3 4 5 6 
#
# 1 86.0782 48.4171 36.3233 0.0000 0.0000 0.0000
# 2 48.4171 66.0573 34.4796 0.0000 0.0000 0.0000
# 3 36.3233 34.4796 115.0264 0.0000 0.0000 0.0000
# 4 0.0000 0.0000 0.0000 39.2492 0.0000 0.0000
# 5 0.0000 0.0000 0.0000 0.0000 34.9000 0.0000
# 6 0.0000 0.0000 0.0000 0.0000 0.0000 37.2349
#
#
#
# Elastic Compliance Matrix: (Units=1/GPa)
#
#
# Indices 1 2 3 4 5 6 
#
# 1 0.020271 -0.013653 -0.002309 0.000000 0.000000 0.000000
# 2 -0.013653 0.027141 -0.003824 0.000000 0.000000 0.000000
# 3 -0.002309 -0.003824 0.010569 0.000000 0.000000 0.000000
# 4 0.000000 0.000000 0.000000 0.025478 0.000000 0.000000
# 5 0.000000 0.000000 0.000000 0.000000 0.028653 0.000000
# 6 0.000000 0.000000 0.000000 0.000000 0.000000 0.026857
#
#
# Mechanical properties :
#
#
# Convention : Reuss Voigt Hill
#
# Bulk Modulus (GPa) = 54.31916 56.17799 55.24857
# Shear Modulus (GPa) = 27.07419 32.13960 29.60689
#
# Velocity S-wave (km/s) = 3.59741 3.91952 3.76192
# Velocity P-wave (km/s) = 6.57416 6.88015 6.72889
#
# Compressibility (1/GPa) = 0.01840971
#
# Stress axis : x y z
#
# Youngs Moduli (GPa) = 49.33183 36.84411 94.61510
#
# Poissons Ratio (x) = 0.50302 0.21845
# Poissons Ratio (y) = 0.67351 0.36185
# Poissons Ratio (z) = 0.11390 0.14091
#
# Static dielectric constant tensor:
#      x y z
#    x 1.650760 0.000000 0.000000 
#    y 0.000000 1.898370 0.000000 
#    z 0.000000 0.000000 1.788830 
# 
# From -- ./inp_files/47151.got.cif
#   From: 2010.05.17/outbox.cif.g08.bks.cpg/sg70_24_cif.got.tgz:47151.got - 2010.06.03 15:57:51.
