data_PCOD9514340
_publ_section_title
;
Structure prediction by ZEFSAII (Michael W. Deem and Ramdas Pophale) SiO2 
 PCOD9514340
Probable space group: F D D D
;
_chemical_formula_sum "Si O2"
_cell_formula_units_Z 144
_cell_length_a 11.870995
_cell_length_b 20.921235
_cell_length_c 26.110420
_cell_angle_alpha 90.000000
_cell_angle_beta 90.000000
_cell_angle_gamma 90.000000
_cell_volume 6484.676234
_symmetry_space_group_name_H-M "F D D D"
_symmetry_group_IT_number 70
_space_group.IT_coordinate_system_code '2'
_symmetry_cell_setting 'orthorhombic'
loop_
_space_group_symop_operation_xyz
x,y,z
1/4-x,1/4-y,z
x,1/4-y,1/4-z
1/4-x,y,1/4-z
-x,-y,-z
3/4+x,3/4+y,-z
-x,3/4+y,3/4+z
3/4+x,-y,3/4+z
x,1/2+y,1/2+z
1/4-x,3/4-y,1/2+z
x,3/4-y,3/4-z
1/4-x,1/2+y,3/4-z
-x,1/2-y,1/2-z
3/4+x,1/4+y,1/2-z
-x,1/4+y,1/4+z
3/4+x,1/2-y,1/4+z
1/2+x,y,1/2+z
3/4-x,1/4-y,1/2+z
1/2+x,1/4-y,3/4-z
3/4-x,y,3/4-z
1/2-x,-y,1/2-z
1/4+x,3/4+y,1/2-z
1/2-x,3/4+y,1/4+z
1/4+x,-y,1/4+z
1/2+x,1/2+y,z
3/4-x,3/4-y,z
1/2+x,3/4-y,1/4-z
3/4-x,1/2+y,1/4-z
1/2-x,1/2-y,-z
1/4+x,1/4+y,-z
1/2-x,1/4+y,3/4+z
1/4+x,1/2-y,3/4+z
loop_
_atom_site_type_symbol
_atom_site_label
_atom_site_fract_x
_atom_site_fract_y
_atom_site_fract_z
Si Si1 0.106657 0.195256 0.044186
Si Si2 0.218466 0.818460 0.544734
Si Si3 0.856519 0.173104 0.018569
Si Si4 0.227686 0.260077 0.584213
Si Si5 0.375000 0.375000 0.124833
O O1 0.125000 0.125000 0.066886
O O2 0.164598 0.255745 0.068839
O O3 0.975781 0.201160 0.035937
O O4 0.170326 0.195307 0.989075
O O5 0.133958 0.852337 0.503996
O O6 0.265261 0.860884 0.590266
O O7 0.774101 0.190629 0.065414
O O8 0.819946 0.209470 0.967685
O O9 0.125000 0.256596 0.625000
O O10 0.331108 0.309385 0.598240
#
# Coordination Sequence:
#
# PCOD9514340 Si02
#       5
#    32  32  32  32  16
#     4   9  18  36  65  97 122 177 219 281 346 418
#     4  10  18  37  67  96 134 168 236 280 345 413
#     4  10  21  39  60  96 133 180 220 284 348 412
#     4  11  23  38  61  96 139 172 237 282 341 418
#     4  12  22  38  66 104 125 183 232 300 328 422
#
# _framework density 22.206198000000001
#
# number of rings (size 3 to 8) (size 9 to 14) (size 15 to 20)
#    0.000    1.778    5.556    0.000    3.111    0.000 
#    0.000    0.000    0.000   34.667    0.000    0.000 
#    0.000    0.000    0.000    0.000    0.000    0.000 
#
# Total GULP energy -200458.659037 kJ/mol
# GULP energy per Si atom -5568.296084 kJ/mol
# Density = 2.215566 g / cm^3
# Si number density = 22.206198 Si / 1000 Ang^3
#
#
#
# Elastic Constant Matrix: (Units=GPa)
#
#
# Indices 1 2 3 4 5 6 
#
# 1 71.6474 48.0027 41.9841 0.0000 0.0000 0.0000
# 2 48.0027 118.9672 32.0925 0.0000 0.0000 0.0000
# 3 41.9841 32.0925 86.8229 0.0000 0.0000 0.0000
# 4 0.0000 0.0000 0.0000 1.1943 0.0000 0.0000
# 5 0.0000 0.0000 0.0000 0.0000 6.9969 0.0000
# 6 0.0000 0.0000 0.0000 0.0000 0.0000 17.8830
#
#
#
# Elastic Compliance Matrix: (Units=1/GPa)
#
#
# Indices 1 2 3 4 5 6 
#
# 1 0.024100 -0.007309 -0.008952 0.000000 0.000000 0.000000
# 2 -0.007309 0.011554 -0.000736 0.000000 0.000000 0.000000
# 3 -0.008952 -0.000736 0.016119 0.000000 0.000000 0.000000
# 4 0.000000 0.000000 0.000000 0.837320 0.000000 0.000000
# 5 0.000000 0.000000 0.000000 0.000000 0.142920 0.000000
# 6 0.000000 0.000000 0.000000 0.000000 0.000000 0.055919
#
#
# Mechanical properties :
#
#
# Convention : Reuss Voigt Hill
#
# Bulk Modulus (GPa) = 56.25146 57.95512 57.10329
# Shear Modulus (GPa) = 4.43320 15.57205 10.00262
#
# Velocity S-wave (km/s) = 1.41447 2.65098 2.12467
# Velocity P-wave (km/s) = 5.29661 5.96033 5.63824
#
# Compressibility (1/GPa) = 0.01777732
#
# Stress axis : x y z
#
# Youngs Moduli (GPa) = 41.49339 86.55354 62.03996
#
# Poissons Ratio (x) = 0.63266 0.55539
# Poissons Ratio (y) = 0.30329 0.04566
# Poissons Ratio (z) = 0.37145 0.06370
#
# Static dielectric constant tensor:
#      x y z
#    x 1.819670 0.000000 0.000000 
#    y 0.000000 1.915490 0.000000 
#    z 0.000000 0.000000 1.820870 
# 
# From -- ./inp_files/57414.got.cif
#   From: 2010.05.17/outbox.cif.g08.bks.cpg/sg70_29_cif.got.tgz:57414.got - 2010.06.03 15:57:51.
