data_PCOD9514205
_publ_section_title
;
Structure prediction by ZEFSAII (Michael W. Deem and Ramdas Pophale) SiO2 
 PCOD9514205
Probable space group: F D D D
;
_chemical_formula_sum "Si O2"
_cell_formula_units_Z 160
_cell_length_a 13.875286
_cell_length_b 22.524328
_cell_length_c 23.492706
_cell_angle_alpha 90.000000
_cell_angle_beta 90.000000
_cell_angle_gamma 90.000000
_cell_volume 7342.210480
_symmetry_space_group_name_H-M "F D D D"
_symmetry_group_IT_number 70
_space_group.IT_coordinate_system_code '2'
_symmetry_cell_setting 'orthorhombic'
loop_
_space_group_symop_operation_xyz
x,y,z
1/4-x,1/4-y,z
x,1/4-y,1/4-z
1/4-x,y,1/4-z
-x,-y,-z
3/4+x,3/4+y,-z
-x,3/4+y,3/4+z
3/4+x,-y,3/4+z
x,1/2+y,1/2+z
1/4-x,3/4-y,1/2+z
x,3/4-y,3/4-z
1/4-x,1/2+y,3/4-z
-x,1/2-y,1/2-z
3/4+x,1/4+y,1/2-z
-x,1/4+y,1/4+z
3/4+x,1/2-y,1/4+z
1/2+x,y,1/2+z
3/4-x,1/4-y,1/2+z
1/2+x,1/4-y,3/4-z
3/4-x,y,3/4-z
1/2-x,-y,1/2-z
1/4+x,3/4+y,1/2-z
1/2-x,3/4+y,1/4+z
1/4+x,-y,1/4+z
1/2+x,1/2+y,z
3/4-x,3/4-y,z
1/2+x,3/4-y,1/4-z
3/4-x,1/2+y,1/4-z
1/2-x,1/2-y,-z
1/4+x,1/4+y,-z
1/2-x,1/4+y,3/4+z
1/4+x,1/2-y,3/4+z
loop_
_atom_site_type_symbol
_atom_site_label
_atom_site_fract_x
_atom_site_fract_y
_atom_site_fract_z
Si Si1 0.731529 0.609135 0.797068
Si Si2 0.166203 0.465335 0.781009
Si Si3 0.688781 0.065791 0.411205
Si Si4 0.290880 0.733107 0.328899
Si Si5 0.421772 0.582296 0.231102
O O1 0.625000 0.625000 0.773032
O O2 0.725454 0.560717 0.846797
O O3 0.753810 0.666373 0.838501
O O4 0.809656 0.588418 0.750596
O O5 0.250000 0.500000 0.750000
O O6 0.126657 0.507871 0.829182
O O7 0.085856 0.467420 0.732573
O O8 0.194884 0.398112 0.793051
O O9 0.625000 0.125000 0.421020
O O10 0.771552 0.070971 0.459278
O O11 0.375000 0.748680 0.375000
O O12 0.213899 0.784022 0.313019
#
# Coordination Sequence:
#
# PCOD9514205 Si02
#       5
#    32  32  32  32  32
#     4  10  21  36  62  90 122 174 232 260 305 383
#     4  10  19  34  59  86 127 163 206 255 330 388
#     4  10  18  31  60  86 120 170 212 268 315 384
#     4  10  22  37  61  92 130 167 207 270 329 397
#     4  10  20  37  57  89 132 168 208 271 326 375
#
# _framework density 21.791802000000001
#
# number of rings (size 3 to 8) (size 9 to 14) (size 15 to 20)
#    0.000    2.000    2.000    3.000    2.800    0.800 
#    0.000    2.000    0.000    0.000    0.000    0.000 
#    0.000    0.000    0.000    0.000    0.000    0.400 
#
# Total GULP energy -222742.611858 kJ/mol
# GULP energy per Si atom -5568.565296 kJ/mol
# Density = 2.174220 g / cm^3
# Si number density = 21.791802 Si / 1000 Ang^3
#
#
#
# Elastic Constant Matrix: (Units=GPa)
#
#
# Indices 1 2 3 4 5 6 
#
# 1 118.0896 38.8636 33.3252 0.0000 0.0000 0.0000
# 2 38.8636 118.0805 37.8750 0.0000 0.0000 0.0000
# 3 33.3252 37.8750 71.4892 0.0000 0.0000 0.0000
# 4 0.0000 0.0000 0.0000 8.9609 0.0000 0.0000
# 5 0.0000 0.0000 0.0000 0.0000 34.8232 0.0000
# 6 0.0000 0.0000 0.0000 0.0000 0.0000 31.9500
#
#
#
# Elastic Compliance Matrix: (Units=1/GPa)
#
#
# Indices 1 2 3 4 5 6 
#
# 1 0.010208 -0.002209 -0.003588 0.000000 0.000000 0.000000
# 2 -0.002209 0.010680 -0.004629 0.000000 0.000000 0.000000
# 3 -0.003588 -0.004629 0.018113 0.000000 0.000000 0.000000
# 4 0.000000 0.000000 0.000000 0.111596 0.000000 0.000000
# 5 0.000000 0.000000 0.000000 0.000000 0.028716 0.000000
# 6 0.000000 0.000000 0.000000 0.000000 0.000000 0.031299
#
#
# Mechanical properties :
#
#
# Convention : Reuss Voigt Hill
#
# Bulk Modulus (GPa) = 55.09735 58.64298 56.87016
# Shear Modulus (GPa) = 21.05139 28.31986 24.68563
#
# Velocity S-wave (km/s) = 3.11146 3.60886 3.36935
# Velocity P-wave (km/s) = 6.18439 6.65839 6.42576
#
# Compressibility (1/GPa) = 0.01814969
#
# Stress axis : x y z
#
# Youngs Moduli (GPa) = 97.96594 93.62865 55.20839
#
# Poissons Ratio (x) = 0.20680 0.19810
# Poissons Ratio (y) = 0.21638 0.25556
# Poissons Ratio (z) = 0.35152 0.43340
#
# Static dielectric constant tensor:
#      x y z
#    x 5.199680 0.000000 0.000000 
#    y 0.000000 1.723310 0.000000 
#    z 0.000000 0.000000 1.818810 
# 
# From -- ./inp_files/58520.got.cif
#   From: 2010.05.17/outbox.cif.g08.bks.cpg/sg70_30_cif.got.tgz:58520.got - 2010.06.03 15:57:51.
