data_PCOD9514655
_publ_section_title
;
Structure prediction by ZEFSAII (Michael W. Deem and Ramdas Pophale) SiO2 
 PCOD9514655
Probable space group: F D D D
;
_chemical_formula_sum "Si O2"
_cell_formula_units_Z 136
_cell_length_a 25.896614
_cell_length_b 21.505485
_cell_length_c 11.999916
_cell_angle_alpha 90.000000
_cell_angle_beta 90.000000
_cell_angle_gamma 90.000000
_cell_volume 6682.984146
_symmetry_space_group_name_H-M "F D D D"
_symmetry_group_IT_number 70
_space_group.IT_coordinate_system_code '2'
_symmetry_cell_setting 'orthorhombic'
loop_
_space_group_symop_operation_xyz
x,y,z
1/4-x,1/4-y,z
x,1/4-y,1/4-z
1/4-x,y,1/4-z
-x,-y,-z
3/4+x,3/4+y,-z
-x,3/4+y,3/4+z
3/4+x,-y,3/4+z
x,1/2+y,1/2+z
1/4-x,3/4-y,1/2+z
x,3/4-y,3/4-z
1/4-x,1/2+y,3/4-z
-x,1/2-y,1/2-z
3/4+x,1/4+y,1/2-z
-x,1/4+y,1/4+z
3/4+x,1/2-y,1/4+z
1/2+x,y,1/2+z
3/4-x,1/4-y,1/2+z
1/2+x,1/4-y,3/4-z
3/4-x,y,3/4-z
1/2-x,-y,1/2-z
1/4+x,3/4+y,1/2-z
1/2-x,3/4+y,1/4+z
1/4+x,-y,1/4+z
1/2+x,1/2+y,z
3/4-x,3/4-y,z
1/2+x,3/4-y,1/4-z
3/4-x,1/2+y,1/4-z
1/2-x,1/2-y,-z
1/4+x,1/4+y,-z
1/2-x,1/4+y,3/4+z
1/4+x,1/2-y,3/4+z
loop_
_atom_site_type_symbol
_atom_site_label
_atom_site_fract_x
_atom_site_fract_y
_atom_site_fract_z
Si Si1 0.066162 0.195583 0.164069
Si Si2 0.055135 0.728042 0.142503
Si Si3 0.625000 0.625000 0.625000
Si Si4 0.292847 0.157899 0.519532
Si Si5 0.769310 0.954479 0.592859
O O1 0.056501 0.125000 0.125000
O O2 0.125000 0.211070 0.125000
O O3 0.053598 0.197214 0.296218
O O4 0.024848 0.243493 0.112158
O O5 0.089127 0.672013 0.191500
O O6 0.071376 0.794094 0.189814
O O7 0.997600 0.704752 0.170574
O O8 0.055467 0.724852 0.009476
O O9 0.320074 0.125000 0.625000
O O10 0.261299 0.107975 0.445659
#
# Coordination Sequence:
#
# PCOD9514655 Si02
#       5
#    32  32   8  32  32
#     4  10  22  38  59  89 116 163 215 253 310 385
#     4  10  20  36  59  89 118 156 203 254 313 366
#     4  12  20  36  56  96 122 148 218 260 300 384
#     4   9  18  38  59  83 117 166 197 247 321 372
#     4  10  19  39  61  82 125 160 201 261 314 369
#
# _framework density 20.350190000000001
#
# number of rings (size 3 to 8) (size 9 to 14) (size 15 to 20)
#    0.000    2.118    3.529    1.412    0.000    1.882 
#   14.824    0.000    0.000    0.000    0.000    0.000 
#    0.000    0.000    0.000    0.000    0.000    0.000 
#
# Total GULP energy -189279.829024 kJ/mol
# GULP energy per Si atom -5567.053795 kJ/mol
# Density = 2.030387 g / cm^3
# Si number density = 20.350190 Si / 1000 Ang^3
#
#
#
# Elastic Constant Matrix: (Units=GPa)
#
#
# Indices 1 2 3 4 5 6 
#
# 1 73.9979 39.6560 57.1542 0.0000 0.0000 0.0000
# 2 39.6560 137.2788 77.4679 0.0000 0.0000 0.0000
# 3 57.1542 77.4679 140.5016 0.0001 0.0000 0.0000
# 4 0.0000 0.0000 0.0001 24.3355 0.0000 0.0000
# 5 0.0000 0.0000 0.0000 0.0000 7.6098 0.0000
# 6 0.0000 0.0000 0.0000 0.0000 0.0000 12.7927
#
#
#
# Elastic Compliance Matrix: (Units=1/GPa)
#
#
# Indices 1 2 3 4 5 6 
#
# 1 0.019981 -0.001721 -0.007179 0.000000 0.000000 0.000000
# 2 -0.001721 0.010723 -0.005212 0.000000 0.000000 0.000000
# 3 -0.007179 -0.005212 0.012912 0.000000 0.000000 0.000000
# 4 0.000000 0.000000 0.000000 0.041092 0.000000 0.000000
# 5 0.000000 0.000000 0.000000 0.000000 0.131409 0.000000
# 6 0.000000 0.000000 0.000000 0.000000 0.000000 0.078169
#
#
# Mechanical properties :
#
#
# Convention : Reuss Voigt Hill
#
# Bulk Modulus (GPa) = 64.97239 77.81493 71.39366
# Shear Modulus (GPa) = 15.26059 20.78096 18.02078
#
# Velocity S-wave (km/s) = 2.74140 3.19904 2.97902
# Velocity P-wave (km/s) = 6.48204 7.20875 6.85503
#
# Compressibility (1/GPa) = 0.01539115
#
# Stress axis : x y z
#
# Youngs Moduli (GPa) = 50.04716 93.25898 77.44904
#
# Poissons Ratio (x) = 0.16046 0.55604
# Poissons Ratio (y) = 0.08611 0.40369
# Poissons Ratio (z) = 0.35931 0.48609
#
# Static dielectric constant tensor:
#      x y z
#    x 1.789320 0.000000 0.000000 
#    y 0.000000 1.752420 0.000000 
#    z 0.000000 0.000000 1.878280 
# 
# From -- ./inp_files/19410.got.cif
#   From: 2010.05.17/outbox.cif.g08.bks.cpg/sg70_10_cif.got.tgz:19410.got - 2010.06.03 15:57:51.
