data_PCOD9514062
_publ_section_title
;
Structure prediction by ZEFSAII (Michael W. Deem and Ramdas Pophale) SiO2 
 PCOD9514062
Probable space group: F D D D
;
_chemical_formula_sum "Si O2"
_cell_formula_units_Z 160
_cell_length_a 12.944180
_cell_length_b 36.064666
_cell_length_c 13.331413
_cell_angle_alpha 90.000000
_cell_angle_beta 90.000000
_cell_angle_gamma 90.000000
_cell_volume 6223.470580
_symmetry_space_group_name_H-M "F D D D"
_symmetry_group_IT_number 70
_space_group.IT_coordinate_system_code '2'
_symmetry_cell_setting 'orthorhombic'
loop_
_space_group_symop_operation_xyz
x,y,z
1/4-x,1/4-y,z
x,1/4-y,1/4-z
1/4-x,y,1/4-z
-x,-y,-z
3/4+x,3/4+y,-z
-x,3/4+y,3/4+z
3/4+x,-y,3/4+z
x,1/2+y,1/2+z
1/4-x,3/4-y,1/2+z
x,3/4-y,3/4-z
1/4-x,1/2+y,3/4-z
-x,1/2-y,1/2-z
3/4+x,1/4+y,1/2-z
-x,1/4+y,1/4+z
3/4+x,1/2-y,1/4+z
1/2+x,y,1/2+z
3/4-x,1/4-y,1/2+z
1/2+x,1/4-y,3/4-z
3/4-x,y,3/4-z
1/2-x,-y,1/2-z
1/4+x,3/4+y,1/2-z
1/2-x,3/4+y,1/4+z
1/4+x,-y,1/4+z
1/2+x,1/2+y,z
3/4-x,3/4-y,z
1/2+x,3/4-y,1/4-z
3/4-x,1/2+y,1/4-z
1/2-x,1/2-y,-z
1/4+x,1/4+y,-z
1/2-x,1/4+y,3/4+z
1/4+x,1/2-y,3/4+z
loop_
_atom_site_type_symbol
_atom_site_label
_atom_site_fract_x
_atom_site_fract_y
_atom_site_fract_z
Si Si1 0.328842 0.834990 0.523033
Si Si2 0.390339 0.141657 0.995159
Si Si3 0.491630 0.715898 0.989384
Si Si4 0.720883 0.808370 0.505761
Si Si5 0.954070 0.297695 0.012937
O O1 0.375000 0.875000 0.557375
O O2 0.223175 0.846459 0.467131
O O3 0.420460 0.811674 0.471392
O O4 0.302349 0.809287 0.619301
O O5 0.375000 0.144531 0.875000
O O6 0.435250 0.100697 0.008035
O O7 0.476575 0.169857 0.032329
O O8 0.377043 0.713638 0.036753
O O9 0.478019 0.701947 0.874668
O O10 0.513155 0.759236 0.997501
O O11 0.836342 0.798230 0.473256
#
# Coordination Sequence:
#
# PCOD9514062 Si02
#       5
#    32  32  32  32  32
#     4  10  18  33  52  69 102 127 161 208 244 285
#     4  10  16  30  50  69  96 124 160 201 245 279
#     4  10  18  29  46  73 101 125 158 198 251 288
#     4  10  17  32  47  67 102 130 154 200 243 288
#     4  10  19  26  45  77  99 123 158 199 249 292
#
# _framework density 25.709126999999999
#
# number of rings (size 3 to 8) (size 9 to 14) (size 15 to 20)
#    0.000    2.000    4.000    4.800    0.000    0.800 
#    0.000    0.000    0.000    0.000    0.000   64.400 
#    0.000    0.000    0.000    0.000    0.000    0.000 
#
# Total GULP energy -223596.438628 kJ/mol
# GULP energy per Si atom -5589.910966 kJ/mol
# Density = 2.565061 g / cm^3
# Si number density = 25.709127 Si / 1000 Ang^3
#
#
#
# Elastic Constant Matrix: (Units=GPa)
#
#
# Indices 1 2 3 4 5 6 
#
# 1 132.0757 51.2992 41.5592 0.0000 0.0000 0.0000
# 2 51.2992 205.3333 26.9643 0.0000 0.0000 0.0000
# 3 41.5592 26.9643 99.0338 0.0000 0.0000 0.0000
# 4 0.0000 0.0000 0.0000 -16.8939 0.0000 0.0000
# 5 0.0000 0.0000 0.0000 0.0000 14.6405 0.0000
# 6 0.0000 0.0000 0.0000 0.0000 0.0000 52.0116
#
#
#
# Elastic Compliance Matrix: (Units=1/GPa)
#
#
# Indices 1 2 3 4 5 6 
#
# 1 0.009384 -0.001895 -0.003422 0.000000 0.000000 0.000000
# 2 -0.001895 0.005433 -0.000684 0.000000 0.000000 0.000000
# 3 -0.003422 -0.000684 0.011720 0.000000 0.000000 0.000000
# 4 0.000000 0.000000 0.000000 -0.059193 0.000000 0.000000
# 5 0.000000 0.000000 0.000000 0.000000 0.068303 0.000000
# 6 0.000000 0.000000 0.000000 0.000000 0.000000 0.019226
#
#
# Mechanical properties :
#
#
# Convention : Reuss Voigt Hill
#
# Bulk Modulus (GPa) = 68.79953 75.12092 71.96022
# Shear Modulus (GPa) = 69.71337 31.05966 50.38651
#
# Velocity S-wave (km/s) = 5.21297 3.47957 4.43184
# Velocity P-wave (km/s) = 7.94054 6.73990 7.36473
#
# Compressibility (1/GPa) = 0.01453498
#
# Stress axis : x y z
#
# Youngs Moduli (GPa) = 106.56098 184.04567 85.32501
#
# Poissons Ratio (x) = 0.34879 0.29199
# Poissons Ratio (y) = 0.20195 0.05837
# Poissons Ratio (z) = 0.36466 0.12591
#
# Static dielectric constant tensor:
#      x y z
#    x 2.090740 0.000000 0.000000 
#    y 0.000000 1.939970 0.000000 
#    z 0.000000 0.000000 2.131030 
# 
# From -- ./inp_files/51289.got.cif
#   From: 2010.05.17/outbox.cif.g08.bks.cpg/sg70_26_cif.got.tgz:51289.got - 2010.06.03 15:57:51.
