data_PCOD9514112
_publ_section_title
;
Structure prediction by ZEFSAII (Michael W. Deem and Ramdas Pophale) SiO2 
 PCOD9514112
Probable space group: F D D D
;
_chemical_formula_sum "Si O2"
_cell_formula_units_Z 192
_cell_length_a 25.274328
_cell_length_b 24.836767
_cell_length_c 18.713285
_cell_angle_alpha 90.000000
_cell_angle_beta 90.000000
_cell_angle_gamma 90.000000
_cell_volume 11746.938966
_symmetry_space_group_name_H-M "F D D D"
_symmetry_group_IT_number 70
_space_group.IT_coordinate_system_code '2'
_symmetry_cell_setting 'orthorhombic'
loop_
_space_group_symop_operation_xyz
x,y,z
1/4-x,1/4-y,z
x,1/4-y,1/4-z
1/4-x,y,1/4-z
-x,-y,-z
3/4+x,3/4+y,-z
-x,3/4+y,3/4+z
3/4+x,-y,3/4+z
x,1/2+y,1/2+z
1/4-x,3/4-y,1/2+z
x,3/4-y,3/4-z
1/4-x,1/2+y,3/4-z
-x,1/2-y,1/2-z
3/4+x,1/4+y,1/2-z
-x,1/4+y,1/4+z
3/4+x,1/2-y,1/4+z
1/2+x,y,1/2+z
3/4-x,1/4-y,1/2+z
1/2+x,1/4-y,3/4-z
3/4-x,y,3/4-z
1/2-x,-y,1/2-z
1/4+x,3/4+y,1/2-z
1/2-x,3/4+y,1/4+z
1/4+x,-y,1/4+z
1/2+x,1/2+y,z
3/4-x,3/4-y,z
1/2+x,3/4-y,1/4-z
3/4-x,1/2+y,1/4-z
1/2-x,1/2-y,-z
1/4+x,1/4+y,-z
1/2-x,1/4+y,3/4+z
1/4+x,1/2-y,3/4+z
loop_
_atom_site_type_symbol
_atom_site_label
_atom_site_fract_x
_atom_site_fract_y
_atom_site_fract_z
Si Si1 0.667487 0.823025 0.832540
Si Si2 0.357855 0.287981 0.093595
Si Si3 0.423760 0.116757 0.821543
Si Si4 0.293333 0.396481 0.081718
Si Si5 0.956592 0.822919 0.914457
Si Si6 0.442952 0.741917 0.290873
O O1 0.645306 0.875000 0.875000
O O2 0.649299 0.765420 0.860240
O O3 0.660104 0.832963 0.748972
O O4 0.730222 0.822417 0.846126
O O5 0.314271 0.336015 0.097765
O O6 0.413586 0.313977 0.115296
O O7 0.350435 0.268129 0.011655
O O8 0.375000 0.113741 0.875000
O O9 0.481594 0.098577 0.850153
O O10 0.433061 0.178674 0.798034
O O11 0.299620 0.413176 0.997967
O O12 0.934055 0.875000 0.875000
O O13 0.939985 0.770745 0.868257
O O14 0.500000 0.750000 0.250000
#
# Coordination Sequence:
#
# PCOD9514112 Si02
#       6
#    32  32  32  32  32  32
#     4  10  18  33  54  73 106 152 188 228 280 326
#     4  11  20  34  52  78 114 152 186 220 278 348
#     4  11  23  37  54  79 110 148 196 243 277 329
#     4  10  22  35  50  79 113 149 188 226 282 343
#     4  10  17  28  47  74 117 155 177 209 261 337
#     4  12  18  32  52  83 119 154 184 215 274 359
#
# _framework density 16.344683
#
# number of rings (size 3 to 8) (size 9 to 14) (size 15 to 20)
#    0.000    1.333    6.667    1.000    2.333    0.000 
#    0.000    0.833    0.000    0.000    0.000    2.333 
#    0.000    0.000    0.000    0.000    0.000    0.000 
#
# Total GULP energy -267390.196003 kJ/mol
# GULP energy per Si atom -5570.629083 kJ/mol
# Density = 1.630748 g / cm^3
# Si number density = 16.344683 Si / 1000 Ang^3
#
#
#
# Elastic Constant Matrix: (Units=GPa)
#
#
# Indices 1 2 3 4 5 6 
#
# 1 112.3916 44.4973 41.1163 0.0000 0.0000 0.0000
# 2 44.4973 122.1068 47.2596 0.0000 0.0000 0.0000
# 3 41.1163 47.2596 57.6957 0.0000 0.0000 0.0000
# 4 0.0000 0.0000 0.0000 36.2478 0.0000 0.0000
# 5 0.0000 0.0000 0.0000 0.0000 26.3542 0.0000
# 6 0.0000 0.0000 0.0000 0.0000 0.0000 12.2960
#
#
#
# Elastic Compliance Matrix: (Units=1/GPa)
#
#
# Indices 1 2 3 4 5 6 
#
# 1 0.012242 -0.001588 -0.007423 0.000000 0.000000 0.000000
# 2 -0.001588 0.012197 -0.008859 0.000000 0.000000 0.000000
# 3 -0.007423 -0.008859 0.029879 0.000000 0.000000 0.000000
# 4 0.000000 0.000000 0.000000 0.027588 0.000000 0.000000
# 5 0.000000 0.000000 0.000000 0.000000 0.037945 0.000000
# 6 0.000000 0.000000 0.000000 0.000000 0.000000 0.081327
#
#
# Mechanical properties :
#
#
# Convention : Reuss Voigt Hill
#
# Bulk Modulus (GPa) = 53.82952 61.99339 57.91145
# Shear Modulus (GPa) = 20.56674 25.60100 23.08387
#
# Velocity S-wave (km/s) = 3.55112 3.96197 3.76216
# Velocity P-wave (km/s) = 7.05829 7.67729 7.37428
#
# Compressibility (1/GPa) = 0.01857717
#
# Stress axis : x y z
#
# Youngs Moduli (GPa) = 81.68714 81.98705 33.46822
#
# Poissons Ratio (x) = 0.13020 0.24844
# Poissons Ratio (y) = 0.12972 0.29650
# Poissons Ratio (z) = 0.60638 0.72633
#
# Static dielectric constant tensor:
#      x y z
#    x 1.585980 0.000000 0.000000 
#    y 0.000000 1.565060 0.000000 
#    z 0.000000 0.000000 1.585330 
# 
# From -- ./inp_files/47169.got.cif
#   From: 2010.05.17/outbox.cif.g08.bks.cpg/sg70_24_cif.got.tgz:47169.got - 2010.06.03 15:57:51.
