data_PCOD9514636
_publ_section_title
;
Structure prediction by ZEFSAII (Michael W. Deem and Ramdas Pophale) SiO2 
 PCOD9514636
Probable space group: F D D D
;
_chemical_formula_sum "Si O2"
_cell_formula_units_Z 144
_cell_length_a 17.357788
_cell_length_b 14.096110
_cell_length_c 28.902025
_cell_angle_alpha 90.000000
_cell_angle_beta 90.000000
_cell_angle_gamma 90.000000
_cell_volume 7071.669124
_symmetry_space_group_name_H-M "F D D D"
_symmetry_group_IT_number 70
_space_group.IT_coordinate_system_code '2'
_symmetry_cell_setting 'orthorhombic'
loop_
_space_group_symop_operation_xyz
x,y,z
1/4-x,1/4-y,z
x,1/4-y,1/4-z
1/4-x,y,1/4-z
-x,-y,-z
3/4+x,3/4+y,-z
-x,3/4+y,3/4+z
3/4+x,-y,3/4+z
x,1/2+y,1/2+z
1/4-x,3/4-y,1/2+z
x,3/4-y,3/4-z
1/4-x,1/2+y,3/4-z
-x,1/2-y,1/2-z
3/4+x,1/4+y,1/2-z
-x,1/4+y,1/4+z
3/4+x,1/2-y,1/4+z
1/2+x,y,1/2+z
3/4-x,1/4-y,1/2+z
1/2+x,1/4-y,3/4-z
3/4-x,y,3/4-z
1/2-x,-y,1/2-z
1/4+x,3/4+y,1/2-z
1/2-x,3/4+y,1/4+z
1/4+x,-y,1/4+z
1/2+x,1/2+y,z
3/4-x,3/4-y,z
1/2+x,3/4-y,1/4-z
3/4-x,1/2+y,1/4-z
1/2-x,1/2-y,-z
1/4+x,1/4+y,-z
1/2-x,1/4+y,3/4+z
1/4+x,1/2-y,3/4+z
loop_
_atom_site_type_symbol
_atom_site_label
_atom_site_fract_x
_atom_site_fract_y
_atom_site_fract_z
Si Si1 0.754460 0.933464 0.564405
Si Si2 0.625000 0.125000 0.243276
Si Si3 0.035753 0.612963 0.568942
Si Si4 0.708724 0.586235 0.327774
Si Si5 0.360966 0.553071 0.427930
O O1 0.802122 0.876256 0.527108
O O2 0.788381 0.922860 0.616110
O O3 0.667796 0.893118 0.565976
O O4 0.757124 0.043812 0.551162
O O5 0.621465 0.217685 0.211788
O O6 0.125000 0.625000 0.553876
O O7 0.037559 0.625000 0.625000
O O8 0.990177 0.515538 0.559179
O O9 0.625000 0.625000 0.313700
O O10 0.774080 0.662177 0.315745
O O11 0.375000 0.521687 0.375000
#
# Coordination Sequence:
#
# PCOD9514636 Si02
#       5
#    32  16  32  32  32
#     4  10  20  39  63  90 125 161 203 263 311 371
#     4  12  23  40  58  92 124 164 206 250 320 372
#     4   9  16  33  64  90 114 160 210 249 309 369
#     4  10  19  38  64  96 122 157 213 264 305 369
#     4  10  22  41  64  85 123 168 208 250 309 384
#
# _framework density 20.362943000000001
#
# number of rings (size 3 to 8) (size 9 to 14) (size 15 to 20)
#    0.000    2.000    3.333    1.000    0.000    0.000 
#    8.000    4.444    0.000    0.000    0.000    0.000 
#    0.000    0.000    0.000    0.000    0.000    0.000 
#
# Total GULP energy -201022.608886 kJ/mol
# GULP energy per Si atom -5583.961358 kJ/mol
# Density = 2.031660 g / cm^3
# Si number density = 20.362943 Si / 1000 Ang^3
#
#
#
# Elastic Constant Matrix: (Units=GPa)
#
#
# Indices 1 2 3 4 5 6 
#
# 1 147.7809 52.7496 28.0492 0.0000 0.0000 0.0000
# 2 52.7496 129.0993 45.3370 0.0000 0.0000 0.0000
# 3 28.0492 45.3370 81.1415 0.0000 0.0000 0.0000
# 4 0.0000 0.0000 0.0000 -23.2705 0.0000 0.0000
# 5 0.0000 0.0000 0.0000 0.0000 6.9022 0.0000
# 6 0.0000 0.0000 0.0000 0.0000 0.0000 26.8706
#
#
#
# Elastic Compliance Matrix: (Units=1/GPa)
#
#
# Indices 1 2 3 4 5 6 
#
# 1 0.008010 -0.002862 -0.001170 0.000000 0.000000 0.000000
# 2 -0.002862 0.010660 -0.004967 0.000000 0.000000 0.000000
# 3 -0.001170 -0.004967 0.015504 0.000000 0.000000 0.000000
# 4 0.000000 0.000000 0.000000 -0.042973 0.000000 0.000000
# 5 0.000000 0.000000 0.000000 0.000000 0.144881 0.000000
# 6 0.000000 0.000000 0.000000 0.000000 0.000000 0.037215
#
#
# Mechanical properties :
#
#
# Convention : Reuss Voigt Hill
#
# Bulk Modulus (GPa) = 61.81834 67.81038 64.81436
# Shear Modulus (GPa) = 25.42117 17.55953 21.49035
#
# Velocity S-wave (km/s) = 3.53711 2.93973 3.25216
# Velocity P-wave (km/s) = 6.86336 6.70044 6.78239
#
# Compressibility (1/GPa) = 0.01617643
#
# Stress axis : x y z
#
# Youngs Moduli (GPa) = 124.83662 93.81198 64.50138
#
# Poissons Ratio (x) = 0.26851 0.07546
# Poissons Ratio (y) = 0.35731 0.32035
# Poissons Ratio (z) = 0.14604 0.46592
#
# Static dielectric constant tensor:
#      x y z
#    x 1.717070 0.000000 0.000000 
#    y 0.000000 1.713230 0.000000 
#    z 0.000000 0.000000 1.734960 
# 
# From -- ./inp_files/39468.got.cif
#   From: 2010.05.17/outbox.cif.g08.bks.cpg/sg70_20_cif.got.tgz:39468.got - 2010.06.03 15:57:51.
