data_PCOD9514691
_publ_section_title
;
Structure prediction by ZEFSAII (Michael W. Deem and Ramdas Pophale) SiO2 
 PCOD9514691
Probable space group: F D D D
;
_chemical_formula_sum "Si O2"
_cell_formula_units_Z 112
_cell_length_a 12.276169
_cell_length_b 16.010240
_cell_length_c 24.398777
_cell_angle_alpha 90.000000
_cell_angle_beta 90.000000
_cell_angle_gamma 90.000000
_cell_volume 4795.443278
_symmetry_space_group_name_H-M "F D D D"
_symmetry_group_IT_number 70
_space_group.IT_coordinate_system_code '2'
_symmetry_cell_setting 'orthorhombic'
loop_
_space_group_symop_operation_xyz
x,y,z
1/4-x,1/4-y,z
x,1/4-y,1/4-z
1/4-x,y,1/4-z
-x,-y,-z
3/4+x,3/4+y,-z
-x,3/4+y,3/4+z
3/4+x,-y,3/4+z
x,1/2+y,1/2+z
1/4-x,3/4-y,1/2+z
x,3/4-y,3/4-z
1/4-x,1/2+y,3/4-z
-x,1/2-y,1/2-z
3/4+x,1/4+y,1/2-z
-x,1/4+y,1/4+z
3/4+x,1/2-y,1/4+z
1/2+x,y,1/2+z
3/4-x,1/4-y,1/2+z
1/2+x,1/4-y,3/4-z
3/4-x,y,3/4-z
1/2-x,-y,1/2-z
1/4+x,3/4+y,1/2-z
1/2-x,3/4+y,1/4+z
1/4+x,-y,1/4+z
1/2+x,1/2+y,z
3/4-x,3/4-y,z
1/2+x,3/4-y,1/4-z
3/4-x,1/2+y,1/4-z
1/2-x,1/2-y,-z
1/4+x,1/4+y,-z
1/2-x,1/4+y,3/4+z
1/4+x,1/2-y,3/4+z
loop_
_atom_site_type_symbol
_atom_site_label
_atom_site_fract_x
_atom_site_fract_y
_atom_site_fract_z
Si Si1 0.749664 0.169385 0.868229
Si Si2 0.875000 0.875000 0.530442
Si Si3 0.331403 0.209069 0.723708
Si Si4 0.461192 0.981139 0.419885
O O1 0.875000 0.191080 0.875000
O O2 0.685807 0.185592 0.925203
O O3 0.712231 0.219610 0.815781
O O4 0.746333 0.070738 0.853525
O O5 0.773790 0.907718 0.494182
O O6 0.389570 0.247383 0.776800
O O7 0.436037 0.174499 0.688741
O O8 0.375000 0.953861 0.375000
#
# Coordination Sequence:
#
# PCOD9514691 Si02
#       4
#    32  16  32  32
#     4  11  21  41  66  94 131 181 225 280 344 416
#     4  12  22  40  65 108 133 178 234 286 354 410
#     4  11  21  35  70  97 134 177 227 285 349 407
#     4  10  19  40  68  99 125 182 238 276 337 421
#
# _framework density 23.355505999999998
#
# number of rings (size 3 to 8) (size 9 to 14) (size 15 to 20)
#    0.000    1.143    8.571    0.000    0.000    1.143 
#    0.000    0.714    6.286   12.000    0.000    0.000 
#    0.000    0.000    0.000    0.000    0.000    0.000 
#
# Total GULP energy -156133.422194 kJ/mol
# GULP energy per Si atom -5576.193650 kJ/mol
# Density = 2.330235 g / cm^3
# Si number density = 23.355506 Si / 1000 Ang^3
#
#
#
# Elastic Constant Matrix: (Units=GPa)
#
#
# Indices 1 2 3 4 5 6 
#
# 1 243.7929 39.0130 103.6165 0.0000 0.0000 0.0000
# 2 39.0130 53.1330 52.1484 0.0000 0.0000 0.0000
# 3 103.6165 52.1484 144.5988 0.0000 0.0000 0.0000
# 4 0.0000 0.0000 0.0000 45.5764 0.0000 0.0000
# 5 0.0000 0.0000 0.0000 0.0000 82.6690 0.0000
# 6 0.0000 0.0000 0.0000 0.0000 0.0000 34.8425
#
#
#
# Elastic Compliance Matrix: (Units=1/GPa)
#
#
# Indices 1 2 3 4 5 6 
#
# 1 0.005901 -0.000283 -0.004127 0.000000 0.000000 0.000000
# 2 -0.000283 0.029146 -0.010309 0.000000 0.000000 0.000000
# 3 -0.004127 -0.010309 0.013590 0.000000 0.000000 0.000000
# 4 0.000000 0.000000 0.000000 0.021941 0.000000 0.000000
# 5 0.000000 0.000000 0.000000 0.000000 0.012096 0.000000
# 6 0.000000 0.000000 0.000000 0.000000 0.000000 0.028701
#
#
# Mechanical properties :
#
#
# Convention : Reuss Voigt Hill
#
# Bulk Modulus (GPa) = 52.07943 92.34226 72.21084
# Shear Modulus (GPa) = 33.96472 49.06737 41.51605
#
# Velocity S-wave (km/s) = 3.81760 4.58852 4.22070
# Velocity P-wave (km/s) = 6.46367 8.22777 7.39849
#
# Compressibility (1/GPa) = 0.01920144
#
# Stress axis : x y z
#
# Youngs Moduli (GPa) = 169.46465 34.31022 73.58142
#
# Poissons Ratio (x) = 0.00970 0.30364
# Poissons Ratio (y) = 0.04791 0.75852
# Poissons Ratio (z) = 0.69930 0.35369
#
# Static dielectric constant tensor:
#      x y z
#    x 2.031410 0.000000 0.000000 
#    y 0.000000 1.933760 0.000000 
#    z 0.000000 0.000000 1.937800 
# 
# From -- ./inp_files/16304.got.cif
#   From: 2010.05.17/outbox.cif.g08.bks.cpg/sg70_9_cif.got.tgz:16304.got - 2010.06.03 15:57:51.
