data_PCOD9514788
_publ_section_title
;
Structure prediction by ZEFSAII (Michael W. Deem and Ramdas Pophale) SiO2 
 PCOD9514788
Probable space group: F D D D
;
_chemical_formula_sum "Si O2"
_cell_formula_units_Z 192
_cell_length_a 23.842977
_cell_length_b 19.005375
_cell_length_c 19.031861
_cell_angle_alpha 90.000000
_cell_angle_beta 90.000000
_cell_angle_gamma 90.000000
_cell_volume 8624.187305
_symmetry_space_group_name_H-M "F D D D"
_symmetry_group_IT_number 70
_space_group.IT_coordinate_system_code '2'
_symmetry_cell_setting 'orthorhombic'
loop_
_space_group_symop_operation_xyz
x,y,z
1/4-x,1/4-y,z
x,1/4-y,1/4-z
1/4-x,y,1/4-z
-x,-y,-z
3/4+x,3/4+y,-z
-x,3/4+y,3/4+z
3/4+x,-y,3/4+z
x,1/2+y,1/2+z
1/4-x,3/4-y,1/2+z
x,3/4-y,3/4-z
1/4-x,1/2+y,3/4-z
-x,1/2-y,1/2-z
3/4+x,1/4+y,1/2-z
-x,1/4+y,1/4+z
3/4+x,1/2-y,1/4+z
1/2+x,y,1/2+z
3/4-x,1/4-y,1/2+z
1/2+x,1/4-y,3/4-z
3/4-x,y,3/4-z
1/2-x,-y,1/2-z
1/4+x,3/4+y,1/2-z
1/2-x,3/4+y,1/4+z
1/4+x,-y,1/4+z
1/2+x,1/2+y,z
3/4-x,3/4-y,z
1/2+x,3/4-y,1/4-z
3/4-x,1/2+y,1/4-z
1/2-x,1/2-y,-z
1/4+x,1/4+y,-z
1/2-x,1/4+y,3/4+z
1/4+x,1/2-y,3/4+z
loop_
_atom_site_type_symbol
_atom_site_label
_atom_site_fract_x
_atom_site_fract_y
_atom_site_fract_z
Si Si1 0.789881 0.580251 0.788205
Si Si2 0.931148 0.727453 0.001845
Si Si3 0.992497 0.452647 0.888750
Si Si4 0.757479 0.204235 0.634593
Si Si5 0.186160 0.153209 0.862544
Si Si6 0.670348 0.070567 0.735228
O O1 0.826720 0.650516 0.783754
O O2 0.781157 0.553874 0.708589
O O3 0.800348 0.514852 0.840152
O O4 0.731002 0.612212 0.816316
O O5 0.870158 0.759280 0.013234
O O6 0.965960 0.777622 0.948974
O O7 0.968304 0.719629 0.072061
O O8 0.967544 0.375000 0.875000
O O9 0.779334 0.125000 0.625000
O O10 0.803995 0.263612 0.645176
O O11 0.716633 0.209542 0.566730
O O12 0.125000 0.125000 0.845881
O O13 0.195940 0.142379 0.945926
O O14 0.625000 0.125000 0.702715
#
# Coordination Sequence:
#
# PCOD9514788 Si02
#       6
#    32  32  32  32  32  32
#     4   9  19  35  58  92 121 164 220 277 336 397
#     4  10  20  34  60  92 130 171 215 268 340 425
#     4   9  17  34  59  89 115 163 220 273 332 391
#     4  11  22  37  59  92 136 174 219 278 334 415
#     4  10  22  39  60  90 128 177 225 274 344 408
#     4  11  20  35  60  93 132 178 217 261 344 428
#
# _framework density 22.262967
#
# number of rings (size 3 to 8) (size 9 to 14) (size 15 to 20)
#    0.000    2.000    1.667    3.000    0.000    0.000 
#    0.000    8.333    0.000   12.500   52.000    0.000 
#    0.000    1.333    0.000    0.000    0.000    0.000 
#
# Total GULP energy -267743.095314 kJ/mol
# GULP energy per Si atom -5577.981152 kJ/mol
# Density = 2.221230 g / cm^3
# Si number density = 22.262967 Si / 1000 Ang^3
#
#
#
# Elastic Constant Matrix: (Units=GPa)
#
#
# Indices 1 2 3 4 5 6 
#
# 1 49.2530 27.7863 22.4947 0.0000 0.0000 0.0000
# 2 27.7863 170.2472 20.8763 0.0000 0.0000 0.0000
# 3 22.4947 20.8763 94.0381 0.0000 0.0000 0.0000
# 4 0.0000 0.0000 0.0000 44.3428 0.0000 0.0000
# 5 0.0000 0.0000 0.0000 0.0000 59.5379 0.0000
# 6 0.0000 0.0000 0.0000 0.0000 0.0000 32.3311
#
#
#
# Elastic Compliance Matrix: (Units=1/GPa)
#
#
# Indices 1 2 3 4 5 6 
#
# 1 0.024549 -0.003379 -0.005122 0.000000 0.000000 0.000000
# 2 -0.003379 0.006503 -0.000636 0.000000 0.000000 0.000000
# 3 -0.005122 -0.000636 0.012000 0.000000 0.000000 0.000000
# 4 0.000000 0.000000 0.000000 0.022552 0.000000 0.000000
# 5 0.000000 0.000000 0.000000 0.000000 0.016796 0.000000
# 6 0.000000 0.000000 0.000000 0.000000 0.000000 0.030930
#
#
# Mechanical properties :
#
#
# Convention : Reuss Voigt Hill
#
# Bulk Modulus (GPa) = 40.35561 50.65032 45.50297
# Shear Modulus (GPa) = 35.74943 43.40109 39.57526
#
# Velocity S-wave (km/s) = 4.01157 4.42008 4.22077
# Velocity P-wave (km/s) = 6.29468 6.98926 6.65104
#
# Compressibility (1/GPa) = 0.02477970
#
# Stress axis : x y z
#
# Youngs Moduli (GPa) = 40.73523 153.77154 83.33083
#
# Poissons Ratio (x) = 0.51952 0.42684
# Poissons Ratio (y) = 0.13763 0.05296
# Poissons Ratio (z) = 0.20866 0.09772
#
# Static dielectric constant tensor:
#      x y z
#    x 1.762730 0.000000 0.000000 
#    y 0.000000 1.957390 0.000000 
#    z 0.000000 0.000000 1.843150 
# 
# From -- ./inp_files/45918.got.cif
#   From: 2010.05.17/outbox.cif.g08.bks.cpg/sg70_23_cif.got.tgz:45918.got - 2010.06.03 15:57:51.
