data_PCOD9514055
_publ_section_title
;
Structure prediction by ZEFSAII (Michael W. Deem and Ramdas Pophale) SiO2 
 PCOD9514055
Probable space group: F D D D
;
_chemical_formula_sum "Si O2"
_cell_formula_units_Z 120
_cell_length_a 22.257483
_cell_length_b 18.461912
_cell_length_c 12.539256
_cell_angle_alpha 90.000000
_cell_angle_beta 90.000000
_cell_angle_gamma 90.000000
_cell_volume 5152.577063
_symmetry_space_group_name_H-M "F D D D"
_symmetry_group_IT_number 70
_space_group.IT_coordinate_system_code '2'
_symmetry_cell_setting 'orthorhombic'
loop_
_space_group_symop_operation_xyz
x,y,z
1/4-x,1/4-y,z
x,1/4-y,1/4-z
1/4-x,y,1/4-z
-x,-y,-z
3/4+x,3/4+y,-z
-x,3/4+y,3/4+z
3/4+x,-y,3/4+z
x,1/2+y,1/2+z
1/4-x,3/4-y,1/2+z
x,3/4-y,3/4-z
1/4-x,1/2+y,3/4-z
-x,1/2-y,1/2-z
3/4+x,1/4+y,1/2-z
-x,1/4+y,1/4+z
3/4+x,1/2-y,1/4+z
1/2+x,y,1/2+z
3/4-x,1/4-y,1/2+z
1/2+x,1/4-y,3/4-z
3/4-x,y,3/4-z
1/2-x,-y,1/2-z
1/4+x,3/4+y,1/2-z
1/2-x,3/4+y,1/4+z
1/4+x,-y,1/4+z
1/2+x,1/2+y,z
3/4-x,3/4-y,z
1/2+x,3/4-y,1/4-z
3/4-x,1/2+y,1/4-z
1/2-x,1/2-y,-z
1/4+x,1/4+y,-z
1/2-x,1/4+y,3/4+z
1/4+x,1/2-y,3/4+z
loop_
_atom_site_type_symbol
_atom_site_label
_atom_site_fract_x
_atom_site_fract_y
_atom_site_fract_z
Si Si1 0.093001 0.283663 0.965171
Si Si2 0.625000 0.625000 0.292553
Si Si3 0.108467 0.429938 0.247423
Si Si4 0.213719 0.694678 0.292286
Si Si5 0.625000 0.125000 0.125000
O O1 0.104936 0.202450 0.004678
O O2 0.093344 0.287431 0.834599
O O3 0.032467 0.316235 0.014685
O O4 0.142984 0.343337 0.992793
O O5 0.683922 0.597784 0.359487
O O6 0.125000 0.444709 0.125000
O O7 0.048594 0.469320 0.288488
O O8 0.169839 0.669257 0.198431
#
# Coordination Sequence:
#
# PCOD9514055 Si02
#       5
#    32  16  32  32   8
#     4  10  22  40  61  88 125 162 198 255 307 352
#     4   9  22  39  59  90 123 156 214 244 291 384
#     4  10  21  38  59  90 125 153 204 249 306 370
#     4  10  20  33  60  89 122 155 190 251 318 348
#     4  10  16  28  48  96 118 138 186 238 300 390
#
# _framework density 23.289317
#
# number of rings (size 3 to 8) (size 9 to 14) (size 15 to 20)
#    0.000    2.133    1.333    1.600    3.733    1.067 
#    0.000    2.000   11.733    0.000    0.000    0.000 
#    0.000    0.000    0.000    0.000    0.000    0.000 
#
# Total GULP energy -167086.324327 kJ/mol
# GULP energy per Si atom -5569.544144 kJ/mol
# Density = 2.323631 g / cm^3
# Si number density = 23.289317 Si / 1000 Ang^3
#
#
#
# Elastic Constant Matrix: (Units=GPa)
#
#
# Indices 1 2 3 4 5 6 
#
# 1 49.3407 7.5571 15.8664 0.0000 0.0000 0.0000
# 2 7.5571 160.0013 -0.0427 0.0000 0.0000 0.0000
# 3 15.8664 -0.0427 81.7395 0.0000 0.0000 0.0000
# 4 0.0000 0.0000 0.0000 16.5269 0.0000 0.0000
# 5 0.0000 0.0000 0.0000 0.0000 -24.4627 0.0000
# 6 0.0000 0.0000 0.0000 0.0000 0.0000 19.1791
#
#
#
# Elastic Compliance Matrix: (Units=1/GPa)
#
#
# Indices 1 2 3 4 5 6 
#
# 1 0.021785 -0.001030 -0.004229 0.000000 0.000000 0.000000
# 2 -0.001030 0.006299 0.000203 0.000000 0.000000 0.000000
# 3 -0.004229 0.000203 0.013055 0.000000 0.000000 0.000000
# 4 0.000000 0.000000 0.000000 0.060508 0.000000 0.000000
# 5 0.000000 0.000000 0.000000 0.000000 -0.040879 0.000000
# 6 0.000000 0.000000 0.000000 0.000000 0.000000 0.052140
#
#
# Mechanical properties :
#
#
# Convention : Reuss Voigt Hill
#
# Bulk Modulus (GPa) = 32.23042 37.53812 34.88427
# Shear Modulus (GPa) = 37.49195 20.09537 28.79366
#
# Velocity S-wave (km/s) = 4.01663 2.94063 3.51999
# Velocity P-wave (km/s) = 5.94813 5.26146 5.61530
#
# Compressibility (1/GPa) = 0.03102659
#
# Stress axis : x y z
#
# Youngs Moduli (GPa) = 45.90320 158.76404 76.59889
#
# Poissons Ratio (x) = 0.16354 0.32395
# Poissons Ratio (y) = 0.04728 -0.01557
# Poissons Ratio (z) = 0.19413 -0.03227
#
# Static dielectric constant tensor:
#      x y z
#    x 1.825700 0.000000 0.000000 
#    y 0.000000 2.135680 0.000000 
#    z 0.000000 0.000000 1.986890 
# 
# From -- ./inp_files/27248.got.cif
#   From: 2010.05.17/outbox.cif.g08.bks.cpg/sg70_14_cif.got.tgz:27248.got - 2010.06.03 15:57:51.
