data_PCOD9514899
_publ_section_title
;
Structure prediction by ZEFSAII (Michael W. Deem and Ramdas Pophale) SiO2 
 PCOD9514899
Probable space group: F D D D
;
_chemical_formula_sum "Si O2"
_cell_formula_units_Z 240
_cell_length_a 28.792257
_cell_length_b 19.950975
_cell_length_c 21.510557
_cell_angle_alpha 90.000000
_cell_angle_beta 90.000000
_cell_angle_gamma 90.000000
_cell_volume 12356.386687
_symmetry_space_group_name_H-M "F D D D"
_symmetry_group_IT_number 70
_space_group.IT_coordinate_system_code '2'
_symmetry_cell_setting 'orthorhombic'
loop_
_space_group_symop_operation_xyz
x,y,z
1/4-x,1/4-y,z
x,1/4-y,1/4-z
1/4-x,y,1/4-z
-x,-y,-z
3/4+x,3/4+y,-z
-x,3/4+y,3/4+z
3/4+x,-y,3/4+z
x,1/2+y,1/2+z
1/4-x,3/4-y,1/2+z
x,3/4-y,3/4-z
1/4-x,1/2+y,3/4-z
-x,1/2-y,1/2-z
3/4+x,1/4+y,1/2-z
-x,1/4+y,1/4+z
3/4+x,1/2-y,1/4+z
1/2+x,y,1/2+z
3/4-x,1/4-y,1/2+z
1/2+x,1/4-y,3/4-z
3/4-x,y,3/4-z
1/2-x,-y,1/2-z
1/4+x,3/4+y,1/2-z
1/2-x,3/4+y,1/4+z
1/4+x,-y,1/4+z
1/2+x,1/2+y,z
3/4-x,3/4-y,z
1/2+x,3/4-y,1/4-z
3/4-x,1/2+y,1/4-z
1/2-x,1/2-y,-z
1/4+x,1/4+y,-z
1/2-x,1/4+y,3/4+z
1/4+x,1/2-y,3/4+z
loop_
_atom_site_type_symbol
_atom_site_label
_atom_site_fract_x
_atom_site_fract_y
_atom_site_fract_z
Si Si1 0.428314 0.396899 0.440002
Si Si2 0.257790 0.402995 0.544460
Si Si3 0.572792 0.111570 0.414273
Si Si4 0.481399 0.451927 0.759367
Si Si5 0.927193 0.056130 0.440621
Si Si6 0.922457 0.649822 0.453664
Si Si7 0.758974 0.125000 0.625000
Si Si8 0.049301 0.975657 0.973163
O O1 0.450568 0.375000 0.375000
O O2 0.375000 0.375000 0.439069
O O3 0.451912 0.357551 0.495137
O O4 0.431432 0.476644 0.443600
O O5 0.283480 0.400553 0.611331
O O6 0.230149 0.470977 0.529353
O O7 0.222337 0.342288 0.533726
O O8 0.625000 0.125000 0.390009
O O9 0.553398 0.171694 0.458038
O O10 0.575428 0.043070 0.454113
O O11 0.533979 0.437409 0.734912
O O12 0.478053 0.409371 0.822402
O O13 0.925347 0.083789 0.369524
O O14 0.878636 0.075676 0.472802
O O15 0.928195 0.572847 0.475151
O O16 0.789746 0.070065 0.661935
O O17 0.000000 0.000000 0.000000
#
# Coordination Sequence:
#
# PCOD9514899 Si02
#       8
#    32  32  32  32  32  32  16  32
#     4  11  23  42  69  94 125 167 217 272 322 392
#     4  12  24  42  67  94 133 173 209 268 333 389
#     4  12  26  42  65  98 139 170 218 267 328 393
#     4  11  22  41  65  94 126 178 216 264 322 386
#     4  11  22  40  64  98 120 168 218 266 322 383
#     4  10  21  38  66  90 125 163 222 263 314 383
#     4  10  20  36  69  86 118 170 226 248 311 384
#     4  11  20  41  63  93 127 173 210 267 319 386
#
# _framework density 19.423154
#
# number of rings (size 3 to 8) (size 9 to 14) (size 15 to 20)
#    0.000    0.933    5.333    4.000    1.867    0.000 
#    0.000    0.333    5.867    0.000    0.000    0.000 
#    0.000    0.000    0.000    0.000    0.000    0.000 
#
# Total GULP energy -334878.845491 kJ/mol
# GULP energy per Si atom -5581.314092 kJ/mol
# Density = 1.937895 g / cm^3
# Si number density = 19.423154 Si / 1000 Ang^3
#
#
#
# Elastic Constant Matrix: (Units=GPa)
#
#
# Indices 1 2 3 4 5 6 
#
# 1 56.4140 18.0938 -2.7408 0.0000 0.0000 0.0000
# 2 18.0938 132.4971 12.9234 0.0000 0.0000 0.0000
# 3 -2.7408 12.9234 66.0813 0.0000 0.0000 0.0000
# 4 0.0000 0.0000 0.0000 28.4107 0.0000 0.0000
# 5 0.0000 0.0000 0.0000 0.0000 12.3322 0.0000
# 6 0.0000 0.0000 0.0000 0.0000 0.0000 5.6451
#
#
#
# Elastic Compliance Matrix: (Units=1/GPa)
#
#
# Indices 1 2 3 4 5 6 
#
# 1 0.018646 -0.002673 0.001296 0.000000 0.000000 0.000000
# 2 -0.002673 0.008077 -0.001691 0.000000 0.000000 0.000000
# 3 0.001296 -0.001691 0.015517 0.000000 0.000000 0.000000
# 4 0.000000 0.000000 0.000000 0.035198 0.000000 0.000000
# 5 0.000000 0.000000 0.000000 0.000000 0.081089 0.000000
# 6 0.000000 0.000000 0.000000 0.000000 0.000000 0.177145
#
#
# Mechanical properties :
#
#
# Convention : Reuss Voigt Hill
#
# Bulk Modulus (GPa) = 27.69593 34.61614 31.15603
# Shear Modulus (GPa) = 14.13058 24.39199 19.26129
#
# Velocity S-wave (km/s) = 2.70017 3.54760 3.15249
# Velocity P-wave (km/s) = 4.90014 5.88570 5.41539
#
# Compressibility (1/GPa) = 0.03610639
#
# Stress axis : x y z
#
# Youngs Moduli (GPa) = 53.62996 123.80509 64.44447
#
# Poissons Ratio (x) = 0.33090 -0.08352
# Poissons Ratio (y) = 0.14334 0.10894
# Poissons Ratio (z) = -0.06951 0.20929
#
# Static dielectric constant tensor:
#      x y z
#    x 1.638150 0.000000 0.000000 
#    y 0.000000 1.698140 0.000000 
#    z 0.000000 0.000000 1.743940 
# 
# From -- ./inp_files/47114.got.cif
#   From: 2010.05.17/outbox.cif.g08.bks.cpg/sg70_24_cif.got.tgz:47114.got - 2010.06.03 15:57:51.
