data_PCOD9514262
_publ_section_title
;
Structure prediction by ZEFSAII (Michael W. Deem and Ramdas Pophale) SiO2 
 PCOD9514262
Probable space group: F D D D
;
_chemical_formula_sum "Si O2"
_cell_formula_units_Z 208
_cell_length_a 30.793373
_cell_length_b 21.446438
_cell_length_c 17.676947
_cell_angle_alpha 90.000000
_cell_angle_beta 90.000000
_cell_angle_gamma 90.000000
_cell_volume 11674.000129
_symmetry_space_group_name_H-M "F D D D"
_symmetry_group_IT_number 70
_space_group.IT_coordinate_system_code '2'
_symmetry_cell_setting 'orthorhombic'
loop_
_space_group_symop_operation_xyz
x,y,z
1/4-x,1/4-y,z
x,1/4-y,1/4-z
1/4-x,y,1/4-z
-x,-y,-z
3/4+x,3/4+y,-z
-x,3/4+y,3/4+z
3/4+x,-y,3/4+z
x,1/2+y,1/2+z
1/4-x,3/4-y,1/2+z
x,3/4-y,3/4-z
1/4-x,1/2+y,3/4-z
-x,1/2-y,1/2-z
3/4+x,1/4+y,1/2-z
-x,1/4+y,1/4+z
3/4+x,1/2-y,1/4+z
1/2+x,y,1/2+z
3/4-x,1/4-y,1/2+z
1/2+x,1/4-y,3/4-z
3/4-x,y,3/4-z
1/2-x,-y,1/2-z
1/4+x,3/4+y,1/2-z
1/2-x,3/4+y,1/4+z
1/4+x,-y,1/4+z
1/2+x,1/2+y,z
3/4-x,3/4-y,z
1/2+x,3/4-y,1/4-z
3/4-x,1/2+y,1/4-z
1/2-x,1/2-y,-z
1/4+x,1/4+y,-z
1/2-x,1/4+y,3/4+z
1/4+x,1/2-y,3/4+z
loop_
_atom_site_type_symbol
_atom_site_label
_atom_site_fract_x
_atom_site_fract_y
_atom_site_fract_z
Si Si1 0.092057 0.220285 0.278557
Si Si2 0.939886 0.635801 0.712175
Si Si3 0.150038 0.415671 0.297065
Si Si4 0.552281 0.438340 0.213205
Si Si5 0.512380 0.607305 0.908285
Si Si6 0.125000 0.016529 0.125000
Si Si7 0.566434 0.228707 0.393451
O O1 0.081563 0.294813 0.280365
O O2 0.050838 0.185592 0.310789
O O3 0.101196 0.198667 0.192876
O O4 0.136302 0.208644 0.324341
O O5 0.954673 0.625000 0.625000
O O6 0.900547 0.586857 0.726127
O O7 0.977678 0.631450 0.774085
O O8 0.150194 0.375000 0.375000
O O9 0.178041 0.378080 0.236921
O O10 0.171662 0.480355 0.320337
O O11 0.511381 0.427608 0.160245
O O12 0.588856 0.474416 0.165582
O O13 0.546272 0.477690 0.290077
O O14 0.534607 0.671326 0.882005
#
# Coordination Sequence:
#
# PCOD9514262 Si02
#       7
#    32  32  32  32  32  16  32
#     4  11  21  38  55  78 118 156 184 226 284 348
#     4  11  20  35  61  80 105 154 196 226 270 341
#     4   9  16  37  61  76 101 153 194 220 274 346
#     4  10  19  35  57  80 109 143 187 239 273 331
#     4  12  25  33  54  92 119 137 190 247 287 324
#     4  10  18  34  59  76 108 150 191 220 272 340
#     4  10  22  38  56  80 112 155 187 231 289 340
#
# _framework density 17.817371000000001
#
# number of rings (size 3 to 8) (size 9 to 14) (size 15 to 20)
#    0.000    1.538    7.692    0.923    2.154    1.846 
#    0.000    3.077    0.000    0.000    0.000    0.000 
#    0.000    8.615    0.000    0.000    0.000    0.000 
#
# Total GULP energy -290135.249077 kJ/mol
# GULP energy per Si atom -5579.524021 kJ/mol
# Density = 1.777682 g / cm^3
# Si number density = 17.817371 Si / 1000 Ang^3
#
#
#
# Elastic Constant Matrix: (Units=GPa)
#
#
# Indices 1 2 3 4 5 6 
#
# 1 107.7541 36.8424 37.0391 0.0000 0.0000 0.0000
# 2 36.8424 53.0720 7.4313 0.0000 0.0000 0.0000
# 3 37.0391 7.4313 51.0185 0.0000 0.0000 0.0000
# 4 0.0000 0.0000 0.0000 7.9158 0.0000 0.0000
# 5 0.0000 0.0000 0.0000 0.0000 34.9491 0.0000
# 6 0.0000 0.0000 0.0000 0.0000 0.0000 12.7372
#
#
#
# Elastic Compliance Matrix: (Units=1/GPa)
#
#
# Indices 1 2 3 4 5 6 
#
# 1 0.016170 -0.009781 -0.010315 0.000000 0.000000 0.000000
# 2 -0.009781 0.025151 0.003437 0.000000 0.000000 0.000000
# 3 -0.010315 0.003437 0.026588 0.000000 0.000000 0.000000
# 4 0.000000 0.000000 0.000000 0.126329 0.000000 0.000000
# 5 0.000000 0.000000 0.000000 0.000000 0.028613 0.000000
# 6 0.000000 0.000000 0.000000 0.000000 0.000000 0.078510
#
#
# Mechanical properties :
#
#
# Convention : Reuss Voigt Hill
#
# Bulk Modulus (GPa) = 28.90757 41.60782 35.25769
# Shear Modulus (GPa) = 14.44211 19.82255 17.13233
#
# Velocity S-wave (km/s) = 2.85013 3.33910 3.10425
# Velocity P-wave (km/s) = 5.20486 6.18621 5.71663
#
# Compressibility (1/GPa) = 0.03459302
#
# Stress axis : x y z
#
# Youngs Moduli (GPa) = 61.84210 39.75993 37.61027
#
# Poissons Ratio (x) = 0.38889 0.38794
# Poissons Ratio (y) = 0.60488 -0.12928
# Poissons Ratio (z) = 0.63789 -0.13667
#
# Static dielectric constant tensor:
#      x y z
#    x 1.601120 0.000000 0.000000 
#    y 0.000000 1.634540 0.000000 
#    z 0.000000 0.000000 1.616270 
# 
# From -- ./inp_files/39928.got.cif
#   From: 2010.05.17/outbox.cif.g08.bks.cpg/sg70_20_cif.got.tgz:39928.got - 2010.06.03 15:57:51.
