data_PCOD9514708
_publ_section_title
;
Structure prediction by ZEFSAII (Michael W. Deem and Ramdas Pophale) SiO2 
 PCOD9514708
Probable space group: F D D D
;
_chemical_formula_sum "Si O2"
_cell_formula_units_Z 176
_cell_length_a 25.438245
_cell_length_b 12.301970
_cell_length_c 28.434452
_cell_angle_alpha 90.000000
_cell_angle_beta 90.000000
_cell_angle_gamma 90.000000
_cell_volume 8898.292389
_symmetry_space_group_name_H-M "F D D D"
_symmetry_group_IT_number 70
_space_group.IT_coordinate_system_code '2'
_symmetry_cell_setting 'orthorhombic'
loop_
_space_group_symop_operation_xyz
x,y,z
1/4-x,1/4-y,z
x,1/4-y,1/4-z
1/4-x,y,1/4-z
-x,-y,-z
3/4+x,3/4+y,-z
-x,3/4+y,3/4+z
3/4+x,-y,3/4+z
x,1/2+y,1/2+z
1/4-x,3/4-y,1/2+z
x,3/4-y,3/4-z
1/4-x,1/2+y,3/4-z
-x,1/2-y,1/2-z
3/4+x,1/4+y,1/2-z
-x,1/4+y,1/4+z
3/4+x,1/2-y,1/4+z
1/2+x,y,1/2+z
3/4-x,1/4-y,1/2+z
1/2+x,1/4-y,3/4-z
3/4-x,y,3/4-z
1/2-x,-y,1/2-z
1/4+x,3/4+y,1/2-z
1/2-x,3/4+y,1/4+z
1/4+x,-y,1/4+z
1/2+x,1/2+y,z
3/4-x,3/4-y,z
1/2+x,3/4-y,1/4-z
3/4-x,1/2+y,1/4-z
1/2-x,1/2-y,-z
1/4+x,1/4+y,-z
1/2-x,1/4+y,3/4+z
1/4+x,1/2-y,3/4+z
loop_
_atom_site_type_symbol
_atom_site_label
_atom_site_fract_x
_atom_site_fract_y
_atom_site_fract_z
Si Si1 0.615984 0.850708 0.302265
Si Si2 0.625000 0.625000 0.732966
Si Si3 0.727367 0.875000 0.875000
Si Si4 0.625000 0.125000 0.849917
Si Si5 0.806692 0.806656 0.567226
Si Si6 0.393770 0.144399 0.444436
Si Si7 0.959630 0.653869 0.891903
O O1 0.562933 0.871601 0.331266
O O2 0.632436 0.731530 0.319114
O O3 0.602002 0.852897 0.247566
O O4 0.661278 0.941426 0.314583
O O5 0.575768 0.635299 0.769306
O O6 0.620517 0.520125 0.701299
O O7 0.762995 0.769644 0.866171
O O8 0.577876 0.122932 0.887461
O O9 0.745121 0.818790 0.577602
O O10 0.344696 0.084914 0.420248
O O11 0.443435 0.136889 0.410048
#
# Coordination Sequence:
#
# PCOD9514708 Si02
#       7
#    32  16  16  16  32  32  32
#     4  11  22  41  67  94 131 159 213 273 312 371
#     4   9  20  43  68  85 130 161 206 279 317 356
#     4  12  22  43  66  90 130 171 202 274 320 364
#     4  11  18  38  64  98 120 160 206 268 303 382
#     4  10  19  41  66  91 123 165 202 262 330 357
#     4  10  25  44  60  93 131 172 210 260 311 383
#     4  11  24  42  64  89 132 173 211 251 325 381
#
# _framework density 19.779076
#
# number of rings (size 3 to 8) (size 9 to 14) (size 15 to 20)
#    0.000    1.455    3.636    2.182    0.000    8.000 
#   13.091    0.000    0.000    0.000    0.000    0.000 
#    0.000    0.000    0.000    0.000    0.000    0.000 
#
# Total GULP energy -245276.831546 kJ/mol
# GULP energy per Si atom -5574.473444 kJ/mol
# Density = 1.973406 g / cm^3
# Si number density = 19.779076 Si / 1000 Ang^3
#
#
#
# Elastic Constant Matrix: (Units=GPa)
#
#
# Indices 1 2 3 4 5 6 
#
# 1 93.8840 44.2316 41.8296 0.0000 0.0000 0.0000
# 2 44.2316 116.7641 41.0145 0.0000 0.0000 0.0000
# 3 41.8296 41.0145 122.0616 0.0000 0.0000 0.0000
# 4 0.0000 0.0000 0.0000 21.8480 0.0000 0.0000
# 5 0.0000 0.0000 0.0000 0.0000 8.7151 0.0000
# 6 0.0000 0.0000 0.0000 0.0000 0.0000 11.6461
#
#
#
# Elastic Compliance Matrix: (Units=1/GPa)
#
#
# Indices 1 2 3 4 5 6 
#
# 1 0.014143 -0.004144 -0.003454 0.000000 0.000000 0.000000
# 2 -0.004144 0.010925 -0.002251 0.000000 0.000000 0.000000
# 3 -0.003454 -0.002251 0.010133 0.000000 0.000000 0.000000
# 4 0.000000 0.000000 0.000000 0.045771 0.000000 0.000000
# 5 0.000000 0.000000 0.000000 0.000000 0.114744 0.000000
# 6 0.000000 0.000000 0.000000 0.000000 0.000000 0.085866
#
#
# Mechanical properties :
#
#
# Convention : Reuss Voigt Hill
#
# Bulk Modulus (GPa) = 64.50736 65.20681 64.85709
# Shear Modulus (GPa) = 16.31611 22.15077 19.23344
#
# Velocity S-wave (km/s) = 2.87525 3.35014 3.12174
# Velocity P-wave (km/s) = 6.61117 6.92847 6.77168
#
# Compressibility (1/GPa) = 0.01550211
#
# Stress axis : x y z
#
# Youngs Moduli (GPa) = 70.70702 91.53555 98.69172
#
# Poissons Ratio (x) = 0.37934 0.34090
# Poissons Ratio (y) = 0.29302 0.22212
# Poissons Ratio (z) = 0.24423 0.20602
#
# Static dielectric constant tensor:
#      x y z
#    x 1.828070 0.000000 0.000000 
#    y 0.000000 1.728540 0.000000 
#    z 0.000000 0.000000 1.686110 
# 
# From -- ./inp_files/68376.got.cif
#   From: 2010.05.17/outbox.cif.g08.bks.cpg/sg70_35_cif.got.tgz:68376.got - 2010.06.03 15:57:51.
