data_PCOD9514416
_publ_section_title
;
Structure prediction by ZEFSAII (Michael W. Deem and Ramdas Pophale) SiO2 
 PCOD9514416
Probable space group: F D D D
;
_chemical_formula_sum "Si O2"
_cell_formula_units_Z 216
_cell_length_a 14.545676
_cell_length_b 28.884020
_cell_length_c 22.461117
_cell_angle_alpha 90.000000
_cell_angle_beta 90.000000
_cell_angle_gamma 90.000000
_cell_volume 9436.759711
_symmetry_space_group_name_H-M "F D D D"
_symmetry_group_IT_number 70
_space_group.IT_coordinate_system_code '2'
_symmetry_cell_setting 'orthorhombic'
loop_
_space_group_symop_operation_xyz
x,y,z
1/4-x,1/4-y,z
x,1/4-y,1/4-z
1/4-x,y,1/4-z
-x,-y,-z
3/4+x,3/4+y,-z
-x,3/4+y,3/4+z
3/4+x,-y,3/4+z
x,1/2+y,1/2+z
1/4-x,3/4-y,1/2+z
x,3/4-y,3/4-z
1/4-x,1/2+y,3/4-z
-x,1/2-y,1/2-z
3/4+x,1/4+y,1/2-z
-x,1/4+y,1/4+z
3/4+x,1/2-y,1/4+z
1/2+x,y,1/2+z
3/4-x,1/4-y,1/2+z
1/2+x,1/4-y,3/4-z
3/4-x,y,3/4-z
1/2-x,-y,1/2-z
1/4+x,3/4+y,1/2-z
1/2-x,3/4+y,1/4+z
1/4+x,-y,1/4+z
1/2+x,1/2+y,z
3/4-x,3/4-y,z
1/2+x,3/4-y,1/4-z
3/4-x,1/2+y,1/4-z
1/2-x,1/2-y,-z
1/4+x,1/4+y,-z
1/2-x,1/4+y,3/4+z
1/4+x,1/2-y,3/4+z
loop_
_atom_site_type_symbol
_atom_site_label
_atom_site_fract_x
_atom_site_fract_y
_atom_site_fract_z
Si Si1 0.262446 0.089291 0.075381
Si Si2 0.939944 0.133520 0.750072
Si Si3 0.547514 0.551562 0.298389
Si Si4 0.463714 0.789571 0.988331
Si Si5 0.525730 0.207914 0.188110
Si Si6 0.651934 0.506890 0.388313
Si Si7 0.125000 0.625000 0.125000
Si Si8 0.375000 0.155174 0.375000
O O1 0.228116 0.125000 0.125000
O O2 0.288870 0.040979 0.109479
O O3 0.355297 0.110824 0.045642
O O4 0.204863 0.078512 0.014815
O O5 0.912814 0.126384 0.818641
O O6 0.004744 0.091699 0.729164
O O7 0.984915 0.184885 0.747888
O O8 0.537649 0.498027 0.278328
O O9 0.639916 0.545024 0.336561
O O10 0.462306 0.568638 0.341352
O O11 0.439096 0.785008 0.056343
O O12 0.374068 0.771676 0.952989
O O13 0.450222 0.237866 0.155660
O O14 0.554609 0.161873 0.153424
#
# Coordination Sequence:
#
# PCOD9514416 Si02
#       8
#    32  32  32  32  32  32   8  16
#     4   9  19  32  49  73 103 140 175 210 250 310
#     4  10  20  32  50  69 105 138 182 210 257 299
#     4  10  19  31  48  72 104 135 171 207 260 301
#     4  11  19  32  46  74 102 140 174 215 250 306
#     4  11  20  29  43  72 109 147 172 197 242 316
#     4  10  20  29  49  70 107 142 171 214 254 302
#     4  12  20  26  44  72 108 148 176 186 234 320
#     4  10  20  35  48  72  99 144 173 220 258 312
#
# _framework density 22.889213999999999
#
# number of rings (size 3 to 8) (size 9 to 14) (size 15 to 20)
#    0.000    1.778    1.481    4.889    4.148    0.000 
#    0.000    0.000    0.000    0.000    0.000   30.074 
#    0.000    1.185    0.000    0.000    0.000    0.000 
#
# Total GULP energy -300728.844267 kJ/mol
# GULP energy per Si atom -5569.052672 kJ/mol
# Density = 2.283712 g / cm^3
# Si number density = 22.889214 Si / 1000 Ang^3
#
#
#
# Elastic Constant Matrix: (Units=GPa)
#
#
# Indices 1 2 3 4 5 6 
#
# 1 18.5553 10.4296 12.2307 0.0000 0.0000 0.0000
# 2 10.4296 75.8978 31.9600 0.0000 0.0000 0.0000
# 3 12.2307 31.9600 126.8200 0.0000 0.0000 0.0000
# 4 0.0000 0.0000 0.0000 84.2199 0.0000 0.0000
# 5 0.0000 0.0000 0.0000 0.0000 15.7541 0.0000
# 6 0.0000 0.0000 0.0000 0.0000 0.0000 -9.5136
#
#
#
# Elastic Compliance Matrix: (Units=1/GPa)
#
#
# Indices 1 2 3 4 5 6 
#
# 1 0.060313 -0.006532 -0.004171 0.000000 0.000000 0.000000
# 2 -0.006532 0.015447 -0.003263 0.000000 0.000000 0.000000
# 3 -0.004171 -0.003263 0.009110 0.000000 0.000000 0.000000
# 4 0.000000 0.000000 0.000000 0.011874 0.000000 0.000000
# 5 0.000000 0.000000 0.000000 0.000000 0.063476 0.000000
# 6 0.000000 0.000000 0.000000 0.000000 0.000000 -0.105112
#
#
# Mechanical properties :
#
#
# Convention : Reuss Voigt Hill
#
# Bulk Modulus (GPa) = 17.56248 36.72373 27.14310
# Shear Modulus (GPa) = 49.01110 29.20225 39.10668
#
# Velocity S-wave (km/s) = 4.63236 3.57572 4.13791
# Velocity P-wave (km/s) = 6.02505 5.75558 5.89185
#
# Compressibility (1/GPa) = 0.05693955
#
# Stress axis : x y z
#
# Youngs Moduli (GPa) = 16.58008 64.73672 109.77307
#
# Poissons Ratio (x) = 0.42285 0.45782
# Poissons Ratio (y) = 0.10830 0.35818
# Poissons Ratio (z) = 0.06915 0.21123
#
# Static dielectric constant tensor:
#      x y z
#    x 1.892570 0.000000 0.000000 
#    y 0.000000 1.821970 0.000000 
#    z 0.000000 0.000000 2.017290 
# 
# From -- ./inp_files/51611.got.cif
#   From: 2010.05.17/outbox.cif.g08.bks.cpg/sg70_26_cif.got.tgz:51611.got - 2010.06.03 15:57:51.
