data_PCOD9514758
_publ_section_title
;
Structure prediction by ZEFSAII (Michael W. Deem and Ramdas Pophale) SiO2 
 PCOD9514758
Probable space group: F D D D
;
_chemical_formula_sum "Si O2"
_cell_formula_units_Z 96
_cell_length_a 16.214864
_cell_length_b 9.084287
_cell_length_c 28.691355
_cell_angle_alpha 90.000000
_cell_angle_beta 90.000000
_cell_angle_gamma 90.000000
_cell_volume 4226.250313
_symmetry_space_group_name_H-M "F D D D"
_symmetry_group_IT_number 70
_space_group.IT_coordinate_system_code '2'
_symmetry_cell_setting 'orthorhombic'
loop_
_space_group_symop_operation_xyz
x,y,z
1/4-x,1/4-y,z
x,1/4-y,1/4-z
1/4-x,y,1/4-z
-x,-y,-z
3/4+x,3/4+y,-z
-x,3/4+y,3/4+z
3/4+x,-y,3/4+z
x,1/2+y,1/2+z
1/4-x,3/4-y,1/2+z
x,3/4-y,3/4-z
1/4-x,1/2+y,3/4-z
-x,1/2-y,1/2-z
3/4+x,1/4+y,1/2-z
-x,1/4+y,1/4+z
3/4+x,1/2-y,1/4+z
1/2+x,y,1/2+z
3/4-x,1/4-y,1/2+z
1/2+x,1/4-y,3/4-z
3/4-x,y,3/4-z
1/2-x,-y,1/2-z
1/4+x,3/4+y,1/2-z
1/2-x,3/4+y,1/4+z
1/4+x,-y,1/4+z
1/2+x,1/2+y,z
3/4-x,3/4-y,z
1/2+x,3/4-y,1/4-z
3/4-x,1/2+y,1/4-z
1/2-x,1/2-y,-z
1/4+x,1/4+y,-z
1/2-x,1/4+y,3/4+z
1/4+x,1/2-y,3/4+z
loop_
_atom_site_type_symbol
_atom_site_label
_atom_site_fract_x
_atom_site_fract_y
_atom_site_fract_z
Si Si1 0.375000 0.375000 0.795588
Si Si2 0.375000 0.875000 0.744229
Si Si3 0.125000 0.625000 0.862508
Si Si4 0.549018 0.826051 0.966605
Si Si5 0.244903 0.375000 0.875000
O O1 0.406630 0.501993 0.761295
O O2 0.300589 0.414826 0.830363
O O3 0.417597 0.742454 0.715875
O O4 0.451414 0.931413 0.775205
O O5 0.075725 0.513397 0.828616
O O6 0.190834 0.518290 0.886669
#
# Coordination Sequence:
#
# PCOD9514758 Si02
#       5
#    16  16  16  32  16
#     4  10  22  41  62  85 124 165 202 243 304 366
#     4  10  20  33  64  96 116 144 204 256 294 345
#     4  11  24  40  60  85 122 161 202 248 304 361
#     4  10  21  40  63  90 120 160 203 248 298 363
#     4  11  24  40  60  89 122 162 202 253 306 356
#
# _framework density 22.715171000000002
#
# number of rings (size 3 to 8) (size 9 to 14) (size 15 to 20)
#    0.000    1.667    0.000    4.000    0.000   13.333 
#    0.000    0.000    0.000    2.000    0.000    0.000 
#    0.000    0.000    0.000    0.000    0.000    0.000 
#
# Total GULP energy -134301.378470 kJ/mol
# GULP energy per Si atom -5595.890770 kJ/mol
# Density = 2.266347 g / cm^3
# Si number density = 22.715171 Si / 1000 Ang^3
#
#
#
# Elastic Constant Matrix: (Units=GPa)
#
#
# Indices 1 2 3 4 5 6 
#
# 1 158.2318 47.3873 32.2918 0.0000 0.0000 0.0000
# 2 47.3873 95.0990 -3.9525 0.0000 0.0000 0.0000
# 3 32.2918 -3.9525 55.7501 0.0000 0.0000 0.0000
# 4 0.0000 0.0000 0.0000 15.3577 0.0000 0.0000
# 5 0.0000 0.0000 0.0000 0.0000 -204.5301 0.0000
# 6 0.0000 0.0000 0.0000 0.0000 0.0000 42.7231
#
#
#
# Elastic Compliance Matrix: (Units=1/GPa)
#
#
# Indices 1 2 3 4 5 6 
#
# 1 0.008810 -0.004616 -0.005430 0.000000 0.000000 0.000000
# 2 -0.004616 0.012965 0.003593 0.000000 0.000000 0.000000
# 3 -0.005430 0.003593 0.021337 0.000000 0.000000 0.000000
# 4 0.000000 0.000000 0.000000 0.065114 0.000000 0.000000
# 5 0.000000 0.000000 0.000000 0.000000 -0.004889 0.000000
# 6 0.000000 0.000000 0.000000 0.000000 0.000000 0.023407
#
#
# Mechanical properties :
#
#
# Convention : Reuss Voigt Hill
#
# Bulk Modulus (GPa) = 33.10665 51.17047 42.13856
# Shear Modulus (GPa) = 33.39582 -13.73290 9.83146
#
# Velocity S-wave (km/s) = 3.83848 -2.46147 2.08268
# Velocity P-wave (km/s) = 5.85248 3.80756 4.93705
#
# Compressibility (1/GPa) = 0.03020541
#
# Stress axis : x y z
#
# Youngs Moduli (GPa) = 113.50140 77.13215 46.86613
#
# Poissons Ratio (x) = 0.35603 0.25451
# Poissons Ratio (y) = 0.52391 -0.16838
# Poissons Ratio (z) = 0.61637 -0.27712
#
# Static dielectric constant tensor:
#      x y z
#    x 1.830300 0.000000 0.000000 
#    y 0.000000 1.845910 0.000000 
#    z 0.000000 0.000000 1.859700 
# 
# From -- ./inp_files/14973.got.cif
#   From: 2010.05.17/outbox.cif.g08.bks.cpg/sg70_8_cif.got.tgz:14973.got - 2010.06.03 15:57:51.
