data_PCOD9514651
_publ_section_title
;
Structure prediction by ZEFSAII (Michael W. Deem and Ramdas Pophale) SiO2 
 PCOD9514651
Probable space group: F D D D
;
_chemical_formula_sum "Si O2"
_cell_formula_units_Z 112
_cell_length_a 7.921881
_cell_length_b 37.185807
_cell_length_c 14.389682
_cell_angle_alpha 90.000000
_cell_angle_beta 90.000000
_cell_angle_gamma 90.000000
_cell_volume 4238.934654
_symmetry_space_group_name_H-M "F D D D"
_symmetry_group_IT_number 70
_space_group.IT_coordinate_system_code '2'
_symmetry_cell_setting 'orthorhombic'
loop_
_space_group_symop_operation_xyz
x,y,z
1/4-x,1/4-y,z
x,1/4-y,1/4-z
1/4-x,y,1/4-z
-x,-y,-z
3/4+x,3/4+y,-z
-x,3/4+y,3/4+z
3/4+x,-y,3/4+z
x,1/2+y,1/2+z
1/4-x,3/4-y,1/2+z
x,3/4-y,3/4-z
1/4-x,1/2+y,3/4-z
-x,1/2-y,1/2-z
3/4+x,1/4+y,1/2-z
-x,1/4+y,1/4+z
3/4+x,1/2-y,1/4+z
1/2+x,y,1/2+z
3/4-x,1/4-y,1/2+z
1/2+x,1/4-y,3/4-z
3/4-x,y,3/4-z
1/2-x,-y,1/2-z
1/4+x,3/4+y,1/2-z
1/2-x,3/4+y,1/4+z
1/4+x,-y,1/4+z
1/2+x,1/2+y,z
3/4-x,3/4-y,z
1/2+x,3/4-y,1/4-z
3/4-x,1/2+y,1/4-z
1/2-x,1/2-y,-z
1/4+x,1/4+y,-z
1/2-x,1/4+y,3/4+z
1/4+x,1/2-y,3/4+z
loop_
_atom_site_type_symbol
_atom_site_label
_atom_site_fract_x
_atom_site_fract_y
_atom_site_fract_z
Si Si1 0.211486 0.304036 0.804427
Si Si2 0.568439 0.373301 0.487106
Si Si3 0.625000 0.812137 0.125000
Si Si4 0.363415 0.494340 0.082988
O O1 0.375000 0.307774 0.875000
O O2 0.172617 0.340416 0.750517
O O3 0.081939 0.282801 0.871350
O O4 0.218736 0.275247 0.721427
O O5 0.563720 0.375000 0.375000
O O6 0.375000 0.375000 0.520511
O O7 0.648256 0.338958 0.537585
O O8 0.785273 0.786077 0.141490
O O9 0.500000 0.500000 0.000000
#
# Coordination Sequence:
#
# PCOD9514651 Si02
#       4
#    32  32  16  32
#     4  10  21  41  75 105 138 193 241 302 370 446
#     4  11  27  46  68 103 155 191 244 313 375 433
#     4  12  24  42  74 106 145 192 250 299 366 448
#     4  10  19  38  73 105 138 180 245 297 358 444
#
# _framework density 26.421734000000001
#
# number of rings (size 3 to 8) (size 9 to 14) (size 15 to 20)
#    0.000    1.429    4.286    3.429    4.000    2.857 
#    0.000    1.429    6.286    0.000    0.000    0.000 
#    0.000    0.000    0.000    0.000    0.000    0.000 
#
# Total GULP energy -156240.650551 kJ/mol
# GULP energy per Si atom -5580.023234 kJ/mol
# Density = 2.636160 g / cm^3
# Si number density = 26.421734 Si / 1000 Ang^3
#
#
#
# Elastic Constant Matrix: (Units=GPa)
#
#
# Indices 1 2 3 4 5 6 
#
# 1 51.5133 14.6383 12.7164 0.0000 0.0000 0.0000
# 2 14.6383 163.3898 50.4137 0.0000 0.0000 0.0000
# 3 12.7164 50.4137 90.2299 0.0000 0.0000 0.0000
# 4 0.0000 0.0000 0.0000 71.2145 0.0000 0.0000
# 5 0.0000 0.0000 0.0000 0.0000 20.4880 0.0000
# 6 0.0000 0.0000 0.0000 0.0000 0.0000 26.1031
#
#
#
# Elastic Compliance Matrix: (Units=1/GPa)
#
#
# Indices 1 2 3 4 5 6 
#
# 1 0.020283 -0.001130 -0.002227 0.000000 0.000000 0.000000
# 2 -0.001130 0.007458 -0.004008 0.000000 0.000000 0.000000
# 3 -0.002227 -0.004008 0.013636 0.000000 0.000000 0.000000
# 4 0.000000 0.000000 0.000000 0.014042 0.000000 0.000000
# 5 0.000000 0.000000 0.000000 0.000000 0.048809 0.000000
# 6 0.000000 0.000000 0.000000 0.000000 0.000000 0.038310
#
#
# Mechanical properties :
#
#
# Convention : Reuss Voigt Hill
#
# Bulk Modulus (GPa) = 37.52708 51.18550 44.35629
# Shear Modulus (GPa) = 30.09311 38.71875 34.40593
#
# Velocity S-wave (km/s) = 3.37850 3.83222 3.61249
# Velocity P-wave (km/s) = 5.42706 6.24466 5.85016
#
# Compressibility (1/GPa) = 0.02664742
#
# Stress axis : x y z
#
# Youngs Moduli (GPa) = 49.30141 134.08097 73.33549
#
# Poissons Ratio (x) = 0.15151 0.16334
# Poissons Ratio (y) = 0.05571 0.29392
# Poissons Ratio (z) = 0.10981 0.53737
#
# Static dielectric constant tensor:
#      x y z
#    x 2.219760 0.000000 0.000000 
#    y 0.000000 2.182850 0.000000 
#    z 0.000000 0.000000 2.187790 
# 
# From -- ./inp_files/21748.got.cif
#   From: 2010.05.17/outbox.cif.g08.bks.cpg/sg70_11_cif.got.tgz:21748.got - 2010.06.03 15:57:51.
