data_PCOD9514356
_publ_section_title
;
Structure prediction by ZEFSAII (Michael W. Deem and Ramdas Pophale) SiO2 
 PCOD9514356
Probable space group: F D D D
;
_chemical_formula_sum "Si O2"
_cell_formula_units_Z 216
_cell_length_a 14.006193
_cell_length_b 29.964495
_cell_length_c 24.147320
_cell_angle_alpha 90.000000
_cell_angle_beta 90.000000
_cell_angle_gamma 90.000000
_cell_volume 10134.352513
_symmetry_space_group_name_H-M "F D D D"
_symmetry_group_IT_number 70
_space_group.IT_coordinate_system_code '2'
_symmetry_cell_setting 'orthorhombic'
loop_
_space_group_symop_operation_xyz
x,y,z
1/4-x,1/4-y,z
x,1/4-y,1/4-z
1/4-x,y,1/4-z
-x,-y,-z
3/4+x,3/4+y,-z
-x,3/4+y,3/4+z
3/4+x,-y,3/4+z
x,1/2+y,1/2+z
1/4-x,3/4-y,1/2+z
x,3/4-y,3/4-z
1/4-x,1/2+y,3/4-z
-x,1/2-y,1/2-z
3/4+x,1/4+y,1/2-z
-x,1/4+y,1/4+z
3/4+x,1/2-y,1/4+z
1/2+x,y,1/2+z
3/4-x,1/4-y,1/2+z
1/2+x,1/4-y,3/4-z
3/4-x,y,3/4-z
1/2-x,-y,1/2-z
1/4+x,3/4+y,1/2-z
1/2-x,3/4+y,1/4+z
1/4+x,-y,1/4+z
1/2+x,1/2+y,z
3/4-x,3/4-y,z
1/2+x,3/4-y,1/4-z
3/4-x,1/2+y,1/4-z
1/2-x,1/2-y,-z
1/4+x,1/4+y,-z
1/2-x,1/4+y,3/4+z
1/4+x,1/2-y,3/4+z
loop_
_atom_site_type_symbol
_atom_site_label
_atom_site_fract_x
_atom_site_fract_y
_atom_site_fract_z
Si Si1 0.858922 0.117950 0.741349
Si Si2 0.341208 0.480017 0.604711
Si Si3 0.516278 0.691393 0.041589
Si Si4 0.723338 0.033472 0.105500
Si Si5 0.797741 0.125000 0.125000
Si Si6 0.808660 0.333707 0.741926
Si Si7 0.875000 0.375000 0.375000
Si Si8 0.457169 0.294799 0.724475
O O1 0.819774 0.168119 0.742110
O O2 0.888888 0.111661 0.677179
O O3 0.772443 0.085807 0.756756
O O4 0.954892 0.104344 0.773380
O O5 0.273862 0.516823 0.575534
O O6 0.435979 0.504207 0.627852
O O7 0.356578 0.442190 0.558744
O O8 0.292772 0.459130 0.658648
O O9 0.560365 0.656415 0.085944
O O10 0.601369 0.701366 0.999365
O O11 0.625000 0.012000 0.125000
O O12 0.736993 0.080962 0.137381
O O13 0.711963 0.048540 0.041548
O O14 0.875000 0.375000 0.760022
O O15 0.500000 0.250000 0.750000
#
# Coordination Sequence:
#
# PCOD9514356 Si02
#       8
#    32  32  32  32  16  32   8  32
#     4  11  22  41  69  97 135 185 232 290 353 426
#     4  12  27  46  69 104 150 184 239 304 365 443
#     4  12  24  41  70 108 141 186 249 296 366 434
#     4  11  22  42  74 105 136 183 240 297 359 421
#     4  10  18  38  66 102 138 172 229 297 342 414
#     4  11  27  49  71 103 145 196 240 297 375 437
#     4  12  22  36  70 112 138 188 230 316 352 420
#     4  12  25  43  65 103 147 189 234 298 368 436
#
# _framework density 21.313645000000001
#
# number of rings (size 3 to 8) (size 9 to 14) (size 15 to 20)
#    0.000    0.593    2.963    6.889    2.074    3.556 
#    2.667    0.000    0.000    0.000    0.000    0.000 
#    0.000    0.000    0.000    0.000    0.000    0.000 
#
# Total GULP energy -302000.809288 kJ/mol
# GULP energy per Si atom -5592.607579 kJ/mol
# Density = 2.126513 g / cm^3
# Si number density = 21.313645 Si / 1000 Ang^3
#
#
#
# Elastic Constant Matrix: (Units=GPa)
#
#
# Indices 1 2 3 4 5 6 
#
# 1 99.1635 18.4059 26.2013 0.0000 0.0000 0.0000
# 2 18.4059 57.2163 44.5949 0.0000 0.0000 0.0000
# 3 26.2013 44.5949 110.0970 0.0000 0.0000 0.0000
# 4 0.0000 0.0000 0.0000 30.3539 0.0000 0.0000
# 5 0.0000 0.0000 0.0000 0.0000 15.0099 0.0000
# 6 0.0000 0.0000 0.0000 0.0000 0.0000 31.9629
#
#
#
# Elastic Compliance Matrix: (Units=1/GPa)
#
#
# Indices 1 2 3 4 5 6 
#
# 1 0.010944 -0.002178 -0.001722 0.000000 0.000000 0.000000
# 2 -0.002178 0.025974 -0.010003 0.000000 0.000000 0.000000
# 3 -0.001722 -0.010003 0.013544 0.000000 0.000000 0.000000
# 4 0.000000 0.000000 0.000000 0.032945 0.000000 0.000000
# 5 0.000000 0.000000 0.000000 0.000000 0.066623 0.000000
# 6 0.000000 0.000000 0.000000 0.000000 0.000000 0.031286
#
#
# Mechanical properties :
#
#
# Convention : Reuss Voigt Hill
#
# Bulk Modulus (GPa) = 44.13745 49.43122 46.78434
# Shear Modulus (GPa) = 23.07614 27.28363 25.17989
#
# Velocity S-wave (km/s) = 3.29400 3.58173 3.44088
# Velocity P-wave (km/s) = 5.93471 6.35199 6.14689
#
# Compressibility (1/GPa) = 0.02265649
#
# Stress axis : x y z
#
# Youngs Moduli (GPa) = 91.37694 38.49949 73.83179
#
# Poissons Ratio (x) = 0.08386 0.12715
# Poissons Ratio (y) = 0.19904 0.73851
# Poissons Ratio (z) = 0.15736 0.38509
#
# Static dielectric constant tensor:
#      x y z
#    x 1.822720 0.000000 0.000000 
#    y 0.000000 1.798400 0.000000 
#    z 0.000000 0.000000 1.740690 
# 
# From -- ./inp_files/51607.got.cif
#   From: 2010.05.17/outbox.cif.g08.bks.cpg/sg70_26_cif.got.tgz:51607.got - 2010.06.03 15:57:51.
