data_PCOD9514870
_publ_section_title
;
Structure prediction by ZEFSAII (Michael W. Deem and Ramdas Pophale) SiO2 
 PCOD9514870
Probable space group: F D D D
;
_chemical_formula_sum "Si O2"
_cell_formula_units_Z 152
_cell_length_a 25.592221
_cell_length_b 10.105569
_cell_length_c 28.038186
_cell_angle_alpha 90.000000
_cell_angle_beta 90.000000
_cell_angle_gamma 90.000000
_cell_volume 7251.346559
_symmetry_space_group_name_H-M "F D D D"
_symmetry_group_IT_number 70
_space_group.IT_coordinate_system_code '2'
_symmetry_cell_setting 'orthorhombic'
loop_
_space_group_symop_operation_xyz
x,y,z
1/4-x,1/4-y,z
x,1/4-y,1/4-z
1/4-x,y,1/4-z
-x,-y,-z
3/4+x,3/4+y,-z
-x,3/4+y,3/4+z
3/4+x,-y,3/4+z
x,1/2+y,1/2+z
1/4-x,3/4-y,1/2+z
x,3/4-y,3/4-z
1/4-x,1/2+y,3/4-z
-x,1/2-y,1/2-z
3/4+x,1/4+y,1/2-z
-x,1/4+y,1/4+z
3/4+x,1/2-y,1/4+z
1/2+x,y,1/2+z
3/4-x,1/4-y,1/2+z
1/2+x,1/4-y,3/4-z
3/4-x,y,3/4-z
1/2-x,-y,1/2-z
1/4+x,3/4+y,1/2-z
1/2-x,3/4+y,1/4+z
1/4+x,-y,1/4+z
1/2+x,1/2+y,z
3/4-x,3/4-y,z
1/2+x,3/4-y,1/4-z
3/4-x,1/2+y,1/4-z
1/2-x,1/2-y,-z
1/4+x,1/4+y,-z
1/2-x,1/4+y,3/4+z
1/4+x,1/2-y,3/4+z
loop_
_atom_site_type_symbol
_atom_site_label
_atom_site_fract_x
_atom_site_fract_y
_atom_site_fract_z
Si Si1 0.375000 0.875000 0.875000
Si Si2 0.958210 0.575032 0.859455
Si Si3 0.048708 0.875000 0.375000
Si Si4 0.626327 0.784834 0.956951
Si Si5 0.664192 0.505670 0.056604
Si Si6 0.505685 0.824679 0.319903
O O1 0.334896 0.783750 0.844978
O O2 0.929624 0.658840 0.900897
O O3 0.009364 0.499454 0.879088
O O4 0.979408 0.679656 0.821163
O O5 0.086132 0.850441 0.420062
O O6 0.625000 0.625000 0.951207
O O7 0.685402 0.826165 0.946844
O O8 0.610080 0.814171 0.011003
O O9 0.625000 0.625000 0.071123
O O10 0.717522 0.579139 0.041353
O O11 0.504583 0.875000 0.375000
#
# Coordination Sequence:
#
# PCOD9514870 Si02
#       6
#     8  32  16  32  32  32
#     4  10  20  36  62  88 120 172 194 254 314 388
#     4  10  21  39  62  90 125 161 210 250 320 377
#     4  11  22  39  66  88 123 170 203 254 310 382
#     4  11  22  39  63  92 123 161 212 253 310 365
#     4  10  23  39  62  94 125 158 208 270 305 359
#     4  10  20  39  66  91 120 165 212 257 307 370
#
# _framework density 20.961624
#
# number of rings (size 3 to 8) (size 9 to 14) (size 15 to 20)
#    0.000    1.684    3.158    1.263    0.000    7.158 
#    7.579    0.000    2.316    0.000    0.000    0.000 
#    0.000    0.000    0.000    0.000    0.000    0.000 
#
# Total GULP energy -212352.676006 kJ/mol
# GULP energy per Si atom -5588.228316 kJ/mol
# Density = 2.091391 g / cm^3
# Si number density = 20.961624 Si / 1000 Ang^3
#
#
#
# Elastic Constant Matrix: (Units=GPa)
#
#
# Indices 1 2 3 4 5 6 
#
# 1 190.2849 48.1158 44.6905 0.0000 0.0000 0.0000
# 2 48.1158 63.4986 15.2181 0.0000 0.0000 0.0000
# 3 44.6905 15.2181 78.8154 0.0000 0.0000 0.0000
# 4 0.0000 0.0000 0.0000 16.6576 0.0000 0.0000
# 5 0.0000 0.0000 0.0000 0.0000 31.4426 0.0000
# 6 0.0000 0.0000 0.0000 0.0000 0.0000 47.5235
#
#
#
# Elastic Compliance Matrix: (Units=1/GPa)
#
#
# Indices 1 2 3 4 5 6 
#
# 1 0.007184 -0.004684 -0.003169 0.000000 0.000000 0.000000
# 2 -0.004684 0.019567 -0.001122 0.000000 0.000000 0.000000
# 3 -0.003169 -0.001122 0.014701 0.000000 0.000000 0.000000
# 4 0.000000 0.000000 0.000000 0.060033 0.000000 0.000000
# 5 0.000000 0.000000 0.000000 0.000000 0.031804 0.000000
# 6 0.000000 0.000000 0.000000 0.000000 0.000000 0.021042
#
#
# Mechanical properties :
#
#
# Convention : Reuss Voigt Hill
#
# Bulk Modulus (GPa) = 42.55012 60.96084 51.75548
# Shear Modulus (GPa) = 27.75999 34.09638 30.92819
#
# Velocity S-wave (km/s) = 3.64308 4.03750 3.84535
# Velocity P-wave (km/s) = 6.16759 7.13305 6.66782
#
# Compressibility (1/GPa) = 0.02350169
#
# Stress axis : x y z
#
# Youngs Moduli (GPa) = 139.19786 51.10734 68.02033
#
# Poissons Ratio (x) = 0.23939 0.21556
# Poissons Ratio (y) = 0.65202 0.07632
# Poissons Ratio (z) = 0.44113 0.05734
#
# Static dielectric constant tensor:
#      x y z
#    x 1.747740 0.000000 0.000000 
#    y 0.000000 1.792500 0.000000 
#    z 0.000000 0.000000 1.744320 
# 
# From -- ./inp_files/67742.got.cif
#   From: 2010.05.17/outbox.cif.g08.bks.cpg/sg70_34_cif.got.tgz:67742.got - 2010.06.03 15:57:51.
