data_PCOD9514855
_publ_section_title
;
Structure prediction by ZEFSAII (Michael W. Deem and Ramdas Pophale) SiO2 
 PCOD9514855
Probable space group: F D D D
;
_chemical_formula_sum "Si O2"
_cell_formula_units_Z 152
_cell_length_a 13.369713
_cell_length_b 23.148855
_cell_length_c 19.044673
_cell_angle_alpha 90.000000
_cell_angle_beta 90.000000
_cell_angle_gamma 90.000000
_cell_volume 5894.203410
_symmetry_space_group_name_H-M "F D D D"
_symmetry_group_IT_number 70
_space_group.IT_coordinate_system_code '2'
_symmetry_cell_setting 'orthorhombic'
loop_
_space_group_symop_operation_xyz
x,y,z
1/4-x,1/4-y,z
x,1/4-y,1/4-z
1/4-x,y,1/4-z
-x,-y,-z
3/4+x,3/4+y,-z
-x,3/4+y,3/4+z
3/4+x,-y,3/4+z
x,1/2+y,1/2+z
1/4-x,3/4-y,1/2+z
x,3/4-y,3/4-z
1/4-x,1/2+y,3/4-z
-x,1/2-y,1/2-z
3/4+x,1/4+y,1/2-z
-x,1/4+y,1/4+z
3/4+x,1/2-y,1/4+z
1/2+x,y,1/2+z
3/4-x,1/4-y,1/2+z
1/2+x,1/4-y,3/4-z
3/4-x,y,3/4-z
1/2-x,-y,1/2-z
1/4+x,3/4+y,1/2-z
1/2-x,3/4+y,1/4+z
1/4+x,-y,1/4+z
1/2+x,1/2+y,z
3/4-x,3/4-y,z
1/2+x,3/4-y,1/4-z
3/4-x,1/2+y,1/4-z
1/2-x,1/2-y,-z
1/4+x,1/4+y,-z
1/2-x,1/4+y,3/4+z
1/4+x,1/2-y,3/4+z
loop_
_atom_site_type_symbol
_atom_site_label
_atom_site_fract_x
_atom_site_fract_y
_atom_site_fract_z
Si Si1 0.261701 0.952427 0.995343
Si Si2 0.395940 0.780141 0.187106
Si Si3 0.508417 0.877608 0.130651
Si Si4 0.055130 0.444254 0.316514
Si Si5 0.273727 0.125000 0.625000
Si Si6 0.625000 0.625000 0.125000
O O1 0.280673 0.922261 0.921443
O O2 0.156130 0.988509 0.994392
O O3 0.268360 0.906419 0.058279
O O4 0.330063 0.007888 0.008551
O O5 0.477405 0.831357 0.192042
O O6 0.305639 0.815543 0.148557
O O7 0.444586 0.732871 0.136598
O O8 0.625000 0.889036 0.125000
O O9 0.148533 0.402070 0.319452
O O10 0.950773 0.410213 0.324212
#
# Coordination Sequence:
#
# PCOD9514855 Si02
#       6
#    32  32  32  32  16   8
#     4  10  21  38  66  88 133 170 215 273 330 378
#     4   9  21  41  61  94 134 166 215 276 331 377
#     4  10  22  39  66  96 130 176 227 265 334 407
#     4   9  20  38  61  93 132 166 210 274 328 383
#     4   9  20  41  60  95 129 166 217 270 327 389
#     4  10  20  36  60 100 124 164 226 256 342 406
#
# _framework density 25.788049000000001
#
# number of rings (size 3 to 8) (size 9 to 14) (size 15 to 20)
#    0.000    2.526    0.000    0.000    8.842    2.526 
#    3.789    4.211   18.526    0.000    0.000    0.000 
#    0.000    0.000    0.000    0.000    0.000    0.000 
#
# Total GULP energy -211944.440418 kJ/mol
# GULP energy per Si atom -5577.485274 kJ/mol
# Density = 2.572935 g / cm^3
# Si number density = 25.788049 Si / 1000 Ang^3
#
#
#
# Elastic Constant Matrix: (Units=GPa)
#
#
# Indices 1 2 3 4 5 6 
#
# 1 111.3051 53.5437 23.5812 0.0000 0.0000 0.0000
# 2 53.5437 141.7370 62.1298 0.0000 0.0000 0.0000
# 3 23.5812 62.1298 72.4351 0.0000 0.0000 0.0000
# 4 0.0000 0.0000 0.0000 40.6965 0.0000 0.0000
# 5 0.0000 0.0000 0.0000 0.0000 25.4180 0.0000
# 6 0.0000 0.0000 0.0000 0.0000 0.0000 29.6150
#
#
#
# Elastic Compliance Matrix: (Units=1/GPa)
#
#
# Indices 1 2 3 4 5 6 
#
# 1 0.010980 -0.004136 -0.000027 0.000000 0.000000 0.000000
# 2 -0.004136 0.012864 -0.009688 0.000000 0.000000 0.000000
# 3 -0.000027 -0.009688 0.022124 0.000000 0.000000 0.000000
# 4 0.000000 0.000000 0.000000 0.024572 0.000000 0.000000
# 5 0.000000 0.000000 0.000000 0.000000 0.039342 0.000000
# 6 0.000000 0.000000 0.000000 0.000000 0.000000 0.033767
#
#
# Mechanical properties :
#
#
# Convention : Reuss Voigt Hill
#
# Bulk Modulus (GPa) = 54.74483 67.10962 60.92723
# Shear Modulus (GPa) = 28.17882 31.56074 29.86978
#
# Velocity S-wave (km/s) = 3.30920 3.50215 3.40704
# Velocity P-wave (km/s) = 5.98965 6.51410 6.25737
#
# Compressibility (1/GPa) = 0.01826657
#
# Stress axis : x y z
#
# Youngs Moduli (GPa) = 91.07769 77.73458 45.20068
#
# Poissons Ratio (x) = 0.32151 0.00121
# Poissons Ratio (y) = 0.37670 0.43789
# Poissons Ratio (z) = 0.00245 0.75306
#
# Static dielectric constant tensor:
#      x y z
#    x 2.100450 0.000000 0.000000 
#    y 0.000000 1.997440 0.000000 
#    z 0.000000 0.000000 2.131930 
# 
# From -- ./inp_files/51148.got.cif
#   From: 2010.05.17/outbox.cif.g08.bks.cpg/sg70_26_cif.got.tgz:51148.got - 2010.06.03 15:57:51.
