data_PCOD9514053
_publ_section_title
;
Structure prediction by ZEFSAII (Michael W. Deem and Ramdas Pophale) SiO2 
 PCOD9514053
Probable space group: F D D D
;
_chemical_formula_sum "Si O2"
_cell_formula_units_Z 144
_cell_length_a 24.502125
_cell_length_b 16.073504
_cell_length_c 14.866460
_cell_angle_alpha 90.000000
_cell_angle_beta 90.000000
_cell_angle_gamma 90.000000
_cell_volume 5854.932336
_symmetry_space_group_name_H-M "F D D D"
_symmetry_group_IT_number 70
_space_group.IT_coordinate_system_code '2'
_symmetry_cell_setting 'orthorhombic'
loop_
_space_group_symop_operation_xyz
x,y,z
1/4-x,1/4-y,z
x,1/4-y,1/4-z
1/4-x,y,1/4-z
-x,-y,-z
3/4+x,3/4+y,-z
-x,3/4+y,3/4+z
3/4+x,-y,3/4+z
x,1/2+y,1/2+z
1/4-x,3/4-y,1/2+z
x,3/4-y,3/4-z
1/4-x,1/2+y,3/4-z
-x,1/2-y,1/2-z
3/4+x,1/4+y,1/2-z
-x,1/4+y,1/4+z
3/4+x,1/2-y,1/4+z
1/2+x,y,1/2+z
3/4-x,1/4-y,1/2+z
1/2+x,1/4-y,3/4-z
3/4-x,y,3/4-z
1/2-x,-y,1/2-z
1/4+x,3/4+y,1/2-z
1/2-x,3/4+y,1/4+z
1/4+x,-y,1/4+z
1/2+x,1/2+y,z
3/4-x,3/4-y,z
1/2+x,3/4-y,1/4-z
3/4-x,1/2+y,1/4-z
1/2-x,1/2-y,-z
1/4+x,1/4+y,-z
1/2-x,1/4+y,3/4+z
1/4+x,1/2-y,3/4+z
loop_
_atom_site_type_symbol
_atom_site_label
_atom_site_fract_x
_atom_site_fract_y
_atom_site_fract_z
Si Si1 0.562062 0.026147 0.473509
Si Si2 0.140774 0.297506 0.416944
Si Si3 0.532307 0.476182 0.730552
Si Si4 0.455855 0.375000 0.875000
Si Si5 0.471364 0.899766 0.072439
O O1 0.579429 0.061898 0.567436
O O2 0.559086 0.099100 0.401170
O O3 0.500000 0.000000 0.500000
O O4 0.603620 0.966818 0.423755
O O5 0.173562 0.375000 0.375000
O O6 0.093868 0.297459 0.492475
O O7 0.181941 0.226210 0.448727
O O8 0.494071 0.427645 0.804849
O O9 0.521757 0.575120 0.749981
O O10 0.520094 0.441495 0.630797
#
# Coordination Sequence:
#
# PCOD9514053 Si02
#       5
#    32  32  32  16  32
#     4  10  16  29  51  77 112 149 184 233 312 362
#     4  11  20  34  55  79 113 163 204 246 302 382
#     4  10  18  34  55  83 121 154 198 254 316 374
#     4  10  16  26  53  78 108 154 178 236 317 370
#     4  10  21  33  55  85 112 157 203 245 308 378
#
# _framework density 24.594649
#
# number of rings (size 3 to 8) (size 9 to 14) (size 15 to 20)
#    0.000    1.778    5.556    4.000    0.000    0.000 
#    0.000   10.000    0.000    0.000    0.000    0.000 
#    0.000    0.000    0.000    0.000    0.000    0.000 
#
# Total GULP energy -200433.857979 kJ/mol
# GULP energy per Si atom -5567.607166 kJ/mol
# Density = 2.453867 g / cm^3
# Si number density = 24.594649 Si / 1000 Ang^3
#
#
#
# Elastic Constant Matrix: (Units=GPa)
#
#
# Indices 1 2 3 4 5 6 
#
# 1 72.4298 35.6070 25.5430 0.0000 0.0000 0.0000
# 2 35.6070 130.6745 9.0967 0.0000 0.0000 0.0000
# 3 25.5430 9.0967 20.4661 0.0000 0.0000 0.0000
# 4 0.0000 0.0000 0.0000 23.9923 0.0000 0.0000
# 5 0.0000 0.0000 0.0000 0.0000 30.5234 0.0000
# 6 0.0000 0.0000 0.0000 0.0000 0.0000 22.1078
#
#
#
# Elastic Compliance Matrix: (Units=1/GPa)
#
#
# Indices 1 2 3 4 5 6 
#
# 1 0.027851 -0.005334 -0.032389 0.000000 0.000000 0.000000
# 2 -0.005334 0.008919 0.002693 0.000000 0.000000 0.000000
# 3 -0.032389 0.002693 0.088087 0.000000 0.000000 0.000000
# 4 0.000000 0.000000 0.000000 0.041680 0.000000 0.000000
# 5 0.000000 0.000000 0.000000 0.000000 0.032762 0.000000
# 6 0.000000 0.000000 0.000000 0.000000 0.000000 0.045233
#
#
# Mechanical properties :
#
#
# Convention : Reuss Voigt Hill
#
# Bulk Modulus (GPa) = 18.24898 40.45151 29.35025
# Shear Modulus (GPa) = 15.02146 25.54628 20.28387
#
# Velocity S-wave (km/s) = 2.47404 3.22637 2.87492
# Velocity P-wave (km/s) = 3.94933 5.51020 4.79372
#
# Compressibility (1/GPa) = 0.05479757
#
# Stress axis : x y z
#
# Youngs Moduli (GPa) = 35.90526 112.12484 11.35237
#
# Poissons Ratio (x) = 0.59811 0.36769
# Poissons Ratio (y) = 0.19153 -0.03058
# Poissons Ratio (z) = 1.16293 -0.30200
#
# Static dielectric constant tensor:
#      x y z
#    x 2.043210 0.000000 0.000000 
#    y 0.000000 2.185920 0.000000 
#    z 0.000000 0.000000 1.965250 
# 
# From -- ./inp_files/46831.got.cif
#   From: 2010.05.17/outbox.cif.g08.bks.cpg/sg70_24_cif.got.tgz:46831.got - 2010.06.03 15:57:51.
