data_PCOD9514786
_publ_section_title
;
Structure prediction by ZEFSAII (Michael W. Deem and Ramdas Pophale) SiO2 
 PCOD9514786
Probable space group: F D D D
;
_chemical_formula_sum "Si O2"
_cell_formula_units_Z 192
_cell_length_a 18.541977
_cell_length_b 20.535305
_cell_length_c 21.748419
_cell_angle_alpha 90.000000
_cell_angle_beta 90.000000
_cell_angle_gamma 90.000000
_cell_volume 8281.040088
_symmetry_space_group_name_H-M "F D D D"
_symmetry_group_IT_number 70
_space_group.IT_coordinate_system_code '2'
_symmetry_cell_setting 'orthorhombic'
loop_
_space_group_symop_operation_xyz
x,y,z
1/4-x,1/4-y,z
x,1/4-y,1/4-z
1/4-x,y,1/4-z
-x,-y,-z
3/4+x,3/4+y,-z
-x,3/4+y,3/4+z
3/4+x,-y,3/4+z
x,1/2+y,1/2+z
1/4-x,3/4-y,1/2+z
x,3/4-y,3/4-z
1/4-x,1/2+y,3/4-z
-x,1/2-y,1/2-z
3/4+x,1/4+y,1/2-z
-x,1/4+y,1/4+z
3/4+x,1/2-y,1/4+z
1/2+x,y,1/2+z
3/4-x,1/4-y,1/2+z
1/2+x,1/4-y,3/4-z
3/4-x,y,3/4-z
1/2-x,-y,1/2-z
1/4+x,3/4+y,1/2-z
1/2-x,3/4+y,1/4+z
1/4+x,-y,1/4+z
1/2+x,1/2+y,z
3/4-x,3/4-y,z
1/2+x,3/4-y,1/4-z
3/4-x,1/2+y,1/4-z
1/2-x,1/2-y,-z
1/4+x,1/4+y,-z
1/2-x,1/4+y,3/4+z
1/4+x,1/2-y,3/4+z
loop_
_atom_site_type_symbol
_atom_site_label
_atom_site_fract_x
_atom_site_fract_y
_atom_site_fract_z
Si Si1 0.158700 0.813542 0.783366
Si Si2 0.079592 0.565096 0.954507
Si Si3 0.780649 0.049320 0.800322
Si Si4 0.427450 0.060252 0.965786
Si Si5 0.766538 0.191893 0.778545
Si Si6 0.807938 0.521712 0.108960
O O1 0.113779 0.804119 0.719833
O O2 0.186575 0.886995 0.772021
O O3 0.217225 0.755497 0.791021
O O4 0.100366 0.811775 0.838492
O O5 0.125000 0.625000 0.979450
O O6 0.133095 0.533259 0.906100
O O7 0.999612 0.575989 0.927779
O O8 0.069397 0.512482 0.007805
O O9 0.740142 0.118751 0.792417
O O10 0.750000 0.000000 0.750000
O O11 0.761260 0.014666 0.863476
O O12 0.346188 0.060238 0.940531
O O13 0.785727 0.195666 0.705235
#
# Coordination Sequence:
#
# PCOD9514786 Si02
#       6
#    32  32  32  32  32  32
#     4  10  21  39  60  87 128 165 212 277 328 411
#     4  10  20  34  60  90 118 162 212 261 330 402
#     4   9  21  37  59  91 124 161 218 271 328 414
#     4   9  19  37  57  86 124 160 208 269 326 393
#     4  10  21  38  60  90 130 166 218 281 324 404
#     4  10  22  38  64  88 125 172 214 267 354 394
#
# _framework density 23.185493999999998
#
# number of rings (size 3 to 8) (size 9 to 14) (size 15 to 20)
#    0.000    2.333    0.000    2.000    2.333   13.333 
#    0.000    0.833    0.000   12.000    0.000   16.333 
#    0.000    0.000    0.000    0.000    0.000    0.000 
#
# Total GULP energy -267434.249126 kJ/mol
# GULP energy per Si atom -5571.546857 kJ/mol
# Density = 2.313272 g / cm^3
# Si number density = 23.185494 Si / 1000 Ang^3
#
#
#
# Elastic Constant Matrix: (Units=GPa)
#
#
# Indices 1 2 3 4 5 6 
#
# 1 89.3050 37.6898 14.7284 0.0000 0.0000 0.0000
# 2 37.6898 158.3389 21.9118 0.0000 0.0000 0.0000
# 3 14.7284 21.9118 74.3611 0.0000 0.0000 0.0000
# 4 0.0000 0.0000 0.0000 19.1801 0.0000 0.0000
# 5 0.0000 0.0000 0.0000 0.0000 39.1369 0.0000
# 6 0.0000 0.0000 0.0000 0.0000 0.0000 38.8832
#
#
#
# Elastic Compliance Matrix: (Units=1/GPa)
#
#
# Indices 1 2 3 4 5 6 
#
# 1 0.012648 -0.002777 -0.001687 0.000000 0.000000 0.000000
# 2 -0.002777 0.007194 -0.001570 0.000000 0.000000 0.000000
# 3 -0.001687 -0.001570 0.014245 0.000000 0.000000 0.000000
# 4 0.000000 0.000000 0.000000 0.052137 0.000000 0.000000
# 5 0.000000 0.000000 0.000000 0.000000 0.025551 0.000000
# 6 0.000000 0.000000 0.000000 0.000000 0.000000 0.025718
#
#
# Mechanical properties :
#
#
# Convention : Reuss Voigt Hill
#
# Bulk Modulus (GPa) = 45.41557 52.29612 48.85585
# Shear Modulus (GPa) = 31.86747 35.95172 33.90959
#
# Velocity S-wave (km/s) = 3.71139 3.94205 3.82846
# Velocity P-wave (km/s) = 6.16412 6.58211 6.37654
#
# Compressibility (1/GPa) = 0.02201888
#
# Stress axis : x y z
#
# Youngs Moduli (GPa) = 79.06498 139.00765 70.20236
#
# Poissons Ratio (x) = 0.38605 0.11842
# Poissons Ratio (y) = 0.21958 0.11020
# Poissons Ratio (z) = 0.13336 0.21820
#
# Static dielectric constant tensor:
#      x y z
#    x 2.051630 0.000000 0.000000 
#    y 0.000000 1.970260 0.000000 
#    z 0.000000 0.000000 1.957000 
# 
# From -- ./inp_files/52994.got.cif
#   From: 2010.05.17/outbox.cif.g08.bks.cpg/sg70_27_cif.got.tgz:52994.got - 2010.06.03 15:57:51.
