data_PCOD9514956
_publ_section_title
;
Structure prediction by ZEFSAII (Michael W. Deem and Ramdas Pophale) SiO2 
 PCOD9514956
Probable space group: F D D D
;
_chemical_formula_sum "Si O2"
_cell_formula_units_Z 96
_cell_length_a 7.923977
_cell_length_b 35.933066
_cell_length_c 14.180731
_cell_angle_alpha 90.000000
_cell_angle_beta 90.000000
_cell_angle_gamma 90.000000
_cell_volume 4037.719081
_symmetry_space_group_name_H-M "F D D D"
_symmetry_group_IT_number 70
_space_group.IT_coordinate_system_code '2'
_symmetry_cell_setting 'orthorhombic'
loop_
_space_group_symop_operation_xyz
x,y,z
1/4-x,1/4-y,z
x,1/4-y,1/4-z
1/4-x,y,1/4-z
-x,-y,-z
3/4+x,3/4+y,-z
-x,3/4+y,3/4+z
3/4+x,-y,3/4+z
x,1/2+y,1/2+z
1/4-x,3/4-y,1/2+z
x,3/4-y,3/4-z
1/4-x,1/2+y,3/4-z
-x,1/2-y,1/2-z
3/4+x,1/4+y,1/2-z
-x,1/4+y,1/4+z
3/4+x,1/2-y,1/4+z
1/2+x,y,1/2+z
3/4-x,1/4-y,1/2+z
1/2+x,1/4-y,3/4-z
3/4-x,y,3/4-z
1/2-x,-y,1/2-z
1/4+x,3/4+y,1/2-z
1/2-x,3/4+y,1/4+z
1/4+x,-y,1/4+z
1/2+x,1/2+y,z
3/4-x,3/4-y,z
1/2+x,3/4-y,1/4-z
3/4-x,1/2+y,1/4-z
1/2-x,1/2-y,-z
1/4+x,1/4+y,-z
1/2-x,1/4+y,3/4+z
1/4+x,1/2-y,3/4+z
loop_
_atom_site_type_symbol
_atom_site_label
_atom_site_fract_x
_atom_site_fract_y
_atom_site_fract_z
Si Si1 0.634511 0.669137 0.345657
Si Si2 0.213064 0.456155 0.262894
Si Si3 0.781331 0.039222 0.697000
O O1 0.625000 0.625000 0.350068
O O2 0.794735 0.688059 0.288303
O O3 0.646379 0.685953 0.449929
O O4 0.481022 0.681360 0.279984
O O5 0.250000 0.500000 0.250000
O O6 0.184940 0.454050 0.375225
O O7 0.625000 0.042196 0.625000
O O8 0.750000 0.000000 0.750000
#
# Coordination Sequence:
#
# PCOD9514956 Si02
#       3
#    32  32  32
#     4  10  22  41  66 100 145 183 237 314 370 427
#     4  10  20  39  69  98 134 189 248 292 359 461
#     4  10  20  37  66  96 130 181 232 286 358 440
#
# _framework density 23.775798999999999
#
# number of rings (size 3 to 8) (size 9 to 14) (size 15 to 20)
#    0.000    2.000    3.333    0.000    0.000    6.000 
#    6.000    0.000   14.667    0.000    0.000    0.000 
#    0.000    0.000    0.000    0.000    0.000    0.000 
#
# Total GULP energy -133811.320157 kJ/mol
# GULP energy per Si atom -5575.471673 kJ/mol
# Density = 2.372168 g / cm^3
# Si number density = 23.775799 Si / 1000 Ang^3
#
#
#
# Elastic Constant Matrix: (Units=GPa)
#
#
# Indices 1 2 3 4 5 6 
#
# 1 123.1907 38.2602 75.6644 0.0000 0.0000 0.0000
# 2 38.2602 243.7638 118.4347 0.0000 0.0000 0.0000
# 3 75.6644 118.4347 286.1339 0.0000 0.0000 0.0000
# 4 0.0000 0.0000 0.0000 29.1152 0.0000 0.0000
# 5 0.0000 0.0000 0.0000 0.0000 52.4656 0.0000
# 6 0.0000 0.0000 0.0000 0.0000 0.0000 28.6362
#
#
#
# Elastic Compliance Matrix: (Units=1/GPa)
#
#
# Indices 1 2 3 4 5 6 
#
# 1 0.009715 -0.000346 -0.002426 0.000000 0.000000 0.000000
# 2 -0.000346 0.005147 -0.002039 0.000000 0.000000 0.000000
# 3 -0.002426 -0.002039 0.004980 0.000000 0.000000 0.000000
# 4 0.000000 0.000000 0.000000 0.034346 0.000000 0.000000
# 5 0.000000 0.000000 0.000000 0.000000 0.019060 0.000000
# 6 0.000000 0.000000 0.000000 0.000000 0.000000 0.034921
#
#
# Mechanical properties :
#
#
# Convention : Reuss Voigt Hill
#
# Bulk Modulus (GPa) = 97.84107 124.20078 111.02092
# Shear Modulus (GPa) = 41.25463 50.09200 45.67331
#
# Velocity S-wave (km/s) = 4.17003 4.59502 4.38768
# Velocity P-wave (km/s) = 8.02661 8.97240 8.51265
#
# Compressibility (1/GPa) = 0.01022066
#
# Stress axis : x y z
#
# Youngs Moduli (GPa) = 102.93478 194.27511 200.79275
#
# Poissons Ratio (x) = 0.06728 0.48705
# Poissons Ratio (y) = 0.03565 0.40941
# Poissons Ratio (z) = 0.24968 0.39612
#
# Static dielectric constant tensor:
#      x y z
#    x 1.773570 0.000000 0.000000 
#    y 0.000000 1.892740 0.000000 
#    z 0.000000 0.000000 1.895570 
# 
# From -- ./inp_files/37091.got.cif
#   From: 2010.05.17/outbox.cif.g08.bks.cpg/sg70_19_cif.got.tgz:37091.got - 2010.06.03 15:57:51.
