data_PCOD9514579
_publ_section_title
;
Structure prediction by ZEFSAII (Michael W. Deem and Ramdas Pophale) SiO2 
 PCOD9514579
Probable space group: F D D D
;
_chemical_formula_sum "Si O2"
_cell_formula_units_Z 128
_cell_length_a 26.335272
_cell_length_b 9.399052
_cell_length_c 25.172011
_cell_angle_alpha 90.000000
_cell_angle_beta 90.000000
_cell_angle_gamma 90.000000
_cell_volume 6230.742070
_symmetry_space_group_name_H-M "F D D D"
_symmetry_group_IT_number 70
_space_group.IT_coordinate_system_code '2'
_symmetry_cell_setting 'orthorhombic'
loop_
_space_group_symop_operation_xyz
x,y,z
1/4-x,1/4-y,z
x,1/4-y,1/4-z
1/4-x,y,1/4-z
-x,-y,-z
3/4+x,3/4+y,-z
-x,3/4+y,3/4+z
3/4+x,-y,3/4+z
x,1/2+y,1/2+z
1/4-x,3/4-y,1/2+z
x,3/4-y,3/4-z
1/4-x,1/2+y,3/4-z
-x,1/2-y,1/2-z
3/4+x,1/4+y,1/2-z
-x,1/4+y,1/4+z
3/4+x,1/2-y,1/4+z
1/2+x,y,1/2+z
3/4-x,1/4-y,1/2+z
1/2+x,1/4-y,3/4-z
3/4-x,y,3/4-z
1/2-x,-y,1/2-z
1/4+x,3/4+y,1/2-z
1/2-x,3/4+y,1/4+z
1/4+x,-y,1/4+z
1/2+x,1/2+y,z
3/4-x,3/4-y,z
1/2+x,3/4-y,1/4-z
3/4-x,1/2+y,1/4-z
1/2-x,1/2-y,-z
1/4+x,1/4+y,-z
1/2-x,1/4+y,3/4+z
1/4+x,1/2-y,3/4+z
loop_
_atom_site_type_symbol
_atom_site_label
_atom_site_fract_x
_atom_site_fract_y
_atom_site_fract_z
Si Si1 0.060210 0.866600 0.310284
Si Si2 0.625000 0.125000 0.822338
Si Si3 0.217296 0.967915 0.525751
Si Si4 0.875000 0.875000 0.506639
Si Si5 0.476621 0.526659 0.080303
O O1 0.057456 0.875000 0.375000
O O2 0.087927 0.723147 0.292314
O O3 0.095144 0.000569 0.292066
O O4 0.006300 0.900825 0.283480
O O5 0.578270 0.212569 0.848395
O O6 0.220398 0.877937 0.470960
O O7 0.236965 0.854552 0.568353
O O8 0.160840 0.025720 0.528453
O O9 0.498675 0.625000 0.125000
#
# Coordination Sequence:
#
# PCOD9514579 Si02
#       5
#    32  16  32  16  32
#     4  11  23  38  66  95 129 168 221 278 335 384
#     4  10  19  36  66 100 120 157 217 276 336 383
#     4  10  24  39  64  97 131 173 214 269 335 398
#     4  12  23  42  63  98 135 171 217 288 322 393
#     4  10  21  40  66  97 135 164 216 276 333 391
#
# _framework density 20.543299000000001
#
# number of rings (size 3 to 8) (size 9 to 14) (size 15 to 20)
#    0.000    1.500    2.500    2.250    7.000    0.000 
#    0.000    0.625    0.000    1.500    0.000    0.000 
#    0.000    0.000    0.000    0.000    0.000    0.000 
#
# Total GULP energy -178446.047855 kJ/mol
# GULP energy per Si atom -5576.438995 kJ/mol
# Density = 2.049654 g / cm^3
# Si number density = 20.543299 Si / 1000 Ang^3
#
#
#
# Elastic Constant Matrix: (Units=GPa)
#
#
# Indices 1 2 3 4 5 6 
#
# 1 123.3824 51.8473 46.3766 0.0000 0.0000 0.0000
# 2 51.8473 112.6334 39.3279 0.0000 0.0000 0.0000
# 3 46.3766 39.3279 42.6244 0.0000 0.0000 0.0000
# 4 0.0000 0.0000 0.0000 22.6259 0.0000 0.0000
# 5 0.0000 0.0000 0.0000 0.0000 7.0757 0.0000
# 6 0.0000 0.0000 0.0000 0.0000 0.0000 36.0518
#
#
#
# Elastic Compliance Matrix: (Units=1/GPa)
#
#
# Indices 1 2 3 4 5 6 
#
# 1 0.013918 -0.001651 -0.013620 0.000000 0.000000 0.000000
# 2 -0.001651 0.013294 -0.010469 0.000000 0.000000 0.000000
# 3 -0.013620 -0.010469 0.047939 0.000000 0.000000 0.000000
# 4 0.000000 0.000000 0.000000 0.044197 0.000000 0.000000
# 5 0.000000 0.000000 0.000000 0.000000 0.141329 0.000000
# 6 0.000000 0.000000 0.000000 0.000000 0.000000 0.027738
#
#
# Mechanical properties :
#
#
# Convention : Reuss Voigt Hill
#
# Bulk Modulus (GPa) = 42.24654 61.52709 51.88682
# Shear Modulus (GPa) = 14.37665 22.55657 18.46661
#
# Velocity S-wave (km/s) = 2.64828 3.31721 3.00144
# Velocity P-wave (km/s) = 5.47362 6.68482 6.10931
#
# Compressibility (1/GPa) = 0.02367058
#
# Stress axis : x y z
#
# Youngs Moduli (GPa) = 71.84876 75.22218 20.85979
#
# Poissons Ratio (x) = 0.12420 0.28411
# Poissons Ratio (y) = 0.11863 0.21839
# Poissons Ratio (z) = 0.97857 0.78752
#
# Static dielectric constant tensor:
#      x y z
#    x 1.766830 0.000000 0.000000 
#    y 0.000000 1.794930 0.000000 
#    z 0.000000 0.000000 1.736720 
# 
# From -- ./inp_files/11048.got.cif
#   From: 2010.05.17/outbox.cif.g08.bks.cpg/sg70_6_cif.got.tgz:11048.got - 2010.06.03 15:57:51.
