data_PCOD9514390
_publ_section_title
;
Structure prediction by ZEFSAII (Michael W. Deem and Ramdas Pophale) SiO2 
 PCOD9514390
Probable space group: F D D D
;
_chemical_formula_sum "Si O2"
_cell_formula_units_Z 160
_cell_length_a 25.317177
_cell_length_b 24.962752
_cell_length_c 10.148322
_cell_angle_alpha 90.000000
_cell_angle_beta 90.000000
_cell_angle_gamma 90.000000
_cell_volume 6413.601596
_symmetry_space_group_name_H-M "F D D D"
_symmetry_group_IT_number 70
_space_group.IT_coordinate_system_code '2'
_symmetry_cell_setting 'orthorhombic'
loop_
_space_group_symop_operation_xyz
x,y,z
1/4-x,1/4-y,z
x,1/4-y,1/4-z
1/4-x,y,1/4-z
-x,-y,-z
3/4+x,3/4+y,-z
-x,3/4+y,3/4+z
3/4+x,-y,3/4+z
x,1/2+y,1/2+z
1/4-x,3/4-y,1/2+z
x,3/4-y,3/4-z
1/4-x,1/2+y,3/4-z
-x,1/2-y,1/2-z
3/4+x,1/4+y,1/2-z
-x,1/4+y,1/4+z
3/4+x,1/2-y,1/4+z
1/2+x,y,1/2+z
3/4-x,1/4-y,1/2+z
1/2+x,1/4-y,3/4-z
3/4-x,y,3/4-z
1/2-x,-y,1/2-z
1/4+x,3/4+y,1/2-z
1/2-x,3/4+y,1/4+z
1/4+x,-y,1/4+z
1/2+x,1/2+y,z
3/4-x,3/4-y,z
1/2+x,3/4-y,1/4-z
3/4-x,1/2+y,1/4-z
1/2-x,1/2-y,-z
1/4+x,1/4+y,-z
1/2-x,1/4+y,3/4+z
1/4+x,1/2-y,3/4+z
loop_
_atom_site_type_symbol
_atom_site_label
_atom_site_fract_x
_atom_site_fract_y
_atom_site_fract_z
Si Si1 0.695168 0.984933 0.562287
Si Si2 0.783463 0.300471 0.048857
Si Si3 0.486962 0.625000 0.125000
Si Si4 0.318523 0.134600 0.395189
Si Si5 0.947548 0.453824 0.549603
Si Si6 0.125000 0.625000 0.284214
O O1 0.674944 0.924146 0.539175
O O2 0.757690 0.976182 0.602508
O O3 0.694302 0.026840 0.440085
O O4 0.671020 0.001827 0.706340
O O5 0.735119 0.342275 0.044428
O O6 0.832265 0.331307 0.976881
O O7 0.750000 0.250000 0.000000
O O8 0.449741 0.613976 0.245003
O O9 0.524091 0.579773 0.065635
O O10 0.375000 0.162921 0.375000
O O11 0.911107 0.413235 0.626450
#
# Coordination Sequence:
#
# PCOD9514390 Si02
#       6
#    32  32  16  32  32  16
#     4  10  22  43  69 104 140 182 244 312 383 439
#     4  12  28  48  70 105 153 202 255 309 384 473
#     4  10  18  43  68 102 140 185 248 322 386 450
#     4  11  25  45  68 105 147 195 247 311 388 464
#     4  10  20  39  74 102 144 179 244 327 385 440
#     4  12  24  47  77 116 146 194 263 321 382 462
#
# _framework density 24.946981000000001
#
# number of rings (size 3 to 8) (size 9 to 14) (size 15 to 20)
#    0.000    1.200    6.000    0.000    2.800    6.800 
#    0.000    1.000    0.000    0.000    0.000    0.000 
#    0.000    0.000    0.000    0.000    0.000    0.000 
#
# Total GULP energy -222695.146405 kJ/mol
# GULP energy per Si atom -5567.378660 kJ/mol
# Density = 2.489020 g / cm^3
# Si number density = 24.946981 Si / 1000 Ang^3
#
#
#
# Elastic Constant Matrix: (Units=GPa)
#
#
# Indices 1 2 3 4 5 6 
#
# 1 108.1124 60.0328 13.3182 -0.0025 0.0001 0.0012
# 2 60.0328 87.4142 9.2190 0.0006 0.0000 -0.0003
# 3 13.3182 9.2190 37.7364 -0.0038 0.0005 0.0000
# 4 -0.0025 0.0006 -0.0038 153.2504 0.0019 0.0069
# 5 0.0001 0.0000 0.0005 0.0019 19.9329 0.0002
# 6 0.0012 -0.0003 0.0000 0.0069 0.0002 200.7858
#
#
#
# Elastic Compliance Matrix: (Units=1/GPa)
#
#
# Indices 1 2 3 4 5 6 
#
# 1 0.015254 -0.010170 -0.002899 0.000000 0.000000 0.000000
# 2 -0.010170 0.018523 -0.000936 0.000000 0.000000 0.000000
# 3 -0.002899 -0.000936 0.027751 0.000001 -0.000001 0.000000
# 4 0.000000 0.000000 0.000001 0.006525 -0.000001 0.000000
# 5 0.000000 0.000000 -0.000001 -0.000001 0.050168 0.000000
# 6 0.000000 0.000000 0.000000 0.000000 0.000000 0.004980
#
#
# Mechanical properties :
#
#
# Convention : Reuss Voigt Hill
#
# Bulk Modulus (GPa) = 29.83437 44.26699 37.05068
# Shear Modulus (GPa) = 30.79096 84.84003 57.81550
#
# Velocity S-wave (km/s) = 3.51701 5.83798 4.81930
# Velocity P-wave (km/s) = 5.33644 7.95145 6.77138
#
# Compressibility (1/GPa) = 0.03351839
#
# Stress axis : x y z
#
# Youngs Moduli (GPa) = 65.55627 53.98701 36.03430
#
# Poissons Ratio (x) = 0.54906 0.10446
# Poissons Ratio (y) = 0.66672 0.03372
# Poissons Ratio (z) = 0.19005 0.05052
#
# Static dielectric constant tensor:
#      x y z
#    x 1.875150 0.000000 0.000000 
#    y 0.000000 2.176900 0.000000 
#    z 0.000000 0.000000 1.967590 
# 
# From -- ./inp_files/22233.got.cif
#   From: 2010.05.17/outbox.cif.g08.bks.cpg/sg70_12_cif.got.tgz:22233.got - 2010.06.03 15:57:51.
