data_PCOD9514790
_publ_section_title
;
Structure prediction by ZEFSAII (Michael W. Deem and Ramdas Pophale) SiO2 
 PCOD9514790
Probable space group: F D D D
;
_chemical_formula_sum "Si O2"
_cell_formula_units_Z 176
_cell_length_a 33.528566
_cell_length_b 11.303867
_cell_length_c 24.290002
_cell_angle_alpha 90.000000
_cell_angle_beta 90.000000
_cell_angle_gamma 90.000000
_cell_volume 9205.970287
_symmetry_space_group_name_H-M "F D D D"
_symmetry_group_IT_number 70
_space_group.IT_coordinate_system_code '2'
_symmetry_cell_setting 'orthorhombic'
loop_
_space_group_symop_operation_xyz
x,y,z
1/4-x,1/4-y,z
x,1/4-y,1/4-z
1/4-x,y,1/4-z
-x,-y,-z
3/4+x,3/4+y,-z
-x,3/4+y,3/4+z
3/4+x,-y,3/4+z
x,1/2+y,1/2+z
1/4-x,3/4-y,1/2+z
x,3/4-y,3/4-z
1/4-x,1/2+y,3/4-z
-x,1/2-y,1/2-z
3/4+x,1/4+y,1/2-z
-x,1/4+y,1/4+z
3/4+x,1/2-y,1/4+z
1/2+x,y,1/2+z
3/4-x,1/4-y,1/2+z
1/2+x,1/4-y,3/4-z
3/4-x,y,3/4-z
1/2-x,-y,1/2-z
1/4+x,3/4+y,1/2-z
1/2-x,3/4+y,1/4+z
1/4+x,-y,1/4+z
1/2+x,1/2+y,z
3/4-x,3/4-y,z
1/2+x,3/4-y,1/4-z
3/4-x,1/2+y,1/4-z
1/2-x,1/2-y,-z
1/4+x,1/4+y,-z
1/2-x,1/4+y,3/4+z
1/4+x,1/2-y,3/4+z
loop_
_atom_site_type_symbol
_atom_site_label
_atom_site_fract_x
_atom_site_fract_y
_atom_site_fract_z
Si Si1 0.375000 0.048435 0.875000
Si Si2 0.314469 0.531470 0.809671
Si Si3 0.584293 0.059991 0.018813
Si Si4 0.754001 0.875000 0.875000
Si Si5 0.125000 0.625000 0.494030
Si Si6 0.802989 0.539260 0.030837
Si Si7 0.358188 0.619171 0.061390
O O1 0.346145 0.130767 0.911270
O O2 0.404214 0.978503 0.918261
O O3 0.282533 0.472704 0.848534
O O4 0.340134 0.427847 0.781642
O O5 0.293362 0.610528 0.763773
O O6 0.625000 0.125000 0.001734
O O7 0.553377 0.162645 0.001022
O O8 0.580868 0.944861 0.980465
O O9 0.726876 0.943650 0.919092
O O10 0.109873 0.733945 0.457741
O O11 0.847080 0.576916 0.053415
O O12 0.346460 0.625000 0.125000
#
# Coordination Sequence:
#
# PCOD9514790 Si02
#       7
#    16  32  32  16  16  32  32
#     4  12  19  39  64  98 118 155 209 274 324 344
#     4  11  23  37  62  90 122 162 208 261 310 363
#     4  10  20  35  62  92 118 150 200 263 319 365
#     4  12  24  39  60  84 130 176 204 244 310 398
#     4  10  20  39  58  96 124 147 218 266 308 352
#     4  10  22  39  56  87 118 162 210 242 313 385
#     4  10  20  34  61  92 122 155 194 267 316 362
#
# _framework density 19.118027000000001
#
# number of rings (size 3 to 8) (size 9 to 14) (size 15 to 20)
#    0.000    1.455    6.364    1.909    3.818    0.000 
#    0.000    0.909    0.000    0.000    0.000    0.000 
#    0.000    0.000    0.000    0.000    0.000    0.000 
#
# Total GULP energy -245215.000670 kJ/mol
# GULP energy per Si atom -5573.068197 kJ/mol
# Density = 1.907451 g / cm^3
# Si number density = 19.118027 Si / 1000 Ang^3
#
#
#
# Elastic Constant Matrix: (Units=GPa)
#
#
# Indices 1 2 3 4 5 6 
#
# 1 46.2323 44.0086 46.0634 0.0000 0.0000 0.0000
# 2 44.0086 133.0353 81.8853 0.0000 0.0000 0.0000
# 3 46.0634 81.8853 153.3607 0.0000 0.0000 0.0000
# 4 0.0000 0.0000 0.0000 -7.6388 0.0000 0.0000
# 5 0.0000 0.0000 0.0000 0.0000 20.7695 0.0000
# 6 0.0000 0.0000 0.0000 0.0000 0.0000 -3.3614
#
#
#
# Elastic Compliance Matrix: (Units=1/GPa)
#
#
# Indices 1 2 3 4 5 6 
#
# 1 0.035490 -0.007714 -0.006541 0.000000 0.000000 0.000000
# 2 -0.007714 0.012873 -0.004557 0.000000 0.000000 0.000000
# 3 -0.006541 -0.004557 0.010918 0.000000 0.000000 0.000000
# 4 0.000000 0.000000 0.000000 -0.130910 0.000000 0.000000
# 5 0.000000 0.000000 0.000000 0.000000 0.048148 0.000000
# 6 0.000000 0.000000 0.000000 0.000000 0.000000 -0.297496
#
#
# Mechanical properties :
#
#
# Convention : Reuss Voigt Hill
#
# Bulk Modulus (GPa) = 46.17183 75.17142 60.67163
# Shear Modulus (GPa) = -18.10708 12.66525 -2.72092
#
# Velocity S-wave (km/s) = -3.08087 2.57665 -1.19428
# Velocity P-wave (km/s) = 3.39819 6.94674 5.46831
#
# Compressibility (1/GPa) = 0.02165823
#
# Stress axis : x y z
#
# Youngs Moduli (GPa) = 28.17689 77.68008 91.59113
#
# Poissons Ratio (x) = 0.59924 0.59908
# Poissons Ratio (y) = 0.21736 0.41734
# Poissons Ratio (z) = 0.18430 0.35395
#
# Static dielectric constant tensor:
#      x y z
#    x 1.665440 0.000000 0.000000 
#    y 0.000000 1.692560 0.000000 
#    z 0.000000 0.000000 1.713880 
# 
# From -- ./inp_files/55007.got.cif
#   From: 2010.05.17/outbox.cif.g08.bks.cpg/sg70_28_cif.got.tgz:55007.got - 2010.06.03 15:57:51.
