data_PCOD9514353
_publ_section_title
;
Structure prediction by ZEFSAII (Michael W. Deem and Ramdas Pophale) SiO2 
 PCOD9514353
Probable space group: F D D D
;
_chemical_formula_sum "Si O2"
_cell_formula_units_Z 208
_cell_length_a 28.243417
_cell_length_b 22.791492
_cell_length_c 16.694695
_cell_angle_alpha 90.000000
_cell_angle_beta 90.000000
_cell_angle_gamma 90.000000
_cell_volume 10746.535651
_symmetry_space_group_name_H-M "F D D D"
_symmetry_group_IT_number 70
_space_group.IT_coordinate_system_code '2'
_symmetry_cell_setting 'orthorhombic'
loop_
_space_group_symop_operation_xyz
x,y,z
1/4-x,1/4-y,z
x,1/4-y,1/4-z
1/4-x,y,1/4-z
-x,-y,-z
3/4+x,3/4+y,-z
-x,3/4+y,3/4+z
3/4+x,-y,3/4+z
x,1/2+y,1/2+z
1/4-x,3/4-y,1/2+z
x,3/4-y,3/4-z
1/4-x,1/2+y,3/4-z
-x,1/2-y,1/2-z
3/4+x,1/4+y,1/2-z
-x,1/4+y,1/4+z
3/4+x,1/2-y,1/4+z
1/2+x,y,1/2+z
3/4-x,1/4-y,1/2+z
1/2+x,1/4-y,3/4-z
3/4-x,y,3/4-z
1/2-x,-y,1/2-z
1/4+x,3/4+y,1/2-z
1/2-x,3/4+y,1/4+z
1/4+x,-y,1/4+z
1/2+x,1/2+y,z
3/4-x,3/4-y,z
1/2+x,3/4-y,1/4-z
3/4-x,1/2+y,1/4-z
1/2-x,1/2-y,-z
1/4+x,1/4+y,-z
1/2-x,1/4+y,3/4+z
1/4+x,1/2-y,3/4+z
loop_
_atom_site_type_symbol
_atom_site_label
_atom_site_fract_x
_atom_site_fract_y
_atom_site_fract_z
Si Si1 0.642572 0.771879 0.935654
Si Si2 0.484260 0.653184 0.897860
Si Si3 0.980796 0.188022 0.081558
Si Si4 0.580107 0.375000 0.375000
Si Si5 0.590790 0.679204 0.837546
Si Si6 0.050283 0.781777 0.246832
Si Si7 0.212797 0.268764 0.069877
O O1 0.684947 0.779768 0.869929
O O2 0.612295 0.831061 0.927031
O O3 0.613234 0.714987 0.911343
O O4 0.663557 0.765938 0.023825
O O5 0.537797 0.659800 0.863159
O O6 0.448473 0.686460 0.838306
O O7 0.472807 0.584693 0.903589
O O8 0.479638 0.679206 0.986936
O O9 0.982239 0.125000 0.125000
O O10 0.026511 0.224965 0.108169
O O11 0.552590 0.418238 0.434673
O O12 0.625000 0.625000 0.817198
O O13 0.586593 0.729780 0.769205
O O14 0.000000 0.750000 0.250000
O O15 0.250000 0.250000 0.000000
#
# Coordination Sequence:
#
# PCOD9514353 Si02
#       7
#    32  32  32  16  32  32  32
#     4  10  19  37  61  88 118 160 196 246 313 365
#     4  11  21  39  60  89 120 161 206 250 301 383
#     4  11  20  35  62  87 121 158 199 241 303 379
#     4  10  18  38  64  86 119 158 203 260 310 362
#     4  10  21  38  62  87 122 158 200 260 321 357
#     4   9  22  39  61  86 117 161 211 250 307 373
#     4  10  19  34  59  86 117 157 198 237 301 376
#
# _framework density 19.355073999999998
#
# number of rings (size 3 to 8) (size 9 to 14) (size 15 to 20)
#    0.000    1.846    3.846    1.846    0.000    3.692 
#    0.000    9.231    0.000    6.462    0.000    0.000 
#    0.000    0.000    0.000    0.000    0.000    0.000 
#
# Total GULP energy -290084.347885 kJ/mol
# GULP energy per Si atom -5578.545152 kJ/mol
# Density = 1.931102 g / cm^3
# Si number density = 19.355074 Si / 1000 Ang^3
#
#
#
# Elastic Constant Matrix: (Units=GPa)
#
#
# Indices 1 2 3 4 5 6 
#
# 1 61.5684 34.1594 22.4945 0.0000 0.0000 0.0000
# 2 34.1594 110.7443 40.5537 0.0000 0.0000 0.0000
# 3 22.4945 40.5537 103.2801 0.0000 0.0000 0.0000
# 4 0.0000 0.0000 0.0000 27.2393 0.0000 0.0000
# 5 0.0000 0.0000 0.0000 0.0000 27.1585 0.0000
# 6 0.0000 0.0000 0.0000 0.0000 0.0000 -1.7825
#
#
#
# Elastic Compliance Matrix: (Units=1/GPa)
#
#
# Indices 1 2 3 4 5 6 
#
# 1 0.020038 -0.005352 -0.002263 0.000000 0.000000 0.000000
# 2 -0.005352 0.011976 -0.003537 0.000000 0.000000 0.000000
# 3 -0.002263 -0.003537 0.011564 0.000000 0.000000 0.000000
# 4 0.000000 0.000000 0.000000 0.036712 0.000000 0.000000
# 5 0.000000 0.000000 0.000000 0.000000 0.036821 0.000000
# 6 0.000000 0.000000 0.000000 0.000000 0.000000 -0.560998
#
#
# Mechanical properties :
#
#
# Convention : Reuss Voigt Hill
#
# Bulk Modulus (GPa) = 47.00417 52.22311 49.61364
# Shear Modulus (GPa) = -12.06295 22.41540 5.17623
#
# Velocity S-wave (km/s) = -2.49920 3.40680 1.63712
# Velocity P-wave (km/s) = 4.00124 6.52037 5.40949
#
# Compressibility (1/GPa) = 0.02127471
#
# Stress axis : x y z
#
# Youngs Moduli (GPa) = 49.90426 83.50143 86.47575
#
# Poissons Ratio (x) = 0.44692 0.19567
# Poissons Ratio (y) = 0.26710 0.30584
# Poissons Ratio (z) = 0.11292 0.29532
#
# Static dielectric constant tensor:
#      x y z
#    x 1.723690 0.000000 0.000000 
#    y 0.000000 1.665910 0.000000 
#    z 0.000000 0.000000 1.687580 
# 
# From -- ./inp_files/38742.got.cif
#   From: 2010.05.17/outbox.cif.g08.bks.cpg/sg70_20_cif.got.tgz:38742.got - 2010.06.03 15:57:51.
