data_PCOD9514707
_publ_section_title
;
Structure prediction by ZEFSAII (Michael W. Deem and Ramdas Pophale) SiO2 
 PCOD9514707
Probable space group: F D D D
;
_chemical_formula_sum "Si O2"
_cell_formula_units_Z 192
_cell_length_a 16.053437
_cell_length_b 26.670089
_cell_length_c 22.905510
_cell_angle_alpha 90.000000
_cell_angle_beta 90.000000
_cell_angle_gamma 90.000000
_cell_volume 9806.916080
_symmetry_space_group_name_H-M "F D D D"
_symmetry_group_IT_number 70
_space_group.IT_coordinate_system_code '2'
_symmetry_cell_setting 'orthorhombic'
loop_
_space_group_symop_operation_xyz
x,y,z
1/4-x,1/4-y,z
x,1/4-y,1/4-z
1/4-x,y,1/4-z
-x,-y,-z
3/4+x,3/4+y,-z
-x,3/4+y,3/4+z
3/4+x,-y,3/4+z
x,1/2+y,1/2+z
1/4-x,3/4-y,1/2+z
x,3/4-y,3/4-z
1/4-x,1/2+y,3/4-z
-x,1/2-y,1/2-z
3/4+x,1/4+y,1/2-z
-x,1/4+y,1/4+z
3/4+x,1/2-y,1/4+z
1/2+x,y,1/2+z
3/4-x,1/4-y,1/2+z
1/2+x,1/4-y,3/4-z
3/4-x,y,3/4-z
1/2-x,-y,1/2-z
1/4+x,3/4+y,1/2-z
1/2-x,3/4+y,1/4+z
1/4+x,-y,1/4+z
1/2+x,1/2+y,z
3/4-x,3/4-y,z
1/2+x,3/4-y,1/4-z
3/4-x,1/2+y,1/4-z
1/2-x,1/2-y,-z
1/4+x,1/4+y,-z
1/2-x,1/4+y,3/4+z
1/4+x,1/2-y,3/4+z
loop_
_atom_site_type_symbol
_atom_site_label
_atom_site_fract_x
_atom_site_fract_y
_atom_site_fract_z
Si Si1 0.708539 0.511518 0.960538
Si Si2 0.607250 0.298361 0.222351
Si Si3 0.921942 0.625000 0.625000
Si Si4 0.195820 0.398416 0.480261
Si Si5 0.319425 0.976726 0.671805
Si Si6 0.875000 0.375000 0.734000
Si Si7 0.672745 0.177593 0.677920
O O1 0.804046 0.528844 0.951508
O O2 0.704464 0.457197 0.990940
O O3 0.666921 0.513963 0.896695
O O4 0.671249 0.547404 0.009577
O O5 0.598825 0.358620 0.226811
O O6 0.529267 0.280122 0.184206
O O7 0.594841 0.272864 0.286324
O O8 0.860544 0.603583 0.576862
O O9 0.984698 0.585507 0.655491
O O10 0.291188 0.379019 0.477698
O O11 0.363232 0.925447 0.695115
O O12 0.625000 0.125000 0.684251
O O13 0.625000 0.205439 0.625000
#
# Coordination Sequence:
#
# PCOD9514707 Si02
#       7
#    32  32  16  32  32  16  32
#     4  12  22  38  68  91 121 168 217 259 322 377
#     4  10  21  42  58  90 135 165 208 264 309 385
#     4  10  19  41  66  86 124 162 212 263 313 380
#     4  11  22  36  65  94 124 173 210 253 312 382
#     4  10  22  38  62  89 132 171 204 259 322 373
#     4  10  22  41  54  94 139 164 206 256 314 388
#     4   9  22  44  66  87 121 160 208 275 329 372
#
# _framework density 19.578019999999999
#
# number of rings (size 3 to 8) (size 9 to 14) (size 15 to 20)
#    0.000    1.833    3.333    1.500    1.167    0.333 
#    3.000    6.667    0.000    0.000    0.000    0.000 
#    0.000    0.000    0.000    0.000    0.000    0.000 
#
# Total GULP energy -267558.848188 kJ/mol
# GULP energy per Si atom -5574.142671 kJ/mol
# Density = 1.953346 g / cm^3
# Si number density = 19.578020 Si / 1000 Ang^3
#
#
#
# Elastic Constant Matrix: (Units=GPa)
#
#
# Indices 1 2 3 4 5 6 
#
# 1 70.8456 28.6982 24.1168 0.0000 0.0000 0.0000
# 2 28.6982 95.5981 24.9050 0.0000 0.0000 0.0000
# 3 24.1168 24.9050 121.2052 0.0000 0.0000 0.0000
# 4 0.0000 0.0000 0.0000 18.6453 0.0000 0.0000
# 5 0.0000 0.0000 0.0000 0.0000 13.3017 0.0000
# 6 0.0000 0.0000 0.0000 0.0000 0.0000 19.5070
#
#
#
# Elastic Compliance Matrix: (Units=1/GPa)
#
#
# Indices 1 2 3 4 5 6 
#
# 1 0.016718 -0.004387 -0.002425 0.000000 0.000000 0.000000
# 2 -0.004387 0.012203 -0.001635 0.000000 0.000000 0.000000
# 3 -0.002425 -0.001635 0.009069 0.000000 0.000000 0.000000
# 4 0.000000 0.000000 0.000000 0.053633 0.000000 0.000000
# 5 0.000000 0.000000 0.000000 0.000000 0.075178 0.000000
# 6 0.000000 0.000000 0.000000 0.000000 0.000000 0.051264
#
#
# Mechanical properties :
#
#
# Convention : Reuss Voigt Hill
#
# Bulk Modulus (GPa) = 47.40039 49.23210 48.31625
# Shear Modulus (GPa) = 20.66206 24.28609 22.47408
#
# Velocity S-wave (km/s) = 3.25217 3.52586 3.39178
# Velocity P-wave (km/s) = 6.19401 6.46350 6.33019
#
# Compressibility (1/GPa) = 0.02109687
#
# Stress axis : x y z
#
# Youngs Moduli (GPa) = 59.81676 81.94559 110.26744
#
# Poissons Ratio (x) = 0.35948 0.26740
# Poissons Ratio (y) = 0.26241 0.18025
# Poissons Ratio (z) = 0.14506 0.13395
#
# Static dielectric constant tensor:
#      x y z
#    x 1.687270 0.000000 0.000000 
#    y 0.000000 1.757420 0.000000 
#    z 0.000000 0.000000 1.690730 
# 
# From -- ./inp_files/51576.got.cif
#   From: 2010.05.17/outbox.cif.g08.bks.cpg/sg70_26_cif.got.tgz:51576.got - 2010.06.03 15:57:51.
