data_PCOD9514643
_publ_section_title
;
Structure prediction by ZEFSAII (Michael W. Deem and Ramdas Pophale) SiO2 
 PCOD9514643
Probable space group: F D D D
;
_chemical_formula_sum "Si O2"
_cell_formula_units_Z 128
_cell_length_a 18.179226
_cell_length_b 14.361129
_cell_length_c 23.503923
_cell_angle_alpha 90.000000
_cell_angle_beta 90.000000
_cell_angle_gamma 90.000000
_cell_volume 6136.268122
_symmetry_space_group_name_H-M "F D D D"
_symmetry_group_IT_number 70
_space_group.IT_coordinate_system_code '2'
_symmetry_cell_setting 'orthorhombic'
loop_
_space_group_symop_operation_xyz
x,y,z
1/4-x,1/4-y,z
x,1/4-y,1/4-z
1/4-x,y,1/4-z
-x,-y,-z
3/4+x,3/4+y,-z
-x,3/4+y,3/4+z
3/4+x,-y,3/4+z
x,1/2+y,1/2+z
1/4-x,3/4-y,1/2+z
x,3/4-y,3/4-z
1/4-x,1/2+y,3/4-z
-x,1/2-y,1/2-z
3/4+x,1/4+y,1/2-z
-x,1/4+y,1/4+z
3/4+x,1/2-y,1/4+z
1/2+x,y,1/2+z
3/4-x,1/4-y,1/2+z
1/2+x,1/4-y,3/4-z
3/4-x,y,3/4-z
1/2-x,-y,1/2-z
1/4+x,3/4+y,1/2-z
1/2-x,3/4+y,1/4+z
1/4+x,-y,1/4+z
1/2+x,1/2+y,z
3/4-x,3/4-y,z
1/2+x,3/4-y,1/4-z
3/4-x,1/2+y,1/4-z
1/2-x,1/2-y,-z
1/4+x,1/4+y,-z
1/2-x,1/4+y,3/4+z
1/4+x,1/2-y,3/4+z
loop_
_atom_site_type_symbol
_atom_site_label
_atom_site_fract_x
_atom_site_fract_y
_atom_site_fract_z
Si Si1 0.012684 0.459115 0.717807
Si Si2 0.255164 0.916064 0.313152
Si Si3 0.875000 0.375000 0.655987
Si Si4 0.596370 0.956407 0.828658
Si Si5 0.375000 0.536280 0.875000
O O1 0.039419 0.429613 0.779473
O O2 0.066384 0.419773 0.667964
O O3 0.019106 0.572317 0.721475
O O4 0.932539 0.429976 0.695842
O O5 0.237666 0.875000 0.375000
O O6 0.178170 0.965476 0.298829
O O7 0.325071 0.977696 0.329995
O O8 0.914172 0.301168 0.614051
O O9 0.593154 0.875000 0.875000
#
# Coordination Sequence:
#
# PCOD9514643 Si02
#       5
#    32  32  16  32  16
#     4  11  23  39  69  99 139 183 222 286 346 415
#     4   9  17  39  60  95 138 160 215 293 332 391
#     4  12  24  46  69 101 136 186 228 278 364 404
#     4  11  24  44  67  97 139 181 230 288 340 414
#     4  10  19  38  66 108 139 166 223 296 360 412
#
# _framework density 20.859583000000001
#
# number of rings (size 3 to 8) (size 9 to 14) (size 15 to 20)
#    0.000    1.500    7.500    3.375    3.500    4.000 
#    0.000    0.625    0.000    0.000    0.000    0.000 
#    0.000    0.000    0.000    0.000    0.000    0.000 
#
# Total GULP energy -178146.146989 kJ/mol
# GULP energy per Si atom -5567.067093 kJ/mol
# Density = 2.081211 g / cm^3
# Si number density = 20.859583 Si / 1000 Ang^3
#
#
#
# Elastic Constant Matrix: (Units=GPa)
#
#
# Indices 1 2 3 4 5 6 
#
# 1 75.7040 -8.6254 56.5194 0.0000 0.0000 0.0000
# 2 -8.6254 45.4567 28.0320 0.0000 0.0000 0.0000
# 3 56.5194 28.0320 103.8041 0.0000 0.0000 0.0000
# 4 0.0000 0.0000 0.0000 9.0405 0.0000 0.0000
# 5 0.0000 0.0000 0.0000 0.0000 2.3518 0.0000
# 6 0.0000 0.0000 0.0000 0.0000 0.0000 26.4967
#
#
#
# Elastic Compliance Matrix: (Units=1/GPa)
#
#
# Indices 1 2 3 4 5 6 
#
# 1 0.033480 0.021110 -0.023930 0.000000 0.000000 0.000000
# 2 0.021110 0.039705 -0.022216 0.000000 0.000000 0.000000
# 3 -0.023930 -0.022216 0.028662 0.000000 0.000000 0.000000
# 4 0.000000 0.000000 0.000000 0.110613 0.000000 0.000000
# 5 0.000000 0.000000 0.000000 0.000000 0.425207 0.000000
# 6 0.000000 0.000000 0.000000 0.000000 0.000000 0.037741
#
#
# Mechanical properties :
#
#
# Convention : Reuss Voigt Hill
#
# Bulk Modulus (GPa) = 19.31435 41.86853 30.59144
# Shear Modulus (GPa) = 6.73184 17.51372 12.12278
#
# Velocity S-wave (km/s) = 1.79839 2.90073 2.41334
# Velocity P-wave (km/s) = 3.68668 5.59769 4.73950
#
# Compressibility (1/GPa) = 0.05177499
#
# Stress axis : x y z
#
# Youngs Moduli (GPa) = 29.86821 25.18593 34.88882
#
# Poissons Ratio (x) = -0.53168 0.83490
# Poissons Ratio (y) = -0.63052 0.77510
# Poissons Ratio (z) = 0.71475 0.55953
#
# Static dielectric constant tensor:
#      x y z
#    x 1.872490 0.000000 0.000000 
#    y 0.000000 1.770810 0.000000 
#    z 0.000000 0.000000 1.704350 
# 
# From -- ./inp_files/29666.got.cif
#   From: 2010.05.17/outbox.cif.g08.bks.cpg/sg70_15_cif.got.tgz:29666.got - 2010.06.03 15:57:51.
