data_PCOD9514767
_publ_section_title
;
Structure prediction by ZEFSAII (Michael W. Deem and Ramdas Pophale) SiO2 
 PCOD9514767
Probable space group: F D D D
;
_chemical_formula_sum "Si O2"
_cell_formula_units_Z 160
_cell_length_a 13.616166
_cell_length_b 23.550676
_cell_length_c 18.554504
_cell_angle_alpha 90.000000
_cell_angle_beta 90.000000
_cell_angle_gamma 90.000000
_cell_volume 5949.871199
_symmetry_space_group_name_H-M "F D D D"
_symmetry_group_IT_number 70
_space_group.IT_coordinate_system_code '2'
_symmetry_cell_setting 'orthorhombic'
loop_
_space_group_symop_operation_xyz
x,y,z
1/4-x,1/4-y,z
x,1/4-y,1/4-z
1/4-x,y,1/4-z
-x,-y,-z
3/4+x,3/4+y,-z
-x,3/4+y,3/4+z
3/4+x,-y,3/4+z
x,1/2+y,1/2+z
1/4-x,3/4-y,1/2+z
x,3/4-y,3/4-z
1/4-x,1/2+y,3/4-z
-x,1/2-y,1/2-z
3/4+x,1/4+y,1/2-z
-x,1/4+y,1/4+z
3/4+x,1/2-y,1/4+z
1/2+x,y,1/2+z
3/4-x,1/4-y,1/2+z
1/2+x,1/4-y,3/4-z
3/4-x,y,3/4-z
1/2-x,-y,1/2-z
1/4+x,3/4+y,1/2-z
1/2-x,3/4+y,1/4+z
1/4+x,-y,1/4+z
1/2+x,1/2+y,z
3/4-x,3/4-y,z
1/2+x,3/4-y,1/4-z
3/4-x,1/2+y,1/4-z
1/2-x,1/2-y,-z
1/4+x,1/4+y,-z
1/2-x,1/4+y,3/4+z
1/4+x,1/2-y,3/4+z
loop_
_atom_site_type_symbol
_atom_site_label
_atom_site_fract_x
_atom_site_fract_y
_atom_site_fract_z
Si Si1 0.218419 0.835257 0.003563
Si Si2 0.891530 0.708356 0.043712
Si Si3 0.816633 0.818706 0.970123
Si Si4 0.340466 0.475729 0.485131
Si Si5 0.990350 0.086273 0.869663
O O1 0.139298 0.786110 0.001925
O O2 0.246875 0.851053 0.085589
O O3 0.170712 0.893168 0.975013
O O4 0.319279 0.815892 0.966889
O O5 0.781546 0.698518 0.074687
O O6 0.046740 0.702455 0.938612
O O7 0.873107 0.759761 0.985775
O O8 0.999428 0.727721 0.070630
O O9 0.875000 0.875000 0.947169
O O10 0.780763 0.833717 0.050759
O O11 0.875000 0.073696 0.875000
#
# Coordination Sequence:
#
# PCOD9514767 Si02
#       5
#    32  32  32  32  32
#     4  10  20  37  60  84 116 163 206 250 311 378
#     4  10  20  34  54  86 120 158 200 250 316 369
#     4  11  21  34  56  85 122 158 203 259 305 368
#     4  10  20  37  60  85 120 160 202 255 317 370
#     4  11  20  37  60  90 120 152 210 265 297 363
#
# _framework density 26.891338000000001
#
# number of rings (size 3 to 8) (size 9 to 14) (size 15 to 20)
#    0.000    1.600    4.000    4.800    0.000    0.000 
#    0.000    1.000    0.000    1.200    0.000    5.600 
#    0.000    0.000    0.000    0.000    0.000    0.000 
#
# Total GULP energy -223265.163964 kJ/mol
# GULP energy per Si atom -5581.629099 kJ/mol
# Density = 2.683013 g / cm^3
# Si number density = 26.891338 Si / 1000 Ang^3
#
#
#
# Elastic Constant Matrix: (Units=GPa)
#
#
# Indices 1 2 3 4 5 6 
#
# 1 208.8583 109.0774 34.2669 0.0000 0.0000 0.0000
# 2 109.0774 206.0367 3.4892 0.0000 0.0000 0.0000
# 3 34.2669 3.4892 93.8381 0.0000 0.0000 0.0000
# 4 0.0000 0.0000 0.0000 27.5991 0.0000 0.0000
# 5 0.0000 0.0000 0.0000 0.0000 15.3138 0.0000
# 6 0.0000 0.0000 0.0000 0.0000 0.0000 48.3882
#
#
#
# Elastic Compliance Matrix: (Units=1/GPa)
#
#
# Indices 1 2 3 4 5 6 
#
# 1 0.007148 -0.003742 -0.002471 0.000000 0.000000 0.000000
# 2 -0.003742 0.006816 0.001113 0.000000 0.000000 0.000000
# 3 -0.002471 0.001113 0.011518 0.000000 0.000000 0.000000
# 4 0.000000 0.000000 0.000000 0.036233 0.000000 0.000000
# 5 0.000000 0.000000 0.000000 0.000000 0.065300 0.000000
# 6 0.000000 0.000000 0.000000 0.000000 0.000000 0.020666
#
#
# Mechanical properties :
#
#
# Convention : Reuss Voigt Hill
#
# Bulk Modulus (GPa) = 65.44096 89.15556 77.29826
# Shear Modulus (GPa) = 30.67961 42.38686 36.53323
#
# Velocity S-wave (km/s) = 3.38135 3.97448 3.68985
# Velocity P-wave (km/s) = 6.29546 7.36804 6.85277
#
# Compressibility (1/GPa) = 0.01528095
#
# Stress axis : x y z
#
# Youngs Moduli (GPa) = 139.90436 146.71764 86.82362
#
# Poissons Ratio (x) = 0.54905 0.21454
# Poissons Ratio (y) = 0.52355 -0.09664
# Poissons Ratio (z) = 0.34570 -0.16331
#
# Static dielectric constant tensor:
#      x y z
#    x 2.170950 0.000000 0.000000 
#    y 0.000000 2.055670 0.000000 
#    z 0.000000 0.000000 2.245390 
# 
# From -- ./inp_files/58532.got.cif
#   From: 2010.05.17/outbox.cif.g08.bks.cpg/sg70_30_cif.got.tgz:58532.got - 2010.06.03 15:57:51.
