data_PCOD9514585
_publ_section_title
;
Structure prediction by ZEFSAII (Michael W. Deem and Ramdas Pophale) SiO2 
 PCOD9514585
Probable space group: F D D D
;
_chemical_formula_sum "Si O2"
_cell_formula_units_Z 208
_cell_length_a 21.355669
_cell_length_b 16.484275
_cell_length_c 29.861539
_cell_angle_alpha 90.000000
_cell_angle_beta 90.000000
_cell_angle_gamma 90.000000
_cell_volume 10512.238816
_symmetry_space_group_name_H-M "F D D D"
_symmetry_group_IT_number 70
_space_group.IT_coordinate_system_code '2'
_symmetry_cell_setting 'orthorhombic'
loop_
_space_group_symop_operation_xyz
x,y,z
1/4-x,1/4-y,z
x,1/4-y,1/4-z
1/4-x,y,1/4-z
-x,-y,-z
3/4+x,3/4+y,-z
-x,3/4+y,3/4+z
3/4+x,-y,3/4+z
x,1/2+y,1/2+z
1/4-x,3/4-y,1/2+z
x,3/4-y,3/4-z
1/4-x,1/2+y,3/4-z
-x,1/2-y,1/2-z
3/4+x,1/4+y,1/2-z
-x,1/4+y,1/4+z
3/4+x,1/2-y,1/4+z
1/2+x,y,1/2+z
3/4-x,1/4-y,1/2+z
1/2+x,1/4-y,3/4-z
3/4-x,y,3/4-z
1/2-x,-y,1/2-z
1/4+x,3/4+y,1/2-z
1/2-x,3/4+y,1/4+z
1/4+x,-y,1/4+z
1/2+x,1/2+y,z
3/4-x,3/4-y,z
1/2+x,3/4-y,1/4-z
3/4-x,1/2+y,1/4-z
1/2-x,1/2-y,-z
1/4+x,1/4+y,-z
1/2-x,1/4+y,3/4+z
1/4+x,1/2-y,3/4+z
loop_
_atom_site_type_symbol
_atom_site_label
_atom_site_fract_x
_atom_site_fract_y
_atom_site_fract_z
Si Si1 0.511991 0.194000 0.371591
Si Si2 0.194051 0.440950 0.453351
Si Si3 0.439543 0.746691 0.717479
Si Si4 0.325826 0.484717 0.468682
Si Si5 0.375000 0.992783 0.875000
Si Si6 0.344012 0.792779 0.488534
Si Si7 0.729907 0.339014 0.553465
O O1 0.539319 0.261818 0.406781
O O2 0.548694 0.198898 0.325875
O O3 0.438556 0.210984 0.360619
O O4 0.510963 0.110823 0.399257
O O5 0.179321 0.346034 0.450053
O O6 0.259910 0.444615 0.480062
O O7 0.141468 0.490888 0.480289
O O8 0.500000 0.750000 0.750000
O O9 0.379430 0.772661 0.745444
O O10 0.350139 0.452933 0.420583
O O11 0.308101 0.579812 0.460614
O O12 0.375000 0.875000 0.471783
O O13 0.317299 0.735339 0.449871
O O14 0.285678 0.821145 0.519089
#
# Coordination Sequence:
#
# PCOD9514585 Si02
#       7
#    32  32  32  32  16  32  32
#     4  10  20  38  58  87 124 166 210 261 323 380
#     4  10  22  37  59  91 125 162 211 263 317 388
#     4  12  23  38  59  86 125 169 210 265 325 374
#     4  10  19  37  57  89 123 161 213 262 316 381
#     4   8  16  34  57  78 115 154 204 252 298 382
#     4  11  17  35  64  97 125 164 220 266 329 391
#     4   9  20  33  62  93 125 165 215 270 326 396
#
# _framework density 19.786460000000002
#
# number of rings (size 3 to 8) (size 9 to 14) (size 15 to 20)
#    0.000    2.154    6.154    0.462    0.000    0.615 
#    0.000    3.846    0.000    0.000    0.000   19.385 
#    0.000    0.000    0.000    0.000    0.000    0.154 
#
# Total GULP energy -289953.154198 kJ/mol
# GULP energy per Si atom -5576.022196 kJ/mol
# Density = 1.974143 g / cm^3
# Si number density = 19.786460 Si / 1000 Ang^3
#
#
#
# Elastic Constant Matrix: (Units=GPa)
#
#
# Indices 1 2 3 4 5 6 
#
# 1 88.7773 27.5766 47.1699 0.0000 0.0000 0.0000
# 2 27.5766 102.6039 33.6559 0.0000 0.0000 0.0000
# 3 47.1699 33.6559 111.4326 0.0000 0.0000 0.0000
# 4 0.0000 0.0000 0.0000 16.2437 0.0000 0.0000
# 5 0.0000 0.0000 0.0000 0.0000 36.1020 0.0000
# 6 0.0000 0.0000 0.0000 0.0000 0.0000 29.7241
#
#
#
# Elastic Compliance Matrix: (Units=1/GPa)
#
#
# Indices 1 2 3 4 5 6 
#
# 1 0.014950 -0.002156 -0.005677 0.000000 0.000000 0.000000
# 2 -0.002156 0.011129 -0.002449 0.000000 0.000000 0.000000
# 3 -0.005677 -0.002449 0.012117 0.000000 0.000000 0.000000
# 4 0.000000 0.000000 0.000000 0.061562 0.000000 0.000000
# 5 0.000000 0.000000 0.000000 0.000000 0.027699 0.000000
# 6 0.000000 0.000000 0.000000 0.000000 0.000000 0.033643
#
#
# Mechanical properties :
#
#
# Convention : Reuss Voigt Hill
#
# Bulk Modulus (GPa) = 56.71439 57.73540 57.22489
# Shear Modulus (GPa) = 26.66073 29.37472 28.01773
#
# Velocity S-wave (km/s) = 3.67471 3.85721 3.76707
# Velocity P-wave (km/s) = 6.83594 7.00572 6.92135
#
# Compressibility (1/GPa) = 0.01763221
#
# Stress axis : x y z
#
# Youngs Moduli (GPa) = 66.88789 89.85656 82.52955
#
# Poissons Ratio (x) = 0.19372 0.46855
# Poissons Ratio (y) = 0.14420 0.20208
# Poissons Ratio (z) = 0.37975 0.22003
#
# Static dielectric constant tensor:
#      x y z
#    x 1.657580 0.000000 0.000000 
#    y 0.000000 1.751510 0.000000 
#    z 0.000000 0.000000 1.695370 
# 
# From -- ./inp_files/67302.got.cif
#   From: 2010.05.17/outbox.cif.g08.bks.cpg/sg70_34_cif.got.tgz:67302.got - 2010.06.03 15:57:51.
