data_PCOD9514917
_publ_section_title
;
Structure prediction by ZEFSAII (Michael W. Deem and Ramdas Pophale) SiO2 
 PCOD9514917
Probable space group: F D D D
;
_chemical_formula_sum "Si O2"
_cell_formula_units_Z 184
_cell_length_a 15.910512
_cell_length_b 19.928110
_cell_length_c 22.601863
_cell_angle_alpha 90.000000
_cell_angle_beta 90.000000
_cell_angle_gamma 90.000000
_cell_volume 7166.292087
_symmetry_space_group_name_H-M "F D D D"
_symmetry_group_IT_number 70
_space_group.IT_coordinate_system_code '2'
_symmetry_cell_setting 'orthorhombic'
loop_
_space_group_symop_operation_xyz
x,y,z
1/4-x,1/4-y,z
x,1/4-y,1/4-z
1/4-x,y,1/4-z
-x,-y,-z
3/4+x,3/4+y,-z
-x,3/4+y,3/4+z
3/4+x,-y,3/4+z
x,1/2+y,1/2+z
1/4-x,3/4-y,1/2+z
x,3/4-y,3/4-z
1/4-x,1/2+y,3/4-z
-x,1/2-y,1/2-z
3/4+x,1/4+y,1/2-z
-x,1/4+y,1/4+z
3/4+x,1/2-y,1/4+z
1/2+x,y,1/2+z
3/4-x,1/4-y,1/2+z
1/2+x,1/4-y,3/4-z
3/4-x,y,3/4-z
1/2-x,-y,1/2-z
1/4+x,3/4+y,1/2-z
1/2-x,3/4+y,1/4+z
1/4+x,-y,1/4+z
1/2+x,1/2+y,z
3/4-x,3/4-y,z
1/2+x,3/4-y,1/4-z
3/4-x,1/2+y,1/4-z
1/2-x,1/2-y,-z
1/4+x,1/4+y,-z
1/2-x,1/4+y,3/4+z
1/4+x,1/2-y,3/4+z
loop_
_atom_site_type_symbol
_atom_site_label
_atom_site_fract_x
_atom_site_fract_y
_atom_site_fract_z
Si Si1 0.387577 0.952849 0.304452
Si Si2 0.517324 0.738909 0.331053
Si Si3 0.375000 0.375000 0.375000
Si Si4 0.983220 0.639392 0.206973
Si Si5 0.838710 0.125000 0.625000
Si Si6 0.524020 0.616780 0.409342
Si Si7 0.288556 0.480651 0.054354
O O1 0.375000 0.956266 0.375000
O O2 0.375000 0.875000 0.289987
O O3 0.314566 0.008153 0.289258
O O4 0.470746 0.965289 0.265384
O O5 0.534814 0.816518 0.346718
O O6 0.494572 0.688519 0.384417
O O7 0.611197 0.715468 0.313391
O O8 0.435859 0.335319 0.329493
O O9 0.987313 0.651720 0.276522
O O10 0.898664 0.660669 0.173604
O O11 0.982438 0.559017 0.193741
O O12 0.625000 0.625000 0.418329
O O13 0.501301 0.564236 0.356825
#
# Coordination Sequence:
#
# PCOD9514917 Si02
#       7
#    32  32   8  32  16  32  32
#     4  11  21  34  57  85 117 159 206 260 325 397
#     4  10  20  37  59  86 123 167 212 273 331 392
#     4  10  20  40  64  92 118 164 224 262 318 404
#     4  10  20  39  62  89 131 165 217 275 327 392
#     4   9  20  37  57  92 125 166 218 272 333 402
#     4  10  20  39  63  91 128 176 217 272 335 395
#     4  10  22  38  60  90 125 166 216 271 329 394
#
# _framework density 25.675761000000001
#
# number of rings (size 3 to 8) (size 9 to 14) (size 15 to 20)
#    0.000    1.913    0.870    4.174    0.000    0.000 
#    3.130    5.217    1.913    0.000    0.000    0.000 
#    0.000    0.000    0.000    0.000    0.000    0.000 
#
# Total GULP energy -256475.717844 kJ/mol
# GULP energy per Si atom -5575.559084 kJ/mol
# Density = 2.561732 g / cm^3
# Si number density = 25.675761 Si / 1000 Ang^3
#
#
#
# Elastic Constant Matrix: (Units=GPa)
#
#
# Indices 1 2 3 4 5 6 
#
# 1 87.4680 -4.2129 31.6273 0.0000 0.0000 0.0000
# 2 -4.2129 57.1193 40.4768 0.0000 0.0000 0.0000
# 3 31.6273 40.4768 171.9116 0.0000 0.0000 0.0000
# 4 0.0000 0.0000 0.0000 35.4506 0.0000 0.0000
# 5 0.0000 0.0000 0.0000 0.0000 30.6414 0.0000
# 6 0.0000 0.0000 0.0000 0.0000 0.0000 17.8138
#
#
#
# Elastic Compliance Matrix: (Units=1/GPa)
#
#
# Indices 1 2 3 4 5 6 
#
# 1 0.012692 0.003109 -0.003067 0.000000 0.000000 0.000000
# 2 0.003109 0.021775 -0.005699 0.000000 0.000000 0.000000
# 3 -0.003067 -0.005699 0.007723 0.000000 0.000000 0.000000
# 4 0.000000 0.000000 0.000000 0.028208 0.000000 0.000000
# 5 0.000000 0.000000 0.000000 0.000000 0.032636 0.000000
# 6 0.000000 0.000000 0.000000 0.000000 0.000000 0.056136
#
#
# Mechanical properties :
#
#
# Convention : Reuss Voigt Hill
#
# Bulk Modulus (GPa) = 32.38710 50.25348 41.32029
# Shear Modulus (GPa) = 27.65869 33.35501 30.50685
#
# Velocity S-wave (km/s) = 3.28568 3.60819 3.45071
# Velocity P-wave (km/s) = 5.19957 6.08059 5.65726
#
# Compressibility (1/GPa) = 0.03087649
#
# Stress axis : x y z
#
# Youngs Moduli (GPa) = 78.79271 45.92401 129.48253
#
# Poissons Ratio (x) = -0.14280 0.39713
# Poissons Ratio (y) = -0.24501 0.73793
# Poissons Ratio (z) = 0.24166 0.26172
#
# Static dielectric constant tensor:
#      x y z
#    x 2.197150 0.000000 0.000000 
#    y 0.000000 1.983900 0.000000 
#    z 0.000000 0.000000 2.285290 
# 
# From -- ./inp_files/52273.got.cif
#   From: 2010.05.17/outbox.cif.g08.bks.cpg/sg70_27_cif.got.tgz:52273.got - 2010.06.03 15:57:51.
