data_PCOD9514605
_publ_section_title
;
Structure prediction by ZEFSAII (Michael W. Deem and Ramdas Pophale) SiO2 
 PCOD9514605
Probable space group: F D D D
;
_chemical_formula_sum "Si O2"
_cell_formula_units_Z 56
_cell_length_a 11.862664
_cell_length_b 33.345420
_cell_length_c 4.908926
_cell_angle_alpha 90.000000
_cell_angle_beta 90.000000
_cell_angle_gamma 90.000000
_cell_volume 1941.801833
_symmetry_space_group_name_H-M "F D D D"
_symmetry_group_IT_number 70
_space_group.IT_coordinate_system_code '2'
_symmetry_cell_setting 'orthorhombic'
loop_
_space_group_symop_operation_xyz
x,y,z
1/4-x,1/4-y,z
x,1/4-y,1/4-z
1/4-x,y,1/4-z
-x,-y,-z
3/4+x,3/4+y,-z
-x,3/4+y,3/4+z
3/4+x,-y,3/4+z
x,1/2+y,1/2+z
1/4-x,3/4-y,1/2+z
x,3/4-y,3/4-z
1/4-x,1/2+y,3/4-z
-x,1/2-y,1/2-z
3/4+x,1/4+y,1/2-z
-x,1/4+y,1/4+z
3/4+x,1/2-y,1/4+z
1/2+x,y,1/2+z
3/4-x,1/4-y,1/2+z
1/2+x,1/4-y,3/4-z
3/4-x,y,3/4-z
1/2-x,-y,1/2-z
1/4+x,3/4+y,1/2-z
1/2-x,3/4+y,1/4+z
1/4+x,-y,1/4+z
1/2+x,1/2+y,z
3/4-x,3/4-y,z
1/2+x,3/4-y,1/4-z
3/4-x,1/2+y,1/4-z
1/2-x,1/2-y,-z
1/4+x,1/4+y,-z
1/2-x,1/4+y,3/4+z
1/4+x,1/2-y,3/4+z
loop_
_atom_site_type_symbol
_atom_site_label
_atom_site_fract_x
_atom_site_fract_y
_atom_site_fract_z
Si Si1 0.625000 0.625000 0.125000
Si Si2 0.625000 0.982930 0.625000
Si Si3 0.266204 0.303720 0.569113
O O1 0.705864 0.653841 0.298564
O O2 0.661556 0.951548 0.383788
O O3 0.719205 0.017539 0.537600
O O4 0.375000 0.297119 0.375000
#
# Coordination Sequence:
#
# PCOD9514605 Si02
#       3
#     8  16  32
#     4  10  22  36  60  98 156 208 240 304 398 448
#     4   9  20  35  64 108 140 190 258 314 378 449
#     4  10  19  37  64  99 148 196 246 319 377 453
#
# _framework density 28.839193000000002
#
# number of rings (size 3 to 8) (size 9 to 14) (size 15 to 20)
#    0.000    2.286    0.000    2.571    0.000    0.000 
#    0.000    0.000   12.571    0.000    7.429    0.000 
#    0.000   36.571    0.000    0.571    0.000    0.000 
#
# Total GULP energy -78249.913085 kJ/mol
# GULP energy per Si atom -5589.279506 kJ/mol
# Density = 2.877355 g / cm^3
# Si number density = 28.839193 Si / 1000 Ang^3
#
#
#
# Elastic Constant Matrix: (Units=GPa)
#
#
# Indices 1 2 3 4 5 6 
#
# 1 181.1113 85.2921 86.3386 -0.0003 -0.0006 0.0003
# 2 85.2921 274.8076 152.6103 -0.0001 0.0000 0.0000
# 3 86.3386 152.6103 300.0168 -0.0013 -0.0014 0.0005
# 4 -0.0003 -0.0001 -0.0013 99.8952 0.0004 -0.0002
# 5 -0.0006 0.0000 -0.0014 0.0004 70.7437 -0.0004
# 6 0.0003 0.0000 0.0005 -0.0002 -0.0004 60.5155
#
#
#
# Elastic Compliance Matrix: (Units=1/GPa)
#
#
# Indices 1 2 3 4 5 6 
#
# 1 0.006776 -0.001422 -0.001227 0.000000 0.000000 0.000000
# 2 -0.001422 0.005370 -0.002322 0.000000 0.000000 0.000000
# 3 -0.001227 -0.002322 0.004867 0.000000 0.000000 0.000000
# 4 0.000000 0.000000 0.000000 0.010010 0.000000 0.000000
# 5 0.000000 0.000000 0.000000 0.000000 0.014136 0.000000
# 6 0.000000 0.000000 0.000000 0.000000 0.000000 0.016525
#
#
# Mechanical properties :
#
#
# Convention : Reuss Voigt Hill
#
# Bulk Modulus (GPa) = 141.41287 156.04643 148.72965
# Shear Modulus (GPa) = 71.44616 75.01052 73.22834
#
# Velocity S-wave (km/s) = 4.98275 5.10553 5.04451
# Velocity P-wave (km/s) = 9.06891 9.43302 9.25275
#
# Compressibility (1/GPa) = 0.00707149
#
# Stress axis : x y z
#
# Youngs Moduli (GPa) = 147.58339 186.22434 205.44478
#
# Poissons Ratio (x) = 0.26477 0.25202
# Poissons Ratio (y) = 0.20983 0.47711
# Poissons Ratio (z) = 0.18104 0.43248
#
# Static dielectric constant tensor:
#      x y z
#    x 2.634000 0.000000 0.000000 
#    y 0.000000 2.041120 0.000000 
#    z 0.000000 0.000000 2.150920 
# 
# From -- ./inp_files/729.got.cif
#   From: 2010.05.17/outbox.cif.g08.bks.cpg/sg70_1_cif.got.tgz:729.got - 2010.06.03 15:57:51.
