data_PCOD9514722
_publ_section_title
;
Structure prediction by ZEFSAII (Michael W. Deem and Ramdas Pophale) SiO2 
 PCOD9514722
Probable space group: F D D D
;
_chemical_formula_sum "Si O2"
_cell_formula_units_Z 160
_cell_length_a 38.045382
_cell_length_b 27.345358
_cell_length_c 6.900668
_cell_angle_alpha 90.000000
_cell_angle_beta 90.000000
_cell_angle_gamma 90.000000
_cell_volume 7179.210642
_symmetry_space_group_name_H-M "F D D D"
_symmetry_group_IT_number 70
_space_group.IT_coordinate_system_code '2'
_symmetry_cell_setting 'orthorhombic'
loop_
_space_group_symop_operation_xyz
x,y,z
1/4-x,1/4-y,z
x,1/4-y,1/4-z
1/4-x,y,1/4-z
-x,-y,-z
3/4+x,3/4+y,-z
-x,3/4+y,3/4+z
3/4+x,-y,3/4+z
x,1/2+y,1/2+z
1/4-x,3/4-y,1/2+z
x,3/4-y,3/4-z
1/4-x,1/2+y,3/4-z
-x,1/2-y,1/2-z
3/4+x,1/4+y,1/2-z
-x,1/4+y,1/4+z
3/4+x,1/2-y,1/4+z
1/2+x,y,1/2+z
3/4-x,1/4-y,1/2+z
1/2+x,1/4-y,3/4-z
3/4-x,y,3/4-z
1/2-x,-y,1/2-z
1/4+x,3/4+y,1/2-z
1/2-x,3/4+y,1/4+z
1/4+x,-y,1/4+z
1/2+x,1/2+y,z
3/4-x,3/4-y,z
1/2+x,3/4-y,1/4-z
3/4-x,1/2+y,1/4-z
1/2-x,1/2-y,-z
1/4+x,1/4+y,-z
1/2-x,1/4+y,3/4+z
1/4+x,1/2-y,3/4+z
loop_
_atom_site_type_symbol
_atom_site_label
_atom_site_fract_x
_atom_site_fract_y
_atom_site_fract_z
Si Si1 0.059013 0.770033 0.440541
Si Si2 0.871079 0.567488 0.101335
Si Si3 0.025317 0.081545 0.336989
Si Si4 0.236393 0.185909 0.797817
Si Si5 0.545797 0.287183 0.978776
O O1 0.098880 0.788234 0.466248
O O2 0.052190 0.711932 0.469926
O O3 0.028213 0.801109 0.548919
O O4 0.052675 0.780342 0.210100
O O5 0.878352 0.625000 0.125000
O O6 0.875000 0.554710 0.875000
O O7 0.829897 0.557176 0.128591
O O8 0.019899 0.072587 0.568187
O O9 0.029544 0.139984 0.336315
O O10 0.988895 0.069897 0.228736
O O11 0.215362 0.234509 0.849593
#
# Coordination Sequence:
#
# PCOD9514722 Si02
#       5
#    32  32  32  32  32
#     4   8  15  24  38  64  89 114 151 184 217 279
#     4  10  20  30  45  65  95 122 148 186 239 281
#     4   8  13  23  41  63  85 115 151 185 222 267
#     4   8  13  22  42  61  88 114 149 185 225 267
#     4   8  15  26  37  62  90 115 143 191 227 264
#
# _framework density 22.286570999999999
#
# number of rings (size 3 to 8) (size 9 to 14) (size 15 to 20)
#    0.000    3.600    0.000    2.400    8.400    0.000 
#    0.000    1.000    0.000    7.200    0.000    0.000 
#    0.000    1.600    0.000    0.000    0.000    0.000 
#
# Total GULP energy -223193.311247 kJ/mol
# GULP energy per Si atom -5579.832781 kJ/mol
# Density = 2.223585 g / cm^3
# Si number density = 22.286571 Si / 1000 Ang^3
#
#
#
# Elastic Constant Matrix: (Units=GPa)
#
#
# Indices 1 2 3 4 5 6 
#
# 1 138.9203 67.7273 9.7779 0.0043 -0.0038 -0.0011
# 2 67.7273 149.3247 1.3852 0.0708 -0.0075 -0.0022
# 3 9.7779 1.3852 86.2982 0.1380 -0.0091 -0.0098
# 4 0.0043 0.0708 0.1380 28.3422 -0.0063 -0.0064
# 5 -0.0038 -0.0075 -0.0091 -0.0063 -29.1655 -0.0010
# 6 -0.0011 -0.0022 -0.0098 -0.0064 -0.0010 10.5016
#
#
#
# Elastic Compliance Matrix: (Units=1/GPa)
#
#
# Indices 1 2 3 4 5 6 
#
# 1 0.009326 -0.004221 -0.000989 0.000014 0.000000 -0.000001
# 2 -0.004221 0.008608 0.000340 -0.000023 -0.000002 0.000002
# 3 -0.000989 0.000340 0.011694 -0.000058 -0.000004 0.000011
# 4 0.000014 -0.000023 -0.000058 0.035283 -0.000008 0.000021
# 5 0.000000 -0.000002 -0.000004 -0.000008 -0.034287 -0.000003
# 6 -0.000001 0.000002 0.000011 0.000021 -0.000003 0.095223
#
#
# Mechanical properties :
#
#
# Convention : Reuss Voigt Hill
#
# Bulk Modulus (GPa) = 50.27852 59.14712 54.71282
# Shear Modulus (GPa) = 35.15778 21.64586 28.40182
#
# Velocity S-wave (km/s) = 3.97612 3.11987 3.57373
# Velocity P-wave (km/s) = 6.60972 6.29087 6.45227
#
# Compressibility (1/GPa) = 0.01988921
#
# Stress axis : x y z
#
# Youngs Moduli (GPa) = 107.23178 116.17206 85.51093
#
# Poissons Ratio (x) = 0.49031 0.08456
# Poissons Ratio (y) = 0.45257 -0.02908
# Poissons Ratio (z) = 0.10604 -0.03951
#
# Static dielectric constant tensor:
#      x y z
#    x 1.789860 0.000000 0.000000 
#    y 0.000000 1.806220 -0.000030 
#    z 0.000000 -0.000030 1.997450 
# 
# From -- ./inp_files/22375.got.cif
#   From: 2010.05.17/outbox.cif.g08.bks.cpg/sg70_12_cif.got.tgz:22375.got - 2010.06.03 15:57:51.
