data_PCOD9514569
_publ_section_title
;
Structure prediction by ZEFSAII (Michael W. Deem and Ramdas Pophale) SiO2 
 PCOD9514569
Probable space group: F D D D
;
_chemical_formula_sum "Si O2"
_cell_formula_units_Z 168
_cell_length_a 22.197367
_cell_length_b 12.248300
_cell_length_c 31.432009
_cell_angle_alpha 90.000000
_cell_angle_beta 90.000000
_cell_angle_gamma 90.000000
_cell_volume 8545.734928
_symmetry_space_group_name_H-M "F D D D"
_symmetry_group_IT_number 70
_space_group.IT_coordinate_system_code '2'
_symmetry_cell_setting 'orthorhombic'
loop_
_space_group_symop_operation_xyz
x,y,z
1/4-x,1/4-y,z
x,1/4-y,1/4-z
1/4-x,y,1/4-z
-x,-y,-z
3/4+x,3/4+y,-z
-x,3/4+y,3/4+z
3/4+x,-y,3/4+z
x,1/2+y,1/2+z
1/4-x,3/4-y,1/2+z
x,3/4-y,3/4-z
1/4-x,1/2+y,3/4-z
-x,1/2-y,1/2-z
3/4+x,1/4+y,1/2-z
-x,1/4+y,1/4+z
3/4+x,1/2-y,1/4+z
1/2+x,y,1/2+z
3/4-x,1/4-y,1/2+z
1/2+x,1/4-y,3/4-z
3/4-x,y,3/4-z
1/2-x,-y,1/2-z
1/4+x,3/4+y,1/2-z
1/2-x,3/4+y,1/4+z
1/4+x,-y,1/4+z
1/2+x,1/2+y,z
3/4-x,3/4-y,z
1/2+x,3/4-y,1/4-z
3/4-x,1/2+y,1/4-z
1/2-x,1/2-y,-z
1/4+x,1/4+y,-z
1/2-x,1/4+y,3/4+z
1/4+x,1/2-y,3/4+z
loop_
_atom_site_type_symbol
_atom_site_label
_atom_site_fract_x
_atom_site_fract_y
_atom_site_fract_z
Si Si1 0.942778 0.887912 0.019981
Si Si2 0.715034 0.625000 0.125000
Si Si3 0.757515 0.480194 0.048337
Si Si4 0.309077 0.049475 0.308885
Si Si5 0.125000 0.625000 0.985258
Si Si6 0.332760 0.717118 0.943394
Si Si7 0.625000 0.125000 0.125000
O O1 0.875000 0.875000 0.036054
O O2 0.989819 0.912689 0.057339
O O3 0.973757 0.792445 0.991107
O O4 0.935193 0.986693 0.986059
O O5 0.751434 0.558573 0.089134
O O6 0.679956 0.714422 0.096745
O O7 0.826057 0.447865 0.039091
O O8 0.720378 0.369661 0.056329
O O9 0.355628 0.147431 0.310124
O O10 0.087144 0.542455 0.015079
O O11 0.333446 0.799275 0.904113
#
# Coordination Sequence:
#
# PCOD9514569 Si02
#       7
#    32  16  32  32  16  32   8
#     4  10  19  36  63  92 113 147 198 251 302 348
#     4  10  24  37  61  92 121 158 189 252 316 346
#     4  11  22  40  62  88 120 160 202 251 300 364
#     4  10  20  36  60  89 120 147 193 249 299 361
#     4  11  24  41  60  86 122 166 206 240 296 365
#     4  11  21  39  63  88 120 159 202 253 300 356
#     4  10  24  36  58  90 122 156 204 252 298 358
#
# _framework density 19.658930000000002
#
# number of rings (size 3 to 8) (size 9 to 14) (size 15 to 20)
#    0.000    1.524    3.810    1.714    0.000    0.762 
#    1.714    0.952    0.000    0.000    0.000    0.000 
#    0.000    0.000    0.000    0.000    0.000    0.000 
#
# Total GULP energy -234519.658299 kJ/mol
# GULP energy per Si atom -5583.801388 kJ/mol
# Density = 1.961419 g / cm^3
# Si number density = 19.658930 Si / 1000 Ang^3
#
#
#
# Elastic Constant Matrix: (Units=GPa)
#
#
# Indices 1 2 3 4 5 6 
#
# 1 88.6554 10.8576 14.2468 0.0000 0.0000 0.0000
# 2 10.8576 93.3030 28.3682 0.0000 0.0000 0.0000
# 3 14.2468 28.3682 60.6662 0.0000 0.0000 0.0000
# 4 0.0000 0.0000 0.0000 12.4231 0.0000 0.0000
# 5 0.0000 0.0000 0.0000 0.0000 0.9332 0.0000
# 6 0.0000 0.0000 0.0000 0.0000 0.0000 28.4935
#
#
#
# Elastic Compliance Matrix: (Units=1/GPa)
#
#
# Indices 1 2 3 4 5 6 
#
# 1 0.011752 -0.000616 -0.002472 0.000000 0.000000 0.000000
# 2 -0.000616 0.012526 -0.005713 0.000000 0.000000 0.000000
# 3 -0.002472 -0.005713 0.019735 0.000000 0.000000 0.000000
# 4 0.000000 0.000000 0.000000 0.080495 0.000000 0.000000
# 5 0.000000 0.000000 0.000000 0.000000 1.071525 0.000000
# 6 0.000000 0.000000 0.000000 0.000000 0.000000 0.035096
#
#
# Mechanical properties :
#
#
# Convention : Reuss Voigt Hill
#
# Bulk Modulus (GPa) = 37.86042 38.84108 38.35075
# Shear Modulus (GPa) = 3.97603 20.98010 12.47807
#
# Velocity S-wave (km/s) = 1.42369 3.27035 2.52211
# Velocity P-wave (km/s) = 4.69073 5.83615 5.29451
#
# Compressibility (1/GPa) = 0.02641281
#
# Stress axis : x y z
#
# Youngs Moduli (GPa) = 85.08979 79.83136 50.67015
#
# Poissons Ratio (x) = 0.04918 0.12525
# Poissons Ratio (y) = 0.05242 0.28947
# Poissons Ratio (z) = 0.21033 0.45606
#
# Static dielectric constant tensor:
#      x y z
#    x 1.712570 0.000000 0.000000 
#    y 0.000000 1.714930 0.000000 
#    z 0.000000 0.000000 1.687100 
# 
# From -- ./inp_files/67832.got.cif
#   From: 2010.05.17/outbox.cif.g08.bks.cpg/sg70_34_cif.got.tgz:67832.got - 2010.06.03 15:57:51.
