data_PCOD9514568
_publ_section_title
;
Structure prediction by ZEFSAII (Michael W. Deem and Ramdas Pophale) SiO2 
 PCOD9514568
Probable space group: F D D D
;
_chemical_formula_sum "Si O2"
_cell_formula_units_Z 192
_cell_length_a 27.235726
_cell_length_b 19.184986
_cell_length_c 14.963475
_cell_angle_alpha 90.000000
_cell_angle_beta 90.000000
_cell_angle_gamma 90.000000
_cell_volume 7818.670396
_symmetry_space_group_name_H-M "F D D D"
_symmetry_group_IT_number 70
_space_group.IT_coordinate_system_code '2'
_symmetry_cell_setting 'orthorhombic'
loop_
_space_group_symop_operation_xyz
x,y,z
1/4-x,1/4-y,z
x,1/4-y,1/4-z
1/4-x,y,1/4-z
-x,-y,-z
3/4+x,3/4+y,-z
-x,3/4+y,3/4+z
3/4+x,-y,3/4+z
x,1/2+y,1/2+z
1/4-x,3/4-y,1/2+z
x,3/4-y,3/4-z
1/4-x,1/2+y,3/4-z
-x,1/2-y,1/2-z
3/4+x,1/4+y,1/2-z
-x,1/4+y,1/4+z
3/4+x,1/2-y,1/4+z
1/2+x,y,1/2+z
3/4-x,1/4-y,1/2+z
1/2+x,1/4-y,3/4-z
3/4-x,y,3/4-z
1/2-x,-y,1/2-z
1/4+x,3/4+y,1/2-z
1/2-x,3/4+y,1/4+z
1/4+x,-y,1/4+z
1/2+x,1/2+y,z
3/4-x,3/4-y,z
1/2+x,3/4-y,1/4-z
3/4-x,1/2+y,1/4-z
1/2-x,1/2-y,-z
1/4+x,1/4+y,-z
1/2-x,1/4+y,3/4+z
1/4+x,1/2-y,3/4+z
loop_
_atom_site_type_symbol
_atom_site_label
_atom_site_fract_x
_atom_site_fract_y
_atom_site_fract_z
Si Si1 0.882564 0.057086 0.518360
Si Si2 0.507945 0.823255 0.704783
Si Si3 0.452227 0.449726 0.004461
Si Si4 0.023421 0.547899 0.749900
Si Si5 0.190480 0.200130 0.791503
Si Si6 0.118631 0.294229 0.985466
O O1 0.934564 0.080405 0.475983
O O2 0.885361 0.047879 0.625921
O O3 0.856571 0.129910 0.495291
O O4 0.856421 0.984111 0.491238
O O5 0.500000 0.750000 0.750000
O O6 0.494351 0.811219 0.601812
O O7 0.472285 0.884362 0.743065
O O8 0.461925 0.373761 0.967414
O O9 0.431613 0.433301 0.105154
O O10 0.406939 0.492727 0.968014
O O11 0.500000 0.500000 0.000000
O O12 0.065714 0.489481 0.742641
O O13 0.976803 0.515698 0.701729
#
# Coordination Sequence:
#
# PCOD9514568 Si02
#       6
#    32  32  32  32  32  32
#     4  10  20  37  61  88 124 169 209 255 314 379
#     4  11  22  37  61  90 125 165 208 261 304 374
#     4  10  22  39  60  90 119 160 210 266 316 382
#     4  11  21  37  62  88 122 163 207 259 318 378
#     4  10  23  39  60  92 125 162 210 263 315 380
#     4  10  19  36  63  87 119 166 210 253 318 385
#
# _framework density 24.556605000000001
#
# number of rings (size 3 to 8) (size 9 to 14) (size 15 to 20)
#    0.000    1.667    3.333    1.500    0.000    4.000 
#    0.000    0.833    0.000    4.000    0.000    0.000 
#    0.000    0.000    0.000    0.000    0.000    0.000 
#
# Total GULP energy -267343.954414 kJ/mol
# GULP energy per Si atom -5569.665717 kJ/mol
# Density = 2.450071 g / cm^3
# Si number density = 24.556605 Si / 1000 Ang^3
#
#
#
# Elastic Constant Matrix: (Units=GPa)
#
#
# Indices 1 2 3 4 5 6 
#
# 1 61.3588 44.4387 -10.9821 0.0000 0.0000 0.0000
# 2 44.4387 167.8391 35.3348 0.0000 0.0000 0.0000
# 3 -10.9821 35.3348 62.5620 0.0000 0.0000 0.0000
# 4 0.0000 0.0000 0.0000 11.3351 0.0000 0.0000
# 5 0.0000 0.0000 0.0000 0.0000 21.1549 0.0000
# 6 0.0000 0.0000 0.0000 0.0000 0.0000 39.2527
#
#
#
# Elastic Compliance Matrix: (Units=1/GPa)
#
#
# Indices 1 2 3 4 5 6 
#
# 1 0.023759 -0.008136 0.008766 0.000000 0.000000 0.000000
# 2 -0.008136 0.009548 -0.006821 0.000000 0.000000 0.000000
# 3 0.008766 -0.006821 0.021375 0.000000 0.000000 0.000000
# 4 0.000000 0.000000 0.000000 0.088221 0.000000 0.000000
# 5 0.000000 0.000000 0.000000 0.000000 0.047270 0.000000
# 6 0.000000 0.000000 0.000000 0.000000 0.000000 0.025476
#
#
# Mechanical properties :
#
#
# Convention : Reuss Voigt Hill
#
# Bulk Modulus (GPa) = 23.64054 47.70474 35.67264
# Shear Modulus (GPa) = 20.64979 29.21312 24.93145
#
# Velocity S-wave (km/s) = 2.90298 3.45283 3.18978
# Velocity P-wave (km/s) = 4.56993 5.94682 5.30325
#
# Compressibility (1/GPa) = 0.04230021
#
# Stress axis : x y z
#
# Youngs Moduli (GPa) = 42.08917 104.73050 46.78271
#
# Poissons Ratio (x) = 0.85210 -0.41009
# Poissons Ratio (y) = 0.34244 0.31911
# Poissons Ratio (z) = -0.36895 0.71437
#
# Static dielectric constant tensor:
#      x y z
#    x 3.557370 0.000000 0.000000 
#    y 0.000000 2.221470 0.000000 
#    z 0.000000 0.000000 2.005990 
# 
# From -- ./inp_files/45922.got.cif
#   From: 2010.05.17/outbox.cif.g08.bks.cpg/sg70_23_cif.got.tgz:45922.got - 2010.06.03 15:57:51.
