data_PCOD9514218
_publ_section_title
;
Structure prediction by ZEFSAII (Michael W. Deem and Ramdas Pophale) SiO2 
 PCOD9514218
Probable space group: F D D D
;
_chemical_formula_sum "Si O2"
_cell_formula_units_Z 160
_cell_length_a 23.438851
_cell_length_b 13.171652
_cell_length_c 28.342412
_cell_angle_alpha 90.000000
_cell_angle_beta 90.000000
_cell_angle_gamma 90.000000
_cell_volume 8750.107187
_symmetry_space_group_name_H-M "F D D D"
_symmetry_group_IT_number 70
_space_group.IT_coordinate_system_code '2'
_symmetry_cell_setting 'orthorhombic'
loop_
_space_group_symop_operation_xyz
x,y,z
1/4-x,1/4-y,z
x,1/4-y,1/4-z
1/4-x,y,1/4-z
-x,-y,-z
3/4+x,3/4+y,-z
-x,3/4+y,3/4+z
3/4+x,-y,3/4+z
x,1/2+y,1/2+z
1/4-x,3/4-y,1/2+z
x,3/4-y,3/4-z
1/4-x,1/2+y,3/4-z
-x,1/2-y,1/2-z
3/4+x,1/4+y,1/2-z
-x,1/4+y,1/4+z
3/4+x,1/2-y,1/4+z
1/2+x,y,1/2+z
3/4-x,1/4-y,1/2+z
1/2+x,1/4-y,3/4-z
3/4-x,y,3/4-z
1/2-x,-y,1/2-z
1/4+x,3/4+y,1/2-z
1/2-x,3/4+y,1/4+z
1/4+x,-y,1/4+z
1/2+x,1/2+y,z
3/4-x,3/4-y,z
1/2+x,3/4-y,1/4-z
3/4-x,1/2+y,1/4-z
1/2-x,1/2-y,-z
1/4+x,1/4+y,-z
1/2-x,1/4+y,3/4+z
1/4+x,1/2-y,3/4+z
loop_
_atom_site_type_symbol
_atom_site_label
_atom_site_fract_x
_atom_site_fract_y
_atom_site_fract_z
Si Si1 0.100882 0.238426 0.173902
Si Si2 0.289921 0.221990 0.649160
Si Si3 0.475480 0.799751 0.160721
Si Si4 0.643639 0.233103 0.325704
Si Si5 0.883368 0.562494 0.526371
O O1 0.125000 0.125000 0.177731
O O2 0.125000 0.282637 0.125000
O O3 0.118714 0.295872 0.221094
O O4 0.032581 0.238983 0.170928
O O5 0.259086 0.125000 0.625000
O O6 0.260702 0.330119 0.658210
O O7 0.341680 0.241309 0.611773
O O8 0.322309 0.198071 0.698008
O O9 0.447828 0.774677 0.110108
O O10 0.427169 0.768145 0.199146
O O11 0.625000 0.125000 0.304493
O O12 0.652998 0.324520 0.290131
#
# Coordination Sequence:
#
# PCOD9514218 Si02
#       5
#    32  32  32  32  32
#     4  11  25  36  48  73 118 150 178 222 277 334
#     4   8  15  30  56  85 107 127 175 242 279 316
#     4  10  18  33  56  82 107 143 187 225 282 327
#     4   8  16  30  57  85 106 129 176 241 282 316
#     4  10  18  32  57  82 107 141 185 228 281 337
#
# _framework density 18.285489999999999
#
# number of rings (size 3 to 8) (size 9 to 14) (size 15 to 20)
#    0.000    2.600    0.000    5.400    5.600    0.000 
#    0.000    0.000    4.400    3.600    0.000    0.000 
#    0.000    0.000    0.000    0.000    0.000    0.000 
#
# Total GULP energy -222843.628580 kJ/mol
# GULP energy per Si atom -5571.090715 kJ/mol
# Density = 1.824387 g / cm^3
# Si number density = 18.285490 Si / 1000 Ang^3
#
#
#
# Elastic Constant Matrix: (Units=GPa)
#
#
# Indices 1 2 3 4 5 6 
#
# 1 35.2593 14.5533 11.4691 0.0000 0.0000 0.0000
# 2 14.5533 126.7161 51.0755 0.0000 0.0000 0.0000
# 3 11.4691 51.0755 135.8393 0.0000 0.0000 0.0000
# 4 0.0000 0.0000 0.0000 22.8770 0.0000 0.0000
# 5 0.0000 0.0000 0.0000 0.0000 9.0674 0.0000
# 6 0.0000 0.0000 0.0000 0.0000 0.0000 18.1887
#
#
#
# Elastic Compliance Matrix: (Units=1/GPa)
#
#
# Indices 1 2 3 4 5 6 
#
# 1 0.030016 -0.002859 -0.001459 0.000000 0.000000 0.000000
# 2 -0.002859 0.009574 -0.003358 0.000000 0.000000 0.000000
# 3 -0.001459 -0.003358 0.008748 0.000000 0.000000 0.000000
# 4 0.000000 0.000000 0.000000 0.043712 0.000000 0.000000
# 5 0.000000 0.000000 0.000000 0.000000 0.110285 0.000000
# 6 0.000000 0.000000 0.000000 0.000000 0.000000 0.054979
#
#
# Mechanical properties :
#
#
# Convention : Reuss Voigt Hill
#
# Bulk Modulus (GPa) = 30.31779 50.22336 40.27058
# Shear Modulus (GPa) = 17.62663 24.74107 21.18385
#
# Velocity S-wave (km/s) = 3.10815 3.68236 3.40738
# Velocity P-wave (km/s) = 5.43112 6.75319 6.12791
#
# Compressibility (1/GPa) = 0.03298393
#
# Stress axis : x y z
#
# Youngs Moduli (GPa) = 33.31544 104.45327 114.31759
#
# Poissons Ratio (x) = 0.29865 0.16682
# Poissons Ratio (y) = 0.09525 0.38391
# Poissons Ratio (z) = 0.04862 0.35078
#
# Static dielectric constant tensor:
#      x y z
#    x 1.624210 0.000000 0.000000 
#    y 0.000000 1.704980 0.000000 
#    z 0.000000 0.000000 1.619990 
# 
# From -- ./inp_files/28858.got.cif
#   From: 2010.05.17/outbox.cif.g08.bks.cpg/sg70_15_cif.got.tgz:28858.got - 2010.06.03 15:57:51.
