data_PCOD9514302
_publ_section_title
;
Structure prediction by ZEFSAII (Michael W. Deem and Ramdas Pophale) SiO2 
 PCOD9514302
Probable space group: F D D D
;
_chemical_formula_sum "Si O2"
_cell_formula_units_Z 232
_cell_length_a 17.943821
_cell_length_b 22.410068
_cell_length_c 29.254695
_cell_angle_alpha 90.000000
_cell_angle_beta 90.000000
_cell_angle_gamma 90.000000
_cell_volume 11763.963741
_symmetry_space_group_name_H-M "F D D D"
_symmetry_group_IT_number 70
_space_group.IT_coordinate_system_code '2'
_symmetry_cell_setting 'orthorhombic'
loop_
_space_group_symop_operation_xyz
x,y,z
1/4-x,1/4-y,z
x,1/4-y,1/4-z
1/4-x,y,1/4-z
-x,-y,-z
3/4+x,3/4+y,-z
-x,3/4+y,3/4+z
3/4+x,-y,3/4+z
x,1/2+y,1/2+z
1/4-x,3/4-y,1/2+z
x,3/4-y,3/4-z
1/4-x,1/2+y,3/4-z
-x,1/2-y,1/2-z
3/4+x,1/4+y,1/2-z
-x,1/4+y,1/4+z
3/4+x,1/2-y,1/4+z
1/2+x,y,1/2+z
3/4-x,1/4-y,1/2+z
1/2+x,1/4-y,3/4-z
3/4-x,y,3/4-z
1/2-x,-y,1/2-z
1/4+x,3/4+y,1/2-z
1/2-x,3/4+y,1/4+z
1/4+x,-y,1/4+z
1/2+x,1/2+y,z
3/4-x,3/4-y,z
1/2+x,3/4-y,1/4-z
3/4-x,1/2+y,1/4-z
1/2-x,1/2-y,-z
1/4+x,1/4+y,-z
1/2-x,1/4+y,3/4+z
1/4+x,1/2-y,3/4+z
loop_
_atom_site_type_symbol
_atom_site_label
_atom_site_fract_x
_atom_site_fract_y
_atom_site_fract_z
Si Si1 0.891865 0.743083 0.522358
Si Si2 0.230217 0.522895 0.350024
Si Si3 0.248772 0.532340 0.602463
Si Si4 0.807709 0.123269 0.246509
Si Si5 0.663107 0.681759 0.553636
Si Si6 0.546819 0.399684 0.148992
Si Si7 0.125000 0.125000 0.125000
Si Si8 0.605548 0.931664 0.844280
O O1 0.829308 0.766063 0.558554
O O2 0.961090 0.725553 0.553588
O O3 0.861189 0.683736 0.498827
O O4 0.896144 0.791013 0.482313
O O5 0.302290 0.484338 0.334382
O O6 0.245864 0.591746 0.359737
O O7 0.193415 0.488194 0.391921
O O8 0.227669 0.465208 0.617273
O O9 0.180775 0.578787 0.599645
O O10 0.310682 0.556574 0.638176
O O11 0.732279 0.094594 0.225836
O O12 0.799994 0.152369 0.295795
O O13 0.843934 0.164651 0.207862
O O14 0.625000 0.625000 0.576547
O O15 0.625000 0.386675 0.125000
O O16 0.578581 0.875000 0.875000
#
# Coordination Sequence:
#
# PCOD9514302 Si02
#       8
#    32  32  32  32  32  32   8  32
#     4  10  18  35  63  93 120 170 213 264 319 399
#     4  10  21  38  58  88 136 165 206 263 327 395
#     4  11  23  40  71  90 120 170 229 273 334 386
#     4  11  20  40  62  91 135 168 218 270 329 391
#     4  11  19  31  60  94 131 173 214 249 324 405
#     4  12  25  42  59  93 136 175 209 273 343 400
#     4  12  20  44  68  88 112 160 232 292 320 376
#     4  11  20  40  66  96 125 173 223 275 316 392
#
# _framework density 19.721243000000001
#
# number of rings (size 3 to 8) (size 9 to 14) (size 15 to 20)
#    0.000    1.103    8.276    1.655    0.000    2.759 
#    2.483    1.379    0.000    0.000    0.000    0.000 
#    0.000    0.000    0.000    0.000    0.000    0.000 
#
# Total GULP energy -323826.176520 kJ/mol
# GULP energy per Si atom -5583.209940 kJ/mol
# Density = 1.967636 g / cm^3
# Si number density = 19.721243 Si / 1000 Ang^3
#
#
#
# Elastic Constant Matrix: (Units=GPa)
#
#
# Indices 1 2 3 4 5 6 
#
# 1 78.7644 47.0579 23.3639 0.0000 0.0000 0.0000
# 2 47.0579 153.2127 33.7215 0.0000 0.0000 0.0000
# 3 23.3639 33.7215 67.6719 0.0000 0.0000 0.0000
# 4 0.0000 0.0000 0.0000 14.3872 0.0000 0.0000
# 5 0.0000 0.0000 0.0000 0.0000 12.9954 0.0000
# 6 0.0000 0.0000 0.0000 0.0000 0.0000 29.2835
#
#
#
# Elastic Compliance Matrix: (Units=1/GPa)
#
#
# Indices 1 2 3 4 5 6 
#
# 1 0.016259 -0.004221 -0.003510 0.000000 0.000000 0.000000
# 2 -0.004221 0.008427 -0.002742 0.000000 0.000000 0.000000
# 3 -0.003510 -0.002742 0.017355 0.000000 0.000000 0.000000
# 4 0.000000 0.000000 0.000000 0.069506 0.000000 0.000000
# 5 0.000000 0.000000 0.000000 0.000000 0.076950 0.000000
# 6 0.000000 0.000000 0.000000 0.000000 0.000000 0.034149
#
#
# Mechanical properties :
#
#
# Convention : Reuss Voigt Hill
#
# Bulk Modulus (GPa) = 47.40418 56.43730 51.92074
# Shear Modulus (GPa) = 19.95016 24.36695 22.15856
#
# Velocity S-wave (km/s) = 3.18403 3.51888 3.35563
# Velocity P-wave (km/s) = 6.13243 6.72233 6.43414
#
# Compressibility (1/GPa) = 0.02109519
#
# Stress axis : x y z
#
# Youngs Moduli (GPa) = 61.50311 118.66791 57.61940
#
# Poissons Ratio (x) = 0.50094 0.20225
# Poissons Ratio (y) = 0.25963 0.15798
# Poissons Ratio (z) = 0.21588 0.32536
#
# Static dielectric constant tensor:
#      x y z
#    x 1.733600 0.000000 0.000000 
#    y 0.000000 1.736070 0.000000 
#    z 0.000000 0.000000 1.681650 
# 
# From -- ./inp_files/66871.got.cif
#   From: 2010.05.17/outbox.cif.g08.bks.cpg/sg70_34_cif.got.tgz:66871.got - 2010.06.03 15:57:51.
