data_PCOD9514240
_publ_section_title
;
Structure prediction by ZEFSAII (Michael W. Deem and Ramdas Pophale) SiO2 
 PCOD9514240
Probable space group: F D D D
;
_chemical_formula_sum "Si O2"
_cell_formula_units_Z 176
_cell_length_a 17.325354
_cell_length_b 16.042170
_cell_length_c 31.851687
_cell_angle_alpha 90.000000
_cell_angle_beta 90.000000
_cell_angle_gamma 90.000000
_cell_volume 8852.739211
_symmetry_space_group_name_H-M "F D D D"
_symmetry_group_IT_number 70
_space_group.IT_coordinate_system_code '2'
_symmetry_cell_setting 'orthorhombic'
loop_
_space_group_symop_operation_xyz
x,y,z
1/4-x,1/4-y,z
x,1/4-y,1/4-z
1/4-x,y,1/4-z
-x,-y,-z
3/4+x,3/4+y,-z
-x,3/4+y,3/4+z
3/4+x,-y,3/4+z
x,1/2+y,1/2+z
1/4-x,3/4-y,1/2+z
x,3/4-y,3/4-z
1/4-x,1/2+y,3/4-z
-x,1/2-y,1/2-z
3/4+x,1/4+y,1/2-z
-x,1/4+y,1/4+z
3/4+x,1/2-y,1/4+z
1/2+x,y,1/2+z
3/4-x,1/4-y,1/2+z
1/2+x,1/4-y,3/4-z
3/4-x,y,3/4-z
1/2-x,-y,1/2-z
1/4+x,3/4+y,1/2-z
1/2-x,3/4+y,1/4+z
1/4+x,-y,1/4+z
1/2+x,1/2+y,z
3/4-x,3/4-y,z
1/2+x,3/4-y,1/4-z
3/4-x,1/2+y,1/4-z
1/2-x,1/2-y,-z
1/4+x,1/4+y,-z
1/2-x,1/4+y,3/4+z
1/4+x,1/2-y,3/4+z
loop_
_atom_site_type_symbol
_atom_site_label
_atom_site_fract_x
_atom_site_fract_y
_atom_site_fract_z
Si Si1 0.658782 0.375000 0.375000
Si Si2 0.446523 0.312824 0.278186
Si Si3 0.999017 0.654656 0.541020
Si Si4 0.149338 0.752279 0.522693
Si Si5 0.308638 0.208262 0.687544
Si Si6 0.922861 0.065717 0.294511
O O1 0.709162 0.401976 0.414379
O O2 0.603825 0.444404 0.355115
O O3 0.500000 0.250000 0.250000
O O4 0.375000 0.375000 0.262062
O O5 0.506669 0.377150 0.299866
O O6 0.397663 0.245240 0.305171
O O7 0.075163 0.709221 0.543039
O O8 0.031669 0.564811 0.525246
O O9 0.942504 0.692344 0.505614
O O10 0.118288 0.773538 0.475644
O O11 0.162291 0.836468 0.548396
O O12 0.249677 0.283783 0.683733
#
# Coordination Sequence:
#
# PCOD9514240 Si02
#       6
#    16  32  32  32  32  32
#     4  12  22  41  59  84 128 162 204 256 328 362
#     4  10  18  33  58  91 118 155 205 259 302 362
#     4  10  22  35  67  91 122 166 200 255 313 371
#     4  10  19  38  62  94 117 157 218 245 302 376
#     4  10  22  36  63  90 118 164 198 256 310 374
#     4  10  19  37  64  90 117 155 215 252 286 380
#
# _framework density 19.880852000000001
#
# number of rings (size 3 to 8) (size 9 to 14) (size 15 to 20)
#    0.000    1.818    3.636    0.545    0.000    1.455 
#    0.000    4.091   12.000    0.000    0.000    0.000 
#    0.000    0.000    0.000    0.000    0.000    0.000 
#
# Total GULP energy -245068.294253 kJ/mol
# GULP energy per Si atom -5569.733960 kJ/mol
# Density = 1.983560 g / cm^3
# Si number density = 19.880852 Si / 1000 Ang^3
#
#
#
# Elastic Constant Matrix: (Units=GPa)
#
#
# Indices 1 2 3 4 5 6 
#
# 1 106.3286 42.1149 33.3239 0.0000 0.0000 0.0000
# 2 42.1149 141.8125 17.8831 0.0000 0.0000 0.0000
# 3 33.3239 17.8831 77.9675 0.0000 0.0000 0.0000
# 4 0.0000 0.0000 0.0000 5.9291 0.0000 0.0000
# 5 0.0000 0.0000 0.0000 0.0000 -7.0428 0.0000
# 6 0.0000 0.0000 0.0000 0.0000 0.0000 49.6789
#
#
#
# Elastic Compliance Matrix: (Units=1/GPa)
#
#
# Indices 1 2 3 4 5 6 
#
# 1 0.011982 -0.002999 -0.004433 0.000000 0.000000 0.000000
# 2 -0.002999 0.008012 -0.000556 0.000000 0.000000 0.000000
# 3 -0.004433 -0.000556 0.014848 0.000000 0.000000 0.000000
# 4 0.000000 0.000000 0.000000 0.168660 0.000000 0.000000
# 5 0.000000 0.000000 0.000000 0.000000 -0.141988 0.000000
# 6 0.000000 0.000000 0.000000 0.000000 0.000000 0.020129
#
#
# Mechanical properties :
#
#
# Convention : Reuss Voigt Hill
#
# Bulk Modulus (GPa) = 53.00609 56.97248 54.98929
# Shear Modulus (GPa) = 48.11908 25.23216 36.67562
#
# Velocity S-wave (km/s) = 4.92507 3.56640 4.29974
# Velocity P-wave (km/s) = 7.68515 6.75856 7.23670
#
# Compressibility (1/GPa) = 0.01886576
#
# Stress axis : x y z
#
# Youngs Moduli (GPa) = 83.45695 124.80664 67.34827
#
# Poissons Ratio (x) = 0.37434 0.29858
# Poissons Ratio (y) = 0.25032 0.03743
# Poissons Ratio (z) = 0.36999 0.06937
#
# Static dielectric constant tensor:
#      x y z
#    x 1.771410 0.000000 0.000000 
#    y 0.000000 1.743530 0.000000 
#    z 0.000000 0.000000 1.680180 
# 
# From -- ./inp_files/66659.got.cif
#   From: 2010.05.17/outbox.cif.g08.bks.cpg/sg70_34_cif.got.tgz:66659.got - 2010.06.03 15:57:51.
