data_PCOD9514607
_publ_section_title
;
Structure prediction by ZEFSAII (Michael W. Deem and Ramdas Pophale) SiO2 
 PCOD9514607
Probable space group: F D D D
;
_chemical_formula_sum "Si O2"
_cell_formula_units_Z 184
_cell_length_a 25.037135
_cell_length_b 30.122816
_cell_length_c 9.081365
_cell_angle_alpha 90.000000
_cell_angle_beta 90.000000
_cell_angle_gamma 90.000000
_cell_volume 6849.065686
_symmetry_space_group_name_H-M "F D D D"
_symmetry_group_IT_number 70
_space_group.IT_coordinate_system_code '2'
_symmetry_cell_setting 'orthorhombic'
loop_
_space_group_symop_operation_xyz
x,y,z
1/4-x,1/4-y,z
x,1/4-y,1/4-z
1/4-x,y,1/4-z
-x,-y,-z
3/4+x,3/4+y,-z
-x,3/4+y,3/4+z
3/4+x,-y,3/4+z
x,1/2+y,1/2+z
1/4-x,3/4-y,1/2+z
x,3/4-y,3/4-z
1/4-x,1/2+y,3/4-z
-x,1/2-y,1/2-z
3/4+x,1/4+y,1/2-z
-x,1/4+y,1/4+z
3/4+x,1/2-y,1/4+z
1/2+x,y,1/2+z
3/4-x,1/4-y,1/2+z
1/2+x,1/4-y,3/4-z
3/4-x,y,3/4-z
1/2-x,-y,1/2-z
1/4+x,3/4+y,1/2-z
1/2-x,3/4+y,1/4+z
1/4+x,-y,1/4+z
1/2+x,1/2+y,z
3/4-x,3/4-y,z
1/2+x,3/4-y,1/4-z
3/4-x,1/2+y,1/4-z
1/2-x,1/2-y,-z
1/4+x,1/4+y,-z
1/2-x,1/4+y,3/4+z
1/4+x,1/2-y,3/4+z
loop_
_atom_site_type_symbol
_atom_site_label
_atom_site_fract_x
_atom_site_fract_y
_atom_site_fract_z
Si Si1 0.702843 0.444659 0.499776
Si Si2 0.628528 0.875000 0.375000
Si Si3 0.630771 0.524636 0.438663
Si Si4 0.125000 0.125000 0.125000
Si Si5 0.801930 0.407921 0.632447
Si Si6 0.518985 0.560531 0.941723
Si Si7 0.173447 0.960002 0.012017
O O1 0.659921 0.404831 0.479109
O O2 0.669566 0.490065 0.524481
O O3 0.747682 0.435663 0.620337
O O4 0.736254 0.439273 0.344432
O O5 0.664911 0.909896 0.459347
O O6 0.595940 0.567931 0.485512
O O7 0.672801 0.539443 0.311850
O O8 0.586358 0.493351 0.368763
O O9 0.164330 0.153212 0.229174
O O10 0.780543 0.357526 0.639481
O O11 0.479632 0.533462 0.836855
O O12 0.125000 0.966641 0.125000
#
# Coordination Sequence:
#
# PCOD9514607 Si02
#       7
#    32  16  32   8  32  32  32
#     4  11  19  32  49  70 110 144 181 220 274 326
#     4  10  19  38  50  77 107 148 186 239 268 328
#     4  11  23  30  49  81 117 143 184 229 277 342
#     4  12  18  28  48  68 112 150 176 202 288 332
#     4  12  20  33  49  76 115 154 177 222 281 340
#     4  12  20  33  50  79 111 153 187 217 278 350
#     4  11  22  34  55  79 110 150 191 232 284 335
#
# _framework density 26.864979000000002
#
# number of rings (size 3 to 8) (size 9 to 14) (size 15 to 20)
#    0.000    0.696    8.696    1.565    3.652    0.000 
#    0.000    0.000    0.000    4.174    0.000    7.304 
#    0.000    0.000    0.000    0.000    0.000    0.000 
#
# Total GULP energy -257153.905516 kJ/mol
# GULP energy per Si atom -5590.302294 kJ/mol
# Density = 2.680383 g / cm^3
# Si number density = 26.864979 Si / 1000 Ang^3
#
#
#
# Elastic Constant Matrix: (Units=GPa)
#
#
# Indices 1 2 3 4 5 6 
#
# 1 136.6082 41.2903 23.6603 0.0000 0.0016 0.0018
# 2 41.2903 137.8791 15.3523 0.0012 -0.0008 0.0004
# 3 23.6603 15.3523 47.6765 0.0022 0.0018 0.0035
# 4 0.0000 0.0012 0.0022 15.6718 -0.0006 0.0014
# 5 0.0016 -0.0008 0.0018 -0.0006 29.0113 -0.0028
# 6 0.0018 0.0004 0.0035 0.0014 -0.0028 51.9675
#
#
#
# Elastic Compliance Matrix: (Units=1/GPa)
#
#
# Indices 1 2 3 4 5 6 
#
# 1 0.008596 -0.002177 -0.003565 0.000001 0.000000 0.000000
# 2 -0.002177 0.008074 -0.001519 0.000000 0.000000 0.000000
# 3 -0.003565 -0.001519 0.023233 -0.000003 -0.000001 -0.000001
# 4 0.000001 0.000000 -0.000003 0.063809 0.000001 -0.000002
# 5 0.000000 0.000000 -0.000001 0.000001 0.034469 0.000002
# 6 0.000000 0.000000 -0.000001 -0.000002 0.000002 0.019243
#
#
# Mechanical properties :
#
#
# Convention : Reuss Voigt Hill
#
# Bulk Modulus (GPa) = 39.40106 53.64106 46.52106
# Shear Modulus (GPa) = 27.71521 35.45417 31.58469
#
# Velocity S-wave (km/s) = 3.21541 3.63673 3.43254
# Velocity P-wave (km/s) = 5.33698 6.13553 5.75013
#
# Compressibility (1/GPa) = 0.02538003
#
# Stress axis : x y z
#
# Youngs Moduli (GPa) = 116.33768 123.85561 43.04221
#
# Poissons Ratio (x) = 0.26966 0.15343
# Poissons Ratio (y) = 0.25329 0.06540
# Poissons Ratio (z) = 0.41471 0.18819
#
# Static dielectric constant tensor:
#      x y z
#    x 1.969460 0.000000 0.000000 
#    y 0.000000 2.191910 0.000000 
#    z 0.000000 0.000000 2.172230 
# 
# From -- ./inp_files/37790.got.cif
#   From: 2010.05.17/outbox.cif.g08.bks.cpg/sg70_19_cif.got.tgz:37790.got - 2010.06.03 15:57:51.
