data_PCOD9514398
_publ_section_title
;
Structure prediction by ZEFSAII (Michael W. Deem and Ramdas Pophale) SiO2 
 PCOD9514398
Probable space group: F D D D
;
_chemical_formula_sum "Si O2"
_cell_formula_units_Z 160
_cell_length_a 21.921871
_cell_length_b 26.657005
_cell_length_c 12.831511
_cell_angle_alpha 90.000000
_cell_angle_beta 90.000000
_cell_angle_gamma 90.000000
_cell_volume 7498.368366
_symmetry_space_group_name_H-M "F D D D"
_symmetry_group_IT_number 70
_space_group.IT_coordinate_system_code '2'
_symmetry_cell_setting 'orthorhombic'
loop_
_space_group_symop_operation_xyz
x,y,z
1/4-x,1/4-y,z
x,1/4-y,1/4-z
1/4-x,y,1/4-z
-x,-y,-z
3/4+x,3/4+y,-z
-x,3/4+y,3/4+z
3/4+x,-y,3/4+z
x,1/2+y,1/2+z
1/4-x,3/4-y,1/2+z
x,3/4-y,3/4-z
1/4-x,1/2+y,3/4-z
-x,1/2-y,1/2-z
3/4+x,1/4+y,1/2-z
-x,1/4+y,1/4+z
3/4+x,1/2-y,1/4+z
1/2+x,y,1/2+z
3/4-x,1/4-y,1/2+z
1/2+x,1/4-y,3/4-z
3/4-x,y,3/4-z
1/2-x,-y,1/2-z
1/4+x,3/4+y,1/2-z
1/2-x,3/4+y,1/4+z
1/4+x,-y,1/4+z
1/2+x,1/2+y,z
3/4-x,3/4-y,z
1/2+x,3/4-y,1/4-z
3/4-x,1/2+y,1/4-z
1/2-x,1/2-y,-z
1/4+x,1/4+y,-z
1/2-x,1/4+y,3/4+z
1/4+x,1/2-y,3/4+z
loop_
_atom_site_type_symbol
_atom_site_label
_atom_site_fract_x
_atom_site_fract_y
_atom_site_fract_z
Si Si1 0.975610 0.819901 0.170584
Si Si2 0.407268 0.553657 0.121943
Si Si3 0.600207 0.205682 0.009498
Si Si4 0.478400 0.543074 0.645555
Si Si5 0.066216 0.385566 0.550347
O O1 0.905835 0.825021 0.209036
O O2 0.981045 0.767821 0.104580
O O3 0.012945 0.808911 0.275865
O O4 0.007532 0.864609 0.110231
O O5 0.410623 0.500591 0.178859
O O6 0.338902 0.559415 0.076196
O O7 0.417903 0.593203 0.214132
O O8 0.447618 0.565844 0.020922
O O9 0.625000 0.222986 0.125000
O O10 0.534029 0.184262 0.038775
O O11 0.125000 0.390484 0.625000
#
# Coordination Sequence:
#
# PCOD9514398 Si02
#       5
#    32  32  32  32  32
#     4   9  16  25  46  71 106 146 180 240 282 339
#     4  10  19  27  46  75 105 153 179 241 283 340
#     4   9  16  28  50  79 106 142 197 244 293 328
#     4   9  15  27  46  72 106 136 188 236 288 325
#     4  11  19  30  44  71 115 145 193 225 291 343
#
# _framework density 21.337976000000001
#
# number of rings (size 3 to 8) (size 9 to 14) (size 15 to 20)
#    0.000    2.400    4.000    1.800    0.000    0.000 
#    0.000    0.000    0.000    2.400    0.000    0.000 
#    0.000    6.400    0.000    0.000    1.600   10.800 
#
# Total GULP energy -223198.917677 kJ/mol
# GULP energy per Si atom -5579.972942 kJ/mol
# Density = 2.128941 g / cm^3
# Si number density = 21.337976 Si / 1000 Ang^3
#
#
#
# Elastic Constant Matrix: (Units=GPa)
#
#
# Indices 1 2 3 4 5 6 
#
# 1 93.9007 19.1913 48.6723 0.0000 0.0000 0.0000
# 2 19.1913 56.8363 51.4556 0.0000 0.0000 0.0000
# 3 48.6723 51.4556 117.0469 0.0000 0.0000 0.0000
# 4 0.0000 0.0000 0.0000 31.4903 0.0000 0.0000
# 5 0.0000 0.0000 0.0000 0.0000 28.9064 0.0000
# 6 0.0000 0.0000 0.0000 0.0000 0.0000 24.2108
#
#
#
# Elastic Compliance Matrix: (Units=1/GPa)
#
#
# Indices 1 2 3 4 5 6 
#
# 1 0.013602 0.000877 -0.006042 0.000000 0.000000 0.000000
# 2 0.000877 0.029283 -0.013238 0.000000 0.000000 0.000000
# 3 -0.006042 -0.013238 0.016876 0.000000 0.000000 0.000000
# 4 0.000000 0.000000 0.000000 0.031756 0.000000 0.000000
# 5 0.000000 0.000000 0.000000 0.000000 0.034594 0.000000
# 6 0.000000 0.000000 0.000000 0.000000 0.000000 0.041304
#
#
# Mechanical properties :
#
#
# Convention : Reuss Voigt Hill
#
# Bulk Modulus (GPa) = 43.56333 56.26913 49.91623
# Shear Modulus (GPa) = 23.59920 26.81914 25.20917
#
# Velocity S-wave (km/s) = 3.32922 3.54909 3.44091
# Velocity P-wave (km/s) = 5.93620 6.57437 6.26342
#
# Compressibility (1/GPa) = 0.02295509
#
# Stress axis : x y z
#
# Youngs Moduli (GPa) = 73.51880 34.14952 59.25744
#
# Poissons Ratio (x) = -0.02994 0.35801
# Poissons Ratio (y) = -0.06447 0.78444
# Poissons Ratio (z) = 0.44418 0.45207
#
# Static dielectric constant tensor:
#      x y z
#    x 1.788650 0.000000 0.000000 
#    y 0.000000 1.836140 0.000000 
#    z 0.000000 0.000000 1.772310 
# 
# From -- ./inp_files/19470.got.cif
#   From: 2010.05.17/outbox.cif.g08.bks.cpg/sg70_10_cif.got.tgz:19470.got - 2010.06.03 15:57:51.
