data_PCOD9514692
_publ_section_title
;
Structure prediction by ZEFSAII (Michael W. Deem and Ramdas Pophale) SiO2 
 PCOD9514692
Probable space group: F D D D
;
_chemical_formula_sum "Si O2"
_cell_formula_units_Z 160
_cell_length_a 13.671520
_cell_length_b 26.332465
_cell_length_c 21.816348
_cell_angle_alpha 90.000000
_cell_angle_beta 90.000000
_cell_angle_gamma 90.000000
_cell_volume 7853.990476
_symmetry_space_group_name_H-M "F D D D"
_symmetry_group_IT_number 70
_space_group.IT_coordinate_system_code '2'
_symmetry_cell_setting 'orthorhombic'
loop_
_space_group_symop_operation_xyz
x,y,z
1/4-x,1/4-y,z
x,1/4-y,1/4-z
1/4-x,y,1/4-z
-x,-y,-z
3/4+x,3/4+y,-z
-x,3/4+y,3/4+z
3/4+x,-y,3/4+z
x,1/2+y,1/2+z
1/4-x,3/4-y,1/2+z
x,3/4-y,3/4-z
1/4-x,1/2+y,3/4-z
-x,1/2-y,1/2-z
3/4+x,1/4+y,1/2-z
-x,1/4+y,1/4+z
3/4+x,1/2-y,1/4+z
1/2+x,y,1/2+z
3/4-x,1/4-y,1/2+z
1/2+x,1/4-y,3/4-z
3/4-x,y,3/4-z
1/2-x,-y,1/2-z
1/4+x,3/4+y,1/2-z
1/2-x,3/4+y,1/4+z
1/4+x,-y,1/4+z
1/2+x,1/2+y,z
3/4-x,3/4-y,z
1/2+x,3/4-y,1/4-z
3/4-x,1/2+y,1/4-z
1/2-x,1/2-y,-z
1/4+x,1/4+y,-z
1/2-x,1/4+y,3/4+z
1/4+x,1/2-y,3/4+z
loop_
_atom_site_type_symbol
_atom_site_label
_atom_site_fract_x
_atom_site_fract_y
_atom_site_fract_z
Si Si1 0.951395 0.452041 0.032323
Si Si2 0.483928 0.889217 0.150019
Si Si3 0.977685 0.125000 0.125000
Si Si4 0.886209 0.132087 0.742924
Si Si5 0.774407 0.547830 0.446159
Si Si6 0.625000 0.208926 0.625000
O O1 0.974312 0.436933 0.103380
O O2 0.835183 0.456962 0.028698
O O3 0.005881 0.405645 0.998713
O O4 0.000000 0.500000 0.000000
O O5 0.375000 0.875000 0.173339
O O6 0.562548 0.899119 0.202840
O O7 0.516182 0.840079 0.108932
O O8 0.911754 0.104323 0.179282
O O9 0.045108 0.169967 0.151738
O O10 0.903728 0.072462 0.753948
O O11 0.819228 0.495966 0.421414
#
# Coordination Sequence:
#
# PCOD9514692 Si02
#       6
#    32  32  16  32  32  16
#     4  10  20  37  63  97 126 157 206 274 331 392
#     4   9  19  36  68  93 117 163 221 266 315 385
#     4  11  28  38  59  92 144 172 205 286 347 400
#     4  11  21  43  61  92 126 175 220 271 324 392
#     4  10  19  40  69  90 119 168 223 271 313 396
#     4  11  22  44  58  92 132 166 222 274 341 388
#
# _framework density 20.371808999999999
#
# number of rings (size 3 to 8) (size 9 to 14) (size 15 to 20)
#    0.000    1.800    2.000    4.800    2.800    0.800 
#    0.000   12.000    0.000    0.000    0.000    0.000 
#    0.000    0.000    0.000    0.000    0.000    0.000 
#
# Total GULP energy -223022.288062 kJ/mol
# GULP energy per Si atom -5575.557202 kJ/mol
# Density = 2.032544 g / cm^3
# Si number density = 20.371809 Si / 1000 Ang^3
#
#
#
# Elastic Constant Matrix: (Units=GPa)
#
#
# Indices 1 2 3 4 5 6 
#
# 1 142.7982 28.3952 40.5609 0.0000 0.0000 0.0000
# 2 28.3952 88.6536 14.8169 0.0000 0.0000 0.0000
# 3 40.5609 14.8169 59.3939 0.0000 0.0000 0.0000
# 4 0.0000 0.0000 0.0000 16.5277 0.0000 0.0000
# 5 0.0000 0.0000 0.0000 0.0000 21.5693 0.0000
# 6 0.0000 0.0000 0.0000 0.0000 0.0000 12.3999
#
#
#
# Elastic Compliance Matrix: (Units=1/GPa)
#
#
# Indices 1 2 3 4 5 6 
#
# 1 0.008995 -0.001935 -0.005660 0.000000 0.000000 0.000000
# 2 -0.001935 0.012187 -0.001719 0.000000 0.000000 0.000000
# 3 -0.005660 -0.001719 0.021131 0.000000 0.000000 0.000000
# 4 0.000000 0.000000 0.000000 0.060504 0.000000 0.000000
# 5 0.000000 0.000000 0.000000 0.000000 0.046362 0.000000
# 6 0.000000 0.000000 0.000000 0.000000 0.000000 0.080646
#
#
# Mechanical properties :
#
#
# Convention : Reuss Voigt Hill
#
# Bulk Modulus (GPa) = 42.22085 50.93242 46.57663
# Shear Modulus (GPa) = 19.50461 23.90422 21.70442
#
# Velocity S-wave (km/s) = 3.09760 3.42920 3.26761
# Velocity P-wave (km/s) = 5.79341 6.38239 6.09502
#
# Compressibility (1/GPa) = 0.02368498
#
# Stress axis : x y z
#
# Youngs Moduli (GPa) = 111.16680 82.05512 47.32368
#
# Poissons Ratio (x) = 0.15879 0.26787
# Poissons Ratio (y) = 0.21513 0.08134
# Poissons Ratio (z) = 0.62925 0.14103
#
# Static dielectric constant tensor:
#      x y z
#    x 1.752910 0.000000 0.000000 
#    y 0.000000 1.788350 0.000000 
#    z 0.000000 0.000000 1.733900 
# 
# From -- ./inp_files/51168.got.cif
#   From: 2010.05.17/outbox.cif.g08.bks.cpg/sg70_26_cif.got.tgz:51168.got - 2010.06.03 15:57:51.
