data_PCOD9514239
_publ_section_title
;
Structure prediction by ZEFSAII (Michael W. Deem and Ramdas Pophale) SiO2 
 PCOD9514239
Probable space group: F D D D
;
_chemical_formula_sum "Si O2"
_cell_formula_units_Z 160
_cell_length_a 10.898714
_cell_length_b 24.791553
_cell_length_c 34.026400
_cell_angle_alpha 90.000000
_cell_angle_beta 90.000000
_cell_angle_gamma 90.000000
_cell_volume 9193.798732
_symmetry_space_group_name_H-M "F D D D"
_symmetry_group_IT_number 70
_space_group.IT_coordinate_system_code '2'
_symmetry_cell_setting 'orthorhombic'
loop_
_space_group_symop_operation_xyz
x,y,z
1/4-x,1/4-y,z
x,1/4-y,1/4-z
1/4-x,y,1/4-z
-x,-y,-z
3/4+x,3/4+y,-z
-x,3/4+y,3/4+z
3/4+x,-y,3/4+z
x,1/2+y,1/2+z
1/4-x,3/4-y,1/2+z
x,3/4-y,3/4-z
1/4-x,1/2+y,3/4-z
-x,1/2-y,1/2-z
3/4+x,1/4+y,1/2-z
-x,1/4+y,1/4+z
3/4+x,1/2-y,1/4+z
1/2+x,y,1/2+z
3/4-x,1/4-y,1/2+z
1/2+x,1/4-y,3/4-z
3/4-x,y,3/4-z
1/2-x,-y,1/2-z
1/4+x,3/4+y,1/2-z
1/2-x,3/4+y,1/4+z
1/4+x,-y,1/4+z
1/2+x,1/2+y,z
3/4-x,3/4-y,z
1/2+x,3/4-y,1/4-z
3/4-x,1/2+y,1/4-z
1/2-x,1/2-y,-z
1/4+x,1/4+y,-z
1/2-x,1/4+y,3/4+z
1/4+x,1/2-y,3/4+z
loop_
_atom_site_type_symbol
_atom_site_label
_atom_site_fract_x
_atom_site_fract_y
_atom_site_fract_z
Si Si1 0.307913 0.998139 0.415883
Si Si2 0.211466 0.690471 0.011802
Si Si3 0.641647 0.406618 0.836454
Si Si4 0.047420 0.332598 0.019467
Si Si5 0.027782 0.582110 0.532374
O O1 0.375000 0.008139 0.375000
O O2 0.190467 0.960221 0.406916
O O3 0.395721 0.963995 0.445530
O O4 0.279506 0.053039 0.439165
O O5 0.256136 0.673479 0.054983
O O6 0.250000 0.750000 0.000000
O O7 0.277068 0.647106 0.982638
O O8 0.065668 0.686881 0.007486
O O9 0.685626 0.375000 0.875000
O O10 0.549054 0.364828 0.815160
O O11 0.177224 0.317110 0.000127
O O12 0.125000 0.625000 0.515210
#
# Coordination Sequence:
#
# PCOD9514239 Si02
#       5
#    32  32  32  32  32
#     4  11  19  32  59  85 117 148 184 244 309 357
#     4  10  20  38  61  82 114 164 203 244 295 364
#     4  10  18  33  58  89 118 147 195 245 301 356
#     4  10  21  36  57  86 112 152 205 236 301 362
#     4   9  19  32  55  85 116 147 187 242 292 354
#
# _framework density 17.403034000000002
#
# number of rings (size 3 to 8) (size 9 to 14) (size 15 to 20)
#    0.000    2.000    4.000    0.600    0.000    0.000 
#    0.000    8.000    4.400    7.200    0.000    0.000 
#    0.000    0.000    0.000    0.000    0.000    0.000 
#
# Total GULP energy -222914.605093 kJ/mol
# GULP energy per Si atom -5572.865127 kJ/mol
# Density = 1.736342 g / cm^3
# Si number density = 17.403034 Si / 1000 Ang^3
#
#
#
# Elastic Constant Matrix: (Units=GPa)
#
#
# Indices 1 2 3 4 5 6 
#
# 1 89.5446 30.5036 41.4258 0.0000 0.0000 0.0000
# 2 30.5036 118.3902 61.0233 0.0000 0.0000 0.0000
# 3 41.4258 61.0233 104.9470 0.0000 0.0000 0.0000
# 4 0.0000 0.0000 0.0000 26.6024 0.0000 0.0000
# 5 0.0000 0.0000 0.0000 0.0000 23.9279 0.0000
# 6 0.0000 0.0000 0.0000 0.0000 0.0000 13.8065
#
#
#
# Elastic Compliance Matrix: (Units=1/GPa)
#
#
# Indices 1 2 3 4 5 6 
#
# 1 0.013756 -0.001065 -0.004811 0.000000 0.000000 0.000000
# 2 -0.001065 0.012144 -0.006641 0.000000 0.000000 0.000000
# 3 -0.004811 -0.006641 0.015289 0.000000 0.000000 0.000000
# 4 0.000000 0.000000 0.000000 0.037591 0.000000 0.000000
# 5 0.000000 0.000000 0.000000 0.000000 0.041792 0.000000
# 6 0.000000 0.000000 0.000000 0.000000 0.000000 0.072430
#
#
# Mechanical properties :
#
#
# Convention : Reuss Voigt Hill
#
# Bulk Modulus (GPa) = 61.89637 64.30969 63.10303
# Shear Modulus (GPa) = 22.37933 24.86262 23.62097
#
# Velocity S-wave (km/s) = 3.58990 3.78383 3.68814
# Velocity P-wave (km/s) = 7.26820 7.49154 7.38072
#
# Compressibility (1/GPa) = 0.01615604
#
# Stress axis : x y z
#
# Youngs Moduli (GPa) = 72.69611 82.34466 65.40536
#
# Poissons Ratio (x) = 0.08766 0.31466
# Poissons Ratio (y) = 0.07739 0.43437
# Poissons Ratio (z) = 0.34973 0.54687
#
# Static dielectric constant tensor:
#      x y z
#    x 1.614540 0.000000 0.000000 
#    y 0.000000 1.636930 0.000000 
#    z 0.000000 0.000000 1.580260 
# 
# From -- ./inp_files/19500.got.cif
#   From: 2010.05.17/outbox.cif.g08.bks.cpg/sg70_10_cif.got.tgz:19500.got - 2010.06.03 15:57:51.
