data_PCOD9514993
_publ_section_title
;
Structure prediction by ZEFSAII (Michael W. Deem and Ramdas Pophale) SiO2 
 PCOD9514993
Probable space group: F D D D
;
_chemical_formula_sum "Si O2"
_cell_formula_units_Z 240
_cell_length_a 30.911873
_cell_length_b 18.491510
_cell_length_c 21.270267
_cell_angle_alpha 90.000000
_cell_angle_beta 90.000000
_cell_angle_gamma 90.000000
_cell_volume 12158.237948
_symmetry_space_group_name_H-M "F D D D"
_symmetry_group_IT_number 70
_space_group.IT_coordinate_system_code '2'
_symmetry_cell_setting 'orthorhombic'
loop_
_space_group_symop_operation_xyz
x,y,z
1/4-x,1/4-y,z
x,1/4-y,1/4-z
1/4-x,y,1/4-z
-x,-y,-z
3/4+x,3/4+y,-z
-x,3/4+y,3/4+z
3/4+x,-y,3/4+z
x,1/2+y,1/2+z
1/4-x,3/4-y,1/2+z
x,3/4-y,3/4-z
1/4-x,1/2+y,3/4-z
-x,1/2-y,1/2-z
3/4+x,1/4+y,1/2-z
-x,1/4+y,1/4+z
3/4+x,1/2-y,1/4+z
1/2+x,y,1/2+z
3/4-x,1/4-y,1/2+z
1/2+x,1/4-y,3/4-z
3/4-x,y,3/4-z
1/2-x,-y,1/2-z
1/4+x,3/4+y,1/2-z
1/2-x,3/4+y,1/4+z
1/4+x,-y,1/4+z
1/2+x,1/2+y,z
3/4-x,3/4-y,z
1/2+x,3/4-y,1/4-z
3/4-x,1/2+y,1/4-z
1/2-x,1/2-y,-z
1/4+x,1/4+y,-z
1/2-x,1/4+y,3/4+z
1/4+x,1/2-y,3/4+z
loop_
_atom_site_type_symbol
_atom_site_label
_atom_site_fract_x
_atom_site_fract_y
_atom_site_fract_z
Si Si1 0.043490 0.967269 0.528696
Si Si2 0.627961 0.928838 0.761729
Si Si3 0.938219 0.036263 0.112494
Si Si4 0.214675 0.802947 0.763984
Si Si5 0.302596 0.451982 0.407201
Si Si6 0.281564 0.458241 0.892096
Si Si7 0.125000 0.985967 0.125000
Si Si8 0.636468 0.991017 0.982665
O O1 0.038116 0.880944 0.520770
O O2 0.084886 0.999990 0.490918
O O3 0.050818 0.989746 0.600976
O O4 0.000000 0.000000 0.500000
O O5 0.665490 0.972831 0.795605
O O6 0.582693 0.947894 0.796375
O O7 0.640212 0.845437 0.762457
O O8 0.620088 0.943963 0.689323
O O9 0.936676 0.125000 0.125000
O O10 0.910273 0.995757 0.166291
O O11 0.987401 0.008845 0.113802
O O12 0.255449 0.802103 0.809990
O O13 0.218903 0.737234 0.714146
O O14 0.312135 0.375000 0.375000
O O15 0.337552 0.471617 0.460583
O O16 0.276082 0.375000 0.875000
O O17 0.329297 0.474702 0.867269
#
# Coordination Sequence:
#
# PCOD9514993 Si02
#       8
#    32  32  32  32  32  32  16  32
#     4  11  24  40  61  90 122 168 215 251 314 386
#     4   9  21  36  63  89 120 165 213 261 313 377
#     4   9  18  36  59  86 115 159 209 257 310 364
#     4  10  22  42  61  92 128 164 210 263 316 387
#     4  12  24  40  64  91 131 166 205 262 327 369
#     4  10  20  38  63  88 122 159 204 259 324 376
#     4  10  21  36  58  94 129 154 200 262 323 386
#     4  10  22  38  60  86 125 160 215 262 302 382
#
# _framework density 19.739702000000001
#
# number of rings (size 3 to 8) (size 9 to 14) (size 15 to 20)
#    0.000    1.867    2.667    0.600    7.467    2.133 
#    0.000    1.333    0.000    0.000    3.467    0.000 
#    0.000    0.000    0.000    0.000    0.000    0.000 
#
# Total GULP energy -334142.609873 kJ/mol
# GULP energy per Si atom -5569.043498 kJ/mol
# Density = 1.969477 g / cm^3
# Si number density = 19.739702 Si / 1000 Ang^3
#
#
#
# Elastic Constant Matrix: (Units=GPa)
#
#
# Indices 1 2 3 4 5 6 
#
# 1 148.5654 31.7745 57.0947 0.0000 0.0000 0.0000
# 2 31.7745 27.7312 7.2751 0.0000 0.0000 0.0000
# 3 57.0947 7.2751 53.8224 0.0000 0.0000 0.0000
# 4 0.0000 0.0000 0.0000 18.2111 0.0000 0.0000
# 5 0.0000 0.0000 0.0000 0.0000 32.9066 0.0000
# 6 0.0000 0.0000 0.0000 0.0000 0.0000 20.7066
#
#
#
# Elastic Compliance Matrix: (Units=1/GPa)
#
#
# Indices 1 2 3 4 5 6 
#
# 1 0.015069 -0.013553 -0.014153 0.000000 0.000000 0.000000
# 2 -0.013553 0.049576 0.007676 0.000000 0.000000 0.000000
# 3 -0.014153 0.007676 0.032556 0.000000 0.000000 0.000000
# 4 0.000000 0.000000 0.000000 0.054912 0.000000 0.000000
# 5 0.000000 0.000000 0.000000 0.000000 0.030389 0.000000
# 6 0.000000 0.000000 0.000000 0.000000 0.000000 0.048294
#
#
# Mechanical properties :
#
#
# Convention : Reuss Voigt Hill
#
# Bulk Modulus (GPa) = 17.50091 46.93417 32.21754
# Shear Modulus (GPa) = 17.24726 23.29651 20.27188
#
# Velocity S-wave (km/s) = 2.95911 3.43911 3.20810
# Velocity P-wave (km/s) = 4.53433 6.29270 5.48445
#
# Compressibility (1/GPa) = 0.05713989
#
# Stress axis : x y z
#
# Youngs Moduli (GPa) = 66.36251 20.17115 30.71674
#
# Poissons Ratio (x) = 0.27338 0.43473
# Poissons Ratio (y) = 0.89940 -0.23577
# Poissons Ratio (z) = 0.93923 -0.15483
#
# Static dielectric constant tensor:
#      x y z
#    x 1.817220 0.000000 0.000000 
#    y 0.000000 1.684950 0.000000 
#    z 0.000000 0.000000 1.092260 
# 
# From -- ./inp_files/47847.got.cif
#   From: 2010.05.17/outbox.cif.g08.bks.cpg/sg70_24_cif.got.tgz:47847.got - 2010.06.03 15:57:51.
