data_PCOD9514615
_publ_section_title
;
Structure prediction by ZEFSAII (Michael W. Deem and Ramdas Pophale) SiO2 
 PCOD9514615
Probable space group: F D D D
;
_chemical_formula_sum "Si O2"
_cell_formula_units_Z 144
_cell_length_a 18.741708
_cell_length_b 20.183086
_cell_length_c 21.664120
_cell_angle_alpha 90.000000
_cell_angle_beta 90.000000
_cell_angle_gamma 90.000000
_cell_volume 8194.789278
_symmetry_space_group_name_H-M "F D D D"
_symmetry_group_IT_number 70
_space_group.IT_coordinate_system_code '2'
_symmetry_cell_setting 'orthorhombic'
loop_
_space_group_symop_operation_xyz
x,y,z
1/4-x,1/4-y,z
x,1/4-y,1/4-z
1/4-x,y,1/4-z
-x,-y,-z
3/4+x,3/4+y,-z
-x,3/4+y,3/4+z
3/4+x,-y,3/4+z
x,1/2+y,1/2+z
1/4-x,3/4-y,1/2+z
x,3/4-y,3/4-z
1/4-x,1/2+y,3/4-z
-x,1/2-y,1/2-z
3/4+x,1/4+y,1/2-z
-x,1/4+y,1/4+z
3/4+x,1/2-y,1/4+z
1/2+x,y,1/2+z
3/4-x,1/4-y,1/2+z
1/2+x,1/4-y,3/4-z
3/4-x,y,3/4-z
1/2-x,-y,1/2-z
1/4+x,3/4+y,1/2-z
1/2-x,3/4+y,1/4+z
1/4+x,-y,1/4+z
1/2+x,1/2+y,z
3/4-x,3/4-y,z
1/2+x,3/4-y,1/4-z
3/4-x,1/2+y,1/4-z
1/2-x,1/2-y,-z
1/4+x,1/4+y,-z
1/2-x,1/4+y,3/4+z
1/4+x,1/2-y,3/4+z
loop_
_atom_site_type_symbol
_atom_site_label
_atom_site_fract_x
_atom_site_fract_y
_atom_site_fract_z
Si Si1 0.346079 0.051563 0.143388
Si Si2 0.125000 0.125000 0.443660
Si Si3 0.005921 0.321516 0.124316
Si Si4 0.330051 0.737697 0.022696
Si Si5 0.878366 0.098029 0.972212
O O1 0.320587 0.125000 0.125000
O O2 0.408416 0.032109 0.094822
O O3 0.370143 0.058055 0.213858
O O4 0.284382 0.997679 0.134667
O O5 0.194731 0.120832 0.400501
O O6 0.129027 0.192247 0.482989
O O7 0.047093 0.342358 0.186072
O O8 0.066237 0.320054 0.071615
O O9 0.250000 0.750000 0.000000
O O10 0.361862 0.675100 0.986285
#
# Coordination Sequence:
#
# PCOD9514615 Si02
#       5
#    32  16  32  32  32
#     4   9  20  38  58  84 119 155 186 244 294 342
#     4  10  20  38  56  87 113 154 194 244 292 352
#     4  10  20  37  61  85 116 151 198 237 291 353
#     4  10  19  38  60  83 121 151 196 238 294 348
#     4  10  20  38  61  84 118 154 189 246 291 346
#
# _framework density 17.572140999999998
#
# number of rings (size 3 to 8) (size 9 to 14) (size 15 to 20)
#    0.000    2.222    2.222    0.667    0.000    0.000 
#   24.000    2.222    0.000    1.333    0.000    0.000 
#    0.000    0.000    0.000    0.000    0.000    0.000 
#
# Total GULP energy -200587.172821 kJ/mol
# GULP energy per Si atom -5571.865912 kJ/mol
# Density = 1.753215 g / cm^3
# Si number density = 17.572141 Si / 1000 Ang^3
#
#
#
# Elastic Constant Matrix: (Units=GPa)
#
#
# Indices 1 2 3 4 5 6 
#
# 1 110.9921 42.1183 55.5002 0.0000 0.0000 0.0000
# 2 42.1183 131.8953 50.5759 0.0000 0.0000 0.0000
# 3 55.5002 50.5759 116.4475 0.0000 0.0000 0.0000
# 4 0.0000 0.0000 0.0000 11.3376 0.0000 0.0000
# 5 0.0000 0.0000 0.0000 0.0000 25.6145 0.0000
# 6 0.0000 0.0000 0.0000 0.0000 0.0000 28.5397
#
#
#
# Elastic Compliance Matrix: (Units=1/GPa)
#
#
# Indices 1 2 3 4 5 6 
#
# 1 0.012257 -0.002008 -0.004969 0.000000 0.000000 0.000000
# 2 -0.002008 0.009426 -0.003137 0.000000 0.000000 0.000000
# 3 -0.004969 -0.003137 0.012318 0.000000 0.000000 0.000000
# 4 0.000000 0.000000 0.000000 0.088202 0.000000 0.000000
# 5 0.000000 0.000000 0.000000 0.000000 0.039040 0.000000
# 6 0.000000 0.000000 0.000000 0.000000 0.000000 0.035039
#
#
# Mechanical properties :
#
#
# Convention : Reuss Voigt Hill
#
# Bulk Modulus (GPa) = 72.61093 72.85817 72.73455
# Shear Modulus (GPa) = 22.61399 27.17437 24.89418
#
# Velocity S-wave (km/s) = 3.59126 3.93675 3.76797
# Velocity P-wave (km/s) = 7.65556 7.88774 7.77251
#
# Compressibility (1/GPa) = 0.01377203
#
# Stress axis : x y z
#
# Youngs Moduli (GPa) = 81.58840 106.09084 81.17984
#
# Poissons Ratio (x) = 0.21307 0.40341
# Poissons Ratio (y) = 0.16386 0.25463
# Poissons Ratio (z) = 0.40544 0.33277
#
# Static dielectric constant tensor:
#      x y z
#    x 1.581400 0.000000 0.000000 
#    y 0.000000 1.610540 0.000000 
#    z 0.000000 0.000000 1.609900 
# 
# From -- ./inp_files/36212.got.cif
#   From: 2010.05.17/outbox.cif.g08.bks.cpg/sg70_19_cif.got.tgz:36212.got - 2010.06.03 15:57:51.
