data_PCOD9514298
_publ_section_title
;
Structure prediction by ZEFSAII (Michael W. Deem and Ramdas Pophale) SiO2 
 PCOD9514298
Probable space group: F D D D
;
_chemical_formula_sum "Si O2"
_cell_formula_units_Z 232
_cell_length_a 17.680048
_cell_length_b 30.901097
_cell_length_c 23.417330
_cell_angle_alpha 90.000000
_cell_angle_beta 90.000000
_cell_angle_gamma 90.000000
_cell_volume 12793.657299
_symmetry_space_group_name_H-M "F D D D"
_symmetry_group_IT_number 70
_space_group.IT_coordinate_system_code '2'
_symmetry_cell_setting 'orthorhombic'
loop_
_space_group_symop_operation_xyz
x,y,z
1/4-x,1/4-y,z
x,1/4-y,1/4-z
1/4-x,y,1/4-z
-x,-y,-z
3/4+x,3/4+y,-z
-x,3/4+y,3/4+z
3/4+x,-y,3/4+z
x,1/2+y,1/2+z
1/4-x,3/4-y,1/2+z
x,3/4-y,3/4-z
1/4-x,1/2+y,3/4-z
-x,1/2-y,1/2-z
3/4+x,1/4+y,1/2-z
-x,1/4+y,1/4+z
3/4+x,1/2-y,1/4+z
1/2+x,y,1/2+z
3/4-x,1/4-y,1/2+z
1/2+x,1/4-y,3/4-z
3/4-x,y,3/4-z
1/2-x,-y,1/2-z
1/4+x,3/4+y,1/2-z
1/2-x,3/4+y,1/4+z
1/4+x,-y,1/4+z
1/2+x,1/2+y,z
3/4-x,3/4-y,z
1/2+x,3/4-y,1/4-z
3/4-x,1/2+y,1/4-z
1/2-x,1/2-y,-z
1/4+x,1/4+y,-z
1/2-x,1/4+y,3/4+z
1/4+x,1/2-y,3/4+z
loop_
_atom_site_type_symbol
_atom_site_label
_atom_site_fract_x
_atom_site_fract_y
_atom_site_fract_z
Si Si1 0.258641 0.915647 0.961570
Si Si2 0.834685 0.602209 0.184668
Si Si3 0.962124 0.641345 0.922405
Si Si4 0.550715 0.988063 0.653462
Si Si5 0.944640 0.001581 0.053966
Si Si6 0.024337 0.016354 0.273903
Si Si7 0.125000 0.125000 0.625000
Si Si8 0.553463 0.854551 0.552549
O O1 0.175790 0.897371 0.944240
O O2 0.320988 0.902053 0.916530
O O3 0.254073 0.967881 0.961827
O O4 0.271073 0.895690 0.025488
O O5 0.816042 0.625000 0.125000
O O6 0.814780 0.551928 0.181542
O O7 0.794587 0.622758 0.240606
O O8 0.926429 0.690031 0.925251
O O9 0.893926 0.608550 0.937017
O O10 0.983363 0.628961 0.857509
O O11 0.625000 0.007737 0.625000
O O12 0.486212 0.980378 0.607356
O O13 0.522370 0.016870 0.705187
O O14 0.862594 0.982010 0.041264
O O15 0.000000 0.000000 0.000000
O O16 0.977476 0.055915 0.299330
#
# Coordination Sequence:
#
# PCOD9514298 Si02
#       8
#    32  32  32  32  32  32   8  32
#     4   9  21  37  61  85 115 153 200 244 299 355
#     4  10  19  36  59  85 117 157 196 235 296 364
#     4   9  19  37  60  82 111 157 201 232 297 363
#     4  11  18  36  60  78 111 158 199 231 292 364
#     4  11  21  34  58  83 113 154 196 242 289 351
#     4  10  22  37  55  90 117 147 198 251 297 349
#     4  12  20  40  64  84 116 160 196 260 296 348
#     4  10  18  35  62  82 112 158 192 242 296 355
#
# _framework density 18.133986
#
# number of rings (size 3 to 8) (size 9 to 14) (size 15 to 20)
#    0.000    1.931    3.448    2.483    0.000    1.103 
#    4.966    2.069    0.000    2.483    0.000    0.000 
#    0.000    0.000    0.000    0.000    0.000    0.000 
#
# Total GULP energy -323128.308836 kJ/mol
# GULP energy per Si atom -5571.177739 kJ/mol
# Density = 1.809271 g / cm^3
# Si number density = 18.133986 Si / 1000 Ang^3
#
#
#
# Elastic Constant Matrix: (Units=GPa)
#
#
# Indices 1 2 3 4 5 6 
#
# 1 71.3228 37.8416 34.2872 0.0000 0.0000 0.0000
# 2 37.8416 81.3900 37.0266 0.0000 0.0000 0.0000
# 3 34.2872 37.0266 125.2400 0.0000 0.0000 0.0000
# 4 0.0000 0.0000 0.0000 31.4827 0.0000 0.0000
# 5 0.0000 0.0000 0.0000 0.0000 29.8756 0.0000
# 6 0.0000 0.0000 0.0000 0.0000 0.0000 26.7438
#
#
#
# Elastic Compliance Matrix: (Units=1/GPa)
#
#
# Indices 1 2 3 4 5 6 
#
# 1 0.019593 -0.007706 -0.003086 0.000000 0.000000 0.000000
# 2 -0.007706 0.017226 -0.002983 0.000000 0.000000 0.000000
# 3 -0.003086 -0.002983 0.009711 0.000000 0.000000 0.000000
# 4 0.000000 0.000000 0.000000 0.031764 0.000000 0.000000
# 5 0.000000 0.000000 0.000000 0.000000 0.033472 0.000000
# 6 0.000000 0.000000 0.000000 0.000000 0.000000 0.037392
#
#
# Mechanical properties :
#
#
# Convention : Reuss Voigt Hill
#
# Bulk Modulus (GPa) = 52.68417 55.14038 53.91228
# Shear Modulus (GPa) = 27.31731 28.87358 28.09544
#
# Velocity S-wave (km/s) = 3.88547 3.99461 3.94042
# Velocity P-wave (km/s) = 7.01747 7.19369 7.10613
#
# Compressibility (1/GPa) = 0.01898103
#
# Stress axis : x y z
#
# Youngs Moduli (GPa) = 51.03990 58.05056 102.97105
#
# Poissons Ratio (x) = 0.44731 0.31774
# Poissons Ratio (y) = 0.39329 0.30720
# Poissons Ratio (z) = 0.15750 0.17318
#
# Static dielectric constant tensor:
#      x y z
#    x 1.621090 0.000000 0.000000 
#    y 0.000000 1.604250 0.000000 
#    z 0.000000 0.000000 1.682810 
# 
# From -- ./inp_files/52466.got.cif
#   From: 2010.05.17/outbox.cif.g08.bks.cpg/sg70_27_cif.got.tgz:52466.got - 2010.06.03 15:57:51.
