data_PCOD9514202
_publ_section_title
;
Structure prediction by ZEFSAII (Michael W. Deem and Ramdas Pophale) SiO2 
 PCOD9514202
Probable space group: F D D D
;
_chemical_formula_sum "Si O2"
_cell_formula_units_Z 208
_cell_length_a 20.426960
_cell_length_b 19.799146
_cell_length_c 29.302199
_cell_angle_alpha 90.000000
_cell_angle_beta 90.000000
_cell_angle_gamma 90.000000
_cell_volume 11850.874802
_symmetry_space_group_name_H-M "F D D D"
_symmetry_group_IT_number 70
_space_group.IT_coordinate_system_code '2'
_symmetry_cell_setting 'orthorhombic'
loop_
_space_group_symop_operation_xyz
x,y,z
1/4-x,1/4-y,z
x,1/4-y,1/4-z
1/4-x,y,1/4-z
-x,-y,-z
3/4+x,3/4+y,-z
-x,3/4+y,3/4+z
3/4+x,-y,3/4+z
x,1/2+y,1/2+z
1/4-x,3/4-y,1/2+z
x,3/4-y,3/4-z
1/4-x,1/2+y,3/4-z
-x,1/2-y,1/2-z
3/4+x,1/4+y,1/2-z
-x,1/4+y,1/4+z
3/4+x,1/2-y,1/4+z
1/2+x,y,1/2+z
3/4-x,1/4-y,1/2+z
1/2+x,1/4-y,3/4-z
3/4-x,y,3/4-z
1/2-x,-y,1/2-z
1/4+x,3/4+y,1/2-z
1/2-x,3/4+y,1/4+z
1/4+x,-y,1/4+z
1/2+x,1/2+y,z
3/4-x,3/4-y,z
1/2+x,3/4-y,1/4-z
3/4-x,1/2+y,1/4-z
1/2-x,1/2-y,-z
1/4+x,1/4+y,-z
1/2-x,1/4+y,3/4+z
1/4+x,1/2-y,3/4+z
loop_
_atom_site_type_symbol
_atom_site_label
_atom_site_fract_x
_atom_site_fract_y
_atom_site_fract_z
Si Si1 0.576234 0.255790 0.931862
Si Si2 0.840738 0.129408 0.511515
Si Si3 0.256701 0.202843 0.089982
Si Si4 0.375000 0.375000 0.986681
Si Si5 0.875000 0.478786 0.375000
Si Si6 0.814434 0.232284 0.287685
Si Si7 0.625000 0.625000 0.869173
Si Si8 0.018271 0.647511 0.807348
O O1 0.612532 0.310181 0.963806
O O2 0.546622 0.295395 0.887429
O O3 0.513670 0.228964 0.960572
O O4 0.613756 0.191707 0.911078
O O5 0.794908 0.165496 0.549809
O O6 0.897387 0.181315 0.495575
O O7 0.793837 0.114511 0.467760
O O8 0.181377 0.184628 0.100146
O O9 0.247763 0.280009 0.075132
O O10 0.428759 0.411407 0.018086
O O11 0.415876 0.311121 0.968344
O O12 0.839601 0.527451 0.410988
O O13 0.561483 0.635803 0.902251
#
# Coordination Sequence:
#
# PCOD9514202 Si02
#       8
#    32  32  32  16  16  32  16  32
#     4  10  23  37  54  77 106 149 183 227 279 314
#     4  12  20  35  54  83 109 140 189 227 260 321
#     4  10  19  33  47  76 116 149 174 212 257 322
#     4  11  18  31  48  81 110 150 176 203 252 331
#     4  10  20  29  42  70 116 153 168 206 246 307
#     4  11  22  32  52  80 113 142 184 216 264 320
#     4   9  22  42  54  71 109 147 182 221 276 334
#     4  10  18  31  56  72 104 153 179 202 256 325
#
# _framework density 17.551447
#
# number of rings (size 3 to 8) (size 9 to 14) (size 15 to 20)
#    0.000    1.538    4.615    1.846    0.000    0.308 
#    0.000    0.769    0.000    0.000    0.000    0.000 
#    0.000    0.000    0.000    0.000    0.000    0.000 
#
# Total GULP energy -289633.087701 kJ/mol
# GULP energy per Si atom -5569.867071 kJ/mol
# Density = 1.751150 g / cm^3
# Si number density = 17.551447 Si / 1000 Ang^3
#
#
#
# Elastic Constant Matrix: (Units=GPa)
#
#
# Indices 1 2 3 4 5 6 
#
# 1 59.0316 39.5644 25.6663 0.0000 0.0000 0.0000
# 2 39.5644 86.3062 50.0443 0.0000 0.0000 0.0000
# 3 25.6663 50.0443 74.0905 0.0000 0.0000 0.0000
# 4 0.0000 0.0000 0.0000 31.8321 0.0000 0.0000
# 5 0.0000 0.0000 0.0000 0.0000 24.4307 0.0000
# 6 0.0000 0.0000 0.0000 0.0000 0.0000 12.8076
#
#
#
# Elastic Compliance Matrix: (Units=1/GPa)
#
#
# Indices 1 2 3 4 5 6 
#
# 1 0.024552 -0.010394 -0.001484 0.000000 0.000000 0.000000
# 2 -0.010394 0.023447 -0.012236 0.000000 0.000000 0.000000
# 3 -0.001484 -0.012236 0.022276 0.000000 0.000000 0.000000
# 4 0.000000 0.000000 0.000000 0.031415 0.000000 0.000000
# 5 0.000000 0.000000 0.000000 0.000000 0.040932 0.000000
# 6 0.000000 0.000000 0.000000 0.000000 0.000000 0.078079
#
#
# Mechanical properties :
#
#
# Convention : Reuss Voigt Hill
#
# Bulk Modulus (GPa) = 45.36201 49.99761 47.67981
# Shear Modulus (GPa) = 18.09762 20.75762 19.42762
#
# Velocity S-wave (km/s) = 3.21459 3.44273 3.33061
# Velocity P-wave (km/s) = 6.29916 6.65968 6.48193
#
# Compressibility (1/GPa) = 0.02204488
#
# Stress axis : x y z
#
# Youngs Moduli (GPa) = 40.72972 42.64970 44.89095
#
# Poissons Ratio (x) = 0.44332 0.06664
# Poissons Ratio (y) = 0.42336 0.54930
# Poissons Ratio (z) = 0.06046 0.52187
#
# Static dielectric constant tensor:
#      x y z
#    x 1.624830 0.000000 0.000000 
#    y 0.000000 1.607950 0.000000 
#    z 0.000000 0.000000 1.705440 
# 
# From -- ./inp_files/55206.got.cif
#   From: 2010.05.17/outbox.cif.g08.bks.cpg/sg70_28_cif.got.tgz:55206.got - 2010.06.03 15:57:51.
