data_PCOD9514960
_publ_section_title
;
Structure prediction by ZEFSAII (Michael W. Deem and Ramdas Pophale) SiO2 
 PCOD9514960
Probable space group: F D D D
;
_chemical_formula_sum "Si O2"
_cell_formula_units_Z 240
_cell_length_a 21.979708
_cell_length_b 19.855612
_cell_length_c 29.273960
_cell_angle_alpha 90.000000
_cell_angle_beta 90.000000
_cell_angle_gamma 90.000000
_cell_volume 12775.757839
_symmetry_space_group_name_H-M "F D D D"
_symmetry_group_IT_number 70
_space_group.IT_coordinate_system_code '2'
_symmetry_cell_setting 'orthorhombic'
loop_
_space_group_symop_operation_xyz
x,y,z
1/4-x,1/4-y,z
x,1/4-y,1/4-z
1/4-x,y,1/4-z
-x,-y,-z
3/4+x,3/4+y,-z
-x,3/4+y,3/4+z
3/4+x,-y,3/4+z
x,1/2+y,1/2+z
1/4-x,3/4-y,1/2+z
x,3/4-y,3/4-z
1/4-x,1/2+y,3/4-z
-x,1/2-y,1/2-z
3/4+x,1/4+y,1/2-z
-x,1/4+y,1/4+z
3/4+x,1/2-y,1/4+z
1/2+x,y,1/2+z
3/4-x,1/4-y,1/2+z
1/2+x,1/4-y,3/4-z
3/4-x,y,3/4-z
1/2-x,-y,1/2-z
1/4+x,3/4+y,1/2-z
1/2-x,3/4+y,1/4+z
1/4+x,-y,1/4+z
1/2+x,1/2+y,z
3/4-x,3/4-y,z
1/2+x,3/4-y,1/4-z
3/4-x,1/2+y,1/4-z
1/2-x,1/2-y,-z
1/4+x,1/4+y,-z
1/2-x,1/4+y,3/4+z
1/4+x,1/2-y,3/4+z
loop_
_atom_site_type_symbol
_atom_site_label
_atom_site_fract_x
_atom_site_fract_y
_atom_site_fract_z
Si Si1 0.759191 0.422673 0.418634
Si Si2 0.625000 0.625000 0.021845
Si Si3 0.434230 0.268986 0.704200
Si Si4 0.730632 0.382627 0.579156
Si Si5 0.635837 0.420492 0.829840
Si Si6 0.644939 0.892988 0.744317
Si Si7 0.075542 0.947315 0.156680
Si Si8 0.345983 0.302395 0.625526
O O1 0.766630 0.375000 0.375000
O O2 0.814570 0.398639 0.451261
O O3 0.687336 0.421229 0.428301
O O4 0.771082 0.501564 0.411630
O O5 0.601872 0.565628 0.989449
O O6 0.493147 0.310202 0.688288
O O7 0.436836 0.197109 0.728155
O O8 0.393660 0.265670 0.659011
O O9 0.688908 0.404833 0.536499
O O10 0.693922 0.365803 0.625362
O O11 0.786788 0.428749 0.594338
O O12 0.649047 0.375000 0.875000
O O13 0.652010 0.387177 0.781199
O O14 0.662404 0.495390 0.837329
O O15 0.606020 0.929069 0.704413
O O16 0.125000 0.985040 0.125000
O O17 0.375000 0.375000 0.611707
#
# Coordination Sequence:
#
# PCOD9514960 Si02
#       8
#    32  16  32  32  32  32  32  32
#     4  11  22  30  47  78 117 161 186 217 257 325
#     4  12  19  30  48  80 118 154 188 208 255 340
#     4  11  19  32  51  78 114 149 183 214 264 332
#     4  10  21  35  57  76 108 152 190 223 275 337
#     4  11  23  37  56  79 111 147 189 236 278 324
#     4  11  22  35  53  82 112 143 184 235 279 330
#     4  10  21  36  51  78 115 149 184 228 278 330
#     4  10  20  38  54  76 107 149 189 231 278 332
#
# _framework density 18.785578000000001
#
# number of rings (size 3 to 8) (size 9 to 14) (size 15 to 20)
#    0.000    1.333    4.667    3.800    3.733    0.000 
#    0.000    0.667    0.000    0.000    0.000    0.000 
#    0.000    0.000    0.000    0.000    0.000    0.000 
#
# Total GULP energy -334303.449254 kJ/mol
# GULP energy per Si atom -5571.724154 kJ/mol
# Density = 1.874282 g / cm^3
# Si number density = 18.785578 Si / 1000 Ang^3
#
#
#
# Elastic Constant Matrix: (Units=GPa)
#
#
# Indices 1 2 3 4 5 6 
#
# 1 37.1178 6.1298 5.5768 0.0000 0.0000 0.0000
# 2 6.1298 72.4344 35.3842 0.0000 0.0000 0.0000
# 3 5.5768 35.3842 86.9997 0.0000 0.0000 0.0000
# 4 0.0000 0.0000 0.0000 11.4096 0.0000 0.0000
# 5 0.0000 0.0000 0.0000 0.0000 -0.6479 0.0000
# 6 0.0000 0.0000 0.0000 0.0000 0.0000 77.8406
#
#
#
# Elastic Compliance Matrix: (Units=1/GPa)
#
#
# Indices 1 2 3 4 5 6 
#
# 1 0.027395 -0.001823 -0.001015 0.000000 0.000000 0.000000
# 2 -0.001823 0.017350 -0.006940 0.000000 0.000000 0.000000
# 3 -0.001015 -0.006940 0.014382 0.000000 0.000000 0.000000
# 4 0.000000 0.000000 0.000000 0.087645 0.000000 0.000000
# 5 0.000000 0.000000 0.000000 0.000000 -1.543425 0.000000
# 6 0.000000 0.000000 0.000000 0.000000 0.000000 0.012847
#
#
# Mechanical properties :
#
#
# Convention : Reuss Voigt Hill
#
# Bulk Modulus (GPa) = 25.27013 32.30370 28.78692
# Shear Modulus (GPa) = -3.70079 27.68454 11.99188
#
# Velocity S-wave (km/s) = -1.40510 3.84306 2.52931
# Velocity P-wave (km/s) = 3.29373 6.07664 4.88744
#
# Compressibility (1/GPa) = 0.03957241
#
# Stress axis : x y z
#
# Youngs Moduli (GPa) = 36.50340 57.63743 69.53235
#
# Poissons Ratio (x) = 0.10505 0.07056
# Poissons Ratio (y) = 0.06653 0.48253
# Poissons Ratio (z) = 0.03704 0.39998
#
# Static dielectric constant tensor:
#      x y z
#    x 1.694050 0.000000 0.000000 
#    y 0.000000 1.733860 0.000000 
#    z 0.000000 0.000000 1.749240 
# 
# From -- ./inp_files/61359.got.cif
#   From: 2010.05.17/outbox.cif.g08.bks.cpg/sg70_31_cif.got.tgz:61359.got - 2010.06.03 15:57:51.
