data_PCOD9514323
_publ_section_title
;
Structure prediction by ZEFSAII (Michael W. Deem and Ramdas Pophale) SiO2 
 PCOD9514323
Probable space group: F D D D
;
_chemical_formula_sum "Si O2"
_cell_formula_units_Z 208
_cell_length_a 27.552496
_cell_length_b 16.824653
_cell_length_c 19.949158
_cell_angle_alpha 90.000000
_cell_angle_beta 90.000000
_cell_angle_gamma 90.000000
_cell_volume 9247.655312
_symmetry_space_group_name_H-M "F D D D"
_symmetry_group_IT_number 70
_space_group.IT_coordinate_system_code '2'
_symmetry_cell_setting 'orthorhombic'
loop_
_space_group_symop_operation_xyz
x,y,z
1/4-x,1/4-y,z
x,1/4-y,1/4-z
1/4-x,y,1/4-z
-x,-y,-z
3/4+x,3/4+y,-z
-x,3/4+y,3/4+z
3/4+x,-y,3/4+z
x,1/2+y,1/2+z
1/4-x,3/4-y,1/2+z
x,3/4-y,3/4-z
1/4-x,1/2+y,3/4-z
-x,1/2-y,1/2-z
3/4+x,1/4+y,1/2-z
-x,1/4+y,1/4+z
3/4+x,1/2-y,1/4+z
1/2+x,y,1/2+z
3/4-x,1/4-y,1/2+z
1/2+x,1/4-y,3/4-z
3/4-x,y,3/4-z
1/2-x,-y,1/2-z
1/4+x,3/4+y,1/2-z
1/2-x,3/4+y,1/4+z
1/4+x,-y,1/4+z
1/2+x,1/2+y,z
3/4-x,3/4-y,z
1/2+x,3/4-y,1/4-z
3/4-x,1/2+y,1/4-z
1/2-x,1/2-y,-z
1/4+x,1/4+y,-z
1/2-x,1/4+y,3/4+z
1/4+x,1/2-y,3/4+z
loop_
_atom_site_type_symbol
_atom_site_label
_atom_site_fract_x
_atom_site_fract_y
_atom_site_fract_z
Si Si1 0.089979 0.954204 0.230566
Si Si2 0.665247 0.954944 0.854733
Si Si3 0.125000 0.625000 0.534645
Si Si4 0.723057 0.569351 0.288001
Si Si5 0.237934 0.727499 0.830003
Si Si6 0.922744 0.721001 0.332202
Si Si7 0.093126 0.204411 0.809182
O O1 0.134382 0.946029 0.285230
O O2 0.079871 0.874292 0.187620
O O3 0.104128 0.037190 0.191151
O O4 0.041872 0.970532 0.276552
O O5 0.691337 0.875000 0.875000
O O6 0.703898 0.025284 0.853609
O O7 0.626548 0.975656 0.911239
O O8 0.172878 0.651180 0.494800
O O9 0.750000 0.500000 0.250000
O O10 0.755535 0.646300 0.294789
O O11 0.283398 0.754275 0.872501
O O12 0.198834 0.698936 0.885462
O O13 0.875000 0.736754 0.375000
O O14 0.924651 0.768348 0.262731
O O15 0.125000 0.125000 0.806449
#
# Coordination Sequence:
#
# PCOD9514323 Si02
#       7
#    32  32  16  32  32  32  32
#     4   9  20  41  66  92 131 169 225 276 340 412
#     4  10  18  36  68  94 119 168 224 269 332 403
#     4   8  18  38  65  88 128 182 205 276 342 410
#     4  10  20  36  65  97 133 170 225 284 337 418
#     4  10  23  42  67  97 132 183 224 276 344 414
#     4  12  27  42  65 101 139 179 226 295 343 407
#     4  11  22  44  69  97 132 182 234 276 339 419
#
# _framework density 22.492187000000001
#
# number of rings (size 3 to 8) (size 9 to 14) (size 15 to 20)
#    0.000    1.846    3.077    1.385    6.462    1.538 
#    5.538    1.923    0.000    0.000    0.000    0.000 
#    0.000    0.000    0.000    0.000    0.000    0.000 
#
# Total GULP energy -289621.511654 kJ/mol
# GULP energy per Si atom -5569.644455 kJ/mol
# Density = 2.244099 g / cm^3
# Si number density = 22.492187 Si / 1000 Ang^3
#
#
#
# Elastic Constant Matrix: (Units=GPa)
#
#
# Indices 1 2 3 4 5 6 
#
# 1 58.1732 -0.6268 21.1766 0.0000 0.0000 0.0000
# 2 -0.6268 57.3392 -1.9367 0.0000 0.0000 0.0000
# 3 21.1766 -1.9367 60.4264 0.0000 0.0000 0.0000
# 4 0.0000 0.0000 0.0000 13.7987 0.0000 0.0000
# 5 0.0000 0.0000 0.0000 0.0000 31.9840 0.0000
# 6 0.0000 0.0000 0.0000 0.0000 0.0000 3.9646
#
#
#
# Elastic Compliance Matrix: (Units=1/GPa)
#
#
# Indices 1 2 3 4 5 6 
#
# 1 0.019704 -0.000018 -0.006906 0.000000 0.000000 0.000000
# 2 -0.000018 0.017459 0.000566 0.000000 0.000000 0.000000
# 3 -0.006906 0.000566 0.018987 0.000000 0.000000 0.000000
# 4 0.000000 0.000000 0.000000 0.072471 0.000000 0.000000
# 5 0.000000 0.000000 0.000000 0.000000 0.031266 0.000000
# 6 0.000000 0.000000 0.000000 0.000000 0.000000 0.252233
#
#
# Mechanical properties :
#
#
# Convention : Reuss Voigt Hill
#
# Bulk Modulus (GPa) = 23.02322 23.68501 23.35411
# Shear Modulus (GPa) = 11.38139 20.43784 15.90962
#
# Velocity S-wave (km/s) = 2.25192 3.01768 2.66247
# Velocity P-wave (km/s) = 4.12551 4.76393 4.45617
#
# Compressibility (1/GPa) = 0.04343441
#
# Stress axis : x y z
#
# Youngs Moduli (GPa) = 50.75179 57.27707 52.66665
#
# Poissons Ratio (x) = 0.00102 0.36371
# Poissons Ratio (y) = 0.00091 -0.02980
# Poissons Ratio (z) = 0.35048 -0.03241
#
# Static dielectric constant tensor:
#      x y z
#    x 1.844310 0.000000 0.000000 
#    y 0.000000 1.897940 0.000000 
#    z 0.000000 0.000000 1.881310 
# 
# From -- ./inp_files/46954.got.cif
#   From: 2010.05.17/outbox.cif.g08.bks.cpg/sg70_24_cif.got.tgz:46954.got - 2010.06.03 15:57:51.
