data_PCOD9514382
_publ_section_title
;
Structure prediction by ZEFSAII (Michael W. Deem and Ramdas Pophale) SiO2 
 PCOD9514382
Probable space group: F D D D
;
_chemical_formula_sum "Si O2"
_cell_formula_units_Z 144
_cell_length_a 14.128867
_cell_length_b 15.863382
_cell_length_c 25.011547
_cell_angle_alpha 90.000000
_cell_angle_beta 90.000000
_cell_angle_gamma 90.000000
_cell_volume 5605.878409
_symmetry_space_group_name_H-M "F D D D"
_symmetry_group_IT_number 70
_space_group.IT_coordinate_system_code '2'
_symmetry_cell_setting 'orthorhombic'
loop_
_space_group_symop_operation_xyz
x,y,z
1/4-x,1/4-y,z
x,1/4-y,1/4-z
1/4-x,y,1/4-z
-x,-y,-z
3/4+x,3/4+y,-z
-x,3/4+y,3/4+z
3/4+x,-y,3/4+z
x,1/2+y,1/2+z
1/4-x,3/4-y,1/2+z
x,3/4-y,3/4-z
1/4-x,1/2+y,3/4-z
-x,1/2-y,1/2-z
3/4+x,1/4+y,1/2-z
-x,1/4+y,1/4+z
3/4+x,1/2-y,1/4+z
1/2+x,y,1/2+z
3/4-x,1/4-y,1/2+z
1/2+x,1/4-y,3/4-z
3/4-x,y,3/4-z
1/2-x,-y,1/2-z
1/4+x,3/4+y,1/2-z
1/2-x,3/4+y,1/4+z
1/4+x,-y,1/4+z
1/2+x,1/2+y,z
3/4-x,3/4-y,z
1/2+x,3/4-y,1/4-z
3/4-x,1/2+y,1/4-z
1/2-x,1/2-y,-z
1/4+x,1/4+y,-z
1/2-x,1/4+y,3/4+z
1/4+x,1/2-y,3/4+z
loop_
_atom_site_type_symbol
_atom_site_label
_atom_site_fract_x
_atom_site_fract_y
_atom_site_fract_z
Si Si1 0.481696 0.572797 0.397359
Si Si2 0.875000 0.875000 0.764989
Si Si3 0.770615 0.352063 0.939192
Si Si4 0.476348 0.262599 0.904421
Si Si5 0.622042 0.760334 0.934558
O O1 0.375000 0.567852 0.375000
O O2 0.496563 0.497653 0.439397
O O3 0.500018 0.666015 0.419276
O O4 0.547161 0.549366 0.346981
O O5 0.792973 0.828760 0.798789
O O6 0.915587 0.799642 0.729216
O O7 0.772350 0.375000 0.875000
O O8 0.875000 0.375000 0.959946
O O9 0.685778 0.411206 0.958729
O O10 0.375000 0.260236 0.875000
O O11 0.554177 0.285925 0.860731
#
# Coordination Sequence:
#
# PCOD9514382 Si02
#       5
#    32  16  32  32  32
#     4  10  18  40  75 107 145 200 262 343 401 450
#     4  12  27  48  74 112 156 228 276 310 423 486
#     4   9  16  33  70 108 136 189 263 329 409 445
#     4  11  26  46  71 107 158 212 274 328 386 492
#     4  11  22  46  76 110 155 210 268 338 403 467
#
# _framework density 25.68732
#
# number of rings (size 3 to 8) (size 9 to 14) (size 15 to 20)
#    0.000    1.556    6.667    0.333    0.000    6.222 
#    0.000    3.333    0.000    0.000    0.000    0.000 
#    0.000    0.000    0.000    0.000    0.000    0.000 
#
# Total GULP energy -201641.821120 kJ/mol
# GULP energy per Si atom -5601.161698 kJ/mol
# Density = 2.562885 g / cm^3
# Si number density = 25.687320 Si / 1000 Ang^3
#
#
#
# Elastic Constant Matrix: (Units=GPa)
#
#
# Indices 1 2 3 4 5 6 
#
# 1 128.1524 66.0417 32.4566 0.0000 0.0000 0.0000
# 2 66.0417 272.9956 71.8417 0.0000 0.0000 0.0000
# 3 32.4566 71.8417 95.6777 0.0000 0.0000 0.0000
# 4 0.0000 0.0000 0.0000 -220.8938 0.0000 0.0000
# 5 0.0000 0.0000 0.0000 0.0000 48.8263 0.0000
# 6 0.0000 0.0000 0.0000 0.0000 0.0000 26.6827
#
#
#
# Elastic Compliance Matrix: (Units=1/GPa)
#
#
# Indices 1 2 3 4 5 6 
#
# 1 0.009156 -0.001742 -0.001798 0.000000 0.000000 0.000000
# 2 -0.001742 0.004896 -0.003086 0.000000 0.000000 0.000000
# 3 -0.001798 -0.003086 0.013379 0.000000 0.000000 0.000000
# 4 0.000000 0.000000 0.000000 -0.004527 0.000000 0.000000
# 5 0.000000 0.000000 0.000000 0.000000 0.020481 0.000000
# 6 0.000000 0.000000 0.000000 0.000000 0.000000 0.037477
#
#
# Mechanical properties :
#
#
# Convention : Reuss Voigt Hill
#
# Bulk Modulus (GPa) = 70.52196 93.05619 81.78907
# Shear Modulus (GPa) = 50.58641 -7.31123 21.63759
#
# Velocity S-wave (km/s) = 4.44251 -1.68891 2.90547
# Velocity P-wave (km/s) = 7.33677 5.70105 6.57001
#
# Compressibility (1/GPa) = 0.01417998
#
# Stress axis : x y z
#
# Youngs Moduli (GPa) = 109.21499 204.22808 74.74536
#
# Poissons Ratio (x) = 0.35573 0.13441
# Poissons Ratio (y) = 0.19023 0.23065
# Poissons Ratio (z) = 0.19639 0.63020
#
# Static dielectric constant tensor:
#      x y z
#    x 1.981840 0.000000 0.000000 
#    y 0.000000 2.082890 0.000000 
#    z 0.000000 0.000000 2.082030 
# 
# From -- ./inp_files/65648.got.cif
#   From: 2010.05.17/outbox.cif.g08.bks.cpg/sg70_33_cif.got.tgz:65648.got - 2010.06.03 15:57:51.
