data_PCOD9514809
_publ_section_title
;
Structure prediction by ZEFSAII (Michael W. Deem and Ramdas Pophale) SiO2 
 PCOD9514809
Probable space group: F D D D
;
_chemical_formula_sum "Si O2"
_cell_formula_units_Z 240
_cell_length_a 22.206703
_cell_length_b 27.758888
_cell_length_c 21.334634
_cell_angle_alpha 90.000000
_cell_angle_beta 90.000000
_cell_angle_gamma 90.000000
_cell_volume 13151.380578
_symmetry_space_group_name_H-M "F D D D"
_symmetry_group_IT_number 70
_space_group.IT_coordinate_system_code '2'
_symmetry_cell_setting 'orthorhombic'
loop_
_space_group_symop_operation_xyz
x,y,z
1/4-x,1/4-y,z
x,1/4-y,1/4-z
1/4-x,y,1/4-z
-x,-y,-z
3/4+x,3/4+y,-z
-x,3/4+y,3/4+z
3/4+x,-y,3/4+z
x,1/2+y,1/2+z
1/4-x,3/4-y,1/2+z
x,3/4-y,3/4-z
1/4-x,1/2+y,3/4-z
-x,1/2-y,1/2-z
3/4+x,1/4+y,1/2-z
-x,1/4+y,1/4+z
3/4+x,1/2-y,1/4+z
1/2+x,y,1/2+z
3/4-x,1/4-y,1/2+z
1/2+x,1/4-y,3/4-z
3/4-x,y,3/4-z
1/2-x,-y,1/2-z
1/4+x,3/4+y,1/2-z
1/2-x,3/4+y,1/4+z
1/4+x,-y,1/4+z
1/2+x,1/2+y,z
3/4-x,3/4-y,z
1/2+x,3/4-y,1/4-z
3/4-x,1/2+y,1/4-z
1/2-x,1/2-y,-z
1/4+x,1/4+y,-z
1/2-x,1/4+y,3/4+z
1/4+x,1/2-y,3/4+z
loop_
_atom_site_type_symbol
_atom_site_label
_atom_site_fract_x
_atom_site_fract_y
_atom_site_fract_z
Si Si1 0.668472 0.335127 0.685129
Si Si2 0.433459 0.969008 0.143492
Si Si3 0.375000 0.375000 0.049373
Si Si4 0.218188 0.135558 0.193073
Si Si5 0.513119 0.747201 0.020357
Si Si6 0.062156 0.444375 0.086137
Si Si7 0.626194 0.767869 0.773899
Si Si8 0.645449 0.871187 0.946065
O O1 0.625000 0.330827 0.625000
O O2 0.713766 0.290461 0.686470
O O3 0.697627 0.388331 0.681985
O O4 0.633473 0.337438 0.751590
O O5 0.396085 0.920714 0.160234
O O6 0.446354 0.997250 0.207740
O O7 0.501544 0.957629 0.121791
O O8 0.399018 0.997219 0.088745
O O9 0.320093 0.365727 0.001076
O O10 0.191326 0.125000 0.125000
O O11 0.226742 0.193305 0.201954
O O12 0.283657 0.110912 0.192596
O O13 0.441703 0.753884 0.007887
O O14 0.125000 0.445038 0.125000
O O15 0.075811 0.482125 0.030263
O O16 0.638985 0.824693 0.778798
O O17 0.620863 0.875000 0.875000
#
# Coordination Sequence:
#
# PCOD9514809 Si02
#       8
#    32  32  16  32  32  32  32  32
#     4  10  22  33  57  84 116 146 193 246 293 338
#     4  11  22  36  58  83 116 147 192 239 296 345
#     4  10  23  32  54  84 113 144 184 236 288 334
#     4   9  19  36  57  76 112 159 192 224 276 352
#     4  10  21  36  54  86 115 148 191 243 286 341
#     4  10  20  39  60  81 108 154 191 234 291 362
#     4  10  20  35  58  82 109 146 193 239 287 351
#     4   9  18  36  57  79 108 152 197 229 286 351
#
# _framework density 18.249034999999999
#
# number of rings (size 3 to 8) (size 9 to 14) (size 15 to 20)
#    0.000    2.133    1.333    1.400    7.467    2.133 
#    0.000    0.000    0.000    8.800    0.000    0.467 
#    0.000    0.000    0.000    0.000    0.000    0.000 
#
# Total GULP energy -334133.048791 kJ/mol
# GULP energy per Si atom -5568.884147 kJ/mol
# Density = 1.820750 g / cm^3
# Si number density = 18.249035 Si / 1000 Ang^3
#
#
#
# Elastic Constant Matrix: (Units=GPa)
#
#
# Indices 1 2 3 4 5 6 
#
# 1 69.2873 38.7916 19.8186 0.0000 0.0000 0.0000
# 2 38.7916 59.2216 35.2066 0.0000 0.0000 0.0000
# 3 19.8186 35.2066 87.7691 0.0000 0.0000 0.0000
# 4 0.0000 0.0000 0.0000 28.9680 0.0000 0.0000
# 5 0.0000 0.0000 0.0000 0.0000 22.1879 0.0000
# 6 0.0000 0.0000 0.0000 0.0000 0.0000 9.2955
#
#
#
# Elastic Compliance Matrix: (Units=1/GPa)
#
#
# Indices 1 2 3 4 5 6 
#
# 1 0.022873 -0.015642 0.001110 0.000000 0.000000 0.000000
# 2 -0.015642 0.032870 -0.009653 0.000000 0.000000 0.000000
# 3 0.001110 -0.009653 0.015015 0.000000 0.000000 0.000000
# 4 0.000000 0.000000 0.000000 0.034521 0.000000 0.000000
# 5 0.000000 0.000000 0.000000 0.000000 0.045070 0.000000
# 6 0.000000 0.000000 0.000000 0.000000 0.000000 0.107578
#
#
# Mechanical properties :
#
#
# Convention : Reuss Voigt Hill
#
# Bulk Modulus (GPa) = 44.66825 44.87907 44.77366
# Shear Modulus (GPa) = 15.93576 20.25437 18.09507
#
# Velocity S-wave (km/s) = 2.95827 3.33511 3.15233
# Velocity P-wave (km/s) = 6.01653 6.28304 6.15123
#
# Compressibility (1/GPa) = 0.02238727
#
# Stress axis : x y z
#
# Youngs Moduli (GPa) = 43.72051 30.42273 66.59950
#
# Poissons Ratio (x) = 0.47587 -0.07390
# Poissons Ratio (y) = 0.68387 0.64290
# Poissons Ratio (z) = -0.04851 0.29368
#
# Static dielectric constant tensor:
#      x y z
#    x 1.649860 0.000000 0.000000 
#    y 0.000000 1.604250 0.000000 
#    z 0.000000 0.000000 1.715930 
# 
# From -- ./inp_files/46158.got.cif
#   From: 2010.05.17/outbox.cif.g08.bks.cpg/sg70_24_cif.got.tgz:46158.got - 2010.06.03 15:57:51.
