data_PCOD9514488
_publ_section_title
;
Structure prediction by ZEFSAII (Michael W. Deem and Ramdas Pophale) SiO2 
 PCOD9514488
Probable space group: F D D D
;
_chemical_formula_sum "Si O2"
_cell_formula_units_Z 96
_cell_length_a 31.436002
_cell_length_b 15.310115
_cell_length_c 9.198110
_cell_angle_alpha 90.000000
_cell_angle_beta 90.000000
_cell_angle_gamma 90.000000
_cell_volume 4426.947377
_symmetry_space_group_name_H-M "F D D D"
_symmetry_group_IT_number 70
_space_group.IT_coordinate_system_code '2'
_symmetry_cell_setting 'orthorhombic'
loop_
_space_group_symop_operation_xyz
x,y,z
1/4-x,1/4-y,z
x,1/4-y,1/4-z
1/4-x,y,1/4-z
-x,-y,-z
3/4+x,3/4+y,-z
-x,3/4+y,3/4+z
3/4+x,-y,3/4+z
x,1/2+y,1/2+z
1/4-x,3/4-y,1/2+z
x,3/4-y,3/4-z
1/4-x,1/2+y,3/4-z
-x,1/2-y,1/2-z
3/4+x,1/4+y,1/2-z
-x,1/4+y,1/4+z
3/4+x,1/2-y,1/4+z
1/2+x,y,1/2+z
3/4-x,1/4-y,1/2+z
1/2+x,1/4-y,3/4-z
3/4-x,y,3/4-z
1/2-x,-y,1/2-z
1/4+x,3/4+y,1/2-z
1/2-x,3/4+y,1/4+z
1/4+x,-y,1/4+z
1/2+x,1/2+y,z
3/4-x,3/4-y,z
1/2+x,3/4-y,1/4-z
3/4-x,1/2+y,1/4-z
1/2-x,1/2-y,-z
1/4+x,1/4+y,-z
1/2-x,1/4+y,3/4+z
1/4+x,1/2-y,3/4+z
loop_
_atom_site_type_symbol
_atom_site_label
_atom_site_fract_x
_atom_site_fract_y
_atom_site_fract_z
Si Si1 0.690653 0.075008 0.985739
Si Si2 0.260671 0.605309 0.466404
Si Si3 0.153697 0.453880 0.765618
O O1 0.725597 0.133838 0.904952
O O2 0.799078 0.074104 0.789411
O O3 0.716206 0.987809 0.035120
O O4 0.673558 0.125000 0.125000
O O5 0.240888 0.625000 0.625000
O O6 0.342236 0.461458 0.633004
O O7 0.125000 0.462801 0.625000
O O8 0.140028 0.375000 0.875000
#
# Coordination Sequence:
#
# PCOD9514488 Si02
#       3
#    32  32  32
#     4  10  19  34  60  91 118 148 192 242 291 350
#     4   9  18  34  58  85 115 151 193 236 284 352
#     4   9  19  36  58  83 116 160 203 241 288 351
#
# _framework density 21.685371
#
# number of rings (size 3 to 8) (size 9 to 14) (size 15 to 20)
#    0.000    3.333    0.000    5.000    0.000    1.333 
#    0.000    6.667    0.000   81.000    0.000    0.000 
#    0.000    0.000    0.000    0.000    0.000    0.000 
#
# Total GULP energy -134050.955998 kJ/mol
# GULP energy per Si atom -5585.456500 kJ/mol
# Density = 2.163601 g / cm^3
# Si number density = 21.685371 Si / 1000 Ang^3
#
#
#
# Elastic Constant Matrix: (Units=GPa)
#
#
# Indices 1 2 3 4 5 6 
#
# 1 54.7140 23.5251 86.8589 0.0000 0.0000 0.0000
# 2 23.5251 70.5867 48.1118 0.0000 0.0000 0.0000
# 3 86.8589 48.1118 177.3957 0.0000 0.0000 0.0000
# 4 0.0000 0.0000 0.0000 31.7513 0.0000 0.0000
# 5 0.0000 0.0000 0.0000 0.0000 41.9888 0.0000
# 6 0.0000 0.0000 0.0000 0.0000 0.0000 3.4633
#
#
#
# Elastic Compliance Matrix: (Units=1/GPa)
#
#
# Indices 1 2 3 4 5 6 
#
# 1 0.082068 0.000046 -0.040196 0.000000 0.000000 0.000000
# 2 0.000046 0.017380 -0.004736 0.000000 0.000000 0.000000
# 3 -0.040196 -0.004736 0.026603 0.000000 0.000000 0.000000
# 4 0.000000 0.000000 0.000000 0.031495 0.000000 0.000000
# 5 0.000000 0.000000 0.000000 0.000000 0.023816 0.000000
# 6 0.000000 0.000000 0.000000 0.000000 0.000000 0.288746
#
#
# Mechanical properties :
#
#
# Convention : Reuss Voigt Hill
#
# Bulk Modulus (GPa) = 27.56438 68.85423 48.20931
# Shear Modulus (GPa) = 8.74168 25.05405 16.89786
#
# Velocity S-wave (km/s) = 2.00995 3.40272 2.79450
# Velocity P-wave (km/s) = 4.25737 6.87448 5.71767
#
# Compressibility (1/GPa) = 0.03627870
#
# Stress axis : x y z
#
# Youngs Moduli (GPa) = 12.18496 57.53809 37.59007
#
# Poissons Ratio (x) = -0.00263 1.51096
# Poissons Ratio (y) = -0.00056 0.17802
# Poissons Ratio (z) = 0.48978 0.27250
#
# Static dielectric constant tensor:
#      x y z
#    x 1.773900 0.000000 0.000000 
#    y 0.000000 1.824630 0.000000 
#    z 0.000000 0.000000 1.575410 
# 
# From -- ./inp_files/9285.got.cif
#   From: 2010.05.17/outbox.cif.g08.bks.cpg/sg70_5_cif.got.tgz:9285.got - 2010.06.03 15:57:51.
