data_PCOD9514018
_publ_section_title
;
Structure prediction by ZEFSAII (Michael W. Deem and Ramdas Pophale) SiO2 
 PCOD9514018
Probable space group: F M M M
;
_chemical_formula_sum "Si O2"
_cell_formula_units_Z 48
_cell_length_a 30.000000
_cell_length_b 18.000000
_cell_length_c 18.000000
_cell_angle_alpha 90.000000
_cell_angle_beta 90.000000
_cell_angle_gamma 90.000000
_cell_volume 9720.000000
_symmetry_space_group_name_H-M "F M M M"
_symmetry_group_IT_number 69
_symmetry_cell_setting 'orthorhombic'
loop_
_space_group_symop_operation_xyz
x,y,z
-x,-y,z
x,-y,-z
-x,y,-z
-x,-y,-z
x,y,-z
-x,y,z
x,-y,z
x,1/2+y,1/2+z
-x,1/2-y,1/2+z
x,1/2-y,1/2-z
-x,1/2+y,1/2-z
-x,1/2-y,1/2-z
x,1/2+y,1/2-z
-x,1/2+y,1/2+z
x,1/2-y,1/2+z
1/2+x,y,1/2+z
1/2-x,-y,1/2+z
1/2+x,-y,1/2-z
1/2-x,y,1/2-z
1/2-x,-y,1/2-z
1/2+x,y,1/2-z
1/2-x,y,1/2+z
1/2+x,-y,1/2+z
1/2+x,1/2+y,z
1/2-x,1/2-y,z
1/2+x,1/2-y,-z
1/2-x,1/2+y,-z
1/2-x,1/2-y,-z
1/2+x,1/2+y,-z
1/2-x,1/2+y,z
1/2+x,1/2-y,z
loop_
_atom_site_type_symbol
_atom_site_label
_atom_site_fract_x
_atom_site_fract_y
_atom_site_fract_z
Si Si1 0.000000 0.631717 0.410047
Si Si2 0.573599 0.584893 0.357384
Si Si3 0.760901 0.836362 0.078965
Si Si4 0.414392 0.916569 0.319324
Si Si5 0.329404 0.831508 0.288492
Si Si6 0.675184 0.586820 0.363857
Si Si7 0.500000 0.696243 0.411986
O O1 0.043976 0.596604 0.373050
O O2 0.000000 0.718621 0.386924
O O3 0.000000 0.624650 0.500000
O O4 0.562303 0.500000 0.380950
O O5 0.571627 0.585268 0.267545
O O6 0.623840 0.602541 0.383338
O O7 0.541814 0.648508 0.385738
O O8 0.750000 0.750000 0.076017
O O9 0.792524 0.844329 0.149332
O O10 0.713532 0.874964 0.089964
O O11 0.781309 0.860103 0.000000
O O12 0.376742 0.853384 0.324566
O O13 0.395967 0.000000 0.332427
O O14 0.328939 0.750000 0.250000
O O15 0.320581 0.887284 0.221018
O O16 0.681215 0.500000 0.369352
O O17 0.500000 0.698869 0.500000
#
# Coordination Sequence:
#
# PCOD9514018 Si02
#       7
#    16  32  32  32  32  32  16
#     4  11  26  41  60  92 129 169 208 251 310 373
#     4   9  20  39  62  91 123 159 206 261 314 365
#     4  11  24  40  59  89 128 166 205 252 311 376
#     4  10  23  42  65  92 121 158 208 259 305 360
#     4  11  22  39  67  96 121 161 206 263 315 372
#     4  10  22  40  64  92 125 164 211 263 313 371
#     4  11  24  37  56  90 128 164 206 253 305 372
#
# _framework density 4.9382720000000004
#
# number of rings (size 3 to 8) (size 9 to 14) (size 15 to 20)
#    0.000    1.667    1.667    3.000    4.667    7.000 
#    0.000    5.000    0.000    0.000    0.000    0.000 
#    0.000    0.000    0.000    0.000    0.000    0.000 
#
# Total GULP energy -267857.779777 kJ/mol
# GULP energy per Si atom -5580.370412 kJ/mol
# Density = 0.492703 g / cm^3
# Si number density = 4.938272 Si / 1000 Ang^3
#
#
#
# Elastic Constant Matrix: (Units=GPa)
#
#
# Indices 1 2 3 4 5 6 
#
# 1 76.2931 70.7831 38.7850 0.0000 0.0000 0.0000
# 2 70.7831 89.4359 24.1319 0.0000 0.0000 0.0000
# 3 38.7850 24.1319 28.3044 0.0000 0.0000 0.0000
# 4 0.0000 0.0000 0.0000 46.3158 0.0000 0.0000
# 5 0.0000 0.0000 0.0000 0.0000 -19.5633 0.0000
# 6 0.0000 0.0000 0.0000 0.0000 0.0000 35.2733
#
#
#
# Elastic Compliance Matrix: (Units=1/GPa)
#
#
# Indices 1 2 3 4 5 6 
#
# 1 0.401668 -0.219995 -0.362834 0.000000 0.000000 0.000000
# 2 -0.219995 0.135014 0.186344 0.000000 0.000000 0.000000
# 3 -0.362834 0.186344 0.373641 0.000000 0.000000 0.000000
# 4 0.000000 0.000000 0.000000 0.021591 0.000000 0.000000
# 5 0.000000 0.000000 0.000000 0.000000 -0.051116 0.000000
# 6 0.000000 0.000000 0.000000 0.000000 0.000000 0.028350
#
#
# Mechanical properties :
#
#
# Convention : Reuss Voigt Hill
#
# Bulk Modulus (GPa) = 8.52124 51.27039 29.89581
# Shear Modulus (GPa) = 2.87153 16.42737 9.64945
#
# Velocity S-wave (km/s) = 1.20701 2.88694 2.21261
# Velocity P-wave (km/s) = 2.50314 6.09299 4.65780
#
# Compressibility (1/GPa) = 0.11735381
#
# Stress axis : x y z
#
# Youngs Moduli (GPa) = 2.48962 7.40665 2.67636
#
# Poissons Ratio (x) = 1.62942 0.97108
# Poissons Ratio (y) = 0.54770 -0.49873
# Poissons Ratio (z) = 0.90332 -1.38019
#
# Static dielectric constant tensor:
#      x y z
#    x 1.683060 0.000000 0.000000 
#    y 0.000000 1.670260 0.000000 
#    z 0.000000 0.000000 1.696390 
# 
# From -- ./inp_files/27803.got.cif
#   From: 2010.05.17/outbox.ucp.g08.bks.cvg/sg69_14_cif.got.tgz:27803.got - 2010.06.11 16:51:34.
