data_PCOD9514833
_publ_section_title
;
Structure prediction by ZEFSAII (Michael W. Deem and Ramdas Pophale) SiO2 
 PCOD9514833
Probable space group: F D D D
;
_chemical_formula_sum "Si O2"
_cell_formula_units_Z 176
_cell_length_a 29.898897
_cell_length_b 23.286868
_cell_length_c 11.254764
_cell_angle_alpha 90.000000
_cell_angle_beta 90.000000
_cell_angle_gamma 90.000000
_cell_volume 7836.148206
_symmetry_space_group_name_H-M "F D D D"
_symmetry_group_IT_number 70
_space_group.IT_coordinate_system_code '2'
_symmetry_cell_setting 'orthorhombic'
loop_
_space_group_symop_operation_xyz
x,y,z
1/4-x,1/4-y,z
x,1/4-y,1/4-z
1/4-x,y,1/4-z
-x,-y,-z
3/4+x,3/4+y,-z
-x,3/4+y,3/4+z
3/4+x,-y,3/4+z
x,1/2+y,1/2+z
1/4-x,3/4-y,1/2+z
x,3/4-y,3/4-z
1/4-x,1/2+y,3/4-z
-x,1/2-y,1/2-z
3/4+x,1/4+y,1/2-z
-x,1/4+y,1/4+z
3/4+x,1/2-y,1/4+z
1/2+x,y,1/2+z
3/4-x,1/4-y,1/2+z
1/2+x,1/4-y,3/4-z
3/4-x,y,3/4-z
1/2-x,-y,1/2-z
1/4+x,3/4+y,1/2-z
1/2-x,3/4+y,1/4+z
1/4+x,-y,1/4+z
1/2+x,1/2+y,z
3/4-x,3/4-y,z
1/2+x,3/4-y,1/4-z
3/4-x,1/2+y,1/4-z
1/2-x,1/2-y,-z
1/4+x,1/4+y,-z
1/2-x,1/4+y,3/4+z
1/4+x,1/2-y,3/4+z
loop_
_atom_site_type_symbol
_atom_site_label
_atom_site_fract_x
_atom_site_fract_y
_atom_site_fract_z
Si Si1 0.796199 0.809430 0.596896
Si Si2 0.537768 0.656292 0.242425
Si Si3 0.426451 0.750441 0.404597
Si Si4 0.440544 0.708755 0.799925
Si Si5 0.640696 0.375000 0.875000
Si Si6 0.685198 0.362194 0.542934
O O1 0.805549 0.875235 0.637846
O O2 0.806831 0.775688 0.720154
O O3 0.818645 0.774316 0.488491
O O4 0.743713 0.802821 0.565138
O O5 0.557617 0.625000 0.125000
O O6 0.547345 0.721563 0.208077
O O7 0.485003 0.642983 0.244097
O O8 0.375000 0.763211 0.375000
O O9 0.434869 0.682412 0.401523
O O10 0.420521 0.669995 0.695402
O O11 0.423578 0.677403 0.919363
O O12 0.604517 0.342483 0.791714
#
# Coordination Sequence:
#
# PCOD9514833 Si02
#       6
#    32  32  32  32  16  32
#     4   9  20  36  56  80 120 161 204 247 301 380
#     4   9  19  36  54  81 119 163 197 251 309 373
#     4  11  21  35  58  91 121 160 209 256 314 392
#     4  10  20  36  56  86 119 163 201 254 316 378
#     4  12  22  36  62  92 121 157 206 270 328 382
#     4  11  21  36  58  89 126 154 205 268 326 380
#
# _framework density 22.460014999999999
#
# number of rings (size 3 to 8) (size 9 to 14) (size 15 to 20)
#    0.000    1.818    0.909    4.364    0.000    3.273 
#    0.000    0.000    0.000    0.000    9.455    0.000 
#    0.000    0.000    0.000    0.000    0.000    0.000 
#
# Total GULP energy -244978.752675 kJ/mol
# GULP energy per Si atom -5567.698924 kJ/mol
# Density = 2.240889 g / cm^3
# Si number density = 22.460015 Si / 1000 Ang^3
#
#
#
# Elastic Constant Matrix: (Units=GPa)
#
#
# Indices 1 2 3 4 5 6 
#
# 1 75.2900 22.4218 33.5749 0.0000 0.0000 0.0000
# 2 22.4218 73.8351 31.5401 0.0000 0.0000 0.0000
# 3 33.5749 31.5401 65.3948 -0.0001 0.0000 0.0000
# 4 0.0000 0.0000 -0.0001 54.4563 0.0000 0.0000
# 5 0.0000 0.0000 0.0000 0.0000 40.0013 0.0000
# 6 0.0000 0.0000 0.0000 0.0000 0.0000 19.7734
#
#
#
# Elastic Compliance Matrix: (Units=1/GPa)
#
#
# Indices 1 2 3 4 5 6 
#
# 1 0.017425 -0.001851 -0.008053 0.000000 0.000000 0.000000
# 2 -0.001851 0.017255 -0.007372 0.000000 0.000000 0.000000
# 3 -0.008053 -0.007372 0.022982 0.000000 0.000000 0.000000
# 4 0.000000 0.000000 0.000000 0.018363 0.000000 0.000000
# 5 0.000000 0.000000 0.000000 0.000000 0.024999 0.000000
# 6 0.000000 0.000000 0.000000 0.000000 0.000000 0.050573
#
#
# Mechanical properties :
#
#
# Convention : Reuss Voigt Hill
#
# Bulk Modulus (GPa) = 43.27324 43.28816 43.28070
# Shear Modulus (GPa) = 25.79291 31.31173 28.55232
#
# Velocity S-wave (km/s) = 3.39247 3.73783 3.56933
# Velocity P-wave (km/s) = 5.88674 6.15985 6.02485
#
# Compressibility (1/GPa) = 0.02310897
#
# Stress axis : x y z
#
# Youngs Moduli (GPa) = 57.39026 57.95499 43.51293
#
# Poissons Ratio (x) = 0.10729 0.35042
# Poissons Ratio (y) = 0.10625 0.32076
# Poissons Ratio (z) = 0.46217 0.42722
#
# Static dielectric constant tensor:
#      x y z
#    x 1.814320 0.000000 0.000000 
#    y 0.000000 1.977570 0.000000 
#    z 0.000000 0.000000 1.975530 
# 
# From -- ./inp_files/22457.got.cif
#   From: 2010.05.17/outbox.cif.g08.bks.cpg/sg70_12_cif.got.tgz:22457.got - 2010.06.03 15:57:51.
