data_PCOD9514859
_publ_section_title
;
Structure prediction by ZEFSAII (Michael W. Deem and Ramdas Pophale) SiO2 
 PCOD9514859
Probable space group: F D D D
;
_chemical_formula_sum "Si O2"
_cell_formula_units_Z 176
_cell_length_a 30.111875
_cell_length_b 11.962444
_cell_length_c 23.376154
_cell_angle_alpha 90.000000
_cell_angle_beta 90.000000
_cell_angle_gamma 90.000000
_cell_volume 8420.362265
_symmetry_space_group_name_H-M "F D D D"
_symmetry_group_IT_number 70
_space_group.IT_coordinate_system_code '2'
_symmetry_cell_setting 'orthorhombic'
loop_
_space_group_symop_operation_xyz
x,y,z
1/4-x,1/4-y,z
x,1/4-y,1/4-z
1/4-x,y,1/4-z
-x,-y,-z
3/4+x,3/4+y,-z
-x,3/4+y,3/4+z
3/4+x,-y,3/4+z
x,1/2+y,1/2+z
1/4-x,3/4-y,1/2+z
x,3/4-y,3/4-z
1/4-x,1/2+y,3/4-z
-x,1/2-y,1/2-z
3/4+x,1/4+y,1/2-z
-x,1/4+y,1/4+z
3/4+x,1/2-y,1/4+z
1/2+x,y,1/2+z
3/4-x,1/4-y,1/2+z
1/2+x,1/4-y,3/4-z
3/4-x,y,3/4-z
1/2-x,-y,1/2-z
1/4+x,3/4+y,1/2-z
1/2-x,3/4+y,1/4+z
1/4+x,-y,1/4+z
1/2+x,1/2+y,z
3/4-x,3/4-y,z
1/2+x,3/4-y,1/4-z
3/4-x,1/2+y,1/4-z
1/2-x,1/2-y,-z
1/4+x,1/4+y,-z
1/2-x,1/4+y,3/4+z
1/4+x,1/2-y,3/4+z
loop_
_atom_site_type_symbol
_atom_site_label
_atom_site_fract_x
_atom_site_fract_y
_atom_site_fract_z
Si Si1 0.622894 0.257685 0.272486
Si Si2 0.276151 0.556652 0.200421
Si Si3 0.495290 0.953422 0.164076
Si Si4 0.827936 0.813067 0.032243
Si Si5 0.918912 0.625000 0.625000
Si Si6 0.161707 0.341005 0.075132
O O1 0.625000 0.125000 0.266647
O O2 0.575735 0.320601 0.277145
O O3 0.644263 0.290015 0.332866
O O4 0.646072 0.310721 0.217491
O O5 0.250000 0.500000 0.250000
O O6 0.249801 0.669020 0.184894
O O7 0.279033 0.473753 0.146305
O O8 0.462567 0.897583 0.209674
O O9 0.539923 0.883109 0.154095
O O10 0.875000 0.875000 0.046572
O O11 0.813974 0.712317 0.076168
O O12 0.832781 0.763445 0.968341
O O13 0.125000 0.324227 0.125000
#
# Coordination Sequence:
#
# PCOD9514859 Si02
#       6
#    32  32  32  32  16  32
#     4  11  21  37  62  89 123 164 211 266 327 389
#     4  11  22  38  62  94 127 166 212 267 327 387
#     4  11  23  41  65  94 129 170 220 271 328 402
#     4  11  23  42  67  92 126 168 218 274 331 400
#     4  10  20  36  60  92 117 152 203 262 320 378
#     4  11  25  43  61  91 130 172 218 270 333 402
#
# _framework density 20.901713999999998
#
# number of rings (size 3 to 8) (size 9 to 14) (size 15 to 20)
#    0.000    1.091    0.000    8.727    0.000    3.636 
#    0.000    1.818    0.000    0.000    0.000    0.000 
#    0.000    0.000    0.000    0.000    0.000    0.000 
#
# Total GULP energy -245235.895132 kJ/mol
# GULP energy per Si atom -5573.543071 kJ/mol
# Density = 2.085414 g / cm^3
# Si number density = 20.901714 Si / 1000 Ang^3
#
#
#
# Elastic Constant Matrix: (Units=GPa)
#
#
# Indices 1 2 3 4 5 6 
#
# 1 73.1822 17.5256 4.9404 0.0000 0.0000 0.0000
# 2 17.5256 90.8981 39.8360 0.0000 0.0000 0.0000
# 3 4.9404 39.8360 64.6920 0.0000 0.0000 0.0000
# 4 0.0000 0.0000 0.0000 22.9450 0.0000 0.0000
# 5 0.0000 0.0000 0.0000 0.0000 23.0240 0.0000
# 6 0.0000 0.0000 0.0000 0.0000 0.0000 18.4434
#
#
#
# Elastic Compliance Matrix: (Units=1/GPa)
#
#
# Indices 1 2 3 4 5 6 
#
# 1 0.014359 -0.003133 0.000833 0.000000 0.000000 0.000000
# 2 -0.003133 0.015751 -0.009460 0.000000 0.000000 0.000000
# 3 0.000833 -0.009460 0.021220 0.000000 0.000000 0.000000
# 4 0.000000 0.000000 0.000000 0.043582 0.000000 0.000000
# 5 0.000000 0.000000 0.000000 0.000000 0.043433 0.000000
# 6 0.000000 0.000000 0.000000 0.000000 0.000000 0.054220
#
#
# Mechanical properties :
#
#
# Convention : Reuss Voigt Hill
#
# Bulk Modulus (GPa) = 35.96021 39.26401 37.61211
# Shear Modulus (GPa) = 22.18718 23.98051 23.08384
#
# Velocity S-wave (km/s) = 3.26160 3.39085 3.32686
# Velocity P-wave (km/s) = 5.60588 5.84435 5.72635
#
# Compressibility (1/GPa) = 0.02780851
#
# Stress axis : x y z
#
# Youngs Moduli (GPa) = 69.64427 63.48675 47.12636
#
# Poissons Ratio (x) = 0.19893 -0.03926
# Poissons Ratio (y) = 0.21823 0.44582
# Poissons Ratio (z) = -0.05801 0.60059
#
# Static dielectric constant tensor:
#      x y z
#    x 1.732240 0.000000 0.000000 
#    y 0.000000 1.766150 0.000000 
#    z 0.000000 0.000000 1.644700 
# 
# From -- ./inp_files/50384.got.cif
#   From: 2010.05.17/outbox.cif.g08.bks.cpg/sg70_26_cif.got.tgz:50384.got - 2010.06.03 15:57:51.
