data_PCOD9514583
_publ_section_title
;
Structure prediction by ZEFSAII (Michael W. Deem and Ramdas Pophale) SiO2 
 PCOD9514583
Probable space group: F D D D
;
_chemical_formula_sum "Si O2"
_cell_formula_units_Z 192
_cell_length_a 19.290534
_cell_length_b 20.871247
_cell_length_c 20.323311
_cell_angle_alpha 90.000000
_cell_angle_beta 90.000000
_cell_angle_gamma 90.000000
_cell_volume 8182.520664
_symmetry_space_group_name_H-M "F D D D"
_symmetry_group_IT_number 70
_space_group.IT_coordinate_system_code '2'
_symmetry_cell_setting 'orthorhombic'
loop_
_space_group_symop_operation_xyz
x,y,z
1/4-x,1/4-y,z
x,1/4-y,1/4-z
1/4-x,y,1/4-z
-x,-y,-z
3/4+x,3/4+y,-z
-x,3/4+y,3/4+z
3/4+x,-y,3/4+z
x,1/2+y,1/2+z
1/4-x,3/4-y,1/2+z
x,3/4-y,3/4-z
1/4-x,1/2+y,3/4-z
-x,1/2-y,1/2-z
3/4+x,1/4+y,1/2-z
-x,1/4+y,1/4+z
3/4+x,1/2-y,1/4+z
1/2+x,y,1/2+z
3/4-x,1/4-y,1/2+z
1/2+x,1/4-y,3/4-z
3/4-x,y,3/4-z
1/2-x,-y,1/2-z
1/4+x,3/4+y,1/2-z
1/2-x,3/4+y,1/4+z
1/4+x,-y,1/4+z
1/2+x,1/2+y,z
3/4-x,3/4-y,z
1/2+x,3/4-y,1/4-z
3/4-x,1/2+y,1/4-z
1/2-x,1/2-y,-z
1/4+x,1/4+y,-z
1/2-x,1/4+y,3/4+z
1/4+x,1/2-y,3/4+z
loop_
_atom_site_type_symbol
_atom_site_label
_atom_site_fract_x
_atom_site_fract_y
_atom_site_fract_z
Si Si1 0.687495 0.227430 0.086322
Si Si2 0.724249 0.589340 0.885754
Si Si3 0.679630 0.490919 0.491992
Si Si4 0.326543 0.470773 0.660461
Si Si5 0.492830 0.630802 0.510613
Si Si6 0.163840 0.857513 0.453385
O O1 0.625000 0.195443 0.125000
O O2 0.714891 0.286789 0.130000
O O3 0.647595 0.255199 0.022464
O O4 0.740989 0.174006 0.064140
O O5 0.724487 0.660185 0.917172
O O6 0.655781 0.555182 0.914895
O O7 0.721568 0.605921 0.806941
O O8 0.677023 0.508304 0.415287
O O9 0.724258 0.549310 0.521631
O O10 0.704102 0.416674 0.488219
O O11 0.311599 0.533919 0.702903
O O12 0.410977 0.641681 0.511553
O O13 0.156222 0.875000 0.375000
#
# Coordination Sequence:
#
# PCOD9514583 Si02
#       6
#    32  32  32  32  32  32
#     4  12  23  32  48  81 120 151 183 216 284 352
#     4  10  19  37  53  74 108 151 184 230 284 336
#     4  10  20  33  47  77 111 147 183 223 270 340
#     4   9  19  35  55  72 101 148 201 227 266 330
#     4  11  21  34  51  77 121 153 178 222 287 342
#     4  10  20  34  53  78 107 150 193 224 269 335
#
# _framework density 23.464652999999998
#
# number of rings (size 3 to 8) (size 9 to 14) (size 15 to 20)
#    0.000    1.667    3.333    3.000    4.667    0.667 
#    0.000    0.000    0.000    1.000    0.000    0.000 
#    0.000    5.500    0.000    0.000    0.000    0.000 
#
# Total GULP energy -267767.433378 kJ/mol
# GULP energy per Si atom -5578.488195 kJ/mol
# Density = 2.341125 g / cm^3
# Si number density = 23.464653 Si / 1000 Ang^3
#
#
#
# Elastic Constant Matrix: (Units=GPa)
#
#
# Indices 1 2 3 4 5 6 
#
# 1 40.8887 41.9110 1.0642 0.0000 0.0000 0.0000
# 2 41.9110 221.2550 41.2885 0.0000 0.0000 0.0000
# 3 1.0642 41.2885 42.1111 0.0000 0.0000 0.0000
# 4 0.0000 0.0000 0.0000 53.9826 0.0000 0.0000
# 5 0.0000 0.0000 0.0000 0.0000 10.5875 0.0000
# 6 0.0000 0.0000 0.0000 0.0000 0.0000 46.5096
#
#
#
# Elastic Compliance Matrix: (Units=1/GPa)
#
#
# Indices 1 2 3 4 5 6 
#
# 1 0.031623 -0.007149 0.006210 0.000000 0.000000 0.000000
# 2 -0.007149 0.007148 -0.006828 0.000000 0.000000 0.000000
# 3 0.006210 -0.006828 0.030284 0.000000 0.000000 0.000000
# 4 0.000000 0.000000 0.000000 0.018524 0.000000 0.000000
# 5 0.000000 0.000000 0.000000 0.000000 0.094451 0.000000
# 6 0.000000 0.000000 0.000000 0.000000 0.000000 0.021501
#
#
# Mechanical properties :
#
#
# Convention : Reuss Voigt Hill
#
# Bulk Modulus (GPa) = 18.68394 52.53134 35.60764
# Shear Modulus (GPa) = 21.10556 36.88201 28.99378
#
# Velocity S-wave (km/s) = 3.00236 3.96891 3.51898
# Velocity P-wave (km/s) = 4.47199 6.59083 5.63195
#
# Compressibility (1/GPa) = 0.05352191
#
# Stress axis : x y z
#
# Youngs Moduli (GPa) = 31.62283 139.89957 33.02060
#
# Poissons Ratio (x) = 1.00014 -0.20507
# Poissons Ratio (y) = 0.22607 0.22545
# Poissons Ratio (z) = -0.19639 0.95519
#
# Static dielectric constant tensor:
#      x y z
#    x 1.847360 0.000000 0.000000 
#    y 0.000000 1.953040 0.000000 
#    z 0.000000 0.000000 1.973530 
# 
# From -- ./inp_files/46108.got.cif
#   From: 2010.05.17/outbox.cif.g08.bks.cpg/sg70_24_cif.got.tgz:46108.got - 2010.06.03 15:57:51.
