data_PCOD9514275
_publ_section_title
;
Structure prediction by ZEFSAII (Michael W. Deem and Ramdas Pophale) SiO2 
 PCOD9514275
Probable space group: F D D D
;
_chemical_formula_sum "Si O2"
_cell_formula_units_Z 192
_cell_length_a 11.376535
_cell_length_b 27.719557
_cell_length_c 30.057527
_cell_angle_alpha 90.000000
_cell_angle_beta 90.000000
_cell_angle_gamma 90.000000
_cell_volume 9478.716596
_symmetry_space_group_name_H-M "F D D D"
_symmetry_group_IT_number 70
_space_group.IT_coordinate_system_code '2'
_symmetry_cell_setting 'orthorhombic'
loop_
_space_group_symop_operation_xyz
x,y,z
1/4-x,1/4-y,z
x,1/4-y,1/4-z
1/4-x,y,1/4-z
-x,-y,-z
3/4+x,3/4+y,-z
-x,3/4+y,3/4+z
3/4+x,-y,3/4+z
x,1/2+y,1/2+z
1/4-x,3/4-y,1/2+z
x,3/4-y,3/4-z
1/4-x,1/2+y,3/4-z
-x,1/2-y,1/2-z
3/4+x,1/4+y,1/2-z
-x,1/4+y,1/4+z
3/4+x,1/2-y,1/4+z
1/2+x,y,1/2+z
3/4-x,1/4-y,1/2+z
1/2+x,1/4-y,3/4-z
3/4-x,y,3/4-z
1/2-x,-y,1/2-z
1/4+x,3/4+y,1/2-z
1/2-x,3/4+y,1/4+z
1/4+x,-y,1/4+z
1/2+x,1/2+y,z
3/4-x,3/4-y,z
1/2+x,3/4-y,1/4-z
3/4-x,1/2+y,1/4-z
1/2-x,1/2-y,-z
1/4+x,1/4+y,-z
1/2-x,1/4+y,3/4+z
1/4+x,1/2-y,3/4+z
loop_
_atom_site_type_symbol
_atom_site_label
_atom_site_fract_x
_atom_site_fract_y
_atom_site_fract_z
Si Si1 0.638265 0.488742 0.492555
Si Si2 0.630057 0.896750 0.045464
Si Si3 0.461214 0.419139 0.000700
Si Si4 0.125000 0.463731 0.125000
Si Si5 0.359926 0.515199 0.044284
Si Si6 0.878050 0.767375 0.143984
Si Si7 0.875000 0.875000 0.169570
O O1 0.500000 0.500000 0.500000
O O2 0.646229 0.432008 0.503715
O O3 0.723875 0.517996 0.527015
O O4 0.672877 0.499566 0.441213
O O5 0.672165 0.928734 0.086872
O O6 0.494096 0.883798 0.052568
O O7 0.714060 0.851700 0.041718
O O8 0.375000 0.375000 0.986898
O O9 0.563266 0.438138 0.968107
O O10 0.397100 0.467660 0.016187
O O11 0.231104 0.491395 0.147069
O O12 0.393270 0.504679 0.095583
O O13 0.857144 0.825049 0.143465
#
# Coordination Sequence:
#
# PCOD9514275 Si02
#       7
#    32  32  32  16  32  32  16
#     4  12  21  39  65  95 137 167 210 270 335 401
#     4  11  22  38  64  94 129 167 210 271 336 389
#     4  11  23  44  66  87 131 174 219 271 331 387
#     4  10  18  34  62  96 125 164 203 272 336 374
#     4  11  25  42  65  97 128 175 222 272 328 398
#     4  11  21  37  61  97 127 167 216 265 326 395
#     4  10  22  34  62 104 125 162 215 276 338 392
#
# _framework density 20.255908000000002
#
# number of rings (size 3 to 8) (size 9 to 14) (size 15 to 20)
#    0.000    1.000    6.667    1.000    5.833    0.000 
#    0.000    3.333    3.667    0.000    0.000    0.000 
#    0.000    0.000    0.000    0.000    0.000    0.000 
#
# Total GULP energy -267286.982738 kJ/mol
# GULP energy per Si atom -5568.478807 kJ/mol
# Density = 2.020980 g / cm^3
# Si number density = 20.255908 Si / 1000 Ang^3
#
#
#
# Elastic Constant Matrix: (Units=GPa)
#
#
# Indices 1 2 3 4 5 6 
#
# 1 99.5176 36.5573 18.2745 0.0000 0.0000 0.0000
# 2 36.5573 60.2493 22.8653 0.0000 0.0000 0.0000
# 3 18.2745 22.8653 101.1037 0.0000 0.0000 0.0000
# 4 0.0000 0.0000 0.0000 27.2578 0.0000 0.0000
# 5 0.0000 0.0000 0.0000 0.0000 18.0399 0.0000
# 6 0.0000 0.0000 0.0000 0.0000 0.0000 27.3012
#
#
#
# Elastic Compliance Matrix: (Units=1/GPa)
#
#
# Indices 1 2 3 4 5 6 
#
# 1 0.012966 -0.007633 -0.000617 0.000000 0.000000 0.000000
# 2 -0.007633 0.022649 -0.003743 0.000000 0.000000 0.000000
# 3 -0.000617 -0.003743 0.010849 0.000000 0.000000 0.000000
# 4 0.000000 0.000000 0.000000 0.036687 0.000000 0.000000
# 5 0.000000 0.000000 0.000000 0.000000 0.055433 0.000000
# 6 0.000000 0.000000 0.000000 0.000000 0.000000 0.036628
#
#
# Mechanical properties :
#
#
# Convention : Reuss Voigt Hill
#
# Bulk Modulus (GPa) = 44.48745 46.25163 45.36954
# Shear Modulus (GPa) = 24.19078 26.73137 25.46107
#
# Velocity S-wave (km/s) = 3.45955 3.63668 3.54922
# Velocity P-wave (km/s) = 6.16185 6.36531 6.26441
#
# Compressibility (1/GPa) = 0.02247825
#
# Stress axis : x y z
#
# Youngs Moduli (GPa) = 77.12639 44.15112 92.17560
#
# Poissons Ratio (x) = 0.33700 0.05690
# Poissons Ratio (y) = 0.58870 0.34499
# Poissons Ratio (z) = 0.04761 0.16524
#
# Static dielectric constant tensor:
#      x y z
#    x 1.879030 0.000000 0.000000 
#    y 0.000000 1.723030 0.000000 
#    z 0.000000 0.000000 1.767610 
# 
# From -- ./inp_files/65131.got.cif
#   From: 2010.05.17/outbox.cif.g08.bks.cpg/sg70_33_cif.got.tgz:65131.got - 2010.06.03 15:57:51.
