data_PCOD9514314
_publ_section_title
;
Structure prediction by ZEFSAII (Michael W. Deem and Ramdas Pophale) SiO2 
 PCOD9514314
Probable space group: F D D D
;
_chemical_formula_sum "Si O2"
_cell_formula_units_Z 208
_cell_length_a 30.616585
_cell_length_b 18.183698
_cell_length_c 20.029061
_cell_angle_alpha 90.000000
_cell_angle_beta 90.000000
_cell_angle_gamma 90.000000
_cell_volume 11150.633628
_symmetry_space_group_name_H-M "F D D D"
_symmetry_group_IT_number 70
_space_group.IT_coordinate_system_code '2'
_symmetry_cell_setting 'orthorhombic'
loop_
_space_group_symop_operation_xyz
x,y,z
1/4-x,1/4-y,z
x,1/4-y,1/4-z
1/4-x,y,1/4-z
-x,-y,-z
3/4+x,3/4+y,-z
-x,3/4+y,3/4+z
3/4+x,-y,3/4+z
x,1/2+y,1/2+z
1/4-x,3/4-y,1/2+z
x,3/4-y,3/4-z
1/4-x,1/2+y,3/4-z
-x,1/2-y,1/2-z
3/4+x,1/4+y,1/2-z
-x,1/4+y,1/4+z
3/4+x,1/2-y,1/4+z
1/2+x,y,1/2+z
3/4-x,1/4-y,1/2+z
1/2+x,1/4-y,3/4-z
3/4-x,y,3/4-z
1/2-x,-y,1/2-z
1/4+x,3/4+y,1/2-z
1/2-x,3/4+y,1/4+z
1/4+x,-y,1/4+z
1/2+x,1/2+y,z
3/4-x,3/4-y,z
1/2+x,3/4-y,1/4-z
3/4-x,1/2+y,1/4-z
1/2-x,1/2-y,-z
1/4+x,1/4+y,-z
1/2-x,1/4+y,3/4+z
1/4+x,1/2-y,3/4+z
loop_
_atom_site_type_symbol
_atom_site_label
_atom_site_fract_x
_atom_site_fract_y
_atom_site_fract_z
Si Si1 0.818289 0.991013 0.270593
Si Si2 0.634269 0.482165 0.046476
Si Si3 0.796232 0.400687 0.644275
Si Si4 0.875000 0.875000 0.045698
Si Si5 0.100949 0.920142 0.697613
Si Si6 0.524101 0.349102 0.520832
Si Si7 0.477992 0.764036 0.906885
O O1 0.867429 0.021559 0.267447
O O2 0.789494 0.065976 0.260805
O O3 0.801490 0.963442 0.342957
O O4 0.814467 0.929608 0.214799
O O5 0.625000 0.498138 0.125000
O O6 0.603827 0.412590 0.025760
O O7 0.683148 0.449910 0.034440
O O8 0.627139 0.553102 0.001023
O O9 0.832728 0.373626 0.593868
O O10 0.757478 0.345597 0.664952
O O11 0.771317 0.471731 0.615889
O O12 0.125000 0.913964 0.625000
O O13 0.053411 0.954188 0.692178
O O14 0.496185 0.323749 0.457574
#
# Coordination Sequence:
#
# PCOD9514314 Si02
#       7
#    32  32  32  16  32  32  32
#     4   9  20  35  57  87 118 162 189 233 291 359
#     4  10  20  42  66  83 107 158 205 244 305 369
#     4  11  23  36  55  86 128 153 192 248 299 341
#     4  12  25  40  56  91 122 156 194 262 298 353
#     4   8  17  35  60  83 111 149 199 238 285 351
#     4  10  20  37  63  89 116 156 202 243 293 357
#     4  10  18  36  59  88 116 153 201 238 282 355
#
# _framework density 18.653648
#
# number of rings (size 3 to 8) (size 9 to 14) (size 15 to 20)
#    0.000    2.154    1.538    4.846    2.154    2.462 
#    0.000    3.077    0.000    0.000    0.000    0.000 
#    0.000    0.000    0.000    0.000    0.000    0.000 
#
# Total GULP energy -289920.907469 kJ/mol
# GULP energy per Si atom -5575.402067 kJ/mol
# Density = 1.861119 g / cm^3
# Si number density = 18.653648 Si / 1000 Ang^3
#
#
#
# Elastic Constant Matrix: (Units=GPa)
#
#
# Indices 1 2 3 4 5 6 
#
# 1 53.1916 28.9179 41.5726 0.0000 0.0000 0.0000
# 2 28.9179 73.4397 50.8061 0.0000 0.0000 0.0000
# 3 41.5726 50.8061 94.1496 0.0000 0.0000 0.0000
# 4 0.0000 0.0000 0.0000 33.2405 0.0000 0.0000
# 5 0.0000 0.0000 0.0000 0.0000 28.2669 0.0000
# 6 0.0000 0.0000 0.0000 0.0000 0.0000 14.8353
#
#
#
# Elastic Compliance Matrix: (Units=1/GPa)
#
#
# Indices 1 2 3 4 5 6 
#
# 1 0.029480 -0.004153 -0.010776 0.000000 0.000000 0.000000
# 2 -0.004153 0.022313 -0.010207 0.000000 0.000000 0.000000
# 3 -0.010776 -0.010207 0.020888 0.000000 0.000000 0.000000
# 4 0.000000 0.000000 0.000000 0.030084 0.000000 0.000000
# 5 0.000000 0.000000 0.000000 0.000000 0.035377 0.000000
# 6 0.000000 0.000000 0.000000 0.000000 0.000000 0.067407
#
#
# Mechanical properties :
#
#
# Convention : Reuss Voigt Hill
#
# Bulk Modulus (GPa) = 44.62607 51.48604 48.05606
# Shear Modulus (GPa) = 18.99042 21.90083 20.44563
#
# Velocity S-wave (km/s) = 3.19416 3.43020 3.31428
# Velocity P-wave (km/s) = 6.13017 6.58402 6.36114
#
# Compressibility (1/GPa) = 0.02240842
#
# Stress axis : x y z
#
# Youngs Moduli (GPa) = 33.92134 44.81619 47.87519
#
# Poissons Ratio (x) = 0.18614 0.51590
# Poissons Ratio (y) = 0.14089 0.48867
# Poissons Ratio (z) = 0.36553 0.45744
#
# Static dielectric constant tensor:
#      x y z
#    x 1.679620 0.000000 0.000000 
#    y 0.000000 1.663420 0.000000 
#    z 0.000000 0.000000 1.689390 
# 
# From -- ./inp_files/39861.got.cif
#   From: 2010.05.17/outbox.cif.g08.bks.cpg/sg70_20_cif.got.tgz:39861.got - 2010.06.03 15:57:51.
