data_PCOD9514201
_publ_section_title
;
Structure prediction by ZEFSAII (Michael W. Deem and Ramdas Pophale) SiO2 
 PCOD9514201
Probable space group: F D D D
;
_chemical_formula_sum "Si O2"
_cell_formula_units_Z 176
_cell_length_a 28.117721
_cell_length_b 26.205346
_cell_length_c 11.154106
_cell_angle_alpha 90.000000
_cell_angle_beta 90.000000
_cell_angle_gamma 90.000000
_cell_volume 8218.731317
_symmetry_space_group_name_H-M "F D D D"
_symmetry_group_IT_number 70
_space_group.IT_coordinate_system_code '2'
_symmetry_cell_setting 'orthorhombic'
loop_
_space_group_symop_operation_xyz
x,y,z
1/4-x,1/4-y,z
x,1/4-y,1/4-z
1/4-x,y,1/4-z
-x,-y,-z
3/4+x,3/4+y,-z
-x,3/4+y,3/4+z
3/4+x,-y,3/4+z
x,1/2+y,1/2+z
1/4-x,3/4-y,1/2+z
x,3/4-y,3/4-z
1/4-x,1/2+y,3/4-z
-x,1/2-y,1/2-z
3/4+x,1/4+y,1/2-z
-x,1/4+y,1/4+z
3/4+x,1/2-y,1/4+z
1/2+x,y,1/2+z
3/4-x,1/4-y,1/2+z
1/2+x,1/4-y,3/4-z
3/4-x,y,3/4-z
1/2-x,-y,1/2-z
1/4+x,3/4+y,1/2-z
1/2-x,3/4+y,1/4+z
1/4+x,-y,1/4+z
1/2+x,1/2+y,z
3/4-x,3/4-y,z
1/2+x,3/4-y,1/4-z
3/4-x,1/2+y,1/4-z
1/2-x,1/2-y,-z
1/4+x,1/4+y,-z
1/2-x,1/4+y,3/4+z
1/4+x,1/2-y,3/4+z
loop_
_atom_site_type_symbol
_atom_site_label
_atom_site_fract_x
_atom_site_fract_y
_atom_site_fract_z
Si Si1 0.817681 0.771279 0.146785
Si Si2 0.875000 0.016106 0.375000
Si Si3 0.202963 0.128529 0.494287
Si Si4 0.850050 0.428588 0.528112
Si Si5 0.028599 0.799655 0.200734
Si Si6 0.999481 0.932234 0.824812
O O1 0.842780 0.761975 0.276318
O O2 0.793182 0.826084 0.170353
O O3 0.859707 0.779624 0.051315
O O4 0.780900 0.726536 0.114169
O O5 0.835209 0.044804 0.295291
O O6 0.180089 0.125000 0.625000
O O7 0.173165 0.166434 0.408868
O O8 0.253947 0.153707 0.516259
O O9 0.875000 0.375000 0.498134
O O10 0.807270 0.441058 0.437924
O O11 0.000000 0.750000 0.250000
O O12 0.016947 0.811942 0.062110
O O13 0.006799 0.875000 0.875000
#
# Coordination Sequence:
#
# PCOD9514201 Si02
#       6
#    32  16  32  32  32  32
#     4  10  19  33  57  86 114 156 206 258 313 376
#     4  10  18  32  55  82 118 156 191 250 326 378
#     4  10  18  31  55  87 120 156 203 264 322 377
#     4   9  19  35  56  83 113 152 205 256 309 376
#     4  10  20  36  56  83 119 157 198 250 316 381
#     4  10  21  38  58  83 121 163 200 253 321 384
#
# _framework density 21.414497000000001
#
# number of rings (size 3 to 8) (size 9 to 14) (size 15 to 20)
#    0.000    2.182    0.000    5.455    0.000    2.909 
#    0.000   16.364    0.000    0.000    0.000    0.000 
#    0.000    0.000    0.000    0.000    0.000    0.000 
#
# Total GULP energy -245272.399880 kJ/mol
# GULP energy per Si atom -5574.372725 kJ/mol
# Density = 2.136576 g / cm^3
# Si number density = 21.414497 Si / 1000 Ang^3
#
#
#
# Elastic Constant Matrix: (Units=GPa)
#
#
# Indices 1 2 3 4 5 6 
#
# 1 155.3407 96.4638 24.1229 0.0000 0.0000 -0.0001
# 2 96.4638 136.5564 27.9275 0.0002 -0.0002 -0.0003
# 3 24.1229 27.9275 72.6414 0.0005 -0.0005 -0.0008
# 4 0.0000 0.0002 0.0005 30.5268 -0.0003 -0.0005
# 5 0.0000 -0.0002 -0.0005 -0.0003 30.6399 0.0004
# 6 -0.0001 -0.0003 -0.0008 -0.0005 0.0004 35.6207
#
#
#
# Elastic Compliance Matrix: (Units=1/GPa)
#
#
# Indices 1 2 3 4 5 6 
#
# 1 0.011506 -0.007973 -0.000756 0.000000 0.000000 0.000000
# 2 -0.007973 0.013473 -0.002532 0.000000 0.000000 0.000000
# 3 -0.000756 -0.002532 0.014991 0.000000 0.000000 0.000000
# 4 0.000000 0.000000 0.000000 0.032758 0.000000 0.000000
# 5 0.000000 0.000000 0.000000 0.000000 0.032637 0.000000
# 6 0.000000 0.000000 0.000000 0.000000 0.000000 0.028074
#
#
# Mechanical properties :
#
#
# Convention : Reuss Voigt Hill
#
# Bulk Modulus (GPa) = 57.31329 73.50743 65.41036
# Shear Modulus (GPa) = 30.90673 33.75911 32.33292
#
# Velocity S-wave (km/s) = 3.80315 3.97477 3.88991
# Velocity P-wave (km/s) = 6.79022 7.44753 7.12646
#
# Compressibility (1/GPa) = 0.01744796
#
# Stress axis : x y z
#
# Youngs Moduli (GPa) = 86.90986 74.22088 66.70843
#
# Poissons Ratio (x) = 0.59180 0.05040
# Poissons Ratio (y) = 0.69297 0.16891
# Poissons Ratio (z) = 0.06566 0.18793
#
# Static dielectric constant tensor:
#      x y z
#    x 1.927910 0.000000 0.000000 
#    y 0.000000 1.801120 -0.000040 
#    z 0.000000 -0.000040 12.995110 
# 
# From -- ./inp_files/22455.got.cif
#   From: 2010.05.17/outbox.cif.g08.bks.cpg/sg70_12_cif.got.tgz:22455.got - 2010.06.03 15:57:51.
