data_PCOD9514962
_publ_section_title
;
Structure prediction by ZEFSAII (Michael W. Deem and Ramdas Pophale) SiO2 
 PCOD9514962
Probable space group: F D D D
;
_chemical_formula_sum "Si O2"
_cell_formula_units_Z 208
_cell_length_a 21.026744
_cell_length_b 18.238842
_cell_length_c 27.349842
_cell_angle_alpha 90.000000
_cell_angle_beta 90.000000
_cell_angle_gamma 90.000000
_cell_volume 10488.759081
_symmetry_space_group_name_H-M "F D D D"
_symmetry_group_IT_number 70
_space_group.IT_coordinate_system_code '2'
_symmetry_cell_setting 'orthorhombic'
loop_
_space_group_symop_operation_xyz
x,y,z
1/4-x,1/4-y,z
x,1/4-y,1/4-z
1/4-x,y,1/4-z
-x,-y,-z
3/4+x,3/4+y,-z
-x,3/4+y,3/4+z
3/4+x,-y,3/4+z
x,1/2+y,1/2+z
1/4-x,3/4-y,1/2+z
x,3/4-y,3/4-z
1/4-x,1/2+y,3/4-z
-x,1/2-y,1/2-z
3/4+x,1/4+y,1/2-z
-x,1/4+y,1/4+z
3/4+x,1/2-y,1/4+z
1/2+x,y,1/2+z
3/4-x,1/4-y,1/2+z
1/2+x,1/4-y,3/4-z
3/4-x,y,3/4-z
1/2-x,-y,1/2-z
1/4+x,3/4+y,1/2-z
1/2-x,3/4+y,1/4+z
1/4+x,-y,1/4+z
1/2+x,1/2+y,z
3/4-x,3/4-y,z
1/2+x,3/4-y,1/4-z
3/4-x,1/2+y,1/4-z
1/2-x,1/2-y,-z
1/4+x,1/4+y,-z
1/2-x,1/4+y,3/4+z
1/4+x,1/2-y,3/4+z
loop_
_atom_site_type_symbol
_atom_site_label
_atom_site_fract_x
_atom_site_fract_y
_atom_site_fract_z
Si Si1 0.903542 0.949708 0.626505
Si Si2 0.018342 0.991714 0.892138
Si Si3 0.930493 0.191952 0.708531
Si Si4 0.727249 0.892870 0.066532
Si Si5 0.375000 0.736586 0.875000
Si Si6 0.787578 0.099345 0.549078
Si Si7 0.930848 0.431140 0.961623
O O1 0.875000 0.875000 0.602693
O O2 0.957184 0.926975 0.664101
O O3 0.842083 0.986676 0.650045
O O4 0.934152 0.003552 0.587457
O O5 0.007826 0.919909 0.924569
O O6 0.016270 0.968568 0.834434
O O7 0.977470 0.060054 0.911412
O O8 0.865032 0.148875 0.700282
O O9 0.925365 0.247364 0.754124
O O10 0.997328 0.150226 0.714782
O O11 0.668715 0.936967 0.090064
O O12 0.727949 0.899826 0.008081
O O13 0.331479 0.789004 0.907584
O O14 0.875000 0.375000 0.974348
#
# Coordination Sequence:
#
# PCOD9514962 Si02
#       7
#    32  32  32  32  16  32  32
#     4   9  18  35  60  85 114 153 204 250 300 366
#     4   9  21  39  64  90 117 160 206 263 309 371
#     4  10  20  38  58  86 120 162 204 252 299 377
#     4  11  21  39  61  88 126 160 205 258 315 379
#     4  12  23  40  54  91 128 164 200 256 320 373
#     4  10  20  40  63  91 120 157 212 258 317 369
#     4  11  23  38  57  86 126 164 203 250 310 368
#
# _framework density 19.830753999999999
#
# number of rings (size 3 to 8) (size 9 to 14) (size 15 to 20)
#    0.000    1.846    3.077    1.154    0.000    1.231 
#    8.308    0.000    0.000    0.923    0.000    0.000 
#    0.000    0.000    0.000    0.000    0.000    0.000 
#
# Total GULP energy -289999.518138 kJ/mol
# GULP energy per Si atom -5576.913810 kJ/mol
# Density = 1.978562 g / cm^3
# Si number density = 19.830754 Si / 1000 Ang^3
#
#
#
# Elastic Constant Matrix: (Units=GPa)
#
#
# Indices 1 2 3 4 5 6 
#
# 1 64.2744 18.1425 23.1262 0.0000 0.0000 0.0000
# 2 18.1425 50.7626 26.1390 0.0000 0.0000 0.0000
# 3 23.1262 26.1390 121.8359 0.0000 0.0000 0.0000
# 4 0.0000 0.0000 0.0000 14.2542 0.0000 0.0000
# 5 0.0000 0.0000 0.0000 0.0000 21.4455 0.0000
# 6 0.0000 0.0000 0.0000 0.0000 0.0000 26.3427
#
#
#
# Elastic Compliance Matrix: (Units=1/GPa)
#
#
# Indices 1 2 3 4 5 6 
#
# 1 0.017845 -0.005209 -0.002270 0.000000 0.000000 0.000000
# 2 -0.005209 0.023667 -0.004089 0.000000 0.000000 0.000000
# 3 -0.002270 -0.004089 0.009516 0.000000 0.000000 0.000000
# 4 0.000000 0.000000 0.000000 0.070155 0.000000 0.000000
# 5 0.000000 0.000000 0.000000 0.000000 0.046630 0.000000
# 6 0.000000 0.000000 0.000000 0.000000 0.000000 0.037961
#
#
# Mechanical properties :
#
#
# Convention : Reuss Voigt Hill
#
# Bulk Modulus (GPa) = 35.85187 41.29872 38.57530
# Shear Modulus (GPa) = 20.99021 23.70616 22.34818
#
# Velocity S-wave (km/s) = 3.25694 3.46124 3.36064
# Velocity P-wave (km/s) = 5.67994 6.06996 5.87818
#
# Compressibility (1/GPa) = 0.02789255
#
# Stress axis : x y z
#
# Youngs Moduli (GPa) = 56.03713 42.25347 105.08836
#
# Poissons Ratio (x) = 0.22011 0.23852
# Poissons Ratio (y) = 0.29191 0.42968
# Poissons Ratio (z) = 0.12719 0.17276
#
# Static dielectric constant tensor:
#      x y z
#    x 1.688890 0.000000 0.000000 
#    y 0.000000 1.731280 0.000000 
#    z 0.000000 0.000000 1.706000 
# 
# From -- ./inp_files/46931.got.cif
#   From: 2010.05.17/outbox.cif.g08.bks.cpg/sg70_24_cif.got.tgz:46931.got - 2010.06.03 15:57:51.
