data_PCOD9514970
_publ_section_title
;
Structure prediction by ZEFSAII (Michael W. Deem and Ramdas Pophale) SiO2 
 PCOD9514970
Probable space group: F D D D
;
_chemical_formula_sum "Si O2"
_cell_formula_units_Z 208
_cell_length_a 24.862012
_cell_length_b 15.760386
_cell_length_c 25.913750
_cell_angle_alpha 90.000000
_cell_angle_beta 90.000000
_cell_angle_gamma 90.000000
_cell_volume 10153.911792
_symmetry_space_group_name_H-M "F D D D"
_symmetry_group_IT_number 70
_space_group.IT_coordinate_system_code '2'
_symmetry_cell_setting 'orthorhombic'
loop_
_space_group_symop_operation_xyz
x,y,z
1/4-x,1/4-y,z
x,1/4-y,1/4-z
1/4-x,y,1/4-z
-x,-y,-z
3/4+x,3/4+y,-z
-x,3/4+y,3/4+z
3/4+x,-y,3/4+z
x,1/2+y,1/2+z
1/4-x,3/4-y,1/2+z
x,3/4-y,3/4-z
1/4-x,1/2+y,3/4-z
-x,1/2-y,1/2-z
3/4+x,1/4+y,1/2-z
-x,1/4+y,1/4+z
3/4+x,1/2-y,1/4+z
1/2+x,y,1/2+z
3/4-x,1/4-y,1/2+z
1/2+x,1/4-y,3/4-z
3/4-x,y,3/4-z
1/2-x,-y,1/2-z
1/4+x,3/4+y,1/2-z
1/2-x,3/4+y,1/4+z
1/4+x,-y,1/4+z
1/2+x,1/2+y,z
3/4-x,3/4-y,z
1/2+x,3/4-y,1/4-z
3/4-x,1/2+y,1/4-z
1/2-x,1/2-y,-z
1/4+x,1/4+y,-z
1/2-x,1/4+y,3/4+z
1/4+x,1/2-y,3/4+z
loop_
_atom_site_type_symbol
_atom_site_label
_atom_site_fract_x
_atom_site_fract_y
_atom_site_fract_z
Si Si1 0.935659 0.837141 0.224986
Si Si2 0.768883 0.647212 0.945771
Si Si3 0.237233 0.787279 0.662679
Si Si4 0.552349 0.875000 0.375000
Si Si5 0.332351 0.229869 0.033031
Si Si6 0.016388 0.334770 0.817175
Si Si7 0.945367 0.751830 0.014895
O O1 0.875000 0.875000 0.227245
O O2 0.961769 0.822200 0.282305
O O3 0.970502 0.908871 0.196023
O O4 0.948552 0.751727 0.191008
O O5 0.781448 0.656194 0.885458
O O6 0.718249 0.709844 0.955851
O O7 0.745068 0.557977 0.965019
O O8 0.817530 0.680528 0.980616
O O9 0.265661 0.702686 0.642651
O O10 0.193869 0.755075 0.703342
O O11 0.585919 0.910113 0.422306
O O12 0.387173 0.281311 0.032584
O O13 0.008231 0.375000 0.875000
O O14 0.047346 0.408341 0.786932
#
# Coordination Sequence:
#
# PCOD9514970 Si02
#       7
#    32  32  32  16  32  32  32
#     4  10  23  42  62  92 131 164 213 271 327 384
#     4  10  21  40  57  88 129 163 206 262 311 384
#     4  10  22  38  61  87 125 165 202 265 320 376
#     4  10  20  38  60  87 122 168 205 256 322 376
#     4  10  22  36  62  88 123 163 212 254 316 382
#     4  10  23  40  63  93 125 166 214 267 324 394
#     4  11  22  37  63  91 123 163 214 261 314 379
#
# _framework density 20.484715999999999
#
# number of rings (size 3 to 8) (size 9 to 14) (size 15 to 20)
#    0.000    1.846    1.538    1.385    3.231    4.615 
#    0.000    0.000    0.000    7.385    0.000    0.000 
#    0.000    0.000    0.000    0.000    0.000    0.000 
#
# Total GULP energy -289836.302201 kJ/mol
# GULP energy per Si atom -5573.775042 kJ/mol
# Density = 2.043809 g / cm^3
# Si number density = 20.484716 Si / 1000 Ang^3
#
#
#
# Elastic Constant Matrix: (Units=GPa)
#
#
# Indices 1 2 3 4 5 6 
#
# 1 34.6083 22.3137 20.0412 0.0000 0.0000 0.0000
# 2 22.3137 113.7362 21.6628 0.0000 0.0000 0.0000
# 3 20.0412 21.6628 133.4633 0.0000 0.0000 0.0000
# 4 0.0000 0.0000 0.0000 -13.9344 0.0000 0.0000
# 5 0.0000 0.0000 0.0000 0.0000 -275.8192 0.0000
# 6 0.0000 0.0000 0.0000 0.0000 0.0000 15.4374
#
#
#
# Elastic Compliance Matrix: (Units=1/GPa)
#
#
# Indices 1 2 3 4 5 6 
#
# 1 0.035332 -0.006110 -0.004314 0.000000 0.000000 0.000000
# 2 -0.006110 0.010129 -0.000727 0.000000 0.000000 0.000000
# 3 -0.004314 -0.000727 0.008258 0.000000 0.000000 0.000000
# 4 0.000000 0.000000 0.000000 -0.071765 0.000000 0.000000
# 5 0.000000 0.000000 0.000000 0.000000 -0.003626 0.000000
# 6 0.000000 0.000000 0.000000 0.000000 0.000000 0.064778
#
#
# Mechanical properties :
#
#
# Convention : Reuss Voigt Hill
#
# Bulk Modulus (GPa) = 31.82791 45.53816 38.68303
# Shear Modulus (GPa) = 65.89206 -40.34388 12.77409
#
# Velocity S-wave (km/s) = 5.67770 -4.44268 2.49989
# Velocity P-wave (km/s) = 7.65198 2.00946 5.22087
#
# Compressibility (1/GPa) = 0.03141897
#
# Stress axis : x y z
#
# Youngs Moduli (GPa) = 28.30262 98.72239 121.08863
#
# Poissons Ratio (x) = 0.60321 0.52236
# Poissons Ratio (y) = 0.17293 0.08798
# Poissons Ratio (z) = 0.12209 0.07173
#
# Static dielectric constant tensor:
#      x y z
#    x 1.727960 0.000000 0.000000 
#    y 0.000000 1.768870 0.000000 
#    z 0.000000 0.000000 1.858500 
# 
# From -- ./inp_files/61847.got.cif
#   From: 2010.05.17/outbox.cif.g08.bks.cpg/sg70_31_cif.got.tgz:61847.got - 2010.06.03 15:57:51.
