data_PCOD9514942
_publ_section_title
;
Structure prediction by ZEFSAII (Michael W. Deem and Ramdas Pophale) SiO2 
 PCOD9514942
Probable space group: F D D D
;
_chemical_formula_sum "Si O2"
_cell_formula_units_Z 192
_cell_length_a 9.384547
_cell_length_b 26.133084
_cell_length_c 33.723660
_cell_angle_alpha 90.000000
_cell_angle_beta 90.000000
_cell_angle_gamma 90.000000
_cell_volume 8270.631673
_symmetry_space_group_name_H-M "F D D D"
_symmetry_group_IT_number 70
_space_group.IT_coordinate_system_code '2'
_symmetry_cell_setting 'orthorhombic'
loop_
_space_group_symop_operation_xyz
x,y,z
1/4-x,1/4-y,z
x,1/4-y,1/4-z
1/4-x,y,1/4-z
-x,-y,-z
3/4+x,3/4+y,-z
-x,3/4+y,3/4+z
3/4+x,-y,3/4+z
x,1/2+y,1/2+z
1/4-x,3/4-y,1/2+z
x,3/4-y,3/4-z
1/4-x,1/2+y,3/4-z
-x,1/2-y,1/2-z
3/4+x,1/4+y,1/2-z
-x,1/4+y,1/4+z
3/4+x,1/2-y,1/4+z
1/2+x,y,1/2+z
3/4-x,1/4-y,1/2+z
1/2+x,1/4-y,3/4-z
3/4-x,y,3/4-z
1/2-x,-y,1/2-z
1/4+x,3/4+y,1/2-z
1/2-x,3/4+y,1/4+z
1/4+x,-y,1/4+z
1/2+x,1/2+y,z
3/4-x,3/4-y,z
1/2+x,3/4-y,1/4-z
3/4-x,1/2+y,1/4-z
1/2-x,1/2-y,-z
1/4+x,1/4+y,-z
1/2-x,1/4+y,3/4+z
1/4+x,1/2-y,3/4+z
loop_
_atom_site_type_symbol
_atom_site_label
_atom_site_fract_x
_atom_site_fract_y
_atom_site_fract_z
Si Si1 0.875000 0.697705 0.875000
Si Si2 0.082444 0.763474 0.541431
Si Si3 0.268674 0.799751 0.037537
Si Si4 0.360458 0.127081 0.669554
Si Si5 0.125000 0.625000 0.350175
Si Si6 0.897080 0.947215 0.449612
Si Si7 0.523619 0.163933 0.743689
O O1 0.864249 0.732225 0.913895
O O2 0.732833 0.662668 0.872505
O O3 0.142269 0.813416 0.518455
O O4 0.139259 0.713691 0.519790
O O5 0.913405 0.766997 0.542713
O O6 0.273770 0.842516 0.070695
O O7 0.144434 0.758469 0.044996
O O8 0.293089 0.820661 0.993090
O O9 0.419544 0.125000 0.625000
O O10 0.246431 0.171950 0.682308
O O11 0.267823 0.075229 0.671207
O O12 0.471937 0.133256 0.704876
O O13 0.625000 0.125000 0.767169
#
# Coordination Sequence:
#
# PCOD9514942 Si02
#       7
#    16  32  32  32  16  32  32
#     4  10  24  44  65  92 134 165 218 276 326 394
#     4  10  23  44  63  97 129 169 218 276 321 398
#     4  10  20  39  66  88 128 165 215 257 337 390
#     4  11  23  40  61  93 132 166 218 273 325 392
#     4  10  22  42  60  96 123 174 211 272 326 402
#     4  10  20  37  62  94 122 169 202 271 322 392
#     4  11  24  42  67  93 129 177 222 267 333 396
#
# _framework density 23.214670999999999
#
# number of rings (size 3 to 8) (size 9 to 14) (size 15 to 20)
#    0.000    1.667    1.667    3.000    3.500    4.333 
#    6.000    0.000    0.000    0.000    0.000    0.000 
#    0.000    0.000    0.000    0.000    0.000    0.000 
#
# Total GULP energy -268059.976831 kJ/mol
# GULP energy per Si atom -5584.582851 kJ/mol
# Density = 2.316183 g / cm^3
# Si number density = 23.214671 Si / 1000 Ang^3
#
#
#
# Elastic Constant Matrix: (Units=GPa)
#
#
# Indices 1 2 3 4 5 6 
#
# 1 50.0341 18.3674 -4.7786 0.0000 0.0000 0.0000
# 2 18.3674 78.3445 4.0301 0.0000 0.0000 0.0000
# 3 -4.7786 4.0301 76.0467 0.0000 0.0000 0.0000
# 4 0.0000 0.0000 0.0000 4.6141 0.0000 0.0000
# 5 0.0000 0.0000 0.0000 0.0000 10.3453 0.0000
# 6 0.0000 0.0000 0.0000 0.0000 0.0000 25.0498
#
#
#
# Elastic Compliance Matrix: (Units=1/GPa)
#
#
# Indices 1 2 3 4 5 6 
#
# 1 0.022077 -0.005262 0.001666 0.000000 0.000000 0.000000
# 2 -0.005262 0.014053 -0.001075 0.000000 0.000000 0.000000
# 3 0.001666 -0.001075 0.013312 0.000000 0.000000 0.000000
# 4 0.000000 0.000000 0.000000 0.216726 0.000000 0.000000
# 5 0.000000 0.000000 0.000000 0.000000 0.096662 0.000000
# 6 0.000000 0.000000 0.000000 0.000000 0.000000 0.039920
#
#
# Mechanical properties :
#
#
# Convention : Reuss Voigt Hill
#
# Bulk Modulus (GPa) = 24.93771 26.62923 25.78347
# Shear Modulus (GPa) = 11.75204 20.45561 16.10383
#
# Velocity S-wave (km/s) = 2.25240 2.97164 2.63666
# Velocity P-wave (km/s) = 4.18688 4.82389 4.51663
#
# Compressibility (1/GPa) = 0.04009992
#
# Stress axis : x y z
#
# Youngs Moduli (GPa) = 45.29608 71.15926 75.12301
#
# Poissons Ratio (x) = 0.37441 -0.12516
# Poissons Ratio (y) = 0.23833 0.08079
# Poissons Ratio (z) = -0.07547 0.07652
#
# Static dielectric constant tensor:
#      x y z
#    x 1.788040 0.000000 0.000000 
#    y 0.000000 1.937560 0.000000 
#    z 0.000000 0.000000 1.873980 
# 
# From -- ./inp_files/64967.got.cif
#   From: 2010.05.17/outbox.cif.g08.bks.cpg/sg70_33_cif.got.tgz:64967.got - 2010.06.03 15:57:51.
