data_PCOD9514930
_publ_section_title
;
Structure prediction by ZEFSAII (Michael W. Deem and Ramdas Pophale) SiO2 
 PCOD9514930
Probable space group: F D D D
;
_chemical_formula_sum "Si O2"
_cell_formula_units_Z 208
_cell_length_a 19.178864
_cell_length_b 26.267763
_cell_length_c 20.379004
_cell_angle_alpha 90.000000
_cell_angle_beta 90.000000
_cell_angle_gamma 90.000000
_cell_volume 10266.653937
_symmetry_space_group_name_H-M "F D D D"
_symmetry_group_IT_number 70
_space_group.IT_coordinate_system_code '2'
_symmetry_cell_setting 'orthorhombic'
loop_
_space_group_symop_operation_xyz
x,y,z
1/4-x,1/4-y,z
x,1/4-y,1/4-z
1/4-x,y,1/4-z
-x,-y,-z
3/4+x,3/4+y,-z
-x,3/4+y,3/4+z
3/4+x,-y,3/4+z
x,1/2+y,1/2+z
1/4-x,3/4-y,1/2+z
x,3/4-y,3/4-z
1/4-x,1/2+y,3/4-z
-x,1/2-y,1/2-z
3/4+x,1/4+y,1/2-z
-x,1/4+y,1/4+z
3/4+x,1/2-y,1/4+z
1/2+x,y,1/2+z
3/4-x,1/4-y,1/2+z
1/2+x,1/4-y,3/4-z
3/4-x,y,3/4-z
1/2-x,-y,1/2-z
1/4+x,3/4+y,1/2-z
1/2-x,3/4+y,1/4+z
1/4+x,-y,1/4+z
1/2+x,1/2+y,z
3/4-x,3/4-y,z
1/2+x,3/4-y,1/4-z
3/4-x,1/2+y,1/4-z
1/2-x,1/2-y,-z
1/4+x,1/4+y,-z
1/2-x,1/4+y,3/4+z
1/4+x,1/2-y,3/4+z
loop_
_atom_site_type_symbol
_atom_site_label
_atom_site_fract_x
_atom_site_fract_y
_atom_site_fract_z
Si Si1 0.221738 0.930682 0.166563
Si Si2 0.767438 0.682845 0.368905
Si Si3 0.121002 0.067065 0.293916
Si Si4 0.125000 0.625000 0.038808
Si Si5 0.415284 0.719452 0.472848
Si Si6 0.761425 0.450958 0.906229
Si Si7 0.752583 0.189691 0.009086
O O1 0.213502 0.869272 0.167205
O O2 0.300612 0.945759 0.184055
O O3 0.202986 0.953049 0.094450
O O4 0.164002 0.951470 0.215919
O O5 0.683520 0.685744 0.354782
O O6 0.788473 0.740269 0.348574
O O7 0.792532 0.673016 0.443667
O O8 0.125000 0.125000 0.270530
O O9 0.090378 0.029388 0.239172
O O10 0.175194 0.585753 0.076350
O O11 0.178797 0.661148 0.001147
O O12 0.456425 0.696998 0.534966
O O13 0.729501 0.434298 0.835879
O O14 0.750000 0.250000 0.000000
#
# Coordination Sequence:
#
# PCOD9514930 Si02
#       7
#    32  32  32  16  32  32  32
#     4  10  20  37  61  90 118 162 197 249 314 358
#     4   9  20  37  60  89 118 155 207 249 297 367
#     4   9  19  37  65  88 117 156 203 247 300 369
#     4  12  23  38  60  82 120 168 200 245 312 365
#     4  10  21  37  59  92 124 155 198 256 302 359
#     4  10  21  38  56  84 124 158 204 247 302 363
#     4  10  21  36  56  88 115 152 206 251 297 358
#
# _framework density 20.259765999999999
#
# number of rings (size 3 to 8) (size 9 to 14) (size 15 to 20)
#    0.000    2.154    0.000    2.769    5.385    0.000 
#   13.846    1.538    0.000    7.385    0.000    0.000 
#    0.000    0.000    0.000    0.000    0.000    0.000 
#
# Total GULP energy -289633.727237 kJ/mol
# GULP energy per Si atom -5569.879370 kJ/mol
# Density = 2.021365 g / cm^3
# Si number density = 20.259766 Si / 1000 Ang^3
#
#
#
# Elastic Constant Matrix: (Units=GPa)
#
#
# Indices 1 2 3 4 5 6 
#
# 1 88.9357 40.6781 35.8039 0.0000 0.0000 0.0000
# 2 40.6781 128.0419 43.7916 0.0000 0.0000 0.0000
# 3 35.8039 43.7916 93.0302 0.0000 0.0000 0.0000
# 4 0.0000 0.0000 0.0000 29.1381 0.0000 0.0000
# 5 0.0000 0.0000 0.0000 0.0000 23.0833 0.0000
# 6 0.0000 0.0000 0.0000 0.0000 0.0000 29.2302
#
#
#
# Elastic Compliance Matrix: (Units=1/GPa)
#
#
# Indices 1 2 3 4 5 6 
#
# 1 0.014312 -0.003174 -0.004014 0.000000 0.000000 0.000000
# 2 -0.003174 0.010012 -0.003492 0.000000 0.000000 0.000000
# 3 -0.004014 -0.003492 0.013938 0.000000 0.000000 0.000000
# 4 0.000000 0.000000 0.000000 0.034319 0.000000 0.000000
# 5 0.000000 0.000000 0.000000 0.000000 0.043321 0.000000
# 6 0.000000 0.000000 0.000000 0.000000 0.000000 0.034211
#
#
# Mechanical properties :
#
#
# Convention : Reuss Voigt Hill
#
# Bulk Modulus (GPa) = 59.16190 61.17278 60.16734
# Shear Modulus (GPa) = 28.23151 28.93926 28.58538
#
# Velocity S-wave (km/s) = 3.73698 3.78353 3.76033
# Velocity P-wave (km/s) = 6.91991 7.02471 6.97251
#
# Compressibility (1/GPa) = 0.01690277
#
# Stress axis : x y z
#
# Youngs Moduli (GPa) = 69.87253 99.87587 71.74830
#
# Poissons Ratio (x) = 0.31700 0.28800
# Poissons Ratio (y) = 0.22177 0.25051
# Poissons Ratio (z) = 0.28047 0.34872
#
# Static dielectric constant tensor:
#      x y z
#    x 1.739890 0.000000 0.000000 
#    y 0.000000 1.559910 0.000000 
#    z 0.000000 0.000000 1.773280 
# 
# From -- ./inp_files/43951.got.cif
#   From: 2010.05.17/outbox.cif.g08.bks.cpg/sg70_22_cif.got.tgz:43951.got - 2010.06.03 15:57:51.
