data_PCOD9514700
_publ_section_title
;
Structure prediction by ZEFSAII (Michael W. Deem and Ramdas Pophale) SiO2 
 PCOD9514700
Probable space group: F D D D
;
_chemical_formula_sum "Si O2"
_cell_formula_units_Z 144
_cell_length_a 27.152034
_cell_length_b 16.609244
_cell_length_c 15.098965
_cell_angle_alpha 90.000000
_cell_angle_beta 90.000000
_cell_angle_gamma 90.000000
_cell_volume 6809.252084
_symmetry_space_group_name_H-M "F D D D"
_symmetry_group_IT_number 70
_space_group.IT_coordinate_system_code '2'
_symmetry_cell_setting 'orthorhombic'
loop_
_space_group_symop_operation_xyz
x,y,z
1/4-x,1/4-y,z
x,1/4-y,1/4-z
1/4-x,y,1/4-z
-x,-y,-z
3/4+x,3/4+y,-z
-x,3/4+y,3/4+z
3/4+x,-y,3/4+z
x,1/2+y,1/2+z
1/4-x,3/4-y,1/2+z
x,3/4-y,3/4-z
1/4-x,1/2+y,3/4-z
-x,1/2-y,1/2-z
3/4+x,1/4+y,1/2-z
-x,1/4+y,1/4+z
3/4+x,1/2-y,1/4+z
1/2+x,y,1/2+z
3/4-x,1/4-y,1/2+z
1/2+x,1/4-y,3/4-z
3/4-x,y,3/4-z
1/2-x,-y,1/2-z
1/4+x,3/4+y,1/2-z
1/2-x,3/4+y,1/4+z
1/4+x,-y,1/4+z
1/2+x,1/2+y,z
3/4-x,3/4-y,z
1/2+x,3/4-y,1/4-z
3/4-x,1/2+y,1/4-z
1/2-x,1/2-y,-z
1/4+x,1/4+y,-z
1/2-x,1/4+y,3/4+z
1/4+x,1/2-y,3/4+z
loop_
_atom_site_type_symbol
_atom_site_label
_atom_site_fract_x
_atom_site_fract_y
_atom_site_fract_z
Si Si1 0.399293 0.043378 0.182393
Si Si2 0.403457 0.297660 0.528206
Si Si3 0.425994 0.620126 0.292838
Si Si4 0.501318 0.875000 0.375000
Si Si5 0.981150 0.542557 0.312214
O O1 0.400205 0.125000 0.125000
O O2 0.364709 0.063802 0.266377
O O3 0.453331 0.027086 0.219906
O O4 0.374617 0.977703 0.119066
O O5 0.375000 0.375000 0.492246
O O6 0.403278 0.218728 0.466179
O O7 0.461246 0.311339 0.549481
O O8 0.464730 0.626193 0.211959
O O9 0.454168 0.637777 0.382986
O O10 0.474391 0.789929 0.381814
#
# Coordination Sequence:
#
# PCOD9514700 Si02
#       5
#    32  32  32  16  32
#     4  10  21  41  62  90 130 172 211 265 326 385
#     4  10  23  39  66  92 131 170 219 276 320 385
#     4  10  19  41  59  92 136 170 208 269 339 387
#     4  10  20  36  63 100 130 162 207 272 340 384
#     4  11  22  36  72  94 128 177 213 268 335 397
#
# _framework density 21.147697000000001
#
# number of rings (size 3 to 8) (size 9 to 14) (size 15 to 20)
#    0.000    1.778    5.556    1.333    6.222    0.000 
#    0.000    5.556   14.667    0.000    0.000    0.000 
#    0.000    0.000    0.000    0.000    0.000    0.000 
#
# Total GULP energy -200986.205210 kJ/mol
# GULP energy per Si atom -5582.950145 kJ/mol
# Density = 2.109956 g / cm^3
# Si number density = 21.147697 Si / 1000 Ang^3
#
#
#
# Elastic Constant Matrix: (Units=GPa)
#
#
# Indices 1 2 3 4 5 6 
#
# 1 112.1106 40.2901 51.3722 0.0000 0.0000 0.0000
# 2 40.2901 95.4786 3.1135 0.0000 0.0000 0.0000
# 3 51.3722 3.1135 63.1257 0.0000 0.0000 0.0000
# 4 0.0000 0.0000 0.0000 5.9742 0.0000 0.0000
# 5 0.0000 0.0000 0.0000 0.0000 22.0493 0.0000
# 6 0.0000 0.0000 0.0000 0.0000 0.0000 22.0159
#
#
#
# Elastic Compliance Matrix: (Units=1/GPa)
#
#
# Indices 1 2 3 4 5 6 
#
# 1 0.018067 -0.007156 -0.014350 0.000000 0.000000 0.000000
# 2 -0.007156 0.013325 0.005166 0.000000 0.000000 0.000000
# 3 -0.014350 0.005166 0.027265 0.000000 0.000000 0.000000
# 4 0.000000 0.000000 0.000000 0.167387 0.000000 0.000000
# 5 0.000000 0.000000 0.000000 0.000000 0.045353 0.000000
# 6 0.000000 0.000000 0.000000 0.000000 0.000000 0.045422
#
#
# Mechanical properties :
#
#
# Convention : Reuss Voigt Hill
#
# Bulk Modulus (GPa) = 38.49533 51.14071 44.81802
# Shear Modulus (GPa) = 13.96034 21.73715 17.84874
#
# Velocity S-wave (km/s) = 2.57210 3.20952 2.90833
# Velocity P-wave (km/s) = 5.20226 6.16197 5.70234
#
# Compressibility (1/GPa) = 0.02597718
#
# Stress axis : x y z
#
# Youngs Moduli (GPa) = 55.34899 75.04815 36.67712
#
# Poissons Ratio (x) = 0.53705 0.52633
# Poissons Ratio (y) = 0.39608 -0.18949
# Poissons Ratio (z) = 0.79427 -0.38773
#
# Static dielectric constant tensor:
#      x y z
#    x 1.792390 0.000000 0.000000 
#    y 0.000000 1.778660 0.000000 
#    z 0.000000 0.000000 1.764640 
# 
# From -- ./inp_files/34913.got.cif
#   From: 2010.05.17/outbox.cif.g08.bks.cpg/sg70_18_cif.got.tgz:34913.got - 2010.06.03 15:57:51.
