data_PCOD9514595
_publ_section_title
;
Structure prediction by ZEFSAII (Michael W. Deem and Ramdas Pophale) SiO2 
 PCOD9514595
Probable space group: F D D D
;
_chemical_formula_sum "Si O2"
_cell_formula_units_Z 80
_cell_length_a 33.401541
_cell_length_b 7.120337
_cell_length_c 15.495233
_cell_angle_alpha 90.000000
_cell_angle_beta 90.000000
_cell_angle_gamma 90.000000
_cell_volume 3685.234801
_symmetry_space_group_name_H-M "F D D D"
_symmetry_group_IT_number 70
_space_group.IT_coordinate_system_code '2'
_symmetry_cell_setting 'orthorhombic'
loop_
_space_group_symop_operation_xyz
x,y,z
1/4-x,1/4-y,z
x,1/4-y,1/4-z
1/4-x,y,1/4-z
-x,-y,-z
3/4+x,3/4+y,-z
-x,3/4+y,3/4+z
3/4+x,-y,3/4+z
x,1/2+y,1/2+z
1/4-x,3/4-y,1/2+z
x,3/4-y,3/4-z
1/4-x,1/2+y,3/4-z
-x,1/2-y,1/2-z
3/4+x,1/4+y,1/2-z
-x,1/4+y,1/4+z
3/4+x,1/2-y,1/4+z
1/2+x,y,1/2+z
3/4-x,1/4-y,1/2+z
1/2+x,1/4-y,3/4-z
3/4-x,y,3/4-z
1/2-x,-y,1/2-z
1/4+x,3/4+y,1/2-z
1/2-x,3/4+y,1/4+z
1/4+x,-y,1/4+z
1/2+x,1/2+y,z
3/4-x,3/4-y,z
1/2+x,3/4-y,1/4-z
3/4-x,1/2+y,1/4-z
1/2-x,1/2-y,-z
1/4+x,1/4+y,-z
1/2-x,1/4+y,3/4+z
1/4+x,1/2-y,3/4+z
loop_
_atom_site_type_symbol
_atom_site_label
_atom_site_fract_x
_atom_site_fract_y
_atom_site_fract_z
Si Si1 0.375314 0.656238 0.270399
Si Si2 0.754606 0.125000 0.125000
Si Si3 0.942868 0.870421 0.530894
O O1 0.375000 0.634387 0.375000
O O2 0.336285 0.545920 0.239323
O O3 0.413432 0.556162 0.226477
O O4 0.375000 0.875000 0.249236
O O5 0.725773 0.149823 0.206260
O O6 0.781973 0.310409 0.112939
#
# Coordination Sequence:
#
# PCOD9514595 Si02
#       3
#    32  16  32
#     4  10  19  37  62  86 117 171 211 249 303 378
#     4  10  20  35  62  88 124 162 200 266 316 363
#     4  10  19  39  58  87 124 163 206 259 308 370
#
# _framework density 21.70825
#
# number of rings (size 3 to 8) (size 9 to 14) (size 15 to 20)
#    0.000    2.000    4.000    1.200    0.000    0.000 
#    7.200   12.000    0.000    0.000    0.000    0.000 
#    0.000    0.000    0.000    0.000    0.000    0.000 
#
# Total GULP energy -111746.381370 kJ/mol
# GULP energy per Si atom -5587.319068 kJ/mol
# Density = 2.165884 g / cm^3
# Si number density = 21.708250 Si / 1000 Ang^3
#
#
#
# Elastic Constant Matrix: (Units=GPa)
#
#
# Indices 1 2 3 4 5 6 
#
# 1 165.2099 90.1470 56.4916 0.0000 0.0000 0.0000
# 2 90.1470 172.5481 42.0288 0.0000 0.0000 0.0000
# 3 56.4916 42.0288 48.1923 0.0000 0.0000 0.0000
# 4 0.0000 0.0000 0.0000 26.8649 0.0000 0.0000
# 5 0.0000 0.0000 0.0000 0.0000 -28.7495 0.0000
# 6 0.0000 0.0000 0.0000 0.0000 0.0000 -133.6343
#
#
#
# Elastic Compliance Matrix: (Units=1/GPa)
#
#
# Indices 1 2 3 4 5 6 
#
# 1 0.011535 -0.003470 -0.010495 0.000000 0.000000 0.000000
# 2 -0.003470 0.008403 -0.003260 0.000000 0.000000 0.000000
# 3 -0.010495 -0.003260 0.035896 0.000000 0.000000 0.000000
# 4 0.000000 0.000000 0.000000 0.037223 0.000000 0.000000
# 5 0.000000 0.000000 0.000000 0.000000 -0.034783 0.000000
# 6 0.000000 0.000000 0.000000 0.000000 0.000000 -0.007483
#
#
# Mechanical properties :
#
#
# Convention : Reuss Voigt Hill
#
# Bulk Modulus (GPa) = 46.76704 84.80947 65.78826
# Shear Modulus (GPa) = 54.13036 -13.95158 20.08939
#
# Velocity S-wave (km/s) = 4.99895 -2.53787 3.04538
# Velocity P-wave (km/s) = 7.41010 5.52856 6.53737
#
# Compressibility (1/GPa) = 0.02138258
#
# Stress axis : x y z
#
# Youngs Moduli (GPa) = 86.69198 119.01197 27.85805
#
# Poissons Ratio (x) = 0.41297 0.29238
# Poissons Ratio (y) = 0.30082 0.09082
# Poissons Ratio (z) = 0.90986 0.38801
#
# Static dielectric constant tensor:
#      x y z
#    x 1.757780 0.000000 0.000000 
#    y 0.000000 1.788810 0.000000 
#    z 0.000000 0.000000 1.806570 
# 
# From -- ./inp_files/39161.got.cif
#   From: 2010.05.17/outbox.cif.g08.bks.cpg/sg70_20_cif.got.tgz:39161.got - 2010.06.03 15:57:51.
