data_PCOD9514597
_publ_section_title
;
Structure prediction by ZEFSAII (Michael W. Deem and Ramdas Pophale) SiO2 
 PCOD9514597
Probable space group: F D D D
;
_chemical_formula_sum "Si O2"
_cell_formula_units_Z 144
_cell_length_a 20.073565
_cell_length_b 24.231582
_cell_length_c 15.348690
_cell_angle_alpha 90.000000
_cell_angle_beta 90.000000
_cell_angle_gamma 90.000000
_cell_volume 7465.821325
_symmetry_space_group_name_H-M "F D D D"
_symmetry_group_IT_number 70
_space_group.IT_coordinate_system_code '2'
_symmetry_cell_setting 'orthorhombic'
loop_
_space_group_symop_operation_xyz
x,y,z
1/4-x,1/4-y,z
x,1/4-y,1/4-z
1/4-x,y,1/4-z
-x,-y,-z
3/4+x,3/4+y,-z
-x,3/4+y,3/4+z
3/4+x,-y,3/4+z
x,1/2+y,1/2+z
1/4-x,3/4-y,1/2+z
x,3/4-y,3/4-z
1/4-x,1/2+y,3/4-z
-x,1/2-y,1/2-z
3/4+x,1/4+y,1/2-z
-x,1/4+y,1/4+z
3/4+x,1/2-y,1/4+z
1/2+x,y,1/2+z
3/4-x,1/4-y,1/2+z
1/2+x,1/4-y,3/4-z
3/4-x,y,3/4-z
1/2-x,-y,1/2-z
1/4+x,3/4+y,1/2-z
1/2-x,3/4+y,1/4+z
1/4+x,-y,1/4+z
1/2+x,1/2+y,z
3/4-x,3/4-y,z
1/2+x,3/4-y,1/4-z
3/4-x,1/2+y,1/4-z
1/2-x,1/2-y,-z
1/4+x,1/4+y,-z
1/2-x,1/4+y,3/4+z
1/4+x,1/2-y,3/4+z
loop_
_atom_site_type_symbol
_atom_site_label
_atom_site_fract_x
_atom_site_fract_y
_atom_site_fract_z
Si Si1 0.375000 0.875000 0.086394
Si Si2 0.554987 0.599758 0.246231
Si Si3 0.958289 0.196397 0.277543
Si Si4 0.564236 0.182820 0.073297
Si Si5 0.693807 0.973831 0.524754
O O1 0.428494 0.903341 0.149972
O O2 0.407636 0.831175 0.022189
O O3 0.625000 0.625000 0.214501
O O4 0.494392 0.642514 0.237786
O O5 0.548280 0.539168 0.208254
O O6 0.959133 0.193975 0.383281
O O7 0.881796 0.207355 0.251582
O O8 0.000000 0.250000 0.250000
O O9 0.553752 0.125000 0.125000
O O10 0.625000 0.211927 0.125000
O O11 0.494423 0.210680 0.053396
#
# Coordination Sequence:
#
# PCOD9514597 Si02
#       5
#    16  32  32  32  32
#     4   8  15  36  62  77 116 158 192 244 317 368
#     4  10  19  37  63  83 122 165 200 253 327 375
#     4  11  22  40  61  88 125 163 208 265 316 385
#     4   9  19  39  63  86 119 163 207 260 317 383
#     4  11  22  39  63  91 124 162 215 262 318 381
#
# _framework density 19.287897000000001
#
# number of rings (size 3 to 8) (size 9 to 14) (size 15 to 20)
#    0.667    1.556    4.444    0.000    0.000    0.889 
#    8.000    4.444    0.000    0.000    0.000    0.000 
#    0.000    0.000    0.000    0.000    0.000    0.000 
#
# Total GULP energy -200445.615150 kJ/mol
# GULP energy per Si atom -5567.933754 kJ/mol
# Density = 1.924400 g / cm^3
# Si number density = 19.287897 Si / 1000 Ang^3
#
#
#
# Elastic Constant Matrix: (Units=GPa)
#
#
# Indices 1 2 3 4 5 6 
#
# 1 172.7752 55.3767 32.9950 0.0000 0.0000 0.0000
# 2 55.3767 85.0667 -0.3688 0.0000 0.0000 0.0000
# 3 32.9950 -0.3688 66.6048 0.0000 0.0000 0.0000
# 4 0.0000 0.0000 0.0000 14.9454 0.0000 0.0000
# 5 0.0000 0.0000 0.0000 0.0000 22.4343 0.0000
# 6 0.0000 0.0000 0.0000 0.0000 0.0000 33.5577
#
#
#
# Elastic Compliance Matrix: (Units=1/GPa)
#
#
# Indices 1 2 3 4 5 6 
#
# 1 0.008323 -0.005436 -0.004153 0.000000 0.000000 0.000000
# 2 -0.005436 0.015307 0.002778 0.000000 0.000000 0.000000
# 3 -0.004153 0.002778 0.017087 0.000000 0.000000 0.000000
# 4 0.000000 0.000000 0.000000 0.066910 0.000000 0.000000
# 5 0.000000 0.000000 0.000000 0.000000 0.044575 0.000000
# 6 0.000000 0.000000 0.000000 0.000000 0.000000 0.029799
#
#
# Mechanical properties :
#
#
# Convention : Reuss Voigt Hill
#
# Bulk Modulus (GPa) = 36.91005 55.60583 46.25794
# Shear Modulus (GPa) = 24.43122 29.95041 27.19081
#
# Velocity S-wave (km/s) = 3.56288 3.94484 3.75872
# Velocity P-wave (km/s) = 6.00861 7.04564 6.54769
#
# Compressibility (1/GPa) = 0.02709289
#
# Stress axis : x y z
#
# Youngs Moduli (GPa) = 120.14189 65.33163 58.52455
#
# Poissons Ratio (x) = 0.35517 0.24308
# Poissons Ratio (y) = 0.65314 -0.16257
# Poissons Ratio (z) = 0.49900 -0.18148
#
# Static dielectric constant tensor:
#      x y z
#    x 1.706620 0.000000 0.000000 
#    y 0.000000 1.686970 0.000000 
#    z 0.000000 0.000000 1.724670 
# 
# From -- ./inp_files/36470.got.cif
#   From: 2010.05.17/outbox.cif.g08.bks.cpg/sg70_19_cif.got.tgz:36470.got - 2010.06.03 15:57:51.
