data_PCOD9514489
_publ_section_title
;
Structure prediction by ZEFSAII (Michael W. Deem and Ramdas Pophale) SiO2 
 PCOD9514489
Probable space group: F D D D
;
_chemical_formula_sum "Si O2"
_cell_formula_units_Z 216
_cell_length_a 14.646744
_cell_length_b 22.517362
_cell_length_c 31.212897
_cell_angle_alpha 90.000000
_cell_angle_beta 90.000000
_cell_angle_gamma 90.000000
_cell_volume 10294.201856
_symmetry_space_group_name_H-M "F D D D"
_symmetry_group_IT_number 70
_space_group.IT_coordinate_system_code '2'
_symmetry_cell_setting 'orthorhombic'
loop_
_space_group_symop_operation_xyz
x,y,z
1/4-x,1/4-y,z
x,1/4-y,1/4-z
1/4-x,y,1/4-z
-x,-y,-z
3/4+x,3/4+y,-z
-x,3/4+y,3/4+z
3/4+x,-y,3/4+z
x,1/2+y,1/2+z
1/4-x,3/4-y,1/2+z
x,3/4-y,3/4-z
1/4-x,1/2+y,3/4-z
-x,1/2-y,1/2-z
3/4+x,1/4+y,1/2-z
-x,1/4+y,1/4+z
3/4+x,1/2-y,1/4+z
1/2+x,y,1/2+z
3/4-x,1/4-y,1/2+z
1/2+x,1/4-y,3/4-z
3/4-x,y,3/4-z
1/2-x,-y,1/2-z
1/4+x,3/4+y,1/2-z
1/2-x,3/4+y,1/4+z
1/4+x,-y,1/4+z
1/2+x,1/2+y,z
3/4-x,3/4-y,z
1/2+x,3/4-y,1/4-z
3/4-x,1/2+y,1/4-z
1/2-x,1/2-y,-z
1/4+x,1/4+y,-z
1/2-x,1/4+y,3/4+z
1/4+x,1/2-y,3/4+z
loop_
_atom_site_type_symbol
_atom_site_label
_atom_site_fract_x
_atom_site_fract_y
_atom_site_fract_z
Si Si1 0.362040 0.700019 0.780003
Si Si2 0.492221 0.951461 0.808702
Si Si3 0.125000 0.829972 0.125000
Si Si4 0.225233 0.597545 0.743700
Si Si5 0.517576 0.621484 0.763959
Si Si6 0.812051 0.999771 0.682112
Si Si7 0.125000 0.125000 0.625000
Si Si8 0.783754 0.415642 0.106302
O O1 0.316876 0.763170 0.772563
O O2 0.364934 0.705704 0.831818
O O3 0.295202 0.648963 0.760859
O O4 0.466545 0.683920 0.771238
O O5 0.531815 0.900317 0.778452
O O6 0.579016 0.990033 0.821882
O O7 0.436935 0.917788 0.845456
O O8 0.210318 0.872870 0.126851
O O9 0.125000 0.625000 0.733698
O O10 0.209466 0.552451 0.783693
O O11 0.264044 0.557922 0.703684
O O12 0.625000 0.625000 0.757026
O O13 0.503014 0.581709 0.806587
O O14 0.785703 0.974864 0.634893
O O15 0.875000 0.375000 0.106548
#
# Coordination Sequence:
#
# PCOD9514489 Si02
#       8
#    32  32  16  32  32  32   8  32
#     4  11  21  38  67  98 128 178 220 278 332 403
#     4  12  24  45  69  94 134 178 220 277 343 407
#     4  10  19  34  60  91 131 158 223 274 312 386
#     4  11  21  37  64 105 135 173 224 270 336 407
#     4  10  23  43  63  96 132 169 228 278 326 398
#     4  11  22  38  68  98 135 174 218 283 334 394
#     4  12  30  48  68  96 138 172 230 280 346 404
#     4  10  20  36  62  95 130 164 215 276 324 385
#
# _framework density 20.982686000000001
#
# number of rings (size 3 to 8) (size 9 to 14) (size 15 to 20)
#    0.000    1.185    5.185    1.778    0.000    2.963 
#    2.667    0.000    0.000    0.000    3.852    0.000 
#    0.000    0.000    0.000    0.000    0.000    0.000 
#
# Total GULP energy -300604.754360 kJ/mol
# GULP energy per Si atom -5566.754710 kJ/mol
# Density = 2.093493 g / cm^3
# Si number density = 20.982686 Si / 1000 Ang^3
#
#
#
# Elastic Constant Matrix: (Units=GPa)
#
#
# Indices 1 2 3 4 5 6 
#
# 1 95.6398 29.4650 -8.3805 0.0000 0.0000 0.0000
# 2 29.4650 87.5928 38.0350 0.0000 0.0000 0.0000
# 3 -8.3805 38.0350 69.3125 0.0000 0.0000 0.0000
# 4 0.0000 0.0000 0.0000 25.2450 0.0000 0.0000
# 5 0.0000 0.0000 0.0000 0.0000 8.6195 0.0000
# 6 0.0000 0.0000 0.0000 0.0000 0.0000 21.2522
#
#
#
# Elastic Compliance Matrix: (Units=1/GPa)
#
#
# Indices 1 2 3 4 5 6 
#
# 1 0.012947 -0.006610 0.005193 0.000000 0.000000 0.000000
# 2 -0.006610 0.018362 -0.010876 0.000000 0.000000 0.000000
# 3 0.005193 -0.010876 0.021023 0.000000 0.000000 0.000000
# 4 0.000000 0.000000 0.000000 0.039612 0.000000 0.000000
# 5 0.000000 0.000000 0.000000 0.000000 0.116016 0.000000
# 6 0.000000 0.000000 0.000000 0.000000 0.000000 0.047054
#
#
# Mechanical properties :
#
#
# Convention : Reuss Voigt Hill
#
# Bulk Modulus (GPa) = 36.03979 41.19825 38.61902
# Shear Modulus (GPa) = 17.31005 23.91840 20.61422
#
# Velocity S-wave (km/s) = 2.87534 3.37992 3.13779
# Velocity P-wave (km/s) = 5.31382 5.90837 5.61897
#
# Compressibility (1/GPa) = 0.02774711
#
# Stress axis : x y z
#
# Youngs Moduli (GPa) = 77.23563 54.45892 47.56653
#
# Poissons Ratio (x) = 0.35998 -0.24700
# Poissons Ratio (y) = 0.51054 0.51731
# Poissons Ratio (z) = -0.40106 0.59227
#
# Static dielectric constant tensor:
#      x y z
#    x 1.848720 0.000000 0.000000 
#    y 0.000000 1.831820 0.000000 
#    z 0.000000 0.000000 1.330920 
# 
# From -- ./inp_files/51625.got.cif
#   From: 2010.05.17/outbox.cif.g08.bks.cpg/sg70_26_cif.got.tgz:51625.got - 2010.06.03 15:57:51.
