data_PCOD9514567
_publ_section_title
;
Structure prediction by ZEFSAII (Michael W. Deem and Ramdas Pophale) SiO2 
 PCOD9514567
Probable space group: F D D D
;
_chemical_formula_sum "Si O2"
_cell_formula_units_Z 160
_cell_length_a 7.622106
_cell_length_b 23.298935
_cell_length_c 33.444932
_cell_angle_alpha 90.000000
_cell_angle_beta 90.000000
_cell_angle_gamma 90.000000
_cell_volume 5939.383542
_symmetry_space_group_name_H-M "F D D D"
_symmetry_group_IT_number 70
_space_group.IT_coordinate_system_code '2'
_symmetry_cell_setting 'orthorhombic'
loop_
_space_group_symop_operation_xyz
x,y,z
1/4-x,1/4-y,z
x,1/4-y,1/4-z
1/4-x,y,1/4-z
-x,-y,-z
3/4+x,3/4+y,-z
-x,3/4+y,3/4+z
3/4+x,-y,3/4+z
x,1/2+y,1/2+z
1/4-x,3/4-y,1/2+z
x,3/4-y,3/4-z
1/4-x,1/2+y,3/4-z
-x,1/2-y,1/2-z
3/4+x,1/4+y,1/2-z
-x,1/4+y,1/4+z
3/4+x,1/2-y,1/4+z
1/2+x,y,1/2+z
3/4-x,1/4-y,1/2+z
1/2+x,1/4-y,3/4-z
3/4-x,y,3/4-z
1/2-x,-y,1/2-z
1/4+x,3/4+y,1/2-z
1/2-x,3/4+y,1/4+z
1/4+x,-y,1/4+z
1/2+x,1/2+y,z
3/4-x,3/4-y,z
1/2+x,3/4-y,1/4-z
3/4-x,1/2+y,1/4-z
1/2-x,1/2-y,-z
1/4+x,1/4+y,-z
1/2-x,1/4+y,3/4+z
1/4+x,1/2-y,3/4+z
loop_
_atom_site_type_symbol
_atom_site_label
_atom_site_fract_x
_atom_site_fract_y
_atom_site_fract_z
Si Si1 0.065284 0.907843 0.579709
Si Si2 0.816101 0.205084 0.457168
Si Si3 0.322053 0.711220 0.607855
Si Si4 0.920056 0.138722 0.213024
Si Si5 0.684195 0.769737 0.444857
O O1 0.875000 0.875000 0.581108
O O2 0.125000 0.917854 0.625000
O O3 0.180028 0.859788 0.558928
O O4 0.063033 0.965525 0.552954
O O5 0.697065 0.236055 0.423402
O O6 0.816337 0.189899 0.504535
O O7 0.995786 0.241055 0.453551
O O8 0.125000 0.699764 0.625000
O O9 0.393367 0.662211 0.579331
O O10 0.432511 0.719323 0.647403
O O11 0.810696 0.079665 0.218809
O O12 0.125000 0.125000 0.207251
#
# Coordination Sequence:
#
# PCOD9514567 Si02
#       5
#    32  32  32  32  32
#     4  10  21  42  67  97 133 176 225 272 332 397
#     4  10  21  35  58  91 129 160 217 273 327 382
#     4  10  19  36  62  89 123 169 223 279 318 378
#     4  12  22  34  61  95 131 170 221 272 331 389
#     4  10  22  38  63  87 126 176 211 269 335 389
#
# _framework density 26.938822999999999
#
# number of rings (size 3 to 8) (size 9 to 14) (size 15 to 20)
#    0.000    1.600    4.000    4.200    0.000    3.200 
#    0.000    0.000    0.000    1.200    0.000    0.000 
#    0.000    0.000    0.000    0.000    0.000    0.000 
#
# Total GULP energy -223478.588343 kJ/mol
# GULP energy per Si atom -5586.964709 kJ/mol
# Density = 2.687751 g / cm^3
# Si number density = 26.938823 Si / 1000 Ang^3
#
#
#
# Elastic Constant Matrix: (Units=GPa)
#
#
# Indices 1 2 3 4 5 6 
#
# 1 48.5994 0.8919 -0.9646 0.0000 0.0000 0.0000
# 2 0.8919 153.2890 40.7524 0.0000 0.0000 0.0000
# 3 -0.9646 40.7524 188.1525 0.0000 0.0000 0.0000
# 4 0.0000 0.0000 0.0000 66.2103 0.0000 0.0000
# 5 0.0000 0.0000 0.0000 0.0000 4.6472 0.0000
# 6 0.0000 0.0000 0.0000 0.0000 0.0000 21.1934
#
#
#
# Elastic Compliance Matrix: (Units=1/GPa)
#
#
# Indices 1 2 3 4 5 6 
#
# 1 0.020582 -0.000157 0.000139 0.000000 0.000000 0.000000
# 2 -0.000157 0.006923 -0.001500 0.000000 0.000000 0.000000
# 3 0.000139 -0.001500 0.005641 0.000000 0.000000 0.000000
# 4 0.000000 0.000000 0.000000 0.015103 0.000000 0.000000
# 5 0.000000 0.000000 0.000000 0.000000 0.215182 0.000000
# 6 0.000000 0.000000 0.000000 0.000000 0.000000 0.047184
#
#
# Mechanical properties :
#
#
# Convention : Reuss Voigt Hill
#
# Bulk Modulus (GPa) = 33.21097 52.37783 42.79440
# Shear Modulus (GPa) = 15.44699 41.70095 28.57397
#
# Velocity S-wave (km/s) = 2.39720 3.93871 3.26037
# Velocity P-wave (km/s) = 4.47405 6.33799 5.48576
#
# Compressibility (1/GPa) = 0.03011053
#
# Stress axis : x y z
#
# Youngs Moduli (GPa) = 48.58606 144.43738 177.28865
#
# Poissons Ratio (x) = 0.02265 -0.02473
# Poissons Ratio (y) = 0.00762 0.26600
# Poissons Ratio (z) = -0.00678 0.21671
#
# Static dielectric constant tensor:
#      x y z
#    x 2.155080 0.000000 0.000000 
#    y 0.000000 2.175330 0.000000 
#    z 0.000000 0.000000 2.101160 
# 
# From -- ./inp_files/50305.got.cif
#   From: 2010.05.17/outbox.cif.g08.bks.cpg/sg70_26_cif.got.tgz:50305.got - 2010.06.03 15:57:51.
