data_PCOD9514197
_publ_section_title
;
Structure prediction by ZEFSAII (Michael W. Deem and Ramdas Pophale) SiO2 
 PCOD9514197
Probable space group: F D D D
;
_chemical_formula_sum "Si O2"
_cell_formula_units_Z 160
_cell_length_a 16.665700
_cell_length_b 23.231933
_cell_length_c 18.666545
_cell_angle_alpha 90.000000
_cell_angle_beta 90.000000
_cell_angle_gamma 90.000000
_cell_volume 7227.246175
_symmetry_space_group_name_H-M "F D D D"
_symmetry_group_IT_number 70
_space_group.IT_coordinate_system_code '2'
_symmetry_cell_setting 'orthorhombic'
loop_
_space_group_symop_operation_xyz
x,y,z
1/4-x,1/4-y,z
x,1/4-y,1/4-z
1/4-x,y,1/4-z
-x,-y,-z
3/4+x,3/4+y,-z
-x,3/4+y,3/4+z
3/4+x,-y,3/4+z
x,1/2+y,1/2+z
1/4-x,3/4-y,1/2+z
x,3/4-y,3/4-z
1/4-x,1/2+y,3/4-z
-x,1/2-y,1/2-z
3/4+x,1/4+y,1/2-z
-x,1/4+y,1/4+z
3/4+x,1/2-y,1/4+z
1/2+x,y,1/2+z
3/4-x,1/4-y,1/2+z
1/2+x,1/4-y,3/4-z
3/4-x,y,3/4-z
1/2-x,-y,1/2-z
1/4+x,3/4+y,1/2-z
1/2-x,3/4+y,1/4+z
1/4+x,-y,1/4+z
1/2+x,1/2+y,z
3/4-x,3/4-y,z
1/2+x,3/4-y,1/4-z
3/4-x,1/2+y,1/4-z
1/2-x,1/2-y,-z
1/4+x,1/4+y,-z
1/2-x,1/4+y,3/4+z
1/4+x,1/2-y,3/4+z
loop_
_atom_site_type_symbol
_atom_site_label
_atom_site_fract_x
_atom_site_fract_y
_atom_site_fract_z
Si Si1 0.125000 0.625000 0.509263
Si Si2 0.375000 0.375000 0.244347
Si Si3 0.869440 0.125000 0.625000
Si Si4 0.803570 0.814431 0.115706
Si Si5 0.014152 0.712230 0.570254
Si Si6 0.375000 0.785814 0.875000
Si Si7 0.209675 0.761947 0.833423
O O1 0.194934 0.647730 0.456018
O O2 0.157425 0.574835 0.557740
O O3 0.442360 0.395417 0.186161
O O4 0.369755 0.426632 0.301838
O O5 0.808549 0.083329 0.580998
O O6 0.927041 0.172339 0.587618
O O7 0.740460 0.762566 0.120832
O O8 0.888401 0.779471 0.110184
O O9 0.012379 0.745967 0.495737
O O10 0.291014 0.753101 0.877166
#
# Coordination Sequence:
#
# PCOD9514197 Si02
#       7
#    16  16  16  32  32  16  32
#     4   9  20  38  64  90 118 151 200 250 286 359
#     4  10  18  31  52  85 116 152 186 238 282 356
#     4  10  22  40  62  86 124 160 190 250 300 344
#     4   9  19  37  59  82 122 160 183 241 308 336
#     4  10  20  41  60  86 117 158 200 239 300 352
#     4  11  20  32  54  90 112 144 200 228 288 359
#     4  10  21  38  57  88 120 155 196 244 291 354
#
# _framework density 22.138445999999998
#
# number of rings (size 3 to 8) (size 9 to 14) (size 15 to 20)
#    0.000    2.200    2.000    1.200    0.000    1.200 
#    3.600   11.000    0.000    0.000    0.000    0.000 
#    0.000    0.000    0.000    0.000    0.000    0.000 
#
# Total GULP energy -222702.482636 kJ/mol
# GULP energy per Si atom -5567.562066 kJ/mol
# Density = 2.208806 g / cm^3
# Si number density = 22.138446 Si / 1000 Ang^3
#
#
#
# Elastic Constant Matrix: (Units=GPa)
#
#
# Indices 1 2 3 4 5 6 
#
# 1 -65.5539 -18.2368 56.3130 0.0000 0.0000 0.0000
# 2 -18.2368 99.7009 55.5680 0.0000 0.0000 0.0000
# 3 56.3130 55.5680 105.4044 0.0000 0.0000 0.0000
# 4 0.0000 0.0000 0.0000 -2.2518 0.0000 0.0000
# 5 0.0000 0.0000 0.0000 0.0000 -3.1790 0.0000
# 6 0.0000 0.0000 0.0000 0.0000 0.0000 32.0204
#
#
#
# Elastic Compliance Matrix: (Units=1/GPa)
#
#
# Indices 1 2 3 4 5 6 
#
# 1 -0.007797 -0.005307 0.006963 0.000000 0.000000 0.000000
# 2 -0.005307 0.010591 -0.002748 0.000000 0.000000 0.000000
# 3 0.006963 -0.002748 0.007216 0.000000 0.000000 0.000000
# 4 0.000000 0.000000 0.000000 -0.444098 0.000000 0.000000
# 5 0.000000 0.000000 0.000000 0.000000 -0.314565 0.000000
# 6 0.000000 0.000000 0.000000 0.000000 0.000000 0.031230
#
#
# Mechanical properties :
#
#
# Convention : Reuss Voigt Hill
#
# Bulk Modulus (GPa) = 127.77355 36.31551 82.04453
# Shear Modulus (GPa) = -7.01626 8.37842 0.68108
#
# Velocity S-wave (km/s) = -1.78217 1.94750 0.55526
# Velocity P-wave (km/s) = 7.32162 4.63643 6.12791
#
# Compressibility (1/GPa) = 0.00782635
#
# Stress axis : x y z
#
# Youngs Moduli (GPa) = -128.26078 94.42064 138.58287
#
# Poissons Ratio (x) = 0.50109 -0.96498
# Poissons Ratio (y) = -0.68068 0.38084
# Poissons Ratio (z) = 0.89311 0.25948
#
# Static dielectric constant tensor:
#      x y z
#    x 1.901060 0.000000 0.000000 
#    y 0.000000 1.846530 0.000000 
#    z 0.000000 0.000000 1.986870 
# 
# From -- ./inp_files/35210.got.cif
#   From: 2010.05.17/outbox.cif.g08.bks.cpg/sg70_18_cif.got.tgz:35210.got - 2010.06.03 15:57:51.
