data_PCOD9514107
_publ_section_title
;
Structure prediction by ZEFSAII (Michael W. Deem and Ramdas Pophale) SiO2 
 PCOD9514107
Probable space group: F D D D
;
_chemical_formula_sum "Si O2"
_cell_formula_units_Z 192
_cell_length_a 19.120095
_cell_length_b 13.650227
_cell_length_c 27.743392
_cell_angle_alpha 90.000000
_cell_angle_beta 90.000000
_cell_angle_gamma 90.000000
_cell_volume 7240.848781
_symmetry_space_group_name_H-M "F D D D"
_symmetry_group_IT_number 70
_space_group.IT_coordinate_system_code '2'
_symmetry_cell_setting 'orthorhombic'
loop_
_space_group_symop_operation_xyz
x,y,z
1/4-x,1/4-y,z
x,1/4-y,1/4-z
1/4-x,y,1/4-z
-x,-y,-z
3/4+x,3/4+y,-z
-x,3/4+y,3/4+z
3/4+x,-y,3/4+z
x,1/2+y,1/2+z
1/4-x,3/4-y,1/2+z
x,3/4-y,3/4-z
1/4-x,1/2+y,3/4-z
-x,1/2-y,1/2-z
3/4+x,1/4+y,1/2-z
-x,1/4+y,1/4+z
3/4+x,1/2-y,1/4+z
1/2+x,y,1/2+z
3/4-x,1/4-y,1/2+z
1/2+x,1/4-y,3/4-z
3/4-x,y,3/4-z
1/2-x,-y,1/2-z
1/4+x,3/4+y,1/2-z
1/2-x,3/4+y,1/4+z
1/4+x,-y,1/4+z
1/2+x,1/2+y,z
3/4-x,3/4-y,z
1/2+x,3/4-y,1/4-z
3/4-x,1/2+y,1/4-z
1/2-x,1/2-y,-z
1/4+x,1/4+y,-z
1/2-x,1/4+y,3/4+z
1/4+x,1/2-y,3/4+z
loop_
_atom_site_type_symbol
_atom_site_label
_atom_site_fract_x
_atom_site_fract_y
_atom_site_fract_z
Si Si1 0.102561 0.255906 0.181679
Si Si2 0.704196 0.002383 0.841647
Si Si3 0.947119 0.991795 0.652545
Si Si4 0.416763 0.734395 0.955752
Si Si5 0.502008 0.502745 0.802064
Si Si6 0.513526 0.485482 0.555872
O O1 0.125000 0.244282 0.125000
O O2 0.091683 0.370046 0.192774
O O3 0.171846 0.218089 0.209129
O O4 0.022617 0.218845 0.187837
O O5 0.700299 0.122321 0.842188
O O6 0.626504 0.972426 0.826855
O O7 0.718604 0.969979 0.896530
O O8 0.015821 0.027731 0.679482
O O9 0.958775 0.017968 0.596429
O O10 0.342404 0.774454 0.938461
O O11 0.439545 0.740898 0.011393
O O12 0.488817 0.618039 0.810647
O O13 0.500000 0.500000 0.500000
#
# Coordination Sequence:
#
# PCOD9514107 Si02
#       6
#    32  32  32  32  32  32
#     4   8  15  29  47  66  90 120 150 182 221 265
#     4   8  14  27  46  63  82 111 148 184 216 260
#     4   9  16  27  44  64  84 112 147 182 224 265
#     4  10  17  27  43  64  90 112 138 184 227 257
#     4   9  17  28  44  66  87 112 148 184 219 263
#     4  10  19  30  44  61  85 119 154 181 213 265
#
# _framework density 26.516227000000001
#
# number of rings (size 3 to 8) (size 9 to 14) (size 15 to 20)
#    0.000    3.000    0.000    4.500    0.000    2.000 
#    0.000    1.667    0.000    4.000    0.000    0.000 
#    0.000    0.000    0.000    0.000    0.000    0.000 
#
# Total GULP energy -268301.724487 kJ/mol
# GULP energy per Si atom -5589.619260 kJ/mol
# Density = 2.645588 g / cm^3
# Si number density = 26.516227 Si / 1000 Ang^3
#
#
#
# Elastic Constant Matrix: (Units=GPa)
#
#
# Indices 1 2 3 4 5 6 
#
# 1 191.8522 40.9949 -2.6612 0.0000 0.0000 0.0000
# 2 40.9949 93.5499 1.6806 0.0000 0.0000 0.0000
# 3 -2.6612 1.6806 36.3772 0.0000 0.0000 0.0000
# 4 0.0000 0.0000 0.0000 -0.1275 0.0000 0.0000
# 5 0.0000 0.0000 0.0000 0.0000 35.5948 0.0000
# 6 0.0000 0.0000 0.0000 0.0000 0.0000 27.9058
#
#
#
# Elastic Compliance Matrix: (Units=1/GPa)
#
#
# Indices 1 2 3 4 5 6 
#
# 1 0.005761 -0.002534 0.000539 0.000000 0.000000 0.000000
# 2 -0.002534 0.011813 -0.000731 0.000000 0.000000 0.000000
# 3 0.000539 -0.000731 0.027563 0.000000 0.000000 0.000000
# 4 0.000000 0.000000 0.000000 -7.843845 0.000000 0.000000
# 5 0.000000 0.000000 0.000000 0.000000 0.028094 0.000000
# 6 0.000000 0.000000 0.000000 0.000000 0.000000 0.035835
#
#
# Mechanical properties :
#
#
# Convention : Reuss Voigt Hill
#
# Bulk Modulus (GPa) = 25.19939 44.64533 34.92236
# Shear Modulus (GPa) = -0.64800 31.45895 15.40548
#
# Velocity S-wave (km/s) = -0.49488 3.44816 2.41297
# Velocity P-wave (km/s) = 3.03273 5.72072 4.57843
#
# Compressibility (1/GPa) = 0.03968349
#
# Stress axis : x y z
#
# Youngs Moduli (GPa) = 173.57001 84.65094 36.28067
#
# Poissons Ratio (x) = 0.21454 -0.01954
# Poissons Ratio (y) = 0.43989 0.02653
# Poissons Ratio (z) = -0.09348 0.06189
#
# Static dielectric constant tensor:
#      x y z
#    x 2.071810 0.000000 0.000000 
#    y 0.000000 2.058590 0.000000 
#    z 0.000000 0.000000 2.033760 
# 
# From -- ./inp_files/60485.got.cif
#   From: 2010.05.17/outbox.cif.g08.bks.cpg/sg70_31_cif.got.tgz:60485.got - 2010.06.03 15:57:51.
