data_PCOD9514762
_publ_section_title
;
Structure prediction by ZEFSAII (Michael W. Deem and Ramdas Pophale) SiO2 
 PCOD9514762
Probable space group: F D D D
;
_chemical_formula_sum "Si O2"
_cell_formula_units_Z 176
_cell_length_a 16.021904
_cell_length_b 16.548378
_cell_length_c 33.075030
_cell_angle_alpha 90.000000
_cell_angle_beta 90.000000
_cell_angle_gamma 90.000000
_cell_volume 8769.398475
_symmetry_space_group_name_H-M "F D D D"
_symmetry_group_IT_number 70
_space_group.IT_coordinate_system_code '2'
_symmetry_cell_setting 'orthorhombic'
loop_
_space_group_symop_operation_xyz
x,y,z
1/4-x,1/4-y,z
x,1/4-y,1/4-z
1/4-x,y,1/4-z
-x,-y,-z
3/4+x,3/4+y,-z
-x,3/4+y,3/4+z
3/4+x,-y,3/4+z
x,1/2+y,1/2+z
1/4-x,3/4-y,1/2+z
x,3/4-y,3/4-z
1/4-x,1/2+y,3/4-z
-x,1/2-y,1/2-z
3/4+x,1/4+y,1/2-z
-x,1/4+y,1/4+z
3/4+x,1/2-y,1/4+z
1/2+x,y,1/2+z
3/4-x,1/4-y,1/2+z
1/2+x,1/4-y,3/4-z
3/4-x,y,3/4-z
1/2-x,-y,1/2-z
1/4+x,3/4+y,1/2-z
1/2-x,3/4+y,1/4+z
1/4+x,-y,1/4+z
1/2+x,1/2+y,z
3/4-x,3/4-y,z
1/2+x,3/4-y,1/4-z
3/4-x,1/2+y,1/4-z
1/2-x,1/2-y,-z
1/4+x,1/4+y,-z
1/2-x,1/4+y,3/4+z
1/4+x,1/2-y,3/4+z
loop_
_atom_site_type_symbol
_atom_site_label
_atom_site_fract_x
_atom_site_fract_y
_atom_site_fract_z
Si Si1 0.659495 0.901332 0.936234
Si Si2 0.942527 0.492702 0.610292
Si Si3 0.875000 0.875000 0.527972
Si Si4 0.166817 0.264547 0.730219
Si Si5 0.497924 0.503436 0.567048
Si Si6 0.502934 0.568472 0.351240
O O1 0.694499 0.815262 0.922188
O O2 0.699404 0.965436 0.904366
O O3 0.559094 0.915918 0.929905
O O4 0.674357 0.922526 0.982906
O O5 0.002147 0.415671 0.605310
O O6 0.849408 0.457906 0.604931
O O7 0.936674 0.821235 0.500763
O O8 0.819523 0.814897 0.554423
O O9 0.218180 0.290053 0.691470
O O10 0.071616 0.250279 0.715314
O O11 0.535001 0.477127 0.610034
#
# Coordination Sequence:
#
# PCOD9514762 Si02
#       6
#    32  32  16  32  32  32
#     4   9  18  35  56  78 101 145 190 228 260 341
#     4   9  19  36  56  74 106 149 192 214 277 334
#     4  10  20  36  57  76 114 150 180 221 278 350
#     4  11  22  31  55  85 112 137 183 232 285 321
#     4  10  20  36  53  80 111 144 180 218 288 336
#     4  10  20  34  52  79 111 146 178 231 275 332
#
# _framework density 20.069790999999999
#
# number of rings (size 3 to 8) (size 9 to 14) (size 15 to 20)
#    0.000    2.182    0.000    6.000    5.091    0.727 
#    0.000    0.909    0.000    0.000    0.000    5.091 
#    0.000    0.000    0.000    0.000    0.000    0.000 
#
# Total GULP energy -245361.345940 kJ/mol
# GULP energy per Si atom -5576.394226 kJ/mol
# Density = 2.002411 g / cm^3
# Si number density = 20.069791 Si / 1000 Ang^3
#
#
#
# Elastic Constant Matrix: (Units=GPa)
#
#
# Indices 1 2 3 4 5 6 
#
# 1 15.7353 -11.6213 6.5092 0.0000 0.0000 0.0000
# 2 -11.6213 71.3013 32.3238 0.0000 0.0000 0.0000
# 3 6.5092 32.3238 163.5862 0.0000 0.0000 0.0000
# 4 0.0000 0.0000 0.0000 23.8528 0.0000 0.0000
# 5 0.0000 0.0000 0.0000 0.0000 25.3340 0.0000
# 6 0.0000 0.0000 0.0000 0.0000 0.0000 8.7340
#
#
#
# Elastic Compliance Matrix: (Units=1/GPa)
#
#
# Indices 1 2 3 4 5 6 
#
# 1 0.077461 0.015402 -0.006126 0.000000 0.000000 0.000000
# 2 0.015402 0.018467 -0.004262 0.000000 0.000000 0.000000
# 3 -0.006126 -0.004262 0.007199 0.000000 0.000000 0.000000
# 4 0.000000 0.000000 0.000000 0.041924 0.000000 0.000000
# 5 0.000000 0.000000 0.000000 0.000000 0.039473 0.000000
# 6 0.000000 0.000000 0.000000 0.000000 0.000000 0.114495
#
#
# Mechanical properties :
#
#
# Convention : Reuss Voigt Hill
#
# Bulk Modulus (GPa) = 8.83731 33.89399 21.36565
# Shear Modulus (GPa) = 15.30421 26.47825 20.89123
#
# Velocity S-wave (km/s) = 2.76443 3.63617 3.22984
# Velocity P-wave (km/s) = 3.82129 5.87824 4.95762
#
# Compressibility (1/GPa) = 0.11315656
#
# Stress axis : x y z
#
# Youngs Moduli (GPa) = 12.90975 54.14924 138.91086
#
# Poissons Ratio (x) = -0.83402 0.85091
# Poissons Ratio (y) = -0.19884 0.59203
# Poissons Ratio (z) = 0.07908 0.23078
#
# Static dielectric constant tensor:
#      x y z
#    x 1.728020 0.000000 0.000000 
#    y 0.000000 1.761200 0.000000 
#    z 0.000000 0.000000 1.745530 
# 
# From -- ./inp_files/39694.got.cif
#   From: 2010.05.17/outbox.cif.g08.bks.cpg/sg70_20_cif.got.tgz:39694.got - 2010.06.03 15:57:51.
