data_PCOD9514011
_publ_section_title
;
Structure prediction by ZEFSAII (Michael W. Deem and Ramdas Pophale) SiO2 
 PCOD9514011
Probable space group: F M M M
;
_chemical_formula_sum "Si O2"
_cell_formula_units_Z 40
_cell_length_a 15.000000
_cell_length_b 30.000000
_cell_length_c 18.000000
_cell_angle_alpha 90.000000
_cell_angle_beta 90.000000
_cell_angle_gamma 90.000000
_cell_volume 8100.000000
_symmetry_space_group_name_H-M "F M M M"
_symmetry_group_IT_number 69
_symmetry_cell_setting 'orthorhombic'
loop_
_space_group_symop_operation_xyz
x,y,z
-x,-y,z
x,-y,-z
-x,y,-z
-x,-y,-z
x,y,-z
-x,y,z
x,-y,z
x,1/2+y,1/2+z
-x,1/2-y,1/2+z
x,1/2-y,1/2-z
-x,1/2+y,1/2-z
-x,1/2-y,1/2-z
x,1/2+y,1/2-z
-x,1/2+y,1/2+z
x,1/2-y,1/2+z
1/2+x,y,1/2+z
1/2-x,-y,1/2+z
1/2+x,-y,1/2-z
1/2-x,y,1/2-z
1/2-x,-y,1/2-z
1/2+x,y,1/2-z
1/2-x,y,1/2+z
1/2+x,-y,1/2+z
1/2+x,1/2+y,z
1/2-x,1/2-y,z
1/2+x,1/2-y,-z
1/2-x,1/2+y,-z
1/2-x,1/2-y,-z
1/2+x,1/2+y,-z
1/2-x,1/2+y,z
1/2+x,1/2-y,z
loop_
_atom_site_type_symbol
_atom_site_label
_atom_site_fract_x
_atom_site_fract_y
_atom_site_fract_z
Si Si1 0.654609 0.225570 0.326303
Si Si2 0.893380 0.344883 0.000000
Si Si3 0.394522 0.089644 0.863776
Si Si4 0.892933 0.622406 0.306718
Si Si5 0.106260 0.746580 0.500000
Si Si6 0.713051 0.448643 0.910573
O O1 0.612197 0.250000 0.250000
O O2 0.750000 0.250000 0.327923
O O3 0.647573 0.172417 0.311472
O O4 0.625240 0.229299 0.414582
O O5 0.874352 0.371594 0.075568
O O6 0.851227 0.296213 0.000000
O O7 0.000000 0.339453 0.000000
O O8 0.500000 0.076713 0.873793
O O9 0.383735 0.105581 0.778732
O O10 0.316427 0.054989 0.883894
O O11 0.843333 0.587668 0.362629
O O12 0.000000 0.624480 0.322860
O O13 0.000000 0.747672 0.500000
O O14 0.682561 0.500000 0.898336
O O15 0.708242 0.439772 0.000000
#
# Coordination Sequence:
#
# PCOD9514011 Si02
#       6
#    32  16  32  32  16  32
#     4  11  26  42  67 102 137 181 230 290 347 412
#     4   9  18  33  60  96 128 167 214 272 342 408
#     4  10  21  40  70 102 135 174 220 282 352 418
#     4  11  26  45  69  98 138 187 235 285 340 408
#     4  11  23  39  63  91 133 182 228 281 344 414
#     4  11  26  45  71 103 137 179 231 293 349 409
#
# _framework density 4.9382720000000004
#
# number of rings (size 3 to 8) (size 9 to 14) (size 15 to 20)
#    0.000    1.400    1.000    2.700    9.800    6.000 
#    0.000    4.000    0.000    0.000    0.000    0.000 
#    0.000    0.000    0.000    0.000    0.000    0.000 
#
# Total GULP energy -222843.884581 kJ/mol
# GULP energy per Si atom -5571.097115 kJ/mol
# Density = 0.492703 g / cm^3
# Si number density = 4.938272 Si / 1000 Ang^3
#
#
#
# Elastic Constant Matrix: (Units=GPa)
#
#
# Indices 1 2 3 4 5 6 
#
# 1 94.3927 43.7411 42.1878 0.0000 0.0000 0.0000
# 2 43.7411 144.7996 66.6549 0.0000 0.0000 0.0000
# 3 42.1878 66.6549 186.5426 0.0000 0.0000 0.0000
# 4 0.0000 0.0000 0.0000 35.4109 0.0000 0.0000
# 5 0.0000 0.0000 0.0000 0.0000 35.6620 0.0000
# 6 0.0000 0.0000 0.0000 0.0000 0.0000 20.9290
#
#
#
# Elastic Compliance Matrix: (Units=1/GPa)
#
#
# Indices 1 2 3 4 5 6 
#
# 1 0.012811 -0.003035 -0.001813 0.000000 0.000000 0.000000
# 2 -0.003035 0.008985 -0.002524 0.000000 0.000000 0.000000
# 3 -0.001813 -0.002524 0.006672 0.000000 0.000000 0.000000
# 4 0.000000 0.000000 0.000000 0.028240 0.000000 0.000000
# 5 0.000000 0.000000 0.000000 0.000000 0.028041 0.000000
# 6 0.000000 0.000000 0.000000 0.000000 0.000000 0.047781
#
#
# Mechanical properties :
#
#
# Convention : Reuss Voigt Hill
#
# Bulk Modulus (GPa) = 72.86476 81.21138 77.03807
# Shear Modulus (GPa) = 32.92754 36.61045 34.76899
#
# Velocity S-wave (km/s) = 4.08727 4.30979 4.20000
# Velocity P-wave (km/s) = 7.69690 8.12208 7.91235
#
# Compressibility (1/GPa) = 0.01372406
#
# Stress axis : x y z
#
# Youngs Moduli (GPa) = 78.05920 111.29777 149.86893
#
# Poissons Ratio (x) = 0.33784 0.27165
# Poissons Ratio (y) = 0.23695 0.37826
# Poissons Ratio (z) = 0.14149 0.28091
#
# Static dielectric constant tensor:
#      x y z
#    x 1.731630 0.000000 0.000000 
#    y 0.000000 1.720080 0.000000 
#    z 0.000000 0.000000 1.711260 
# 
# From -- ./inp_files/21875.got.cif
#   From: 2010.05.17/outbox.ucp.g08.bks.cvg/sg69_11_cif.got.tgz:21875.got - 2010.06.11 16:51:34.
