data_PCOD9514066
_publ_section_title
;
Structure prediction by ZEFSAII (Michael W. Deem and Ramdas Pophale) SiO2 
 PCOD9514066
Probable space group: F D D D
;
_chemical_formula_sum "Si O2"
_cell_formula_units_Z 200
_cell_length_a 14.631990
_cell_length_b 29.437437
_cell_length_c 22.373774
_cell_angle_alpha 90.000000
_cell_angle_beta 90.000000
_cell_angle_gamma 90.000000
_cell_volume 9637.017277
_symmetry_space_group_name_H-M "F D D D"
_symmetry_group_IT_number 70
_space_group.IT_coordinate_system_code '2'
_symmetry_cell_setting 'orthorhombic'
loop_
_space_group_symop_operation_xyz
x,y,z
1/4-x,1/4-y,z
x,1/4-y,1/4-z
1/4-x,y,1/4-z
-x,-y,-z
3/4+x,3/4+y,-z
-x,3/4+y,3/4+z
3/4+x,-y,3/4+z
x,1/2+y,1/2+z
1/4-x,3/4-y,1/2+z
x,3/4-y,3/4-z
1/4-x,1/2+y,3/4-z
-x,1/2-y,1/2-z
3/4+x,1/4+y,1/2-z
-x,1/4+y,1/4+z
3/4+x,1/2-y,1/4+z
1/2+x,y,1/2+z
3/4-x,1/4-y,1/2+z
1/2+x,1/4-y,3/4-z
3/4-x,y,3/4-z
1/2-x,-y,1/2-z
1/4+x,3/4+y,1/2-z
1/2-x,3/4+y,1/4+z
1/4+x,-y,1/4+z
1/2+x,1/2+y,z
3/4-x,3/4-y,z
1/2+x,3/4-y,1/4-z
3/4-x,1/2+y,1/4-z
1/2-x,1/2-y,-z
1/4+x,1/4+y,-z
1/2-x,1/4+y,3/4+z
1/4+x,1/2-y,3/4+z
loop_
_atom_site_type_symbol
_atom_site_label
_atom_site_fract_x
_atom_site_fract_y
_atom_site_fract_z
Si Si1 0.069265 0.333473 0.030517
Si Si2 0.348039 0.480635 0.506369
Si Si3 0.625000 0.125000 0.625000
Si Si4 0.510433 0.445605 0.827427
Si Si5 0.063531 0.830709 0.397955
Si Si6 0.762109 0.007430 0.349034
Si Si7 0.125000 0.909891 0.625000
Si Si8 0.375000 0.012891 0.375000
O O1 0.091119 0.377854 0.070424
O O2 0.120519 0.294170 0.066911
O O3 0.965498 0.314011 0.018417
O O4 0.102475 0.339218 0.963416
O O5 0.283950 0.524874 0.518980
O O6 0.410640 0.488712 0.447574
O O7 0.422942 0.482026 0.559606
O O8 0.563034 0.155673 0.581271
O O9 0.603749 0.425923 0.852426
O O10 0.465271 0.482307 0.872667
O O11 0.009567 0.875000 0.375000
O O12 0.009763 0.783592 0.393953
O O13 0.792952 0.053724 0.380864
#
# Coordination Sequence:
#
# PCOD9514066 Si02
#       8
#    32  32   8  32  32  32  16  16
#     4  10  22  39  62  88 128 160 210 258 319 372
#     4   9  20  40  65  90 125 172 203 265 315 387
#     4  10  16  30  56  92 124 162 206 256 306 384
#     4   9  18  33  61  88 125 159 213 250 317 371
#     4  11  23  39  59  94 126 163 208 265 308 386
#     4  10  22  40  65  93 127 166 215 255 327 376
#     4  11  24  39  61  89 121 167 209 262 307 376
#     4   8  18  39  58  87 115 172 199 252 316 382
#
# _framework density 20.753309000000002
#
# number of rings (size 3 to 8) (size 9 to 14) (size 15 to 20)
#    0.000    2.240    0.800    0.960    6.720    1.280 
#    0.000    2.800    0.000    9.600    0.000    0.000 
#    0.000    0.000    0.000    0.000    0.000    0.000 
#
# Total GULP energy -278392.475774 kJ/mol
# GULP energy per Si atom -5567.849515 kJ/mol
# Density = 2.070607 g / cm^3
# Si number density = 20.753309 Si / 1000 Ang^3
#
#
#
# Elastic Constant Matrix: (Units=GPa)
#
#
# Indices 1 2 3 4 5 6 
#
# 1 63.8330 34.9473 5.6395 0.0000 0.0000 0.0000
# 2 34.9473 150.4668 50.8910 0.0000 0.0000 0.0000
# 3 5.6395 50.8910 100.9959 0.0000 0.0000 0.0000
# 4 0.0000 0.0000 0.0000 2.0027 0.0000 0.0000
# 5 0.0000 0.0000 0.0000 0.0000 29.7524 0.0000
# 6 0.0000 0.0000 0.0000 0.0000 0.0000 119.7978
#
#
#
# Elastic Compliance Matrix: (Units=1/GPa)
#
#
# Indices 1 2 3 4 5 6 
#
# 1 0.018096 -0.004654 0.001335 0.000000 0.000000 0.000000
# 2 -0.004654 0.009209 -0.004380 0.000000 0.000000 0.000000
# 3 0.001335 -0.004380 0.012034 0.000000 0.000000 0.000000
# 4 0.000000 0.000000 0.000000 0.499319 0.000000 0.000000
# 5 0.000000 0.000000 0.000000 0.000000 0.033611 0.000000
# 6 0.000000 0.000000 0.000000 0.000000 0.000000 0.008347
#
#
# Mechanical properties :
#
#
# Convention : Reuss Voigt Hill
#
# Bulk Modulus (GPa) = 41.77268 55.36126 48.56697
# Shear Modulus (GPa) = 8.27821 45.23177 26.75499
#
# Velocity S-wave (km/s) = 1.99938 4.67357 3.59443
# Velocity P-wave (km/s) = 5.04994 7.47374 6.37804
#
# Compressibility (1/GPa) = 0.02393909
#
# Stress axis : x y z
#
# Youngs Moduli (GPa) = 55.26030 108.59521 83.09789
#
# Poissons Ratio (x) = 0.50546 -0.11093
# Poissons Ratio (y) = 0.25721 0.36398
# Poissons Ratio (z) = -0.07377 0.47567
#
# Static dielectric constant tensor:
#      x y z
#    x 1.768660 0.000000 0.000000 
#    y 0.000000 1.792940 0.000000 
#    z 0.000000 0.000000 1.681090 
# 
# From -- ./inp_files/58771.got.cif
#   From: 2010.05.17/outbox.cif.g08.bks.cpg/sg70_30_cif.got.tgz:58771.got - 2010.06.03 15:57:51.
