data_PCOD9514074
_publ_section_title
;
Structure prediction by ZEFSAII (Michael W. Deem and Ramdas Pophale) SiO2 
 PCOD9514074
Probable space group: F D D D
;
_chemical_formula_sum "Si O2"
_cell_formula_units_Z 192
_cell_length_a 19.083550
_cell_length_b 20.430638
_cell_length_c 19.064401
_cell_angle_alpha 90.000000
_cell_angle_beta 90.000000
_cell_angle_gamma 90.000000
_cell_volume 7433.002182
_symmetry_space_group_name_H-M "F D D D"
_symmetry_group_IT_number 70
_space_group.IT_coordinate_system_code '2'
_symmetry_cell_setting 'orthorhombic'
loop_
_space_group_symop_operation_xyz
x,y,z
1/4-x,1/4-y,z
x,1/4-y,1/4-z
1/4-x,y,1/4-z
-x,-y,-z
3/4+x,3/4+y,-z
-x,3/4+y,3/4+z
3/4+x,-y,3/4+z
x,1/2+y,1/2+z
1/4-x,3/4-y,1/2+z
x,3/4-y,3/4-z
1/4-x,1/2+y,3/4-z
-x,1/2-y,1/2-z
3/4+x,1/4+y,1/2-z
-x,1/4+y,1/4+z
3/4+x,1/2-y,1/4+z
1/2+x,y,1/2+z
3/4-x,1/4-y,1/2+z
1/2+x,1/4-y,3/4-z
3/4-x,y,3/4-z
1/2-x,-y,1/2-z
1/4+x,3/4+y,1/2-z
1/2-x,3/4+y,1/4+z
1/4+x,-y,1/4+z
1/2+x,1/2+y,z
3/4-x,3/4-y,z
1/2+x,3/4-y,1/4-z
3/4-x,1/2+y,1/4-z
1/2-x,1/2-y,-z
1/4+x,1/4+y,-z
1/2-x,1/4+y,3/4+z
1/4+x,1/2-y,3/4+z
loop_
_atom_site_type_symbol
_atom_site_label
_atom_site_fract_x
_atom_site_fract_y
_atom_site_fract_z
Si Si1 0.650096 0.236904 0.994820
Si Si2 0.418577 0.608165 0.266314
Si Si3 0.848578 0.709445 0.099138
Si Si4 0.181058 0.576906 0.451787
Si Si5 0.467469 0.368531 0.542892
Si Si6 0.448443 0.724234 0.375298
O O1 0.640615 0.272537 0.920130
O O2 0.587346 0.182556 0.991818
O O3 0.715662 0.186775 0.000458
O O4 0.632956 0.299795 0.042636
O O5 0.401811 0.641593 0.192033
O O6 0.494663 0.573482 0.261083
O O7 0.434234 0.668986 0.316473
O O8 0.890269 0.759677 0.049767
O O9 0.768429 0.735014 0.108648
O O10 0.125000 0.625000 0.485684
O O11 0.195251 0.606008 0.371849
O O12 0.533655 0.322912 0.558014
O O13 0.375000 0.762180 0.375000
#
# Coordination Sequence:
#
# PCOD9514074 Si02
#       6
#    32  32  32  32  32  32
#     4   9  16  32  53  73  99 136 175 212 256 297
#     4  11  21  30  53  85 105 129 176 221 252 303
#     4  10  19  35  50  75 111 140 167 207 251 316
#     4  10  16  33  53  68 100 152 170 182 249 323
#     4   8  15  34  55  67  93 141 179 204 251 317
#     4  10  20  34  51  73 104 144 177 207 257 316
#
# _framework density 25.830748
#
# number of rings (size 3 to 8) (size 9 to 14) (size 15 to 20)
#    0.000    2.333    6.667    1.000    0.000    2.667 
#    0.000    0.833    0.000    0.000    0.000    4.667 
#    0.000    0.000    0.000    0.000    0.000    0.000 
#
# Total GULP energy -267563.236195 kJ/mol
# GULP energy per Si atom -5574.234087 kJ/mol
# Density = 2.577196 g / cm^3
# Si number density = 25.830748 Si / 1000 Ang^3
#
#
#
# Elastic Constant Matrix: (Units=GPa)
#
#
# Indices 1 2 3 4 5 6 
#
# 1 132.2544 14.2764 -8.5420 0.0000 0.0000 0.0000
# 2 14.2764 125.7613 12.5899 0.0000 0.0000 0.0000
# 3 -8.5420 12.5899 58.2741 0.0000 0.0000 0.0000
# 4 0.0000 0.0000 0.0000 30.1893 0.0000 0.0000
# 5 0.0000 0.0000 0.0000 0.0000 20.3102 0.0000
# 6 0.0000 0.0000 0.0000 0.0000 0.0000 11.0865
#
#
#
# Elastic Compliance Matrix: (Units=1/GPa)
#
#
# Indices 1 2 3 4 5 6 
#
# 1 0.007759 -0.001017 0.001357 0.000000 0.000000 0.000000
# 2 -0.001017 0.008261 -0.001934 0.000000 0.000000 0.000000
# 3 0.001357 -0.001934 0.017777 0.000000 0.000000 0.000000
# 4 0.000000 0.000000 0.000000 0.033124 0.000000 0.000000
# 5 0.000000 0.000000 0.000000 0.000000 0.049236 0.000000
# 6 0.000000 0.000000 0.000000 0.000000 0.000000 0.090200
#
#
# Mechanical properties :
#
#
# Convention : Reuss Voigt Hill
#
# Bulk Modulus (GPa) = 32.66978 39.21538 35.94258
# Shear Modulus (GPa) = 22.75352 32.18156 27.46754
#
# Velocity S-wave (km/s) = 2.97116 3.53351 3.26447
# Velocity P-wave (km/s) = 4.94424 5.64466 5.30602
#
# Compressibility (1/GPa) = 0.03060932
#
# Stress axis : x y z
#
# Youngs Moduli (GPa) = 128.88985 121.05730 56.25267
#
# Poissons Ratio (x) = 0.12307 -0.07633
# Poissons Ratio (y) = 0.13103 0.10877
# Poissons Ratio (z) = -0.17489 0.23409
#
# Static dielectric constant tensor:
#      x y z
#    x 2.165510 0.000000 0.000000 
#    y 0.000000 1.577130 0.000000 
#    z 0.000000 0.000000 2.249630 
# 
# From -- ./inp_files/60491.got.cif
#   From: 2010.05.17/outbox.cif.g08.bks.cpg/sg70_31_cif.got.tgz:60491.got - 2010.06.03 15:57:51.
