data_PCOD9514292
_publ_section_title
;
Structure prediction by ZEFSAII (Michael W. Deem and Ramdas Pophale) SiO2 
 PCOD9514292
Probable space group: F D D D
;
_chemical_formula_sum "Si O2"
_cell_formula_units_Z 112
_cell_length_a 26.115591
_cell_length_b 7.531091
_cell_length_c 27.435573
_cell_angle_alpha 90.000000
_cell_angle_beta 90.000000
_cell_angle_gamma 90.000000
_cell_volume 5395.998108
_symmetry_space_group_name_H-M "F D D D"
_symmetry_group_IT_number 70
_space_group.IT_coordinate_system_code '2'
_symmetry_cell_setting 'orthorhombic'
loop_
_space_group_symop_operation_xyz
x,y,z
1/4-x,1/4-y,z
x,1/4-y,1/4-z
1/4-x,y,1/4-z
-x,-y,-z
3/4+x,3/4+y,-z
-x,3/4+y,3/4+z
3/4+x,-y,3/4+z
x,1/2+y,1/2+z
1/4-x,3/4-y,1/2+z
x,3/4-y,3/4-z
1/4-x,1/2+y,3/4-z
-x,1/2-y,1/2-z
3/4+x,1/4+y,1/2-z
-x,1/4+y,1/4+z
3/4+x,1/2-y,1/4+z
1/2+x,y,1/2+z
3/4-x,1/4-y,1/2+z
1/2+x,1/4-y,3/4-z
3/4-x,y,3/4-z
1/2-x,-y,1/2-z
1/4+x,3/4+y,1/2-z
1/2-x,3/4+y,1/4+z
1/4+x,-y,1/4+z
1/2+x,1/2+y,z
3/4-x,3/4-y,z
1/2+x,3/4-y,1/4-z
3/4-x,1/2+y,1/4-z
1/2-x,1/2-y,-z
1/4+x,1/4+y,-z
1/2-x,1/4+y,3/4+z
1/4+x,1/2-y,3/4+z
loop_
_atom_site_type_symbol
_atom_site_label
_atom_site_fract_x
_atom_site_fract_y
_atom_site_fract_z
Si Si1 0.512833 0.156234 0.678299
Si Si2 0.125000 0.125000 0.211777
Si Si3 0.340237 0.725619 0.011333
Si Si4 0.011998 0.212374 0.528487
O O1 0.491149 0.125000 0.625000
O O2 0.573310 0.114881 0.681309
O O3 0.489802 0.041511 0.722900
O O4 0.509633 0.364108 0.689332
O O5 0.127038 0.305368 0.244105
O O6 0.375000 0.875000 0.036538
O O7 0.311920 0.838329 0.967946
O O8 0.289898 0.647942 0.037356
#
# Coordination Sequence:
#
# PCOD9514292 Si02
#       4
#    32  16  32  32
#     4  10  19  35  58  87 121 151 196 248 299 370
#     4  10  19  32  58  92 114 150 190 246 320 362
#     4  10  18  35  59  85 116 152 200 244 291 371
#     4   9  20  35  56  88 115 161 194 236 312 355
#
# _framework density 20.756122999999999
#
# number of rings (size 3 to 8) (size 9 to 14) (size 15 to 20)
#    0.000    2.286    2.857    0.429    0.000    0.000 
#    0.000   12.857    0.000    3.429    3.714    0.000 
#    0.000    0.000    0.000    0.000    0.000    0.000 
#
# Total GULP energy -155985.540173 kJ/mol
# GULP energy per Si atom -5570.912149 kJ/mol
# Density = 2.070888 g / cm^3
# Si number density = 20.756123 Si / 1000 Ang^3
#
#
#
# Elastic Constant Matrix: (Units=GPa)
#
#
# Indices 1 2 3 4 5 6 
#
# 1 63.3821 16.9349 -1.3755 0.0000 0.0000 -0.0002
# 2 16.9349 154.3382 27.3210 0.0001 0.0000 0.0000
# 3 -1.3755 27.3210 67.2236 0.0000 0.0000 0.0000
# 4 0.0000 0.0001 0.0000 7.6442 0.0000 -0.0001
# 5 0.0000 0.0000 0.0000 0.0000 5.7025 0.0000
# 6 -0.0002 0.0000 0.0000 -0.0001 0.0000 52.4165
#
#
#
# Elastic Compliance Matrix: (Units=1/GPa)
#
#
# Indices 1 2 3 4 5 6 
#
# 1 0.016335 -0.001995 0.001145 0.000000 0.000000 0.000000
# 2 -0.001995 0.007225 -0.002977 0.000000 0.000000 0.000000
# 3 0.001145 -0.002977 0.016109 0.000000 0.000000 0.000000
# 4 0.000000 0.000000 0.000000 0.130819 0.000001 0.000000
# 5 0.000000 0.000000 0.000000 0.000001 0.175363 0.000000
# 6 0.000000 0.000000 0.000000 0.000000 0.000000 0.019078
#
#
# Mechanical properties :
#
#
# Convention : Reuss Voigt Hill
#
# Bulk Modulus (GPa) = 31.23532 41.18942 36.21237
# Shear Modulus (GPa) = 13.04613 29.29020 21.16817
#
# Velocity S-wave (km/s) = 2.50980 3.76062 3.19698
# Velocity P-wave (km/s) = 4.84563 6.22446 5.57781
#
# Compressibility (1/GPa) = 0.03201504
#
# Stress axis : x y z
#
# Youngs Moduli (GPa) = 61.21735 138.40378 62.07632
#
# Poissons Ratio (x) = 0.27613 -0.07108
# Poissons Ratio (y) = 0.12214 0.18482
# Poissons Ratio (z) = -0.07010 0.41207
#
# Static dielectric constant tensor:
#      x y z
#    x 1.808670 0.000000 0.000000 
#    y 0.000000 1.801610 0.000000 
#    z 0.000000 0.000000 1.746770 
# 
# From -- ./inp_files/10970.got.cif
#   From: 2010.05.17/outbox.cif.g08.bks.cpg/sg70_6_cif.got.tgz:10970.got - 2010.06.03 15:57:51.
