data_PCOD9514308
_publ_section_title
;
Structure prediction by ZEFSAII (Michael W. Deem and Ramdas Pophale) SiO2 
 PCOD9514308
Probable space group: F D D D
;
_chemical_formula_sum "Si O2"
_cell_formula_units_Z 168
_cell_length_a 13.080392
_cell_length_b 25.869191
_cell_length_c 17.887087
_cell_angle_alpha 90.000000
_cell_angle_beta 90.000000
_cell_angle_gamma 90.000000
_cell_volume 6052.617456
_symmetry_space_group_name_H-M "F D D D"
_symmetry_group_IT_number 70
_space_group.IT_coordinate_system_code '2'
_symmetry_cell_setting 'orthorhombic'
loop_
_space_group_symop_operation_xyz
x,y,z
1/4-x,1/4-y,z
x,1/4-y,1/4-z
1/4-x,y,1/4-z
-x,-y,-z
3/4+x,3/4+y,-z
-x,3/4+y,3/4+z
3/4+x,-y,3/4+z
x,1/2+y,1/2+z
1/4-x,3/4-y,1/2+z
x,3/4-y,3/4-z
1/4-x,1/2+y,3/4-z
-x,1/2-y,1/2-z
3/4+x,1/4+y,1/2-z
-x,1/4+y,1/4+z
3/4+x,1/2-y,1/4+z
1/2+x,y,1/2+z
3/4-x,1/4-y,1/2+z
1/2+x,1/4-y,3/4-z
3/4-x,y,3/4-z
1/2-x,-y,1/2-z
1/4+x,3/4+y,1/2-z
1/2-x,3/4+y,1/4+z
1/4+x,-y,1/4+z
1/2+x,1/2+y,z
3/4-x,3/4-y,z
1/2+x,3/4-y,1/4-z
3/4-x,1/2+y,1/4-z
1/2-x,1/2-y,-z
1/4+x,1/4+y,-z
1/2-x,1/4+y,3/4+z
1/4+x,1/2-y,3/4+z
loop_
_atom_site_type_symbol
_atom_site_label
_atom_site_fract_x
_atom_site_fract_y
_atom_site_fract_z
Si Si1 0.472464 0.625000 0.125000
Si Si2 0.798305 0.042827 0.100430
Si Si3 0.625000 0.125000 0.125000
Si Si4 0.260809 0.195866 0.435035
Si Si5 0.683808 0.954323 0.559800
Si Si6 0.033813 0.394772 0.213259
Si Si7 0.125000 0.625000 0.930617
O O1 0.400719 0.574696 0.115686
O O2 0.518180 0.612479 0.207110
O O3 0.708182 0.082820 0.094336
O O4 0.772855 0.001937 0.164714
O O5 0.809246 0.016367 0.018812
O O6 0.218235 0.158147 0.361788
O O7 0.379473 0.189192 0.452391
O O8 0.200281 0.159140 0.488541
O O9 0.625000 0.985394 0.625000
O O10 0.603501 0.906298 0.547583
O O11 0.791474 0.928417 0.580907
#
# Coordination Sequence:
#
# PCOD9514308 Si02
#       7
#    16  32   8  32  32  32  16
#     4   9  20  33  52  79 117 154 188 235 322 368
#     4  10  21  32  54  88 122 160 192 250 321 387
#     4  10  18  36  52  92 138 152 196 264 328 424
#     4  10  19  34  57  85 112 155 210 249 304 375
#     4  10  18  36  57  81 114 156 201 253 308 371
#     4   9  17  35  57  77 109 155 189 247 304 363
#     4  10  19  34  62  86 108 159 210 260 304 365
#
# _framework density 27.756585999999999
#
# number of rings (size 3 to 8) (size 9 to 14) (size 15 to 20)
#    0.000    2.286    3.810    1.714    0.000    3.810 
#    0.000    0.952    4.190    0.000    0.000    0.000 
#    0.000    0.000    0.000    0.000    0.000    0.000 
#
# Total GULP energy -233852.815545 kJ/mol
# GULP energy per Si atom -5567.924180 kJ/mol
# Density = 2.769341 g / cm^3
# Si number density = 27.756586 Si / 1000 Ang^3
#
#
#
# Elastic Constant Matrix: (Units=GPa)
#
#
# Indices 1 2 3 4 5 6 
#
# 1 143.8981 15.8462 33.6822 0.0000 0.0000 0.0000
# 2 15.8462 106.4390 15.1540 0.0000 0.0000 0.0000
# 3 33.6822 15.1540 157.6228 0.0000 0.0000 0.0000
# 4 0.0000 0.0000 0.0000 43.1950 0.0000 0.0000
# 5 0.0000 0.0000 0.0000 0.0000 19.6440 0.0000
# 6 0.0000 0.0000 0.0000 0.0000 0.0000 -11.1860
#
#
#
# Elastic Compliance Matrix: (Units=1/GPa)
#
#
# Indices 1 2 3 4 5 6 
#
# 1 0.007397 -0.000888 -0.001495 0.000000 0.000000 0.000000
# 2 -0.000888 0.009632 -0.000736 0.000000 0.000000 0.000000
# 3 -0.001495 -0.000736 0.006735 0.000000 0.000000 0.000000
# 4 0.000000 0.000000 0.000000 0.023151 0.000000 0.000000
# 5 0.000000 0.000000 0.000000 0.000000 0.050906 0.000000
# 6 0.000000 0.000000 0.000000 0.000000 0.000000 -0.089398
#
#
# Mechanical properties :
#
#
# Convention : Reuss Voigt Hill
#
# Bulk Modulus (GPa) = 57.06410 59.70273 58.38342
# Shear Modulus (GPa) = 243.85183 33.21578 138.53381
#
# Velocity S-wave (km/s) = 9.38320 3.46306 7.07238
# Velocity P-wave (km/s) = 11.74717 6.12752 9.36863
#
# Compressibility (1/GPa) = 0.01752415
#
# Stress axis : x y z
#
# Youngs Moduli (GPa) = 135.18646 103.81923 148.48776
#
# Poissons Ratio (x) = 0.09223 0.22203
# Poissons Ratio (y) = 0.12010 0.10932
# Poissons Ratio (z) = 0.20214 0.07643
#
# Static dielectric constant tensor:
#      x y z
#    x 2.157960 0.000000 0.000000 
#    y 0.000000 2.177190 0.000000 
#    z 0.000000 0.000000 -16.799190 
# 
# From -- ./inp_files/43010.got.cif
#   From: 2010.05.17/outbox.cif.g08.bks.cpg/sg70_22_cif.got.tgz:43010.got - 2010.06.03 15:57:51.
