data_PCOD9514297
_publ_section_title
;
Structure prediction by ZEFSAII (Michael W. Deem and Ramdas Pophale) SiO2 
 PCOD9514297
Probable space group: F D D D
;
_chemical_formula_sum "Si O2"
_cell_formula_units_Z 152
_cell_length_a 26.013879
_cell_length_b 12.036911
_cell_length_c 26.093066
_cell_angle_alpha 90.000000
_cell_angle_beta 90.000000
_cell_angle_gamma 90.000000
_cell_volume 8170.436857
_symmetry_space_group_name_H-M "F D D D"
_symmetry_group_IT_number 70
_space_group.IT_coordinate_system_code '2'
_symmetry_cell_setting 'orthorhombic'
loop_
_space_group_symop_operation_xyz
x,y,z
1/4-x,1/4-y,z
x,1/4-y,1/4-z
1/4-x,y,1/4-z
-x,-y,-z
3/4+x,3/4+y,-z
-x,3/4+y,3/4+z
3/4+x,-y,3/4+z
x,1/2+y,1/2+z
1/4-x,3/4-y,1/2+z
x,3/4-y,3/4-z
1/4-x,1/2+y,3/4-z
-x,1/2-y,1/2-z
3/4+x,1/4+y,1/2-z
-x,1/4+y,1/4+z
3/4+x,1/2-y,1/4+z
1/2+x,y,1/2+z
3/4-x,1/4-y,1/2+z
1/2+x,1/4-y,3/4-z
3/4-x,y,3/4-z
1/2-x,-y,1/2-z
1/4+x,3/4+y,1/2-z
1/2-x,3/4+y,1/4+z
1/4+x,-y,1/4+z
1/2+x,1/2+y,z
3/4-x,3/4-y,z
1/2+x,3/4-y,1/4-z
3/4-x,1/2+y,1/4-z
1/2-x,1/2-y,-z
1/4+x,1/4+y,-z
1/2-x,1/4+y,3/4+z
1/4+x,1/2-y,3/4+z
loop_
_atom_site_type_symbol
_atom_site_label
_atom_site_fract_x
_atom_site_fract_y
_atom_site_fract_z
Si Si1 0.816953 0.070789 0.428385
Si Si2 0.442023 0.125000 0.625000
Si Si3 0.375000 0.375000 0.375000
Si Si4 0.292447 0.823811 0.235357
Si Si5 0.039793 0.510850 0.646260
Si Si6 0.354194 0.700205 0.523128
O O1 0.760355 0.062338 0.454295
O O2 0.813635 0.153467 0.379576
O O3 0.852499 0.127164 0.471881
O O4 0.839645 0.954812 0.409643
O O5 0.481175 0.021149 0.625900
O O6 0.411627 0.119587 0.572622
O O7 0.286609 0.777256 0.293126
O O8 0.341128 0.755232 0.214849
O O9 0.312518 0.951212 0.236704
O O10 0.065020 0.625000 0.625000
#
# Coordination Sequence:
#
# PCOD9514297 Si02
#       6
#    32  16   8  32  32  32
#     4  12  22  47  59  92 136 165 215 263 302 393
#     4  10  18  35  62 101 120 159 193 272 330 356
#     4  12  32  42  62  84 132 192 214 238 312 388
#     4  11  21  36  67  99 125 162 203 274 332 361
#     4  10  18  35  69  94 117 162 202 277 324 344
#     4  11  21  37  66 101 128 155 212 269 323 374
#
# _framework density 18.603656000000001
#
# number of rings (size 3 to 8) (size 9 to 14) (size 15 to 20)
#    0.632    0.421    6.316    1.895    0.000    0.842 
#    0.000    8.421    0.000    0.000    0.000    0.000 
#    0.000    0.000    0.000    0.000    0.000    0.000 
#
# Total GULP energy -211990.265596 kJ/mol
# GULP energy per Si atom -5578.691200 kJ/mol
# Density = 1.856131 g / cm^3
# Si number density = 18.603656 Si / 1000 Ang^3
#
#
#
# Elastic Constant Matrix: (Units=GPa)
#
#
# Indices 1 2 3 4 5 6 
#
# 1 83.3849 38.2008 25.8525 0.0000 0.0000 0.0000
# 2 38.2008 115.9654 50.7752 0.0000 0.0000 0.0000
# 3 25.8525 50.7752 114.7272 0.0000 0.0000 0.0000
# 4 0.0000 0.0000 0.0000 20.6190 0.0000 0.0000
# 5 0.0000 0.0000 0.0000 0.0000 12.4775 0.0000
# 6 0.0000 0.0000 0.0000 0.0000 0.0000 12.7330
#
#
#
# Elastic Compliance Matrix: (Units=1/GPa)
#
#
# Indices 1 2 3 4 5 6 
#
# 1 0.014306 -0.004095 -0.001412 0.000000 0.000000 0.000000
# 2 -0.004095 0.011868 -0.004330 0.000000 0.000000 0.000000
# 3 -0.001412 -0.004330 0.010951 0.000000 0.000000 0.000000
# 4 0.000000 0.000000 0.000000 0.048499 0.000000 0.000000
# 5 0.000000 0.000000 0.000000 0.000000 0.080145 0.000000
# 6 0.000000 0.000000 0.000000 0.000000 0.000000 0.078536
#
#
# Mechanical properties :
#
#
# Convention : Reuss Voigt Hill
#
# Bulk Modulus (GPa) = 57.29741 60.41493 58.85617
# Shear Modulus (GPa) = 18.53269 22.44916 20.49093
#
# Velocity S-wave (km/s) = 3.15966 3.47754 3.32240
# Velocity P-wave (km/s) = 6.64659 6.97636 6.81347
#
# Compressibility (1/GPa) = 0.01745280
#
# Stress axis : x y z
#
# Youngs Moduli (GPa) = 69.90055 84.26139 91.31902
#
# Poissons Ratio (x) = 0.34501 0.12890
# Poissons Ratio (y) = 0.28621 0.39539
# Poissons Ratio (z) = 0.09867 0.36483
#
# Static dielectric constant tensor:
#      x y z
#    x 1.687390 0.000000 0.000000 
#    y 0.000000 1.628560 0.000000 
#    z 0.000000 0.000000 1.638370 
# 
# From -- ./inp_files/54918.got.cif
#   From: 2010.05.17/outbox.cif.g08.bks.cpg/sg70_28_cif.got.tgz:54918.got - 2010.06.03 15:57:51.
