data_PCOD9514409
_publ_section_title
;
Structure prediction by ZEFSAII (Michael W. Deem and Ramdas Pophale) SiO2 
 PCOD9514409
Probable space group: F D D D
;
_chemical_formula_sum "Si O2"
_cell_formula_units_Z 128
_cell_length_a 31.005323
_cell_length_b 7.882173
_cell_length_c 20.342756
_cell_angle_alpha 90.000000
_cell_angle_beta 90.000000
_cell_angle_gamma 90.000000
_cell_volume 4971.552302
_symmetry_space_group_name_H-M "F D D D"
_symmetry_group_IT_number 70
_space_group.IT_coordinate_system_code '2'
_symmetry_cell_setting 'orthorhombic'
loop_
_space_group_symop_operation_xyz
x,y,z
1/4-x,1/4-y,z
x,1/4-y,1/4-z
1/4-x,y,1/4-z
-x,-y,-z
3/4+x,3/4+y,-z
-x,3/4+y,3/4+z
3/4+x,-y,3/4+z
x,1/2+y,1/2+z
1/4-x,3/4-y,1/2+z
x,3/4-y,3/4-z
1/4-x,1/2+y,3/4-z
-x,1/2-y,1/2-z
3/4+x,1/4+y,1/2-z
-x,1/4+y,1/4+z
3/4+x,1/2-y,1/4+z
1/2+x,y,1/2+z
3/4-x,1/4-y,1/2+z
1/2+x,1/4-y,3/4-z
3/4-x,y,3/4-z
1/2-x,-y,1/2-z
1/4+x,3/4+y,1/2-z
1/2-x,3/4+y,1/4+z
1/4+x,-y,1/4+z
1/2+x,1/2+y,z
3/4-x,3/4-y,z
1/2+x,3/4-y,1/4-z
3/4-x,1/2+y,1/4-z
1/2-x,1/2-y,-z
1/4+x,1/4+y,-z
1/2-x,1/4+y,3/4+z
1/4+x,1/2-y,3/4+z
loop_
_atom_site_type_symbol
_atom_site_label
_atom_site_fract_x
_atom_site_fract_y
_atom_site_fract_z
Si Si1 0.949676 0.245559 0.228848
Si Si2 0.210321 0.644773 0.347144
Si Si3 0.078913 0.053823 0.522585
Si Si4 0.941449 0.622239 0.391467
O O1 0.939772 0.373615 0.169427
O O2 0.928192 0.256487 0.300547
O O3 0.000000 0.250000 0.250000
O O4 0.944898 0.066679 0.189861
O O5 0.198947 0.509166 0.291180
O O6 0.261074 0.660807 0.361663
O O7 0.125000 0.125000 0.501216
O O8 0.056504 0.203518 0.565381
O O9 0.086321 0.909841 0.577103
#
# Coordination Sequence:
#
# PCOD9514409 Si02
#       4
#    32  32  32  32
#     4   8  15  27  46  69  90 116 154 208 254 293
#     4   9  16  28  48  70  93 123 163 209 250 304
#     4  10  19  30  47  72 103 136 166 213 267 310
#     4   9  16  28  47  69  93 124 167 204 245 309
#
# _framework density 25.746486999999998
#
# number of rings (size 3 to 8) (size 9 to 14) (size 15 to 20)
#    0.000    3.000    0.000    2.250    0.000    0.000 
#    0.000    0.000    0.000   57.000    0.000   70.000 
#    0.000    0.000    0.000    0.000    0.000    0.000 
#
# Total GULP energy -178261.304580 kJ/mol
# GULP energy per Si atom -5570.665768 kJ/mol
# Density = 2.568789 g / cm^3
# Si number density = 25.746487 Si / 1000 Ang^3
#
#
#
# Elastic Constant Matrix: (Units=GPa)
#
#
# Indices 1 2 3 4 5 6 
#
# 1 68.6848 3.7112 47.6193 0.0000 0.0000 0.0000
# 2 3.7112 70.2087 18.6542 0.0000 -0.0001 -0.0001
# 3 47.6193 18.6542 263.0052 0.0000 0.0000 0.0000
# 4 0.0000 0.0000 0.0000 11.3115 0.0000 0.0000
# 5 0.0000 -0.0001 0.0000 0.0000 14.5400 0.0000
# 6 0.0000 -0.0001 0.0000 0.0000 0.0000 14.4933
#
#
#
# Elastic Compliance Matrix: (Units=1/GPa)
#
#
# Indices 1 2 3 4 5 6 
#
# 1 0.016650 -0.000081 -0.003009 0.000000 0.000000 0.000000
# 2 -0.000081 0.014517 -0.001015 0.000000 0.000000 0.000000
# 3 -0.003009 -0.001015 0.004419 0.000000 0.000000 0.000000
# 4 0.000000 0.000000 0.000000 0.088406 0.000000 0.000000
# 5 0.000000 0.000000 0.000000 0.000000 0.068776 0.000000
# 6 0.000000 0.000000 0.000000 0.000000 0.000000 0.068998
#
#
# Mechanical properties :
#
#
# Convention : Reuss Voigt Hill
#
# Bulk Modulus (GPa) = 36.52734 60.20755 48.36745
# Shear Modulus (GPa) = 17.91477 30.19657 24.05567
#
# Velocity S-wave (km/s) = 2.64069 3.42839 3.05999
# Velocity P-wave (km/s) = 4.84931 6.25359 5.59567
#
# Compressibility (1/GPa) = 0.02737675
#
# Stress axis : x y z
#
# Youngs Moduli (GPa) = 60.06130 68.88373 226.29676
#
# Poissons Ratio (x) = 0.00556 0.68089
# Poissons Ratio (y) = 0.00484 0.22970
# Poissons Ratio (z) = 0.18071 0.06992
#
# Static dielectric constant tensor:
#      x y z
#    x 2.024190 0.000000 0.000000 
#    y 0.000000 1.250590 0.000000 
#    z 0.000000 0.000000 2.146630 
# 
# From -- ./inp_files/54143.got.cif
#   From: 2010.05.17/outbox.cif.g08.bks.cpg/sg70_28_cif.got.tgz:54143.got - 2010.06.03 15:57:51.
