data_PCOD9514557
_publ_section_title
;
Structure prediction by ZEFSAII (Michael W. Deem and Ramdas Pophale) SiO2 
 PCOD9514557
Probable space group: F D D D
;
_chemical_formula_sum "Si O2"
_cell_formula_units_Z 208
_cell_length_a 28.996687
_cell_length_b 21.283626
_cell_length_c 16.006747
_cell_angle_alpha 90.000000
_cell_angle_beta 90.000000
_cell_angle_gamma 90.000000
_cell_volume 9878.638204
_symmetry_space_group_name_H-M "F D D D"
_symmetry_group_IT_number 70
_space_group.IT_coordinate_system_code '2'
_symmetry_cell_setting 'orthorhombic'
loop_
_space_group_symop_operation_xyz
x,y,z
1/4-x,1/4-y,z
x,1/4-y,1/4-z
1/4-x,y,1/4-z
-x,-y,-z
3/4+x,3/4+y,-z
-x,3/4+y,3/4+z
3/4+x,-y,3/4+z
x,1/2+y,1/2+z
1/4-x,3/4-y,1/2+z
x,3/4-y,3/4-z
1/4-x,1/2+y,3/4-z
-x,1/2-y,1/2-z
3/4+x,1/4+y,1/2-z
-x,1/4+y,1/4+z
3/4+x,1/2-y,1/4+z
1/2+x,y,1/2+z
3/4-x,1/4-y,1/2+z
1/2+x,1/4-y,3/4-z
3/4-x,y,3/4-z
1/2-x,-y,1/2-z
1/4+x,3/4+y,1/2-z
1/2-x,3/4+y,1/4+z
1/4+x,-y,1/4+z
1/2+x,1/2+y,z
3/4-x,3/4-y,z
1/2+x,3/4-y,1/4-z
3/4-x,1/2+y,1/4-z
1/2-x,1/2-y,-z
1/4+x,1/4+y,-z
1/2-x,1/4+y,3/4+z
1/4+x,1/2-y,3/4+z
loop_
_atom_site_type_symbol
_atom_site_label
_atom_site_fract_x
_atom_site_fract_y
_atom_site_fract_z
Si Si1 0.549942 0.192770 0.087648
Si Si2 0.713901 0.962411 0.306891
Si Si3 0.559270 0.238202 0.895895
Si Si4 0.849863 0.434570 0.622188
Si Si5 0.925830 0.672437 0.350450
Si Si6 0.723204 0.375000 0.375000
Si Si7 0.738109 0.636748 0.948130
O O1 0.565415 0.125000 0.125000
O O2 0.495197 0.195042 0.113323
O O3 0.573346 0.252231 0.133024
O O4 0.557672 0.207617 0.989425
O O5 0.690790 0.911315 0.245970
O O6 0.750000 0.000000 0.250000
O O7 0.674811 0.012603 0.325378
O O8 0.604687 0.220740 0.841477
O O9 0.554960 0.312785 0.900071
O O10 0.518650 0.203224 0.847005
O O11 0.875000 0.375000 0.665197
O O12 0.808188 0.404524 0.569088
O O13 0.875000 0.649102 0.375000
O O14 0.967375 0.645913 0.406596
O O15 0.753530 0.357493 0.454594
#
# Coordination Sequence:
#
# PCOD9514557 Si02
#       7
#    32  32  32  32  32  16  32
#     4  11  22  38  63 101 140 183 224 276 353 433
#     4  10  19  36  59  90 135 178 214 273 343 407
#     4  11  24  43  71 102 132 183 234 289 356 417
#     4  10  21  39  66  95 130 174 223 286 339 419
#     4  11  22  39  63  95 143 182 225 285 349 425
#     4  12  24  48  71  96 132 184 237 292 348 418
#     4  11  23  46  69  95 136 179 234 292 348 410
#
# _framework density 21.055533
#
# number of rings (size 3 to 8) (size 9 to 14) (size 15 to 20)
#    0.000    1.231    4.615    2.308    6.462    0.308 
#    1.385    6.538    0.000    0.000    0.000    0.000 
#    0.000    0.000    0.000    0.000    0.000    0.000 
#
# Total GULP energy -289588.003843 kJ/mol
# GULP energy per Si atom -5569.000074 kJ/mol
# Density = 2.100761 g / cm^3
# Si number density = 21.055533 Si / 1000 Ang^3
#
#
#
# Elastic Constant Matrix: (Units=GPa)
#
#
# Indices 1 2 3 4 5 6 
#
# 1 129.2226 27.9307 21.3607 0.0000 0.0000 0.0000
# 2 27.9307 103.0653 11.6426 0.0000 0.0000 0.0000
# 3 21.3607 11.6426 60.0164 0.0000 0.0000 0.0000
# 4 0.0000 0.0000 0.0000 21.7022 0.0000 0.0000
# 5 0.0000 0.0000 0.0000 0.0000 9.7220 0.0000
# 6 0.0000 0.0000 0.0000 0.0000 0.0000 21.0883
#
#
#
# Elastic Compliance Matrix: (Units=1/GPa)
#
#
# Indices 1 2 3 4 5 6 
#
# 1 0.008620 -0.002034 -0.002673 0.000000 0.000000 0.000000
# 2 -0.002034 0.010400 -0.001294 0.000000 0.000000 0.000000
# 3 -0.002673 -0.001294 0.017865 0.000000 0.000000 0.000000
# 4 0.000000 0.000000 0.000000 0.046078 0.000000 0.000000
# 5 0.000000 0.000000 0.000000 0.000000 0.102859 0.000000
# 6 0.000000 0.000000 0.000000 0.000000 0.000000 0.047420
#
#
# Mechanical properties :
#
#
# Convention : Reuss Voigt Hill
#
# Bulk Modulus (GPa) = 40.18878 46.01916 43.10397
# Shear Modulus (GPa) = 19.72090 25.92719 22.82405
#
# Velocity S-wave (km/s) = 3.06373 3.51290 3.29598
# Velocity P-wave (km/s) = 5.62528 6.19334 5.91613
#
# Compressibility (1/GPa) = 0.02488257
#
# Stress axis : x y z
#
# Youngs Moduli (GPa) = 116.00711 96.15441 55.97673
#
# Poissons Ratio (x) = 0.19558 0.14965
# Poissons Ratio (y) = 0.23597 0.07241
# Poissons Ratio (z) = 0.31014 0.12438
#
# Static dielectric constant tensor:
#      x y z
#    x 1.765590 0.000000 0.000000 
#    y 0.000000 1.814130 0.000000 
#    z 0.000000 0.000000 1.788770 
# 
# From -- ./inp_files/38843.got.cif
#   From: 2010.05.17/outbox.cif.g08.bks.cpg/sg70_20_cif.got.tgz:38843.got - 2010.06.03 15:57:51.
