data_PCOD9514957
_publ_section_title
;
Structure prediction by ZEFSAII (Michael W. Deem and Ramdas Pophale) SiO2 
 PCOD9514957
Probable space group: F D D D
;
_chemical_formula_sum "Si O2"
_cell_formula_units_Z 96
_cell_length_a 25.764735
_cell_length_b 8.905697
_cell_length_c 16.173741
_cell_angle_alpha 90.000000
_cell_angle_beta 90.000000
_cell_angle_gamma 90.000000
_cell_volume 3711.112151
_symmetry_space_group_name_H-M "F D D D"
_symmetry_group_IT_number 70
_space_group.IT_coordinate_system_code '2'
_symmetry_cell_setting 'orthorhombic'
loop_
_space_group_symop_operation_xyz
x,y,z
1/4-x,1/4-y,z
x,1/4-y,1/4-z
1/4-x,y,1/4-z
-x,-y,-z
3/4+x,3/4+y,-z
-x,3/4+y,3/4+z
3/4+x,-y,3/4+z
x,1/2+y,1/2+z
1/4-x,3/4-y,1/2+z
x,3/4-y,3/4-z
1/4-x,1/2+y,3/4-z
-x,1/2-y,1/2-z
3/4+x,1/4+y,1/2-z
-x,1/4+y,1/4+z
3/4+x,1/2-y,1/4+z
1/2+x,y,1/2+z
3/4-x,1/4-y,1/2+z
1/2+x,1/4-y,3/4-z
3/4-x,y,3/4-z
1/2-x,-y,1/2-z
1/4+x,3/4+y,1/2-z
1/2-x,3/4+y,1/4+z
1/4+x,-y,1/4+z
1/2+x,1/2+y,z
3/4-x,3/4-y,z
1/2+x,3/4-y,1/4-z
3/4-x,1/2+y,1/4-z
1/2-x,1/2-y,-z
1/4+x,1/4+y,-z
1/2-x,1/4+y,3/4+z
1/4+x,1/2-y,3/4+z
loop_
_atom_site_type_symbol
_atom_site_label
_atom_site_fract_x
_atom_site_fract_y
_atom_site_fract_z
Si Si1 0.125000 0.125000 0.419065
Si Si2 0.988479 0.826710 0.162063
Si Si3 0.582273 0.343438 0.055325
Si Si4 0.290713 0.375000 0.875000
O O1 0.070889 0.066740 0.381533
O O2 0.103980 0.262818 0.475384
O O3 0.000000 0.750000 0.250000
O O4 0.029163 0.776752 0.092067
O O5 0.005202 0.001975 0.168684
O O6 0.625000 0.314844 0.125000
O O7 0.572515 0.523376 0.059424
#
# Coordination Sequence:
#
# PCOD9514957 Si02
#       4
#    16  32  32  16
#     4  12  21  40  72  92 134 186 222 291 358 420
#     4  10  22  37  64 101 130 184 233 282 364 411
#     4  10  20  37  66  96 131 174 236 282 336 440
#     4   8  21  40  58  98 142 164 233 298 324 440
#
# _framework density 25.868255999999999
#
# number of rings (size 3 to 8) (size 9 to 14) (size 15 to 20)
#    2.000    0.000    3.333    1.000    0.000    1.333 
#    0.000    3.333    0.000    0.000    0.000    0.000 
#    0.000    0.000    0.000    0.000    0.000    0.000 
#
# Total GULP energy -133972.348720 kJ/mol
# GULP energy per Si atom -5582.181197 kJ/mol
# Density = 2.580938 g / cm^3
# Si number density = 25.868256 Si / 1000 Ang^3
#
#
#
# Elastic Constant Matrix: (Units=GPa)
#
#
# Indices 1 2 3 4 5 6 
#
# 1 247.9578 25.3727 39.9432 0.0000 0.0000 0.0000
# 2 25.3727 178.0568 32.1387 0.0000 0.0000 0.0000
# 3 39.9432 32.1387 59.9136 0.0000 0.0000 0.0000
# 4 0.0000 0.0000 0.0000 33.6076 0.0000 0.0000
# 5 0.0000 0.0000 0.0000 0.0000 41.5693 0.0000
# 6 0.0000 0.0000 0.0000 0.0000 0.0000 41.8903
#
#
#
# Elastic Compliance Matrix: (Units=1/GPa)
#
#
# Indices 1 2 3 4 5 6 
#
# 1 0.004520 -0.000111 -0.002954 0.000000 0.000000 0.000000
# 2 -0.000111 0.006221 -0.003263 0.000000 0.000000 0.000000
# 3 -0.002954 -0.003263 0.020410 0.000000 0.000000 0.000000
# 4 0.000000 0.000000 0.000000 0.029755 0.000000 0.000000
# 5 0.000000 0.000000 0.000000 0.000000 0.024056 0.000000
# 6 0.000000 0.000000 0.000000 0.000000 0.000000 0.023872
#
#
# Mechanical properties :
#
#
# Convention : Reuss Voigt Hill
#
# Bulk Modulus (GPa) = 54.06705 75.64862 64.85784
# Shear Modulus (GPa) = 39.16774 49.31167 44.23971
#
# Velocity S-wave (km/s) = 3.89540 4.37081 4.13993
# Velocity P-wave (km/s) = 6.41704 7.40130 6.92668
#
# Compressibility (1/GPa) = 0.01849555
#
# Stress axis : x y z
#
# Youngs Moduli (GPa) = 221.23164 160.74668 48.99455
#
# Poissons Ratio (x) = 0.01783 0.14473
# Poissons Ratio (y) = 0.02454 0.15987
# Poissons Ratio (z) = 0.65352 0.52453
#
# Static dielectric constant tensor:
#      x y z
#    x 2.053490 0.000000 0.000000 
#    y 0.000000 2.154410 0.000000 
#    z 0.000000 0.000000 2.070260 
# 
# From -- ./inp_files/9334.got.cif
#   From: 2010.05.17/outbox.cif.g08.bks.cpg/sg70_5_cif.got.tgz:9334.got - 2010.06.03 15:57:51.
