data_PCOD9514437
_publ_section_title
;
Structure prediction by ZEFSAII (Michael W. Deem and Ramdas Pophale) SiO2 
 PCOD9514437
Probable space group: F D D D
;
_chemical_formula_sum "Si O2"
_cell_formula_units_Z 176
_cell_length_a 28.332484
_cell_length_b 9.940241
_cell_length_c 29.131810
_cell_angle_alpha 90.000000
_cell_angle_beta 90.000000
_cell_angle_gamma 90.000000
_cell_volume 8204.441730
_symmetry_space_group_name_H-M "F D D D"
_symmetry_group_IT_number 70
_space_group.IT_coordinate_system_code '2'
_symmetry_cell_setting 'orthorhombic'
loop_
_space_group_symop_operation_xyz
x,y,z
1/4-x,1/4-y,z
x,1/4-y,1/4-z
1/4-x,y,1/4-z
-x,-y,-z
3/4+x,3/4+y,-z
-x,3/4+y,3/4+z
3/4+x,-y,3/4+z
x,1/2+y,1/2+z
1/4-x,3/4-y,1/2+z
x,3/4-y,3/4-z
1/4-x,1/2+y,3/4-z
-x,1/2-y,1/2-z
3/4+x,1/4+y,1/2-z
-x,1/4+y,1/4+z
3/4+x,1/2-y,1/4+z
1/2+x,y,1/2+z
3/4-x,1/4-y,1/2+z
1/2+x,1/4-y,3/4-z
3/4-x,y,3/4-z
1/2-x,-y,1/2-z
1/4+x,3/4+y,1/2-z
1/2-x,3/4+y,1/4+z
1/4+x,-y,1/4+z
1/2+x,1/2+y,z
3/4-x,3/4-y,z
1/2+x,3/4-y,1/4-z
3/4-x,1/2+y,1/4-z
1/2-x,1/2-y,-z
1/4+x,1/4+y,-z
1/2-x,1/4+y,3/4+z
1/4+x,1/2-y,3/4+z
loop_
_atom_site_type_symbol
_atom_site_label
_atom_site_fract_x
_atom_site_fract_y
_atom_site_fract_z
Si Si1 0.294450 0.875000 0.375000
Si Si2 0.831519 0.088350 0.402725
Si Si3 0.227577 0.004846 0.449133
Si Si4 0.523419 0.224159 0.377750
Si Si5 0.945920 0.804522 0.022131
Si Si6 0.098089 0.412070 0.495482
O O1 0.324196 0.744333 0.387622
O O2 0.260385 0.913355 0.416730
O O3 0.875000 0.031127 0.375000
O O4 0.782159 0.022801 0.389465
O O5 0.843959 0.088576 0.455957
O O6 0.258480 0.008258 0.496299
O O7 0.178287 0.932543 0.459259
O O8 0.220603 0.139725 0.419015
O O9 0.541988 0.375000 0.375000
O O10 0.545750 0.164369 0.424202
O O11 0.901331 0.705800 0.015720
O O12 0.931418 0.948417 0.000906
#
# Coordination Sequence:
#
# PCOD9514437 Si02
#       6
#    16  32  32  32  32  32
#     4  10  19  32  64 100 136 162 210 282 349 416
#     4  11  21  36  66 103 130 167 223 280 349 411
#     4  11  21  41  68  96 133 183 222 281 357 410
#     4  11  26  46  63  90 137 184 230 290 337 417
#     4  11  23  41  65 102 138 175 222 286 352 424
#     4  11  21  39  67 101 138 170 225 285 347 427
#
# _framework density 21.451794
#
# number of rings (size 3 to 8) (size 9 to 14) (size 15 to 20)
#    0.000    1.091    3.636    5.182    2.545    1.091 
#    8.182    0.000    0.000    0.000    0.000    0.000 
#    0.000    0.000    0.000    0.000    0.000    0.000 
#
# Total GULP energy -245886.294430 kJ/mol
# GULP energy per Si atom -5588.324873 kJ/mol
# Density = 2.140297 g / cm^3
# Si number density = 21.451794 Si / 1000 Ang^3
#
#
#
# Elastic Constant Matrix: (Units=GPa)
#
#
# Indices 1 2 3 4 5 6 
#
# 1 57.0330 25.0092 18.9530 0.0000 0.0000 0.0000
# 2 25.0092 80.5940 30.3997 0.0000 0.0000 0.0000
# 3 18.9530 30.3997 82.6360 0.0000 0.0000 0.0000
# 4 0.0000 0.0000 0.0000 -1.9655 0.0000 0.0000
# 5 0.0000 0.0000 0.0000 0.0000 12.5210 0.0000
# 6 0.0000 0.0000 0.0000 0.0000 0.0000 -5.3303
#
#
#
# Elastic Compliance Matrix: (Units=1/GPa)
#
#
# Indices 1 2 3 4 5 6 
#
# 1 0.020834 -0.005414 -0.002787 0.000000 0.000000 0.000000
# 2 -0.005414 0.015814 -0.004576 0.000000 0.000000 0.000000
# 3 -0.002787 -0.004576 0.014424 0.000000 0.000000 0.000000
# 4 0.000000 0.000000 0.000000 -0.508773 0.000000 0.000000
# 5 0.000000 0.000000 0.000000 0.000000 0.079866 0.000000
# 6 0.000000 0.000000 0.000000 0.000000 0.000000 -0.187605
#
#
# Mechanical properties :
#
#
# Convention : Reuss Voigt Hill
#
# Bulk Modulus (GPa) = 39.18708 40.99853 40.09280
# Shear Modulus (GPa) = -9.40941 10.77177 0.68118
#
# Velocity S-wave (km/s) = -2.09662 2.24328 0.56412
# Velocity P-wave (km/s) = 3.52790 5.08558 4.37660
#
# Compressibility (1/GPa) = 0.02551861
#
# Stress axis : x y z
#
# Youngs Moduli (GPa) = 47.99903 63.23592 69.33017
#
# Poissons Ratio (x) = 0.34235 0.19321
# Poissons Ratio (y) = 0.25986 0.31724
# Poissons Ratio (z) = 0.13376 0.28936
#
# Static dielectric constant tensor:
#      x y z
#    x 1.768110 0.000000 0.000000 
#    y 0.000000 1.751510 0.000000 
#    z 0.000000 0.000000 1.906440 
# 
# From -- ./inp_files/21187.got.cif
#   From: 2010.05.17/outbox.cif.g08.bks.cpg/sg70_11_cif.got.tgz:21187.got - 2010.06.03 15:57:51.
