data_PCOD9514829
_publ_section_title
;
Structure prediction by ZEFSAII (Michael W. Deem and Ramdas Pophale) SiO2 
 PCOD9514829
Probable space group: F D D D
;
_chemical_formula_sum "Si O2"
_cell_formula_units_Z 216
_cell_length_a 14.648659
_cell_length_b 24.335309
_cell_length_c 29.816616
_cell_angle_alpha 90.000000
_cell_angle_beta 90.000000
_cell_angle_gamma 90.000000
_cell_volume 10629.016633
_symmetry_space_group_name_H-M "F D D D"
_symmetry_group_IT_number 70
_space_group.IT_coordinate_system_code '2'
_symmetry_cell_setting 'orthorhombic'
loop_
_space_group_symop_operation_xyz
x,y,z
1/4-x,1/4-y,z
x,1/4-y,1/4-z
1/4-x,y,1/4-z
-x,-y,-z
3/4+x,3/4+y,-z
-x,3/4+y,3/4+z
3/4+x,-y,3/4+z
x,1/2+y,1/2+z
1/4-x,3/4-y,1/2+z
x,3/4-y,3/4-z
1/4-x,1/2+y,3/4-z
-x,1/2-y,1/2-z
3/4+x,1/4+y,1/2-z
-x,1/4+y,1/4+z
3/4+x,1/2-y,1/4+z
1/2+x,y,1/2+z
3/4-x,1/4-y,1/2+z
1/2+x,1/4-y,3/4-z
3/4-x,y,3/4-z
1/2-x,-y,1/2-z
1/4+x,3/4+y,1/2-z
1/2-x,3/4+y,1/4+z
1/4+x,-y,1/4+z
1/2+x,1/2+y,z
3/4-x,3/4-y,z
1/2+x,3/4-y,1/4-z
3/4-x,1/2+y,1/4-z
1/2-x,1/2-y,-z
1/4+x,1/4+y,-z
1/2-x,1/4+y,3/4+z
1/4+x,1/2-y,3/4+z
loop_
_atom_site_type_symbol
_atom_site_label
_atom_site_fract_x
_atom_site_fract_y
_atom_site_fract_z
Si Si1 0.479521 0.046590 0.168418
Si Si2 0.063557 0.534986 0.422347
Si Si3 0.057909 0.922125 0.432023
Si Si4 0.791614 0.756567 0.179816
Si Si5 0.901972 0.960827 0.947931
Si Si6 0.125000 0.625000 0.475351
Si Si7 0.625000 0.125000 0.625000
Si Si8 0.362103 0.309583 0.484698
O O1 0.487147 0.057829 0.115076
O O2 0.441094 0.106084 0.184977
O O3 0.573490 0.036996 0.194684
O O4 0.410492 0.996690 0.178037
O O5 0.050619 0.533061 0.368989
O O6 0.055253 0.596873 0.440760
O O7 0.989949 0.498673 0.448711
O O8 0.994151 0.946674 0.471288
O O9 0.158949 0.946971 0.430125
O O10 0.684883 0.748255 0.187166
O O11 0.846142 0.788013 0.218851
O O12 0.924889 0.916667 0.908621
O O13 0.868602 0.925848 0.990499
O O14 0.375000 0.375000 0.484113
#
# Coordination Sequence:
#
# PCOD9514829 Si02
#       8
#    32  32  32  32  32  16   8  32
#     4   9  19  35  61  87 118 155 210 261 323 359
#     4  11  23  42  62  93 127 162 206 268 316 382
#     4   9  19  34  60  88 117 158 208 266 304 374
#     4  11  22  37  63  88 126 166 209 252 322 382
#     4  11  23  41  65  93 125 168 210 266 312 383
#     4  11  26  39  64  88 128 162 209 252 317 374
#     4  10  20  36  64  96 120 154 216 260 314 366
#     4  10  20  36  55  86 121 162 202 256 312 382
#
# _framework density 20.321729000000001
#
# number of rings (size 3 to 8) (size 9 to 14) (size 15 to 20)
#    0.000    1.778    1.481    2.222    5.185    1.778 
#    2.667    0.000    0.000    1.778    0.000    0.000 
#    0.000    0.000    0.000    0.000    0.000    0.000 
#
# Total GULP energy -300764.783523 kJ/mol
# GULP energy per Si atom -5569.718213 kJ/mol
# Density = 2.027548 g / cm^3
# Si number density = 20.321729 Si / 1000 Ang^3
#
#
#
# Elastic Constant Matrix: (Units=GPa)
#
#
# Indices 1 2 3 4 5 6 
#
# 1 54.8180 15.6904 11.3222 0.0000 0.0000 0.0000
# 2 15.6904 45.8487 24.2710 0.0000 0.0000 0.0000
# 3 11.3222 24.2710 84.0064 0.0000 0.0000 0.0000
# 4 0.0000 0.0000 0.0000 12.4175 0.0000 0.0000
# 5 0.0000 0.0000 0.0000 0.0000 -5.1964 0.0000
# 6 0.0000 0.0000 0.0000 0.0000 0.0000 13.8022
#
#
#
# Elastic Compliance Matrix: (Units=1/GPa)
#
#
# Indices 1 2 3 4 5 6 
#
# 1 0.020276 -0.006484 -0.000859 0.000000 0.000000 0.000000
# 2 -0.006484 0.027823 -0.007165 0.000000 0.000000 0.000000
# 3 -0.000859 -0.007165 0.014090 0.000000 0.000000 0.000000
# 4 0.000000 0.000000 0.000000 0.080531 0.000000 0.000000
# 5 0.000000 0.000000 0.000000 0.000000 -0.192443 0.000000
# 6 0.000000 0.000000 0.000000 0.000000 0.000000 0.072452
#
#
# Mechanical properties :
#
#
# Convention : Reuss Voigt Hill
#
# Bulk Modulus (GPa) = 30.14574 31.91558 31.03066
# Shear Modulus (GPa) = 79.61567 13.09730 46.35648
#
# Velocity S-wave (km/s) = 6.26599 2.54145 4.78130
# Velocity P-wave (km/s) = 8.19858 4.93469 6.76638
#
# Compressibility (1/GPa) = 0.03317218
#
# Stress axis : x y z
#
# Youngs Moduli (GPa) = 49.32052 35.94211 70.97409
#
# Poissons Ratio (x) = 0.23304 0.06099
# Poissons Ratio (y) = 0.31978 0.50850
# Poissons Ratio (z) = 0.04239 0.25751
#
# Static dielectric constant tensor:
#      x y z
#    x 1.717590 0.000000 0.000000 
#    y 0.000000 1.730840 0.000000 
#    z 0.000000 0.000000 1.789550 
# 
# From -- ./inp_files/65956.got.cif
#   From: 2010.05.17/outbox.cif.g08.bks.cpg/sg70_33_cif.got.tgz:65956.got - 2010.06.03 15:57:51.
