data_PCOD9514145
_publ_section_title
;
Structure prediction by ZEFSAII (Michael W. Deem and Ramdas Pophale) SiO2 
 PCOD9514145
Probable space group: F D D D
;
_chemical_formula_sum "Si O2"
_cell_formula_units_Z 160
_cell_length_a 20.299441
_cell_length_b 14.146238
_cell_length_c 27.126370
_cell_angle_alpha 90.000000
_cell_angle_beta 90.000000
_cell_angle_gamma 90.000000
_cell_volume 7789.628039
_symmetry_space_group_name_H-M "F D D D"
_symmetry_group_IT_number 70
_space_group.IT_coordinate_system_code '2'
_symmetry_cell_setting 'orthorhombic'
loop_
_space_group_symop_operation_xyz
x,y,z
1/4-x,1/4-y,z
x,1/4-y,1/4-z
1/4-x,y,1/4-z
-x,-y,-z
3/4+x,3/4+y,-z
-x,3/4+y,3/4+z
3/4+x,-y,3/4+z
x,1/2+y,1/2+z
1/4-x,3/4-y,1/2+z
x,3/4-y,3/4-z
1/4-x,1/2+y,3/4-z
-x,1/2-y,1/2-z
3/4+x,1/4+y,1/2-z
-x,1/4+y,1/4+z
3/4+x,1/2-y,1/4+z
1/2+x,y,1/2+z
3/4-x,1/4-y,1/2+z
1/2+x,1/4-y,3/4-z
3/4-x,y,3/4-z
1/2-x,-y,1/2-z
1/4+x,3/4+y,1/2-z
1/2-x,3/4+y,1/4+z
1/4+x,-y,1/4+z
1/2+x,1/2+y,z
3/4-x,3/4-y,z
1/2+x,3/4-y,1/4-z
3/4-x,1/2+y,1/4-z
1/2-x,1/2-y,-z
1/4+x,1/4+y,-z
1/2-x,1/4+y,3/4+z
1/4+x,1/2-y,3/4+z
loop_
_atom_site_type_symbol
_atom_site_label
_atom_site_fract_x
_atom_site_fract_y
_atom_site_fract_z
Si Si1 0.258527 0.125000 0.625000
Si Si2 0.241391 0.862925 0.505699
Si Si3 0.125000 0.125000 0.044976
Si Si4 0.862302 0.086075 0.676664
Si Si5 0.625000 0.125000 0.855046
Si Si6 0.016500 0.418810 0.130010
Si Si7 0.375000 0.528077 0.875000
O O1 0.310717 0.112664 0.579572
O O2 0.219356 0.221737 0.620419
O O3 0.250000 0.750000 0.500000
O O4 0.310133 0.904212 0.485005
O O5 0.178125 0.880642 0.471078
O O6 0.231187 0.897639 0.561203
O O7 0.146460 0.210235 0.080760
O O8 0.832097 0.125000 0.625000
O O9 0.859415 0.971635 0.674680
O O10 0.690861 0.149198 0.884838
O O11 0.066757 0.345544 0.106957
#
# Coordination Sequence:
#
# PCOD9514145 Si02
#       7
#    16  32  16  32  16  32  16
#     4   8  22  39  64  77 116 170 226 232 290 375
#     4  12  22  34  60  92 126 152 198 250 317 368
#     4  11  25  34  55  96 128 154 186 256 322 383
#     4   9  20  34  58  87 116 155 202 246 294 364
#     4  10  17  34  61  78 119 154 204 227 298 365
#     4  11  22  39  61  88 116 169 199 257 302 373
#     4  11  24  37  58  90 132 155 194 257 328 356
#
# _framework density 20.540133000000001
#
# number of rings (size 3 to 8) (size 9 to 14) (size 15 to 20)
#    0.600    1.000    4.000    0.600    8.400    0.400 
#    0.000    0.000    0.000    9.600    0.000    0.000 
#    0.000    0.000    0.000    0.000    0.000    0.000 
#
# Total GULP energy -223098.050573 kJ/mol
# GULP energy per Si atom -5577.451264 kJ/mol
# Density = 2.049338 g / cm^3
# Si number density = 20.540133 Si / 1000 Ang^3
#
#
#
# Elastic Constant Matrix: (Units=GPa)
#
#
# Indices 1 2 3 4 5 6 
#
# 1 53.0394 16.2927 -7.5837 0.0000 0.0000 0.0000
# 2 16.2927 130.7203 16.2280 0.0000 0.0000 0.0000
# 3 -7.5837 16.2280 41.7509 0.0000 0.0000 0.0000
# 4 0.0000 0.0000 0.0000 11.6914 0.0000 0.0000
# 5 0.0000 0.0000 0.0000 0.0000 2.1549 0.0000
# 6 0.0000 0.0000 0.0000 0.0000 0.0000 34.7121
#
#
#
# Elastic Compliance Matrix: (Units=1/GPa)
#
#
# Indices 1 2 3 4 5 6 
#
# 1 0.020540 -0.003176 0.004966 0.000000 0.000000 0.000000
# 2 -0.003176 0.008529 -0.003892 0.000000 0.000000 0.000000
# 3 0.004966 -0.003892 0.026366 0.000000 0.000000 0.000000
# 4 0.000000 0.000000 0.000000 0.085533 0.000000 0.000000
# 5 0.000000 0.000000 0.000000 0.000000 0.464059 0.000000
# 6 0.000000 0.000000 0.000000 0.000000 0.000000 0.028808
#
#
# Mechanical properties :
#
#
# Convention : Reuss Voigt Hill
#
# Bulk Modulus (GPa) = 19.52023 30.59829 25.05926
# Shear Modulus (GPa) = 7.63222 23.08327 15.35774
#
# Velocity S-wave (km/s) = 1.92972 3.35597 2.73737
# Velocity P-wave (km/s) = 3.80647 5.47228 4.71355
#
# Compressibility (1/GPa) = 0.05122889
#
# Stress axis : x y z
#
# Youngs Moduli (GPa) = 48.68640 117.24710 37.92719
#
# Poissons Ratio (x) = 0.37243 -0.18833
# Poissons Ratio (y) = 0.15465 0.14762
# Poissons Ratio (z) = -0.24175 0.45633
#
# Static dielectric constant tensor:
#      x y z
#    x 1.800460 0.000000 0.000000 
#    y 0.000000 1.757310 0.000000 
#    z 0.000000 0.000000 1.753130 
# 
# From -- ./inp_files/61083.got.cif
#   From: 2010.05.17/outbox.cif.g08.bks.cpg/sg70_31_cif.got.tgz:61083.got - 2010.06.03 15:57:51.
