data_PCOD9514637
_publ_section_title
;
Structure prediction by ZEFSAII (Michael W. Deem and Ramdas Pophale) SiO2 
 PCOD9514637
Probable space group: F D D D
;
_chemical_formula_sum "Si O2"
_cell_formula_units_Z 208
_cell_length_a 28.524092
_cell_length_b 21.809631
_cell_length_c 15.919213
_cell_angle_alpha 90.000000
_cell_angle_beta 90.000000
_cell_angle_gamma 90.000000
_cell_volume 9903.341152
_symmetry_space_group_name_H-M "F D D D"
_symmetry_group_IT_number 70
_space_group.IT_coordinate_system_code '2'
_symmetry_cell_setting 'orthorhombic'
loop_
_space_group_symop_operation_xyz
x,y,z
1/4-x,1/4-y,z
x,1/4-y,1/4-z
1/4-x,y,1/4-z
-x,-y,-z
3/4+x,3/4+y,-z
-x,3/4+y,3/4+z
3/4+x,-y,3/4+z
x,1/2+y,1/2+z
1/4-x,3/4-y,1/2+z
x,3/4-y,3/4-z
1/4-x,1/2+y,3/4-z
-x,1/2-y,1/2-z
3/4+x,1/4+y,1/2-z
-x,1/4+y,1/4+z
3/4+x,1/2-y,1/4+z
1/2+x,y,1/2+z
3/4-x,1/4-y,1/2+z
1/2+x,1/4-y,3/4-z
3/4-x,y,3/4-z
1/2-x,-y,1/2-z
1/4+x,3/4+y,1/2-z
1/2-x,3/4+y,1/4+z
1/4+x,-y,1/4+z
1/2+x,1/2+y,z
3/4-x,3/4-y,z
1/2+x,3/4-y,1/4-z
3/4-x,1/2+y,1/4-z
1/2-x,1/2-y,-z
1/4+x,1/4+y,-z
1/2-x,1/4+y,3/4+z
1/4+x,1/2-y,3/4+z
loop_
_atom_site_type_symbol
_atom_site_label
_atom_site_fract_x
_atom_site_fract_y
_atom_site_fract_z
Si Si1 0.612001 0.954873 0.435116
Si Si2 0.230890 0.431051 0.736736
Si Si3 0.755168 0.875000 0.375000
Si Si4 0.327228 0.604981 0.923484
Si Si5 0.683945 0.461137 0.795591
Si Si6 0.829258 0.405056 0.209897
Si Si7 0.676451 0.105500 0.270577
O O1 0.564365 0.918381 0.455936
O O2 0.653008 0.938714 0.502174
O O3 0.634988 0.947664 0.343855
O O4 0.595065 0.024551 0.448603
O O5 0.250000 0.500000 0.750000
O O6 0.210296 0.422229 0.642022
O O7 0.278906 0.394242 0.752196
O O8 0.723600 0.815166 0.392306
O O9 0.786462 0.865673 0.292768
O O10 0.375000 0.619664 0.875000
O O11 0.310117 0.667584 0.965523
O O12 0.684689 0.532365 0.773795
O O13 0.875000 0.375000 0.250711
O O14 0.821925 0.378829 0.116017
O O15 0.625000 0.125000 0.239469
#
# Coordination Sequence:
#
# PCOD9514637 Si02
#       7
#    32  32  16  32  32  32  32
#     4  10  19  39  64  92 127 173 215 281 337 399
#     4   9  20  37  67  95 123 168 223 270 337 403
#     4  12  25  38  64  90 138 174 223 268 336 402
#     4  10  21  38  66  94 129 171 220 278 335 396
#     4  12  22  41  66  96 134 177 223 276 342 403
#     4  10  19  38  65  89 128 170 212 275 339 397
#     4  11  24  43  64  95 134 180 225 271 332 410
#
# _framework density 21.003011999999998
#
# number of rings (size 3 to 8) (size 9 to 14) (size 15 to 20)
#    0.000    1.538    4.615    1.615    0.000    1.231 
#    0.000    1.538   23.692   10.615    0.000    0.000 
#    0.000    0.000    0.000    0.000    0.000    0.000 
#
# Total GULP energy -290000.798427 kJ/mol
# GULP energy per Si atom -5576.938431 kJ/mol
# Density = 2.095521 g / cm^3
# Si number density = 21.003012 Si / 1000 Ang^3
#
#
#
# Elastic Constant Matrix: (Units=GPa)
#
#
# Indices 1 2 3 4 5 6 
#
# 1 138.7946 28.2485 18.7017 0.0000 0.0000 0.0000
# 2 28.2485 112.6749 34.9747 0.0000 0.0000 0.0000
# 3 18.7017 34.9747 54.2004 0.0000 0.0000 0.0000
# 4 0.0000 0.0000 0.0000 13.5147 0.0000 0.0000
# 5 0.0000 0.0000 0.0000 0.0000 98.6901 0.0000
# 6 0.0000 0.0000 0.0000 0.0000 0.0000 19.8350
#
#
#
# Elastic Compliance Matrix: (Units=1/GPa)
#
#
# Indices 1 2 3 4 5 6 
#
# 1 0.007726 -0.001387 -0.001771 0.000000 0.000000 0.000000
# 2 -0.001387 0.011347 -0.006843 0.000000 0.000000 0.000000
# 3 -0.001771 -0.006843 0.023477 0.000000 0.000000 0.000000
# 4 0.000000 0.000000 0.000000 0.073994 0.000000 0.000000
# 5 0.000000 0.000000 0.000000 0.000000 0.010133 0.000000
# 6 0.000000 0.000000 0.000000 0.000000 0.000000 0.050416
#
#
# Mechanical properties :
#
#
# Convention : Reuss Voigt Hill
#
# Bulk Modulus (GPa) = 44.35129 52.16885 48.26007
# Shear Modulus (GPa) = 24.43666 41.32430 32.88048
#
# Velocity S-wave (km/s) = 3.41469 4.44051 3.96095
# Velocity P-wave (km/s) = 6.05882 7.15427 6.62921
#
# Compressibility (1/GPa) = 0.02254726
#
# Stress axis : x y z
#
# Youngs Moduli (GPa) = 129.43608 88.12789 42.59497
#
# Poissons Ratio (x) = 0.12226 0.07542
# Poissons Ratio (y) = 0.17957 0.29150
# Poissons Ratio (z) = 0.22917 0.60310
#
# Static dielectric constant tensor:
#      x y z
#    x 1.820750 0.000000 0.000000 
#    y 0.000000 1.767380 0.000000 
#    z 0.000000 0.000000 1.767720 
# 
# From -- ./inp_files/38734.got.cif
#   From: 2010.05.17/outbox.cif.g08.bks.cpg/sg70_20_cif.got.tgz:38734.got - 2010.06.03 15:57:51.
