data_PCOD9514051
_publ_section_title
;
Structure prediction by ZEFSAII (Michael W. Deem and Ramdas Pophale) SiO2 
 PCOD9514051
Probable space group: F D D D
;
_chemical_formula_sum "Si O2"
_cell_formula_units_Z 80
_cell_length_a 44.812744
_cell_length_b 14.396906
_cell_length_c 5.079518
_cell_angle_alpha 90.000000
_cell_angle_beta 90.000000
_cell_angle_gamma 90.000000
_cell_volume 3277.126534
_symmetry_space_group_name_H-M "F D D D"
_symmetry_group_IT_number 70
_space_group.IT_coordinate_system_code '2'
_symmetry_cell_setting 'orthorhombic'
loop_
_space_group_symop_operation_xyz
x,y,z
1/4-x,1/4-y,z
x,1/4-y,1/4-z
1/4-x,y,1/4-z
-x,-y,-z
3/4+x,3/4+y,-z
-x,3/4+y,3/4+z
3/4+x,-y,3/4+z
x,1/2+y,1/2+z
1/4-x,3/4-y,1/2+z
x,3/4-y,3/4-z
1/4-x,1/2+y,3/4-z
-x,1/2-y,1/2-z
3/4+x,1/4+y,1/2-z
-x,1/4+y,1/4+z
3/4+x,1/2-y,1/4+z
1/2+x,y,1/2+z
3/4-x,1/4-y,1/2+z
1/2+x,1/4-y,3/4-z
3/4-x,y,3/4-z
1/2-x,-y,1/2-z
1/4+x,3/4+y,1/2-z
1/2-x,3/4+y,1/4+z
1/4+x,-y,1/4+z
1/2+x,1/2+y,z
3/4-x,3/4-y,z
1/2+x,3/4-y,1/4-z
3/4-x,1/2+y,1/4-z
1/2-x,1/2-y,-z
1/4+x,1/4+y,-z
1/2-x,1/4+y,3/4+z
1/4+x,1/2-y,3/4+z
loop_
_atom_site_type_symbol
_atom_site_label
_atom_site_fract_x
_atom_site_fract_y
_atom_site_fract_z
Si Si1 0.967069 0.735480 0.139803
Si Si2 0.125000 0.941650 0.125000
Si Si3 0.934880 0.012035 0.108361
O O1 0.963203 0.625000 0.125000
O O2 0.943112 0.771396 0.352069
O O3 0.000000 0.750000 0.250000
O O4 0.959844 0.770321 0.848485
O O5 0.116078 0.875000 0.375000
O O6 0.152441 0.002115 0.233132
O O7 0.936118 0.125000 0.125000
#
# Coordination Sequence:
#
# PCOD9514051 Si02
#       3
#    32  16  32
#     4  10  19  31  46  67  93 122 155 191 230 279
#     4  10  16  26  44  68  95 120 145 188 244 286
#     4   9  17  28  44  67  93 118 149 189 235 282
#
# _framework density 24.411629999999999
#
# number of rings (size 3 to 8) (size 9 to 14) (size 15 to 20)
#    0.000    2.400    0.000    7.200    0.000    0.000 
#    0.000    0.000    0.000    0.000    0.000    8.400 
#    0.000    0.000    0.000    0.000    0.000    0.000 
#
# Total GULP energy -111734.707517 kJ/mol
# GULP energy per Si atom -5586.735376 kJ/mol
# Density = 2.435607 g / cm^3
# Si number density = 24.411630 Si / 1000 Ang^3
#
#
#
# Elastic Constant Matrix: (Units=GPa)
#
#
# Indices 1 2 3 4 5 6 
#
# 1 140.3415 -10.2103 38.7747 0.0001 0.0000 0.0002
# 2 -10.2103 79.5901 -11.5315 -0.0001 0.0001 0.0000
# 3 38.7747 -11.5315 131.5799 0.0001 0.0001 0.0004
# 4 0.0001 -0.0001 0.0001 -9.0110 0.0003 0.0000
# 5 0.0000 0.0001 0.0001 0.0003 41.2765 0.0000
# 6 0.0002 0.0000 0.0004 0.0000 0.0000 8.0969
#
#
#
# Elastic Compliance Matrix: (Units=1/GPa)
#
#
# Indices 1 2 3 4 5 6 
#
# 1 0.007793 0.000676 -0.002237 0.000000 0.000000 0.000000
# 2 0.000676 0.012785 0.000921 0.000000 0.000000 0.000000
# 3 -0.002237 0.000921 0.008340 0.000000 0.000000 0.000000
# 4 0.000000 0.000000 0.000000 -0.110975 0.000001 0.000000
# 5 0.000000 0.000000 0.000000 0.000001 0.024227 0.000000
# 6 0.000000 0.000000 0.000000 0.000000 0.000000 0.123504
#
#
# Mechanical properties :
#
#
# Convention : Reuss Voigt Hill
#
# Bulk Modulus (GPa) = 36.18385 42.84192 39.51289
# Shear Modulus (GPa) = 65.64638 30.37106 48.00872
#
# Velocity S-wave (km/s) = 5.19132 3.53104 4.43948
# Velocity P-wave (km/s) = 7.12655 5.84912 6.51920
#
# Compressibility (1/GPa) = 0.02763664
#
# Stress axis : x y z
#
# Youngs Moduli (GPa) = 128.32460 78.21948 119.90463
#
# Poissons Ratio (x) = -0.05284 0.26825
# Poissons Ratio (y) = -0.08669 -0.11047
# Poissons Ratio (z) = 0.28709 -0.07207
#
# Static dielectric constant tensor:
#      x y z
#    x 1.992170 0.000000 0.000000 
#    y 0.000000 1.960810 0.000000 
#    z 0.000000 0.000000 1.937520 
# 
# From -- ./inp_files/3279.got.cif
#   From: 2010.05.17/outbox.cif.g08.bks.cpg/sg70_2_cif.got.tgz:3279.got - 2010.06.03 15:57:51.
