data_PCOD9514590
_publ_section_title
;
Structure prediction by ZEFSAII (Michael W. Deem and Ramdas Pophale) SiO2 
 PCOD9514590
Probable space group: F D D D
;
_chemical_formula_sum "Si O2"
_cell_formula_units_Z 192
_cell_length_a 33.517743
_cell_length_b 10.061273
_cell_length_c 29.995511
_cell_angle_alpha 90.000000
_cell_angle_beta 90.000000
_cell_angle_gamma 90.000000
_cell_volume 10115.421049
_symmetry_space_group_name_H-M "F D D D"
_symmetry_group_IT_number 70
_space_group.IT_coordinate_system_code '2'
_symmetry_cell_setting 'orthorhombic'
loop_
_space_group_symop_operation_xyz
x,y,z
1/4-x,1/4-y,z
x,1/4-y,1/4-z
1/4-x,y,1/4-z
-x,-y,-z
3/4+x,3/4+y,-z
-x,3/4+y,3/4+z
3/4+x,-y,3/4+z
x,1/2+y,1/2+z
1/4-x,3/4-y,1/2+z
x,3/4-y,3/4-z
1/4-x,1/2+y,3/4-z
-x,1/2-y,1/2-z
3/4+x,1/4+y,1/2-z
-x,1/4+y,1/4+z
3/4+x,1/2-y,1/4+z
1/2+x,y,1/2+z
3/4-x,1/4-y,1/2+z
1/2+x,1/4-y,3/4-z
3/4-x,y,3/4-z
1/2-x,-y,1/2-z
1/4+x,3/4+y,1/2-z
1/2-x,3/4+y,1/4+z
1/4+x,-y,1/4+z
1/2+x,1/2+y,z
3/4-x,3/4-y,z
1/2+x,3/4-y,1/4-z
3/4-x,1/2+y,1/4-z
1/2-x,1/2-y,-z
1/4+x,1/4+y,-z
1/2-x,1/4+y,3/4+z
1/4+x,1/2-y,3/4+z
loop_
_atom_site_type_symbol
_atom_site_label
_atom_site_fract_x
_atom_site_fract_y
_atom_site_fract_z
Si Si1 0.419782 0.626846 0.872426
Si Si2 0.761038 0.520055 0.536580
Si Si3 0.038612 0.875000 0.875000
Si Si4 0.023599 0.740816 0.558667
Si Si5 0.979180 0.875000 0.375000
Si Si6 0.803872 0.710580 0.964587
Si Si7 0.918199 0.936760 0.054750
O O1 0.375000 0.678855 0.875000
O O2 0.435280 0.536082 0.831767
O O3 0.451191 0.746423 0.872511
O O4 0.423402 0.545351 0.918090
O O5 0.765842 0.575035 0.486204
O O6 0.753569 0.614775 0.578836
O O7 0.722984 0.420840 0.533144
O O8 0.799664 0.431599 0.548830
O O9 0.065322 0.786807 0.842091
O O10 0.010092 0.773985 0.903218
O O11 0.026200 0.590003 0.540379
O O12 0.830759 0.733833 0.007758
O O13 0.875000 0.875000 0.063815
#
# Coordination Sequence:
#
# PCOD9514590 Si02
#       7
#    32  32  16  32  16  32  32
#     4  11  23  35  59  90 120 152 193 253 304 350
#     4  10  20  40  63  85 117 162 201 240 291 363
#     4  12  18  39  59  82 123 152 201 234 295 373
#     4  11  19  35  64  94 111 150 197 248 298 356
#     4  10  23  43  58  74 121 174 207 228 278 365
#     4  10  19  37  59  90 118 149 190 247 308 358
#     4  11  23  35  60  89 121 154 192 254 308 342
#
# _framework density 18.980920000000001
#
# number of rings (size 3 to 8) (size 9 to 14) (size 15 to 20)
#    0.000    1.333    5.000    2.250    4.667    2.000 
#    0.000    0.000    3.667    0.000    0.000    0.000 
#    0.000    0.000    0.000    0.000    0.000    0.000 
#
# Total GULP energy -267635.430843 kJ/mol
# GULP energy per Si atom -5575.738143 kJ/mol
# Density = 1.893772 g / cm^3
# Si number density = 18.980920 Si / 1000 Ang^3
#
#
#
# Elastic Constant Matrix: (Units=GPa)
#
#
# Indices 1 2 3 4 5 6 
#
# 1 79.8023 14.0791 44.2861 0.0000 0.0000 0.0000
# 2 14.0791 35.9241 33.0396 0.0000 0.0000 0.0000
# 3 44.2861 33.0396 169.8811 0.0000 0.0000 0.0000
# 4 0.0000 0.0000 0.0000 26.3101 0.0000 0.0000
# 5 0.0000 0.0000 0.0000 0.0000 18.0962 0.0000
# 6 0.0000 0.0000 0.0000 0.0000 0.0000 15.1874
#
#
#
# Elastic Compliance Matrix: (Units=1/GPa)
#
#
# Indices 1 2 3 4 5 6 
#
# 1 0.014871 -0.002756 -0.003341 0.000000 0.000000 0.000000
# 2 -0.002756 0.034411 -0.005974 0.000000 0.000000 0.000000
# 3 -0.003341 -0.005974 0.007919 0.000000 0.000000 0.000000
# 4 0.000000 0.000000 0.000000 0.038008 0.000000 0.000000
# 5 0.000000 0.000000 0.000000 0.000000 0.055260 0.000000
# 6 0.000000 0.000000 0.000000 0.000000 0.000000 0.065844
#
#
# Mechanical properties :
#
#
# Convention : Reuss Voigt Hill
#
# Bulk Modulus (GPa) = 30.24789 52.04636 41.14712
# Shear Modulus (GPa) = 19.88273 24.86560 22.37417
#
# Velocity S-wave (km/s) = 3.24004 3.62336 3.43705
# Velocity P-wave (km/s) = 5.47427 6.70708 6.12179
#
# Compressibility (1/GPa) = 0.03306016
#
# Stress axis : x y z
#
# Youngs Moduli (GPa) = 67.24454 29.06063 126.27447
#
# Poissons Ratio (x) = 0.08008 0.42186
# Poissons Ratio (y) = 0.18530 0.75437
# Poissons Ratio (z) = 0.22465 0.17361
#
# Static dielectric constant tensor:
#      x y z
#    x 1.671190 0.000000 0.000000 
#    y 0.000000 1.683140 0.000000 
#    z 0.000000 0.000000 1.732480 
# 
# From -- ./inp_files/22654.got.cif
#   From: 2010.05.17/outbox.cif.g08.bks.cpg/sg70_12_cif.got.tgz:22654.got - 2010.06.03 15:57:51.
