data_PCOD9514481
_publ_section_title
;
Structure prediction by ZEFSAII (Michael W. Deem and Ramdas Pophale) SiO2 
 PCOD9514481
Probable space group: F D D D
;
_chemical_formula_sum "Si O2"
_cell_formula_units_Z 96
_cell_length_a 11.462257
_cell_length_b 22.844629
_cell_length_c 14.251755
_cell_angle_alpha 90.000000
_cell_angle_beta 90.000000
_cell_angle_gamma 90.000000
_cell_volume 3731.836422
_symmetry_space_group_name_H-M "F D D D"
_symmetry_group_IT_number 70
_space_group.IT_coordinate_system_code '2'
_symmetry_cell_setting 'orthorhombic'
loop_
_space_group_symop_operation_xyz
x,y,z
1/4-x,1/4-y,z
x,1/4-y,1/4-z
1/4-x,y,1/4-z
-x,-y,-z
3/4+x,3/4+y,-z
-x,3/4+y,3/4+z
3/4+x,-y,3/4+z
x,1/2+y,1/2+z
1/4-x,3/4-y,1/2+z
x,3/4-y,3/4-z
1/4-x,1/2+y,3/4-z
-x,1/2-y,1/2-z
3/4+x,1/4+y,1/2-z
-x,1/4+y,1/4+z
3/4+x,1/2-y,1/4+z
1/2+x,y,1/2+z
3/4-x,1/4-y,1/2+z
1/2+x,1/4-y,3/4-z
3/4-x,y,3/4-z
1/2-x,-y,1/2-z
1/4+x,3/4+y,1/2-z
1/2-x,3/4+y,1/4+z
1/4+x,-y,1/4+z
1/2+x,1/2+y,z
3/4-x,3/4-y,z
1/2+x,3/4-y,1/4-z
3/4-x,1/2+y,1/4-z
1/2-x,1/2-y,-z
1/4+x,1/4+y,-z
1/2-x,1/4+y,3/4+z
1/4+x,1/2-y,3/4+z
loop_
_atom_site_type_symbol
_atom_site_label
_atom_site_fract_x
_atom_site_fract_y
_atom_site_fract_z
Si Si1 0.995627 0.329041 0.587215
Si Si2 0.177905 0.828272 0.458848
Si Si3 0.968059 0.771605 0.565811
O O1 0.125000 0.334567 0.625000
O O2 0.982274 0.390266 0.529248
O O3 0.933970 0.185396 0.476306
O O4 0.903113 0.306312 0.665160
O O5 0.151053 0.875000 0.375000
O O6 0.229000 0.770248 0.408077
O O7 0.232248 0.972608 0.513417
#
# Coordination Sequence:
#
# PCOD9514481 Si02
#       3
#    32  32  32
#     4  10  19  34  58  92 124 162 211 263 318 381
#     4   9  19  37  64  94 124 168 216 261 319 383
#     4   9  19  37  61  90 126 165 212 267 318 382
#
# _framework density 25.724602000000001
#
# number of rings (size 3 to 8) (size 9 to 14) (size 15 to 20)
#    0.000    2.667    0.000    1.000    0.000    1.333 
#    0.000   13.333    0.000   16.000    0.000   23.333 
#    0.000    0.000    0.000    0.000    0.000    0.000 
#
# Total GULP energy -133920.993755 kJ/mol
# GULP energy per Si atom -5580.041406 kJ/mol
# Density = 2.566605 g / cm^3
# Si number density = 25.724602 Si / 1000 Ang^3
#
#
#
# Elastic Constant Matrix: (Units=GPa)
#
#
# Indices 1 2 3 4 5 6 
#
# 1 149.2428 43.9447 61.1540 0.0000 0.0000 0.0000
# 2 43.9447 116.3580 11.9268 0.0000 0.0000 0.0000
# 3 61.1540 11.9268 103.5154 0.0000 0.0000 0.0000
# 4 0.0000 0.0000 0.0000 -27.8760 0.0000 0.0000
# 5 0.0000 0.0000 0.0000 0.0000 51.1975 0.0000
# 6 0.0000 0.0000 0.0000 0.0000 0.0000 -16.4229
#
#
#
# Elastic Compliance Matrix: (Units=1/GPa)
#
#
# Indices 1 2 3 4 5 6 
#
# 1 0.009874 -0.003169 -0.005468 0.000000 0.000000 0.000000
# 2 -0.003169 0.009714 0.000753 0.000000 0.000000 0.000000
# 3 -0.005468 0.000753 0.012804 0.000000 0.000000 0.000000
# 4 0.000000 0.000000 0.000000 -0.035873 0.000000 0.000000
# 5 0.000000 0.000000 0.000000 0.000000 0.019532 0.000000
# 6 0.000000 0.000000 0.000000 0.000000 0.000000 -0.060891
#
#
# Mechanical properties :
#
#
# Convention : Reuss Voigt Hill
#
# Bulk Modulus (GPa) = 60.15516 67.01859 63.58687
# Shear Modulus (GPa) = -212.49644 18.18575 -97.15534
#
# Velocity S-wave (km/s) = -9.09855 2.66172 -6.15219
# Velocity P-wave (km/s) = 9.32433 5.96282 5.06892
#
# Compressibility (1/GPa) = 0.01662368
#
# Stress axis : x y z
#
# Youngs Moduli (GPa) = 101.27384 102.94724 78.09935
#
# Poissons Ratio (x) = 0.32621 0.42707
# Poissons Ratio (y) = 0.32090 -0.05879
# Poissons Ratio (z) = 0.55380 -0.07750
#
# Static dielectric constant tensor:
#      x y z
#    x 2.054660 0.000000 0.000000 
#    y 0.000000 2.210570 0.000000 
#    z 0.000000 0.000000 2.066220 
# 
# From -- ./inp_files/15879.got.cif
#   From: 2010.05.17/outbox.cif.g08.bks.cpg/sg70_8_cif.got.tgz:15879.got - 2010.06.03 15:57:51.
