data_PCOD9514860
_publ_section_title
;
Structure prediction by ZEFSAII (Michael W. Deem and Ramdas Pophale) SiO2 
 PCOD9514860
Probable space group: F D D D
;
_chemical_formula_sum "Si O2"
_cell_formula_units_Z 192
_cell_length_a 17.173335
_cell_length_b 22.797764
_cell_length_c 25.684837
_cell_angle_alpha 90.000000
_cell_angle_beta 90.000000
_cell_angle_gamma 90.000000
_cell_volume 10055.963986
_symmetry_space_group_name_H-M "F D D D"
_symmetry_group_IT_number 70
_space_group.IT_coordinate_system_code '2'
_symmetry_cell_setting 'orthorhombic'
loop_
_space_group_symop_operation_xyz
x,y,z
1/4-x,1/4-y,z
x,1/4-y,1/4-z
1/4-x,y,1/4-z
-x,-y,-z
3/4+x,3/4+y,-z
-x,3/4+y,3/4+z
3/4+x,-y,3/4+z
x,1/2+y,1/2+z
1/4-x,3/4-y,1/2+z
x,3/4-y,3/4-z
1/4-x,1/2+y,3/4-z
-x,1/2-y,1/2-z
3/4+x,1/4+y,1/2-z
-x,1/4+y,1/4+z
3/4+x,1/2-y,1/4+z
1/2+x,y,1/2+z
3/4-x,1/4-y,1/2+z
1/2+x,1/4-y,3/4-z
3/4-x,y,3/4-z
1/2-x,-y,1/2-z
1/4+x,3/4+y,1/2-z
1/2-x,3/4+y,1/4+z
1/4+x,-y,1/4+z
1/2+x,1/2+y,z
3/4-x,3/4-y,z
1/2+x,3/4-y,1/4-z
3/4-x,1/2+y,1/4-z
1/2-x,1/2-y,-z
1/4+x,1/4+y,-z
1/2-x,1/4+y,3/4+z
1/4+x,1/2-y,3/4+z
loop_
_atom_site_type_symbol
_atom_site_label
_atom_site_fract_x
_atom_site_fract_y
_atom_site_fract_z
Si Si1 0.869625 0.554322 0.257016
Si Si2 0.151852 0.437247 0.233135
Si Si3 0.266727 0.771999 0.192919
Si Si4 0.125000 0.625000 0.459514
Si Si5 0.495305 0.283137 0.330828
Si Si6 0.125000 0.625000 0.125000
Si Si7 0.625000 0.125000 0.625000
Si Si8 0.532505 0.551278 0.045617
O O1 0.897364 0.617361 0.275892
O O2 0.940565 0.515234 0.237593
O O3 0.809463 0.559377 0.208590
O O4 0.815249 0.514878 0.294690
O O5 0.208536 0.475462 0.196484
O O6 0.184679 0.446971 0.292198
O O7 0.066314 0.460266 0.217104
O O8 0.317921 0.830070 0.181059
O O9 0.264205 0.734727 0.140055
O O10 0.070452 0.584878 0.496194
O O11 0.430182 0.334114 0.338706
O O12 0.568846 0.083845 0.593169
#
# Coordination Sequence:
#
# PCOD9514860 Si02
#       8
#    32  32  32  16  32   8   8  32
#     4  10  21  39  64  87 124 167 211 253 322 379
#     4  11  23  43  64  92 127 164 216 267 320 391
#     4  11  21  43  63  93 130 169 209 273 320 390
#     4   9  18  37  65  82 128 170 198 256 325 376
#     4  11  25  41  66  96 121 172 216 261 337 375
#     4  12  20  44  70  92 134 166 218 274 316 398
#     4  10  20  36  60  92 134 160 210 274 302 386
#     4   9  19  37  58  91 122 167 205 248 318 378
#
# _framework density 19.093146999999998
#
# number of rings (size 3 to 8) (size 9 to 14) (size 15 to 20)
#    0.000    1.667    3.333    1.000    0.000    1.333 
#    6.000    0.000    0.000    0.000    0.000    0.000 
#    0.000    0.000    0.000    0.000    0.000    0.000 
#
# Total GULP energy -267473.718890 kJ/mol
# GULP energy per Si atom -5572.369144 kJ/mol
# Density = 1.904969 g / cm^3
# Si number density = 19.093147 Si / 1000 Ang^3
#
#
#
# Elastic Constant Matrix: (Units=GPa)
#
#
# Indices 1 2 3 4 5 6 
#
# 1 59.8348 14.4058 3.8586 0.0000 0.0000 0.0000
# 2 14.4058 116.7013 10.0608 0.0000 0.0000 0.0000
# 3 3.8586 10.0608 42.8777 0.0000 0.0000 0.0000
# 4 0.0000 0.0000 0.0000 3.2962 0.0000 0.0000
# 5 0.0000 0.0000 0.0000 0.0000 0.9389 0.0000
# 6 0.0000 0.0000 0.0000 0.0000 0.0000 31.5965
#
#
#
# Elastic Compliance Matrix: (Units=1/GPa)
#
#
# Indices 1 2 3 4 5 6 
#
# 1 0.017273 -0.002039 -0.001076 0.000000 0.000000 0.000000
# 2 -0.002039 0.008987 -0.001925 0.000000 0.000000 0.000000
# 3 -0.001076 -0.001925 0.023871 0.000000 0.000000 0.000000
# 4 0.000000 0.000000 0.000000 0.303384 0.000000 0.000000
# 5 0.000000 0.000000 0.000000 0.000000 1.065057 0.000000
# 6 0.000000 0.000000 0.000000 0.000000 0.000000 0.031649
#
#
# Mechanical properties :
#
#
# Convention : Reuss Voigt Hill
#
# Bulk Modulus (GPa) = 24.96910 30.67380 27.82145
# Shear Modulus (GPa) = 3.39293 19.90555 11.64924
#
# Velocity S-wave (km/s) = 1.33450 3.23236 2.47275
# Velocity P-wave (km/s) = 3.93452 5.48006 4.77030
#
# Compressibility (1/GPa) = 0.04004950
#
# Stress axis : x y z
#
# Youngs Moduli (GPa) = 57.89360 111.27674 41.89243
#
# Poissons Ratio (x) = 0.22694 0.04507
# Poissons Ratio (y) = 0.11807 0.08065
# Poissons Ratio (z) = 0.06229 0.21422
#
# Static dielectric constant tensor:
#      x y z
#    x 1.682710 0.000000 0.000000 
#    y 0.000000 1.679140 0.000000 
#    z 0.000000 0.000000 1.660180 
# 
# From -- ./inp_files/29111.got.cif
#   From: 2010.05.17/outbox.cif.g08.bks.cpg/sg70_15_cif.got.tgz:29111.got - 2010.06.03 15:57:51.
