data_PCOD9514349
_publ_section_title
;
Structure prediction by ZEFSAII (Michael W. Deem and Ramdas Pophale) SiO2 
 PCOD9514349
Probable space group: F D D D
;
_chemical_formula_sum "Si O2"
_cell_formula_units_Z 160
_cell_length_a 21.478667
_cell_length_b 23.364907
_cell_length_c 17.584686
_cell_angle_alpha 90.000000
_cell_angle_beta 90.000000
_cell_angle_gamma 90.000000
_cell_volume 8824.822916
_symmetry_space_group_name_H-M "F D D D"
_symmetry_group_IT_number 70
_space_group.IT_coordinate_system_code '2'
_symmetry_cell_setting 'orthorhombic'
loop_
_space_group_symop_operation_xyz
x,y,z
1/4-x,1/4-y,z
x,1/4-y,1/4-z
1/4-x,y,1/4-z
-x,-y,-z
3/4+x,3/4+y,-z
-x,3/4+y,3/4+z
3/4+x,-y,3/4+z
x,1/2+y,1/2+z
1/4-x,3/4-y,1/2+z
x,3/4-y,3/4-z
1/4-x,1/2+y,3/4-z
-x,1/2-y,1/2-z
3/4+x,1/4+y,1/2-z
-x,1/4+y,1/4+z
3/4+x,1/2-y,1/4+z
1/2+x,y,1/2+z
3/4-x,1/4-y,1/2+z
1/2+x,1/4-y,3/4-z
3/4-x,y,3/4-z
1/2-x,-y,1/2-z
1/4+x,3/4+y,1/2-z
1/2-x,3/4+y,1/4+z
1/4+x,-y,1/4+z
1/2+x,1/2+y,z
3/4-x,3/4-y,z
1/2+x,3/4-y,1/4-z
3/4-x,1/2+y,1/4-z
1/2-x,1/2-y,-z
1/4+x,1/4+y,-z
1/2-x,1/4+y,3/4+z
1/4+x,1/2-y,3/4+z
loop_
_atom_site_type_symbol
_atom_site_label
_atom_site_fract_x
_atom_site_fract_y
_atom_site_fract_z
Si Si1 0.604694 0.463171 0.996855
Si Si2 0.102904 0.562130 0.378418
Si Si3 0.625000 0.929462 0.125000
Si Si4 0.461920 0.677203 0.390508
Si Si5 0.391902 0.625000 0.625000
Si Si6 0.681167 0.479951 0.773511
O O1 0.601875 0.521787 0.951920
O O2 0.601808 0.411917 0.935095
O O3 0.553441 0.459950 0.062386
O O4 0.669552 0.452414 0.041935
O O5 0.125000 0.625000 0.398279
O O6 0.148886 0.530403 0.320628
O O7 0.034106 0.568310 0.343450
O O8 0.565675 0.886239 0.126405
O O9 0.638388 0.965740 0.200192
O O10 0.430133 0.577583 0.576346
O O11 0.750000 0.500000 0.750000
#
# Coordination Sequence:
#
# PCOD9514349 Si02
#       6
#    32  32  16  32  16  32
#     4   9  20  38  62  85 117 157 197 243 297 366
#     4  11  24  37  58  91 123 153 199 251 301 352
#     4  10  20  42  63  86 121 162 200 244 316 366
#     4  10  19  39  65  85 119 152 203 245 303 359
#     4  10  18  38  62  91 111 160 208 242 302 368
#     4  11  23  40  63  91 124 164 207 252 306 372
#
# _framework density 18.130675
#
# number of rings (size 3 to 8) (size 9 to 14) (size 15 to 20)
#    0.000    2.000    4.000    1.800    0.000    4.800 
#    0.000    2.000    0.000    0.000    0.000    0.000 
#    0.000    0.000    0.000    0.000    0.000    0.000 
#
# Total GULP energy -223047.734792 kJ/mol
# GULP energy per Si atom -5576.193370 kJ/mol
# Density = 1.808941 g / cm^3
# Si number density = 18.130675 Si / 1000 Ang^3
#
#
#
# Elastic Constant Matrix: (Units=GPa)
#
#
# Indices 1 2 3 4 5 6 
#
# 1 78.6316 12.9482 0.1885 0.0000 0.0000 0.0000
# 2 12.9482 117.7666 33.0611 0.0000 0.0000 0.0000
# 3 0.1885 33.0611 84.6305 0.0000 0.0000 0.0000
# 4 0.0000 0.0000 0.0000 11.8452 0.0000 0.0000
# 5 0.0000 0.0000 0.0000 0.0000 17.3338 0.0000
# 6 0.0000 0.0000 0.0000 0.0000 0.0000 13.6211
#
#
#
# Elastic Compliance Matrix: (Units=1/GPa)
#
#
# Indices 1 2 3 4 5 6 
#
# 1 0.012979 -0.001594 0.000594 0.000000 0.000000 0.000000
# 2 -0.001594 0.009733 -0.003799 0.000000 0.000000 0.000000
# 3 0.000594 -0.003799 0.013299 0.000000 0.000000 0.000000
# 4 0.000000 0.000000 0.000000 0.084423 0.000000 0.000000
# 5 0.000000 0.000000 0.000000 0.000000 0.057691 0.000000
# 6 0.000000 0.000000 0.000000 0.000000 0.000000 0.073416
#
#
# Mechanical properties :
#
#
# Convention : Reuss Voigt Hill
#
# Bulk Modulus (GPa) = 37.86021 41.49159 39.67590
# Shear Modulus (GPa) = 18.52259 24.21542 21.36901
#
# Velocity S-wave (km/s) = 3.19974 3.65856 3.43681
# Velocity P-wave (km/s) = 5.88033 6.38601 6.13838
#
# Compressibility (1/GPa) = 0.02641295
#
# Stress axis : x y z
#
# Youngs Moduli (GPa) = 77.05032 102.74323 75.19531
#
# Poissons Ratio (x) = 0.16373 -0.04464
# Poissons Ratio (y) = 0.12279 0.28564
# Poissons Ratio (z) = -0.04574 0.39029
#
# Static dielectric constant tensor:
#      x y z
#    x 1.618130 0.000000 0.000000 
#    y 0.000000 1.627790 0.000000 
#    z 0.000000 0.000000 1.633820 
# 
# From -- ./inp_files/36511.got.cif
#   From: 2010.05.17/outbox.cif.g08.bks.cpg/sg70_19_cif.got.tgz:36511.got - 2010.06.03 15:57:51.
