data_PCOD9514791
_publ_section_title
;
Structure prediction by ZEFSAII (Michael W. Deem and Ramdas Pophale) SiO2 
 PCOD9514791
Probable space group: F D D D
;
_chemical_formula_sum "Si O2"
_cell_formula_units_Z 104
_cell_length_a 13.649055
_cell_length_b 9.919088
_cell_length_c 29.637462
_cell_angle_alpha 90.000000
_cell_angle_beta 90.000000
_cell_angle_gamma 90.000000
_cell_volume 4012.502696
_symmetry_space_group_name_H-M "F D D D"
_symmetry_group_IT_number 70
_space_group.IT_coordinate_system_code '2'
_symmetry_cell_setting 'orthorhombic'
loop_
_space_group_symop_operation_xyz
x,y,z
1/4-x,1/4-y,z
x,1/4-y,1/4-z
1/4-x,y,1/4-z
-x,-y,-z
3/4+x,3/4+y,-z
-x,3/4+y,3/4+z
3/4+x,-y,3/4+z
x,1/2+y,1/2+z
1/4-x,3/4-y,1/2+z
x,3/4-y,3/4-z
1/4-x,1/2+y,3/4-z
-x,1/2-y,1/2-z
3/4+x,1/4+y,1/2-z
-x,1/4+y,1/4+z
3/4+x,1/2-y,1/4+z
1/2+x,y,1/2+z
3/4-x,1/4-y,1/2+z
1/2+x,1/4-y,3/4-z
3/4-x,y,3/4-z
1/2-x,-y,1/2-z
1/4+x,3/4+y,1/2-z
1/2-x,3/4+y,1/4+z
1/4+x,-y,1/4+z
1/2+x,1/2+y,z
3/4-x,3/4-y,z
1/2+x,3/4-y,1/4-z
3/4-x,1/2+y,1/4-z
1/2-x,1/2-y,-z
1/4+x,1/4+y,-z
1/2-x,1/4+y,3/4+z
1/4+x,1/2-y,3/4+z
loop_
_atom_site_type_symbol
_atom_site_label
_atom_site_fract_x
_atom_site_fract_y
_atom_site_fract_z
Si Si1 0.606586 0.404902 0.428623
Si Si2 0.197280 0.755428 0.233237
Si Si3 0.875000 0.375000 0.375000
Si Si4 0.936083 0.635712 0.335203
O O1 0.619085 0.375000 0.375000
O O2 0.690702 0.442724 0.465500
O O3 0.543781 0.287607 0.455239
O O4 0.531845 0.532561 0.427045
O O5 0.125000 0.625000 0.230679
O O6 0.139739 0.868907 0.205528
O O7 0.946126 0.485858 0.353509
O O8 0.875000 0.710764 0.375000
#
# Coordination Sequence:
#
# PCOD9514791 Si02
#       4
#    32  32   8  32
#     4  11  20  37  66  94 125 163 213 275 325 381
#     4  10  20  34  61  93 121 154 219 267 324 379
#     4   8  16  28  54  80 112 156 200 234 310 400
#     4   9  16  30  54  84 114 152 206 242 318 374
#
# _framework density 25.918983999999998
#
# number of rings (size 3 to 8) (size 9 to 14) (size 15 to 20)
#    0.923    1.231    3.077    3.692    0.000    0.000 
#    0.000    0.000   16.923   22.154    0.000    0.000 
#    0.000    0.000    0.000    0.000    0.000    0.000 
#
# Total GULP energy -144840.864172 kJ/mol
# GULP energy per Si atom -5570.802468 kJ/mol
# Density = 2.585999 g / cm^3
# Si number density = 25.918984 Si / 1000 Ang^3
#
#
#
# Elastic Constant Matrix: (Units=GPa)
#
#
# Indices 1 2 3 4 5 6 
#
# 1 69.7832 19.5936 64.4934 0.0000 0.0000 0.0000
# 2 19.5936 109.1370 23.3252 0.0000 0.0000 0.0000
# 3 64.4934 23.3252 237.7626 0.0000 0.0000 0.0000
# 4 0.0000 0.0000 0.0000 17.6369 0.0000 0.0000
# 5 0.0000 0.0000 0.0000 0.000016119.8706 0.0000
# 6 0.0000 0.0000 0.0000 0.0000 0.0000 4.6975
#
#
#
# Elastic Compliance Matrix: (Units=1/GPa)
#
#
# Indices 1 2 3 4 5 6 
#
# 1 0.019746 -0.002452 -0.005116 0.000000 0.000000 0.000000
# 2 -0.002452 0.009663 -0.000283 0.000000 0.000000 0.000000
# 3 -0.005116 -0.000283 0.005621 0.000000 0.000000 0.000000
# 4 0.000000 0.000000 0.000000 0.056699 0.000000 0.000000
# 5 0.000000 0.000000 0.000000 0.000000 0.000062 0.000000
# 6 0.000000 0.000000 0.000000 0.000000 0.000000 0.212879
#
#
# Mechanical properties :
#
#
# Convention : Reuss Voigt Hill
#
# Bulk Modulus (GPa) = 51.73241 70.16747 60.94994
# Shear Modulus (GPa) = 15.29914 3249.05904 1632.17909
#
# Velocity S-wave (km/s) = 2.43218 35.44384 25.12151
# Velocity P-wave (km/s) = 5.28109 41.25714 29.41123
#
# Compressibility (1/GPa) = 0.01933024
#
# Stress axis : x y z
#
# Youngs Moduli (GPa) = 50.64211 103.48275 177.89546
#
# Poissons Ratio (x) = 0.25372 0.91006
# Poissons Ratio (y) = 0.12416 0.05034
# Poissons Ratio (z) = 0.25907 0.02928
#
# Static dielectric constant tensor:
#      x y z
#    x 2.226330 0.000000 0.000000 
#    y 0.000000 2.202280 0.000000 
#    z 0.000000 0.000000 2.154520 
# 
# From -- ./inp_files/47423.got.cif
#   From: 2010.05.17/outbox.cif.g08.bks.cpg/sg70_24_cif.got.tgz:47423.got - 2010.06.03 15:57:51.
