data_PCOD9514777
_publ_section_title
;
Structure prediction by ZEFSAII (Michael W. Deem and Ramdas Pophale) SiO2 
 PCOD9514777
Probable space group: F D D D
;
_chemical_formula_sum "Si O2"
_cell_formula_units_Z 176
_cell_length_a 25.806842
_cell_length_b 16.479961
_cell_length_c 18.119680
_cell_angle_alpha 90.000000
_cell_angle_beta 90.000000
_cell_angle_gamma 90.000000
_cell_volume 7706.222890
_symmetry_space_group_name_H-M "F D D D"
_symmetry_group_IT_number 70
_space_group.IT_coordinate_system_code '2'
_symmetry_cell_setting 'orthorhombic'
loop_
_space_group_symop_operation_xyz
x,y,z
1/4-x,1/4-y,z
x,1/4-y,1/4-z
1/4-x,y,1/4-z
-x,-y,-z
3/4+x,3/4+y,-z
-x,3/4+y,3/4+z
3/4+x,-y,3/4+z
x,1/2+y,1/2+z
1/4-x,3/4-y,1/2+z
x,3/4-y,3/4-z
1/4-x,1/2+y,3/4-z
-x,1/2-y,1/2-z
3/4+x,1/4+y,1/2-z
-x,1/4+y,1/4+z
3/4+x,1/2-y,1/4+z
1/2+x,y,1/2+z
3/4-x,1/4-y,1/2+z
1/2+x,1/4-y,3/4-z
3/4-x,y,3/4-z
1/2-x,-y,1/2-z
1/4+x,3/4+y,1/2-z
1/2-x,3/4+y,1/4+z
1/4+x,-y,1/4+z
1/2+x,1/2+y,z
3/4-x,3/4-y,z
1/2+x,3/4-y,1/4-z
3/4-x,1/2+y,1/4-z
1/2-x,1/2-y,-z
1/4+x,1/4+y,-z
1/2-x,1/4+y,3/4+z
1/4+x,1/2-y,3/4+z
loop_
_atom_site_type_symbol
_atom_site_label
_atom_site_fract_x
_atom_site_fract_y
_atom_site_fract_z
Si Si1 0.313215 0.599443 0.745571
Si Si2 0.285273 0.053518 0.869563
Si Si3 0.955562 0.434238 0.439885
Si Si4 0.324033 0.334483 0.668509
Si Si5 0.517227 0.125000 0.125000
Si Si6 0.675496 0.407614 0.986545
O O1 0.295311 0.674514 0.795046
O O2 0.315929 0.525064 0.805438
O O3 0.268396 0.569513 0.690311
O O4 0.368476 0.621127 0.712122
O O5 0.222998 0.067367 0.862675
O O6 0.315172 0.114307 0.815255
O O7 0.297189 0.958582 0.860506
O O8 0.937053 0.375000 0.375000
O O9 0.941413 0.399141 0.519479
O O10 0.375000 0.375000 0.633377
O O11 0.330394 0.253395 0.718333
O O12 0.476877 0.115080 0.192239
#
# Coordination Sequence:
#
# PCOD9514777 Si02
#       6
#    32  32  32  32  16  32
#     4  10  21  36  59  90 122 159 202 254 306 379
#     4  10  22  40  61  87 122 167 208 264 310 366
#     4  10  20  34  56  90 130 160 189 239 312 383
#     4  10  20  38  58  91 127 157 201 252 313 384
#     4  10  24  42  63  84 118 168 219 268 304 366
#     4  11  21  40  64  88 119 163 211 258 321 370
#
# _framework density 22.838685999999999
#
# number of rings (size 3 to 8) (size 9 to 14) (size 15 to 20)
#    0.000    1.818    1.818    2.182    1.273    0.364 
#    0.000    7.273    0.000    0.000    0.000    0.000 
#    0.000    0.000    0.000    0.000    0.000    0.000 
#
# Total GULP energy -245192.714268 kJ/mol
# GULP energy per Si atom -5572.561688 kJ/mol
# Density = 2.278670 g / cm^3
# Si number density = 22.838686 Si / 1000 Ang^3
#
#
#
# Elastic Constant Matrix: (Units=GPa)
#
#
# Indices 1 2 3 4 5 6 
#
# 1 75.7792 7.1383 0.4061 0.0000 0.0000 0.0000
# 2 7.1383 121.9175 15.8837 0.0000 0.0000 0.0000
# 3 0.4061 15.8837 40.3616 0.0000 0.0000 0.0000
# 4 0.0000 0.0000 0.0000 21.0644 0.0000 0.0000
# 5 0.0000 0.0000 0.0000 0.0000 8.6683 0.0000
# 6 0.0000 0.0000 0.0000 0.0000 0.0000 20.9520
#
#
#
# Elastic Compliance Matrix: (Units=1/GPa)
#
#
# Indices 1 2 3 4 5 6 
#
# 1 0.013271 -0.000801 0.000182 0.000000 0.000000 0.000000
# 2 -0.000801 0.008694 -0.003413 0.000000 0.000000 0.000000
# 3 0.000182 -0.003413 0.026117 0.000000 0.000000 0.000000
# 4 0.000000 0.000000 0.000000 0.047474 0.000000 0.000000
# 5 0.000000 0.000000 0.000000 0.000000 0.115363 0.000000
# 6 0.000000 0.000000 0.000000 0.000000 0.000000 0.047728
#
#
# Mechanical properties :
#
#
# Convention : Reuss Voigt Hill
#
# Bulk Modulus (GPa) = 24.98922 31.65717 28.32320
# Shear Modulus (GPa) = 17.85389 24.44559 21.14974
#
# Velocity S-wave (km/s) = 2.79899 3.27518 3.04641
# Velocity P-wave (km/s) = 4.62722 5.30978 4.98021
#
# Compressibility (1/GPa) = 0.04001725
#
# Stress axis : x y z
#
# Youngs Moduli (GPa) = 75.35406 115.02399 38.28855
#
# Poissons Ratio (x) = 0.09210 -0.00695
# Poissons Ratio (y) = 0.06033 0.13069
# Poissons Ratio (z) = -0.01368 0.39261
#
# Static dielectric constant tensor:
#      x y z
#    x 1.973760 0.000000 0.000000 
#    y 0.000000 2.205640 0.000000 
#    z 0.000000 0.000000 1.861840 
# 
# From -- ./inp_files/38567.got.cif
#   From: 2010.05.17/outbox.cif.g08.bks.cpg/sg70_20_cif.got.tgz:38567.got - 2010.06.03 15:57:51.
