data_PCOD9514073
_publ_section_title
;
Structure prediction by ZEFSAII (Michael W. Deem and Ramdas Pophale) SiO2 
 PCOD9514073
Probable space group: F D D D
;
_chemical_formula_sum "Si O2"
_cell_formula_units_Z 128
_cell_length_a 9.384397
_cell_length_b 25.587739
_cell_length_c 30.252294
_cell_angle_alpha 90.000000
_cell_angle_beta 90.000000
_cell_angle_gamma 90.000000
_cell_volume 7264.347256
_symmetry_space_group_name_H-M "F D D D"
_symmetry_group_IT_number 70
_space_group.IT_coordinate_system_code '2'
_symmetry_cell_setting 'orthorhombic'
loop_
_space_group_symop_operation_xyz
x,y,z
1/4-x,1/4-y,z
x,1/4-y,1/4-z
1/4-x,y,1/4-z
-x,-y,-z
3/4+x,3/4+y,-z
-x,3/4+y,3/4+z
3/4+x,-y,3/4+z
x,1/2+y,1/2+z
1/4-x,3/4-y,1/2+z
x,3/4-y,3/4-z
1/4-x,1/2+y,3/4-z
-x,1/2-y,1/2-z
3/4+x,1/4+y,1/2-z
-x,1/4+y,1/4+z
3/4+x,1/2-y,1/4+z
1/2+x,y,1/2+z
3/4-x,1/4-y,1/2+z
1/2+x,1/4-y,3/4-z
3/4-x,y,3/4-z
1/2-x,-y,1/2-z
1/4+x,3/4+y,1/2-z
1/2-x,3/4+y,1/4+z
1/4+x,-y,1/4+z
1/2+x,1/2+y,z
3/4-x,3/4-y,z
1/2+x,3/4-y,1/4-z
3/4-x,1/2+y,1/4-z
1/2-x,1/2-y,-z
1/4+x,1/4+y,-z
1/2-x,1/4+y,3/4+z
1/4+x,1/2-y,3/4+z
loop_
_atom_site_type_symbol
_atom_site_label
_atom_site_fract_x
_atom_site_fract_y
_atom_site_fract_z
Si Si1 0.004323 0.698534 0.303890
Si Si2 0.125000 0.625000 0.229393
Si Si3 0.625000 0.369650 0.625000
Si Si4 0.218420 0.019837 0.373527
Si Si5 0.040628 0.035315 0.671264
O O1 0.940508 0.656498 0.338210
O O2 0.886836 0.744021 0.301160
O O3 0.042284 0.665618 0.260789
O O4 0.143273 0.722634 0.328625
O O5 0.028549 0.588870 0.197965
O O6 0.743766 0.328799 0.607653
O O7 0.375000 0.994153 0.375000
O O8 0.107662 0.990848 0.342379
O O9 0.125000 0.043770 0.625000
#
# Coordination Sequence:
#
# PCOD9514073 Si02
#       5
#    32  16  16  32  32
#     4  11  19  34  57  86 110 150 195 236 276 348
#     4  12  21  36  56  88 118 148 190 250 285 326
#     4  10  16  32  60  83 111 142 196 236 286 328
#     4   9  18  32  58  85 110 145 195 234 281 339
#     4  10  22  37  57  81 115 155 193 229 287 350
#
# _framework density 17.620303
#
# number of rings (size 3 to 8) (size 9 to 14) (size 15 to 20)
#    0.750    1.000    6.250    1.125    0.000    0.000 
#    0.000    5.000    0.000   24.000    0.000    0.000 
#    0.000    0.000    0.000    0.000    0.000    0.000 
#
# Total GULP energy -178202.910711 kJ/mol
# GULP energy per Si atom -5568.840960 kJ/mol
# Density = 1.758020 g / cm^3
# Si number density = 17.620303 Si / 1000 Ang^3
#
#
#
# Elastic Constant Matrix: (Units=GPa)
#
#
# Indices 1 2 3 4 5 6 
#
# 1 122.3014 54.5394 36.3716 0.0000 0.0000 0.0000
# 2 54.5394 92.5160 62.5369 0.0000 0.0000 0.0000
# 3 36.3716 62.5369 68.5854 0.0000 0.0000 0.0000
# 4 0.0000 0.0000 0.0000 -370.8503 0.0000 0.0000
# 5 0.0000 0.0000 0.0000 0.0000 15.1954 0.0000
# 6 0.0000 0.0000 0.0000 0.0000 0.0000 12.0580
#
#
#
# Elastic Compliance Matrix: (Units=1/GPa)
#
#
# Indices 1 2 3 4 5 6 
#
# 1 0.011094 -0.006681 0.000209 0.000000 0.000000 0.000000
# 2 -0.006681 0.032197 -0.025815 0.000000 0.000000 0.000000
# 3 0.000209 -0.025815 0.038008 0.000000 0.000000 0.000000
# 4 0.000000 0.000000 0.000000 -0.002697 0.000000 0.000000
# 5 0.000000 0.000000 0.000000 0.000000 0.065810 0.000000
# 6 0.000000 0.000000 0.000000 0.000000 0.000000 0.082933
#
#
# Mechanical properties :
#
#
# Convention : Reuss Voigt Hill
#
# Bulk Modulus (GPa) = 59.79188 65.58873 62.69031
# Shear Modulus (GPa) = 16.80710 -60.05574 -21.62432
#
# Velocity S-wave (km/s) = 3.09179 -5.84442 -3.50700
# Velocity P-wave (km/s) = 6.83760 2.87033 4.38828
#
# Compressibility (1/GPa) = 0.01672468
#
# Stress axis : x y z
#
# Youngs Moduli (GPa) = 90.14042 31.05876 26.31038
#
# Poissons Ratio (x) = 0.20750 -0.00549
# Poissons Ratio (y) = 0.60222 0.67919
# Poissons Ratio (z) = -0.01880 0.80177
#
# Static dielectric constant tensor:
#      x y z
#    x 1.623400 0.000000 0.000000 
#    y 0.000000 1.600870 0.000000 
#    z 0.000000 0.000000 1.610930 
# 
# From -- ./inp_files/63670.got.cif
#   From: 2010.05.17/outbox.cif.g08.bks.cpg/sg70_32_cif.got.tgz:63670.got - 2010.06.03 15:57:51.
