data_PCOD9514738
_publ_section_title
;
Structure prediction by ZEFSAII (Michael W. Deem and Ramdas Pophale) SiO2 
 PCOD9514738
Probable space group: F D D D
;
_chemical_formula_sum "Si O2"
_cell_formula_units_Z 168
_cell_length_a 31.487283
_cell_length_b 25.775433
_cell_length_c 8.909575
_cell_angle_alpha 90.000000
_cell_angle_beta 90.000000
_cell_angle_gamma 90.000000
_cell_volume 7230.996399
_symmetry_space_group_name_H-M "F D D D"
_symmetry_group_IT_number 70
_space_group.IT_coordinate_system_code '2'
_symmetry_cell_setting 'orthorhombic'
loop_
_space_group_symop_operation_xyz
x,y,z
1/4-x,1/4-y,z
x,1/4-y,1/4-z
1/4-x,y,1/4-z
-x,-y,-z
3/4+x,3/4+y,-z
-x,3/4+y,3/4+z
3/4+x,-y,3/4+z
x,1/2+y,1/2+z
1/4-x,3/4-y,1/2+z
x,3/4-y,3/4-z
1/4-x,1/2+y,3/4-z
-x,1/2-y,1/2-z
3/4+x,1/4+y,1/2-z
-x,1/4+y,1/4+z
3/4+x,1/2-y,1/4+z
1/2+x,y,1/2+z
3/4-x,1/4-y,1/2+z
1/2+x,1/4-y,3/4-z
3/4-x,y,3/4-z
1/2-x,-y,1/2-z
1/4+x,3/4+y,1/2-z
1/2-x,3/4+y,1/4+z
1/4+x,-y,1/4+z
1/2+x,1/2+y,z
3/4-x,3/4-y,z
1/2+x,3/4-y,1/4-z
3/4-x,1/2+y,1/4-z
1/2-x,1/2-y,-z
1/4+x,1/4+y,-z
1/2-x,1/4+y,3/4+z
1/4+x,1/2-y,3/4+z
loop_
_atom_site_type_symbol
_atom_site_label
_atom_site_fract_x
_atom_site_fract_y
_atom_site_fract_z
Si Si1 0.186031 0.074680 0.861975
Si Si2 0.008600 0.936539 0.398067
Si Si3 0.975526 0.816371 0.683747
Si Si4 0.154515 0.782704 0.819877
Si Si5 0.564723 0.958333 0.493960
Si Si6 0.125000 0.625000 0.125000
O O1 0.228704 0.050865 0.788516
O O2 0.200593 0.129228 0.933991
O O3 0.155175 0.090420 0.726765
O O4 0.160881 0.029503 0.946441
O O5 0.005918 0.875000 0.375000
O O6 0.057630 0.949493 0.427010
O O7 0.989413 0.952928 0.235425
O O8 0.947590 0.769119 0.742858
O O9 0.019691 0.819798 0.775848
O O10 0.168583 0.805854 0.659754
O O11 0.106453 0.797742 0.858363
#
# Coordination Sequence:
#
# PCOD9514738 Si02
#       6
#    32  32  32  32  32   8
#     4  11  20  32  54  83 109 141 181 233 280 325
#     4   9  18  35  55  75 106 147 175 218 281 320
#     4   9  17  35  55  73 109 144 175 217 276 330
#     4  10  20  32  55  80 106 140 187 224 263 332
#     4   9  19  34  53  78 105 147 179 218 273 331
#     4  12  20  32  52  86 108 140 176 228 290 320
#
# _framework density 23.233314
#
# number of rings (size 3 to 8) (size 9 to 14) (size 15 to 20)
#    0.000    2.286    2.857    1.714    0.000    0.762 
#    0.000    1.905   12.571    4.571    0.000    0.000 
#    0.000    0.000    0.000    0.000    0.000    0.000 
#
# Total GULP energy -234207.102775 kJ/mol
# GULP energy per Si atom -5576.359590 kJ/mol
# Density = 2.318043 g / cm^3
# Si number density = 23.233314 Si / 1000 Ang^3
#
#
#
# Elastic Constant Matrix: (Units=GPa)
#
#
# Indices 1 2 3 4 5 6 
#
# 1 141.4988 -1.3026 10.4935 0.0055 -0.0009 -0.0051
# 2 -1.3026 11.9761 1.0732 0.0116 -0.0026 -0.0119
# 3 10.4935 1.0732 28.0379 0.0100 -0.0032 -0.0092
# 4 0.0055 0.0116 0.0100 19.6670 -0.0027 -0.0099
# 5 -0.0009 -0.0026 -0.0032 -0.0027 2.1204 0.0020
# 6 -0.0051 -0.0119 -0.0092 -0.0099 0.0020 -5.9120
#
#
#
# Elastic Compliance Matrix: (Units=1/GPa)
#
#
# Indices 1 2 3 4 5 6 
#
# 1 0.007282 0.001040 -0.002765 -0.000001 0.000000 -0.000004
# 2 0.001040 0.083935 -0.003602 -0.000048 0.000097 -0.000163
# 3 -0.002765 -0.003602 0.036839 -0.000016 0.000050 -0.000048
# 4 -0.000001 -0.000048 -0.000016 0.050847 0.000065 -0.000085
# 5 0.000000 0.000097 0.000050 0.000065 0.471620 0.000160
# 6 -0.000004 -0.000163 -0.000048 -0.000085 0.000160 -0.169147
#
#
# Mechanical properties :
#
#
# Convention : Reuss Voigt Hill
#
# Bulk Modulus (GPa) = 8.51782 22.44903 15.48342
# Shear Modulus (GPa) = 9.41330 14.59165 12.00248
#
# Velocity S-wave (km/s) = 2.01505 2.50881 2.27536
# Velocity P-wave (km/s) = 3.01464 4.25154 3.68535
#
# Compressibility (1/GPa) = 0.11740097
#
# Stress axis : x y z
#
# Youngs Moduli (GPa) = 137.32812 11.91396 27.14530
#
# Poissons Ratio (x) = -0.01239 0.07506
# Poissons Ratio (y) = -0.14279 0.09778
# Poissons Ratio (z) = 0.37973 0.04292
#
# Static dielectric constant tensor:
#      x y z
#    x 1.946530 0.000000 0.000000 
#    y 0.000000 1.898780 0.000000 
#    z 0.000000 0.000000 2.057630 
# 
# From -- ./inp_files/22271.got.cif
#   From: 2010.05.17/outbox.cif.g08.bks.cpg/sg70_12_cif.got.tgz:22271.got - 2010.06.03 15:57:51.
