data_PCOD9514483
_publ_section_title
;
Structure prediction by ZEFSAII (Michael W. Deem and Ramdas Pophale) SiO2 
 PCOD9514483
Probable space group: F D D D
;
_chemical_formula_sum "Si O2"
_cell_formula_units_Z 176
_cell_length_a 32.872020
_cell_length_b 10.312061
_cell_length_c 28.743002
_cell_angle_alpha 90.000000
_cell_angle_beta 90.000000
_cell_angle_gamma 90.000000
_cell_volume 9743.253249
_symmetry_space_group_name_H-M "F D D D"
_symmetry_group_IT_number 70
_space_group.IT_coordinate_system_code '2'
_symmetry_cell_setting 'orthorhombic'
loop_
_space_group_symop_operation_xyz
x,y,z
1/4-x,1/4-y,z
x,1/4-y,1/4-z
1/4-x,y,1/4-z
-x,-y,-z
3/4+x,3/4+y,-z
-x,3/4+y,3/4+z
3/4+x,-y,3/4+z
x,1/2+y,1/2+z
1/4-x,3/4-y,1/2+z
x,3/4-y,3/4-z
1/4-x,1/2+y,3/4-z
-x,1/2-y,1/2-z
3/4+x,1/4+y,1/2-z
-x,1/4+y,1/4+z
3/4+x,1/2-y,1/4+z
1/2+x,y,1/2+z
3/4-x,1/4-y,1/2+z
1/2+x,1/4-y,3/4-z
3/4-x,y,3/4-z
1/2-x,-y,1/2-z
1/4+x,3/4+y,1/2-z
1/2-x,3/4+y,1/4+z
1/4+x,-y,1/4+z
1/2+x,1/2+y,z
3/4-x,3/4-y,z
1/2+x,3/4-y,1/4-z
3/4-x,1/2+y,1/4-z
1/2-x,1/2-y,-z
1/4+x,1/4+y,-z
1/2-x,1/4+y,3/4+z
1/4+x,1/2-y,3/4+z
loop_
_atom_site_type_symbol
_atom_site_label
_atom_site_fract_x
_atom_site_fract_y
_atom_site_fract_z
Si Si1 0.308363 0.506977 0.543733
Si Si2 0.863850 0.125000 0.625000
Si Si3 0.028242 0.203932 0.076303
Si Si4 0.860766 0.636526 0.822140
Si Si5 0.625000 0.125000 0.235383
Si Si6 0.821017 0.986978 0.759509
Si Si7 0.625000 0.625000 0.929696
O O1 0.335778 0.561073 0.585664
O O2 0.264191 0.476837 0.564126
O O3 0.335648 0.400964 0.517687
O O4 0.304093 0.625478 0.507431
O O5 0.885866 0.247790 0.600820
O O6 0.025945 0.125000 0.125000
O O7 0.065792 0.303433 0.074339
O O8 0.038966 0.097664 0.037245
O O9 0.875000 0.624039 0.875000
O O10 0.865015 0.499958 0.795814
O O11 0.890996 0.731622 0.793706
O O12 0.838300 0.914441 0.713986
#
# Coordination Sequence:
#
# PCOD9514483 Si02
#       7
#    32  16  32  32  16  32  16
#     4  10  22  39  59  84 119 159 197 253 305 355
#     4  10  20  36  56  84 111 156 202 249 296 358
#     4  12  21  35  61  94 121 148 202 259 304 349
#     4  11  21  37  63  89 122 161 200 247 300 378
#     4  10  24  42  60  83 120 171 206 236 314 380
#     4  10  20  36  59  89 118 153 195 247 302 357
#     4  10  19  34  59  81 116 151 203 242 295 358
#
# _framework density 18.063780999999999
#
# number of rings (size 3 to 8) (size 9 to 14) (size 15 to 20)
#    0.000    1.455    4.545    1.364    0.000    0.727 
#    0.000    0.000    0.000    0.000    0.000    0.000 
#    0.000    0.000    0.000    0.000    0.000    0.000 
#
# Total GULP energy -245496.370534 kJ/mol
# GULP energy per Si atom -5579.462967 kJ/mol
# Density = 1.802267 g / cm^3
# Si number density = 18.063781 Si / 1000 Ang^3
#
#
#
# Elastic Constant Matrix: (Units=GPa)
#
#
# Indices 1 2 3 4 5 6 
#
# 1 113.5955 34.3578 37.5292 0.0000 -0.0001 0.0000
# 2 34.3578 69.6943 44.4296 0.0000 -0.0002 0.0000
# 3 37.5292 44.4296 108.7842 0.0000 0.0000 0.0000
# 4 0.0000 0.0000 0.0000 34.5860 -0.0001 0.0000
# 5 -0.0001 -0.0002 0.0000 -0.0001 74.9359 0.0000
# 6 0.0000 0.0000 0.0000 0.0000 0.0000 19.2472
#
#
#
# Elastic Compliance Matrix: (Units=1/GPa)
#
#
# Indices 1 2 3 4 5 6 
#
# 1 0.010681 -0.003943 -0.002074 0.000000 0.000000 0.000000
# 2 -0.003943 0.020855 -0.007157 0.000000 0.000000 0.000000
# 3 -0.002074 -0.007157 0.012831 0.000000 0.000000 0.000000
# 4 0.000000 0.000000 0.000000 0.028913 0.000000 0.000000
# 5 0.000000 0.000000 0.000000 0.000000 0.013345 0.000000
# 6 0.000000 0.000000 0.000000 0.000000 0.000000 0.051955
#
#
# Mechanical properties :
#
#
# Convention : Reuss Voigt Hill
#
# Bulk Modulus (GPa) = 55.50060 58.30079 56.90070
# Shear Modulus (GPa) = 29.25061 37.47098 33.36080
#
# Velocity S-wave (km/s) = 4.02841 4.55947 4.30214
# Velocity P-wave (km/s) = 7.24079 7.75005 7.49974
#
# Compressibility (1/GPa) = 0.01801782
#
# Stress axis : x y z
#
# Youngs Moduli (GPa) = 93.62301 47.95024 77.93434
#
# Poissons Ratio (x) = 0.18908 0.16167
# Poissons Ratio (y) = 0.36917 0.55779
# Poissons Ratio (z) = 0.19421 0.34319
#
# Static dielectric constant tensor:
#      x y z
#    x 1.611850 0.000000 0.000000 
#    y 0.000000 1.624520 0.000000 
#    z 0.000000 0.000000 1.625850 
# 
# From -- ./inp_files/21230.got.cif
#   From: 2010.05.17/outbox.cif.g08.bks.cpg/sg70_11_cif.got.tgz:21230.got - 2010.06.03 15:57:51.
