data_PCOD9514415
_publ_section_title
;
Structure prediction by ZEFSAII (Michael W. Deem and Ramdas Pophale) SiO2 
 PCOD9514415
Probable space group: F D D D
;
_chemical_formula_sum "Si O2"
_cell_formula_units_Z 160
_cell_length_a 26.423385
_cell_length_b 16.526990
_cell_length_c 16.248984
_cell_angle_alpha 90.000000
_cell_angle_beta 90.000000
_cell_angle_gamma 90.000000
_cell_volume 7095.915383
_symmetry_space_group_name_H-M "F D D D"
_symmetry_group_IT_number 70
_space_group.IT_coordinate_system_code '2'
_symmetry_cell_setting 'orthorhombic'
loop_
_space_group_symop_operation_xyz
x,y,z
1/4-x,1/4-y,z
x,1/4-y,1/4-z
1/4-x,y,1/4-z
-x,-y,-z
3/4+x,3/4+y,-z
-x,3/4+y,3/4+z
3/4+x,-y,3/4+z
x,1/2+y,1/2+z
1/4-x,3/4-y,1/2+z
x,3/4-y,3/4-z
1/4-x,1/2+y,3/4-z
-x,1/2-y,1/2-z
3/4+x,1/4+y,1/2-z
-x,1/4+y,1/4+z
3/4+x,1/2-y,1/4+z
1/2+x,y,1/2+z
3/4-x,1/4-y,1/2+z
1/2+x,1/4-y,3/4-z
3/4-x,y,3/4-z
1/2-x,-y,1/2-z
1/4+x,3/4+y,1/2-z
1/2-x,3/4+y,1/4+z
1/4+x,-y,1/4+z
1/2+x,1/2+y,z
3/4-x,3/4-y,z
1/2+x,3/4-y,1/4-z
3/4-x,1/2+y,1/4-z
1/2-x,1/2-y,-z
1/4+x,1/4+y,-z
1/2-x,1/4+y,3/4+z
1/4+x,1/2-y,3/4+z
loop_
_atom_site_type_symbol
_atom_site_label
_atom_site_fract_x
_atom_site_fract_y
_atom_site_fract_z
Si Si1 0.713406 0.516839 0.381828
Si Si2 0.375000 0.085505 0.875000
Si Si3 0.823714 0.817670 0.311127
Si Si4 0.457356 0.375000 0.875000
Si Si5 0.822390 0.847843 0.701417
Si Si6 0.633760 0.318440 0.797841
O O1 0.696240 0.540973 0.472941
O O2 0.758673 0.454499 0.384075
O O3 0.723149 0.603627 0.339662
O O4 0.669971 0.471730 0.326810
O O5 0.369231 0.137854 0.791177
O O6 0.418200 0.018384 0.856760
O O7 0.793608 0.875000 0.375000
O O8 0.875000 0.875000 0.296253
O O9 0.426346 0.367641 0.792768
O O10 0.875000 0.875000 0.658241
O O11 0.824740 0.752412 0.704541
O O12 0.646234 0.375000 0.875000
#
# Coordination Sequence:
#
# PCOD9514415 Si02
#       6
#    32  16  32  16  32  32
#     4  11  21  41  64  88 127 166 203 261 319 367
#     4  10  19  30  57  96 124 160 210 264 299 365
#     4   9  18  33  61  94 124 160 215 256 308 364
#     4  12  23  42  62  94 122 162 210 258 324 372
#     4  10  25  39  64  89 127 161 208 254 312 373
#     4  11  21  38  63  93 126 165 214 256 305 373
#
# _framework density 22.548183999999999
#
# number of rings (size 3 to 8) (size 9 to 14) (size 15 to 20)
#    0.000    1.800    3.000    2.700    8.400    0.000 
#    3.600    1.000    0.000    2.400    0.000    0.000 
#    0.000    0.000    0.000    0.000    0.000    0.000 
#
# Total GULP energy -222848.625650 kJ/mol
# GULP energy per Si atom -5571.215641 kJ/mol
# Density = 2.249686 g / cm^3
# Si number density = 22.548184 Si / 1000 Ang^3
#
#
#
# Elastic Constant Matrix: (Units=GPa)
#
#
# Indices 1 2 3 4 5 6 
#
# 1 48.0383 34.4628 26.4051 0.0000 0.0000 0.0000
# 2 34.4628 173.1174 87.5742 0.0000 0.0000 0.0000
# 3 26.4051 87.5742 197.0310 0.0000 0.0000 0.0000
# 4 0.0000 0.0000 0.0000 43.3960 0.0000 0.0000
# 5 0.0000 0.0000 0.0000 0.0000 18.6263 0.0000
# 6 0.0000 0.0000 0.0000 0.0000 0.0000 -37.4363
#
#
#
# Elastic Compliance Matrix: (Units=1/GPa)
#
#
# Indices 1 2 3 4 5 6 
#
# 1 0.024600 -0.004166 -0.001445 0.000000 0.000000 0.000000
# 2 -0.004166 0.008158 -0.003067 0.000000 0.000000 0.000000
# 3 -0.001445 -0.003067 0.006632 0.000000 0.000000 0.000000
# 4 0.000000 0.000000 0.000000 0.023044 0.000000 0.000000
# 5 0.000000 0.000000 0.000000 0.000000 0.053687 0.000000
# 6 0.000000 0.000000 0.000000 0.000000 0.000000 -0.026712
#
#
# Mechanical properties :
#
#
# Convention : Reuss Voigt Hill
#
# Bulk Modulus (GPa) = 45.38750 79.45233 62.41992
# Shear Modulus (GPa) = 43.81735 22.90017 33.35876
#
# Velocity S-wave (km/s) = 4.41304 3.19032 3.85053
# Velocity P-wave (km/s) = 6.79260 6.99171 6.89288
#
# Compressibility (1/GPa) = 0.02203250
#
# Stress axis : x y z
#
# Youngs Moduli (GPa) = 40.65069 122.58651 150.77548
#
# Poissons Ratio (x) = 0.51071 0.21787
# Poissons Ratio (y) = 0.16936 0.46249
# Poissons Ratio (z) = 0.05874 0.37603
#
# Static dielectric constant tensor:
#      x y z
#    x 1.888360 0.000000 0.000000 
#    y 0.000000 1.890320 0.000000 
#    z 0.000000 0.000000 1.834830 
# 
# From -- ./inp_files/39547.got.cif
#   From: 2010.05.17/outbox.cif.g08.bks.cpg/sg70_20_cif.got.tgz:39547.got - 2010.06.03 15:57:51.
