data_PCOD9514635
_publ_section_title
;
Structure prediction by ZEFSAII (Michael W. Deem and Ramdas Pophale) SiO2 
 PCOD9514635
Probable space group: F D D D
;
_chemical_formula_sum "Si O2"
_cell_formula_units_Z 192
_cell_length_a 13.540489
_cell_length_b 23.695663
_cell_length_c 24.962513
_cell_angle_alpha 90.000000
_cell_angle_beta 90.000000
_cell_angle_gamma 90.000000
_cell_volume 8009.243869
_symmetry_space_group_name_H-M "F D D D"
_symmetry_group_IT_number 70
_space_group.IT_coordinate_system_code '2'
_symmetry_cell_setting 'orthorhombic'
loop_
_space_group_symop_operation_xyz
x,y,z
1/4-x,1/4-y,z
x,1/4-y,1/4-z
1/4-x,y,1/4-z
-x,-y,-z
3/4+x,3/4+y,-z
-x,3/4+y,3/4+z
3/4+x,-y,3/4+z
x,1/2+y,1/2+z
1/4-x,3/4-y,1/2+z
x,3/4-y,3/4-z
1/4-x,1/2+y,3/4-z
-x,1/2-y,1/2-z
3/4+x,1/4+y,1/2-z
-x,1/4+y,1/4+z
3/4+x,1/2-y,1/4+z
1/2+x,y,1/2+z
3/4-x,1/4-y,1/2+z
1/2+x,1/4-y,3/4-z
3/4-x,y,3/4-z
1/2-x,-y,1/2-z
1/4+x,3/4+y,1/2-z
1/2-x,3/4+y,1/4+z
1/4+x,-y,1/4+z
1/2+x,1/2+y,z
3/4-x,3/4-y,z
1/2+x,3/4-y,1/4-z
3/4-x,1/2+y,1/4-z
1/2-x,1/2-y,-z
1/4+x,1/4+y,-z
1/2-x,1/4+y,3/4+z
1/4+x,1/2-y,3/4+z
loop_
_atom_site_type_symbol
_atom_site_label
_atom_site_fract_x
_atom_site_fract_y
_atom_site_fract_z
Si Si1 0.552391 0.261378 0.355879
Si Si2 0.313629 0.422589 0.566581
Si Si3 0.375000 0.171142 0.875000
Si Si4 0.795588 0.154234 0.017374
Si Si5 0.042993 0.331665 0.328243
Si Si6 0.625000 0.625000 0.239118
Si Si7 0.207800 0.319240 0.691509
O O1 0.605506 0.220619 0.312872
O O2 0.508135 0.311517 0.319441
O O3 0.643748 0.282913 0.393204
O O4 0.482794 0.226756 0.396203
O O5 0.375000 0.375000 0.600491
O O6 0.214641 0.448626 0.592889
O O7 0.276538 0.386235 0.516103
O O8 0.430104 0.128718 0.835265
O O9 0.877627 0.112033 0.040641
O O10 0.859768 0.193094 0.976516
O O11 0.017226 0.375000 0.375000
O O12 0.942630 0.330553 0.294427
O O13 0.697870 0.665647 0.272501
#
# Coordination Sequence:
#
# PCOD9514635 Si02
#       7
#    32  32  16  32  32  16  32
#     4  11  22  40  67  96 129 184 225 266 352 413
#     4  11  22  41  66  94 132 175 226 278 335 405
#     4  10  20  42  58  90 134 168 210 288 322 378
#     4   9  23  41  62  97 135 170 221 289 325 407
#     4   9  20  40  62  91 135 173 210 279 339 398
#     4  10  19  38  64  90 132 168 214 279 336 396
#     4  10  20  37  63  88 128 174 216 269 340 394
#
# _framework density 23.972299
#
# number of rings (size 3 to 8) (size 9 to 14) (size 15 to 20)
#    0.000    2.000    1.667    1.250    2.333    1.333 
#    9.000    0.000    0.000    3.500    0.000    0.000 
#    0.000    0.000    0.000    0.000    0.000    0.000 
#
# Total GULP energy -267660.354527 kJ/mol
# GULP energy per Si atom -5576.257386 kJ/mol
# Density = 2.391774 g / cm^3
# Si number density = 23.972299 Si / 1000 Ang^3
#
#
#
# Elastic Constant Matrix: (Units=GPa)
#
#
# Indices 1 2 3 4 5 6 
#
# 1 122.0461 17.2788 59.3153 0.0000 0.0000 0.0000
# 2 17.2788 47.6106 30.7703 0.0000 0.0000 0.0000
# 3 59.3153 30.7703 119.2176 0.0000 0.0000 0.0000
# 4 0.0000 0.0000 0.0000 33.4930 0.0000 0.0000
# 5 0.0000 0.0000 0.0000 0.0000 11.8766 0.0000
# 6 0.0000 0.0000 0.0000 0.0000 0.0000 16.3346
#
#
#
# Elastic Compliance Matrix: (Units=1/GPa)
#
#
# Indices 1 2 3 4 5 6 
#
# 1 0.010818 -0.000537 -0.005244 0.000000 0.000000 0.000000
# 2 -0.000537 0.025235 -0.006246 0.000000 0.000000 0.000000
# 3 -0.005244 -0.006246 0.012609 0.000000 0.000000 0.000000
# 4 0.000000 0.000000 0.000000 0.029857 0.000000 0.000000
# 5 0.000000 0.000000 0.000000 0.000000 0.084199 0.000000
# 6 0.000000 0.000000 0.000000 0.000000 0.000000 0.061220
#
#
# Mechanical properties :
#
#
# Convention : Reuss Voigt Hill
#
# Bulk Modulus (GPa) = 40.63598 55.95593 48.29595
# Shear Modulus (GPa) = 19.51636 24.44152 21.97894
#
# Velocity S-wave (km/s) = 2.85638 3.19654 3.03123
# Velocity P-wave (km/s) = 5.27888 6.08411 5.69574
#
# Compressibility (1/GPa) = 0.02460873
#
# Stress axis : x y z
#
# Youngs Moduli (GPa) = 92.43667 39.62685 79.30733
#
# Poissons Ratio (x) = 0.02128 0.41588
# Poissons Ratio (y) = 0.04965 0.49536
# Poissons Ratio (z) = 0.48472 0.24751
#
# Static dielectric constant tensor:
#      x y z
#    x 2.124120 0.000000 0.000000 
#    y 0.000000 1.922490 0.000000 
#    z 0.000000 0.000000 2.099310 
# 
# From -- ./inp_files/58645.got.cif
#   From: 2010.05.17/outbox.cif.g08.bks.cpg/sg70_30_cif.got.tgz:58645.got - 2010.06.03 15:57:51.
