data_PCOD9514156
_publ_section_title
;
Structure prediction by ZEFSAII (Michael W. Deem and Ramdas Pophale) SiO2 
 PCOD9514156
Probable space group: F D D D
;
_chemical_formula_sum "Si O2"
_cell_formula_units_Z 208
_cell_length_a 21.118888
_cell_length_b 30.657846
_cell_length_c 16.183316
_cell_angle_alpha 90.000000
_cell_angle_beta 90.000000
_cell_angle_gamma 90.000000
_cell_volume 10478.043563
_symmetry_space_group_name_H-M "F D D D"
_symmetry_group_IT_number 70
_space_group.IT_coordinate_system_code '2'
_symmetry_cell_setting 'orthorhombic'
loop_
_space_group_symop_operation_xyz
x,y,z
1/4-x,1/4-y,z
x,1/4-y,1/4-z
1/4-x,y,1/4-z
-x,-y,-z
3/4+x,3/4+y,-z
-x,3/4+y,3/4+z
3/4+x,-y,3/4+z
x,1/2+y,1/2+z
1/4-x,3/4-y,1/2+z
x,3/4-y,3/4-z
1/4-x,1/2+y,3/4-z
-x,1/2-y,1/2-z
3/4+x,1/4+y,1/2-z
-x,1/4+y,1/4+z
3/4+x,1/2-y,1/4+z
1/2+x,y,1/2+z
3/4-x,1/4-y,1/2+z
1/2+x,1/4-y,3/4-z
3/4-x,y,3/4-z
1/2-x,-y,1/2-z
1/4+x,3/4+y,1/2-z
1/2-x,3/4+y,1/4+z
1/4+x,-y,1/4+z
1/2+x,1/2+y,z
3/4-x,3/4-y,z
1/2+x,3/4-y,1/4-z
3/4-x,1/2+y,1/4-z
1/2-x,1/2-y,-z
1/4+x,1/4+y,-z
1/2-x,1/4+y,3/4+z
1/4+x,1/2-y,3/4+z
loop_
_atom_site_type_symbol
_atom_site_label
_atom_site_fract_x
_atom_site_fract_y
_atom_site_fract_z
Si Si1 0.070148 0.902077 0.958645
Si Si2 0.204271 0.539511 0.719316
Si Si3 0.517196 0.125000 0.125000
Si Si4 0.875000 0.157590 0.375000
Si Si5 0.472469 0.517204 0.823273
Si Si6 0.816951 0.539997 0.600702
Si Si7 0.625000 0.625000 0.763805
Si Si8 0.384551 0.461238 0.131851
O O1 0.071448 0.875000 0.875000
O O2 0.116541 0.942390 0.936937
O O3 0.999081 0.918304 0.974252
O O4 0.101725 0.882869 0.042438
O O5 0.250000 0.500000 0.750000
O O6 0.195736 0.523838 0.624866
O O7 0.145665 0.543498 0.782182
O O8 0.472844 0.168161 0.130237
O O9 0.563536 0.120956 0.204145
O O10 0.817358 0.190306 0.352725
O O11 0.467553 0.516942 0.725461
O O12 0.545567 0.524437 0.841369
O O13 0.836903 0.499879 0.657729
O O14 0.631731 0.583130 0.822201
#
# Coordination Sequence:
#
# PCOD9514156 Si02
#       8
#    32  32  16  16  32  32  16  32
#     4  11  20  32  58  95 126 160 209 266 310 380
#     4  10  17  36  60  89 123 162 200 252 322 382
#     4  11  24  44  70  94 118 179 226 268 334 397
#     4  10  18  32  56  86 123 168 210 251 310 394
#     4  10  18  35  62  91 122 162 215 259 317 398
#     4  11  21  37  68  96 120 165 227 270 326 395
#     4  11  26  46  64  89 136 174 216 273 336 402
#     4  11  21  40  65  92 127 170 217 269 327 393
#
# _framework density 19.851033999999999
#
# number of rings (size 3 to 8) (size 9 to 14) (size 15 to 20)
#    0.000    1.385    8.462    0.923    0.000    0.615 
#    2.769    0.000    0.000    1.846    0.000    0.000 
#    0.000    0.000    0.000    0.000    0.000    0.000 
#
# Total GULP energy -289688.366955 kJ/mol
# GULP energy per Si atom -5570.930134 kJ/mol
# Density = 1.980585 g / cm^3
# Si number density = 19.851034 Si / 1000 Ang^3
#
#
#
# Elastic Constant Matrix: (Units=GPa)
#
#
# Indices 1 2 3 4 5 6 
#
# 1 75.0026 45.8212 18.3765 0.0000 0.0000 0.0000
# 2 45.8212 103.6693 54.5356 0.0000 0.0000 0.0000
# 3 18.3765 54.5356 87.6391 0.0000 0.0000 0.0000
# 4 0.0000 0.0000 0.0000 28.7436 0.0000 0.0000
# 5 0.0000 0.0000 0.0000 0.0000 18.1122 0.0000
# 6 0.0000 0.0000 0.0000 0.0000 0.0000 7.9451
#
#
#
# Elastic Compliance Matrix: (Units=1/GPa)
#
#
# Indices 1 2 3 4 5 6 
#
# 1 0.018452 -0.009099 0.001793 0.000000 0.000000 0.000000
# 2 -0.009099 0.018827 -0.009808 0.000000 0.000000 0.000000
# 3 0.001793 -0.009808 0.017138 0.000000 0.000000 0.000000
# 4 0.000000 0.000000 0.000000 0.034790 0.000000 0.000000
# 5 0.000000 0.000000 0.000000 0.000000 0.055212 0.000000
# 6 0.000000 0.000000 0.000000 0.000000 0.000000 0.125864
#
#
# Mechanical properties :
#
#
# Convention : Reuss Voigt Hill
#
# Bulk Modulus (GPa) = 49.53074 55.97529 52.75302
# Shear Modulus (GPa) = 16.06472 20.79869 18.43170
#
# Velocity S-wave (km/s) = 2.84784 3.24039 3.05044
# Velocity P-wave (km/s) = 5.98490 6.50070 6.24812
#
# Compressibility (1/GPa) = 0.02018948
#
# Stress axis : x y z
#
# Youngs Moduli (GPa) = 54.19336 53.11463 58.35121
#
# Poissons Ratio (x) = 0.48329 -0.10462
# Poissons Ratio (y) = 0.49311 0.57230
# Poissons Ratio (z) = -0.09717 0.52094
#
# Static dielectric constant tensor:
#      x y z
#    x 1.718960 0.000000 0.000000 
#    y 0.000000 1.730370 0.000000 
#    z 0.000000 0.000000 1.834100 
# 
# From -- ./inp_files/37836.got.cif
#   From: 2010.05.17/outbox.cif.g08.bks.cpg/sg70_19_cif.got.tgz:37836.got - 2010.06.03 15:57:51.
