data_PCOD9514610
_publ_section_title
;
Structure prediction by ZEFSAII (Michael W. Deem and Ramdas Pophale) SiO2 
 PCOD9514610
Probable space group: F D D D
;
_chemical_formula_sum "Si O2"
_cell_formula_units_Z 144
_cell_length_a 14.497746
_cell_length_b 34.657654
_cell_length_c 13.811179
_cell_angle_alpha 90.000000
_cell_angle_beta 90.000000
_cell_angle_gamma 90.000000
_cell_volume 6939.535509
_symmetry_space_group_name_H-M "F D D D"
_symmetry_group_IT_number 70
_space_group.IT_coordinate_system_code '2'
_symmetry_cell_setting 'orthorhombic'
loop_
_space_group_symop_operation_xyz
x,y,z
1/4-x,1/4-y,z
x,1/4-y,1/4-z
1/4-x,y,1/4-z
-x,-y,-z
3/4+x,3/4+y,-z
-x,3/4+y,3/4+z
3/4+x,-y,3/4+z
x,1/2+y,1/2+z
1/4-x,3/4-y,1/2+z
x,3/4-y,3/4-z
1/4-x,1/2+y,3/4-z
-x,1/2-y,1/2-z
3/4+x,1/4+y,1/2-z
-x,1/4+y,1/4+z
3/4+x,1/2-y,1/4+z
1/2+x,y,1/2+z
3/4-x,1/4-y,1/2+z
1/2+x,1/4-y,3/4-z
3/4-x,y,3/4-z
1/2-x,-y,1/2-z
1/4+x,3/4+y,1/2-z
1/2-x,3/4+y,1/4+z
1/4+x,-y,1/4+z
1/2+x,1/2+y,z
3/4-x,3/4-y,z
1/2+x,3/4-y,1/4-z
3/4-x,1/2+y,1/4-z
1/2-x,1/2-y,-z
1/4+x,1/4+y,-z
1/2-x,1/4+y,3/4+z
1/4+x,1/2-y,3/4+z
loop_
_atom_site_type_symbol
_atom_site_label
_atom_site_fract_x
_atom_site_fract_y
_atom_site_fract_z
Si Si1 0.223200 0.409893 0.074401
Si Si2 0.552475 0.921227 0.494997
Si Si3 0.739137 0.057177 0.951988
Si Si4 0.776974 0.471626 0.427307
Si Si5 0.875000 0.375000 0.716882
O O1 0.125000 0.419208 0.125000
O O2 0.206766 0.375065 0.997408
O O3 0.291227 0.392469 0.154301
O O4 0.274542 0.444890 0.021917
O O5 0.490246 0.934490 0.586350
O O6 0.657849 0.931832 0.515936
O O7 0.523276 0.945385 0.402505
O O8 0.671214 0.086108 0.009059
O O9 0.727858 0.011390 0.956917
O O10 0.875000 0.480893 0.375000
#
# Coordination Sequence:
#
# PCOD9514610 Si02
#       5
#    32  32  32  32  16
#     4  11  22  40  61  92 133 168 203 258 321 383
#     4  10  19  38  58  88 131 159 196 253 322 371
#     4  10  20  36  62  89 120 163 202 257 317 370
#     4  12  23  34  66 102 125 151 215 276 316 364
#     4  10  20  40  67  79 120 176 206 236 322 387
#
# _framework density 20.750668000000001
#
# number of rings (size 3 to 8) (size 9 to 14) (size 15 to 20)
#    0.000    1.333    6.667    4.000    3.111    0.889 
#    0.000    1.111    0.000    1.333    0.000    0.000 
#    0.000    0.000    0.000    0.000    0.000    0.000 
#
# Total GULP energy -200660.789615 kJ/mol
# GULP energy per Si atom -5573.910823 kJ/mol
# Density = 2.070344 g / cm^3
# Si number density = 20.750668 Si / 1000 Ang^3
#
#
#
# Elastic Constant Matrix: (Units=GPa)
#
#
# Indices 1 2 3 4 5 6 
#
# 1 89.7917 11.9980 10.7479 0.0000 0.0000 0.0000
# 2 11.9980 156.1722 14.7404 0.0000 0.0000 0.0000
# 3 10.7479 14.7404 16.3145 0.0000 0.0000 0.0000
# 4 0.0000 0.0000 0.0000 15.4052 0.0000 0.0000
# 5 0.0000 0.0000 0.0000 0.0000 18.5259 0.0000
# 6 0.0000 0.0000 0.0000 0.0000 0.0000 -8.2621
#
#
#
# Elastic Compliance Matrix: (Units=1/GPa)
#
#
# Indices 1 2 3 4 5 6 
#
# 1 0.012096 -0.000194 -0.007794 0.000000 0.000000 0.000000
# 2 -0.000194 0.007003 -0.006200 0.000000 0.000000 0.000000
# 3 -0.007794 -0.006200 0.072031 0.000000 0.000000 0.000000
# 4 0.000000 0.000000 0.000000 0.064913 0.000000 0.000000
# 5 0.000000 0.000000 0.000000 0.000000 0.053978 0.000000
# 6 0.000000 0.000000 0.000000 0.000000 0.000000 -0.121035
#
#
# Mechanical properties :
#
#
# Convention : Reuss Voigt Hill
#
# Bulk Modulus (GPa) = 15.93480 37.47234 26.70357
# Shear Modulus (GPa) = 36.15859 20.11994 28.13927
#
# Velocity S-wave (km/s) = 4.17889 3.11723 3.68647
# Velocity P-wave (km/s) = 5.56597 5.57259 5.56928
#
# Compressibility (1/GPa) = 0.06275575
#
# Stress axis : x y z
#
# Youngs Moduli (GPa) = 82.67447 142.79067 13.88288
#
# Poissons Ratio (x) = 0.02765 0.10820
# Poissons Ratio (y) = 0.01601 0.08607
# Poissons Ratio (z) = 0.64433 0.88530
#
# Static dielectric constant tensor:
#      x y z
#    x 1.743200 0.000000 0.000000 
#    y 0.000000 1.785390 0.000000 
#    z 0.000000 0.000000 1.762190 
# 
# From -- ./inp_files/33923.got.cif
#   From: 2010.05.17/outbox.cif.g08.bks.cpg/sg70_17_cif.got.tgz:33923.got - 2010.06.03 15:57:51.
