data_PCOD9514941
_publ_section_title
;
Structure prediction by ZEFSAII (Michael W. Deem and Ramdas Pophale) SiO2 
 PCOD9514941
Probable space group: F D D D
;
_chemical_formula_sum "Si O2"
_cell_formula_units_Z 112
_cell_length_a 9.665075
_cell_length_b 22.007324
_cell_length_c 25.351831
_cell_angle_alpha 90.000000
_cell_angle_beta 90.000000
_cell_angle_gamma 90.000000
_cell_volume 5392.396236
_symmetry_space_group_name_H-M "F D D D"
_symmetry_group_IT_number 70
_space_group.IT_coordinate_system_code '2'
_symmetry_cell_setting 'orthorhombic'
loop_
_space_group_symop_operation_xyz
x,y,z
1/4-x,1/4-y,z
x,1/4-y,1/4-z
1/4-x,y,1/4-z
-x,-y,-z
3/4+x,3/4+y,-z
-x,3/4+y,3/4+z
3/4+x,-y,3/4+z
x,1/2+y,1/2+z
1/4-x,3/4-y,1/2+z
x,3/4-y,3/4-z
1/4-x,1/2+y,3/4-z
-x,1/2-y,1/2-z
3/4+x,1/4+y,1/2-z
-x,1/4+y,1/4+z
3/4+x,1/2-y,1/4+z
1/2+x,y,1/2+z
3/4-x,1/4-y,1/2+z
1/2+x,1/4-y,3/4-z
3/4-x,y,3/4-z
1/2-x,-y,1/2-z
1/4+x,3/4+y,1/2-z
1/2-x,3/4+y,1/4+z
1/4+x,-y,1/4+z
1/2+x,1/2+y,z
3/4-x,3/4-y,z
1/2+x,3/4-y,1/4-z
3/4-x,1/2+y,1/4-z
1/2-x,1/2-y,-z
1/4+x,1/4+y,-z
1/2-x,1/4+y,3/4+z
1/4+x,1/2-y,3/4+z
loop_
_atom_site_type_symbol
_atom_site_label
_atom_site_fract_x
_atom_site_fract_y
_atom_site_fract_z
Si Si1 0.625000 0.625000 0.843894
Si Si2 0.359683 0.966618 0.185064
Si Si3 0.913264 0.058032 0.481212
Si Si4 0.264230 0.094492 0.209552
O O1 0.669815 0.679063 0.882642
O O2 0.503763 0.651426 0.808127
O O3 0.520194 0.961348 0.202715
O O4 0.275922 0.934235 0.232795
O O5 0.319082 0.036589 0.178641
O O6 0.871608 0.101792 0.529621
O O7 0.000000 0.000000 0.500000
O O8 0.125000 0.125000 0.188434
#
# Coordination Sequence:
#
# PCOD9514941 Si02
#       4
#    16  32  32  32
#     4  12  22  38  64  94 125 167 228 264 318 400
#     4  10  20  37  62  93 127 164 215 269 310 395
#     4  11  22  38  60  94 127 172 213 266 337 384
#     4   9  19  39  62  91 130 170 208 259 330 381
#
# _framework density 20.769987
#
# number of rings (size 3 to 8) (size 9 to 14) (size 15 to 20)
#    0.000    1.714    4.286    2.571    0.000    0.000 
#    0.000    1.429    0.000   12.000    0.000    0.000 
#    0.000    0.000    0.000    0.000    0.000    0.000 
#
# Total GULP energy -156552.303026 kJ/mol
# GULP energy per Si atom -5591.153680 kJ/mol
# Density = 2.072271 g / cm^3
# Si number density = 20.769987 Si / 1000 Ang^3
#
#
#
# Elastic Constant Matrix: (Units=GPa)
#
#
# Indices 1 2 3 4 5 6 
#
# 1 77.8729 89.5089 30.3734 0.0000 0.0000 0.0000
# 2 89.5089 220.3000 48.6898 0.0000 0.0000 0.0000
# 3 30.3734 48.6898 56.7098 0.0000 0.0000 0.0000
# 4 0.0000 0.0000 0.0000 41.3708 0.0000 0.0000
# 5 0.0000 0.0000 0.0000 0.0000 -6.2418 0.0000
# 6 0.0000 0.0000 0.0000 0.0000 0.0000 47.0122
#
#
#
# Elastic Compliance Matrix: (Units=1/GPa)
#
#
# Indices 1 2 3 4 5 6 
#
# 1 0.025599 -0.009097 -0.005900 0.000000 0.000000 0.000000
# 2 -0.009097 0.008835 -0.002713 0.000000 0.000000 0.000000
# 3 -0.005900 -0.002713 0.023123 0.000000 0.000000 0.000000
# 4 0.000000 0.000000 0.000000 0.024172 0.000000 0.000000
# 5 0.000000 0.000000 0.000000 0.000000 -0.160211 0.000000
# 6 0.000000 0.000000 0.000000 0.000000 0.000000 0.021271
#
#
# Mechanical properties :
#
#
# Convention : Reuss Voigt Hill
#
# Bulk Modulus (GPa) = 45.17436 76.89185 61.03311
# Shear Modulus (GPa) = -346.95736 28.84896 -159.05420
#
# Velocity S-wave (km/s) = -12.93871 3.73094 -8.76043
# Velocity P-wave (km/s) = 14.19213 7.46062 8.53685
#
# Compressibility (1/GPa) = 0.02213645
#
# Stress axis : x y z
#
# Youngs Moduli (GPa) = 39.06411 113.18518 43.24627
#
# Poissons Ratio (x) = 1.02964 0.25516
# Poissons Ratio (y) = 0.35536 0.11734
# Poissons Ratio (z) = 0.23049 0.30711
#
# Static dielectric constant tensor:
#      x y z
#    x 1.743580 0.000000 0.000000 
#    y 0.000000 1.742120 0.000000 
#    z 0.000000 0.000000 1.805040 
# 
# From -- ./inp_files/9535.got.cif
#   From: 2010.05.17/outbox.cif.g08.bks.cpg/sg70_5_cif.got.tgz:9535.got - 2010.06.03 15:57:51.
