data_PCOD9514810
_publ_section_title
;
Structure prediction by ZEFSAII (Michael W. Deem and Ramdas Pophale) SiO2 
 PCOD9514810
Probable space group: F D D D
;
_chemical_formula_sum "Si O2"
_cell_formula_units_Z 128
_cell_length_a 15.803045
_cell_length_b 15.204633
_cell_length_c 22.699697
_cell_angle_alpha 90.000000
_cell_angle_beta 90.000000
_cell_angle_gamma 90.000000
_cell_volume 5454.271834
_symmetry_space_group_name_H-M "F D D D"
_symmetry_group_IT_number 70
_space_group.IT_coordinate_system_code '2'
_symmetry_cell_setting 'orthorhombic'
loop_
_space_group_symop_operation_xyz
x,y,z
1/4-x,1/4-y,z
x,1/4-y,1/4-z
1/4-x,y,1/4-z
-x,-y,-z
3/4+x,3/4+y,-z
-x,3/4+y,3/4+z
3/4+x,-y,3/4+z
x,1/2+y,1/2+z
1/4-x,3/4-y,1/2+z
x,3/4-y,3/4-z
1/4-x,1/2+y,3/4-z
-x,1/2-y,1/2-z
3/4+x,1/4+y,1/2-z
-x,1/4+y,1/4+z
3/4+x,1/2-y,1/4+z
1/2+x,y,1/2+z
3/4-x,1/4-y,1/2+z
1/2+x,1/4-y,3/4-z
3/4-x,y,3/4-z
1/2-x,-y,1/2-z
1/4+x,3/4+y,1/2-z
1/2-x,3/4+y,1/4+z
1/4+x,-y,1/4+z
1/2+x,1/2+y,z
3/4-x,3/4-y,z
1/2+x,3/4-y,1/4-z
3/4-x,1/2+y,1/4-z
1/2-x,1/2-y,-z
1/4+x,1/4+y,-z
1/2-x,1/4+y,3/4+z
1/4+x,1/2-y,3/4+z
loop_
_atom_site_type_symbol
_atom_site_label
_atom_site_fract_x
_atom_site_fract_y
_atom_site_fract_z
Si Si1 0.450043 0.658414 0.755252
Si Si2 0.729852 0.375000 0.875000
Si Si3 0.125000 0.977904 0.625000
Si Si4 0.020816 0.740658 0.566060
Si Si5 0.723107 0.038104 0.689966
O O1 0.500000 0.750000 0.750000
O O2 0.429398 0.637310 0.686464
O O3 0.389280 0.674320 0.813136
O O4 0.502865 0.571436 0.774871
O O5 0.792991 0.459015 0.881409
O O6 0.990506 0.758675 0.632298
O O7 0.122667 0.728322 0.563961
O O8 0.999635 0.639398 0.556159
O O9 0.750000 0.000000 0.750000
#
# Coordination Sequence:
#
# PCOD9514810 Si02
#       5
#    32  16  16  32  32
#     4  10  20  35  58  85 119 158 190 238 293 344
#     4   9  20  36  56  84 114 150 198 235 278 348
#     4   9  18  36  58  81 114 156 192 231 290 343
#     4   9  19  34  53  83 111 138 193 233 274 347
#     4   9  18  35  59  79 105 148 184 236 290 326
#
# _framework density 23.467843999999999
#
# number of rings (size 3 to 8) (size 9 to 14) (size 15 to 20)
#    0.000    2.750    0.000    3.000    0.000    6.000 
#    0.000    5.000    0.000    6.000    0.000    0.000 
#    0.000    0.000    0.000    0.000    0.000    0.000 
#
# Total GULP energy -178191.494518 kJ/mol
# GULP energy per Si atom -5568.484204 kJ/mol
# Density = 2.341443 g / cm^3
# Si number density = 23.467844 Si / 1000 Ang^3
#
#
#
# Elastic Constant Matrix: (Units=GPa)
#
#
# Indices 1 2 3 4 5 6 
#
# 1 63.6653 21.5083 42.5495 0.0000 0.0000 0.0000
# 2 21.5083 120.5095 73.6920 0.0000 0.0000 0.0000
# 3 42.5495 73.6920 269.6491 0.0000 0.0000 0.0000
# 4 0.0000 0.0000 0.0000 49.8363 0.0000 0.0000
# 5 0.0000 0.0000 0.0000 0.0000 32.4864 0.0000
# 6 0.0000 0.0000 0.0000 0.0000 0.0000 7.4216
#
#
#
# Elastic Compliance Matrix: (Units=1/GPa)
#
#
# Indices 1 2 3 4 5 6 
#
# 1 0.017864 -0.001758 -0.002338 0.000000 0.000000 0.000000
# 2 -0.001758 0.010136 -0.002493 0.000000 0.000000 0.000000
# 3 -0.002338 -0.002493 0.004759 0.000000 0.000000 0.000000
# 4 0.000000 0.000000 0.000000 0.020066 0.000000 0.000000
# 5 0.000000 0.000000 0.000000 0.000000 0.030782 0.000000
# 6 0.000000 0.000000 0.000000 0.000000 0.000000 0.134743
#
#
# Mechanical properties :
#
#
# Convention : Reuss Voigt Hill
#
# Bulk Modulus (GPa) = 51.07223 81.03595 66.05409
# Shear Modulus (GPa) = 21.00356 39.02044 30.01200
#
# Velocity S-wave (km/s) = 2.99489 4.08207 3.57999
# Velocity P-wave (km/s) = 5.81111 7.53812 6.73024
#
# Compressibility (1/GPa) = 0.01958011
#
# Stress axis : x y z
#
# Youngs Moduli (GPa) = 55.97861 98.65627 210.14120
#
# Poissons Ratio (x) = 0.17348 0.49137
# Poissons Ratio (y) = 0.09844 0.52380
# Poissons Ratio (z) = 0.13089 0.24591
#
# Static dielectric constant tensor:
#      x y z
#    x 1.283890 0.000000 0.000000 
#    y 0.000000 1.910820 0.000000 
#    z 0.000000 0.000000 1.975290 
# 
# From -- ./inp_files/44499.got.cif
#   From: 2010.05.17/outbox.cif.g08.bks.cpg/sg70_23_cif.got.tgz:44499.got - 2010.06.03 15:57:51.
