data_PCOD9514282
_publ_section_title
;
Structure prediction by ZEFSAII (Michael W. Deem and Ramdas Pophale) SiO2 
 PCOD9514282
Probable space group: F D D D
;
_chemical_formula_sum "Si O2"
_cell_formula_units_Z 208
_cell_length_a 19.063342
_cell_length_b 34.170595
_cell_length_c 17.289337
_cell_angle_alpha 90.000000
_cell_angle_beta 90.000000
_cell_angle_gamma 90.000000
_cell_volume 11262.373342
_symmetry_space_group_name_H-M "F D D D"
_symmetry_group_IT_number 70
_space_group.IT_coordinate_system_code '2'
_symmetry_cell_setting 'orthorhombic'
loop_
_space_group_symop_operation_xyz
x,y,z
1/4-x,1/4-y,z
x,1/4-y,1/4-z
1/4-x,y,1/4-z
-x,-y,-z
3/4+x,3/4+y,-z
-x,3/4+y,3/4+z
3/4+x,-y,3/4+z
x,1/2+y,1/2+z
1/4-x,3/4-y,1/2+z
x,3/4-y,3/4-z
1/4-x,1/2+y,3/4-z
-x,1/2-y,1/2-z
3/4+x,1/4+y,1/2-z
-x,1/4+y,1/4+z
3/4+x,1/2-y,1/4+z
1/2+x,y,1/2+z
3/4-x,1/4-y,1/2+z
1/2+x,1/4-y,3/4-z
3/4-x,y,3/4-z
1/2-x,-y,1/2-z
1/4+x,3/4+y,1/2-z
1/2-x,3/4+y,1/4+z
1/4+x,-y,1/4+z
1/2+x,1/2+y,z
3/4-x,3/4-y,z
1/2+x,3/4-y,1/4-z
3/4-x,1/2+y,1/4-z
1/2-x,1/2-y,-z
1/4+x,1/4+y,-z
1/2-x,1/4+y,3/4+z
1/4+x,1/2-y,3/4+z
loop_
_atom_site_type_symbol
_atom_site_label
_atom_site_fract_x
_atom_site_fract_y
_atom_site_fract_z
Si Si1 0.337611 0.792328 0.484227
Si Si2 0.012358 0.241161 0.965335
Si Si3 0.028593 0.494867 0.383834
Si Si4 0.482044 0.093259 0.842483
Si Si5 0.088095 0.439484 0.851991
Si Si6 0.154349 0.885475 0.748690
Si Si7 0.625000 0.125000 0.476302
O O1 0.412744 0.773187 0.500543
O O2 0.294210 0.772615 0.415697
O O3 0.294977 0.782479 0.563263
O O4 0.347630 0.838338 0.474553
O O5 0.970358 0.252393 0.042617
O O6 0.028654 0.277913 0.911247
O O7 0.981659 0.203634 0.921161
O O8 0.087995 0.462403 0.400763
O O9 0.425250 0.110458 0.782206
O O10 0.559554 0.109064 0.823715
O O11 0.454757 0.105026 0.926865
O O12 0.084724 0.407451 0.784095
O O13 0.083767 0.416358 0.932380
#
# Coordination Sequence:
#
# PCOD9514282 Si02
#       7
#    32  32  32  32  32  32  16
#     4   9  20  32  51  82 113 151 186 227 286 348
#     4  10  20  35  55  84 114 150 191 241 290 351
#     4  10  18  35  54  78 118 151 189 232 283 354
#     4  10  21  38  59  86 118 152 200 243 300 357
#     4  10  21  36  59  83 114 153 196 244 294 346
#     4  10  21  39  60  86 115 155 200 246 293 361
#     4  10  20  36  55  87 114 150 188 244 298 337
#
# _framework density 18.468575999999999
#
# number of rings (size 3 to 8) (size 9 to 14) (size 15 to 20)
#    0.000    2.154    1.538    1.385    2.154    0.615 
#    5.538    3.077    0.000    1.846    0.000    0.000 
#    0.000    0.000    0.000    0.000    0.000    0.000 
#
# Total GULP energy -290131.748661 kJ/mol
# GULP energy per Si atom -5579.456705 kJ/mol
# Density = 1.842654 g / cm^3
# Si number density = 18.468576 Si / 1000 Ang^3
#
#
#
# Elastic Constant Matrix: (Units=GPa)
#
#
# Indices 1 2 3 4 5 6 
#
# 1 47.6136 5.8265 18.4997 0.0000 0.0000 0.0000
# 2 5.8265 72.4032 17.1621 0.0000 0.0000 0.0000
# 3 18.4997 17.1621 87.9263 0.0000 0.0000 0.0000
# 4 0.0000 0.0000 0.0000 18.2881 0.0000 0.0000
# 5 0.0000 0.0000 0.0000 0.0000 17.5197 0.0000
# 6 0.0000 0.0000 0.0000 0.0000 0.0000 27.6674
#
#
#
# Elastic Compliance Matrix: (Units=1/GPa)
#
#
# Indices 1 2 3 4 5 6 
#
# 1 0.022909 -0.000735 -0.004677 0.000000 0.000000 0.000000
# 2 -0.000735 0.014505 -0.002677 0.000000 0.000000 0.000000
# 3 -0.004677 -0.002677 0.012880 0.000000 0.000000 0.000000
# 4 0.000000 0.000000 0.000000 0.054680 0.000000 0.000000
# 5 0.000000 0.000000 0.000000 0.000000 0.057079 0.000000
# 6 0.000000 0.000000 0.000000 0.000000 0.000000 0.036144
#
#
# Mechanical properties :
#
#
# Convention : Reuss Voigt Hill
#
# Bulk Modulus (GPa) = 29.31044 32.32442 30.81743
# Shear Modulus (GPa) = 22.14880 23.79202 22.97041
#
# Velocity S-wave (km/s) = 3.46680 3.59310 3.53052
# Velocity P-wave (km/s) = 5.65065 5.89527 5.77426
#
# Compressibility (1/GPa) = 0.03411753
#
# Stress axis : x y z
#
# Youngs Moduli (GPa) = 43.65017 68.94107 77.64238
#
# Poissons Ratio (x) = 0.05068 0.36311
# Poissons Ratio (y) = 0.03209 0.20781
# Poissons Ratio (z) = 0.20414 0.18452
#
# Static dielectric constant tensor:
#      x y z
#    x 1.639640 0.000000 0.000000 
#    y 0.000000 1.635210 0.000000 
#    z 0.000000 0.000000 1.631280 
# 
# From -- ./inp_files/36891.got.cif
#   From: 2010.05.17/outbox.cif.g08.bks.cpg/sg70_19_cif.got.tgz:36891.got - 2010.06.03 15:57:51.
