data_PCOD9514413
_publ_section_title
;
Structure prediction by ZEFSAII (Michael W. Deem and Ramdas Pophale) SiO2 
 PCOD9514413
Probable space group: F D D D
;
_chemical_formula_sum "Si O2"
_cell_formula_units_Z 192
_cell_length_a 21.126147
_cell_length_b 19.457502
_cell_length_c 23.489546
_cell_angle_alpha 90.000000
_cell_angle_beta 90.000000
_cell_angle_gamma 90.000000
_cell_volume 9655.660874
_symmetry_space_group_name_H-M "F D D D"
_symmetry_group_IT_number 70
_space_group.IT_coordinate_system_code '2'
_symmetry_cell_setting 'orthorhombic'
loop_
_space_group_symop_operation_xyz
x,y,z
1/4-x,1/4-y,z
x,1/4-y,1/4-z
1/4-x,y,1/4-z
-x,-y,-z
3/4+x,3/4+y,-z
-x,3/4+y,3/4+z
3/4+x,-y,3/4+z
x,1/2+y,1/2+z
1/4-x,3/4-y,1/2+z
x,3/4-y,3/4-z
1/4-x,1/2+y,3/4-z
-x,1/2-y,1/2-z
3/4+x,1/4+y,1/2-z
-x,1/4+y,1/4+z
3/4+x,1/2-y,1/4+z
1/2+x,y,1/2+z
3/4-x,1/4-y,1/2+z
1/2+x,1/4-y,3/4-z
3/4-x,y,3/4-z
1/2-x,-y,1/2-z
1/4+x,3/4+y,1/2-z
1/2-x,3/4+y,1/4+z
1/4+x,-y,1/4+z
1/2+x,1/2+y,z
3/4-x,3/4-y,z
1/2+x,3/4-y,1/4-z
3/4-x,1/2+y,1/4-z
1/2-x,1/2-y,-z
1/4+x,1/4+y,-z
1/2-x,1/4+y,3/4+z
1/4+x,1/2-y,3/4+z
loop_
_atom_site_type_symbol
_atom_site_label
_atom_site_fract_x
_atom_site_fract_y
_atom_site_fract_z
Si Si1 0.875000 0.375000 0.499741
Si Si2 0.125733 0.707026 0.946021
Si Si3 0.739274 0.711688 0.884001
Si Si4 0.418078 0.687770 0.971283
Si Si5 0.125000 0.334785 0.125000
Si Si6 0.494526 0.653359 0.189146
Si Si7 0.706522 0.195222 0.836491
O O1 0.815389 0.354078 0.462236
O O2 0.848872 0.437029 0.539884
O O3 0.125000 0.625000 0.957923
O O4 0.177493 0.720989 0.896120
O O5 0.057824 0.724394 0.917861
O O6 0.128072 0.756233 0.000397
O O7 0.812856 0.711392 0.867838
O O8 0.727940 0.766784 0.932914
O O9 0.724500 0.634641 0.903316
O O10 0.383576 0.636235 0.928115
O O11 0.478119 0.724125 0.939076
O O12 0.448971 0.639050 0.019502
O O13 0.490537 0.625000 0.125000
#
# Coordination Sequence:
#
# PCOD9514413 Si02
#       7
#    16  32  32  32  16  32  32
#     4  10  19  30  52  84 122 159 184 230 288 364
#     4  10  19  40  66  82 115 166 208 252 309 370
#     4  10  20  38  55  84 119 158 198 234 304 375
#     4  10  22  41  59  89 122 158 203 261 302 362
#     4  10  24  38  58  88 126 162 200 252 314 364
#     4  11  22  34  54  89 125 152 194 239 292 359
#     4   9  19  38  58  84 115 163 201 238 305 368
#
# _framework density 19.884708
#
# number of rings (size 3 to 8) (size 9 to 14) (size 15 to 20)
#    0.000    2.000    4.167    0.250    2.333    6.000 
#    3.000    7.917    0.000    0.000    0.000    0.000 
#    0.000    0.000    0.000    0.000    0.000    0.000 
#
# Total GULP energy -267856.658892 kJ/mol
# GULP energy per Si atom -5580.347060 kJ/mol
# Density = 1.983945 g / cm^3
# Si number density = 19.884708 Si / 1000 Ang^3
#
#
#
# Elastic Constant Matrix: (Units=GPa)
#
#
# Indices 1 2 3 4 5 6 
#
# 1 63.5759 26.9349 15.6490 0.0000 0.0000 0.0000
# 2 26.9349 57.5726 24.1132 0.0000 0.0000 0.0000
# 3 15.6490 24.1132 80.1831 0.0000 0.0000 0.0000
# 4 0.0000 0.0000 0.0000 14.9020 0.0000 0.0000
# 5 0.0000 0.0000 0.0000 0.0000 36.4826 0.0000
# 6 0.0000 0.0000 0.0000 0.0000 0.0000 18.4786
#
#
#
# Elastic Compliance Matrix: (Units=1/GPa)
#
#
# Indices 1 2 3 4 5 6 
#
# 1 0.019723 -0.008712 -0.001229 0.000000 0.000000 0.000000
# 2 -0.008712 0.023721 -0.005433 0.000000 0.000000 0.000000
# 3 -0.001229 -0.005433 0.014345 0.000000 0.000000 0.000000
# 4 0.000000 0.000000 0.000000 0.067105 0.000000 0.000000
# 5 0.000000 0.000000 0.000000 0.000000 0.027410 0.000000
# 6 0.000000 0.000000 0.000000 0.000000 0.000000 0.054117
#
#
# Mechanical properties :
#
#
# Convention : Reuss Voigt Hill
#
# Bulk Modulus (GPa) = 36.98273 37.19175 37.08724
# Shear Modulus (GPa) = 20.31000 22.94827 21.62913
#
# Velocity S-wave (km/s) = 3.19938 3.40084 3.30165
# Velocity P-wave (km/s) = 5.68217 5.84510 5.76421
#
# Compressibility (1/GPa) = 0.02703965
#
# Stress axis : x y z
#
# Youngs Moduli (GPa) = 50.70241 42.15681 69.70947
#
# Poissons Ratio (x) = 0.36729 0.08569
# Poissons Ratio (y) = 0.44174 0.37874
# Poissons Ratio (z) = 0.06232 0.22905
#
# Static dielectric constant tensor:
#      x y z
#    x 1.738080 0.000000 0.000000 
#    y 0.000000 1.731140 0.000000 
#    z 0.000000 0.000000 1.752930 
# 
# From -- ./inp_files/53018.got.cif
#   From: 2010.05.17/outbox.cif.g08.bks.cpg/sg70_27_cif.got.tgz:53018.got - 2010.06.03 15:57:51.
