data_PCOD9514042
_publ_section_title
;
Structure prediction by ZEFSAII (Michael W. Deem and Ramdas Pophale) SiO2 
 PCOD9514042
Probable space group: F D D D
;
_chemical_formula_sum "Si O2"
_cell_formula_units_Z 96
_cell_length_a 18.645874
_cell_length_b 17.583004
_cell_length_c 11.706850
_cell_angle_alpha 90.000000
_cell_angle_beta 90.000000
_cell_angle_gamma 90.000000
_cell_volume 3838.096358
_symmetry_space_group_name_H-M "F D D D"
_symmetry_group_IT_number 70
_space_group.IT_coordinate_system_code '2'
_symmetry_cell_setting 'orthorhombic'
loop_
_space_group_symop_operation_xyz
x,y,z
1/4-x,1/4-y,z
x,1/4-y,1/4-z
1/4-x,y,1/4-z
-x,-y,-z
3/4+x,3/4+y,-z
-x,3/4+y,3/4+z
3/4+x,-y,3/4+z
x,1/2+y,1/2+z
1/4-x,3/4-y,1/2+z
x,3/4-y,3/4-z
1/4-x,1/2+y,3/4-z
-x,1/2-y,1/2-z
3/4+x,1/4+y,1/2-z
-x,1/4+y,1/4+z
3/4+x,1/2-y,1/4+z
1/2+x,y,1/2+z
3/4-x,1/4-y,1/2+z
1/2+x,1/4-y,3/4-z
3/4-x,y,3/4-z
1/2-x,-y,1/2-z
1/4+x,3/4+y,1/2-z
1/2-x,3/4+y,1/4+z
1/4+x,-y,1/4+z
1/2+x,1/2+y,z
3/4-x,3/4-y,z
1/2+x,3/4-y,1/4-z
3/4-x,1/2+y,1/4-z
1/2-x,1/2-y,-z
1/4+x,1/4+y,-z
1/2-x,1/4+y,3/4+z
1/4+x,1/2-y,3/4+z
loop_
_atom_site_type_symbol
_atom_site_label
_atom_site_fract_x
_atom_site_fract_y
_atom_site_fract_z
Si Si1 0.935400 0.665799 0.297725
Si Si2 0.067801 0.487089 0.810934
Si Si3 0.530308 0.706897 0.359619
O O1 0.875000 0.705571 0.375000
O O2 0.995945 0.499437 0.280216
O O3 0.960096 0.707132 0.182538
O O4 0.000957 0.628632 0.368267
O O5 0.102674 0.411385 0.750546
O O6 0.135021 0.539228 0.840925
O O7 0.500000 0.750000 0.250000
#
# Coordination Sequence:
#
# PCOD9514042 Si02
#       3
#    32  32  32
#     4   9  17  31  51  82 120 164 199 262 319 379
#     4   9  18  29  52  85 121 163 205 261 316 378
#     4  10  15  29  52  83 113 163 212 253 312 383
#
# _framework density 25.012398000000001
#
# number of rings (size 3 to 8) (size 9 to 14) (size 15 to 20)
#    2.000    0.667    3.333    1.000    0.000    0.000 
#    0.000    1.667    0.000    2.000    0.000    0.000 
#    0.000    0.000    0.000    5.333    0.000    0.000 
#
# Total GULP energy -133654.534744 kJ/mol
# GULP energy per Si atom -5568.938948 kJ/mol
# Density = 2.495547 g / cm^3
# Si number density = 25.012398 Si / 1000 Ang^3
#
#
#
# Elastic Constant Matrix: (Units=GPa)
#
#
# Indices 1 2 3 4 5 6 
#
# 1 169.6442 33.1208 89.2501 0.0000 0.0000 0.0000
# 2 33.1208 55.0265 59.3460 0.0000 0.0000 0.0000
# 3 89.2501 59.3460 205.7694 0.0000 0.0000 0.0000
# 4 0.0000 0.0000 0.0000 61.0897 0.0000 0.0000
# 5 0.0000 0.0000 0.0000 0.0000 51.0828 0.0000
# 6 0.0000 0.0000 0.0000 0.0000 0.0000 36.0732
#
#
#
# Elastic Compliance Matrix: (Units=1/GPa)
#
#
# Indices 1 2 3 4 5 6 
#
# 1 0.007722 -0.001503 -0.002916 0.000000 0.000000 0.000000
# 2 -0.001503 0.026671 -0.007040 0.000000 0.000000 0.000000
# 3 -0.002916 -0.007040 0.008155 0.000000 0.000000 0.000000
# 4 0.000000 0.000000 0.000000 0.016369 0.000000 0.000000
# 5 0.000000 0.000000 0.000000 0.000000 0.019576 0.000000
# 6 0.000000 0.000000 0.000000 0.000000 0.000000 0.027721
#
#
# Mechanical properties :
#
#
# Convention : Reuss Voigt Hill
#
# Bulk Modulus (GPa) = 50.94409 88.20822 69.57615
# Shear Modulus (GPa) = 36.85248 46.23069 41.54158
#
# Velocity S-wave (km/s) = 3.84261 4.30386 4.07976
# Velocity P-wave (km/s) = 6.33240 7.74855 7.07599
#
# Compressibility (1/GPa) = 0.01962936
#
# Stress axis : x y z
#
# Youngs Moduli (GPa) = 129.49624 37.49450 122.62509
#
# Poissons Ratio (x) = 0.05637 0.35756
# Poissons Ratio (y) = 0.19467 0.86328
# Poissons Ratio (z) = 0.37759 0.26396
#
# Static dielectric constant tensor:
#      x y z
#    x 2.079720 0.000000 0.000000 
#    y 0.000000 2.233960 0.000000 
#    z 0.000000 0.000000 1.959330 
# 
# From -- ./inp_files/17185.got.cif
#   From: 2010.05.17/outbox.cif.g08.bks.cpg/sg70_9_cif.got.tgz:17185.got - 2010.06.03 15:57:51.
