data_PCOD9514565
_publ_section_title
;
Structure prediction by ZEFSAII (Michael W. Deem and Ramdas Pophale) SiO2 
 PCOD9514565
Probable space group: F D D D
;
_chemical_formula_sum "Si O2"
_cell_formula_units_Z 216
_cell_length_a 15.190397
_cell_length_b 24.635861
_cell_length_c 32.080610
_cell_angle_alpha 90.000000
_cell_angle_beta 90.000000
_cell_angle_gamma 90.000000
_cell_volume 12005.478849
_symmetry_space_group_name_H-M "F D D D"
_symmetry_group_IT_number 70
_space_group.IT_coordinate_system_code '2'
_symmetry_cell_setting 'orthorhombic'
loop_
_space_group_symop_operation_xyz
x,y,z
1/4-x,1/4-y,z
x,1/4-y,1/4-z
1/4-x,y,1/4-z
-x,-y,-z
3/4+x,3/4+y,-z
-x,3/4+y,3/4+z
3/4+x,-y,3/4+z
x,1/2+y,1/2+z
1/4-x,3/4-y,1/2+z
x,3/4-y,3/4-z
1/4-x,1/2+y,3/4-z
-x,1/2-y,1/2-z
3/4+x,1/4+y,1/2-z
-x,1/4+y,1/4+z
3/4+x,1/2-y,1/4+z
1/2+x,y,1/2+z
3/4-x,1/4-y,1/2+z
1/2+x,1/4-y,3/4-z
3/4-x,y,3/4-z
1/2-x,-y,1/2-z
1/4+x,3/4+y,1/2-z
1/2-x,3/4+y,1/4+z
1/4+x,-y,1/4+z
1/2+x,1/2+y,z
3/4-x,3/4-y,z
1/2+x,3/4-y,1/4-z
3/4-x,1/2+y,1/4-z
1/2-x,1/2-y,-z
1/4+x,1/4+y,-z
1/2-x,1/4+y,3/4+z
1/4+x,1/2-y,3/4+z
loop_
_atom_site_type_symbol
_atom_site_label
_atom_site_fract_x
_atom_site_fract_y
_atom_site_fract_z
Si Si1 0.125000 0.625000 0.402638
Si Si2 0.606831 0.717184 0.279888
Si Si3 0.407586 0.119823 0.075452
Si Si4 0.989366 0.322882 0.301373
Si Si5 0.721074 0.312292 0.118637
Si Si6 0.775359 0.980664 0.295313
Si Si7 0.625000 0.125000 0.625000
Si Si8 0.020505 0.225688 0.556084
O O1 0.104924 0.575279 0.432822
O O2 0.206689 0.607309 0.375333
O O3 0.573618 0.685864 0.238645
O O4 0.545610 0.766824 0.296512
O O5 0.705476 0.741650 0.274822
O O6 0.388996 0.125000 0.125000
O O7 0.315753 0.130828 0.051131
O O8 0.459640 0.065534 0.062749
O O9 0.472773 0.169419 0.065352
O O10 0.933332 0.337377 0.343153
O O11 0.625000 0.336649 0.125000
O O12 0.730311 0.282507 0.075202
O O13 0.728464 0.264194 0.153051
O O14 0.878539 0.964528 0.294776
O O15 0.750000 0.000000 0.250000
#
# Coordination Sequence:
#
# PCOD9514565 Si02
#       8
#    16  32  32  32  32  32   8  32
#     4  10  19  36  62  77 110 160 195 236 300 349
#     4   9  20  40  60  84 117 157 205 246 291 365
#     4  11  20  37  64  88 118 157 197 249 300 365
#     4  10  22  37  59  91 121 154 203 249 302 358
#     4   9  19  36  57  81 110 149 198 236 286 366
#     4  11  23  36  57  91 123 147 191 254 306 351
#     4  12  22  36  60  92 122 156 200 260 312 348
#     4   9  19  38  62  84 109 159 202 237 298 363
#
# _framework density 17.991786000000001
#
# number of rings (size 3 to 8) (size 9 to 14) (size 15 to 20)
#    0.000    2.074    2.222    0.889    0.000    5.333 
#    4.000    0.000    0.000    0.000    0.000    0.000 
#    0.000    0.000    0.000    0.000    0.000    0.000 
#
# Total GULP energy -300739.450473 kJ/mol
# GULP energy per Si atom -5569.249083 kJ/mol
# Density = 1.795084 g / cm^3
# Si number density = 17.991786 Si / 1000 Ang^3
#
#
#
# Elastic Constant Matrix: (Units=GPa)
#
#
# Indices 1 2 3 4 5 6 
#
# 1 114.8326 46.6262 67.8081 0.0000 0.0000 0.0000
# 2 46.6262 60.6888 29.0873 0.0000 0.0000 0.0000
# 3 67.8081 29.0873 98.0990 0.0000 0.0000 0.0000
# 4 0.0000 0.0000 0.0000 17.3683 0.0000 0.0000
# 5 0.0000 0.0000 0.0000 0.0000 28.7236 0.0000
# 6 0.0000 0.0000 0.0000 0.0000 0.0000 24.7628
#
#
#
# Elastic Compliance Matrix: (Units=1/GPa)
#
#
# Indices 1 2 3 4 5 6 
#
# 1 0.018364 -0.009354 -0.009920 0.000000 0.000000 0.000000
# 2 -0.009354 0.023972 -0.000642 0.000000 0.000000 0.000000
# 3 -0.009920 -0.000642 0.017241 0.000000 0.000000 0.000000
# 4 0.000000 0.000000 0.000000 0.057576 0.000000 0.000000
# 5 0.000000 0.000000 0.000000 0.000000 0.034815 0.000000
# 6 0.000000 0.000000 0.000000 0.000000 0.000000 0.040383
#
#
# Mechanical properties :
#
#
# Convention : Reuss Voigt Hill
#
# Bulk Modulus (GPa) = 50.64712 62.29596 56.47154
# Shear Modulus (GPa) = 20.94099 22.84420 21.89260
#
# Velocity S-wave (km/s) = 3.41533 3.56715 3.49207
# Velocity P-wave (km/s) = 6.61543 7.18790 6.90760
#
# Compressibility (1/GPa) = 0.01974446
#
# Stress axis : x y z
#
# Youngs Moduli (GPa) = 54.45328 41.71526 58.00078
#
# Poissons Ratio (x) = 0.39022 0.57538
# Poissons Ratio (y) = 0.50938 0.03723
# Poissons Ratio (z) = 0.54019 0.02678
#
# Static dielectric constant tensor:
#      x y z
#    x 1.664370 0.000000 0.000000 
#    y 0.000000 1.618440 0.000000 
#    z 0.000000 0.000000 1.616330 
# 
# From -- ./inp_files/51634.got.cif
#   From: 2010.05.17/outbox.cif.g08.bks.cpg/sg70_26_cif.got.tgz:51634.got - 2010.06.03 15:57:51.
