data_PCOD9514678
_publ_section_title
;
Structure prediction by ZEFSAII (Michael W. Deem and Ramdas Pophale) SiO2 
 PCOD9514678
Probable space group: F D D D
;
_chemical_formula_sum "Si O2"
_cell_formula_units_Z 240
_cell_length_a 17.354086
_cell_length_b 26.787655
_cell_length_c 27.994014
_cell_angle_alpha 90.000000
_cell_angle_beta 90.000000
_cell_angle_gamma 90.000000
_cell_volume 13013.724778
_symmetry_space_group_name_H-M "F D D D"
_symmetry_group_IT_number 70
_space_group.IT_coordinate_system_code '2'
_symmetry_cell_setting 'orthorhombic'
loop_
_space_group_symop_operation_xyz
x,y,z
1/4-x,1/4-y,z
x,1/4-y,1/4-z
1/4-x,y,1/4-z
-x,-y,-z
3/4+x,3/4+y,-z
-x,3/4+y,3/4+z
3/4+x,-y,3/4+z
x,1/2+y,1/2+z
1/4-x,3/4-y,1/2+z
x,3/4-y,3/4-z
1/4-x,1/2+y,3/4-z
-x,1/2-y,1/2-z
3/4+x,1/4+y,1/2-z
-x,1/4+y,1/4+z
3/4+x,1/2-y,1/4+z
1/2+x,y,1/2+z
3/4-x,1/4-y,1/2+z
1/2+x,1/4-y,3/4-z
3/4-x,y,3/4-z
1/2-x,-y,1/2-z
1/4+x,3/4+y,1/2-z
1/2-x,3/4+y,1/4+z
1/4+x,-y,1/4+z
1/2+x,1/2+y,z
3/4-x,3/4-y,z
1/2+x,3/4-y,1/4-z
3/4-x,1/2+y,1/4-z
1/2-x,1/2-y,-z
1/4+x,1/4+y,-z
1/2-x,1/4+y,3/4+z
1/4+x,1/2-y,3/4+z
loop_
_atom_site_type_symbol
_atom_site_label
_atom_site_fract_x
_atom_site_fract_y
_atom_site_fract_z
Si Si1 0.952639 0.198443 0.744825
Si Si2 0.781827 0.662816 0.269405
Si Si3 0.581403 0.032230 0.838947
Si Si4 0.235229 0.667362 0.664306
Si Si5 0.790276 0.356055 0.075982
Si Si6 0.906216 0.067359 0.611239
Si Si7 0.625000 0.244023 0.625000
Si Si8 0.744716 0.927227 0.659027
O O1 0.863207 0.191677 0.761920
O O2 0.950947 0.188885 0.688315
O O3 0.000000 0.250000 0.750000
O O4 0.996050 0.159333 0.778735
O O5 0.721973 0.698918 0.296208
O O6 0.749576 0.647769 0.217444
O O7 0.783895 0.613238 0.302212
O O8 0.551947 0.059638 0.887504
O O9 0.668777 0.052234 0.831000
O O10 0.573588 0.973494 0.849028
O O11 0.219590 0.625000 0.625000
O O12 0.316039 0.692381 0.649346
O O13 0.169540 0.708378 0.661624
O O14 0.875000 0.375000 0.063489
O O15 0.749572 0.397974 0.108392
O O16 0.913145 0.125000 0.625000
O O17 0.564238 0.278022 0.652722
#
# Coordination Sequence:
#
# PCOD9514678 Si02
#       8
#    32  32  32  32  32  32  16  32
#     4  11  21  39  64  87 120 165 207 247 310 371
#     4  10  23  41  64  91 120 162 211 252 307 373
#     4  10  19  40  63  88 121 164 202 257 311 364
#     4  10  23  42  60  82 124 167 197 242 310 374
#     4   9  19  36  64  87 119 158 198 254 305 362
#     4  10  21  42  60  82 123 166 203 248 309 368
#     4  12  21  36  62  94 122 154 203 256 300 378
#     4  10  21  38  63  92 126 154 207 266 311 358
#
# _framework density 18.442067999999999
#
# number of rings (size 3 to 8) (size 9 to 14) (size 15 to 20)
#    0.000    1.867    2.667    2.200    0.000    3.733 
#   12.000    1.333    0.000    0.000    0.000    0.000 
#    0.000    0.000    0.000    0.000    0.000    0.000 
#
# Total GULP energy -334632.578826 kJ/mol
# GULP energy per Si atom -5577.209647 kJ/mol
# Density = 1.840009 g / cm^3
# Si number density = 18.442068 Si / 1000 Ang^3
#
#
#
# Elastic Constant Matrix: (Units=GPa)
#
#
# Indices 1 2 3 4 5 6 
#
# 1 85.1155 44.8221 52.8433 0.0000 0.0000 0.0000
# 2 44.8221 73.9673 32.8134 0.0000 0.0000 0.0000
# 3 52.8433 32.8134 90.3668 0.0000 0.0000 0.0000
# 4 0.0000 0.0000 0.0000 17.6406 0.0000 0.0000
# 5 0.0000 0.0000 0.0000 0.0000 28.2922 0.0000
# 6 0.0000 0.0000 0.0000 0.0000 0.0000 34.5985
#
#
#
# Elastic Compliance Matrix: (Units=1/GPa)
#
#
# Indices 1 2 3 4 5 6 
#
# 1 0.022923 -0.009469 -0.009966 0.000000 0.000000 0.000000
# 2 -0.009469 0.020027 -0.001735 0.000000 0.000000 0.000000
# 3 -0.009966 -0.001735 0.017524 0.000000 0.000000 0.000000
# 4 0.000000 0.000000 0.000000 0.056687 0.000000 0.000000
# 5 0.000000 0.000000 0.000000 0.000000 0.035345 0.000000
# 6 0.000000 0.000000 0.000000 0.000000 0.000000 0.028903
#
#
# Mechanical properties :
#
#
# Convention : Reuss Voigt Hill
#
# Bulk Modulus (GPa) = 55.14690 56.71189 55.92939
# Shear Modulus (GPa) = 21.75862 24.03764 22.89813
#
# Velocity S-wave (km/s) = 3.43860 3.61420 3.52749
# Velocity P-wave (km/s) = 6.76262 6.94512 6.85448
#
# Compressibility (1/GPa) = 0.01813339
#
# Stress axis : x y z
#
# Youngs Moduli (GPa) = 43.62506 49.93190 57.06579
#
# Poissons Ratio (x) = 0.47283 0.56871
# Poissons Ratio (y) = 0.41310 0.09900
# Poissons Ratio (z) = 0.43476 0.08662
#
# Static dielectric constant tensor:
#      x y z
#    x 1.645320 0.000000 0.000000 
#    y 0.000000 1.655540 0.000000 
#    z 0.000000 0.000000 1.621230 
# 
# From -- ./inp_files/59824.got.cif
#   From: 2010.05.17/outbox.cif.g08.bks.cpg/sg70_30_cif.got.tgz:59824.got - 2010.06.03 15:57:51.
