data_PCOD9514480
_publ_section_title
;
Structure prediction by ZEFSAII (Michael W. Deem and Ramdas Pophale) SiO2 
 PCOD9514480
Probable space group: F D D D
;
_chemical_formula_sum "Si O2"
_cell_formula_units_Z 112
_cell_length_a 12.291742
_cell_length_b 16.026022
_cell_length_c 22.405471
_cell_angle_alpha 90.000000
_cell_angle_beta 90.000000
_cell_angle_gamma 90.000000
_cell_volume 4413.602821
_symmetry_space_group_name_H-M "F D D D"
_symmetry_group_IT_number 70
_space_group.IT_coordinate_system_code '2'
_symmetry_cell_setting 'orthorhombic'
loop_
_space_group_symop_operation_xyz
x,y,z
1/4-x,1/4-y,z
x,1/4-y,1/4-z
1/4-x,y,1/4-z
-x,-y,-z
3/4+x,3/4+y,-z
-x,3/4+y,3/4+z
3/4+x,-y,3/4+z
x,1/2+y,1/2+z
1/4-x,3/4-y,1/2+z
x,3/4-y,3/4-z
1/4-x,1/2+y,3/4-z
-x,1/2-y,1/2-z
3/4+x,1/4+y,1/2-z
-x,1/4+y,1/4+z
3/4+x,1/2-y,1/4+z
1/2+x,y,1/2+z
3/4-x,1/4-y,1/2+z
1/2+x,1/4-y,3/4-z
3/4-x,y,3/4-z
1/2-x,-y,1/2-z
1/4+x,3/4+y,1/2-z
1/2-x,3/4+y,1/4+z
1/4+x,-y,1/4+z
1/2+x,1/2+y,z
3/4-x,3/4-y,z
1/2+x,3/4-y,1/4-z
3/4-x,1/2+y,1/4-z
1/2-x,1/2-y,-z
1/4+x,1/4+y,-z
1/2-x,1/4+y,3/4+z
1/4+x,1/2-y,3/4+z
loop_
_atom_site_type_symbol
_atom_site_label
_atom_site_fract_x
_atom_site_fract_y
_atom_site_fract_z
Si Si1 0.773105 0.986622 0.840880
Si Si2 0.887650 0.102456 0.739366
Si Si3 0.563596 0.997261 0.188094
Si Si4 0.375000 0.875000 0.143811
O O1 0.875000 0.954998 0.875000
O O2 0.832682 0.040638 0.788380
O O3 0.705610 0.054196 0.881195
O O4 0.694978 0.915976 0.814867
O O5 0.886138 0.194344 0.766444
O O6 0.006784 0.077263 0.716676
O O7 0.625000 0.008670 0.125000
O O8 0.458484 0.935338 0.178932
#
# Coordination Sequence:
#
# PCOD9514480 Si02
#       4
#    32  32  32  16
#     4   9  16  28  49  81 120 153 196 256 315 373
#     4   9  18  32  53  86 121 159 208 259 316 384
#     4  10  19  34  58  88 124 161 208 266 325 383
#     4   8  14  26  48  76 111 152 189 238 310 374
#
# _framework density 25.376093000000001
#
# number of rings (size 3 to 8) (size 9 to 14) (size 15 to 20)
#    0.000    2.857    0.000    5.143    0.000    0.000 
#    0.000    4.286    0.000   15.429    0.000   36.000 
#    0.000    0.000    0.000    0.000    0.000    4.857 
#
# Total GULP energy -156261.750386 kJ/mol
# GULP energy per Si atom -5580.776800 kJ/mol
# Density = 2.531834 g / cm^3
# Si number density = 25.376093 Si / 1000 Ang^3
#
#
#
# Elastic Constant Matrix: (Units=GPa)
#
#
# Indices 1 2 3 4 5 6 
#
# 1 153.7017 88.9560 76.1907 0.0000 0.0000 0.0000
# 2 88.9560 84.9228 61.3222 0.0000 0.0000 0.0000
# 3 76.1907 61.3222 102.9835 0.0000 0.0000 0.0000
# 4 0.0000 0.0000 0.0000 7.0004 0.0000 0.0000
# 5 0.0000 0.0000 0.0000 0.0000 35.7049 0.0000
# 6 0.0000 0.0000 0.0000 0.0000 0.0000 20.9058
#
#
#
# Elastic Compliance Matrix: (Units=1/GPa)
#
#
# Indices 1 2 3 4 5 6 
#
# 1 0.017216 -0.015502 -0.003506 0.000000 0.000000 0.000000
# 2 -0.015502 0.034616 -0.009144 0.000000 0.000000 0.000000
# 3 -0.003506 -0.009144 0.017749 0.000000 0.000000 0.000000
# 4 0.000000 0.000000 0.000000 0.142849 0.000000 0.000000
# 5 0.000000 0.000000 0.000000 0.000000 0.028007 0.000000
# 6 0.000000 0.000000 0.000000 0.000000 0.000000 0.047834
#
#
# Mechanical properties :
#
#
# Convention : Reuss Voigt Hill
#
# Bulk Modulus (GPa) = 75.31494 88.28287 81.79890
# Shear Modulus (GPa) = 14.32666 20.39816 17.36241
#
# Velocity S-wave (km/s) = 2.37865 2.83827 2.61857
# Velocity P-wave (km/s) = 6.10638 6.75325 6.43794
#
# Compressibility (1/GPa) = 0.01327758
#
# Stress axis : x y z
#
# Youngs Moduli (GPa) = 58.08581 28.88860 56.34114
#
# Poissons Ratio (x) = 0.44782 0.19755
# Poissons Ratio (y) = 0.90042 0.51516
# Poissons Ratio (z) = 0.20367 0.26414
#
# Static dielectric constant tensor:
#      x y z
#    x 2.007050 0.000000 0.000000 
#    y 0.000000 2.034570 0.000000 
#    z 0.000000 0.000000 2.085080 
# 
# From -- ./inp_files/49896.got.cif
#   From: 2010.05.17/outbox.cif.g08.bks.cpg/sg70_25_cif.got.tgz:49896.got - 2010.06.03 15:57:51.
