data_PCOD9514186
_publ_section_title
;
Structure prediction by ZEFSAII (Michael W. Deem and Ramdas Pophale) SiO2 
 PCOD9514186
Probable space group: F D D D
;
_chemical_formula_sum "Si O2"
_cell_formula_units_Z 128
_cell_length_a 13.221759
_cell_length_b 16.861417
_cell_length_c 23.806608
_cell_angle_alpha 90.000000
_cell_angle_beta 90.000000
_cell_angle_gamma 90.000000
_cell_volume 5307.387861
_symmetry_space_group_name_H-M "F D D D"
_symmetry_group_IT_number 70
_space_group.IT_coordinate_system_code '2'
_symmetry_cell_setting 'orthorhombic'
loop_
_space_group_symop_operation_xyz
x,y,z
1/4-x,1/4-y,z
x,1/4-y,1/4-z
1/4-x,y,1/4-z
-x,-y,-z
3/4+x,3/4+y,-z
-x,3/4+y,3/4+z
3/4+x,-y,3/4+z
x,1/2+y,1/2+z
1/4-x,3/4-y,1/2+z
x,3/4-y,3/4-z
1/4-x,1/2+y,3/4-z
-x,1/2-y,1/2-z
3/4+x,1/4+y,1/2-z
-x,1/4+y,1/4+z
3/4+x,1/2-y,1/4+z
1/2+x,y,1/2+z
3/4-x,1/4-y,1/2+z
1/2+x,1/4-y,3/4-z
3/4-x,y,3/4-z
1/2-x,-y,1/2-z
1/4+x,3/4+y,1/2-z
1/2-x,3/4+y,1/4+z
1/4+x,-y,1/4+z
1/2+x,1/2+y,z
3/4-x,3/4-y,z
1/2+x,3/4-y,1/4-z
3/4-x,1/2+y,1/4-z
1/2-x,1/2-y,-z
1/4+x,1/4+y,-z
1/2-x,1/4+y,3/4+z
1/4+x,1/2-y,3/4+z
loop_
_atom_site_type_symbol
_atom_site_label
_atom_site_fract_x
_atom_site_fract_y
_atom_site_fract_z
Si Si1 0.997758 0.165236 0.820333
Si Si2 0.407910 0.284746 0.063396
Si Si3 0.259851 0.984281 0.384035
Si Si4 0.913218 0.733008 0.509611
O O1 0.993983 0.074778 0.841302
O O2 0.894363 0.183459 0.788181
O O3 0.028635 0.210007 0.877968
O O4 0.083203 0.199282 0.777623
O O5 0.375000 0.375000 0.047502
O O6 0.305185 0.239587 0.077865
O O7 0.480829 0.243543 0.019077
O O8 0.375000 0.961764 0.375000
O O9 0.198680 0.939612 0.433203
#
# Coordination Sequence:
#
# PCOD9514186 Si02
#       4
#    32  32  32  32
#     4   9  18  33  54  80 104 133 178 224 263 319
#     4   9  17  31  53  78 103 136 175 217 261 312
#     4  10  20  34  53  78 107 140 181 219 261 321
#     4  10  18  30  55  80 103 134 178 224 267 308
#
# _framework density 24.117325000000001
#
# number of rings (size 3 to 8) (size 9 to 14) (size 15 to 20)
#    0.000    2.500    0.000    6.000    0.000    1.000 
#    0.000    0.000    0.000   48.750    0.000    0.000 
#    0.000    0.000    0.000    0.000    0.000    0.000 
#
# Total GULP energy -178481.276854 kJ/mol
# GULP energy per Si atom -5577.539902 kJ/mol
# Density = 2.406243 g / cm^3
# Si number density = 24.117325 Si / 1000 Ang^3
#
#
#
# Elastic Constant Matrix: (Units=GPa)
#
#
# Indices 1 2 3 4 5 6 
#
# 1 180.0746 21.0240 33.1967 0.0000 0.0000 0.0000
# 2 21.0240 89.5190 12.9992 0.0000 0.0000 0.0000
# 3 33.1967 12.9992 51.1275 0.0000 0.0000 0.0000
# 4 0.0000 0.0000 0.0000 17.8782 0.0000 0.0000
# 5 0.0000 0.0000 0.0000 0.0000 72.1359 0.0000
# 6 0.0000 0.0000 0.0000 0.0000 0.0000 17.8715
#
#
#
# Elastic Compliance Matrix: (Units=1/GPa)
#
#
# Indices 1 2 3 4 5 6 
#
# 1 0.006382 -0.000932 -0.003907 0.000000 0.000000 0.000000
# 2 -0.000932 0.011735 -0.002379 0.000000 0.000000 0.000000
# 3 -0.003907 -0.002379 0.022701 0.000000 0.000000 0.000000
# 4 0.000000 0.000000 0.000000 0.055934 0.000000 0.000000
# 5 0.000000 0.000000 0.000000 0.000000 0.013863 0.000000
# 6 0.000000 0.000000 0.000000 0.000000 0.000000 0.055955
#
#
# Mechanical properties :
#
#
# Convention : Reuss Voigt Hill
#
# Bulk Modulus (GPa) = 37.90321 50.57345 44.23833
# Shear Modulus (GPa) = 26.34364 38.47719 32.41042
#
# Velocity S-wave (km/s) = 3.30860 3.99860 3.66985
# Velocity P-wave (km/s) = 5.50873 6.50643 6.02826
#
# Compressibility (1/GPa) = 0.02638299
#
# Stress axis : x y z
#
# Youngs Moduli (GPa) = 156.68354 85.21504 44.05170
#
# Poissons Ratio (x) = 0.07938 0.17212
# Poissons Ratio (y) = 0.14596 0.10479
# Poissons Ratio (z) = 0.61218 0.20271
#
# Static dielectric constant tensor:
#      x y z
#    x 1.977490 0.000000 0.000000 
#    y 0.000000 1.968500 0.000000 
#    z 0.000000 0.000000 1.964060 
# 
# From -- ./inp_files/18810.got.cif
#   From: 2010.05.17/outbox.cif.g08.bks.cpg/sg70_10_cif.got.tgz:18810.got - 2010.06.03 15:57:51.
