data_PCOD9514427
_publ_section_title
;
Structure prediction by ZEFSAII (Michael W. Deem and Ramdas Pophale) SiO2 
 PCOD9514427
Probable space group: F D D D
;
_chemical_formula_sum "Si O2"
_cell_formula_units_Z 208
_cell_length_a 18.595374
_cell_length_b 20.711929
_cell_length_c 29.349714
_cell_angle_alpha 90.000000
_cell_angle_beta 90.000000
_cell_angle_gamma 90.000000
_cell_volume 11303.926886
_symmetry_space_group_name_H-M "F D D D"
_symmetry_group_IT_number 70
_space_group.IT_coordinate_system_code '2'
_symmetry_cell_setting 'orthorhombic'
loop_
_space_group_symop_operation_xyz
x,y,z
1/4-x,1/4-y,z
x,1/4-y,1/4-z
1/4-x,y,1/4-z
-x,-y,-z
3/4+x,3/4+y,-z
-x,3/4+y,3/4+z
3/4+x,-y,3/4+z
x,1/2+y,1/2+z
1/4-x,3/4-y,1/2+z
x,3/4-y,3/4-z
1/4-x,1/2+y,3/4-z
-x,1/2-y,1/2-z
3/4+x,1/4+y,1/2-z
-x,1/4+y,1/4+z
3/4+x,1/2-y,1/4+z
1/2+x,y,1/2+z
3/4-x,1/4-y,1/2+z
1/2+x,1/4-y,3/4-z
3/4-x,y,3/4-z
1/2-x,-y,1/2-z
1/4+x,3/4+y,1/2-z
1/2-x,3/4+y,1/4+z
1/4+x,-y,1/4+z
1/2+x,1/2+y,z
3/4-x,3/4-y,z
1/2+x,3/4-y,1/4-z
3/4-x,1/2+y,1/4-z
1/2-x,1/2-y,-z
1/4+x,1/4+y,-z
1/2-x,1/4+y,3/4+z
1/4+x,1/2-y,3/4+z
loop_
_atom_site_type_symbol
_atom_site_label
_atom_site_fract_x
_atom_site_fract_y
_atom_site_fract_z
Si Si1 0.091607 0.818028 0.537908
Si Si2 0.125000 0.515261 0.625000
Si Si3 0.149003 0.378522 0.799913
Si Si4 0.057941 0.744815 0.991099
Si Si5 0.096048 0.288508 0.675816
Si Si6 0.512568 0.657933 0.672773
Si Si7 0.742111 0.625000 0.125000
Si Si8 0.625000 0.125000 0.249377
O O1 0.127114 0.780416 0.580297
O O2 0.142317 0.826663 0.494160
O O3 0.073590 0.892020 0.553594
O O4 0.021392 0.781284 0.518903
O O5 0.190636 0.564324 0.614970
O O6 0.181957 0.310865 0.784639
O O7 0.203830 0.402865 0.837223
O O8 0.069764 0.361644 0.818860
O O9 0.089715 0.760110 0.041861
O O10 0.112249 0.689618 0.972977
O O11 0.125000 0.297809 0.625000
O O12 0.033834 0.233775 0.673599
O O13 0.535610 0.625000 0.625000
O O14 0.557517 0.630622 0.715407
#
# Coordination Sequence:
#
# PCOD9514427 Si02
#       8
#    32  16  32  32  32  32  16  16
#     4  11  22  41  63  90 122 164 205 262 319 365
#     4  11  24  46  70  86 117 166 210 266 321 374
#     4  11  23  37  61  94 121 157 209 262 305 369
#     4  10  21  35  56  87 127 158 204 252 305 366
#     4  10  22  35  58  91 126 169 207 241 304 388
#     4  11  20  33  55  88 127 165 199 244 297 363
#     4  11  24  44  68  95 114 156 220 263 320 378
#     4  10  19  32  56  82 122 168 194 230 300 371
#
# _framework density 18.400684999999999
#
# number of rings (size 3 to 8) (size 9 to 14) (size 15 to 20)
#    0.000    1.385    4.615    2.077    2.154    2.462 
#    0.000    0.000    0.000    0.000    0.000    0.000 
#    0.000    0.000    0.000    0.000    0.000    0.000 
#
# Total GULP energy -289758.419501 kJ/mol
# GULP energy per Si atom -5572.277298 kJ/mol
# Density = 1.835880 g / cm^3
# Si number density = 18.400685 Si / 1000 Ang^3
#
#
#
# Elastic Constant Matrix: (Units=GPa)
#
#
# Indices 1 2 3 4 5 6 
#
# 1 86.2040 23.2139 29.8029 0.0000 0.0000 0.0000
# 2 23.2139 75.1641 15.3855 0.0000 0.0000 0.0000
# 3 29.8029 15.3855 75.2831 0.0000 0.0000 0.0000
# 4 0.0000 0.0000 0.0000 -65.7960 0.0000 0.0000
# 5 0.0000 0.0000 0.0000 0.0000 12.4488 0.0000
# 6 0.0000 0.0000 0.0000 0.0000 0.0000 10.2945
#
#
#
# Elastic Compliance Matrix: (Units=1/GPa)
#
#
# Indices 1 2 3 4 5 6 
#
# 1 0.014218 -0.003380 -0.004938 0.000000 0.000000 0.000000
# 2 -0.003380 0.014689 -0.001664 0.000000 0.000000 0.000000
# 3 -0.004938 -0.001664 0.015578 0.000000 0.000000 0.000000
# 4 0.000000 0.000000 0.000000 -0.015198 0.000000 0.000000
# 5 0.000000 0.000000 0.000000 0.000000 0.080329 0.000000
# 6 0.000000 0.000000 0.000000 0.000000 0.000000 0.097139
#
#
# Mechanical properties :
#
#
# Convention : Reuss Voigt Hill
#
# Bulk Modulus (GPa) = 40.78139 41.49510 41.13824
# Shear Modulus (GPa) = 21.28641 2.60604 11.94622
#
# Velocity S-wave (km/s) = 3.40491 1.19136 2.55076
# Velocity P-wave (km/s) = 6.13750 4.94897 5.57500
#
# Compressibility (1/GPa) = 0.02452099
#
# Stress axis : x y z
#
# Youngs Moduli (GPa) = 70.33450 68.07925 64.19337
#
# Poissons Ratio (x) = 0.23013 0.31697
# Poissons Ratio (y) = 0.23776 0.10680
# Poissons Ratio (z) = 0.34729 0.11326
#
# Static dielectric constant tensor:
#      x y z
#    x 1.644800 0.000000 0.000000 
#    y 0.000000 1.671290 0.000000 
#    z 0.000000 0.000000 1.666680 
# 
# From -- ./inp_files/59641.got.cif
#   From: 2010.05.17/outbox.cif.g08.bks.cpg/sg70_30_cif.got.tgz:59641.got - 2010.06.03 15:57:51.
