data_PCOD9514313
_publ_section_title
;
Structure prediction by ZEFSAII (Michael W. Deem and Ramdas Pophale) SiO2 
 PCOD9514313
Probable space group: F D D D
;
_chemical_formula_sum "Si O2"
_cell_formula_units_Z 208
_cell_length_a 16.931703
_cell_length_b 26.811411
_cell_length_c 21.724324
_cell_angle_alpha 90.000000
_cell_angle_beta 90.000000
_cell_angle_gamma 90.000000
_cell_volume 9862.035995
_symmetry_space_group_name_H-M "F D D D"
_symmetry_group_IT_number 70
_space_group.IT_coordinate_system_code '2'
_symmetry_cell_setting 'orthorhombic'
loop_
_space_group_symop_operation_xyz
x,y,z
1/4-x,1/4-y,z
x,1/4-y,1/4-z
1/4-x,y,1/4-z
-x,-y,-z
3/4+x,3/4+y,-z
-x,3/4+y,3/4+z
3/4+x,-y,3/4+z
x,1/2+y,1/2+z
1/4-x,3/4-y,1/2+z
x,3/4-y,3/4-z
1/4-x,1/2+y,3/4-z
-x,1/2-y,1/2-z
3/4+x,1/4+y,1/2-z
-x,1/4+y,1/4+z
3/4+x,1/2-y,1/4+z
1/2+x,y,1/2+z
3/4-x,1/4-y,1/2+z
1/2+x,1/4-y,3/4-z
3/4-x,y,3/4-z
1/2-x,-y,1/2-z
1/4+x,3/4+y,1/2-z
1/2-x,3/4+y,1/4+z
1/4+x,-y,1/4+z
1/2+x,1/2+y,z
3/4-x,3/4-y,z
1/2+x,3/4-y,1/4-z
3/4-x,1/2+y,1/4-z
1/2-x,1/2-y,-z
1/4+x,1/4+y,-z
1/2-x,1/4+y,3/4+z
1/4+x,1/2-y,3/4+z
loop_
_atom_site_type_symbol
_atom_site_label
_atom_site_fract_x
_atom_site_fract_y
_atom_site_fract_z
Si Si1 0.217571 0.426284 0.538573
Si Si2 0.875000 0.005670 0.875000
Si Si3 0.532065 0.014381 0.901808
Si Si4 0.274396 0.726290 0.768145
Si Si5 0.857036 0.432257 0.282187
Si Si6 0.924039 0.925227 0.099133
Si Si7 0.307304 0.679929 0.011844
O O1 0.147811 0.458576 0.568787
O O2 0.271709 0.466201 0.503127
O O3 0.260505 0.411038 0.601751
O O4 0.197304 0.379310 0.496801
O O5 0.821921 0.964858 0.838324
O O6 0.480473 0.024139 0.841643
O O7 0.618788 0.032625 0.879943
O O8 0.498756 0.046870 0.958382
O O9 0.531697 0.957371 0.925241
O O10 0.194355 0.702366 0.739405
O O11 0.353148 0.698407 0.748156
O O12 0.875000 0.375000 0.298739
O O13 0.803997 0.438059 0.220810
O O14 0.875000 0.875000 0.091020
#
# Coordination Sequence:
#
# PCOD9514313 Si02
#       7
#    32  16  32  32  32  32  32
#     4  11  23  37  60  89 126 157 209 263 307 383
#     4  10  23  38  56  90 118 156 203 262 310 378
#     4  10  21  37  60  88 122 164 207 251 319 374
#     4  10  22  40  60  91 126 161 208 265 310 385
#     4   9  20  38  63  83 118 162 199 252 319 378
#     4  10  18  36  59  86 118 160 202 251 311 375
#     4  11  22  37  64  90 120 166 207 260 318 375
#
# _framework density 21.090979999999998
#
# number of rings (size 3 to 8) (size 9 to 14) (size 15 to 20)
#    0.000    1.846    3.077    0.692    2.154    1.231 
#    0.000    3.077    6.769    1.846    0.000    0.000 
#    0.000    0.000    0.000    0.000    0.000    0.000 
#
# Total GULP energy -289658.255824 kJ/mol
# GULP energy per Si atom -5570.351074 kJ/mol
# Density = 2.104298 g / cm^3
# Si number density = 21.090980 Si / 1000 Ang^3
#
#
#
# Elastic Constant Matrix: (Units=GPa)
#
#
# Indices 1 2 3 4 5 6 
#
# 1 25.7633 6.3558 -10.0534 0.0000 0.0000 0.0000
# 2 6.3558 133.0871 15.1356 0.0000 0.0000 0.0000
# 3 -10.0534 15.1356 41.3319 0.0000 0.0000 0.0000
# 4 0.0000 0.0000 0.0000 27.8942 0.0000 0.0000
# 5 0.0000 0.0000 0.0000 0.0000 6.6030 0.0000
# 6 0.0000 0.0000 0.0000 0.0000 0.0000 22.5547
#
#
#
# Elastic Compliance Matrix: (Units=1/GPa)
#
#
# Indices 1 2 3 4 5 6 
#
# 1 0.044389 -0.003493 0.012076 0.000000 0.000000 0.000000
# 2 -0.003493 0.008115 -0.003821 0.000000 0.000000 0.000000
# 3 0.012076 -0.003821 0.028531 0.000000 0.000000 0.000000
# 4 0.000000 0.000000 0.000000 0.035850 0.000000 0.000000
# 5 0.000000 0.000000 0.000000 0.000000 0.151445 0.000000
# 6 0.000000 0.000000 0.000000 0.000000 0.000000 0.044337
#
#
# Mechanical properties :
#
#
# Convention : Reuss Voigt Hill
#
# Bulk Modulus (GPa) = 11.04258 24.78427 17.91342
# Shear Modulus (GPa) = 15.00012 23.99334 19.49673
#
# Velocity S-wave (km/s) = 2.66975 3.37651 3.04371
# Velocity P-wave (km/s) = 3.84063 5.19401 4.56772
#
# Compressibility (1/GPa) = 0.09055854
#
# Stress axis : x y z
#
# Youngs Moduli (GPa) = 22.52802 123.22391 35.04941
#
# Poissons Ratio (x) = 0.43046 -0.42326
# Poissons Ratio (y) = 0.07870 0.13394
# Poissons Ratio (z) = -0.27205 0.47090
#
# Static dielectric constant tensor:
#      x y z
#    x 1.844660 0.000000 0.000000 
#    y 0.000000 1.787990 0.000000 
#    z 0.000000 0.000000 1.794020 
# 
# From -- ./inp_files/43952.got.cif
#   From: 2010.05.17/outbox.cif.g08.bks.cpg/sg70_22_cif.got.tgz:43952.got - 2010.06.03 15:57:51.
