data_PCOD9514160
_publ_section_title
;
Structure prediction by ZEFSAII (Michael W. Deem and Ramdas Pophale) SiO2 
 PCOD9514160
Probable space group: F D D D
;
_chemical_formula_sum "Si O2"
_cell_formula_units_Z 160
_cell_length_a 25.862341
_cell_length_b 15.268372
_cell_length_c 19.602521
_cell_angle_alpha 90.000000
_cell_angle_beta 90.000000
_cell_angle_gamma 90.000000
_cell_volume 7740.562008
_symmetry_space_group_name_H-M "F D D D"
_symmetry_group_IT_number 70
_space_group.IT_coordinate_system_code '2'
_symmetry_cell_setting 'orthorhombic'
loop_
_space_group_symop_operation_xyz
x,y,z
1/4-x,1/4-y,z
x,1/4-y,1/4-z
1/4-x,y,1/4-z
-x,-y,-z
3/4+x,3/4+y,-z
-x,3/4+y,3/4+z
3/4+x,-y,3/4+z
x,1/2+y,1/2+z
1/4-x,3/4-y,1/2+z
x,3/4-y,3/4-z
1/4-x,1/2+y,3/4-z
-x,1/2-y,1/2-z
3/4+x,1/4+y,1/2-z
-x,1/4+y,1/4+z
3/4+x,1/2-y,1/4+z
1/2+x,y,1/2+z
3/4-x,1/4-y,1/2+z
1/2+x,1/4-y,3/4-z
3/4-x,y,3/4-z
1/2-x,-y,1/2-z
1/4+x,3/4+y,1/2-z
1/2-x,3/4+y,1/4+z
1/4+x,-y,1/4+z
1/2+x,1/2+y,z
3/4-x,3/4-y,z
1/2+x,3/4-y,1/4-z
3/4-x,1/2+y,1/4-z
1/2-x,1/2-y,-z
1/4+x,1/4+y,-z
1/2-x,1/4+y,3/4+z
1/4+x,1/2-y,3/4+z
loop_
_atom_site_type_symbol
_atom_site_label
_atom_site_fract_x
_atom_site_fract_y
_atom_site_fract_z
Si Si1 0.783862 0.125000 0.625000
Si Si2 0.375000 0.375000 0.126683
Si Si3 0.810620 0.062536 0.477413
Si Si4 0.755399 0.367469 0.763541
Si Si5 0.834277 0.237380 0.011883
Si Si6 0.262424 0.316925 0.105156
O O1 0.812532 0.089638 0.557707
O O2 0.754694 0.212784 0.602678
O O3 0.391977 0.295278 0.176557
O O4 0.322491 0.343641 0.088640
O O5 0.870079 0.043582 0.462830
O O6 0.780062 0.138294 0.440805
O O7 0.777440 0.974889 0.461909
O O8 0.796270 0.444930 0.776302
O O9 0.700358 0.405483 0.786214
O O10 0.753709 0.352246 0.681855
#
# Coordination Sequence:
#
# PCOD9514160 Si02
#       6
#    16  16  32  32  32  32
#     4  10  20  38  56  79 114 158 195 240 302 348
#     4  10  18  40  60  84 118 150 202 252 290 358
#     4  11  20  36  60  88 119 155 201 248 299 360
#     4   9  20  36  57  89 121 156 195 242 310 361
#     4  10  17  37  62  80 123 160 184 251 307 351
#     4  10  21  36  59  86 116 155 203 249 298 368
#
# _framework density 20.670334
#
# number of rings (size 3 to 8) (size 9 to 14) (size 15 to 20)
#    0.000    2.000    6.000    0.600    0.000    2.400 
#    0.000    5.000    4.400   11.400    0.000    0.000 
#    0.000    0.000    0.000    0.000    0.000    0.000 
#
# Total GULP energy -222992.344656 kJ/mol
# GULP energy per Si atom -5574.808616 kJ/mol
# Density = 2.062329 g / cm^3
# Si number density = 20.670334 Si / 1000 Ang^3
#
#
#
# Elastic Constant Matrix: (Units=GPa)
#
#
# Indices 1 2 3 4 5 6 
#
# 1 129.8590 90.8706 19.5596 0.0000 0.0000 0.0000
# 2 90.8706 155.2220 21.8227 0.0000 0.0000 0.0000
# 3 19.5596 21.8227 22.3821 0.0000 0.0000 0.0000
# 4 0.0000 0.0000 0.0000 2.9243 0.0000 0.0000
# 5 0.0000 0.0000 0.0000 0.0000 9.7930 0.0000
# 6 0.0000 0.0000 0.0000 0.0000 0.0000 19.0176
#
#
#
# Elastic Compliance Matrix: (Units=1/GPa)
#
#
# Indices 1 2 3 4 5 6 
#
# 1 0.013463 -0.007217 -0.004729 0.000000 0.000000 0.000000
# 2 -0.007217 0.011334 -0.004744 0.000000 0.000000 0.000000
# 3 -0.004729 -0.004744 0.053437 0.000000 0.000000 0.000000
# 4 0.000000 0.000000 0.000000 0.341959 0.000000 0.000000
# 5 0.000000 0.000000 0.000000 0.000000 0.102113 0.000000
# 6 0.000000 0.000000 0.000000 0.000000 0.000000 0.052583
#
#
# Mechanical properties :
#
#
# Convention : Reuss Voigt Hill
#
# Bulk Modulus (GPa) = 22.29448 63.55210 42.92329
# Shear Modulus (GPa) = 8.02285 18.02768 13.02527
#
# Velocity S-wave (km/s) = 1.97225 2.95643 2.51299
# Velocity P-wave (km/s) = 3.99944 6.51661 5.40656
#
# Compressibility (1/GPa) = 0.04485415
#
# Stress axis : x y z
#
# Youngs Moduli (GPa) = 74.27833 88.22868 18.71374
#
# Poissons Ratio (x) = 0.63672 0.08849
# Poissons Ratio (y) = 0.53604 0.08878
# Poissons Ratio (z) = 0.35125 0.41858
#
# Static dielectric constant tensor:
#      x y z
#    x 1.773890 0.000000 0.000000 
#    y 0.000000 1.752680 0.000000 
#    z 0.000000 0.000000 1.783280 
# 
# From -- ./inp_files/37477.got.cif
#   From: 2010.05.17/outbox.cif.g08.bks.cpg/sg70_19_cif.got.tgz:37477.got - 2010.06.03 15:57:51.
