data_PCOD9514130
_publ_section_title
;
Structure prediction by ZEFSAII (Michael W. Deem and Ramdas Pophale) SiO2 
 PCOD9514130
Probable space group: F D D D
;
_chemical_formula_sum "Si O2"
_cell_formula_units_Z 112
_cell_length_a 16.915387
_cell_length_b 34.780925
_cell_length_c 8.318813
_cell_angle_alpha 90.000000
_cell_angle_beta 90.000000
_cell_angle_gamma 90.000000
_cell_volume 4894.230600
_symmetry_space_group_name_H-M "F D D D"
_symmetry_group_IT_number 70
_space_group.IT_coordinate_system_code '2'
_symmetry_cell_setting 'orthorhombic'
loop_
_space_group_symop_operation_xyz
x,y,z
1/4-x,1/4-y,z
x,1/4-y,1/4-z
1/4-x,y,1/4-z
-x,-y,-z
3/4+x,3/4+y,-z
-x,3/4+y,3/4+z
3/4+x,-y,3/4+z
x,1/2+y,1/2+z
1/4-x,3/4-y,1/2+z
x,3/4-y,3/4-z
1/4-x,1/2+y,3/4-z
-x,1/2-y,1/2-z
3/4+x,1/4+y,1/2-z
-x,1/4+y,1/4+z
3/4+x,1/2-y,1/4+z
1/2+x,y,1/2+z
3/4-x,1/4-y,1/2+z
1/2+x,1/4-y,3/4-z
3/4-x,y,3/4-z
1/2-x,-y,1/2-z
1/4+x,3/4+y,1/2-z
1/2-x,3/4+y,1/4+z
1/4+x,-y,1/4+z
1/2+x,1/2+y,z
3/4-x,3/4-y,z
1/2+x,3/4-y,1/4-z
3/4-x,1/2+y,1/4-z
1/2-x,1/2-y,-z
1/4+x,1/4+y,-z
1/2-x,1/4+y,3/4+z
1/4+x,1/2-y,3/4+z
loop_
_atom_site_type_symbol
_atom_site_label
_atom_site_fract_x
_atom_site_fract_y
_atom_site_fract_z
Si Si1 0.807210 0.405502 0.057726
Si Si2 0.400842 0.065601 0.184437
Si Si3 0.161146 0.515056 0.793733
Si Si4 0.279437 0.625000 0.625000
O O1 0.875000 0.375000 0.024222
O O2 0.736408 0.414903 0.932973
O O3 0.838791 0.448326 0.092947
O O4 0.769890 0.389239 0.223787
O O5 0.375000 0.067456 0.375000
O O6 0.338373 0.090038 0.083539
O O7 0.390389 0.020909 0.144271
O O8 0.125000 0.528089 0.625000
O O9 0.250000 0.500000 0.750000
#
# Coordination Sequence:
#
# PCOD9514130 Si02
#       4
#    32  32  32  16
#     4  11  21  31  51  82 107 137 181 222 260 320
#     4   9  19  32  48  76 111 139 169 223 271 307
#     4  11  17  31  50  78 113 139 174 224 272 309
#     4  10  17  32  51  74 104 140 176 212 267 314
#
# _framework density 22.884087000000001
#
# number of rings (size 3 to 8) (size 9 to 14) (size 15 to 20)
#    0.000    1.714    8.571    2.143    0.000    0.000 
#    0.000    0.714    0.000    1.714    0.000    0.000 
#    0.000    0.000    0.000    0.000    0.000    0.000 
#
# Total GULP energy -156424.959937 kJ/mol
# GULP energy per Si atom -5586.605712 kJ/mol
# Density = 2.283200 g / cm^3
# Si number density = 22.884087 Si / 1000 Ang^3
#
#
#
# Elastic Constant Matrix: (Units=GPa)
#
#
# Indices 1 2 3 4 5 6 
#
# 1 156.0457 82.1620 31.1531 0.0000 0.0000 0.0000
# 2 82.1620 215.1473 30.0877 0.0000 0.0000 0.0000
# 3 31.1531 30.0877 29.3781 0.0000 -0.0001 0.0000
# 4 0.0000 0.0000 0.0000 1.2374 0.0000 0.0000
# 5 0.0000 0.0000 -0.0001 0.0000 1.0512 0.0000
# 6 0.0000 0.0000 0.0000 0.0000 0.0000 43.6747
#
#
#
# Elastic Compliance Matrix: (Units=1/GPa)
#
#
# Indices 1 2 3 4 5 6 
#
# 1 0.009148 -0.002494 -0.007147 0.000000 -0.000001 0.000000
# 2 -0.002494 0.006105 -0.003608 0.000000 -0.000001 0.000000
# 3 -0.007147 -0.003608 0.045312 0.000000 0.000006 0.000000
# 4 0.000000 0.000000 0.000000 0.808126 0.000003 0.000000
# 5 -0.000001 -0.000001 0.000006 0.000003 0.951295 0.000000
# 6 0.000000 0.000000 0.000000 0.000000 0.000000 0.022897
#
#
# Mechanical properties :
#
#
# Convention : Reuss Voigt Hill
#
# Bulk Modulus (GPa) = 29.35248 76.37519 52.86384
# Shear Modulus (GPa) = 2.65853 26.33722 14.49788
#
# Velocity S-wave (km/s) = 1.07901 3.39617 2.51974
# Velocity P-wave (km/s) = 3.79563 6.98755 5.62284
#
# Compressibility (1/GPa) = 0.03406867
#
# Stress axis : x y z
#
# Youngs Moduli (GPa) = 109.30844 163.80045 22.06912
#
# Poissons Ratio (x) = 0.40855 0.15772
# Poissons Ratio (y) = 0.27264 0.07961
# Poissons Ratio (z) = 0.78120 0.59091
#
# Static dielectric constant tensor:
#      x y z
#    x 1.818850 0.000000 0.000000 
#    y 0.000000 1.859580 0.000000 
#    z 0.000000 0.000000 1.805320 
# 
# From -- ./inp_files/26461.got.cif
#   From: 2010.05.17/outbox.cif.g08.bks.cpg/sg70_14_cif.got.tgz:26461.got - 2010.06.03 15:57:51.
