data_PCOD9514887
_publ_section_title
;
Structure prediction by ZEFSAII (Michael W. Deem and Ramdas Pophale) SiO2 
 PCOD9514887
Probable space group: F D D D
;
_chemical_formula_sum "Si O2"
_cell_formula_units_Z 192
_cell_length_a 9.452858
_cell_length_b 29.231833
_cell_length_c 28.910684
_cell_angle_alpha 90.000000
_cell_angle_beta 90.000000
_cell_angle_gamma 90.000000
_cell_volume 7988.726439
_symmetry_space_group_name_H-M "F D D D"
_symmetry_group_IT_number 70
_space_group.IT_coordinate_system_code '2'
_symmetry_cell_setting 'orthorhombic'
loop_
_space_group_symop_operation_xyz
x,y,z
1/4-x,1/4-y,z
x,1/4-y,1/4-z
1/4-x,y,1/4-z
-x,-y,-z
3/4+x,3/4+y,-z
-x,3/4+y,3/4+z
3/4+x,-y,3/4+z
x,1/2+y,1/2+z
1/4-x,3/4-y,1/2+z
x,3/4-y,3/4-z
1/4-x,1/2+y,3/4-z
-x,1/2-y,1/2-z
3/4+x,1/4+y,1/2-z
-x,1/4+y,1/4+z
3/4+x,1/2-y,1/4+z
1/2+x,y,1/2+z
3/4-x,1/4-y,1/2+z
1/2+x,1/4-y,3/4-z
3/4-x,y,3/4-z
1/2-x,-y,1/2-z
1/4+x,3/4+y,1/2-z
1/2-x,3/4+y,1/4+z
1/4+x,-y,1/4+z
1/2+x,1/2+y,z
3/4-x,3/4-y,z
1/2+x,3/4-y,1/4-z
3/4-x,1/2+y,1/4-z
1/2-x,1/2-y,-z
1/4+x,1/4+y,-z
1/2-x,1/4+y,3/4+z
1/4+x,1/2-y,3/4+z
loop_
_atom_site_type_symbol
_atom_site_label
_atom_site_fract_x
_atom_site_fract_y
_atom_site_fract_z
Si Si1 0.514180 0.206844 0.305857
Si Si2 0.304057 0.246251 0.783999
Si Si3 0.375000 0.564983 0.875000
Si Si4 0.125000 0.125000 0.379674
Si Si5 0.301742 0.197281 0.048495
Si Si6 0.542425 0.892323 0.978970
Si Si7 0.980149 0.548344 0.108982
O O1 0.641847 0.231108 0.277556
O O2 0.564473 0.165836 0.338965
O O3 0.422682 0.178035 0.269745
O O4 0.473513 0.249211 0.338026
O O5 0.337725 0.215914 0.830476
O O6 0.373064 0.234167 0.734798
O O7 0.383980 0.293368 0.797125
O O8 0.253335 0.598931 0.855858
O O9 0.356569 0.150956 0.025114
O O10 0.367941 0.203480 0.099602
O O11 0.375000 0.875000 0.983385
O O12 0.568396 0.920388 0.932602
O O13 0.125000 0.570769 0.125000
#
# Coordination Sequence:
#
# PCOD9514887 Si02
#       7
#    32  32  16  16  32  32  32
#     4  11  22  42  65  97 134 185 231 290 363 429
#     4  10  21  41  66  90 135 178 232 282 352 427
#     4  10  20  38  64 100 133 192 235 290 366 428
#     4  10  20  36  64  92 137 180 235 294 360 442
#     4  11  22  39  68  98 129 182 234 283 351 425
#     4  12  21  42  68  99 137 179 235 291 354 423
#     4  12  25  38  65 103 135 176 233 293 353 425
#
# _framework density 24.033867000000001
#
# number of rings (size 3 to 8) (size 9 to 14) (size 15 to 20)
#    0.000    1.000    4.167    4.000    1.167    0.000 
#    0.000    0.833    7.333    2.000    0.000    0.000 
#    0.000    0.000    0.000    0.000    0.000    0.000 
#
# Total GULP energy -267784.733464 kJ/mol
# GULP energy per Si atom -5578.848614 kJ/mol
# Density = 2.397916 g / cm^3
# Si number density = 24.033867 Si / 1000 Ang^3
#
#
#
# Elastic Constant Matrix: (Units=GPa)
#
#
# Indices 1 2 3 4 5 6 
#
# 1 52.8554 25.8935 -7.4465 0.0000 0.0000 0.0000
# 2 25.8935 115.9985 -4.4855 0.0000 0.0000 0.0000
# 3 -7.4465 -4.4855 32.1999 0.0000 0.0000 0.0000
# 4 0.0000 0.0000 0.0000 30.4549 0.0000 0.0000
# 5 0.0000 0.0000 0.0000 0.0000 22.3688 0.0000
# 6 0.0000 0.0000 0.0000 0.0000 0.0000 13.4413
#
#
#
# Elastic Compliance Matrix: (Units=1/GPa)
#
#
# Indices 1 2 3 4 5 6 
#
# 1 0.021844 -0.004706 0.004396 0.000000 0.000000 0.000000
# 2 -0.004706 0.009681 0.000260 0.000000 0.000000 0.000000
# 3 0.004396 0.000260 0.032109 0.000000 0.000000 0.000000
# 4 0.000000 0.000000 0.000000 0.032835 0.000000 0.000000
# 5 0.000000 0.000000 0.000000 0.000000 0.044705 0.000000
# 6 0.000000 0.000000 0.000000 0.000000 0.000000 0.074398
#
#
# Mechanical properties :
#
#
# Convention : Reuss Voigt Hill
#
# Bulk Modulus (GPa) = 15.73930 25.44184 20.59057
# Shear Modulus (GPa) = 21.11035 25.72583 23.41809
#
# Velocity S-wave (km/s) = 2.96693 3.27524 3.12489
# Velocity P-wave (km/s) = 4.27784 4.99117 4.64821
#
# Compressibility (1/GPa) = 0.06353521
#
# Stress axis : x y z
#
# Youngs Moduli (GPa) = 45.77831 103.29094 31.14402
#
# Poissons Ratio (x) = 0.48610 -0.13691
# Poissons Ratio (y) = 0.21544 -0.00811
# Poissons Ratio (z) = -0.20125 -0.02689
#
# Static dielectric constant tensor:
#      x y z
#    x 2.078170 0.000000 0.000000 
#    y 0.000000 1.933020 0.000000 
#    z 0.000000 0.000000 1.940060 
# 
# From -- ./inp_files/65004.got.cif
#   From: 2010.05.17/outbox.cif.g08.bks.cpg/sg70_33_cif.got.tgz:65004.got - 2010.06.03 15:57:51.
