data_PCOD9514896
_publ_section_title
;
Structure prediction by ZEFSAII (Michael W. Deem and Ramdas Pophale) SiO2 
 PCOD9514896
Probable space group: F D D D
;
_chemical_formula_sum "Si O2"
_cell_formula_units_Z 144
_cell_length_a 11.217740
_cell_length_b 28.638965
_cell_length_c 22.138283
_cell_angle_alpha 90.000000
_cell_angle_beta 90.000000
_cell_angle_gamma 90.000000
_cell_volume 7112.243605
_symmetry_space_group_name_H-M "F D D D"
_symmetry_group_IT_number 70
_space_group.IT_coordinate_system_code '2'
_symmetry_cell_setting 'orthorhombic'
loop_
_space_group_symop_operation_xyz
x,y,z
1/4-x,1/4-y,z
x,1/4-y,1/4-z
1/4-x,y,1/4-z
-x,-y,-z
3/4+x,3/4+y,-z
-x,3/4+y,3/4+z
3/4+x,-y,3/4+z
x,1/2+y,1/2+z
1/4-x,3/4-y,1/2+z
x,3/4-y,3/4-z
1/4-x,1/2+y,3/4-z
-x,1/2-y,1/2-z
3/4+x,1/4+y,1/2-z
-x,1/4+y,1/4+z
3/4+x,1/2-y,1/4+z
1/2+x,y,1/2+z
3/4-x,1/4-y,1/2+z
1/2+x,1/4-y,3/4-z
3/4-x,y,3/4-z
1/2-x,-y,1/2-z
1/4+x,3/4+y,1/2-z
1/2-x,3/4+y,1/4+z
1/4+x,-y,1/4+z
1/2+x,1/2+y,z
3/4-x,3/4-y,z
1/2+x,3/4-y,1/4-z
3/4-x,1/2+y,1/4-z
1/2-x,1/2-y,-z
1/4+x,1/4+y,-z
1/2-x,1/4+y,3/4+z
1/4+x,1/2-y,3/4+z
loop_
_atom_site_type_symbol
_atom_site_label
_atom_site_fract_x
_atom_site_fract_y
_atom_site_fract_z
Si Si1 0.799225 0.240877 0.083217
Si Si2 0.875000 0.625459 0.375000
Si Si3 0.402109 0.703303 0.973501
Si Si4 0.870928 0.013495 0.027708
Si Si5 0.201324 0.080246 0.456711
O O1 0.664045 0.255748 0.065840
O O2 0.850519 0.231976 0.149792
O O3 0.865175 0.287601 0.059154
O O4 0.834340 0.200043 0.036943
O O5 0.849774 0.658324 0.317965
O O6 0.762296 0.595549 0.394039
O O7 0.534190 0.720208 0.987590
O O8 0.807747 0.058921 0.997472
O O9 0.000000 0.000000 0.000000
O O10 0.125000 0.125000 0.479143
#
# Coordination Sequence:
#
# PCOD9514896 Si02
#       5
#    32  16  32  32  32
#     4  10  20  40  63  90 123 168 219 254 314 396
#     4  12  20  38  62  94 121 164 201 268 322 378
#     4  10  20  36  66  84 123 171 209 254 315 391
#     4  11  22  38  60  95 126 169 209 264 319 389
#     4  11  22  36  63  95 126 156 212 269 315 372
#
# _framework density 20.246775
#
# number of rings (size 3 to 8) (size 9 to 14) (size 15 to 20)
#    0.000    1.333    4.444    1.333    0.000    2.667 
#    0.000    1.111    9.778    0.000    0.000    6.222 
#    0.000    0.000    0.000    0.000    0.000    0.000 
#
# Total GULP energy -200574.214946 kJ/mol
# GULP energy per Si atom -5571.505971 kJ/mol
# Density = 2.020069 g / cm^3
# Si number density = 20.246775 Si / 1000 Ang^3
#
#
#
# Elastic Constant Matrix: (Units=GPa)
#
#
# Indices 1 2 3 4 5 6 
#
# 1 147.2012 30.7484 39.2885 0.0000 0.0000 0.0000
# 2 30.7484 74.3469 28.3575 0.0000 0.0000 0.0000
# 3 39.2885 28.3575 125.2264 0.0000 0.0000 0.0000
# 4 0.0000 0.0000 0.0000 30.9351 0.0000 0.0000
# 5 0.0000 0.0000 0.0000 0.0000 32.2074 0.0000
# 6 0.0000 0.0000 0.0000 0.0000 0.0000 28.9007
#
#
#
# Elastic Compliance Matrix: (Units=1/GPa)
#
#
# Indices 1 2 3 4 5 6 
#
# 1 0.007822 -0.002516 -0.001884 0.000000 0.000000 0.000000
# 2 -0.002516 0.015532 -0.002728 0.000000 0.000000 0.000000
# 3 -0.001884 -0.002728 0.009194 0.000000 0.000000 0.000000
# 4 0.000000 0.000000 0.000000 0.032326 0.000000 0.000000
# 5 0.000000 0.000000 0.000000 0.000000 0.031049 0.000000
# 6 0.000000 0.000000 0.000000 0.000000 0.000000 0.034601
#
#
# Mechanical properties :
#
#
# Convention : Reuss Voigt Hill
#
# Bulk Modulus (GPa) = 54.67029 60.39591 57.53310
# Shear Modulus (GPa) = 33.13952 34.96730 34.05341
#
# Velocity S-wave (km/s) = 4.05010 4.16029 4.10557
# Velocity P-wave (km/s) = 6.99512 7.27819 7.13806
#
# Compressibility (1/GPa) = 0.01829147
#
# Stress axis : x y z
#
# Youngs Moduli (GPa) = 127.84515 64.38509 108.76223
#
# Poissons Ratio (x) = 0.16201 0.20493
# Poissons Ratio (y) = 0.32170 0.29666
# Poissons Ratio (z) = 0.24089 0.17562
#
# Static dielectric constant tensor:
#      x y z
#    x 1.792580 0.000000 0.000000 
#    y 0.000000 1.725000 0.000000 
#    z 0.000000 0.000000 1.762520 
# 
# From -- ./inp_files/50170.got.cif
#   From: 2010.05.17/outbox.cif.g08.bks.cpg/sg70_26_cif.got.tgz:50170.got - 2010.06.03 15:57:51.
