data_PCOD9514195
_publ_section_title
;
Structure prediction by ZEFSAII (Michael W. Deem and Ramdas Pophale) SiO2 
 PCOD9514195
Probable space group: F D D D
;
_chemical_formula_sum "Si O2"
_cell_formula_units_Z 160
_cell_length_a 13.658281
_cell_length_b 36.083792
_cell_length_c 13.011718
_cell_angle_alpha 90.000000
_cell_angle_beta 90.000000
_cell_angle_gamma 90.000000
_cell_volume 6412.728548
_symmetry_space_group_name_H-M "F D D D"
_symmetry_group_IT_number 70
_space_group.IT_coordinate_system_code '2'
_symmetry_cell_setting 'orthorhombic'
loop_
_space_group_symop_operation_xyz
x,y,z
1/4-x,1/4-y,z
x,1/4-y,1/4-z
1/4-x,y,1/4-z
-x,-y,-z
3/4+x,3/4+y,-z
-x,3/4+y,3/4+z
3/4+x,-y,3/4+z
x,1/2+y,1/2+z
1/4-x,3/4-y,1/2+z
x,3/4-y,3/4-z
1/4-x,1/2+y,3/4-z
-x,1/2-y,1/2-z
3/4+x,1/4+y,1/2-z
-x,1/4+y,1/4+z
3/4+x,1/2-y,1/4+z
1/2+x,y,1/2+z
3/4-x,1/4-y,1/2+z
1/2+x,1/4-y,3/4-z
3/4-x,y,3/4-z
1/2-x,-y,1/2-z
1/4+x,3/4+y,1/2-z
1/2-x,3/4+y,1/4+z
1/4+x,-y,1/4+z
1/2+x,1/2+y,z
3/4-x,3/4-y,z
1/2+x,3/4-y,1/4-z
3/4-x,1/2+y,1/4-z
1/2-x,1/2-y,-z
1/4+x,1/4+y,-z
1/2-x,1/4+y,3/4+z
1/4+x,1/2-y,3/4+z
loop_
_atom_site_type_symbol
_atom_site_label
_atom_site_fract_x
_atom_site_fract_y
_atom_site_fract_z
Si Si1 0.483431 0.953270 0.750117
Si Si2 0.745176 0.584426 0.937915
Si Si3 0.244549 0.044092 0.730049
Si Si4 0.507163 0.719713 0.118045
Si Si5 0.244952 0.582114 0.805024
O O1 0.369981 0.945492 0.770460
O O2 0.531068 0.953317 0.862421
O O3 0.527845 0.924037 0.672112
O O4 0.481607 0.990326 0.679353
O O5 0.779332 0.568893 0.826705
O O6 0.772564 0.625944 0.970437
O O7 0.625184 0.582170 0.940577
O O8 0.777136 0.557240 0.027831
O O9 0.250000 0.000000 0.750000
O O10 0.625000 0.720122 0.125000
O O11 0.477257 0.701218 0.227087
#
# Coordination Sequence:
#
# PCOD9514195 Si02
#       5
#    32  32  32  32  32
#     4  10  20  32  52  79 101 136 173 213 261 308
#     4   9  17  31  51  74 102 134 167 216 259 302
#     4  10  19  34  53  75 100 135 178 215 254 306
#     4  10  18  31  52  77 108 138 167 209 264 317
#     4   9  18  30  48  79 105 126 170 215 262 302
#
# _framework density 24.950379000000002
#
# number of rings (size 3 to 8) (size 9 to 14) (size 15 to 20)
#    0.000    2.400    2.000    1.200    0.000    3.200 
#    0.000    4.000    0.000    2.400    5.200    0.000 
#    0.000    0.000    0.000    0.000    0.000    0.000 
#
# Total GULP energy -223353.575195 kJ/mol
# GULP energy per Si atom -5583.839380 kJ/mol
# Density = 2.489359 g / cm^3
# Si number density = 24.950379 Si / 1000 Ang^3
#
#
#
# Elastic Constant Matrix: (Units=GPa)
#
#
# Indices 1 2 3 4 5 6 
#
# 1 81.9435 -7.4109 29.8755 0.0000 0.0000 0.0000
# 2 -7.4109 68.7501 36.2441 0.0000 0.0000 0.0000
# 3 29.8755 36.2441 196.6245 0.0000 0.0000 0.0000
# 4 0.0000 0.0000 0.0000 66.1091 0.0000 0.0000
# 5 0.0000 0.0000 0.0000 0.0000 43.0261 0.0000
# 6 0.0000 0.0000 0.0000 0.0000 0.0000 22.5835
#
#
#
# Elastic Compliance Matrix: (Units=1/GPa)
#
#
# Indices 1 2 3 4 5 6 
#
# 1 0.013384 0.002786 -0.002547 0.000000 0.000000 0.000000
# 2 0.002786 0.016691 -0.003500 0.000000 0.000000 0.000000
# 3 -0.002547 -0.003500 0.006118 0.000000 0.000000 0.000000
# 4 0.000000 0.000000 0.000000 0.015127 0.000000 0.000000
# 5 0.000000 0.000000 0.000000 0.000000 0.023242 0.000000
# 6 0.000000 0.000000 0.000000 0.000000 0.000000 0.044280
#
#
# Mechanical properties :
#
#
# Convention : Reuss Voigt Hill
#
# Bulk Modulus (GPa) = 33.70412 51.63730 42.67071
# Shear Modulus (GPa) = 36.96748 45.58436 41.27592
#
# Velocity S-wave (km/s) = 3.85338 4.27898 4.07175
# Velocity P-wave (km/s) = 5.77372 6.71966 6.26457
#
# Compressibility (1/GPa) = 0.02966996
#
# Stress axis : x y z
#
# Youngs Moduli (GPa) = 74.71571 59.91335 163.45266
#
# Poissons Ratio (x) = -0.16689 0.41632
# Poissons Ratio (y) = -0.20812 0.57206
# Poissons Ratio (z) = 0.19031 0.20969
#
# Static dielectric constant tensor:
#      x y z
#    x 2.077340 0.000000 0.000000 
#    y 0.000000 1.897380 0.000000 
#    z 0.000000 0.000000 2.000560 
# 
# From -- ./inp_files/21084.got.cif
#   From: 2010.05.17/outbox.cif.g08.bks.cpg/sg70_11_cif.got.tgz:21084.got - 2010.06.03 15:57:51.
