data_PCOD9514526
_publ_section_title
;
Structure prediction by ZEFSAII (Michael W. Deem and Ramdas Pophale) SiO2 
 PCOD9514526
Probable space group: F D D D
;
_chemical_formula_sum "Si O2"
_cell_formula_units_Z 168
_cell_length_a 24.879329
_cell_length_b 24.992290
_cell_length_c 13.186253
_cell_angle_alpha 90.000000
_cell_angle_beta 90.000000
_cell_angle_gamma 90.000000
_cell_volume 8199.098784
_symmetry_space_group_name_H-M "F D D D"
_symmetry_group_IT_number 70
_space_group.IT_coordinate_system_code '2'
_symmetry_cell_setting 'orthorhombic'
loop_
_space_group_symop_operation_xyz
x,y,z
1/4-x,1/4-y,z
x,1/4-y,1/4-z
1/4-x,y,1/4-z
-x,-y,-z
3/4+x,3/4+y,-z
-x,3/4+y,3/4+z
3/4+x,-y,3/4+z
x,1/2+y,1/2+z
1/4-x,3/4-y,1/2+z
x,3/4-y,3/4-z
1/4-x,1/2+y,3/4-z
-x,1/2-y,1/2-z
3/4+x,1/4+y,1/2-z
-x,1/4+y,1/4+z
3/4+x,1/2-y,1/4+z
1/2+x,y,1/2+z
3/4-x,1/4-y,1/2+z
1/2+x,1/4-y,3/4-z
3/4-x,y,3/4-z
1/2-x,-y,1/2-z
1/4+x,3/4+y,1/2-z
1/2-x,3/4+y,1/4+z
1/4+x,-y,1/4+z
1/2+x,1/2+y,z
3/4-x,3/4-y,z
1/2+x,3/4-y,1/4-z
3/4-x,1/2+y,1/4-z
1/2-x,1/2-y,-z
1/4+x,1/4+y,-z
1/2-x,1/4+y,3/4+z
1/4+x,1/2-y,3/4+z
loop_
_atom_site_type_symbol
_atom_site_label
_atom_site_fract_x
_atom_site_fract_y
_atom_site_fract_z
Si Si1 0.235222 0.135638 0.944225
Si Si2 0.415037 0.571825 0.081462
Si Si3 0.584948 0.222757 0.707710
Si Si4 0.768959 0.911314 0.464811
Si Si5 0.002460 0.523560 0.715008
Si Si6 0.875000 0.875000 0.375000
O O1 0.244915 0.137812 0.824759
O O2 0.286413 0.154436 0.011491
O O3 0.187797 0.177385 0.969202
O O4 0.222956 0.075855 0.982333
O O5 0.386380 0.625000 0.125000
O O6 0.443858 0.540943 0.174160
O O7 0.389911 0.524370 0.013982
O O8 0.625000 0.199560 0.625000
O O9 0.534807 0.241029 0.637434
O O10 0.745933 0.875000 0.375000
O O11 0.833451 0.908245 0.444332
O O12 0.750489 0.972325 0.464481
#
# Coordination Sequence:
#
# PCOD9514526 Si02
#       6
#    32  32  32  32  32   8
#     4  10  19  35  63  83 112 153 202 247 296 366
#     4   9  17  34  61  82 109 157 195 227 312 362
#     4  11  20  33  57  94 123 147 192 260 307 347
#     4  10  20  39  58  79 119 155 203 244 301 359
#     4  10  19  35  61  86 110 157 193 248 303 362
#     4   8  24  36  56  80 114 156 204 248 294 340
#
# _framework density 20.490058000000001
#
# number of rings (size 3 to 8) (size 9 to 14) (size 15 to 20)
#    0.571    1.524    3.810    2.857    0.000    3.810 
#    0.000    0.952    8.381    0.000    0.000    0.000 
#    0.000    0.000    0.000    0.000    0.000    0.000 
#
# Total GULP energy -234041.570748 kJ/mol
# GULP energy per Si atom -5572.418351 kJ/mol
# Density = 2.044342 g / cm^3
# Si number density = 20.490058 Si / 1000 Ang^3
#
#
#
# Elastic Constant Matrix: (Units=GPa)
#
#
# Indices 1 2 3 4 5 6 
#
# 1 27.9344 10.0369 2.5482 0.0000 0.0000 0.0000
# 2 10.0369 161.5784 72.5739 0.0000 0.0000 0.0000
# 3 2.5482 72.5739 114.5222 0.0000 0.0000 0.0000
# 4 0.0000 0.0000 0.0000 45.2173 0.0000 0.0000
# 5 0.0000 0.0000 0.0000 0.0000 9.9685 0.0000
# 6 0.0000 0.0000 0.0000 0.0000 0.0000 1.9471
#
#
#
# Elastic Compliance Matrix: (Units=1/GPa)
#
#
# Indices 1 2 3 4 5 6 
#
# 1 0.036678 -0.002672 0.000877 0.000000 0.000000 0.000000
# 2 -0.002672 0.008846 -0.005546 0.000000 0.000000 0.000000
# 3 0.000877 -0.005546 0.012227 0.000000 0.000000 0.000000
# 4 0.000000 0.000000 0.000000 0.022115 0.000000 0.000000
# 5 0.000000 0.000000 0.000000 0.000000 0.100316 0.000000
# 6 0.000000 0.000000 0.000000 0.000000 0.000000 0.513578
#
#
# Mechanical properties :
#
#
# Convention : Reuss Voigt Hill
#
# Bulk Modulus (GPa) = 23.21868 52.70591 37.96229
# Shear Modulus (GPa) = 6.91754 26.01833 16.46793
#
# Velocity S-wave (km/s) = 1.83940 3.56729 2.83804
# Velocity P-wave (km/s) = 3.98340 6.53804 5.41357
#
# Compressibility (1/GPa) = 0.04306878
#
# Stress axis : x y z
#
# Youngs Moduli (GPa) = 27.26408 113.04322 81.78457
#
# Poissons Ratio (x) = 0.30211 -0.07176
# Poissons Ratio (y) = 0.07286 0.45361
# Poissons Ratio (z) = -0.02392 0.62699
#
# Static dielectric constant tensor:
#      x y z
#    x 1.784080 0.000000 0.000000 
#    y 0.000000 1.765690 0.000000 
#    z 0.000000 0.000000 1.976400 
# 
# From -- ./inp_files/29860.got.cif
#   From: 2010.05.17/outbox.cif.g08.bks.cpg/sg70_15_cif.got.tgz:29860.got - 2010.06.03 15:57:51.
