data_PCOD9514098
_publ_section_title
;
Structure prediction by ZEFSAII (Michael W. Deem and Ramdas Pophale) SiO2 
 PCOD9514098
Probable space group: F D D D
;
_chemical_formula_sum "Si O2"
_cell_formula_units_Z 152
_cell_length_a 31.648240
_cell_length_b 19.444511
_cell_length_c 12.772452
_cell_angle_alpha 90.000000
_cell_angle_beta 90.000000
_cell_angle_gamma 90.000000
_cell_volume 7859.969637
_symmetry_space_group_name_H-M "F D D D"
_symmetry_group_IT_number 70
_space_group.IT_coordinate_system_code '2'
_symmetry_cell_setting 'orthorhombic'
loop_
_space_group_symop_operation_xyz
x,y,z
1/4-x,1/4-y,z
x,1/4-y,1/4-z
1/4-x,y,1/4-z
-x,-y,-z
3/4+x,3/4+y,-z
-x,3/4+y,3/4+z
3/4+x,-y,3/4+z
x,1/2+y,1/2+z
1/4-x,3/4-y,1/2+z
x,3/4-y,3/4-z
1/4-x,1/2+y,3/4-z
-x,1/2-y,1/2-z
3/4+x,1/4+y,1/2-z
-x,1/4+y,1/4+z
3/4+x,1/2-y,1/4+z
1/2+x,y,1/2+z
3/4-x,1/4-y,1/2+z
1/2+x,1/4-y,3/4-z
3/4-x,y,3/4-z
1/2-x,-y,1/2-z
1/4+x,3/4+y,1/2-z
1/2-x,3/4+y,1/4+z
1/4+x,-y,1/4+z
1/2+x,1/2+y,z
3/4-x,3/4-y,z
1/2+x,3/4-y,1/4-z
3/4-x,1/2+y,1/4-z
1/2-x,1/2-y,-z
1/4+x,1/4+y,-z
1/2-x,1/4+y,3/4+z
1/4+x,1/2-y,3/4+z
loop_
_atom_site_type_symbol
_atom_site_label
_atom_site_fract_x
_atom_site_fract_y
_atom_site_fract_z
Si Si1 0.375000 0.875000 0.875000
Si Si2 0.958034 0.451838 0.614426
Si Si3 0.125000 0.860996 0.125000
Si Si4 0.121696 0.738087 0.281505
Si Si5 0.834741 0.325384 0.229255
Si Si6 0.302834 0.026943 0.352675
O O1 0.396901 0.821016 0.795743
O O2 0.920832 0.467909 0.696749
O O3 0.950588 0.375830 0.567452
O O4 0.951545 0.504918 0.518176
O O5 0.006313 0.458757 0.648551
O O6 0.119595 0.810540 0.224294
O O7 0.084447 0.909556 0.112467
O O8 0.098388 0.730423 0.392015
O O9 0.875000 0.375000 0.242476
O O10 0.821797 0.287090 0.333642
#
# Coordination Sequence:
#
# PCOD9514098 Si02
#       6
#     8  32  16  32  32  32
#     4  10  16  40  60  86 106 164 202 236 278 370
#     4  10  22  40  60  91 118 162 198 254 292 362
#     4  11  24  39  59  92 123 164 192 254 307 364
#     4  10  21  38  65  83 121 158 205 239 302 356
#     4  10  20  40  64  88 114 165 204 244 292 374
#     4  11  24  37  61  92 128 150 201 251 311 351
#
# _framework density 19.338497
#
# number of rings (size 3 to 8) (size 9 to 14) (size 15 to 20)
#    0.000    1.684    3.158    3.158    2.947    5.895 
#    0.000    3.158    0.000    0.000    0.000    0.000 
#    0.000    0.000    0.000    0.000    0.000    0.000 
#
# Total GULP energy -212142.129756 kJ/mol
# GULP energy per Si atom -5582.687625 kJ/mol
# Density = 1.929448 g / cm^3
# Si number density = 19.338497 Si / 1000 Ang^3
#
#
#
# Elastic Constant Matrix: (Units=GPa)
#
#
# Indices 1 2 3 4 5 6 
#
# 1 90.9871 43.3283 28.6933 0.0000 0.0000 0.0000
# 2 43.3283 112.0286 21.6762 0.0000 0.0000 0.0000
# 3 28.6933 21.6762 56.0208 0.0000 0.0000 0.0000
# 4 0.0000 0.0000 0.0000 29.7954 0.0000 0.0000
# 5 0.0000 0.0000 0.0000 0.0000 12.2823 0.0000
# 6 0.0000 0.0000 0.0000 0.0000 0.0000 17.7441
#
#
#
# Elastic Compliance Matrix: (Units=1/GPa)
#
#
# Indices 1 2 3 4 5 6 
#
# 1 0.015090 -0.004692 -0.005913 0.000000 0.000000 0.000000
# 2 -0.004692 0.011108 -0.001895 0.000000 0.000000 0.000000
# 3 -0.005913 -0.001895 0.021612 0.000000 0.000000 0.000000
# 4 0.000000 0.000000 0.000000 0.033562 0.000000 0.000000
# 5 0.000000 0.000000 0.000000 0.000000 0.081418 0.000000
# 6 0.000000 0.000000 0.000000 0.000000 0.000000 0.056357
#
#
# Mechanical properties :
#
#
# Convention : Reuss Voigt Hill
#
# Bulk Modulus (GPa) = 43.84102 49.60356 46.72229
# Shear Modulus (GPa) = 19.86098 22.98694 21.42396
#
# Velocity S-wave (km/s) = 3.20819 3.45144 3.33203
# Velocity P-wave (km/s) = 6.03679 6.44896 6.24628
#
# Compressibility (1/GPa) = 0.02280969
#
# Stress axis : x y z
#
# Youngs Moduli (GPa) = 66.27045 90.02882 46.26980
#
# Poissons Ratio (x) = 0.42241 0.27361
# Poissons Ratio (y) = 0.31094 0.08767
# Poissons Ratio (z) = 0.39188 0.17058
#
# Static dielectric constant tensor:
#      x y z
#    x 1.703810 0.000000 0.000000 
#    y 0.000000 1.670870 0.000000 
#    z 0.000000 0.000000 1.707280 
# 
# From -- ./inp_files/31028.got.cif
#   From: 2010.05.17/outbox.cif.g08.bks.cpg/sg70_16_cif.got.tgz:31028.got - 2010.06.03 15:57:51.
