data_PCOD9514578
_publ_section_title
;
Structure prediction by ZEFSAII (Michael W. Deem and Ramdas Pophale) SiO2 
 PCOD9514578
Probable space group: F D D D
;
_chemical_formula_sum "Si O2"
_cell_formula_units_Z 192
_cell_length_a 26.280660
_cell_length_b 14.391166
_cell_length_c 22.179966
_cell_angle_alpha 90.000000
_cell_angle_beta 90.000000
_cell_angle_gamma 90.000000
_cell_volume 8388.670316
_symmetry_space_group_name_H-M "F D D D"
_symmetry_group_IT_number 70
_space_group.IT_coordinate_system_code '2'
_symmetry_cell_setting 'orthorhombic'
loop_
_space_group_symop_operation_xyz
x,y,z
1/4-x,1/4-y,z
x,1/4-y,1/4-z
1/4-x,y,1/4-z
-x,-y,-z
3/4+x,3/4+y,-z
-x,3/4+y,3/4+z
3/4+x,-y,3/4+z
x,1/2+y,1/2+z
1/4-x,3/4-y,1/2+z
x,3/4-y,3/4-z
1/4-x,1/2+y,3/4-z
-x,1/2-y,1/2-z
3/4+x,1/4+y,1/2-z
-x,1/4+y,1/4+z
3/4+x,1/2-y,1/4+z
1/2+x,y,1/2+z
3/4-x,1/4-y,1/2+z
1/2+x,1/4-y,3/4-z
3/4-x,y,3/4-z
1/2-x,-y,1/2-z
1/4+x,3/4+y,1/2-z
1/2-x,3/4+y,1/4+z
1/4+x,-y,1/4+z
1/2+x,1/2+y,z
3/4-x,3/4-y,z
1/2+x,3/4-y,1/4-z
3/4-x,1/2+y,1/4-z
1/2-x,1/2-y,-z
1/4+x,1/4+y,-z
1/2-x,1/4+y,3/4+z
1/4+x,1/2-y,3/4+z
loop_
_atom_site_type_symbol
_atom_site_label
_atom_site_fract_x
_atom_site_fract_y
_atom_site_fract_z
Si Si1 0.932569 0.704546 0.879858
Si Si2 0.254441 0.915124 0.563753
Si Si3 0.417183 0.754591 0.185735
Si Si4 0.314766 0.181586 0.737802
Si Si5 0.010385 0.875000 0.875000
Si Si6 0.461608 0.492771 0.554971
Si Si7 0.125000 0.625000 0.326973
O O1 0.875000 0.739173 0.875000
O O2 0.951588 0.637629 0.825989
O O3 0.973181 0.787780 0.885104
O O4 0.934347 0.650574 0.943173
O O5 0.294629 0.835754 0.542973
O O6 0.265751 0.002281 0.521632
O O7 0.269678 0.955922 0.630117
O O8 0.366666 0.737537 0.224021
O O9 0.451096 0.662651 0.176292
O O10 0.397223 0.795258 0.121492
O O11 0.311931 0.095449 0.692840
O O12 0.500000 0.500000 0.500000
O O13 0.418661 0.419273 0.537874
#
# Coordination Sequence:
#
# PCOD9514578 Si02
#       7
#    32  32  32  32  16  32  16
#     4  11  26  45  61  93 141 176 221 277 337 407
#     4  10  22  42  63  97 132 167 226 277 318 413
#     4  10  19  36  65  95 121 158 224 270 320 385
#     4  12  22  40  72  94 127 181 216 275 350 392
#     4  10  23  40  62  90 128 168 211 274 326 390
#     4  11  21  39  64  98 128 168 220 272 336 392
#     4  10  20  38  64  94 136 154 214 290 306 398
#
# _framework density 22.888013999999998
#
# number of rings (size 3 to 8) (size 9 to 14) (size 15 to 20)
#    0.000    1.333    5.000    1.750    0.000    4.000 
#    3.000    3.333    0.000    1.000    0.000    0.000 
#    0.000    0.000    0.000    0.000    0.000    0.000 
#
# Total GULP energy -268084.886499 kJ/mol
# GULP energy per Si atom -5585.101802 kJ/mol
# Density = 2.283592 g / cm^3
# Si number density = 22.888014 Si / 1000 Ang^3
#
#
#
# Elastic Constant Matrix: (Units=GPa)
#
#
# Indices 1 2 3 4 5 6 
#
# 1 113.4927 24.8608 21.5291 0.0000 0.0000 0.0000
# 2 24.8608 62.0697 6.8092 0.0000 0.0000 0.0000
# 3 21.5291 6.8092 56.7522 0.0000 0.0000 0.0000
# 4 0.0000 0.0000 0.0000 20.5037 0.0000 0.0000
# 5 0.0000 0.0000 0.0000 0.0000 20.6602 0.0000
# 6 0.0000 0.0000 0.0000 0.0000 0.0000 33.2784
#
#
#
# Elastic Compliance Matrix: (Units=1/GPa)
#
#
# Indices 1 2 3 4 5 6 
#
# 1 0.010286 -0.003741 -0.003453 0.000000 0.000000 0.000000
# 2 -0.003741 0.017686 -0.000703 0.000000 0.000000 0.000000
# 3 -0.003453 -0.000703 0.019015 0.000000 0.000000 0.000000
# 4 0.000000 0.000000 0.000000 0.048772 0.000000 0.000000
# 5 0.000000 0.000000 0.000000 0.000000 0.048402 0.000000
# 6 0.000000 0.000000 0.000000 0.000000 0.000000 0.030050
#
#
# Mechanical properties :
#
#
# Convention : Reuss Voigt Hill
#
# Bulk Modulus (GPa) = 32.05849 37.63477 34.84663
# Shear Modulus (GPa) = 24.94991 26.82949 25.88970
#
# Velocity S-wave (km/s) = 3.30523 3.42747 3.36690
# Velocity P-wave (km/s) = 5.34819 5.66940 5.51113
#
# Compressibility (1/GPa) = 0.03119298
#
# Stress axis : x y z
#
# Youngs Moduli (GPa) = 97.22312 56.54073 52.59089
#
# Poissons Ratio (x) = 0.21151 0.18160
# Poissons Ratio (y) = 0.36370 0.03697
# Poissons Ratio (z) = 0.33571 0.03974
#
# Static dielectric constant tensor:
#      x y z
#    x 1.902050 0.000000 0.000000 
#    y 0.000000 1.858970 0.000000 
#    z 0.000000 0.000000 1.847480 
# 
# From -- ./inp_files/61175.got.cif
#   From: 2010.05.17/outbox.cif.g08.bks.cpg/sg70_31_cif.got.tgz:61175.got - 2010.06.03 15:57:51.
