data_PCOD9514331
_publ_section_title
;
Structure prediction by ZEFSAII (Michael W. Deem and Ramdas Pophale) SiO2 
 PCOD9514331
Probable space group: F D D D
;
_chemical_formula_sum "Si O2"
_cell_formula_units_Z 120
_cell_length_a 21.611379
_cell_length_b 23.369373
_cell_length_c 11.025965
_cell_angle_alpha 90.000000
_cell_angle_beta 90.000000
_cell_angle_gamma 90.000000
_cell_volume 5568.601623
_symmetry_space_group_name_H-M "F D D D"
_symmetry_group_IT_number 70
_space_group.IT_coordinate_system_code '2'
_symmetry_cell_setting 'orthorhombic'
loop_
_space_group_symop_operation_xyz
x,y,z
1/4-x,1/4-y,z
x,1/4-y,1/4-z
1/4-x,y,1/4-z
-x,-y,-z
3/4+x,3/4+y,-z
-x,3/4+y,3/4+z
3/4+x,-y,3/4+z
x,1/2+y,1/2+z
1/4-x,3/4-y,1/2+z
x,3/4-y,3/4-z
1/4-x,1/2+y,3/4-z
-x,1/2-y,1/2-z
3/4+x,1/4+y,1/2-z
-x,1/4+y,1/4+z
3/4+x,1/2-y,1/4+z
1/2+x,y,1/2+z
3/4-x,1/4-y,1/2+z
1/2+x,1/4-y,3/4-z
3/4-x,y,3/4-z
1/2-x,-y,1/2-z
1/4+x,3/4+y,1/2-z
1/2-x,3/4+y,1/4+z
1/4+x,-y,1/4+z
1/2+x,1/2+y,z
3/4-x,3/4-y,z
1/2+x,3/4-y,1/4-z
3/4-x,1/2+y,1/4-z
1/2-x,1/2-y,-z
1/4+x,1/4+y,-z
1/2-x,1/4+y,3/4+z
1/4+x,1/2-y,3/4+z
loop_
_atom_site_type_symbol
_atom_site_label
_atom_site_fract_x
_atom_site_fract_y
_atom_site_fract_z
Si Si1 0.933447 0.681557 0.260853
Si Si2 0.625000 0.625000 0.625000
Si Si3 0.802141 0.562242 0.359278
Si Si4 0.969244 0.468313 0.808285
Si Si5 0.322238 0.125000 0.125000
O O1 0.953670 0.621742 0.317707
O O2 0.940853 0.729470 0.364094
O O3 0.867368 0.666707 0.202117
O O4 0.977174 0.698101 0.150199
O O5 0.668278 0.581986 0.548557
O O6 0.875000 0.544247 0.375000
O O7 0.753518 0.522031 0.429741
O O8 0.789488 0.583761 0.222504
#
# Coordination Sequence:
#
# PCOD9514331 Si02
#       5
#    32   8  32  32  16
#     4  10  19  36  58  90 115 160 209 266 322 363
#     4  12  22  36  56  94 128 158 208 258 318 386
#     4  10  18  37  56  87 122 159 210 263 307 373
#     4  11  21  35  59  89 123 160 210 267 318 371
#     4  10  19  34  64  86 122 163 214 268 318 372
#
# _framework density 21.549396000000002
#
# number of rings (size 3 to 8) (size 9 to 14) (size 15 to 20)
#    0.000    1.600    8.000    0.000    5.600    0.000 
#    0.000    1.333    0.000    0.800    0.000    0.000 
#    0.000    0.000    0.000    0.000    0.000    0.000 
#
# Total GULP energy -167232.789283 kJ/mol
# GULP energy per Si atom -5574.426309 kJ/mol
# Density = 2.150035 g / cm^3
# Si number density = 21.549396 Si / 1000 Ang^3
#
#
#
# Elastic Constant Matrix: (Units=GPa)
#
#
# Indices 1 2 3 4 5 6 
#
# 1 93.8469 33.2634 57.4123 0.0000 0.0000 0.0000
# 2 33.2634 74.5129 60.7591 0.0000 0.0000 0.0000
# 3 57.4123 60.7591 166.8670 0.0000 -0.0001 0.0000
# 4 0.0000 0.0000 0.0000 35.5948 0.0000 0.0000
# 5 0.0000 0.0000 -0.0001 0.0000 39.0268 0.0000
# 6 0.0000 0.0000 0.0000 0.0000 0.0000 26.1655
#
#
#
# Elastic Compliance Matrix: (Units=1/GPa)
#
#
# Indices 1 2 3 4 5 6 
#
# 1 0.014049 -0.003314 -0.003627 0.000000 0.000000 0.000000
# 2 -0.003314 0.019870 -0.006095 0.000000 0.000000 0.000000
# 3 -0.003627 -0.006095 0.009460 0.000000 0.000000 0.000000
# 4 0.000000 0.000000 0.000000 0.028094 0.000000 0.000000
# 5 0.000000 0.000000 0.000000 0.000000 0.025623 0.000000
# 6 0.000000 0.000000 0.000000 0.000000 0.000000 0.038218
#
#
# Mechanical properties :
#
#
# Convention : Reuss Voigt Hill
#
# Bulk Modulus (GPa) = 57.77978 70.89959 64.33969
# Shear Modulus (GPa) = 29.91235 32.41022 31.16129
#
# Velocity S-wave (km/s) = 3.72974 3.88235 3.80681
# Velocity P-wave (km/s) = 6.73935 7.28486 7.01741
#
# Compressibility (1/GPa) = 0.01730709
#
# Stress axis : x y z
#
# Youngs Moduli (GPa) = 71.17825 50.32811 105.70999
#
# Poissons Ratio (x) = 0.16680 0.38341
# Poissons Ratio (y) = 0.23590 0.64426
# Poissons Ratio (z) = 0.25817 0.30673
#
# Static dielectric constant tensor:
#      x y z
#    x 1.821740 0.000000 0.000000 
#    y 0.000000 1.864250 0.000000 
#    z 0.000000 0.000000 1.855420 
# 
# From -- ./inp_files/17386.got.cif
#   From: 2010.05.17/outbox.cif.g08.bks.cpg/sg70_9_cif.got.tgz:17386.got - 2010.06.03 15:57:51.
