data_PCOD9514123
_publ_section_title
;
Structure prediction by ZEFSAII (Michael W. Deem and Ramdas Pophale) SiO2 
 PCOD9514123
Probable space group: F D D D
;
_chemical_formula_sum "Si O2"
_cell_formula_units_Z 136
_cell_length_a 21.103867
_cell_length_b 11.875376
_cell_length_c 33.726703
_cell_angle_alpha 90.000000
_cell_angle_beta 90.000000
_cell_angle_gamma 90.000000
_cell_volume 8452.463395
_symmetry_space_group_name_H-M "F D D D"
_symmetry_group_IT_number 70
_space_group.IT_coordinate_system_code '2'
_symmetry_cell_setting 'orthorhombic'
loop_
_space_group_symop_operation_xyz
x,y,z
1/4-x,1/4-y,z
x,1/4-y,1/4-z
1/4-x,y,1/4-z
-x,-y,-z
3/4+x,3/4+y,-z
-x,3/4+y,3/4+z
3/4+x,-y,3/4+z
x,1/2+y,1/2+z
1/4-x,3/4-y,1/2+z
x,3/4-y,3/4-z
1/4-x,1/2+y,3/4-z
-x,1/2-y,1/2-z
3/4+x,1/4+y,1/2-z
-x,1/4+y,1/4+z
3/4+x,1/2-y,1/4+z
1/2+x,y,1/2+z
3/4-x,1/4-y,1/2+z
1/2+x,1/4-y,3/4-z
3/4-x,y,3/4-z
1/2-x,-y,1/2-z
1/4+x,3/4+y,1/2-z
1/2-x,3/4+y,1/4+z
1/4+x,-y,1/4+z
1/2+x,1/2+y,z
3/4-x,3/4-y,z
1/2+x,3/4-y,1/4-z
3/4-x,1/2+y,1/4-z
1/2-x,1/2-y,-z
1/4+x,1/4+y,-z
1/2-x,1/4+y,3/4+z
1/4+x,1/2-y,3/4+z
loop_
_atom_site_type_symbol
_atom_site_label
_atom_site_fract_x
_atom_site_fract_y
_atom_site_fract_z
Si Si1 0.875000 0.375000 0.875000
Si Si2 0.675034 0.875000 0.875000
Si Si3 0.536038 0.718205 0.559998
Si Si4 0.625000 0.625000 0.756278
Si Si5 0.800091 0.864573 0.099794
Si Si6 0.685459 0.770745 0.426245
O O1 0.917199 0.297136 0.902959
O O2 0.712202 0.765795 0.890212
O O3 0.627667 0.831168 0.840565
O O4 0.579460 0.700756 0.521448
O O5 0.494766 0.830023 0.566860
O O6 0.487428 0.613807 0.563868
O O7 0.667825 0.549980 0.785234
O O8 0.875000 0.875000 0.089135
O O9 0.793508 0.939081 0.140101
#
# Coordination Sequence:
#
# PCOD9514123 Si02
#       6
#     8  16  32  16  32  32
#     4  10  18  32  56  86 104 142 184 226 282 324
#     4  10  17  30  62  78 102 145 202 218 262 334
#     4  11  20  34  54  84 111 143 176 237 284 327
#     4  11  24  31  52  90 118 134 180 242 300 311
#     4  10  17  32  60  78 104 146 196 220 264 338
#     4  11  17  35  54  81 108 141 183 234 272 329
#
# _framework density 16.089984000000001
#
# number of rings (size 3 to 8) (size 9 to 14) (size 15 to 20)
#    0.000    1.412   10.588    0.706    0.000    0.000 
#    0.000    1.176    0.000    0.706    0.000    0.000 
#    0.000    0.000    0.000    0.000    0.000    0.000 
#
# Total GULP energy -189524.718594 kJ/mol
# GULP energy per Si atom -5574.256429 kJ/mol
# Density = 1.605336 g / cm^3
# Si number density = 16.089984 Si / 1000 Ang^3
#
#
#
# Elastic Constant Matrix: (Units=GPa)
#
#
# Indices 1 2 3 4 5 6 
#
# 1 60.8885 25.2124 27.3319 0.0000 0.0000 0.0000
# 2 25.2124 102.5399 20.2658 0.0000 0.0000 0.0000
# 3 27.3319 20.2658 81.3475 0.0000 0.0000 0.0000
# 4 0.0000 0.0000 0.0000 18.2336 0.0000 0.0000
# 5 0.0000 0.0000 0.0000 0.0000 22.8196 0.0000
# 6 0.0000 0.0000 0.0000 0.0000 0.0000 24.7140
#
#
#
# Elastic Compliance Matrix: (Units=1/GPa)
#
#
# Indices 1 2 3 4 5 6 
#
# 1 0.020733 -0.003914 -0.005991 0.000000 0.000000 0.000000
# 2 -0.003914 0.010996 -0.001424 0.000000 0.000000 0.000000
# 3 -0.005991 -0.001424 0.014661 0.000000 0.000000 0.000000
# 4 0.000000 0.000000 0.000000 0.054844 0.000000 0.000000
# 5 0.000000 0.000000 0.000000 0.000000 0.043822 0.000000
# 6 0.000000 0.000000 0.000000 0.000000 0.000000 0.040463
#
#
# Mechanical properties :
#
#
# Convention : Reuss Voigt Hill
#
# Bulk Modulus (GPa) = 42.13808 43.37733 42.75770
# Shear Modulus (GPa) = 23.13867 24.61781 23.87824
#
# Velocity S-wave (km/s) = 3.79632 3.91578 3.85651
# Velocity P-wave (km/s) = 6.74254 6.88928 6.81630
#
# Compressibility (1/GPa) = 0.02373151
#
# Stress axis : x y z
#
# Youngs Moduli (GPa) = 48.23131 90.94088 68.20929
#
# Poissons Ratio (x) = 0.35593 0.40865
# Poissons Ratio (y) = 0.18877 0.09716
# Poissons Ratio (z) = 0.28896 0.12954
#
# Static dielectric constant tensor:
#      x y z
#    x 1.552640 0.000000 0.000000 
#    y 0.000000 1.573890 0.000000 
#    z 0.000000 0.000000 1.534950 
# 
# From -- ./inp_files/17888.got.cif
#   From: 2010.05.17/outbox.cif.g08.bks.cpg/sg70_9_cif.got.tgz:17888.got - 2010.06.03 15:57:51.
