data_PCOD9514909
_publ_section_title
;
Structure prediction by ZEFSAII (Michael W. Deem and Ramdas Pophale) SiO2 
 PCOD9514909
Probable space group: F D D D
;
_chemical_formula_sum "Si O2"
_cell_formula_units_Z 160
_cell_length_a 31.797671
_cell_length_b 23.531630
_cell_length_c 11.254146
_cell_angle_alpha 90.000000
_cell_angle_beta 90.000000
_cell_angle_gamma 90.000000
_cell_volume 8420.926323
_symmetry_space_group_name_H-M "F D D D"
_symmetry_group_IT_number 70
_space_group.IT_coordinate_system_code '2'
_symmetry_cell_setting 'orthorhombic'
loop_
_space_group_symop_operation_xyz
x,y,z
1/4-x,1/4-y,z
x,1/4-y,1/4-z
1/4-x,y,1/4-z
-x,-y,-z
3/4+x,3/4+y,-z
-x,3/4+y,3/4+z
3/4+x,-y,3/4+z
x,1/2+y,1/2+z
1/4-x,3/4-y,1/2+z
x,3/4-y,3/4-z
1/4-x,1/2+y,3/4-z
-x,1/2-y,1/2-z
3/4+x,1/4+y,1/2-z
-x,1/4+y,1/4+z
3/4+x,1/2-y,1/4+z
1/2+x,y,1/2+z
3/4-x,1/4-y,1/2+z
1/2+x,1/4-y,3/4-z
3/4-x,y,3/4-z
1/2-x,-y,1/2-z
1/4+x,3/4+y,1/2-z
1/2-x,3/4+y,1/4+z
1/4+x,-y,1/4+z
1/2+x,1/2+y,z
3/4-x,3/4-y,z
1/2+x,3/4-y,1/4-z
3/4-x,1/2+y,1/4-z
1/2-x,1/2-y,-z
1/4+x,1/4+y,-z
1/2-x,1/4+y,3/4+z
1/4+x,1/2-y,3/4+z
loop_
_atom_site_type_symbol
_atom_site_label
_atom_site_fract_x
_atom_site_fract_y
_atom_site_fract_z
Si Si1 0.715490 0.945508 0.096684
Si Si2 0.660424 0.031967 0.225255
Si Si3 0.467696 0.372724 0.518380
Si Si4 0.893530 0.565359 0.671958
Si Si5 0.027987 0.750845 0.865993
O O1 0.741601 0.902066 0.173520
O O2 0.701183 0.001786 0.166523
O O3 0.671037 0.923589 0.042339
O O4 0.740882 0.964249 0.978466
O O5 0.625000 0.045334 0.125000
O O6 0.676932 0.087642 0.290165
O O7 0.640683 0.982308 0.304136
O O8 0.471754 0.375000 0.375000
O O9 0.462621 0.311161 0.578601
O O10 0.877559 0.625000 0.625000
O O11 0.929100 0.535518 0.590725
O O12 0.000000 0.750000 0.750000
#
# Coordination Sequence:
#
# PCOD9514909 Si02
#       5
#    32  32  32  32  32
#     4   9  21  37  57  89 123 152 206 242 299 365
#     4  10  20  37  56  91 123 153 198 252 312 348
#     4  12  21  35  62  92 123 153 204 259 301 354
#     4   9  19  38  58  82 123 159 195 245 303 372
#     4  10  22  37  61  87 117 167 199 241 306 359
#
# _framework density 19.000285000000002
#
# number of rings (size 3 to 8) (size 9 to 14) (size 15 to 20)
#    1.200    0.800    2.000    1.800    0.000    3.600 
#    0.000    0.000    0.000    0.000    0.000    5.600 
#    0.000    0.000    0.000    0.000    0.000    0.000 
#
# Total GULP energy -222694.784187 kJ/mol
# GULP energy per Si atom -5567.369605 kJ/mol
# Density = 1.895704 g / cm^3
# Si number density = 19.000285 Si / 1000 Ang^3
#
#
#
# Elastic Constant Matrix: (Units=GPa)
#
#
# Indices 1 2 3 4 5 6 
#
# 1 47.7448 22.6749 26.9234 0.0000 0.0000 0.0000
# 2 22.6749 106.4222 41.1894 0.0001 0.0000 0.0000
# 3 26.9234 41.1894 66.8258 0.0001 0.0000 0.0000
# 4 0.0000 0.0001 0.0001 32.4082 0.0000 0.0000
# 5 0.0000 0.0000 0.0000 0.0000 15.0981 0.0000
# 6 0.0000 0.0000 0.0000 0.0000 0.0000 31.2619
#
#
#
# Elastic Compliance Matrix: (Units=1/GPa)
#
#
# Indices 1 2 3 4 5 6 
#
# 1 0.027441 -0.002059 -0.009787 0.000000 0.000000 0.000000
# 2 -0.002059 0.012495 -0.006872 0.000000 0.000000 0.000000
# 3 -0.009787 -0.006872 0.023143 0.000000 0.000000 0.000000
# 4 0.000000 0.000000 0.000000 0.030856 0.000000 0.000000
# 5 0.000000 0.000000 0.000000 0.000000 0.066234 0.000000
# 6 0.000000 0.000000 0.000000 0.000000 0.000000 0.031988
#
#
# Mechanical properties :
#
#
# Convention : Reuss Voigt Hill
#
# Bulk Modulus (GPa) = 38.99572 44.72979 41.86275
# Shear Modulus (GPa) = 20.99605 24.43398 22.71502
#
# Velocity S-wave (km/s) = 3.32782 3.58995 3.46136
# Velocity P-wave (km/s) = 5.94425 6.38564 6.16889
#
# Compressibility (1/GPa) = 0.02564384
#
# Stress axis : x y z
#
# Youngs Moduli (GPa) = 36.44150 80.03240 43.20984
#
# Poissons Ratio (x) = 0.16478 0.42288
# Poissons Ratio (y) = 0.07503 0.29694
# Poissons Ratio (z) = 0.35664 0.54998
#
# Static dielectric constant tensor:
#      x y z
#    x 1.680670 0.000000 0.000000 
#    y 0.000000 1.691790 0.000000 
#    z 0.000000 0.000000 1.694040 
# 
# From -- ./inp_files/22191.got.cif
#   From: 2010.05.17/outbox.cif.g08.bks.cpg/sg70_12_cif.got.tgz:22191.got - 2010.06.03 15:57:51.
