data_PCOD9514657
_publ_section_title
;
Structure prediction by ZEFSAII (Michael W. Deem and Ramdas Pophale) SiO2 
 PCOD9514657
Probable space group: F D D D
;
_chemical_formula_sum "Si O2"
_cell_formula_units_Z 216
_cell_length_a 25.758538
_cell_length_b 26.493025
_cell_length_c 16.448495
_cell_angle_alpha 90.000000
_cell_angle_beta 90.000000
_cell_angle_gamma 90.000000
_cell_volume 11224.808131
_symmetry_space_group_name_H-M "F D D D"
_symmetry_group_IT_number 70
_space_group.IT_coordinate_system_code '2'
_symmetry_cell_setting 'orthorhombic'
loop_
_space_group_symop_operation_xyz
x,y,z
1/4-x,1/4-y,z
x,1/4-y,1/4-z
1/4-x,y,1/4-z
-x,-y,-z
3/4+x,3/4+y,-z
-x,3/4+y,3/4+z
3/4+x,-y,3/4+z
x,1/2+y,1/2+z
1/4-x,3/4-y,1/2+z
x,3/4-y,3/4-z
1/4-x,1/2+y,3/4-z
-x,1/2-y,1/2-z
3/4+x,1/4+y,1/2-z
-x,1/4+y,1/4+z
3/4+x,1/2-y,1/4+z
1/2+x,y,1/2+z
3/4-x,1/4-y,1/2+z
1/2+x,1/4-y,3/4-z
3/4-x,y,3/4-z
1/2-x,-y,1/2-z
1/4+x,3/4+y,1/2-z
1/2-x,3/4+y,1/4+z
1/4+x,-y,1/4+z
1/2+x,1/2+y,z
3/4-x,3/4-y,z
1/2+x,3/4-y,1/4-z
3/4-x,1/2+y,1/4-z
1/2-x,1/2-y,-z
1/4+x,1/4+y,-z
1/2-x,1/4+y,3/4+z
1/4+x,1/2-y,3/4+z
loop_
_atom_site_type_symbol
_atom_site_label
_atom_site_fract_x
_atom_site_fract_y
_atom_site_fract_z
Si Si1 0.577721 0.423618 0.561047
Si Si2 0.420984 0.334873 0.594633
Si Si3 0.099106 0.473930 0.314771
Si Si4 0.244322 0.481805 0.065255
Si Si5 0.966240 0.882619 0.744011
Si Si6 0.491812 0.096069 0.210485
Si Si7 0.375000 0.375000 0.875000
Si Si8 0.944854 0.125000 0.125000
O O1 0.625000 0.410520 0.625000
O O2 0.603595 0.457488 0.491495
O O3 0.536096 0.459388 0.606828
O O4 0.549933 0.375616 0.517832
O O5 0.375000 0.375000 0.597931
O O6 0.396834 0.279196 0.601382
O O7 0.459241 0.344005 0.670459
O O8 0.454937 0.343953 0.513155
O O9 0.048941 0.479968 0.256014
O O10 0.088063 0.426278 0.372431
O O11 0.284408 0.438466 0.043031
O O12 0.268217 0.537544 0.063907
O O13 0.919614 0.879739 0.805569
O O14 0.018846 0.874231 0.795138
O O15 0.497228 0.125000 0.125000
#
# Coordination Sequence:
#
# PCOD9514657 Si02
#       8
#    32  32  32  32  32  32   8  16
#     4  10  21  42  65  87 129 171 206 268 327 374
#     4  11  23  40  62  90 126 167 213 254 320 382
#     4   9  21  38  61  93 119 166 209 253 318 383
#     4   9  20  41  63  84 125 167 205 257 321 372
#     4  10  19  39  63  86 124 161 201 260 315 371
#     4  11  25  40  61  95 123 164 220 257 310 385
#     4  10  20  36  60  92 118 148 204 256 302 376
#     4   9  20  39  64  88 124 162 205 260 313 380
#
# _framework density 19.243089999999999
#
# number of rings (size 3 to 8) (size 9 to 14) (size 15 to 20)
#    0.000    2.074    2.222    0.000    3.111    2.667 
#    1.333    0.000    0.000    0.000    0.000    0.000 
#    0.000    0.000    0.000    0.000    0.000    0.000 
#
# Total GULP energy -300613.568890 kJ/mol
# GULP energy per Si atom -5566.917942 kJ/mol
# Density = 1.919929 g / cm^3
# Si number density = 19.243090 Si / 1000 Ang^3
#
#
#
# Elastic Constant Matrix: (Units=GPa)
#
#
# Indices 1 2 3 4 5 6 
#
# 1 62.6400 63.4873 35.0458 0.0000 0.0000 0.0000
# 2 63.4873 207.2490 66.7273 0.0000 0.0000 0.0000
# 3 35.0458 66.7273 102.6154 0.0000 0.0000 0.0000
# 4 0.0000 0.0000 0.0000 26.8675 0.0000 0.0000
# 5 0.0000 0.0000 0.0000 0.0000 -11.9556 0.0000
# 6 0.0000 0.0000 0.0000 0.0000 0.0000 32.1681
#
#
#
# Elastic Compliance Matrix: (Units=1/GPa)
#
#
# Indices 1 2 3 4 5 6 
#
# 1 0.024653 -0.006123 -0.004438 0.000000 0.000000 0.000000
# 2 -0.006123 0.007624 -0.002866 0.000000 0.000000 0.000000
# 3 -0.004438 -0.002866 0.013125 0.000000 0.000000 0.000000
# 4 0.000000 0.000000 0.000000 0.037220 0.000000 0.000000
# 5 0.000000 0.000000 0.000000 0.000000 -0.083643 0.000000
# 6 0.000000 0.000000 0.000000 0.000000 0.000000 0.031087
#
#
# Mechanical properties :
#
#
# Convention : Reuss Voigt Hill
#
# Bulk Modulus (GPa) = 53.91787 78.11390 66.01589
# Shear Modulus (GPa) = 79.23699 23.23228 51.23463
#
# Velocity S-wave (km/s) = 6.42388 3.47840 5.16553
# Velocity P-wave (km/s) = 9.11602 7.53749 8.36408
#
# Compressibility (1/GPa) = 0.01854673
#
# Stress axis : x y z
#
# Youngs Moduli (GPa) = 40.56265 131.17037 76.19285
#
# Poissons Ratio (x) = 0.80318 0.33814
# Poissons Ratio (y) = 0.24837 0.21838
# Poissons Ratio (z) = 0.18002 0.37596
#
# Static dielectric constant tensor:
#      x y z
#    x 1.689810 0.000000 0.000000 
#    y 0.000000 1.701210 0.000000 
#    z 0.000000 0.000000 1.680070 
# 
# From -- ./inp_files/30182.got.cif
#   From: 2010.05.17/outbox.cif.g08.bks.cpg/sg70_16_cif.got.tgz:30182.got - 2010.06.03 15:57:51.
