data_PCOD9514718
_publ_section_title
;
Structure prediction by ZEFSAII (Michael W. Deem and Ramdas Pophale) SiO2 
 PCOD9514718
Probable space group: F D D D
;
_chemical_formula_sum "Si O2"
_cell_formula_units_Z 160
_cell_length_a 19.435174
_cell_length_b 17.566299
_cell_length_c 19.760834
_cell_angle_alpha 90.000000
_cell_angle_beta 90.000000
_cell_angle_gamma 90.000000
_cell_volume 6746.429304
_symmetry_space_group_name_H-M "F D D D"
_symmetry_group_IT_number 70
_space_group.IT_coordinate_system_code '2'
_symmetry_cell_setting 'orthorhombic'
loop_
_space_group_symop_operation_xyz
x,y,z
1/4-x,1/4-y,z
x,1/4-y,1/4-z
1/4-x,y,1/4-z
-x,-y,-z
3/4+x,3/4+y,-z
-x,3/4+y,3/4+z
3/4+x,-y,3/4+z
x,1/2+y,1/2+z
1/4-x,3/4-y,1/2+z
x,3/4-y,3/4-z
1/4-x,1/2+y,3/4-z
-x,1/2-y,1/2-z
3/4+x,1/4+y,1/2-z
-x,1/4+y,1/4+z
3/4+x,1/2-y,1/4+z
1/2+x,y,1/2+z
3/4-x,1/4-y,1/2+z
1/2+x,1/4-y,3/4-z
3/4-x,y,3/4-z
1/2-x,-y,1/2-z
1/4+x,3/4+y,1/2-z
1/2-x,3/4+y,1/4+z
1/4+x,-y,1/4+z
1/2+x,1/2+y,z
3/4-x,3/4-y,z
1/2+x,3/4-y,1/4-z
3/4-x,1/2+y,1/4-z
1/2-x,1/2-y,-z
1/4+x,1/4+y,-z
1/2-x,1/4+y,3/4+z
1/4+x,1/2-y,3/4+z
loop_
_atom_site_type_symbol
_atom_site_label
_atom_site_fract_x
_atom_site_fract_y
_atom_site_fract_z
Si Si1 0.086320 0.703569 0.548062
Si Si2 0.988275 0.452846 0.157084
Si Si3 0.146189 0.356444 0.017901
Si Si4 0.725101 0.625000 0.625000
Si Si5 0.722012 0.875000 0.875000
Si Si6 0.510820 0.662066 0.764734
O O1 0.125000 0.625000 0.556905
O O2 0.138834 0.773721 0.552001
O O3 0.060065 0.702700 0.471331
O O4 0.019830 0.694418 0.596827
O O5 0.059477 0.414997 0.185761
O O6 0.991862 0.540923 0.133270
O O7 0.964341 0.404972 0.091680
O O8 0.178704 0.353283 0.942258
O O9 0.066521 0.379574 0.011946
O O10 0.696472 0.619479 0.701583
O O11 0.500000 0.750000 0.750000
#
# Coordination Sequence:
#
# PCOD9514718 Si02
#       6
#    32  32  32  16  16  32
#     4  11  25  45  69 106 149 194 254 309 367 440
#     4  10  23  41  69 108 134 192 241 298 373 439
#     4  11  23  45  72 101 143 189 244 300 378 435
#     4  10  19  44  65  98 144 172 232 298 352 442
#     4  10  26  44  74 106 144 193 247 306 372 442
#     4  10  21  38  69  96 136 180 230 291 360 432
#
# _framework density 23.716249000000001
#
# number of rings (size 3 to 8) (size 9 to 14) (size 15 to 20)
#    0.000    1.600    2.000    1.500    2.800    8.000 
#    0.000    8.000    0.000    0.000    0.000    0.000 
#    0.000    0.000    0.000    0.000    0.000    0.000 
#
# Total GULP energy -222862.541048 kJ/mol
# GULP energy per Si atom -5571.563526 kJ/mol
# Density = 2.366227 g / cm^3
# Si number density = 23.716249 Si / 1000 Ang^3
#
#
#
# Elastic Constant Matrix: (Units=GPa)
#
#
# Indices 1 2 3 4 5 6 
#
# 1 66.3557 26.2705 45.1877 0.0000 0.0000 0.0000
# 2 26.2705 118.4267 25.4024 0.0000 0.0000 0.0000
# 3 45.1877 25.4024 256.1927 0.0000 0.0000 0.0000
# 4 0.0000 0.0000 0.0000 32.2529 0.0000 0.0000
# 5 0.0000 0.0000 0.0000 0.0000 11.0538 0.0000
# 6 0.0000 0.0000 0.0000 0.0000 0.0000 12.8369
#
#
#
# Elastic Compliance Matrix: (Units=1/GPa)
#
#
# Indices 1 2 3 4 5 6 
#
# 1 0.018420 -0.003463 -0.002906 0.000000 0.000000 0.000000
# 2 -0.003463 0.009279 -0.000309 0.000000 0.000000 0.000000
# 3 -0.002906 -0.000309 0.004446 0.000000 0.000000 0.000000
# 4 0.000000 0.000000 0.000000 0.031005 0.000000 0.000000
# 5 0.000000 0.000000 0.000000 0.000000 0.090467 0.000000
# 6 0.000000 0.000000 0.000000 0.000000 0.000000 0.077901
#
#
# Mechanical properties :
#
#
# Convention : Reuss Voigt Hill
#
# Bulk Modulus (GPa) = 53.22079 70.52180 61.87129
# Shear Modulus (GPa) = 19.90956 34.16967 27.03962
#
# Velocity S-wave (km/s) = 2.90054 3.79987 3.38024
# Velocity P-wave (km/s) = 5.80576 7.00373 6.43269
#
# Compressibility (1/GPa) = 0.01878965
#
# Stress axis : x y z
#
# Youngs Moduli (GPa) = 54.28901 107.77569 224.89781
#
# Poissons Ratio (x) = 0.37321 0.65346
# Poissons Ratio (y) = 0.18799 0.06954
# Poissons Ratio (z) = 0.15774 0.03333
#
# Static dielectric constant tensor:
#      x y z
#    x 1.902430 0.000000 0.000000 
#    y 0.000000 1.898470 0.000000 
#    z 0.000000 0.000000 2.053720 
# 
# From -- ./inp_files/44740.got.cif
#   From: 2010.05.17/outbox.cif.g08.bks.cpg/sg70_23_cif.got.tgz:44740.got - 2010.06.03 15:57:51.
