data_PCOD9514450
_publ_section_title
;
Structure prediction by ZEFSAII (Michael W. Deem and Ramdas Pophale) SiO2 
 PCOD9514450
Probable space group: F D D D
;
_chemical_formula_sum "Si O2"
_cell_formula_units_Z 208
_cell_length_a 20.812563
_cell_length_b 28.940761
_cell_length_c 16.040054
_cell_angle_alpha 90.000000
_cell_angle_beta 90.000000
_cell_angle_gamma 90.000000
_cell_volume 9661.428368
_symmetry_space_group_name_H-M "F D D D"
_symmetry_group_IT_number 70
_space_group.IT_coordinate_system_code '2'
_symmetry_cell_setting 'orthorhombic'
loop_
_space_group_symop_operation_xyz
x,y,z
1/4-x,1/4-y,z
x,1/4-y,1/4-z
1/4-x,y,1/4-z
-x,-y,-z
3/4+x,3/4+y,-z
-x,3/4+y,3/4+z
3/4+x,-y,3/4+z
x,1/2+y,1/2+z
1/4-x,3/4-y,1/2+z
x,3/4-y,3/4-z
1/4-x,1/2+y,3/4-z
-x,1/2-y,1/2-z
3/4+x,1/4+y,1/2-z
-x,1/4+y,1/4+z
3/4+x,1/2-y,1/4+z
1/2+x,y,1/2+z
3/4-x,1/4-y,1/2+z
1/2+x,1/4-y,3/4-z
3/4-x,y,3/4-z
1/2-x,-y,1/2-z
1/4+x,3/4+y,1/2-z
1/2-x,3/4+y,1/4+z
1/4+x,-y,1/4+z
1/2+x,1/2+y,z
3/4-x,3/4-y,z
1/2+x,3/4-y,1/4-z
3/4-x,1/2+y,1/4-z
1/2-x,1/2-y,-z
1/4+x,1/4+y,-z
1/2-x,1/4+y,3/4+z
1/4+x,1/2-y,3/4+z
loop_
_atom_site_type_symbol
_atom_site_label
_atom_site_fract_x
_atom_site_fract_y
_atom_site_fract_z
Si Si1 0.583879 0.703636 0.207116
Si Si2 0.939345 0.178586 0.619704
Si Si3 0.781708 0.324055 0.712239
Si Si4 0.250533 0.074959 0.797176
Si Si5 0.609956 0.023905 0.877979
Si Si6 0.625000 0.380954 0.625000
Si Si7 0.794420 0.060430 0.790163
O O1 0.625000 0.690651 0.125000
O O2 0.622917 0.698085 0.293536
O O3 0.571120 0.758700 0.207922
O O4 0.512191 0.682724 0.221812
O O5 0.917632 0.125000 0.625000
O O6 0.978629 0.187047 0.704437
O O7 0.885987 0.218723 0.615223
O O8 0.987573 0.184413 0.542176
O O9 0.793580 0.378960 0.708981
O O10 0.843324 0.291937 0.700820
O O11 0.740906 0.314159 0.629357
O O12 0.211610 0.036638 0.845789
O O13 0.315138 0.089262 0.845201
O O14 0.600402 0.348187 0.700817
#
# Coordination Sequence:
#
# PCOD9514450 Si02
#       7
#    32  32  32  32  32  16  32
#     4  10  19  33  60  91 125 159 218 268 315 401
#     4  10  22  38  61  92 125 159 211 264 321 379
#     4   9  20  39  62  90 125 164 213 263 321 396
#     4  10  22  39  61  88 124 176 211 266 325 387
#     4  11  22  37  63  90 124 165 217 267 322 386
#     4  10  20  38  64  82 131 166 221 262 332 400
#     4   9  18  33  59  90 119 170 198 261 337 377
#
# _framework density 21.528908000000001
#
# number of rings (size 3 to 8) (size 9 to 14) (size 15 to 20)
#    0.000    2.154    0.769    1.846    4.308    1.846 
#    0.000    2.308    3.385   15.692    0.000    0.000 
#    0.000    0.000    0.000    0.000    0.000    0.000 
#
# Total GULP energy -290233.228076 kJ/mol
# GULP energy per Si atom -5581.408232 kJ/mol
# Density = 2.147991 g / cm^3
# Si number density = 21.528908 Si / 1000 Ang^3
#
#
#
# Elastic Constant Matrix: (Units=GPa)
#
#
# Indices 1 2 3 4 5 6 
#
# 1 99.8384 42.0743 25.5665 0.0000 0.0000 0.0000
# 2 42.0743 85.3664 12.3351 0.0000 0.0000 0.0000
# 3 25.5665 12.3351 85.0687 0.0000 0.0000 0.0000
# 4 0.0000 0.0000 0.0000 23.3720 0.0000 0.0000
# 5 0.0000 0.0000 0.0000 0.0000 30.4074 0.0000
# 6 0.0000 0.0000 0.0000 0.0000 0.0000 20.4880
#
#
#
# Elastic Compliance Matrix: (Units=1/GPa)
#
#
# Indices 1 2 3 4 5 6 
#
# 1 0.013415 -0.006158 -0.003139 0.000000 0.000000 0.000000
# 2 -0.006158 0.014792 -0.000294 0.000000 0.000000 0.000000
# 3 -0.003139 -0.000294 0.012741 0.000000 0.000000 0.000000
# 4 0.000000 0.000000 0.000000 0.042786 0.000000 0.000000
# 5 0.000000 0.000000 0.000000 0.000000 0.032887 0.000000
# 6 0.000000 0.000000 0.000000 0.000000 0.000000 0.048809
#
#
# Mechanical properties :
#
#
# Convention : Reuss Voigt Hill
#
# Bulk Modulus (GPa) = 45.94338 47.80279 46.87309
# Shear Modulus (GPa) = 26.05957 27.54001 26.79979
#
# Velocity S-wave (km/s) = 3.48292 3.58049 3.53204
# Velocity P-wave (km/s) = 6.12870 6.27259 6.20106
#
# Compressibility (1/GPa) = 0.02176592
#
# Stress axis : x y z
#
# Youngs Moduli (GPa) = 74.54200 67.60432 78.48564
#
# Poissons Ratio (x) = 0.41633 0.24635
# Poissons Ratio (y) = 0.45906 0.02308
# Poissons Ratio (z) = 0.23397 0.01988
#
# Static dielectric constant tensor:
#      x y z
#    x 1.843960 0.000000 0.000000 
#    y 0.000000 1.812620 0.000000 
#    z 0.000000 0.000000 1.781870 
# 
# From -- ./inp_files/36873.got.cif
#   From: 2010.05.17/outbox.cif.g08.bks.cpg/sg70_19_cif.got.tgz:36873.got - 2010.06.03 15:57:51.
