data_PCOD9514861
_publ_section_title
;
Structure prediction by ZEFSAII (Michael W. Deem and Ramdas Pophale) SiO2 
 PCOD9514861
Probable space group: F D D D
;
_chemical_formula_sum "Si O2"
_cell_formula_units_Z 160
_cell_length_a 26.162334
_cell_length_b 11.855932
_cell_length_c 25.171484
_cell_angle_alpha 90.000000
_cell_angle_beta 90.000000
_cell_angle_gamma 90.000000
_cell_volume 7807.662032
_symmetry_space_group_name_H-M "F D D D"
_symmetry_group_IT_number 70
_space_group.IT_coordinate_system_code '2'
_symmetry_cell_setting 'orthorhombic'
loop_
_space_group_symop_operation_xyz
x,y,z
1/4-x,1/4-y,z
x,1/4-y,1/4-z
1/4-x,y,1/4-z
-x,-y,-z
3/4+x,3/4+y,-z
-x,3/4+y,3/4+z
3/4+x,-y,3/4+z
x,1/2+y,1/2+z
1/4-x,3/4-y,1/2+z
x,3/4-y,3/4-z
1/4-x,1/2+y,3/4-z
-x,1/2-y,1/2-z
3/4+x,1/4+y,1/2-z
-x,1/4+y,1/4+z
3/4+x,1/2-y,1/4+z
1/2+x,y,1/2+z
3/4-x,1/4-y,1/2+z
1/2+x,1/4-y,3/4-z
3/4-x,y,3/4-z
1/2-x,-y,1/2-z
1/4+x,3/4+y,1/2-z
1/2-x,3/4+y,1/4+z
1/4+x,-y,1/4+z
1/2+x,1/2+y,z
3/4-x,3/4-y,z
1/2+x,3/4-y,1/4-z
3/4-x,1/2+y,1/4-z
1/2-x,1/2-y,-z
1/4+x,1/4+y,-z
1/2-x,1/4+y,3/4+z
1/4+x,1/2-y,3/4+z
loop_
_atom_site_type_symbol
_atom_site_label
_atom_site_fract_x
_atom_site_fract_y
_atom_site_fract_z
Si Si1 0.873733 0.502975 0.266712
Si Si2 0.232464 0.685087 0.724929
Si Si3 0.456080 0.899047 0.677733
Si Si4 0.264971 0.040831 0.323723
Si Si5 0.609874 0.309203 0.322453
O O1 0.875000 0.375000 0.242044
O O2 0.928716 0.487228 0.294419
O O3 0.824902 0.529432 0.304539
O O4 0.877336 0.600986 0.223381
O O5 0.269587 0.790299 0.728391
O O6 0.235572 0.616525 0.779900
O O7 0.251651 0.589599 0.683865
O O8 0.496753 0.910387 0.629748
O O9 0.435882 0.776015 0.690727
O O10 0.407952 0.979101 0.664158
O O11 0.595261 0.375000 0.375000
#
# Coordination Sequence:
#
# PCOD9514861 Si02
#       5
#    32  32  32  32  32
#     4  10  22  38  62  90 122 165 209 262 325 389
#     4  10  20  36  61  88 121 166 202 263 323 386
#     4  11  23  37  61  90 123 162 211 265 321 391
#     4  10  20  37  58  90 127 158 207 266 328 379
#     4  11  23  37  59  91 121 163 212 262 318 389
#
# _framework density 20.49269
#
# number of rings (size 3 to 8) (size 9 to 14) (size 15 to 20)
#    0.000    1.600    2.000    3.000    8.400    1.600 
#    0.000    3.000    0.000    0.000    0.000    1.400 
#    0.000    0.000    0.000    0.000    0.000    0.000 
#
# Total GULP energy -222708.427526 kJ/mol
# GULP energy per Si atom -5567.710688 kJ/mol
# Density = 2.044605 g / cm^3
# Si number density = 20.492690 Si / 1000 Ang^3
#
#
#
# Elastic Constant Matrix: (Units=GPa)
#
#
# Indices 1 2 3 4 5 6 
#
# 1 116.4146 53.0612 15.1666 0.0000 0.0000 0.0000
# 2 53.0612 123.6132 33.8210 0.0000 0.0000 0.0000
# 3 15.1666 33.8210 58.4089 0.0000 0.0000 0.0000
# 4 0.0000 0.0000 0.0000 21.0412 0.0000 0.0000
# 5 0.0000 0.0000 0.0000 0.0000 15.5100 0.0000
# 6 0.0000 0.0000 0.0000 0.0000 0.0000 36.6337
#
#
#
# Elastic Compliance Matrix: (Units=1/GPa)
#
#
# Indices 1 2 3 4 5 6 
#
# 1 0.010680 -0.004546 -0.000141 0.000000 0.000000 0.000000
# 2 -0.004546 0.011548 -0.005506 0.000000 0.000000 0.000000
# 3 -0.000141 -0.005506 0.020346 0.000000 0.000000 0.000000
# 4 0.000000 0.000000 0.000000 0.047526 0.000000 0.000000
# 5 0.000000 0.000000 0.000000 0.000000 0.064474 0.000000
# 6 0.000000 0.000000 0.000000 0.000000 0.000000 0.027297
#
#
# Mechanical properties :
#
#
# Convention : Reuss Voigt Hill
#
# Bulk Modulus (GPa) = 45.07063 55.83712 50.45387
# Shear Modulus (GPa) = 23.84895 27.72953 25.78924
#
# Velocity S-wave (km/s) = 3.41512 3.68250 3.55133
# Velocity P-wave (km/s) = 6.13123 6.73703 6.44126
#
# Compressibility (1/GPa) = 0.02218740
#
# Stress axis : x y z
#
# Youngs Moduli (GPa) = 93.62944 86.59802 49.15084
#
# Poissons Ratio (x) = 0.39367 0.00693
# Poissons Ratio (y) = 0.42564 0.27063
# Poissons Ratio (z) = 0.01320 0.47682
#
# Static dielectric constant tensor:
#      x y z
#    x 1.876960 0.000000 0.000000 
#    y 0.000000 1.742400 0.000000 
#    z 0.000000 0.000000 1.738230 
# 
# From -- ./inp_files/20861.got.cif
#   From: 2010.05.17/outbox.cif.g08.bks.cpg/sg70_11_cif.got.tgz:20861.got - 2010.06.03 15:57:51.
