data_PCOD9514599
_publ_section_title
;
Structure prediction by ZEFSAII (Michael W. Deem and Ramdas Pophale) SiO2 
 PCOD9514599
Probable space group: F D D D
;
_chemical_formula_sum "Si O2"
_cell_formula_units_Z 96
_cell_length_a 10.106823
_cell_length_b 10.869969
_cell_length_c 36.485978
_cell_angle_alpha 90.000000
_cell_angle_beta 90.000000
_cell_angle_gamma 90.000000
_cell_volume 4008.380655
_symmetry_space_group_name_H-M "F D D D"
_symmetry_group_IT_number 70
_space_group.IT_coordinate_system_code '2'
_symmetry_cell_setting 'orthorhombic'
loop_
_space_group_symop_operation_xyz
x,y,z
1/4-x,1/4-y,z
x,1/4-y,1/4-z
1/4-x,y,1/4-z
-x,-y,-z
3/4+x,3/4+y,-z
-x,3/4+y,3/4+z
3/4+x,-y,3/4+z
x,1/2+y,1/2+z
1/4-x,3/4-y,1/2+z
x,3/4-y,3/4-z
1/4-x,1/2+y,3/4-z
-x,1/2-y,1/2-z
3/4+x,1/4+y,1/2-z
-x,1/4+y,1/4+z
3/4+x,1/2-y,1/4+z
1/2+x,y,1/2+z
3/4-x,1/4-y,1/2+z
1/2+x,1/4-y,3/4-z
3/4-x,y,3/4-z
1/2-x,-y,1/2-z
1/4+x,3/4+y,1/2-z
1/2-x,3/4+y,1/4+z
1/4+x,-y,1/4+z
1/2+x,1/2+y,z
3/4-x,3/4-y,z
1/2+x,3/4-y,1/4-z
3/4-x,1/2+y,1/4-z
1/2-x,1/2-y,-z
1/4+x,1/4+y,-z
1/2-x,1/4+y,3/4+z
1/4+x,1/2-y,3/4+z
loop_
_atom_site_type_symbol
_atom_site_label
_atom_site_fract_x
_atom_site_fract_y
_atom_site_fract_z
Si Si1 0.501688 0.790217 0.553281
Si Si2 0.955356 0.246360 0.472768
Si Si3 0.875000 0.721339 0.375000
Si Si4 0.875000 0.875000 0.581116
O O1 0.375000 0.875000 0.561119
O O2 0.480122 0.718559 0.515494
O O3 0.546421 0.722366 0.590113
O O4 0.612151 0.888934 0.541743
O O5 0.875000 0.375000 0.470552
O O6 0.083307 0.236098 0.446532
O O7 0.752859 0.648669 0.393749
#
# Coordination Sequence:
#
# PCOD9514599 Si02
#       4
#    32  32  16  16
#     4  10  19  37  63  87 123 163 213 257 321 388
#     4  10  21  37  65  91 122 167 217 262 318 392
#     4  10  20  36  63  89 126 166 204 258 330 385
#     4  10  22  40  64  95 124 174 214 263 330 392
#
# _framework density 23.949819000000002
#
# number of rings (size 3 to 8) (size 9 to 14) (size 15 to 20)
#    0.000    2.000    1.667    4.000    0.000    5.333 
#    0.000   13.333    0.000   13.000    0.000    0.000 
#    0.000    0.000    0.000    0.000    0.000    0.000 
#
# Total GULP energy -133833.565933 kJ/mol
# GULP energy per Si atom -5576.398581 kJ/mol
# Density = 2.389531 g / cm^3
# Si number density = 23.949819 Si / 1000 Ang^3
#
#
#
# Elastic Constant Matrix: (Units=GPa)
#
#
# Indices 1 2 3 4 5 6 
#
# 1 138.8065 19.4030 81.5063 0.0000 0.0000 0.0000
# 2 19.4030 48.7872 43.8306 0.0000 0.0000 0.0000
# 3 81.5063 43.8306 230.7202 0.0000 0.0000 0.0000
# 4 0.0000 0.0000 0.0000 31.4401 0.0000 0.0000
# 5 0.0000 0.0000 0.0000 0.0000 60.7239 0.0000
# 6 0.0000 0.0000 0.0000 0.0000 0.0000 28.3691
#
#
#
# Elastic Compliance Matrix: (Units=1/GPa)
#
#
# Indices 1 2 3 4 5 6 
#
# 1 0.009121 -0.000883 -0.003054 0.000000 0.000000 0.000000
# 2 -0.000883 0.024801 -0.004399 0.000000 0.000000 0.000000
# 3 -0.003054 -0.004399 0.006249 0.000000 0.000000 0.000000
# 4 0.000000 0.000000 0.000000 0.031807 0.000000 0.000000
# 5 0.000000 0.000000 0.000000 0.000000 0.016468 0.000000
# 6 0.000000 0.000000 0.000000 0.000000 0.000000 0.035250
#
#
# Mechanical properties :
#
#
# Convention : Reuss Voigt Hill
#
# Bulk Modulus (GPa) = 42.55917 78.64372 60.60145
# Shear Modulus (GPa) = 33.73764 42.34488 38.04126
#
# Velocity S-wave (km/s) = 3.75731 4.20940 3.98976
# Velocity P-wave (km/s) = 6.05243 7.51888 6.82515
#
# Compressibility (1/GPa) = 0.02349670
#
# Stress axis : x y z
#
# Youngs Moduli (GPa) = 109.63326 40.32098 160.02400
#
# Poissons Ratio (x) = 0.03562 0.48878
# Poissons Ratio (y) = 0.09686 0.70401
# Poissons Ratio (z) = 0.33487 0.17739
#
# Static dielectric constant tensor:
#      x y z
#    x 2.016110 0.000000 0.000000 
#    y 0.000000 1.993890 0.000000 
#    z 0.000000 0.000000 1.949330 
# 
# From -- ./inp_files/30510.got.cif
#   From: 2010.05.17/outbox.cif.g08.bks.cpg/sg70_16_cif.got.tgz:30510.got - 2010.06.03 15:57:51.
