data_PCOD9514994
_publ_section_title
;
Structure prediction by ZEFSAII (Michael W. Deem and Ramdas Pophale) SiO2 
 PCOD9514994
Probable space group: F D D D
;
_chemical_formula_sum "Si O2"
_cell_formula_units_Z 240
_cell_length_a 13.450244
_cell_length_b 30.734524
_cell_length_c 31.111117
_cell_angle_alpha 90.000000
_cell_angle_beta 90.000000
_cell_angle_gamma 90.000000
_cell_volume 12860.926564
_symmetry_space_group_name_H-M "F D D D"
_symmetry_group_IT_number 70
_space_group.IT_coordinate_system_code '2'
_symmetry_cell_setting 'orthorhombic'
loop_
_space_group_symop_operation_xyz
x,y,z
1/4-x,1/4-y,z
x,1/4-y,1/4-z
1/4-x,y,1/4-z
-x,-y,-z
3/4+x,3/4+y,-z
-x,3/4+y,3/4+z
3/4+x,-y,3/4+z
x,1/2+y,1/2+z
1/4-x,3/4-y,1/2+z
x,3/4-y,3/4-z
1/4-x,1/2+y,3/4-z
-x,1/2-y,1/2-z
3/4+x,1/4+y,1/2-z
-x,1/4+y,1/4+z
3/4+x,1/2-y,1/4+z
1/2+x,y,1/2+z
3/4-x,1/4-y,1/2+z
1/2+x,1/4-y,3/4-z
3/4-x,y,3/4-z
1/2-x,-y,1/2-z
1/4+x,3/4+y,1/2-z
1/2-x,3/4+y,1/4+z
1/4+x,-y,1/4+z
1/2+x,1/2+y,z
3/4-x,3/4-y,z
1/2+x,3/4-y,1/4-z
3/4-x,1/2+y,1/4-z
1/2-x,1/2-y,-z
1/4+x,1/4+y,-z
1/2-x,1/4+y,3/4+z
1/4+x,1/2-y,3/4+z
loop_
_atom_site_type_symbol
_atom_site_label
_atom_site_fract_x
_atom_site_fract_y
_atom_site_fract_z
Si Si1 0.294062 0.710250 0.222859
Si Si2 0.137728 0.267564 0.499577
Si Si3 0.087909 0.977870 0.849577
Si Si4 0.625000 0.505450 0.125000
Si Si5 0.087749 0.931548 0.055197
Si Si6 0.126907 0.543396 0.420138
Si Si7 0.839831 0.082728 0.422518
Si Si8 0.731798 0.075809 0.111232
O O1 0.191825 0.730503 0.239477
O O2 0.365028 0.690780 0.258954
O O3 0.348469 0.749957 0.197828
O O4 0.256351 0.675423 0.188799
O O5 0.250000 0.250000 0.500000
O O6 0.101658 0.278618 0.451241
O O7 0.128748 0.304339 0.536900
O O8 0.177085 0.949278 0.867850
O O9 0.976624 0.967795 0.867244
O O10 0.105862 0.025779 0.871507
O O11 0.620901 0.472225 0.084809
O O12 0.117065 0.883467 0.071280
O O13 0.968847 0.934509 0.059016
O O14 0.221598 0.574387 0.421884
O O15 0.875000 0.067950 0.375000
O O16 0.730381 0.125000 0.125000
O O17 0.625000 0.055759 0.125000
#
# Coordination Sequence:
#
# PCOD9514994 Si02
#       8
#    32  32  32  16  32  32  32  32
#     4  10  21  38  60  90 113 157 207 241 295 374
#     4  11  22  37  60  88 119 156 201 251 296 368
#     4  10  20  38  63  89 117 163 205 249 307 370
#     4  10  20  38  63  88 126 158 194 254 307 376
#     4  11  20  38  60  89 123 152 201 249 309 364
#     4   9  21  38  63  83 118 163 199 246 304 371
#     4  11  23  38  57  90 123 159 200 254 311 362
#     4  10  22  40  62  86 122 162 205 257 311 357
#
# _framework density 18.661175
#
# number of rings (size 3 to 8) (size 9 to 14) (size 15 to 20)
#    0.000    1.733    2.000    2.400    1.867    3.733 
#    0.000    0.333    0.000    0.000    0.000    0.000 
#    0.000    0.000    0.000    0.000    0.000    0.000 
#
# Total GULP energy -334295.298907 kJ/mol
# GULP energy per Si atom -5571.588315 kJ/mol
# Density = 1.861870 g / cm^3
# Si number density = 18.661175 Si / 1000 Ang^3
#
#
#
# Elastic Constant Matrix: (Units=GPa)
#
#
# Indices 1 2 3 4 5 6 
#
# 1 143.4011 37.0169 57.3801 0.0000 0.0000 0.0000
# 2 37.0169 54.3097 33.6829 0.0000 0.0000 0.0000
# 3 57.3801 33.6829 146.3326 0.0000 0.0000 0.0000
# 4 0.0000 0.0000 0.0000 17.5245 0.0000 0.0000
# 5 0.0000 0.0000 0.0000 0.0000 31.8041 0.0000
# 6 0.0000 0.0000 0.0000 0.0000 0.0000 21.2108
#
#
#
# Elastic Compliance Matrix: (Units=1/GPa)
#
#
# Indices 1 2 3 4 5 6 
#
# 1 0.009198 -0.004704 -0.002524 0.000000 0.000000 0.000000
# 2 -0.004704 0.023885 -0.003653 0.000000 0.000000 0.000000
# 3 -0.002524 -0.003653 0.008664 0.000000 0.000000 0.000000
# 4 0.000000 0.000000 0.000000 0.057063 0.000000 0.000000
# 5 0.000000 0.000000 0.000000 0.000000 0.031443 0.000000
# 6 0.000000 0.000000 0.000000 0.000000 0.000000 0.047146
#
#
# Mechanical properties :
#
#
# Convention : Reuss Voigt Hill
#
# Bulk Modulus (GPa) = 50.03802 66.68923 58.36363
# Shear Modulus (GPa) = 24.29292 28.50543 26.39918
#
# Velocity S-wave (km/s) = 3.61195 3.91260 3.76527
# Velocity P-wave (km/s) = 6.65335 7.49838 7.08847
#
# Compressibility (1/GPa) = 0.01998480
#
# Stress axis : x y z
#
# Youngs Moduli (GPa) = 108.72501 41.86778 115.41557
#
# Poissons Ratio (x) = 0.19693 0.29129
# Poissons Ratio (y) = 0.51140 0.42166
# Poissons Ratio (z) = 0.27441 0.15296
#
# Static dielectric constant tensor:
#      x y z
#    x 1.668300 0.000000 0.000000 
#    y 0.000000 1.666290 0.000000 
#    z 0.000000 0.000000 2.091320 
# 
# From -- ./inp_files/66133.got.cif
#   From: 2010.05.17/outbox.cif.g08.bks.cpg/sg70_34_cif.got.tgz:66133.got - 2010.06.03 15:57:51.
