data_PCOD9514000
_publ_section_title
;
Structure prediction by ZEFSAII (Michael W. Deem and Ramdas Pophale) SiO2 
 PCOD9514000
Probable space group: F M M M
;
_chemical_formula_sum "Si O2"
_cell_formula_units_Z 36
_cell_length_a 30.000000
_cell_length_b 30.000000
_cell_length_c 9.000000
_cell_angle_alpha 90.000000
_cell_angle_beta 90.000000
_cell_angle_gamma 90.000000
_cell_volume 8100.000000
_symmetry_space_group_name_H-M "F M M M"
_symmetry_group_IT_number 69
_symmetry_cell_setting 'orthorhombic'
loop_
_space_group_symop_operation_xyz
x,y,z
-x,-y,z
x,-y,-z
-x,y,-z
-x,-y,-z
x,y,-z
-x,y,z
x,-y,z
x,1/2+y,1/2+z
-x,1/2-y,1/2+z
x,1/2-y,1/2-z
-x,1/2+y,1/2-z
-x,1/2-y,1/2-z
x,1/2+y,1/2-z
-x,1/2+y,1/2+z
x,1/2-y,1/2+z
1/2+x,y,1/2+z
1/2-x,-y,1/2+z
1/2+x,-y,1/2-z
1/2-x,y,1/2-z
1/2-x,-y,1/2-z
1/2+x,y,1/2-z
1/2-x,y,1/2+z
1/2+x,-y,1/2+z
1/2+x,1/2+y,z
1/2-x,1/2-y,z
1/2+x,1/2-y,-z
1/2-x,1/2+y,-z
1/2-x,1/2-y,-z
1/2+x,1/2+y,-z
1/2-x,1/2+y,z
1/2+x,1/2-y,z
loop_
_atom_site_type_symbol
_atom_site_label
_atom_site_fract_x
_atom_site_fract_y
_atom_site_fract_z
Si Si1 0.500000 0.553958 0.665974
Si Si2 0.947706 0.298880 0.177069
Si Si3 0.798826 0.795988 0.678634
Si Si4 0.129042 0.142641 0.178447
Si Si5 0.908197 0.050555 0.822530
O O1 0.500000 0.500000 0.656990
O O2 0.500000 0.572782 0.500000
O O3 0.455001 0.564883 0.751138
O O4 0.941604 0.250000 0.250000
O O5 0.915274 0.333030 0.260252
O O6 0.000000 0.310862 0.194376
O O7 0.937762 0.297329 0.000000
O O8 0.796661 0.792841 0.500000
O O9 0.816956 0.750000 0.750000
O O10 0.750000 0.801624 0.750000
O O11 0.830421 0.834998 0.734967
O O12 0.126054 0.089904 0.210309
O O13 0.132563 0.149118 0.000000
O O14 0.897072 0.000000 0.773050
O O15 0.914012 0.049257 0.000000
#
# Coordination Sequence:
#
# PCOD9514000 Si02
#       5
#    16  32  32  32  32
#     4   9  17  29  47  71 100 135 178 229 277 317
#     4  10  21  36  52  73 105 144 183 224 267 320
#     4  11  22  39  62  87 115 142 175 219 270 326
#     4  11  22  35  55  81 109 143 183 225 272 325
#     4   9  19  35  53  74 104 144 187 229 272 320
#
# _framework density 4.4444439999999998
#
# number of rings (size 3 to 8) (size 9 to 14) (size 15 to 20)
#    0.000    1.889    0.000    5.000    1.556    4.444 
#    0.000    0.000    0.000    0.667    0.000    0.000 
#    0.000    0.000    0.000    0.000    0.000    0.000 
#
# Total GULP energy -200983.492711 kJ/mol
# GULP energy per Si atom -5582.874798 kJ/mol
# Density = 0.443433 g / cm^3
# Si number density = 4.444444 Si / 1000 Ang^3
#
#
#
# Elastic Constant Matrix: (Units=GPa)
#
#
# Indices 1 2 3 4 5 6 
#
# 1 58.1331 55.3681 41.3882 0.0036 -0.0020 0.0033
# 2 55.3681 113.4372 55.9281 0.0078 -0.0003 -0.0065
# 3 41.3882 55.9281 108.4742 0.0180 -0.0095 -0.0093
# 4 0.0036 0.0078 0.0180 20.7448 -0.0018 -0.0099
# 5 -0.0020 -0.0003 -0.0095 -0.0018 24.5268 -0.0066
# 6 0.0033 -0.0065 -0.0093 -0.0099 -0.0066 16.9086
#
#
#
# Elastic Compliance Matrix: (Units=1/GPa)
#
#
# Indices 1 2 3 4 5 6 
#
# 1 0.034899 -0.014037 -0.006078 0.000004 0.000000 -0.000016
# 2 -0.014037 0.017466 -0.003650 -0.000001 -0.000002 0.000007
# 3 -0.006078 -0.003650 0.013420 -0.000009 0.000005 0.000007
# 4 0.000004 -0.000001 -0.000009 0.048205 0.000004 0.000028
# 5 0.000000 -0.000002 0.000005 0.000004 0.040772 0.000016
# 6 -0.000016 0.000007 0.000007 0.000028 0.000016 0.059142
#
#
# Mechanical properties :
#
#
# Convention : Reuss Voigt Hill
#
# Bulk Modulus (GPa) = 54.78000 65.04590 59.91295
# Shear Modulus (GPa) = 18.69035 20.92671 19.80853
#
# Velocity S-wave (km/s) = 3.24594 3.43465 3.34163
# Velocity P-wave (km/s) = 6.70290 7.23857 6.97588
#
# Compressibility (1/GPa) = 0.01825484
#
# Stress axis : x y z
#
# Youngs Moduli (GPa) = 28.65423 57.25324 74.51804
#
# Poissons Ratio (x) = 0.80368 0.45294
# Poissons Ratio (y) = 0.40223 0.27196
# Poissons Ratio (z) = 0.17417 0.20895
#
# Static dielectric constant tensor:
#      x y z
#    x 1.602380 0.000000 0.000000 
#    y 0.000000 1.636280 -0.000010 
#    z 0.000000 -0.000010 1.593960 
# 
# From -- ./inp_files/5525.got.cif
#   From: 2010.05.17/outbox.ucp.g08.bks.cvg/sg69_3_cif.got.tgz:5525.got - 2010.06.11 16:51:34.
