data_PCOD9514704
_publ_section_title
;
Structure prediction by ZEFSAII (Michael W. Deem and Ramdas Pophale) SiO2 
 PCOD9514704
Probable space group: F D D D
;
_chemical_formula_sum "Si O2"
_cell_formula_units_Z 160
_cell_length_a 15.530235
_cell_length_b 23.945581
_cell_length_c 21.736843
_cell_angle_alpha 90.000000
_cell_angle_beta 90.000000
_cell_angle_gamma 90.000000
_cell_volume 8083.508046
_symmetry_space_group_name_H-M "F D D D"
_symmetry_group_IT_number 70
_space_group.IT_coordinate_system_code '2'
_symmetry_cell_setting 'orthorhombic'
loop_
_space_group_symop_operation_xyz
x,y,z
1/4-x,1/4-y,z
x,1/4-y,1/4-z
1/4-x,y,1/4-z
-x,-y,-z
3/4+x,3/4+y,-z
-x,3/4+y,3/4+z
3/4+x,-y,3/4+z
x,1/2+y,1/2+z
1/4-x,3/4-y,1/2+z
x,3/4-y,3/4-z
1/4-x,1/2+y,3/4-z
-x,1/2-y,1/2-z
3/4+x,1/4+y,1/2-z
-x,1/4+y,1/4+z
3/4+x,1/2-y,1/4+z
1/2+x,y,1/2+z
3/4-x,1/4-y,1/2+z
1/2+x,1/4-y,3/4-z
3/4-x,y,3/4-z
1/2-x,-y,1/2-z
1/4+x,3/4+y,1/2-z
1/2-x,3/4+y,1/4+z
1/4+x,-y,1/4+z
1/2+x,1/2+y,z
3/4-x,3/4-y,z
1/2+x,3/4-y,1/4-z
3/4-x,1/2+y,1/4-z
1/2-x,1/2-y,-z
1/4+x,1/4+y,-z
1/2-x,1/4+y,3/4+z
1/4+x,1/2-y,3/4+z
loop_
_atom_site_type_symbol
_atom_site_label
_atom_site_fract_x
_atom_site_fract_y
_atom_site_fract_z
Si Si1 0.860923 0.552865 0.766929
Si Si2 0.375000 0.875000 0.513150
Si Si3 0.375000 0.121135 0.375000
Si Si4 0.255468 0.571151 0.583229
Si Si5 0.593120 0.566398 0.487842
Si Si6 0.710356 0.050706 0.870311
O O1 0.902577 0.589151 0.819860
O O2 0.905011 0.569226 0.703515
O O3 0.759388 0.563853 0.766169
O O4 0.874505 0.487021 0.775913
O O5 0.317529 0.915815 0.468893
O O6 0.321570 0.831678 0.557664
O O7 0.455892 0.084062 0.356703
O O8 0.250460 0.625000 0.625000
O O9 0.258308 0.514186 0.624213
O O10 0.625000 0.625000 0.513051
O O11 0.634400 0.558896 0.420038
#
# Coordination Sequence:
#
# PCOD9514704 Si02
#       6
#    32  16  16  32  32  32
#     4  10  22  39  66  93 129 170 222 277 336 402
#     4  12  23  46  70  98 138 181 226 284 340 412
#     4  12  20  40  66 100 126 180 222 272 334 420
#     4  11  27  45  63 101 138 174 228 285 340 414
#     4  10  19  41  64  93 130 170 219 283 329 400
#     4  11  24  41  68  97 132 179 225 274 341 407
#
# _framework density 19.793386000000002
#
# number of rings (size 3 to 8) (size 9 to 14) (size 15 to 20)
#    0.000    1.200    5.000    0.300    2.800    2.400 
#    0.000    0.500    0.000    0.000    0.000    0.000 
#    0.000    0.000    0.000    0.000    0.000    0.000 
#
# Total GULP energy -222950.957888 kJ/mol
# GULP energy per Si atom -5573.773947 kJ/mol
# Density = 1.974834 g / cm^3
# Si number density = 19.793386 Si / 1000 Ang^3
#
#
#
# Elastic Constant Matrix: (Units=GPa)
#
#
# Indices 1 2 3 4 5 6 
#
# 1 79.9170 35.7609 25.1415 0.0000 0.0000 0.0000
# 2 35.7609 183.4798 65.2876 0.0000 0.0000 0.0000
# 3 25.1415 65.2876 59.9882 0.0000 0.0000 0.0000
# 4 0.0000 0.0000 0.0000 36.0647 0.0000 0.0000
# 5 0.0000 0.0000 0.0000 0.0000 23.8734 0.0000
# 6 0.0000 0.0000 0.0000 0.0000 0.0000 21.2346
#
#
#
# Elastic Compliance Matrix: (Units=1/GPa)
#
#
# Indices 1 2 3 4 5 6 
#
# 1 0.014545 -0.001087 -0.004913 0.000000 0.000000 0.000000
# 2 -0.001087 0.008976 -0.009314 0.000000 0.000000 0.000000
# 3 -0.004913 -0.009314 0.028866 0.000000 0.000000 0.000000
# 4 0.000000 0.000000 0.000000 0.027728 0.000000 0.000000
# 5 0.000000 0.000000 0.000000 0.000000 0.041888 0.000000
# 6 0.000000 0.000000 0.000000 0.000000 0.000000 0.047093
#
#
# Mechanical properties :
#
#
# Convention : Reuss Voigt Hill
#
# Bulk Modulus (GPa) = 45.95696 63.97389 54.96543
# Shear Modulus (GPa) = 24.15748 29.38085 26.76917
#
# Velocity S-wave (km/s) = 3.49733 3.85694 3.68153
# Velocity P-wave (km/s) = 6.29104 7.22673 6.77506
#
# Compressibility (1/GPa) = 0.02175949
#
# Stress axis : x y z
#
# Youngs Moduli (GPa) = 68.75264 111.40792 34.64340
#
# Poissons Ratio (x) = 0.12105 0.17021
# Poissons Ratio (y) = 0.07470 0.32265
# Poissons Ratio (z) = 0.33780 1.03761
#
# Static dielectric constant tensor:
#      x y z
#    x 1.499500 0.000000 0.000000 
#    y 0.000000 1.732160 0.000000 
#    z 0.000000 0.000000 1.708690 
# 
# From -- ./inp_files/28676.got.cif
#   From: 2010.05.17/outbox.cif.g08.bks.cpg/sg70_15_cif.got.tgz:28676.got - 2010.06.03 15:57:51.
