data_PCOD9514060
_publ_section_title
;
Structure prediction by ZEFSAII (Michael W. Deem and Ramdas Pophale) SiO2 
 PCOD9514060
Probable space group: F D D D
;
_chemical_formula_sum "Si O2"
_cell_formula_units_Z 128
_cell_length_a 19.650567
_cell_length_b 13.561380
_cell_length_c 24.494477
_cell_angle_alpha 90.000000
_cell_angle_beta 90.000000
_cell_angle_gamma 90.000000
_cell_volume 6527.503937
_symmetry_space_group_name_H-M "F D D D"
_symmetry_group_IT_number 70
_space_group.IT_coordinate_system_code '2'
_symmetry_cell_setting 'orthorhombic'
loop_
_space_group_symop_operation_xyz
x,y,z
1/4-x,1/4-y,z
x,1/4-y,1/4-z
1/4-x,y,1/4-z
-x,-y,-z
3/4+x,3/4+y,-z
-x,3/4+y,3/4+z
3/4+x,-y,3/4+z
x,1/2+y,1/2+z
1/4-x,3/4-y,1/2+z
x,3/4-y,3/4-z
1/4-x,1/2+y,3/4-z
-x,1/2-y,1/2-z
3/4+x,1/4+y,1/2-z
-x,1/4+y,1/4+z
3/4+x,1/2-y,1/4+z
1/2+x,y,1/2+z
3/4-x,1/4-y,1/2+z
1/2+x,1/4-y,3/4-z
3/4-x,y,3/4-z
1/2-x,-y,1/2-z
1/4+x,3/4+y,1/2-z
1/2-x,3/4+y,1/4+z
1/4+x,-y,1/4+z
1/2+x,1/2+y,z
3/4-x,3/4-y,z
1/2+x,3/4-y,1/4-z
3/4-x,1/2+y,1/4-z
1/2-x,1/2-y,-z
1/4+x,1/4+y,-z
1/2-x,1/4+y,3/4+z
1/4+x,1/2-y,3/4+z
loop_
_atom_site_type_symbol
_atom_site_label
_atom_site_fract_x
_atom_site_fract_y
_atom_site_fract_z
Si Si1 0.625000 0.125000 0.720968
Si Si2 0.064748 0.318031 0.443390
Si Si3 0.938712 0.125000 0.625000
Si Si4 0.756213 0.787625 0.703974
Si Si5 0.237189 0.246921 0.088163
O O1 0.572648 0.065005 0.759463
O O2 0.582494 0.199599 0.682917
O O3 0.137549 0.313865 0.414761
O O4 0.053208 0.270461 0.501697
O O5 0.043797 0.434403 0.446532
O O6 0.009857 0.275518 0.400048
O O7 0.980091 0.199012 0.586968
O O8 0.740117 0.888159 0.672260
#
# Coordination Sequence:
#
# PCOD9514060 Si02
#       5
#    16  32  16  32  32
#     4  10  16  29  52  78 108 136 170 241 302 326
#     4   9  19  32  48  80 109 132 181 231 274 335
#     4  10  20  34  52  77 108 149 186 222 270 328
#     4  11  19  31  51  75 107 148 183 220 274 333
#     4   9  18  30  48  77 108 134 172 227 286 339
#
# _framework density 19.609334
#
# number of rings (size 3 to 8) (size 9 to 14) (size 15 to 20)
#    0.000    2.500    0.000    7.500    0.000    8.000 
#    0.000    1.250    0.000    0.000    0.000    0.000 
#    0.000    0.000    0.000    2.250    0.000    0.000 
#
# Total GULP energy -178557.430356 kJ/mol
# GULP energy per Si atom -5579.919699 kJ/mol
# Density = 1.956470 g / cm^3
# Si number density = 19.609334 Si / 1000 Ang^3
#
#
#
# Elastic Constant Matrix: (Units=GPa)
#
#
# Indices 1 2 3 4 5 6 
#
# 1 38.7608 43.3756 38.3236 0.0000 0.0000 0.0000
# 2 43.3756 105.4886 96.0018 0.0000 0.0000 0.0000
# 3 38.3236 96.0018 136.0484 0.0000 0.0000 0.0000
# 4 0.0000 0.0000 0.0000 31.1298 0.0000 0.0000
# 5 0.0000 0.0000 0.0000 0.0000 7.0187 0.0000
# 6 0.0000 0.0000 0.0000 0.0000 0.0000 15.7160
#
#
#
# Elastic Compliance Matrix: (Units=1/GPa)
#
#
# Indices 1 2 3 4 5 6 
#
# 1 0.047852 -0.020706 0.001132 0.000000 0.000000 0.000000
# 2 -0.020706 0.035453 -0.019185 0.000000 0.000000 0.000000
# 3 0.001132 -0.019185 0.020569 0.000000 0.000000 0.000000
# 4 0.000000 0.000000 0.000000 0.032124 0.000000 0.000000
# 5 0.000000 0.000000 0.000000 0.000000 0.142476 0.000000
# 6 0.000000 0.000000 0.000000 0.000000 0.000000 0.063629
#
#
# Mechanical properties :
#
#
# Convention : Reuss Voigt Hill
#
# Bulk Modulus (GPa) = 37.94203 70.63332 54.28768
# Shear Modulus (GPa) = 11.67120 17.61268 14.64194
#
# Velocity S-wave (km/s) = 2.44229 3.00021 2.73551
# Velocity P-wave (km/s) = 5.22915 6.93543 6.14183
#
# Compressibility (1/GPa) = 0.02635600
#
# Stress axis : x y z
#
# Youngs Moduli (GPa) = 20.89798 28.20644 48.61681
#
# Poissons Ratio (x) = 0.58404 -0.05502
# Poissons Ratio (y) = 0.43271 0.93269
# Poissons Ratio (z) = -0.02365 0.54113
#
# Static dielectric constant tensor:
#      x y z
#    x 1.732160 0.000000 0.000000 
#    y 0.000000 1.683620 0.000000 
#    z 0.000000 0.000000 1.733590 
# 
# From -- ./inp_files/50113.got.cif
#   From: 2010.05.17/outbox.cif.g08.bks.cpg/sg70_26_cif.got.tgz:50113.got - 2010.06.03 15:57:51.
