data_PCOD9514766
_publ_section_title
;
Structure prediction by ZEFSAII (Michael W. Deem and Ramdas Pophale) SiO2 
 PCOD9514766
Probable space group: F D D D
;
_chemical_formula_sum "Si O2"
_cell_formula_units_Z 88
_cell_length_a 35.099502
_cell_length_b 5.158150
_cell_length_c 21.821220
_cell_angle_alpha 90.000000
_cell_angle_beta 90.000000
_cell_angle_gamma 90.000000
_cell_volume 3950.699067
_symmetry_space_group_name_H-M "F D D D"
_symmetry_group_IT_number 70
_space_group.IT_coordinate_system_code '2'
_symmetry_cell_setting 'orthorhombic'
loop_
_space_group_symop_operation_xyz
x,y,z
1/4-x,1/4-y,z
x,1/4-y,1/4-z
1/4-x,y,1/4-z
-x,-y,-z
3/4+x,3/4+y,-z
-x,3/4+y,3/4+z
3/4+x,-y,3/4+z
x,1/2+y,1/2+z
1/4-x,3/4-y,1/2+z
x,3/4-y,3/4-z
1/4-x,1/2+y,3/4-z
-x,1/2-y,1/2-z
3/4+x,1/4+y,1/2-z
-x,1/4+y,1/4+z
3/4+x,1/2-y,1/4+z
1/2+x,y,1/2+z
3/4-x,1/4-y,1/2+z
1/2+x,1/4-y,3/4-z
3/4-x,y,3/4-z
1/2-x,-y,1/2-z
1/4+x,3/4+y,1/2-z
1/2-x,3/4+y,1/4+z
1/4+x,-y,1/4+z
1/2+x,1/2+y,z
3/4-x,3/4-y,z
1/2+x,3/4-y,1/4-z
3/4-x,1/2+y,1/4-z
1/2-x,1/2-y,-z
1/4+x,1/4+y,-z
1/2-x,1/4+y,3/4+z
1/4+x,1/2-y,3/4+z
loop_
_atom_site_type_symbol
_atom_site_label
_atom_site_fract_x
_atom_site_fract_y
_atom_site_fract_z
Si Si1 0.209917 0.255672 0.463683
Si Si2 0.875000 0.875000 0.875000
Si Si3 0.754356 0.625000 0.125000
Si Si4 0.062089 0.763576 0.719502
O O1 0.250000 0.250000 0.500000
O O2 0.190286 0.528100 0.481309
O O3 0.221032 0.117416 0.399387
O O4 0.185675 0.032523 0.496083
O O5 0.903799 0.735701 0.828886
O O6 0.726532 0.520486 0.178744
#
# Coordination Sequence:
#
# PCOD9514766 Si02
#       4
#    32   8  16  32
#     4  10  20  34  54  86 115 144 191 240 296 350
#     4  10  24  42  60  82 120 158 200 246 300 360
#     4   9  18  33  56  82 114 142 178 240 294 332
#     4  10  22  35  56  85 114 151 191 238 291 355
#
# _framework density 22.274539999999998
#
# number of rings (size 3 to 8) (size 9 to 14) (size 15 to 20)
#    0.000    2.182    0.000    4.364    0.000   23.273 
#    0.000    0.000    0.000    4.364    0.000    0.000 
#    0.000    0.000    0.000    0.000    0.000    0.000 
#
# Total GULP energy -122694.640216 kJ/mol
# GULP energy per Si atom -5577.029101 kJ/mol
# Density = 2.222384 g / cm^3
# Si number density = 22.274540 Si / 1000 Ang^3
#
#
#
# Elastic Constant Matrix: (Units=GPa)
#
#
# Indices 1 2 3 4 5 6 
#
# 1 70.7095 26.6196 40.1017 0.0030 0.0012 0.0025
# 2 26.6196 104.3477 44.8105 -0.0077 -0.0002 0.0072
# 3 40.1017 44.8105 117.2919 -0.0012 0.0012 0.0019
# 4 0.0030 -0.0077 -0.0012 -1.0482 -0.0007 0.0003
# 5 0.0012 -0.0002 0.0012 -0.0007 30.8166 0.0011
# 6 0.0025 0.0072 0.0019 0.0003 0.0011 -4.7926
#
#
#
# Elastic Compliance Matrix: (Units=1/GPa)
#
#
# Indices 1 2 3 4 5 6 
#
# 1 0.018007 -0.002332 -0.005265 0.000075 0.000000 0.000004
# 2 -0.002332 0.011766 -0.003698 -0.000089 0.000000 0.000015
# 3 -0.005265 -0.003698 0.011739 -0.000001 0.000000 -0.000004
# 4 0.000075 -0.000089 -0.000001 -0.954017 -0.000021 -0.000057
# 5 0.000000 0.000000 0.000000 -0.000021 0.032450 0.000007
# 6 0.000004 0.000015 -0.000004 -0.000057 0.000007 -0.208654
#
#
# Mechanical properties :
#
#
# Convention : Reuss Voigt Hill
#
# Bulk Modulus (GPa) = 52.85279 57.26808 55.06044
# Shear Modulus (GPa) = -4.71782 17.04963 6.16591
#
# Velocity S-wave (km/s) = -1.45692 2.76964 1.66558
# Velocity P-wave (km/s) = 4.57703 5.99949 5.33587
#
# Compressibility (1/GPa) = 0.01892048
#
# Stress axis : x y z
#
# Youngs Moduli (GPa) = 55.53525 84.98841 85.18881
#
# Poissons Ratio (x) = 0.19823 0.44854
# Poissons Ratio (y) = 0.12953 0.31501
# Poissons Ratio (z) = 0.29241 0.31427
#
# Static dielectric constant tensor:
#      x y z
#    x 1.841430 0.000000 0.000000 
#    y 0.000000 1.859610 0.000040 
#    z 0.000000 0.000040 2.243360 
# 
# From -- ./inp_files/54624.got.cif
#   From: 2010.05.17/outbox.cif.g08.bks.cpg/sg70_28_cif.got.tgz:54624.got - 2010.06.03 15:57:51.
