data_PCOD9514436
_publ_section_title
;
Structure prediction by ZEFSAII (Michael W. Deem and Ramdas Pophale) SiO2 
 PCOD9514436
Probable space group: F D D D
;
_chemical_formula_sum "Si O2"
_cell_formula_units_Z 160
_cell_length_a 28.765418
_cell_length_b 26.662822
_cell_length_c 9.679922
_cell_angle_alpha 90.000000
_cell_angle_beta 90.000000
_cell_angle_gamma 90.000000
_cell_volume 7424.182865
_symmetry_space_group_name_H-M "F D D D"
_symmetry_group_IT_number 70
_space_group.IT_coordinate_system_code '2'
_symmetry_cell_setting 'orthorhombic'
loop_
_space_group_symop_operation_xyz
x,y,z
1/4-x,1/4-y,z
x,1/4-y,1/4-z
1/4-x,y,1/4-z
-x,-y,-z
3/4+x,3/4+y,-z
-x,3/4+y,3/4+z
3/4+x,-y,3/4+z
x,1/2+y,1/2+z
1/4-x,3/4-y,1/2+z
x,3/4-y,3/4-z
1/4-x,1/2+y,3/4-z
-x,1/2-y,1/2-z
3/4+x,1/4+y,1/2-z
-x,1/4+y,1/4+z
3/4+x,1/2-y,1/4+z
1/2+x,y,1/2+z
3/4-x,1/4-y,1/2+z
1/2+x,1/4-y,3/4-z
3/4-x,y,3/4-z
1/2-x,-y,1/2-z
1/4+x,3/4+y,1/2-z
1/2-x,3/4+y,1/4+z
1/4+x,-y,1/4+z
1/2+x,1/2+y,z
3/4-x,3/4-y,z
1/2+x,3/4-y,1/4-z
3/4-x,1/2+y,1/4-z
1/2-x,1/2-y,-z
1/4+x,1/4+y,-z
1/2-x,1/4+y,3/4+z
1/4+x,1/2-y,3/4+z
loop_
_atom_site_type_symbol
_atom_site_label
_atom_site_fract_x
_atom_site_fract_y
_atom_site_fract_z
Si Si1 0.375000 0.875000 0.613388
Si Si2 0.587000 0.230243 0.308573
Si Si3 0.570435 0.480461 0.953641
Si Si4 0.408030 0.625000 0.125000
Si Si5 0.125000 0.942965 0.625000
Si Si6 0.447833 0.875000 0.375000
Si Si7 0.268228 0.979015 0.460232
O O1 0.397271 0.828508 0.698926
O O2 0.415047 0.892163 0.503569
O O3 0.629228 0.251966 0.403455
O O4 0.586667 0.266235 0.175037
O O5 0.538701 0.236834 0.388745
O O6 0.567525 0.420238 0.955001
O O7 0.531184 0.498209 0.843786
O O8 0.555850 0.499166 0.102823
O O9 0.382812 0.593458 0.245724
O O10 0.478312 0.919672 0.316026
#
# Coordination Sequence:
#
# PCOD9514436 Si02
#       7
#    16  32  32  16  16  16  32
#     4   9  16  29  56  82 120 156 200 252 320 376
#     4  10  20  37  56  88 120 162 205 261 312 394
#     4  10  20  34  56  89 121 160 205 259 309 372
#     4  10  23  40  59  88 121 162 214 263 305 394
#     4  10  24  39  64  88 120 171 216 256 338 370
#     4   9  15  28  51  86 116 162 198 248 311 380
#     4  10  19  32  59  89 124 157 209 261 317 373
#
# _framework density 21.551192
#
# number of rings (size 3 to 8) (size 9 to 14) (size 15 to 20)
#    0.000    2.200    2.000    1.200    5.600    0.400 
#    0.000    4.000    0.000    0.000   10.400    0.000 
#    0.000    0.000    0.000    0.000    0.000    0.000 
#
# Total GULP energy -222693.897368 kJ/mol
# GULP energy per Si atom -5567.347434 kJ/mol
# Density = 2.150214 g / cm^3
# Si number density = 21.551192 Si / 1000 Ang^3
#
#
#
# Elastic Constant Matrix: (Units=GPa)
#
#
# Indices 1 2 3 4 5 6 
#
# 1 51.0943 -7.8067 11.6511 -0.0010 0.0001 -0.0111
# 2 -7.8067 87.9522 30.3401 -0.0015 0.0025 0.0075
# 3 11.6511 30.3401 95.9896 -0.0003 -0.0021 0.0021
# 4 -0.0010 -0.0015 -0.0003 26.4453 0.0002 0.0041
# 5 0.0001 0.0025 -0.0021 0.0002 19.3090 -0.0224
# 6 -0.0111 0.0075 0.0021 0.0041 -0.0224 -191.5401
#
#
#
# Elastic Compliance Matrix: (Units=1/GPa)
#
#
# Indices 1 2 3 4 5 6 
#
# 1 0.020835 0.003055 -0.003495 0.000001 -0.000001 -0.000001
# 2 0.003055 0.013209 -0.004546 0.000001 -0.000002 0.000000
# 3 -0.003495 -0.004546 0.012279 0.000000 0.000002 0.000000
# 4 0.000001 0.000001 0.000000 0.037814 0.000000 0.000001
# 5 -0.000001 -0.000002 0.000002 0.000000 0.051789 -0.000006
# 6 -0.000001 0.000000 0.000000 0.000001 -0.000006 -0.005221
#
#
# Mechanical properties :
#
#
# Convention : Reuss Voigt Hill
#
# Bulk Modulus (GPa) = 27.50880 33.71169 30.61024
# Shear Modulus (GPa) = 32.72379 -15.76706 8.47837
#
# Velocity S-wave (km/s) = 3.90092 -2.70776 1.98560
# Velocity P-wave (km/s) = 5.75167 2.42911 4.41488
#
# Compressibility (1/GPa) = 0.03635200
#
# Stress axis : x y z
#
# Youngs Moduli (GPa) = 47.99557 75.70527 81.44112
#
# Poissons Ratio (x) = -0.23127 0.28460
# Poissons Ratio (y) = -0.14662 0.37022
# Poissons Ratio (z) = 0.16772 0.34415
#
# Static dielectric constant tensor:
#      x y z
#    x 1.824270 0.000000 0.000000 
#    y 0.000000 1.802650 0.000000 
#    z 0.000000 0.000000 1.892520 
# 
# From -- ./inp_files/19579.got.cif
#   From: 2010.05.17/outbox.cif.g08.bks.cpg/sg70_10_cif.got.tgz:19579.got - 2010.06.03 15:57:51.
