data_PCOD9514933
_publ_section_title
;
Structure prediction by ZEFSAII (Michael W. Deem and Ramdas Pophale) SiO2 
 PCOD9514933
Probable space group: F D D D
;
_chemical_formula_sum "Si O2"
_cell_formula_units_Z 136
_cell_length_a 11.479178
_cell_length_b 25.471640
_cell_length_c 19.794858
_cell_angle_alpha 90.000000
_cell_angle_beta 90.000000
_cell_angle_gamma 90.000000
_cell_volume 5787.887605
_symmetry_space_group_name_H-M "F D D D"
_symmetry_group_IT_number 70
_space_group.IT_coordinate_system_code '2'
_symmetry_cell_setting 'orthorhombic'
loop_
_space_group_symop_operation_xyz
x,y,z
1/4-x,1/4-y,z
x,1/4-y,1/4-z
1/4-x,y,1/4-z
-x,-y,-z
3/4+x,3/4+y,-z
-x,3/4+y,3/4+z
3/4+x,-y,3/4+z
x,1/2+y,1/2+z
1/4-x,3/4-y,1/2+z
x,3/4-y,3/4-z
1/4-x,1/2+y,3/4-z
-x,1/2-y,1/2-z
3/4+x,1/4+y,1/2-z
-x,1/4+y,1/4+z
3/4+x,1/2-y,1/4+z
1/2+x,y,1/2+z
3/4-x,1/4-y,1/2+z
1/2+x,1/4-y,3/4-z
3/4-x,y,3/4-z
1/2-x,-y,1/2-z
1/4+x,3/4+y,1/2-z
1/2-x,3/4+y,1/4+z
1/4+x,-y,1/4+z
1/2+x,1/2+y,z
3/4-x,3/4-y,z
1/2+x,3/4-y,1/4-z
3/4-x,1/2+y,1/4-z
1/2-x,1/2-y,-z
1/4+x,1/4+y,-z
1/2-x,1/4+y,3/4+z
1/4+x,1/2-y,3/4+z
loop_
_atom_site_type_symbol
_atom_site_label
_atom_site_fract_x
_atom_site_fract_y
_atom_site_fract_z
Si Si1 0.503359 0.827014 0.259868
Si Si2 0.375000 0.375000 0.875000
Si Si3 0.308368 0.637673 0.942772
Si Si4 0.322678 0.261207 0.697617
Si Si5 0.606271 0.036163 0.299036
O O1 0.453809 0.836994 0.332507
O O2 0.584544 0.875092 0.240619
O O3 0.593049 0.779620 0.264424
O O4 0.389923 0.815337 0.214826
O O5 0.375000 0.655983 0.875000
O O6 0.217624 0.679050 0.972458
O O7 0.237932 0.582449 0.930018
O O8 0.344646 0.256621 0.616604
O O9 0.202227 0.248090 0.738128
#
# Coordination Sequence:
#
# PCOD9514933 Si02
#       5
#    32   8  32  32  32
#     4  10  22  36  64  90 133 163 224 270 346 385
#     4  12  24  36  64 106 120 164 212 294 324 410
#     4  10  20  37  61  95 126 184 222 273 326 424
#     4  10  20  39  62  95 129 177 216 292 329 405
#     4  10  21  36  65  92 134 173 233 276 342 396
#
# _framework density 23.497346
#
# number of rings (size 3 to 8) (size 9 to 14) (size 15 to 20)
#    0.000    1.882    2.353    1.412    3.294    0.000 
#    0.000    1.176    0.000    9.882    0.000    0.000 
#    0.000    0.000    0.000    0.000    0.000    0.000 
#
# Total GULP energy -189384.975347 kJ/mol
# GULP energy per Si atom -5570.146334 kJ/mol
# Density = 2.344386 g / cm^3
# Si number density = 23.497346 Si / 1000 Ang^3
#
#
#
# Elastic Constant Matrix: (Units=GPa)
#
#
# Indices 1 2 3 4 5 6 
#
# 1 175.0752 60.8549 68.2209 0.0000 0.0000 0.0000
# 2 60.8549 71.1644 19.7431 0.0000 0.0000 0.0000
# 3 68.2209 19.7431 108.5019 0.0000 0.0000 0.0000
# 4 0.0000 0.0000 0.0000 53.6609 0.0000 0.0000
# 5 0.0000 0.0000 0.0000 0.0000 64.6263 0.0000
# 6 0.0000 0.0000 0.0000 0.0000 0.0000 26.8069
#
#
#
# Elastic Compliance Matrix: (Units=1/GPa)
#
#
# Indices 1 2 3 4 5 6 
#
# 1 0.010261 -0.007356 -0.005113 0.000000 0.000000 0.000000
# 2 -0.007356 0.020073 0.000973 0.000000 0.000000 0.000000
# 3 -0.005113 0.000973 0.012254 0.000000 0.000000 0.000000
# 4 0.000000 0.000000 0.000000 0.018636 0.000000 0.000000
# 5 0.000000 0.000000 0.000000 0.000000 0.015474 0.000000
# 6 0.000000 0.000000 0.000000 0.000000 0.000000 0.037304
#
#
# Mechanical properties :
#
#
# Convention : Reuss Voigt Hill
#
# Bulk Modulus (GPa) = 51.03355 72.48658 61.76007
# Shear Modulus (GPa) = 34.83689 42.74699 38.79194
#
# Velocity S-wave (km/s) = 3.85462 4.26987 4.06754
# Velocity P-wave (km/s) = 6.44800 7.43134 6.95707
#
# Compressibility (1/GPa) = 0.01959495
#
# Stress axis : x y z
#
# Youngs Moduli (GPa) = 97.45417 49.81927 81.60337
#
# Poissons Ratio (x) = 0.36648 0.41726
# Poissons Ratio (y) = 0.71689 -0.07938
# Poissons Ratio (z) = 0.49831 -0.04846
#
# Static dielectric constant tensor:
#      x y z
#    x 1.926320 0.000000 0.000000 
#    y 0.000000 3.034020 0.000000 
#    z 0.000000 0.000000 1.907110 
# 
# From -- ./inp_files/17684.got.cif
#   From: 2010.05.17/outbox.cif.g08.bks.cpg/sg70_9_cif.got.tgz:17684.got - 2010.06.03 15:57:51.
