data_PCOD9514194
_publ_section_title
;
Structure prediction by ZEFSAII (Michael W. Deem and Ramdas Pophale) SiO2 
 PCOD9514194
Probable space group: F D D D
;
_chemical_formula_sum "Si O2"
_cell_formula_units_Z 208
_cell_length_a 15.917111
_cell_length_b 20.944871
_cell_length_c 29.434113
_cell_angle_alpha 90.000000
_cell_angle_beta 90.000000
_cell_angle_gamma 90.000000
_cell_volume 9812.798650
_symmetry_space_group_name_H-M "F D D D"
_symmetry_group_IT_number 70
_space_group.IT_coordinate_system_code '2'
_symmetry_cell_setting 'orthorhombic'
loop_
_space_group_symop_operation_xyz
x,y,z
1/4-x,1/4-y,z
x,1/4-y,1/4-z
1/4-x,y,1/4-z
-x,-y,-z
3/4+x,3/4+y,-z
-x,3/4+y,3/4+z
3/4+x,-y,3/4+z
x,1/2+y,1/2+z
1/4-x,3/4-y,1/2+z
x,3/4-y,3/4-z
1/4-x,1/2+y,3/4-z
-x,1/2-y,1/2-z
3/4+x,1/4+y,1/2-z
-x,1/4+y,1/4+z
3/4+x,1/2-y,1/4+z
1/2+x,y,1/2+z
3/4-x,1/4-y,1/2+z
1/2+x,1/4-y,3/4-z
3/4-x,y,3/4-z
1/2-x,-y,1/2-z
1/4+x,3/4+y,1/2-z
1/2-x,3/4+y,1/4+z
1/4+x,-y,1/4+z
1/2+x,1/2+y,z
3/4-x,3/4-y,z
1/2+x,3/4-y,1/4-z
3/4-x,1/2+y,1/4-z
1/2-x,1/2-y,-z
1/4+x,1/4+y,-z
1/2-x,1/4+y,3/4+z
1/4+x,1/2-y,3/4+z
loop_
_atom_site_type_symbol
_atom_site_label
_atom_site_fract_x
_atom_site_fract_y
_atom_site_fract_z
Si Si1 0.253859 0.894561 0.720106
Si Si2 0.219981 0.969093 0.803916
Si Si3 0.139176 0.795308 0.675605
Si Si4 0.328432 0.951410 0.955215
Si Si5 0.954082 0.450945 0.245154
Si Si6 0.486649 0.125000 0.125000
Si Si7 0.025244 0.685350 0.774639
O O1 0.196297 0.930977 0.758081
O O2 0.202930 0.854421 0.683239
O O3 0.303423 0.844068 0.751880
O O4 0.300759 0.956091 0.698436
O O5 0.322976 0.963484 0.803807
O O6 0.187584 0.927994 0.845887
O O7 0.125000 0.770585 0.625000
O O8 0.173713 0.742045 0.711263
O O9 0.047276 0.821838 0.688854
O O10 0.290511 0.915679 0.911326
O O11 0.277236 0.014509 0.967606
O O12 0.976802 0.378071 0.256289
O O13 0.872150 0.445770 0.212563
O O14 0.000000 0.750000 0.750000
#
# Coordination Sequence:
#
# PCOD9514194 Si02
#       7
#    32  32  32  32  32  16  32
#     4   9  19  31  48  77 106 144 180 224 279 331
#     4  10  18  31  51  76 111 145 188 219 268 338
#     4  10  20  35  59  83 112 144 200 246 286 352
#     4  10  18  32  54  75 110 144 185 218 273 337
#     4   9  19  35  58  79 108 151 184 233 299 343
#     4  10  19  30  50  80 104 142 181 220 247 318
#     4   9  18  36  59  80 105 140 188 234 290 352
#
# _framework density 21.196807
#
# number of rings (size 3 to 8) (size 9 to 14) (size 15 to 20)
#    0.000    2.462    0.000    3.692    0.000    2.462 
#    0.000    6.154   50.769    0.000    0.000    0.000 
#    0.000    0.000    0.000    0.000    0.000    0.000 
#
# Total GULP energy -289490.687883 kJ/mol
# GULP energy per Si atom -5567.128613 kJ/mol
# Density = 2.114856 g / cm^3
# Si number density = 21.196807 Si / 1000 Ang^3
#
#
#
# Elastic Constant Matrix: (Units=GPa)
#
#
# Indices 1 2 3 4 5 6 
#
# 1 52.8623 24.5199 11.2504 0.0000 0.0000 0.0000
# 2 24.5199 145.1407 21.6643 0.0000 0.0000 0.0000
# 3 11.2504 21.6643 81.7028 0.0000 0.0000 0.0000
# 4 0.0000 0.0000 0.0000 14.6540 0.0000 0.0000
# 5 0.0000 0.0000 0.0000 0.0000 19.0659 0.0000
# 6 0.0000 0.0000 0.0000 0.0000 0.0000 17.3730
#
#
#
# Elastic Compliance Matrix: (Units=1/GPa)
#
#
# Indices 1 2 3 4 5 6 
#
# 1 0.020840 -0.003220 -0.002016 0.000000 0.000000 0.000000
# 2 -0.003220 0.007671 -0.001591 0.000000 0.000000 0.000000
# 3 -0.002016 -0.001591 0.012939 0.000000 0.000000 0.000000
# 4 0.000000 0.000000 0.000000 0.068241 0.000000 0.000000
# 5 0.000000 0.000000 0.000000 0.000000 0.052450 0.000000
# 6 0.000000 0.000000 0.000000 0.000000 0.000000 0.057560
#
#
# Mechanical properties :
#
#
# Convention : Reuss Voigt Hill
#
# Bulk Modulus (GPa) = 35.97507 43.84166 39.90836
# Shear Modulus (GPa) = 20.60844 25.03666 22.82255
#
# Velocity S-wave (km/s) = 3.12146 3.44052 3.28487
# Velocity P-wave (km/s) = 5.47724 6.04243 5.76676
#
# Compressibility (1/GPa) = 0.02779703
#
# Stress axis : x y z
#
# Youngs Moduli (GPa) = 47.98564 130.35697 77.28649
#
# Poissons Ratio (x) = 0.41971 0.15580
# Poissons Ratio (y) = 0.15450 0.12294
# Poissons Ratio (z) = 0.09673 0.20737
#
# Static dielectric constant tensor:
#      x y z
#    x 1.855110 0.000000 0.000000 
#    y 0.000000 1.858630 0.000000 
#    z 0.000000 0.000000 1.785180 
# 
# From -- ./inp_files/67365.got.cif
#   From: 2010.05.17/outbox.cif.g08.bks.cpg/sg70_34_cif.got.tgz:67365.got - 2010.06.03 15:57:51.
