data_PCOD9514374
_publ_section_title
;
Structure prediction by ZEFSAII (Michael W. Deem and Ramdas Pophale) SiO2 
 PCOD9514374
Probable space group: F D D D
;
_chemical_formula_sum "Si O2"
_cell_formula_units_Z 192
_cell_length_a 27.652962
_cell_length_b 12.312169
_cell_length_c 25.689995
_cell_angle_alpha 90.000000
_cell_angle_beta 90.000000
_cell_angle_gamma 90.000000
_cell_volume 8746.619715
_symmetry_space_group_name_H-M "F D D D"
_symmetry_group_IT_number 70
_space_group.IT_coordinate_system_code '2'
_symmetry_cell_setting 'orthorhombic'
loop_
_space_group_symop_operation_xyz
x,y,z
1/4-x,1/4-y,z
x,1/4-y,1/4-z
1/4-x,y,1/4-z
-x,-y,-z
3/4+x,3/4+y,-z
-x,3/4+y,3/4+z
3/4+x,-y,3/4+z
x,1/2+y,1/2+z
1/4-x,3/4-y,1/2+z
x,3/4-y,3/4-z
1/4-x,1/2+y,3/4-z
-x,1/2-y,1/2-z
3/4+x,1/4+y,1/2-z
-x,1/4+y,1/4+z
3/4+x,1/2-y,1/4+z
1/2+x,y,1/2+z
3/4-x,1/4-y,1/2+z
1/2+x,1/4-y,3/4-z
3/4-x,y,3/4-z
1/2-x,-y,1/2-z
1/4+x,3/4+y,1/2-z
1/2-x,3/4+y,1/4+z
1/4+x,-y,1/4+z
1/2+x,1/2+y,z
3/4-x,3/4-y,z
1/2+x,3/4-y,1/4-z
3/4-x,1/2+y,1/4-z
1/2-x,1/2-y,-z
1/4+x,1/4+y,-z
1/2-x,1/4+y,3/4+z
1/4+x,1/2-y,3/4+z
loop_
_atom_site_type_symbol
_atom_site_label
_atom_site_fract_x
_atom_site_fract_y
_atom_site_fract_z
Si Si1 0.165145 0.875000 0.375000
Si Si2 0.579744 0.548380 0.187801
Si Si3 0.625000 0.625000 0.759366
Si Si4 0.635409 0.879987 0.991629
Si Si5 0.998248 0.549965 0.379979
Si Si6 0.505285 0.907794 0.239544
Si Si7 0.480748 0.353788 0.221499
O O1 0.132395 0.875512 0.427893
O O2 0.204420 0.776089 0.371757
O O3 0.625000 0.625000 0.180739
O O4 0.600933 0.451064 0.225749
O O5 0.552431 0.509153 0.135119
O O6 0.537207 0.611273 0.219179
O O7 0.629510 0.746687 0.735215
O O8 0.575924 0.642558 0.789794
O O9 0.692764 0.857854 0.996549
O O10 0.005104 0.609282 0.433885
O O11 0.995744 0.637695 0.334224
O O12 0.509782 0.038460 0.244258
O O13 0.500000 0.250000 0.250000
#
# Coordination Sequence:
#
# PCOD9514374 Si02
#       7
#    16  32  16  32  32  32  32
#     4  12  22  44  67  94 134 184 220 279 362 400
#     4  11  24  44  66 103 136 183 236 290 346 429
#     4  10  18  40  64  89 124 168 218 271 330 396
#     4  11  24  42  69  98 138 180 228 289 343 426
#     4  11  24  42  67  94 136 181 217 285 359 399
#     4  10  23  45  62 100 138 175 225 288 350 414
#     4  10  21  42  67  93 129 175 220 276 339 406
#
# _framework density 21.951338
#
# number of rings (size 3 to 8) (size 9 to 14) (size 15 to 20)
#    0.000    1.333    5.000    3.000    2.333    4.000 
#    3.000    0.000    0.000    4.000    0.000    0.000 
#    0.000    0.000    0.000    0.000    0.000    0.000 
#
# Total GULP energy -267506.710778 kJ/mol
# GULP energy per Si atom -5573.056475 kJ/mol
# Density = 2.190138 g / cm^3
# Si number density = 21.951338 Si / 1000 Ang^3
#
#
#
# Elastic Constant Matrix: (Units=GPa)
#
#
# Indices 1 2 3 4 5 6 
#
# 1 119.1599 30.0395 21.6538 0.0000 0.0000 0.0000
# 2 30.0395 80.8370 61.7852 0.0000 0.0000 0.0000
# 3 21.6538 61.7852 124.6171 0.0000 0.0000 0.0000
# 4 0.0000 0.0000 0.0000 34.4887 0.0000 0.0000
# 5 0.0000 0.0000 0.0000 0.0000 91.2960 0.0000
# 6 0.0000 0.0000 0.0000 0.0000 0.0000 26.5273
#
#
#
# Elastic Compliance Matrix: (Units=1/GPa)
#
#
# Indices 1 2 3 4 5 6 
#
# 1 0.009261 -0.003561 0.000156 0.000000 0.000000 0.000000
# 2 -0.003561 0.021288 -0.009936 0.000000 0.000000 0.000000
# 3 0.000156 -0.009936 0.012924 0.000000 0.000000 0.000000
# 4 0.000000 0.000000 0.000000 0.028995 0.000000 0.000000
# 5 0.000000 0.000000 0.000000 0.000000 0.010953 0.000000
# 6 0.000000 0.000000 0.000000 0.000000 0.000000 0.037697
#
#
# Mechanical properties :
#
#
# Convention : Reuss Voigt Hill
#
# Bulk Modulus (GPa) = 59.55271 61.28569 60.41920
# Shear Modulus (GPa) = 32.59518 44.53810 38.56664
#
# Velocity S-wave (km/s) = 3.85760 4.50927 4.19610
# Velocity P-wave (km/s) = 6.85782 7.42232 7.14565
#
# Compressibility (1/GPa) = 0.01679185
#
# Stress axis : x y z
#
# Youngs Moduli (GPa) = 107.97502 46.97477 77.37778
#
# Poissons Ratio (x) = 0.16728 -0.01209
# Poissons Ratio (y) = 0.38450 0.76881
# Poissons Ratio (z) = -0.01687 0.46673
#
# Static dielectric constant tensor:
#      x y z
#    x 1.873610 0.000000 0.000000 
#    y 0.000000 2.082230 0.000000 
#    z 0.000000 0.000000 1.830660 
# 
# From -- ./inp_files/62226.got.cif
#   From: 2010.05.17/outbox.cif.g08.bks.cpg/sg70_32_cif.got.tgz:62226.got - 2010.06.03 15:57:51.
