data_PCOD9514990
_publ_section_title
;
Structure prediction by ZEFSAII (Michael W. Deem and Ramdas Pophale) SiO2 
 PCOD9514990
Probable space group: F D D D
;
_chemical_formula_sum "Si O2"
_cell_formula_units_Z 96
_cell_length_a 8.655544
_cell_length_b 26.980300
_cell_length_c 18.378448
_cell_angle_alpha 90.000000
_cell_angle_beta 90.000000
_cell_angle_gamma 90.000000
_cell_volume 4291.903777
_symmetry_space_group_name_H-M "F D D D"
_symmetry_group_IT_number 70
_space_group.IT_coordinate_system_code '2'
_symmetry_cell_setting 'orthorhombic'
loop_
_space_group_symop_operation_xyz
x,y,z
1/4-x,1/4-y,z
x,1/4-y,1/4-z
1/4-x,y,1/4-z
-x,-y,-z
3/4+x,3/4+y,-z
-x,3/4+y,3/4+z
3/4+x,-y,3/4+z
x,1/2+y,1/2+z
1/4-x,3/4-y,1/2+z
x,3/4-y,3/4-z
1/4-x,1/2+y,3/4-z
-x,1/2-y,1/2-z
3/4+x,1/4+y,1/2-z
-x,1/4+y,1/4+z
3/4+x,1/2-y,1/4+z
1/2+x,y,1/2+z
3/4-x,1/4-y,1/2+z
1/2+x,1/4-y,3/4-z
3/4-x,y,3/4-z
1/2-x,-y,1/2-z
1/4+x,3/4+y,1/2-z
1/2-x,3/4+y,1/4+z
1/4+x,-y,1/4+z
1/2+x,1/2+y,z
3/4-x,3/4-y,z
1/2+x,3/4-y,1/4-z
3/4-x,1/2+y,1/4-z
1/2-x,1/2-y,-z
1/4+x,1/4+y,-z
1/2-x,1/4+y,3/4+z
1/4+x,1/2-y,3/4+z
loop_
_atom_site_type_symbol
_atom_site_label
_atom_site_fract_x
_atom_site_fract_y
_atom_site_fract_z
Si Si1 0.421694 0.298412 0.788852
Si Si2 0.774751 0.651777 0.702297
Si Si3 0.349453 0.737142 0.795796
O O1 0.500000 0.250000 0.750000
O O2 0.375000 0.293709 0.875000
O O3 0.547004 0.341351 0.773251
O O4 0.258024 0.299243 0.749311
O O5 0.625000 0.625000 0.740301
O O6 0.785809 0.625000 0.625000
O O7 0.727350 0.709021 0.691806
O O8 0.500000 0.750000 0.750000
O O9 0.375000 0.715179 0.875000
#
# Coordination Sequence:
#
# PCOD9514990 Si02
#       3
#    32  32  32
#     4  10  22  38  63 105 129 173 230 282 342 423
#     4  10  20  38  62  96 133 171 233 288 330 395
#     4  11  21  39  66  99 135 179 225 280 345 418
#
# _framework density 22.367697
#
# number of rings (size 3 to 8) (size 9 to 14) (size 15 to 20)
#    0.000    1.667    3.333    4.000    0.000    0.667 
#    0.000    0.000    0.000   12.000   43.333    0.000 
#    0.000    0.000    0.000    0.000    0.000    0.000 
#
# Total GULP energy -133641.152135 kJ/mol
# GULP energy per Si atom -5568.381339 kJ/mol
# Density = 2.231679 g / cm^3
# Si number density = 22.367697 Si / 1000 Ang^3
#
#
#
# Elastic Constant Matrix: (Units=GPa)
#
#
# Indices 1 2 3 4 5 6 
#
# 1 219.3153 45.3869 84.6147 0.0000 0.0000 0.0000
# 2 45.3869 119.0688 28.6025 0.0000 0.0000 0.0000
# 3 84.6147 28.6025 151.4126 0.0000 0.0000 0.0000
# 4 0.0000 0.0000 0.0000 17.0178 0.0000 0.0000
# 5 0.0000 0.0000 0.0000 0.0000 30.6769 0.0000
# 6 0.0000 0.0000 0.0000 0.0000 0.0000 50.7775
#
#
#
# Elastic Compliance Matrix: (Units=1/GPa)
#
#
# Indices 1 2 3 4 5 6 
#
# 1 0.006082 -0.001573 -0.003102 0.000000 0.000000 0.000000
# 2 -0.001573 0.009205 -0.000860 0.000000 0.000000 0.000000
# 3 -0.003102 -0.000860 0.008500 0.000000 0.000000 0.000000
# 4 0.000000 0.000000 0.000000 0.058762 0.000000 0.000000
# 5 0.000000 0.000000 0.000000 0.000000 0.032598 0.000000
# 6 0.000000 0.000000 0.000000 0.000000 0.000000 0.019694
#
#
# Mechanical properties :
#
#
# Convention : Reuss Voigt Hill
#
# Bulk Modulus (GPa) = 78.62988 89.66721 84.14854
# Shear Modulus (GPa) = 33.30041 41.77395 37.53718
#
# Velocity S-wave (km/s) = 3.86265 4.32626 4.10101
# Velocity P-wave (km/s) = 7.42449 8.07033 7.75414
#
# Compressibility (1/GPa) = 0.01271781
#
# Stress axis : x y z
#
# Youngs Moduli (GPa) = 164.42376 108.64026 117.64546
#
# Poissons Ratio (x) = 0.17092 0.36488
# Poissons Ratio (y) = 0.25868 0.10113
# Poissons Ratio (z) = 0.50997 0.09339
#
# Static dielectric constant tensor:
#      x y z
#    x 2.130740 0.000000 0.000000 
#    y 0.000000 1.775960 0.000000 
#    z 0.000000 0.000000 1.792070 
# 
# From -- ./inp_files/8093.got.cif
#   From: 2010.05.17/outbox.cif.g08.bks.cpg/sg70_5_cif.got.tgz:8093.got - 2010.06.03 15:57:51.
