data_PCOD9514611
_publ_section_title
;
Structure prediction by ZEFSAII (Michael W. Deem and Ramdas Pophale) SiO2 
 PCOD9514611
Probable space group: F D D D
;
_chemical_formula_sum "Si O2"
_cell_formula_units_Z 144
_cell_length_a 14.309755
_cell_length_b 18.202633
_cell_length_c 27.875282
_cell_angle_alpha 90.000000
_cell_angle_beta 90.000000
_cell_angle_gamma 90.000000
_cell_volume 7260.820172
_symmetry_space_group_name_H-M "F D D D"
_symmetry_group_IT_number 70
_space_group.IT_coordinate_system_code '2'
_symmetry_cell_setting 'orthorhombic'
loop_
_space_group_symop_operation_xyz
x,y,z
1/4-x,1/4-y,z
x,1/4-y,1/4-z
1/4-x,y,1/4-z
-x,-y,-z
3/4+x,3/4+y,-z
-x,3/4+y,3/4+z
3/4+x,-y,3/4+z
x,1/2+y,1/2+z
1/4-x,3/4-y,1/2+z
x,3/4-y,3/4-z
1/4-x,1/2+y,3/4-z
-x,1/2-y,1/2-z
3/4+x,1/4+y,1/2-z
-x,1/4+y,1/4+z
3/4+x,1/2-y,1/4+z
1/2+x,y,1/2+z
3/4-x,1/4-y,1/2+z
1/2+x,1/4-y,3/4-z
3/4-x,y,3/4-z
1/2-x,-y,1/2-z
1/4+x,3/4+y,1/2-z
1/2-x,3/4+y,1/4+z
1/4+x,-y,1/4+z
1/2+x,1/2+y,z
3/4-x,3/4-y,z
1/2+x,3/4-y,1/4-z
3/4-x,1/2+y,1/4-z
1/2-x,1/2-y,-z
1/4+x,1/4+y,-z
1/2-x,1/4+y,3/4+z
1/4+x,1/2-y,3/4+z
loop_
_atom_site_type_symbol
_atom_site_label
_atom_site_fract_x
_atom_site_fract_y
_atom_site_fract_z
Si Si1 0.835453 0.953220 0.928627
Si Si2 0.366482 0.076243 0.672619
Si Si3 0.375000 0.375000 0.248832
Si Si4 0.171023 0.853668 0.724388
Si Si5 0.825651 0.498923 0.825506
O O1 0.875000 0.962251 0.875000
O O2 0.875000 0.875000 0.946981
O O3 0.723324 0.949374 0.924872
O O4 0.863849 0.023680 0.959784
O O5 0.353398 0.125000 0.625000
O O6 0.350030 0.123978 0.720825
O O7 0.286343 0.013575 0.671317
O O8 0.283146 0.355888 0.219826
O O9 0.394690 0.305957 0.283262
O O10 0.140754 0.920240 0.689926
O O11 0.875000 0.477569 0.875000
#
# Coordination Sequence:
#
# PCOD9514611 Si02
#       5
#    32  32  16  32  32
#     4  11  23  44  62  84 124 170 212 255 308 359
#     4  11  22  40  64  88 124 167 202 252 320 369
#     4  10  19  38  58  94 126 160 192 254 317 374
#     4  11  22  37  65  92 122 160 210 255 305 368
#     4  11  21  36  62  97 126 155 200 255 313 374
#
# _framework density 19.832470000000001
#
# number of rings (size 3 to 8) (size 9 to 14) (size 15 to 20)
#    0.000    1.111    2.222    9.000    0.000    0.889 
#    0.000    0.000    0.000    0.000    0.000    0.000 
#    0.000    0.000    0.000    0.000    0.000    0.000 
#
# Total GULP energy -201110.315131 kJ/mol
# GULP energy per Si atom -5586.397643 kJ/mol
# Density = 1.978733 g / cm^3
# Si number density = 19.832470 Si / 1000 Ang^3
#
#
#
# Elastic Constant Matrix: (Units=GPa)
#
#
# Indices 1 2 3 4 5 6 
#
# 1 75.6844 23.0451 3.4418 0.0000 0.0000 0.0000
# 2 23.0451 152.5045 49.0833 0.0000 0.0000 0.0000
# 3 3.4418 49.0833 68.0997 0.0000 0.0000 0.0000
# 4 0.0000 0.0000 0.0000 1.9478 0.0000 0.0000
# 5 0.0000 0.0000 0.0000 0.0000 22.6699 0.0000
# 6 0.0000 0.0000 0.0000 0.0000 0.0000 42.3987
#
#
#
# Elastic Compliance Matrix: (Units=1/GPa)
#
#
# Indices 1 2 3 4 5 6 
#
# 1 0.013908 -0.002442 0.001057 0.000000 0.000000 0.000000
# 2 -0.002442 0.008966 -0.006339 0.000000 0.000000 0.000000
# 3 0.001057 -0.006339 0.019200 0.000000 0.000000 0.000000
# 4 0.000000 0.000000 0.000000 0.513410 0.000000 0.000000
# 5 0.000000 0.000000 0.000000 0.000000 0.044111 0.000000
# 6 0.000000 0.000000 0.000000 0.000000 0.000000 0.023586
#
#
# Mechanical properties :
#
#
# Convention : Reuss Voigt Hill
#
# Bulk Modulus (GPa) = 37.55645 49.71431 43.63538
# Shear Modulus (GPa) = 7.72195 28.11784 17.91989
#
# Velocity S-wave (km/s) = 1.97536 3.76941 3.00919
# Velocity P-wave (km/s) = 4.91739 6.63823 5.84153
#
# Compressibility (1/GPa) = 0.02662659
#
# Stress axis : x y z
#
# Youngs Moduli (GPa) = 71.89986 111.52693 52.08346
#
# Poissons Ratio (x) = 0.27234 -0.05506
# Poissons Ratio (y) = 0.17557 0.33017
# Poissons Ratio (z) = -0.07600 0.70699
#
# Static dielectric constant tensor:
#      x y z
#    x 1.717680 0.000000 0.000000 
#    y 0.000000 1.728420 0.000000 
#    z 0.000000 0.000000 1.667270 
# 
# From -- ./inp_files/26615.got.cif
#   From: 2010.05.17/outbox.cif.g08.bks.cpg/sg70_14_cif.got.tgz:26615.got - 2010.06.03 15:57:51.
