data_PCOD9514236
_publ_section_title
;
Structure prediction by ZEFSAII (Michael W. Deem and Ramdas Pophale) SiO2 
 PCOD9514236
Probable space group: F D D D
;
_chemical_formula_sum "Si O2"
_cell_formula_units_Z 168
_cell_length_a 14.991898
_cell_length_b 28.313710
_cell_length_c 20.895930
_cell_angle_alpha 90.000000
_cell_angle_beta 90.000000
_cell_angle_gamma 90.000000
_cell_volume 8869.826055
_symmetry_space_group_name_H-M "F D D D"
_symmetry_group_IT_number 70
_space_group.IT_coordinate_system_code '2'
_symmetry_cell_setting 'orthorhombic'
loop_
_space_group_symop_operation_xyz
x,y,z
1/4-x,1/4-y,z
x,1/4-y,1/4-z
1/4-x,y,1/4-z
-x,-y,-z
3/4+x,3/4+y,-z
-x,3/4+y,3/4+z
3/4+x,-y,3/4+z
x,1/2+y,1/2+z
1/4-x,3/4-y,1/2+z
x,3/4-y,3/4-z
1/4-x,1/2+y,3/4-z
-x,1/2-y,1/2-z
3/4+x,1/4+y,1/2-z
-x,1/4+y,1/4+z
3/4+x,1/2-y,1/4+z
1/2+x,y,1/2+z
3/4-x,1/4-y,1/2+z
1/2+x,1/4-y,3/4-z
3/4-x,y,3/4-z
1/2-x,-y,1/2-z
1/4+x,3/4+y,1/2-z
1/2-x,3/4+y,1/4+z
1/4+x,-y,1/4+z
1/2+x,1/2+y,z
3/4-x,3/4-y,z
1/2+x,3/4-y,1/4-z
3/4-x,1/2+y,1/4-z
1/2-x,1/2-y,-z
1/4+x,1/4+y,-z
1/2-x,1/4+y,3/4+z
1/4+x,1/2-y,3/4+z
loop_
_atom_site_type_symbol
_atom_site_label
_atom_site_fract_x
_atom_site_fract_y
_atom_site_fract_z
Si Si1 0.484555 0.331474 0.142564
Si Si2 0.637839 0.992684 0.896188
Si Si3 0.157335 0.453727 0.032778
Si Si4 0.722947 0.436128 0.095603
Si Si5 0.125000 0.125000 0.625000
Si Si6 0.757300 0.300080 0.802950
O O1 0.416708 0.290697 0.164786
O O2 0.509920 0.321053 0.068349
O O3 0.570726 0.320314 0.187028
O O4 0.471884 0.387474 0.145539
O O5 0.576453 0.965620 0.845906
O O6 0.729777 0.017424 0.874553
O O7 0.653466 0.958484 0.956665
O O8 0.170178 0.507849 0.054571
O O9 0.625000 0.429290 0.125000
O O10 0.723463 0.444247 0.019350
O O11 0.190501 0.094517 0.580497
#
# Coordination Sequence:
#
# PCOD9514236 Si02
#       6
#    32  32  32  32   8  32
#     4  10  18  33  57  84 114 152 194 240 293 359
#     4  10  21  36  56  82 119 157 190 240 305 357
#     4   9  18  34  55  79 120 151 188 230 304 358
#     4  11  23  38  58  84 113 162 211 246 278 347
#     4  12  24  36  60  96 138 140 188 250 320 384
#     4  10  24  36  55  92 118 161 187 241 309 360
#
# _framework density 18.940619999999999
#
# number of rings (size 3 to 8) (size 9 to 14) (size 15 to 20)
#    0.000    1.905    1.905    3.429    8.000    0.762 
#    0.000    0.000    0.000    0.000    0.000    0.667 
#    0.000    0.000    0.000    0.000    0.000    0.000 
#
# Total GULP energy -234012.708515 kJ/mol
# GULP energy per Si atom -5571.731155 kJ/mol
# Density = 1.889751 g / cm^3
# Si number density = 18.940620 Si / 1000 Ang^3
#
#
#
# Elastic Constant Matrix: (Units=GPa)
#
#
# Indices 1 2 3 4 5 6 
#
# 1 55.6327 23.6474 30.6605 0.0000 0.0000 0.0000
# 2 23.6474 84.4948 44.6750 0.0000 0.0000 0.0000
# 3 30.6605 44.6750 83.6606 0.0000 0.0000 0.0000
# 4 0.0000 0.0000 0.0000 13.7734 0.0000 0.0000
# 5 0.0000 0.0000 0.0000 0.0000 19.8185 0.0000
# 6 0.0000 0.0000 0.0000 0.0000 0.0000 37.7544
#
#
#
# Elastic Compliance Matrix: (Units=1/GPa)
#
#
# Indices 1 2 3 4 5 6 
#
# 1 0.022976 -0.002756 -0.006949 0.000000 0.000000 0.000000
# 2 -0.002756 0.016822 -0.007973 0.000000 0.000000 0.000000
# 3 -0.006949 -0.007973 0.018757 0.000000 0.000000 0.000000
# 4 0.000000 0.000000 0.000000 0.072604 0.000000 0.000000
# 5 0.000000 0.000000 0.000000 0.000000 0.050458 0.000000
# 6 0.000000 0.000000 0.000000 0.000000 0.000000 0.026487
#
#
# Mechanical properties :
#
#
# Convention : Reuss Voigt Hill
#
# Bulk Modulus (GPa) = 43.10383 46.86152 44.98268
# Shear Modulus (GPa) = 19.90504 22.58961 21.24733
#
# Velocity S-wave (km/s) = 3.24530 3.45723 3.35294
# Velocity P-wave (km/s) = 6.07037 6.38213 6.22820
#
# Compressibility (1/GPa) = 0.02319980
#
# Stress axis : x y z
#
# Youngs Moduli (GPa) = 43.52329 59.44623 53.31317
#
# Poissons Ratio (x) = 0.16386 0.37045
# Poissons Ratio (y) = 0.11997 0.42505
# Poissons Ratio (z) = 0.30242 0.47395
#
# Static dielectric constant tensor:
#      x y z
#    x 1.697120 0.000000 0.000000 
#    y 0.000000 1.684880 0.000000 
#    z 0.000000 0.000000 1.659710 
# 
# From -- ./inp_files/27815.got.cif
#   From: 2010.05.17/outbox.cif.g08.bks.cpg/sg70_14_cif.got.tgz:27815.got - 2010.06.03 15:57:51.
