data_PCOD9514785
_publ_section_title
;
Structure prediction by ZEFSAII (Michael W. Deem and Ramdas Pophale) SiO2 
 PCOD9514785
Probable space group: F D D D
;
_chemical_formula_sum "Si O2"
_cell_formula_units_Z 192
_cell_length_a 25.678388
_cell_length_b 14.456755
_cell_length_c 19.661661
_cell_angle_alpha 90.000000
_cell_angle_beta 90.000000
_cell_angle_gamma 90.000000
_cell_volume 7298.922993
_symmetry_space_group_name_H-M "F D D D"
_symmetry_group_IT_number 70
_space_group.IT_coordinate_system_code '2'
_symmetry_cell_setting 'orthorhombic'
loop_
_space_group_symop_operation_xyz
x,y,z
1/4-x,1/4-y,z
x,1/4-y,1/4-z
1/4-x,y,1/4-z
-x,-y,-z
3/4+x,3/4+y,-z
-x,3/4+y,3/4+z
3/4+x,-y,3/4+z
x,1/2+y,1/2+z
1/4-x,3/4-y,1/2+z
x,3/4-y,3/4-z
1/4-x,1/2+y,3/4-z
-x,1/2-y,1/2-z
3/4+x,1/4+y,1/2-z
-x,1/4+y,1/4+z
3/4+x,1/2-y,1/4+z
1/2+x,y,1/2+z
3/4-x,1/4-y,1/2+z
1/2+x,1/4-y,3/4-z
3/4-x,y,3/4-z
1/2-x,-y,1/2-z
1/4+x,3/4+y,1/2-z
1/2-x,3/4+y,1/4+z
1/4+x,-y,1/4+z
1/2+x,1/2+y,z
3/4-x,3/4-y,z
1/2+x,3/4-y,1/4-z
3/4-x,1/2+y,1/4-z
1/2-x,1/2-y,-z
1/4+x,1/4+y,-z
1/2-x,1/4+y,3/4+z
1/4+x,1/2-y,3/4+z
loop_
_atom_site_type_symbol
_atom_site_label
_atom_site_fract_x
_atom_site_fract_y
_atom_site_fract_z
Si Si1 0.432360 0.038205 0.674433
Si Si2 0.303280 0.195643 0.983529
Si Si3 0.375000 0.375000 0.626791
Si Si4 0.625000 0.625000 0.125000
Si Si5 0.272126 0.459606 0.324491
Si Si6 0.281507 0.664249 0.342724
Si Si7 0.625000 0.625000 0.625000
Si Si8 0.337202 0.274428 0.745638
O O1 0.424379 0.125000 0.625000
O O2 0.447929 0.160471 0.506832
O O3 0.387149 0.963348 0.669905
O O4 0.481013 0.977157 0.652625
O O5 0.250000 0.250000 0.000000
O O6 0.317220 0.197263 0.904510
O O7 0.353991 0.240180 0.016660
O O8 0.330292 0.336627 0.679174
O O9 0.663694 0.666871 0.184098
O O10 0.249905 0.375000 0.375000
O O11 0.250000 0.500000 0.250000
O O12 0.270805 0.558675 0.359870
O O13 0.333833 0.430416 0.326658
O O14 0.304350 0.685185 0.267762
#
# Coordination Sequence:
#
# PCOD9514785 Si02
#       8
#    32  32  16   8  32  32   8  32
#     4  12  27  47  76 116 157 219 264 349 420 517
#     4  12  25  45  75 113 160 207 273 334 426 506
#     4  11  26  51  69 114 171 215 271 346 436 517
#     4  10  20  34  60 108 140 194 238 326 398 490
#     4  10  26  53  85 125 171 242 312 391 480 592
#     4  12  27  45  80 116 157 211 278 349 425 526
#     4   8  24  50  94 120 188 236 320 396 496 574
#     4  11  24  40  75 109 155 208 270 335 416 512
#
# _framework density 26.305251999999999
#
# number of rings (size 3 to 8) (size 9 to 14) (size 15 to 20)
#    0.500    0.333    5.000    0.000   12.833    0.000 
#    3.000    1.667    0.000    0.000    0.000    0.000 
#    0.000    0.000    0.000    0.000    0.000    0.000 
#
# Total GULP energy -267203.311621 kJ/mol
# GULP energy per Si atom -5566.735659 kJ/mol
# Density = 2.624538 g / cm^3
# Si number density = 26.305252 Si / 1000 Ang^3
#
#
#
# Elastic Constant Matrix: (Units=GPa)
#
#
# Indices 1 2 3 4 5 6 
#
# 1 82.9908 53.2294 50.9043 0.0000 0.0000 0.0000
# 2 53.2294 207.3535 57.6965 0.0000 0.0000 0.0000
# 3 50.9043 57.6965 141.7125 0.0000 0.0000 0.0000
# 4 0.0000 0.0000 0.0000 49.0484 0.0000 0.0000
# 5 0.0000 0.0000 0.0000 0.0000 25.2835 0.0000
# 6 0.0000 0.0000 0.0000 0.0000 0.0000 41.7799
#
#
#
# Elastic Compliance Matrix: (Units=1/GPa)
#
#
# Indices 1 2 3 4 5 6 
#
# 1 0.016961 -0.002998 -0.004872 0.000000 0.000000 0.000000
# 2 -0.002998 0.005969 -0.001353 0.000000 0.000000 0.000000
# 3 -0.004872 -0.001353 0.009357 0.000000 0.000000 0.000000
# 4 0.000000 0.000000 0.000000 0.020388 0.000000 0.000000
# 5 0.000000 0.000000 0.000000 0.000000 0.039551 0.000000
# 6 0.000000 0.000000 0.000000 0.000000 0.000000 0.023935
#
#
# Mechanical properties :
#
#
# Convention : Reuss Voigt Hill
#
# Bulk Modulus (GPa) = 72.25082 83.96859 78.10970
# Shear Modulus (GPa) = 35.91395 41.23748 38.57572
#
# Velocity S-wave (km/s) = 3.69897 3.96365 3.83360
# Velocity P-wave (km/s) = 6.76529 7.27582 7.02519
#
# Compressibility (1/GPa) = 0.01384067
#
# Stress axis : x y z
#
# Youngs Moduli (GPa) = 58.95930 167.53482 106.86730
#
# Poissons Ratio (x) = 0.50234 0.52063
# Poissons Ratio (y) = 0.17679 0.14460
# Poissons Ratio (z) = 0.28723 0.22669
#
# Static dielectric constant tensor:
#      x y z
#    x 2.163260 0.000000 0.000000 
#    y 0.000000 2.372650 0.000000 
#    z 0.000000 0.000000 2.818650 
# 
# From -- ./inp_files/55142.got.cif
#   From: 2010.05.17/outbox.cif.g08.bks.cpg/sg70_28_cif.got.tgz:55142.got - 2010.06.03 15:57:51.
