data_PCOD9514668
_publ_section_title
;
Structure prediction by ZEFSAII (Michael W. Deem and Ramdas Pophale) SiO2 
 PCOD9514668
Probable space group: F D D D
;
_chemical_formula_sum "Si O2"
_cell_formula_units_Z 112
_cell_length_a 14.407790
_cell_length_b 13.806632
_cell_length_c 22.122421
_cell_angle_alpha 90.000000
_cell_angle_beta 90.000000
_cell_angle_gamma 90.000000
_cell_volume 4400.659557
_symmetry_space_group_name_H-M "F D D D"
_symmetry_group_IT_number 70
_space_group.IT_coordinate_system_code '2'
_symmetry_cell_setting 'orthorhombic'
loop_
_space_group_symop_operation_xyz
x,y,z
1/4-x,1/4-y,z
x,1/4-y,1/4-z
1/4-x,y,1/4-z
-x,-y,-z
3/4+x,3/4+y,-z
-x,3/4+y,3/4+z
3/4+x,-y,3/4+z
x,1/2+y,1/2+z
1/4-x,3/4-y,1/2+z
x,3/4-y,3/4-z
1/4-x,1/2+y,3/4-z
-x,1/2-y,1/2-z
3/4+x,1/4+y,1/2-z
-x,1/4+y,1/4+z
3/4+x,1/2-y,1/4+z
1/2+x,y,1/2+z
3/4-x,1/4-y,1/2+z
1/2+x,1/4-y,3/4-z
3/4-x,y,3/4-z
1/2-x,-y,1/2-z
1/4+x,3/4+y,1/2-z
1/2-x,3/4+y,1/4+z
1/4+x,-y,1/4+z
1/2+x,1/2+y,z
3/4-x,3/4-y,z
1/2+x,3/4-y,1/4-z
3/4-x,1/2+y,1/4-z
1/2-x,1/2-y,-z
1/4+x,1/4+y,-z
1/2-x,1/4+y,3/4+z
1/4+x,1/2-y,3/4+z
loop_
_atom_site_type_symbol
_atom_site_label
_atom_site_fract_x
_atom_site_fract_y
_atom_site_fract_z
Si Si1 0.067429 0.223497 0.338505
Si Si2 0.804681 0.625000 0.625000
Si Si3 0.056507 0.705078 0.009678
Si Si4 0.384709 0.580537 0.964442
O O1 0.125000 0.125000 0.329161
O O2 0.124949 0.285657 0.387319
O O3 0.078491 0.289330 0.278496
O O4 0.958690 0.199171 0.336588
O O5 0.739667 0.592444 0.570023
O O6 0.125000 0.625000 0.984365
O O7 0.107510 0.803295 0.029428
O O8 0.968737 0.712691 0.964758
#
# Coordination Sequence:
#
# PCOD9514668 Si02
#       4
#    32  16  32  32
#     4  10  19  39  68  95 133 176 220 286 344 398
#     4  10  21  38  64  97 136 176 215 280 357 396
#     4  11  22  40  67  98 137 179 227 278 343 412
#     4  10  20  38  69  97 125 180 228 277 328 405
#
# _framework density 25.45073
#
# number of rings (size 3 to 8) (size 9 to 14) (size 15 to 20)
#    0.000    1.714    5.714    1.286    0.000    0.000 
#    0.000   11.429    0.000    6.857    0.000    2.000 
#    0.000    0.000    0.000    0.000    0.000    0.000 
#
# Total GULP energy -156550.387408 kJ/mol
# GULP energy per Si atom -5591.085265 kJ/mol
# Density = 2.539280 g / cm^3
# Si number density = 25.450730 Si / 1000 Ang^3
#
#
#
# Elastic Constant Matrix: (Units=GPa)
#
#
# Indices 1 2 3 4 5 6 
#
# 1 86.9976 -15.2304 -43.7304 0.0000 0.0000 0.0000
# 2 -15.2304 129.5684 -10.7814 0.0000 0.0000 0.0000
# 3 -43.7304 -10.7814 74.9164 0.0000 0.0000 0.0000
# 4 0.0000 0.0000 0.0000 11.0338 0.0000 0.0000
# 5 0.0000 0.0000 0.0000 0.0000 18.2101 0.0000
# 6 0.0000 0.0000 0.0000 0.0000 0.0000 51.4385
#
#
#
# Elastic Compliance Matrix: (Units=1/GPa)
#
#
# Indices 1 2 3 4 5 6 
#
# 1 0.017285 0.002906 0.010508 0.000000 0.000000 0.000000
# 2 0.002906 0.008300 0.002891 0.000000 0.000000 0.000000
# 3 0.010508 0.002891 0.019898 0.000000 0.000000 0.000000
# 4 0.000000 0.000000 0.000000 0.090630 0.000000 0.000000
# 5 0.000000 0.000000 0.000000 0.000000 0.054914 0.000000
# 6 0.000000 0.000000 0.000000 0.000000 0.000000 0.019441
#
#
# Mechanical properties :
#
#
# Convention : Reuss Voigt Hill
#
# Bulk Modulus (GPa) = 12.80505 16.88866 14.84685
# Shear Modulus (GPa) = 24.52302 40.21812 32.37057
#
# Velocity S-wave (km/s) = 3.10748 3.97953 3.57023
# Velocity P-wave (km/s) = 4.23290 5.26932 4.77929
#
# Compressibility (1/GPa) = 0.07809417
#
# Stress axis : x y z
#
# Youngs Moduli (GPa) = 57.85230 120.48039 50.25606
#
# Poissons Ratio (x) = -0.35014 -0.52810
# Poissons Ratio (y) = -0.16813 -0.14529
# Poissons Ratio (z) = -0.60792 -0.34830
#
# Static dielectric constant tensor:
#      x y z
#    x 2.085160 0.000000 0.000000 
#    y 0.000000 1.942180 0.000000 
#    z 0.000000 0.000000 2.157530 
# 
# From -- ./inp_files/38237.got.cif
#   From: 2010.05.17/outbox.cif.g08.bks.cpg/sg70_20_cif.got.tgz:38237.got - 2010.06.03 15:57:51.
