data_PCOD9514961
_publ_section_title
;
Structure prediction by ZEFSAII (Michael W. Deem and Ramdas Pophale) SiO2 
 PCOD9514961
Probable space group: F D D D
;
_chemical_formula_sum "Si O2"
_cell_formula_units_Z 168
_cell_length_a 25.636404
_cell_length_b 15.115261
_cell_length_c 20.686510
_cell_angle_alpha 90.000000
_cell_angle_beta 90.000000
_cell_angle_gamma 90.000000
_cell_volume 8016.042020
_symmetry_space_group_name_H-M "F D D D"
_symmetry_group_IT_number 70
_space_group.IT_coordinate_system_code '2'
_symmetry_cell_setting 'orthorhombic'
loop_
_space_group_symop_operation_xyz
x,y,z
1/4-x,1/4-y,z
x,1/4-y,1/4-z
1/4-x,y,1/4-z
-x,-y,-z
3/4+x,3/4+y,-z
-x,3/4+y,3/4+z
3/4+x,-y,3/4+z
x,1/2+y,1/2+z
1/4-x,3/4-y,1/2+z
x,3/4-y,3/4-z
1/4-x,1/2+y,3/4-z
-x,1/2-y,1/2-z
3/4+x,1/4+y,1/2-z
-x,1/4+y,1/4+z
3/4+x,1/2-y,1/4+z
1/2+x,y,1/2+z
3/4-x,1/4-y,1/2+z
1/2+x,1/4-y,3/4-z
3/4-x,y,3/4-z
1/2-x,-y,1/2-z
1/4+x,3/4+y,1/2-z
1/2-x,3/4+y,1/4+z
1/4+x,-y,1/4+z
1/2+x,1/2+y,z
3/4-x,3/4-y,z
1/2+x,3/4-y,1/4-z
3/4-x,1/2+y,1/4-z
1/2-x,1/2-y,-z
1/4+x,1/4+y,-z
1/2-x,1/4+y,3/4+z
1/4+x,1/2-y,3/4+z
loop_
_atom_site_type_symbol
_atom_site_label
_atom_site_fract_x
_atom_site_fract_y
_atom_site_fract_z
Si Si1 0.581510 0.218538 0.873916
Si Si2 0.305888 0.223291 0.431542
Si Si3 0.125000 0.432378 0.625000
Si Si4 0.001029 0.625000 0.625000
Si Si5 0.058426 0.527954 0.922737
Si Si6 0.443592 0.792279 0.269989
Si Si7 0.875000 0.875000 0.375000
O O1 0.536826 0.291364 0.880473
O O2 0.568218 0.134593 0.919499
O O3 0.638744 0.255921 0.889844
O O4 0.581665 0.189896 0.798941
O O5 0.333823 0.133844 0.408970
O O6 0.250063 0.231503 0.395959
O O7 0.303341 0.228801 0.508847
O O8 0.339587 0.309121 0.415406
O O9 0.156957 0.486043 0.680718
O O10 0.038415 0.624593 0.562960
O O11 0.500000 0.750000 0.250000
#
# Coordination Sequence:
#
# PCOD9514961 Si02
#       7
#    32  32  16  16  32  32   8
#     4  10  22  41  66  96 130 171 212 277 322 388
#     4  10  22  41  64  88 126 168 212 272 316 385
#     4  11  24  44  68  91 136 172 218 271 332 382
#     4  10  22  40  66  94 136 174 216 260 336 384
#     4  10  22  42  61  93 126 163 222 262 323 383
#     4  10  23  42  65 101 130 174 223 266 329 407
#     4  10  20  38  56  90 112 164 208 256 320 370
#
# _framework density 20.957975000000001
#
# number of rings (size 3 to 8) (size 9 to 14) (size 15 to 20)
#    0.000    1.905    0.000    3.429    5.333    4.190 
#    6.857    0.000    0.000    0.000    0.000    0.000 
#    0.000    0.000    0.000    0.000    0.000    0.000 
#
# Total GULP energy -233969.395813 kJ/mol
# GULP energy per Si atom -5570.699900 kJ/mol
# Density = 2.091027 g / cm^3
# Si number density = 20.957975 Si / 1000 Ang^3
#
#
#
# Elastic Constant Matrix: (Units=GPa)
#
#
# Indices 1 2 3 4 5 6 
#
# 1 146.7023 23.4878 38.6748 0.0000 0.0000 0.0000
# 2 23.4878 62.9171 7.9741 0.0000 0.0000 0.0000
# 3 38.6748 7.9741 77.5267 0.0000 0.0000 0.0000
# 4 0.0000 0.0000 0.0000 19.9436 0.0000 0.0000
# 5 0.0000 0.0000 0.0000 0.0000 23.5440 0.0000
# 6 0.0000 0.0000 0.0000 0.0000 0.0000 -62.1783
#
#
#
# Elastic Compliance Matrix: (Units=1/GPa)
#
#
# Indices 1 2 3 4 5 6 
#
# 1 0.008245 -0.002591 -0.003847 0.000000 0.000000 0.000000
# 2 -0.002591 0.016918 -0.000448 0.000000 0.000000 0.000000
# 3 -0.003847 -0.000448 0.014864 0.000000 0.000000 0.000000
# 4 0.000000 0.000000 0.000000 0.050141 0.000000 0.000000
# 5 0.000000 0.000000 0.000000 0.000000 0.042474 0.000000
# 6 0.000000 0.000000 0.000000 0.000000 0.000000 -0.016083
#
#
# Mechanical properties :
#
#
# Convention : Reuss Voigt Hill
#
# Bulk Modulus (GPa) = 38.08551 47.49104 42.78827
# Shear Modulus (GPa) = 35.94999 10.72913 23.33956
#
# Velocity S-wave (km/s) = 4.14616 2.26505 3.34074
# Velocity P-wave (km/s) = 6.41347 5.43599 5.94485
#
# Compressibility (1/GPa) = 0.02625671
#
# Stress axis : x y z
#
# Youngs Moduli (GPa) = 121.27936 59.10942 67.27725
#
# Poissons Ratio (x) = 0.15313 0.25880
# Poissons Ratio (y) = 0.31418 0.03012
# Poissons Ratio (z) = 0.46654 0.02647
#
# Static dielectric constant tensor:
#      x y z
#    x 1.810250 0.000000 0.000000 
#    y 0.000000 1.740780 0.000000 
#    z 0.000000 0.000000 1.850930 
# 
# From -- ./inp_files/46818.got.cif
#   From: 2010.05.17/outbox.cif.g08.bks.cpg/sg70_24_cif.got.tgz:46818.got - 2010.06.03 15:57:51.
