data_PCOD9514523
_publ_section_title
;
Structure prediction by ZEFSAII (Michael W. Deem and Ramdas Pophale) SiO2 
 PCOD9514523
Probable space group: F D D D
;
_chemical_formula_sum "Si O2"
_cell_formula_units_Z 136
_cell_length_a 17.216674
_cell_length_b 25.999162
_cell_length_c 14.495635
_cell_angle_alpha 90.000000
_cell_angle_beta 90.000000
_cell_angle_gamma 90.000000
_cell_volume 6488.523041
_symmetry_space_group_name_H-M "F D D D"
_symmetry_group_IT_number 70
_space_group.IT_coordinate_system_code '2'
_symmetry_cell_setting 'orthorhombic'
loop_
_space_group_symop_operation_xyz
x,y,z
1/4-x,1/4-y,z
x,1/4-y,1/4-z
1/4-x,y,1/4-z
-x,-y,-z
3/4+x,3/4+y,-z
-x,3/4+y,3/4+z
3/4+x,-y,3/4+z
x,1/2+y,1/2+z
1/4-x,3/4-y,1/2+z
x,3/4-y,3/4-z
1/4-x,1/2+y,3/4-z
-x,1/2-y,1/2-z
3/4+x,1/4+y,1/2-z
-x,1/4+y,1/4+z
3/4+x,1/2-y,1/4+z
1/2+x,y,1/2+z
3/4-x,1/4-y,1/2+z
1/2+x,1/4-y,3/4-z
3/4-x,y,3/4-z
1/2-x,-y,1/2-z
1/4+x,3/4+y,1/2-z
1/2-x,3/4+y,1/4+z
1/4+x,-y,1/4+z
1/2+x,1/2+y,z
3/4-x,3/4-y,z
1/2+x,3/4-y,1/4-z
3/4-x,1/2+y,1/4-z
1/2-x,1/2-y,-z
1/4+x,1/4+y,-z
1/2-x,1/4+y,3/4+z
1/4+x,1/2-y,3/4+z
loop_
_atom_site_type_symbol
_atom_site_label
_atom_site_fract_x
_atom_site_fract_y
_atom_site_fract_z
Si Si1 0.554331 0.182471 0.475770
Si Si2 0.438498 0.295130 0.229217
Si Si3 0.226684 0.241906 0.843823
Si Si4 0.625000 0.125000 0.125000
Si Si5 0.989200 0.326131 0.255290
O O1 0.541815 0.177084 0.367050
O O2 0.529566 0.237672 0.512067
O O3 0.644583 0.178662 0.504091
O O4 0.502537 0.136826 0.518652
O O5 0.500000 0.250000 0.250000
O O6 0.355375 0.270486 0.202037
O O7 0.425350 0.336882 0.309725
O O8 0.259796 0.194630 0.903367
O O9 0.224773 0.287961 0.919785
#
# Coordination Sequence:
#
# PCOD9514523 Si02
#       5
#    32  32  32   8  32
#     4  10  19  36  61  88 120 158 202 254 326 388
#     4  11  24  41  64  87 120 172 225 265 320 396
#     4  10  19  35  60  87 124 154 198 256 310 383
#     4  12  24  48  68  84 126 176 218 276 336 390
#     4   9  19  34  59  92 120 159 195 247 328 392
#
# _framework density 20.960087000000001
#
# number of rings (size 3 to 8) (size 9 to 14) (size 15 to 20)
#    0.000    1.882    0.000    5.647    0.000    1.882 
#    4.235    0.000   20.706    0.000    0.000    0.000 
#    0.000    0.000    0.000    0.000    0.000    0.000 
#
# Total GULP energy -189576.780178 kJ/mol
# GULP energy per Si atom -5575.787652 kJ/mol
# Density = 2.091238 g / cm^3
# Si number density = 20.960087 Si / 1000 Ang^3
#
#
#
# Elastic Constant Matrix: (Units=GPa)
#
#
# Indices 1 2 3 4 5 6 
#
# 1 27.2653 32.3643 29.4120 0.0000 0.0000 0.0000
# 2 32.3643 107.1116 46.0328 0.0000 0.0000 0.0000
# 3 29.4120 46.0328 120.0504 0.0000 0.0000 0.0000
# 4 0.0000 0.0000 0.0000 6.5612 0.0000 0.0000
# 5 0.0000 0.0000 0.0000 0.0000 24.6286 0.0000
# 6 0.0000 0.0000 0.0000 0.0000 0.0000 24.7893
#
#
#
# Elastic Compliance Matrix: (Units=1/GPa)
#
#
# Indices 1 2 3 4 5 6 
#
# 1 0.066272 -0.015621 -0.010247 0.000000 0.000000 0.000000
# 2 -0.015621 0.014860 -0.001871 0.000000 0.000000 0.000000
# 3 -0.010247 -0.001871 0.011558 0.000000 0.000000 0.000000
# 4 0.000000 0.000000 0.000000 0.152412 0.000000 0.000000
# 5 0.000000 0.000000 0.000000 0.000000 0.040603 0.000000
# 6 0.000000 0.000000 0.000000 0.000000 0.000000 0.040340
#
#
# Mechanical properties :
#
#
# Convention : Reuss Voigt Hill
#
# Bulk Modulus (GPa) = 26.87239 52.22729 39.54984
# Shear Modulus (GPa) = 12.69273 20.97037 16.83155
#
# Velocity S-wave (km/s) = 2.46350 3.16648 2.83685
# Velocity P-wave (km/s) = 4.57606 6.19196 5.44430
#
# Compressibility (1/GPa) = 0.03721291
#
# Stress axis : x y z
#
# Youngs Moduli (GPa) = 15.08925 67.29461 86.52247
#
# Poissons Ratio (x) = 1.05119 0.88658
# Poissons Ratio (y) = 0.23571 0.16188
# Poissons Ratio (z) = 0.15462 0.12591
#
# Static dielectric constant tensor:
#      x y z
#    x 1.753360 0.000000 0.000000 
#    y 0.000000 1.728050 0.000000 
#    z 0.000000 0.000000 1.813740 
# 
# From -- ./inp_files/27433.got.cif
#   From: 2010.05.17/outbox.cif.g08.bks.cpg/sg70_14_cif.got.tgz:27433.got - 2010.06.03 15:57:51.
