data_PCOD9514121
_publ_section_title
;
Structure prediction by ZEFSAII (Michael W. Deem and Ramdas Pophale) SiO2 
 PCOD9514121
Probable space group: F D D D
;
_chemical_formula_sum "Si O2"
_cell_formula_units_Z 96
_cell_length_a 15.808771
_cell_length_b 31.710015
_cell_length_c 6.817564
_cell_angle_alpha 90.000000
_cell_angle_beta 90.000000
_cell_angle_gamma 90.000000
_cell_volume 3417.620055
_symmetry_space_group_name_H-M "F D D D"
_symmetry_group_IT_number 70
_space_group.IT_coordinate_system_code '2'
_symmetry_cell_setting 'orthorhombic'
loop_
_space_group_symop_operation_xyz
x,y,z
1/4-x,1/4-y,z
x,1/4-y,1/4-z
1/4-x,y,1/4-z
-x,-y,-z
3/4+x,3/4+y,-z
-x,3/4+y,3/4+z
3/4+x,-y,3/4+z
x,1/2+y,1/2+z
1/4-x,3/4-y,1/2+z
x,3/4-y,3/4-z
1/4-x,1/2+y,3/4-z
-x,1/2-y,1/2-z
3/4+x,1/4+y,1/2-z
-x,1/4+y,1/4+z
3/4+x,1/2-y,1/4+z
1/2+x,y,1/2+z
3/4-x,1/4-y,1/2+z
1/2+x,1/4-y,3/4-z
3/4-x,y,3/4-z
1/2-x,-y,1/2-z
1/4+x,3/4+y,1/2-z
1/2-x,3/4+y,1/4+z
1/4+x,-y,1/4+z
1/2+x,1/2+y,z
3/4-x,3/4-y,z
1/2+x,3/4-y,1/4-z
3/4-x,1/2+y,1/4-z
1/2-x,1/2-y,-z
1/4+x,1/4+y,-z
1/2-x,1/4+y,3/4+z
1/4+x,1/2-y,3/4+z
loop_
_atom_site_type_symbol
_atom_site_label
_atom_site_fract_x
_atom_site_fract_y
_atom_site_fract_z
Si Si1 0.272658 0.937217 0.063155
Si Si2 0.523641 0.846138 0.624600
Si Si3 0.696580 0.016332 0.435661
O O1 0.488049 0.918873 0.911977
O O2 0.263212 0.892082 0.168950
O O3 0.358007 0.962631 0.121771
O O4 0.204615 0.974941 0.068598
O O5 0.625000 0.850079 0.625000
O O6 0.499092 0.806574 0.488462
O O7 0.750000 0.000000 0.250000
#
# Coordination Sequence:
#
# PCOD9514121 Si02
#       3
#    32  32  32
#     4  10  20  32  52  82 111 145 189 236 283 335
#     4  10  19  33  52  78 112 151 188 232 282 336
#     4  10  17  30  52  80 112 144 181 233 280 331
#
# _framework density 28.08972
#
# number of rings (size 3 to 8) (size 9 to 14) (size 15 to 20)
#    0.000    2.000    0.000    9.000    0.000    5.333 
#    0.000    1.667    0.000    0.000    0.000    9.333 
#    0.000    0.000    0.000    0.000    0.000    0.000 
#
# Total GULP energy -133999.824349 kJ/mol
# GULP energy per Si atom -5583.326015 kJ/mol
# Density = 2.802579 g / cm^3
# Si number density = 28.089720 Si / 1000 Ang^3
#
#
#
# Elastic Constant Matrix: (Units=GPa)
#
#
# Indices 1 2 3 4 5 6 
#
# 1 219.1250 124.0073 9.7460 0.0001 0.0000 -0.0003
# 2 124.0073 406.7027 78.1896 0.0000 0.0000 -0.0001
# 3 9.7460 78.1896 71.9979 0.0005 0.0004 -0.0011
# 4 0.0001 0.0000 0.0005 69.6891 -0.0003 0.0003
# 5 0.0000 0.0000 0.0004 -0.0003 32.2279 0.0007
# 6 -0.0003 -0.0001 -0.0011 0.0003 0.0007 102.0839
#
#
#
# Elastic Compliance Matrix: (Units=1/GPa)
#
#
# Indices 1 2 3 4 5 6 
#
# 1 0.005623 -0.001982 0.001391 0.000000 0.000000 0.000000
# 2 -0.001982 0.003806 -0.003865 0.000000 0.000000 0.000000
# 3 0.001391 -0.003865 0.017899 0.000000 0.000000 0.000000
# 4 0.000000 0.000000 0.000000 0.014349 0.000000 0.000000
# 5 0.000000 0.000000 0.000000 0.000000 0.031029 0.000000
# 6 0.000000 0.000000 0.000000 0.000000 0.000000 0.009796
#
#
# Mechanical properties :
#
#
# Convention : Reuss Voigt Hill
#
# Bulk Modulus (GPa) = 54.29978 124.63459 89.46719
# Shear Modulus (GPa) = 51.25384 73.19236 62.22310
#
# Velocity S-wave (km/s) = 4.27622 5.11011 4.71165
# Velocity P-wave (km/s) = 6.61470 8.90416 7.84342
#
# Compressibility (1/GPa) = 0.01841628
#
# Stress axis : x y z
#
# Youngs Moduli (GPa) = 177.82668 262.72337 55.87005
#
# Poissons Ratio (x) = 0.52075 -0.07774
# Poissons Ratio (y) = 0.35248 0.21595
# Poissons Ratio (z) = -0.24742 1.01551
#
# Static dielectric constant tensor:
#      x y z
#    x 2.138160 0.000000 0.000000 
#    y 0.000000 2.139750 0.000000 
#    z 0.000000 0.000000 0.770000 
# 
# From -- ./inp_files/16057.got.cif
#   From: 2010.05.17/outbox.cif.g08.bks.cpg/sg70_9_cif.got.tgz:16057.got - 2010.06.03 15:57:51.
