data_PCOD9514099
_publ_section_title
;
Structure prediction by ZEFSAII (Michael W. Deem and Ramdas Pophale) SiO2 
 PCOD9514099
Probable space group: F D D D
;
_chemical_formula_sum "Si O2"
_cell_formula_units_Z 216
_cell_length_a 25.613279
_cell_length_b 22.618647
_cell_length_c 15.651082
_cell_angle_alpha 90.000000
_cell_angle_beta 90.000000
_cell_angle_gamma 90.000000
_cell_volume 9067.262102
_symmetry_space_group_name_H-M "F D D D"
_symmetry_group_IT_number 70
_space_group.IT_coordinate_system_code '2'
_symmetry_cell_setting 'orthorhombic'
loop_
_space_group_symop_operation_xyz
x,y,z
1/4-x,1/4-y,z
x,1/4-y,1/4-z
1/4-x,y,1/4-z
-x,-y,-z
3/4+x,3/4+y,-z
-x,3/4+y,3/4+z
3/4+x,-y,3/4+z
x,1/2+y,1/2+z
1/4-x,3/4-y,1/2+z
x,3/4-y,3/4-z
1/4-x,1/2+y,3/4-z
-x,1/2-y,1/2-z
3/4+x,1/4+y,1/2-z
-x,1/4+y,1/4+z
3/4+x,1/2-y,1/4+z
1/2+x,y,1/2+z
3/4-x,1/4-y,1/2+z
1/2+x,1/4-y,3/4-z
3/4-x,y,3/4-z
1/2-x,-y,1/2-z
1/4+x,3/4+y,1/2-z
1/2-x,3/4+y,1/4+z
1/4+x,-y,1/4+z
1/2+x,1/2+y,z
3/4-x,3/4-y,z
1/2+x,3/4-y,1/4-z
3/4-x,1/2+y,1/4-z
1/2-x,1/2-y,-z
1/4+x,1/4+y,-z
1/2-x,1/4+y,3/4+z
1/4+x,1/2-y,3/4+z
loop_
_atom_site_type_symbol
_atom_site_label
_atom_site_fract_x
_atom_site_fract_y
_atom_site_fract_z
Si Si1 0.318629 0.229527 0.903759
Si Si2 0.447766 0.125000 0.125000
Si Si3 0.289502 0.285855 0.396743
Si Si4 0.925797 0.247862 0.036656
Si Si5 0.089157 0.324751 0.712190
Si Si6 0.542541 0.070397 0.443486
Si Si7 0.625000 0.125000 0.125000
Si Si8 0.774241 0.327898 0.298672
O O1 0.375000 0.206573 0.875000
O O2 0.270640 0.186693 0.928538
O O3 0.302473 0.267811 0.821611
O O4 0.314187 0.277204 0.981408
O O5 0.484951 0.069028 0.106906
O O6 0.420653 0.121777 0.220060
O O7 0.305875 0.278373 0.298921
O O8 0.291933 0.218524 0.431749
O O9 0.335113 0.331774 0.427438
O O10 0.930983 0.294693 0.110788
O O11 0.964287 0.191649 0.048299
O O12 0.870350 0.219730 0.023484
O O13 0.125000 0.332959 0.625000
O O14 0.548010 0.138260 0.468531
O O15 0.780392 0.375000 0.375000
#
# Coordination Sequence:
#
# PCOD9514099 Si02
#       8
#    32  16  32  32  32  32   8  32
#     4   9  18  37  60  83 123 172 219 274 326 400
#     4  11  24  41  76 104 130 184 235 276 353 426
#     4  10  21  41  69  94 136 169 229 284 346 399
#     4  10  20  38  60  87 133 165 211 279 339 395
#     4  10  22  44  67 101 142 180 220 292 346 413
#     4   9  19  36  58  89 121 169 218 271 338 403
#     4  10  16  40  68  88 112 192 210 280 346 402
#     4   9  19  35  59  82 122 172 214 268 333 397
#
# _framework density 23.821964000000001
#
# number of rings (size 3 to 8) (size 9 to 14) (size 15 to 20)
#    0.000    2.370    2.222    1.333    1.037    5.037 
#    5.333    3.704    3.259    0.000    0.000    0.000 
#    0.000    0.000    0.000    0.000    0.000    0.000 
#
# Total GULP energy -300791.505474 kJ/mol
# GULP energy per Si atom -5570.213064 kJ/mol
# Density = 2.376774 g / cm^3
# Si number density = 23.821964 Si / 1000 Ang^3
#
#
#
# Elastic Constant Matrix: (Units=GPa)
#
#
# Indices 1 2 3 4 5 6 
#
# 1 64.3181 -0.3780 30.7043 0.0000 0.0000 0.0000
# 2 -0.3780 75.3884 43.7102 0.0000 0.0000 0.0000
# 3 30.7043 43.7102 120.4632 0.0000 0.0000 0.0000
# 4 0.0000 0.0000 0.0000 7.8450 0.0000 0.0000
# 5 0.0000 0.0000 0.0000 0.0000 22.1727 0.0000
# 6 0.0000 0.0000 0.0000 0.0000 0.0000 21.8968
#
#
#
# Elastic Compliance Matrix: (Units=1/GPa)
#
#
# Indices 1 2 3 4 5 6 
#
# 1 0.018429 0.003566 -0.005991 0.000000 0.000000 0.000000
# 2 0.003566 0.017489 -0.007255 0.000000 0.000000 0.000000
# 3 -0.005991 -0.007255 0.012461 0.000000 0.000000 0.000000
# 4 0.000000 0.000000 0.000000 0.127470 0.000000 0.000000
# 5 0.000000 0.000000 0.000000 0.000000 0.045100 0.000000
# 6 0.000000 0.000000 0.000000 0.000000 0.000000 0.045669
#
#
# Mechanical properties :
#
#
# Convention : Reuss Voigt Hill
#
# Bulk Modulus (GPa) = 34.46067 45.36032 39.91049
# Shear Modulus (GPa) = 16.91189 22.79177 19.85183
#
# Velocity S-wave (km/s) = 2.66734 3.09650 2.88990
# Velocity P-wave (km/s) = 4.89730 5.64510 5.28445
#
# Compressibility (1/GPa) = 0.02901859
#
# Stress axis : x y z
#
# Youngs Moduli (GPa) = 54.26303 57.17926 80.25189
#
# Poissons Ratio (x) = -0.20391 0.48080
# Poissons Ratio (y) = -0.19351 0.58221
# Poissons Ratio (z) = 0.32510 0.41482
#
# Static dielectric constant tensor:
#      x y z
#    x 2.061340 0.000000 0.000000 
#    y 0.000000 1.959200 0.000000 
#    z 0.000000 0.000000 1.934890 
# 
# From -- ./inp_files/30191.got.cif
#   From: 2010.05.17/outbox.cif.g08.bks.cpg/sg70_16_cif.got.tgz:30191.got - 2010.06.03 15:57:51.
