data_PCOD9514452
_publ_section_title
;
Structure prediction by ZEFSAII (Michael W. Deem and Ramdas Pophale) SiO2 
 PCOD9514452
Probable space group: F D D D
;
_chemical_formula_sum "Si O2"
_cell_formula_units_Z 160
_cell_length_a 10.052780
_cell_length_b 26.022255
_cell_length_c 26.194270
_cell_angle_alpha 90.000000
_cell_angle_beta 90.000000
_cell_angle_gamma 90.000000
_cell_volume 6852.316376
_symmetry_space_group_name_H-M "F D D D"
_symmetry_group_IT_number 70
_space_group.IT_coordinate_system_code '2'
_symmetry_cell_setting 'orthorhombic'
loop_
_space_group_symop_operation_xyz
x,y,z
1/4-x,1/4-y,z
x,1/4-y,1/4-z
1/4-x,y,1/4-z
-x,-y,-z
3/4+x,3/4+y,-z
-x,3/4+y,3/4+z
3/4+x,-y,3/4+z
x,1/2+y,1/2+z
1/4-x,3/4-y,1/2+z
x,3/4-y,3/4-z
1/4-x,1/2+y,3/4-z
-x,1/2-y,1/2-z
3/4+x,1/4+y,1/2-z
-x,1/4+y,1/4+z
3/4+x,1/2-y,1/4+z
1/2+x,y,1/2+z
3/4-x,1/4-y,1/2+z
1/2+x,1/4-y,3/4-z
3/4-x,y,3/4-z
1/2-x,-y,1/2-z
1/4+x,3/4+y,1/2-z
1/2-x,3/4+y,1/4+z
1/4+x,-y,1/4+z
1/2+x,1/2+y,z
3/4-x,3/4-y,z
1/2+x,3/4-y,1/4-z
3/4-x,1/2+y,1/4-z
1/2-x,1/2-y,-z
1/4+x,1/4+y,-z
1/2-x,1/4+y,3/4+z
1/4+x,1/2-y,3/4+z
loop_
_atom_site_type_symbol
_atom_site_label
_atom_site_fract_x
_atom_site_fract_y
_atom_site_fract_z
Si Si1 0.466627 0.065865 0.635730
Si Si2 0.565999 0.001337 0.266647
Si Si3 0.591609 0.926409 0.564531
Si Si4 0.569545 0.526552 0.331926
Si Si5 0.258334 0.832329 0.063202
O O1 0.430293 0.125000 0.625000
O O2 0.625000 0.060928 0.625000
O O3 0.432799 0.045056 0.692477
O O4 0.388906 0.026652 0.599013
O O5 0.435132 0.034558 0.283742
O O6 0.686530 0.041395 0.272994
O O7 0.542463 0.984641 0.209109
O O8 0.625000 0.933251 0.625000
O O9 0.437868 0.939436 0.557944
O O10 0.632174 0.868148 0.552044
O O11 0.516423 0.553872 0.382570
O O12 0.375000 0.875000 0.067085
#
# Coordination Sequence:
#
# PCOD9514452 Si02
#       5
#    32  32  32  32  32
#     4  10  19  34  48  81 128 153 183 262 336 366
#     4  10  19  34  54  87 125 154 211 272 325 391
#     4  11  17  34  58  84 121 167 203 265 344 377
#     4  11  19  35  59  90 116 166 217 261 331 402
#     4   9  19  35  55  87 126 164 204 273 336 378
#
# _framework density 23.349768999999998
#
# number of rings (size 3 to 8) (size 9 to 14) (size 15 to 20)
#    0.000    1.800    8.000    0.600    0.000    0.000 
#    7.200    0.000    0.000    1.200   15.600    0.000 
#    0.000    0.000    0.000    0.000    0.000    0.000 
#
# Total GULP energy -224088.429460 kJ/mol
# GULP energy per Si atom -5602.210736 kJ/mol
# Density = 2.329662 g / cm^3
# Si number density = 23.349769 Si / 1000 Ang^3
#
#
#
# Elastic Constant Matrix: (Units=GPa)
#
#
# Indices 1 2 3 4 5 6 
#
# 1 118.2308 60.1661 14.7960 0.0000 0.0000 0.0000
# 2 60.1661 217.0662 70.5346 0.0000 0.0000 0.0000
# 3 14.7960 70.5346 105.9012 0.0000 0.0000 0.0000
# 4 0.0000 0.0000 0.0000 29.5603 0.0000 0.0000
# 5 0.0000 0.0000 0.0000 0.0000 34.9896 0.0000
# 6 0.0000 0.0000 0.0000 0.0000 0.0000 38.2551
#
#
#
# Elastic Compliance Matrix: (Units=1/GPa)
#
#
# Indices 1 2 3 4 5 6 
#
# 1 0.009873 -0.002921 0.000566 0.000000 0.000000 0.000000
# 2 -0.002921 0.006743 -0.004083 0.000000 0.000000 0.000000
# 3 0.000566 -0.004083 0.012083 0.000000 0.000000 0.000000
# 4 0.000000 0.000000 0.000000 0.033829 0.000000 0.000000
# 5 0.000000 0.000000 0.000000 0.000000 0.028580 0.000000
# 6 0.000000 0.000000 0.000000 0.000000 0.000000 0.026140
#
#
# Mechanical properties :
#
#
# Convention : Reuss Voigt Hill
#
# Bulk Modulus (GPa) = 63.19538 81.35460 72.27499
# Shear Modulus (GPa) = 36.92760 40.27444 38.60102
#
# Velocity S-wave (km/s) = 3.98112 4.15762 4.07032
# Velocity P-wave (km/s) = 6.94664 7.61348 7.28769
#
# Compressibility (1/GPa) = 0.01582394
#
# Stress axis : x y z
#
# Youngs Moduli (GPa) = 101.28160 148.29698 82.75867
#
# Poissons Ratio (x) = 0.43311 -0.04682
# Poissons Ratio (y) = 0.29580 0.33792
# Poissons Ratio (z) = -0.05730 0.60553
#
# Static dielectric constant tensor:
#      x y z
#    x 1.945710 0.000000 0.000000 
#    y 0.000000 1.888570 0.000000 
#    z 0.000000 0.000000 1.847300 
# 
# From -- ./inp_files/57523.got.cif
#   From: 2010.05.17/outbox.cif.g08.bks.cpg/sg70_29_cif.got.tgz:57523.got - 2010.06.03 15:57:51.
