data_PCOD9514048
_publ_section_title
;
Structure prediction by ZEFSAII (Michael W. Deem and Ramdas Pophale) SiO2 
 PCOD9514048
Probable space group: F D D D
;
_chemical_formula_sum "Si O2"
_cell_formula_units_Z 192
_cell_length_a 26.634473
_cell_length_b 24.174413
_cell_length_c 11.579466
_cell_angle_alpha 90.000000
_cell_angle_beta 90.000000
_cell_angle_gamma 90.000000
_cell_volume 7455.702621
_symmetry_space_group_name_H-M "F D D D"
_symmetry_group_IT_number 70
_space_group.IT_coordinate_system_code '2'
_symmetry_cell_setting 'orthorhombic'
loop_
_space_group_symop_operation_xyz
x,y,z
1/4-x,1/4-y,z
x,1/4-y,1/4-z
1/4-x,y,1/4-z
-x,-y,-z
3/4+x,3/4+y,-z
-x,3/4+y,3/4+z
3/4+x,-y,3/4+z
x,1/2+y,1/2+z
1/4-x,3/4-y,1/2+z
x,3/4-y,3/4-z
1/4-x,1/2+y,3/4-z
-x,1/2-y,1/2-z
3/4+x,1/4+y,1/2-z
-x,1/4+y,1/4+z
3/4+x,1/2-y,1/4+z
1/2+x,y,1/2+z
3/4-x,1/4-y,1/2+z
1/2+x,1/4-y,3/4-z
3/4-x,y,3/4-z
1/2-x,-y,1/2-z
1/4+x,3/4+y,1/2-z
1/2-x,3/4+y,1/4+z
1/4+x,-y,1/4+z
1/2+x,1/2+y,z
3/4-x,3/4-y,z
1/2+x,3/4-y,1/4-z
3/4-x,1/2+y,1/4-z
1/2-x,1/2-y,-z
1/4+x,1/4+y,-z
1/2-x,1/4+y,3/4+z
1/4+x,1/2-y,3/4+z
loop_
_atom_site_type_symbol
_atom_site_label
_atom_site_fract_x
_atom_site_fract_y
_atom_site_fract_z
Si Si1 0.707874 0.382155 0.625463
Si Si2 0.460179 0.756091 0.084014
Si Si3 0.625000 0.963398 0.625000
Si Si4 0.714410 0.875000 0.375000
Si Si5 0.679921 0.242236 0.096387
Si Si6 0.029864 0.166328 0.205807
Si Si7 0.900902 0.514647 0.134581
O O1 0.671053 0.329407 0.608472
O O2 0.738105 0.379763 0.747635
O O3 0.680901 0.440926 0.640598
O O4 0.739968 0.377382 0.510232
O O5 0.452189 0.805426 0.175540
O O6 0.503273 0.717020 0.136645
O O7 0.405326 0.727737 0.085218
O O8 0.467494 0.774054 0.949912
O O9 0.640938 0.000917 0.516996
O O10 0.677390 0.823349 0.359772
O O11 0.625000 0.218682 0.125000
O O12 0.684089 0.231054 0.958985
O O13 0.061292 0.125000 0.125000
#
# Coordination Sequence:
#
# PCOD9514048 Si02
#       7
#    32  32  16  16  32  32  32
#     4  10  16  27  44  68 103 136 175 221 280 349
#     4  10  20  30  44  72 103 143 189 220 279 353
#     4  10  16  24  44  74 105 134 172 226 295 342
#     4   8  18  26  48  78 100 138 169 223 308 340
#     4   9  16  27  46  69 100 135 176 231 282 325
#     4  11  21  30  47  67 107 153 184 223 272 355
#     4   9  17  27  46  73 106 133 173 231 287 337
#
# _framework density 25.752099999999999
#
# number of rings (size 3 to 8) (size 9 to 14) (size 15 to 20)
#    0.000    2.333    4.167    0.000    3.500    0.000 
#    0.000    0.000    0.000   11.000    0.000    0.583 
#    0.000    0.000    0.000    0.000    2.000    0.000 
#
# Total GULP energy -267338.500804 kJ/mol
# GULP energy per Si atom -5569.552100 kJ/mol
# Density = 2.569349 g / cm^3
# Si number density = 25.752100 Si / 1000 Ang^3
#
#
#
# Elastic Constant Matrix: (Units=GPa)
#
#
# Indices 1 2 3 4 5 6 
#
# 1 39.5575 19.1764 21.4059 0.0000 0.0000 0.0000
# 2 19.1764 60.5153 43.4448 0.0001 0.0000 0.0000
# 3 21.4059 43.4448 246.7934 0.0003 -0.0002 -0.0001
# 4 0.0000 0.0001 0.0003 27.3402 -0.0001 0.0000
# 5 0.0000 0.0000 -0.0002 -0.0001 22.2325 0.0000
# 6 0.0000 0.0000 -0.0001 0.0000 0.0000 2.5943
#
#
#
# Elastic Compliance Matrix: (Units=1/GPa)
#
#
# Indices 1 2 3 4 5 6 
#
# 1 0.030111 -0.008776 -0.001067 0.000000 0.000000 0.000000
# 2 -0.008776 0.021473 -0.003019 0.000000 0.000000 0.000000
# 3 -0.001067 -0.003019 0.004676 0.000000 0.000000 0.000000
# 4 0.000000 0.000000 0.000000 0.036576 0.000000 0.000001
# 5 0.000000 0.000000 0.000000 0.000000 0.044979 0.000000
# 6 0.000000 0.000000 0.000000 0.000001 0.000000 0.385461
#
#
# Mechanical properties :
#
#
# Convention : Reuss Voigt Hill
#
# Bulk Modulus (GPa) = 32.74721 57.21337 44.98029
# Shear Modulus (GPa) = 8.94168 27.95601 18.44885
#
# Velocity S-wave (km/s) = 1.86541 3.29839 2.67947
# Velocity P-wave (km/s) = 4.16936 6.06391 5.20359
#
# Compressibility (1/GPa) = 0.03053696
#
# Stress axis : x y z
#
# Youngs Moduli (GPa) = 33.21017 46.57017 213.86093
#
# Poissons Ratio (x) = 0.40870 0.22816
# Poissons Ratio (y) = 0.29145 0.64561
# Poissons Ratio (z) = 0.03543 0.14059
#
# Static dielectric constant tensor:
#      x y z
#    x 2.049770 0.000000 0.000000 
#    y 0.000000 2.014740 0.000000 
#    z 0.000000 0.000000 2.254020 
# 
# From -- ./inp_files/22485.got.cif
#   From: 2010.05.17/outbox.cif.g08.bks.cpg/sg70_12_cif.got.tgz:22485.got - 2010.06.03 15:57:51.
