data_PCOD9514207
_publ_section_title
;
Structure prediction by ZEFSAII (Michael W. Deem and Ramdas Pophale) SiO2 
 PCOD9514207
Probable space group: F D D D
;
_chemical_formula_sum "Si O2"
_cell_formula_units_Z 112
_cell_length_a 22.933642
_cell_length_b 17.873771
_cell_length_c 10.918368
_cell_angle_alpha 90.000000
_cell_angle_beta 90.000000
_cell_angle_gamma 90.000000
_cell_volume 4475.555491
_symmetry_space_group_name_H-M "F D D D"
_symmetry_group_IT_number 70
_space_group.IT_coordinate_system_code '2'
_symmetry_cell_setting 'orthorhombic'
loop_
_space_group_symop_operation_xyz
x,y,z
1/4-x,1/4-y,z
x,1/4-y,1/4-z
1/4-x,y,1/4-z
-x,-y,-z
3/4+x,3/4+y,-z
-x,3/4+y,3/4+z
3/4+x,-y,3/4+z
x,1/2+y,1/2+z
1/4-x,3/4-y,1/2+z
x,3/4-y,3/4-z
1/4-x,1/2+y,3/4-z
-x,1/2-y,1/2-z
3/4+x,1/4+y,1/2-z
-x,1/4+y,1/4+z
3/4+x,1/2-y,1/4+z
1/2+x,y,1/2+z
3/4-x,1/4-y,1/2+z
1/2+x,1/4-y,3/4-z
3/4-x,y,3/4-z
1/2-x,-y,1/2-z
1/4+x,3/4+y,1/2-z
1/2-x,3/4+y,1/4+z
1/4+x,-y,1/4+z
1/2+x,1/2+y,z
3/4-x,3/4-y,z
1/2+x,3/4-y,1/4-z
3/4-x,1/2+y,1/4-z
1/2-x,1/2-y,-z
1/4+x,1/4+y,-z
1/2-x,1/4+y,3/4+z
1/4+x,1/2-y,3/4+z
loop_
_atom_site_type_symbol
_atom_site_label
_atom_site_fract_x
_atom_site_fract_y
_atom_site_fract_z
Si Si1 0.019657 0.015085 0.325698
Si Si2 0.229711 0.875000 0.375000
Si Si3 0.689762 0.649353 0.789738
Si Si4 0.605250 0.487311 0.986518
O O1 0.015306 0.063608 0.199669
O O2 0.019228 0.078696 0.429399
O O3 0.969111 0.955200 0.306059
O O4 0.083174 0.977807 0.333615
O O5 0.187057 0.832893 0.470252
O O6 0.625000 0.625000 0.754890
O O7 0.677791 0.694869 0.917437
O O8 0.625000 0.499163 0.125000
#
# Coordination Sequence:
#
# PCOD9514207 Si02
#       4
#    32  16  32  32
#     4  10  18  32  52  75 111 142 176 228 283 327
#     4  10  20  32  51  80 107 140 184 230 278 338
#     4   9  19  32  52  82 109 142 183 229 282 342
#     4  10  19  31  51  78 108 141 183 228 284 340
#
# _framework density 25.024826999999998
#
# number of rings (size 3 to 8) (size 9 to 14) (size 15 to 20)
#    0.000    2.286    0.000    3.429    0.000    8.571 
#    0.000    0.000    0.000   30.857    0.000    0.000 
#    0.000    0.000    0.000    0.000    0.000    0.000 
#
# Total GULP energy -156678.257941 kJ/mol
# GULP energy per Si atom -5595.652069 kJ/mol
# Density = 2.496787 g / cm^3
# Si number density = 25.024827 Si / 1000 Ang^3
#
#
#
# Elastic Constant Matrix: (Units=GPa)
#
#
# Indices 1 2 3 4 5 6 
#
# 1 138.2833 85.8336 14.6759 0.0000 0.0000 0.0000
# 2 85.8336 127.0163 37.3411 0.0000 0.0000 0.0000
# 3 14.6759 37.3411 137.6889 0.0000 0.0000 0.0000
# 4 0.0000 0.0000 0.0000 5.8227 0.0000 0.0000
# 5 0.0000 0.0000 0.0000 0.0000 13.3792 0.0000
# 6 0.0000 0.0000 0.0000 0.0000 0.0000 51.6179
#
#
#
# Elastic Compliance Matrix: (Units=1/GPa)
#
#
# Indices 1 2 3 4 5 6 
#
# 1 0.012594 -0.008819 0.001049 0.000000 0.000000 0.000000
# 2 -0.008819 0.014731 -0.003055 0.000000 0.000000 0.000000
# 3 0.001049 -0.003055 0.007979 0.000000 0.000000 0.000000
# 4 0.000000 0.000000 0.000000 0.171742 0.000000 0.000000
# 5 0.000000 0.000000 0.000000 0.000000 0.074743 0.000000
# 6 0.000000 0.000000 0.000000 0.000000 0.000000 0.019373
#
#
# Mechanical properties :
#
#
# Convention : Reuss Voigt Hill
#
# Bulk Modulus (GPa) = 73.23411 75.40995 74.32203
# Shear Modulus (GPa) = 15.27349 31.83982 23.55665
#
# Velocity S-wave (km/s) = 2.47317 3.57084 3.07144
# Velocity P-wave (km/s) = 6.12238 6.87028 6.50708
#
# Compressibility (1/GPa) = 0.01365484
#
# Stress axis : x y z
#
# Youngs Moduli (GPa) = 79.39987 67.88379 125.32255
#
# Poissons Ratio (x) = 0.59870 -0.13152
# Poissons Ratio (y) = 0.70026 0.38286
# Poissons Ratio (z) = -0.08332 0.20739
#
# Static dielectric constant tensor:
#      x y z
#    x 1.895370 0.000000 0.000000 
#    y 0.000000 1.966880 0.000000 
#    z 0.000000 0.000000 2.020740 
# 
# From -- ./inp_files/16266.got.cif
#   From: 2010.05.17/outbox.cif.g08.bks.cpg/sg70_9_cif.got.tgz:16266.got - 2010.06.03 15:57:51.
