data_PCOD9514339
_publ_section_title
;
Structure prediction by ZEFSAII (Michael W. Deem and Ramdas Pophale) SiO2 
 PCOD9514339
Probable space group: F D D D
;
_chemical_formula_sum "Si O2"
_cell_formula_units_Z 240
_cell_length_a 20.000575
_cell_length_b 21.041958
_cell_length_c 25.470354
_cell_angle_alpha 90.000000
_cell_angle_beta 90.000000
_cell_angle_gamma 90.000000
_cell_volume 10719.230551
_symmetry_space_group_name_H-M "F D D D"
_symmetry_group_IT_number 70
_space_group.IT_coordinate_system_code '2'
_symmetry_cell_setting 'orthorhombic'
loop_
_space_group_symop_operation_xyz
x,y,z
1/4-x,1/4-y,z
x,1/4-y,1/4-z
1/4-x,y,1/4-z
-x,-y,-z
3/4+x,3/4+y,-z
-x,3/4+y,3/4+z
3/4+x,-y,3/4+z
x,1/2+y,1/2+z
1/4-x,3/4-y,1/2+z
x,3/4-y,3/4-z
1/4-x,1/2+y,3/4-z
-x,1/2-y,1/2-z
3/4+x,1/4+y,1/2-z
-x,1/4+y,1/4+z
3/4+x,1/2-y,1/4+z
1/2+x,y,1/2+z
3/4-x,1/4-y,1/2+z
1/2+x,1/4-y,3/4-z
3/4-x,y,3/4-z
1/2-x,-y,1/2-z
1/4+x,3/4+y,1/2-z
1/2-x,3/4+y,1/4+z
1/4+x,-y,1/4+z
1/2+x,1/2+y,z
3/4-x,3/4-y,z
1/2+x,3/4-y,1/4-z
3/4-x,1/2+y,1/4-z
1/2-x,1/2-y,-z
1/4+x,1/4+y,-z
1/2-x,1/4+y,3/4+z
1/4+x,1/2-y,3/4+z
loop_
_atom_site_type_symbol
_atom_site_label
_atom_site_fract_x
_atom_site_fract_y
_atom_site_fract_z
Si Si1 0.544547 0.767468 0.699158
Si Si2 0.025697 0.004551 0.203203
Si Si3 0.077955 0.238673 0.864716
Si Si4 0.045124 0.303652 0.352571
Si Si5 0.757765 0.855708 0.000505
Si Si6 0.629669 0.395634 0.062580
Si Si7 0.625000 0.625000 0.319626
Si Si8 0.103583 0.197803 0.493220
O O1 0.500000 0.750000 0.750000
O O2 0.498831 0.749284 0.649529
O O3 0.566307 0.840966 0.701708
O O4 0.612357 0.728238 0.705952
O O5 0.995658 0.010176 0.143891
O O6 0.028209 0.075560 0.225959
O O7 0.093360 0.965197 0.202136
O O8 0.973831 0.963935 0.238149
O O9 0.126471 0.285098 0.897018
O O10 0.082988 0.171935 0.894161
O O11 0.115019 0.231519 0.808498
O O12 0.041984 0.375000 0.375000
O O13 0.010520 0.307962 0.296271
O O14 0.690799 0.866032 0.034382
O O15 0.821136 0.836947 0.035360
O O16 0.625000 0.391966 0.125000
O O17 0.125000 0.125000 0.489953
#
# Coordination Sequence:
#
# PCOD9514339 Si02
#       8
#    32  32  32  32  32  32  16  32
#     4  10  21  39  68 101 134 176 228 289 348 420
#     4  10  22  44  67  98 135 186 225 289 360 416
#     4  10  21  38  66  96 131 177 229 280 345 413
#     4   9  22  43  68  92 139 180 232 286 351 425
#     4  11  26  46  66 102 139 180 240 294 351 430
#     4  12  26  43  70 104 146 183 236 296 360 430
#     4  12  26  42  67  98 134 182 231 296 344 416
#     4  10  18  37  66  97 136 174 226 275 342 427
#
# _framework density 22.389666999999999
#
# number of rings (size 3 to 8) (size 9 to 14) (size 15 to 20)
#    0.000    1.600    2.000    2.400    9.333    1.600 
#    0.000    2.333    0.000    0.000    0.000    0.000 
#    0.000    0.000    0.000    0.000    0.000    0.000 
#
# Total GULP energy -335341.861842 kJ/mol
# GULP energy per Si atom -5589.031031 kJ/mol
# Density = 2.233871 g / cm^3
# Si number density = 22.389667 Si / 1000 Ang^3
#
#
#
# Elastic Constant Matrix: (Units=GPa)
#
#
# Indices 1 2 3 4 5 6 
#
# 1 95.4236 20.5673 50.5724 0.0000 0.0000 0.0000
# 2 20.5673 48.8880 6.6133 0.0000 0.0000 0.0000
# 3 50.5724 6.6133 80.9534 0.0000 0.0000 0.0000
# 4 0.0000 0.0000 0.0000-1633.2323 0.0000 0.0000
# 5 0.0000 0.0000 0.0000 0.0000 -49.7672 0.0000
# 6 0.0000 0.0000 0.0000 0.0000 0.0000 22.4702
#
#
#
# Elastic Compliance Matrix: (Units=1/GPa)
#
#
# Indices 1 2 3 4 5 6 
#
# 1 0.017169 -0.005837 -0.010249 0.000000 0.000000 0.000000
# 2 -0.005837 0.022668 0.001794 0.000000 0.000000 0.000000
# 3 -0.010249 0.001794 0.018609 0.000000 0.000000 0.000000
# 4 0.000000 0.000000 0.000000 -0.000612 0.000000 0.000000
# 5 0.000000 0.000000 0.000000 0.000000 -0.020094 0.000000
# 6 0.000000 0.000000 0.000000 0.000000 0.000000 0.044503
#
#
# Mechanical properties :
#
#
# Convention : Reuss Voigt Hill
#
# Bulk Modulus (GPa) = 33.48591 42.30788 37.89689
# Shear Modulus (GPa) = 41.39734 -322.27172 -140.43719
#
# Velocity S-wave (km/s) = 4.30461 -12.01042 -7.92845
# Velocity P-wave (km/s) = 6.30037 13.16801 8.17624
#
# Compressibility (1/GPa) = 0.02986331
#
# Stress axis : x y z
#
# Youngs Moduli (GPa) = 58.24309 44.11563 53.73772
#
# Poissons Ratio (x) = 0.25749 0.55076
# Poissons Ratio (y) = 0.33995 -0.09643
# Poissons Ratio (z) = 0.59694 -0.07917
#
# Static dielectric constant tensor:
#      x y z
#    x 4.954490 0.000000 0.000000 
#    y 0.000000 1.799470 0.000000 
#    z 0.000000 0.000000 1.854400 
# 
# From -- ./inp_files/60546.got.cif
#   From: 2010.05.17/outbox.cif.g08.bks.cpg/sg70_31_cif.got.tgz:60546.got - 2010.06.03 15:57:51.
