data_PCOD9514530
_publ_section_title
;
Structure prediction by ZEFSAII (Michael W. Deem and Ramdas Pophale) SiO2 
 PCOD9514530
Probable space group: F D D D
;
_chemical_formula_sum "Si O2"
_cell_formula_units_Z 176
_cell_length_a 16.978681
_cell_length_b 17.513341
_cell_length_c 30.089887
_cell_angle_alpha 90.000000
_cell_angle_beta 90.000000
_cell_angle_gamma 90.000000
_cell_volume 8947.331110
_symmetry_space_group_name_H-M "F D D D"
_symmetry_group_IT_number 70
_space_group.IT_coordinate_system_code '2'
_symmetry_cell_setting 'orthorhombic'
loop_
_space_group_symop_operation_xyz
x,y,z
1/4-x,1/4-y,z
x,1/4-y,1/4-z
1/4-x,y,1/4-z
-x,-y,-z
3/4+x,3/4+y,-z
-x,3/4+y,3/4+z
3/4+x,-y,3/4+z
x,1/2+y,1/2+z
1/4-x,3/4-y,1/2+z
x,3/4-y,3/4-z
1/4-x,1/2+y,3/4-z
-x,1/2-y,1/2-z
3/4+x,1/4+y,1/2-z
-x,1/4+y,1/4+z
3/4+x,1/2-y,1/4+z
1/2+x,y,1/2+z
3/4-x,1/4-y,1/2+z
1/2+x,1/4-y,3/4-z
3/4-x,y,3/4-z
1/2-x,-y,1/2-z
1/4+x,3/4+y,1/2-z
1/2-x,3/4+y,1/4+z
1/4+x,-y,1/4+z
1/2+x,1/2+y,z
3/4-x,3/4-y,z
1/2+x,3/4-y,1/4-z
3/4-x,1/2+y,1/4-z
1/2-x,1/2-y,-z
1/4+x,1/4+y,-z
1/2-x,1/4+y,3/4+z
1/4+x,1/2-y,3/4+z
loop_
_atom_site_type_symbol
_atom_site_label
_atom_site_fract_x
_atom_site_fract_y
_atom_site_fract_z
Si Si1 0.875000 0.375000 0.783095
Si Si2 0.299442 0.065982 0.188587
Si Si3 0.751610 0.075231 0.959424
Si Si4 0.608393 0.774343 0.408602
Si Si5 0.474752 0.241552 0.302012
Si Si6 0.388735 0.788980 0.268600
O O1 0.802182 0.344347 0.752711
O O2 0.843288 0.447405 0.809787
O O3 0.326736 0.154517 0.188708
O O4 0.335440 0.039201 0.142012
O O5 0.205580 0.052868 0.193628
O O6 0.332025 0.016694 0.229420
O O7 0.795131 0.152440 0.944453
O O8 0.687310 0.050394 0.923823
O O9 0.811944 0.005550 0.964632
O O10 0.700023 0.763035 0.418446
O O11 0.500000 0.250000 0.250000
O O12 0.375000 0.875000 0.251139
#
# Coordination Sequence:
#
# PCOD9514530 Si02
#       6
#    16  32  32  32  32  32
#     4  10  20  34  62  99 124 162 206 266 312 393
#     4  10  24  39  61  89 128 167 209 265 327 379
#     4  11  20  34  63  90 122 162 212 262 309 387
#     4  11  20  40  63  93 125 167 213 265 326 386
#     4  10  19  35  62  96 121 163 213 254 325 390
#     4  11  23  40  60  90 124 170 218 258 317 387
#
# _framework density 19.670670000000001
#
# number of rings (size 3 to 8) (size 9 to 14) (size 15 to 20)
#    0.000    1.455    5.455    2.182    0.000    2.182 
#    0.000    0.000    0.000   15.273    0.000    0.000 
#    0.000    0.000    0.000    0.000    0.000    0.000 
#
# Total GULP energy -245284.600495 kJ/mol
# GULP energy per Si atom -5574.650011 kJ/mol
# Density = 1.962590 g / cm^3
# Si number density = 19.670670 Si / 1000 Ang^3
#
#
#
# Elastic Constant Matrix: (Units=GPa)
#
#
# Indices 1 2 3 4 5 6 
#
# 1 83.4161 27.5209 7.3829 0.0000 0.0000 0.0000
# 2 27.5209 121.2627 7.0574 0.0000 0.0000 0.0000
# 3 7.3829 7.0574 42.3764 0.0000 0.0000 0.0000
# 4 0.0000 0.0000 0.0000 -95.9468 0.0000 0.0000
# 5 0.0000 0.0000 0.0000 0.0000 21.5615 0.0000
# 6 0.0000 0.0000 0.0000 0.0000 0.0000 42.4692
#
#
#
# Elastic Compliance Matrix: (Units=1/GPa)
#
#
# Indices 1 2 3 4 5 6 
#
# 1 0.013094 -0.002867 -0.001804 0.000000 0.000000 0.000000
# 2 -0.002867 0.008955 -0.000992 0.000000 0.000000 0.000000
# 3 -0.001804 -0.000992 0.024077 0.000000 0.000000 0.000000
# 4 0.000000 0.000000 0.000000 -0.010422 0.000000 0.000000
# 5 0.000000 0.000000 0.000000 0.000000 0.046379 0.000000
# 6 0.000000 0.000000 0.000000 0.000000 0.000000 0.023546
#
#
# Mechanical properties :
#
#
# Convention : Reuss Voigt Hill
#
# Bulk Modulus (GPa) = 28.73461 36.77530 32.75496
# Shear Modulus (GPa) = 38.89417 7.28972 23.09195
#
# Velocity S-wave (km/s) = 4.45147 1.92716 3.42998
# Velocity P-wave (km/s) = 6.40784 4.86703 5.68983
#
# Compressibility (1/GPa) = 0.03480123
#
# Stress axis : x y z
#
# Youngs Moduli (GPa) = 76.37373 111.67100 41.53257
#
# Poissons Ratio (x) = 0.32012 0.07491
# Poissons Ratio (y) = 0.21894 0.04120
# Poissons Ratio (z) = 0.13776 0.11077
#
# Static dielectric constant tensor:
#      x y z
#    x 1.723570 0.000000 0.000000 
#    y 0.000000 2.031300 0.000000 
#    z 0.000000 0.000000 1.748540 
# 
# From -- ./inp_files/59450.got.cif
#   From: 2010.05.17/outbox.cif.g08.bks.cpg/sg70_30_cif.got.tgz:59450.got - 2010.06.03 15:57:51.
