data_PCOD9514975
_publ_section_title
;
Structure prediction by ZEFSAII (Michael W. Deem and Ramdas Pophale) SiO2 
 PCOD9514975
Probable space group: F D D D
;
_chemical_formula_sum "Si O2"
_cell_formula_units_Z 192
_cell_length_a 32.432949
_cell_length_b 11.730824
_cell_length_c 22.533297
_cell_angle_alpha 90.000000
_cell_angle_beta 90.000000
_cell_angle_gamma 90.000000
_cell_volume 8573.135722
_symmetry_space_group_name_H-M "F D D D"
_symmetry_group_IT_number 70
_space_group.IT_coordinate_system_code '2'
_symmetry_cell_setting 'orthorhombic'
loop_
_space_group_symop_operation_xyz
x,y,z
1/4-x,1/4-y,z
x,1/4-y,1/4-z
1/4-x,y,1/4-z
-x,-y,-z
3/4+x,3/4+y,-z
-x,3/4+y,3/4+z
3/4+x,-y,3/4+z
x,1/2+y,1/2+z
1/4-x,3/4-y,1/2+z
x,3/4-y,3/4-z
1/4-x,1/2+y,3/4-z
-x,1/2-y,1/2-z
3/4+x,1/4+y,1/2-z
-x,1/4+y,1/4+z
3/4+x,1/2-y,1/4+z
1/2+x,y,1/2+z
3/4-x,1/4-y,1/2+z
1/2+x,1/4-y,3/4-z
3/4-x,y,3/4-z
1/2-x,-y,1/2-z
1/4+x,3/4+y,1/2-z
1/2-x,3/4+y,1/4+z
1/4+x,-y,1/4+z
1/2+x,1/2+y,z
3/4-x,3/4-y,z
1/2+x,3/4-y,1/4-z
3/4-x,1/2+y,1/4-z
1/2-x,1/2-y,-z
1/4+x,1/4+y,-z
1/2-x,1/4+y,3/4+z
1/4+x,1/2-y,3/4+z
loop_
_atom_site_type_symbol
_atom_site_label
_atom_site_fract_x
_atom_site_fract_y
_atom_site_fract_z
Si Si1 0.513595 0.569998 0.916160
Si Si2 0.355263 0.125000 0.625000
Si Si3 0.808691 0.660024 0.997967
Si Si4 0.542287 0.943884 0.774071
Si Si5 0.136754 0.991787 0.059213
Si Si6 0.787848 0.843625 0.219103
Si Si7 0.375000 0.375000 0.579445
O O1 0.541820 0.472213 0.944041
O O2 0.529245 0.686063 0.946895
O O3 0.518843 0.582225 0.846643
O O4 0.467966 0.545869 0.941652
O O5 0.324135 0.109784 0.569853
O O6 0.377892 0.250912 0.614940
O O7 0.799513 0.529205 0.005525
O O8 0.855983 0.682074 0.986520
O O9 0.567266 0.969876 0.713495
O O10 0.500741 0.872549 0.761079
O O11 0.125000 0.950837 0.125000
O O12 0.125000 0.125000 0.056590
O O13 0.833356 0.894609 0.208781
#
# Coordination Sequence:
#
# PCOD9514975 Si02
#       7
#    32  16  32  32  32  32  16
#     4  10  20  38  60  99 139 179 234 301 360 431
#     4  12  28  48  78 109 148 198 247 316 374 438
#     4  10  21  36  62  94 140 183 235 291 366 434
#     4  11  24  43  67 102 140 190 246 305 369 442
#     4  11  22  37  60  95 143 192 238 298 369 446
#     4  11  24  41  68  98 136 186 242 300 370 436
#     4  12  28  46  74 107 143 190 252 306 372 450
#
# _framework density 22.39554
#
# number of rings (size 3 to 8) (size 9 to 14) (size 15 to 20)
#    0.000    1.167    3.333    2.500    5.833    0.667 
#    0.000    0.000    0.000    0.000    0.000    0.000 
#    0.000    0.000    0.000    0.000    0.000    0.000 
#
# Total GULP energy -267879.585938 kJ/mol
# GULP energy per Si atom -5580.824707 kJ/mol
# Density = 2.234457 g / cm^3
# Si number density = 22.395540 Si / 1000 Ang^3
#
#
#
# Elastic Constant Matrix: (Units=GPa)
#
#
# Indices 1 2 3 4 5 6 
#
# 1 139.5367 9.9281 27.5009 0.0000 0.0000 0.0000
# 2 9.9281 79.0367 -34.0108 0.0000 0.0000 0.0000
# 3 27.5009 -34.0108 49.5809 0.0000 0.0000 0.0000
# 4 0.0000 0.0000 0.0000 6.0006 0.0000 0.0000
# 5 0.0000 0.0000 0.0000 0.0000 36.9764 0.0000
# 6 0.0000 0.0000 0.0000 0.0000 0.0000 24.1286
#
#
#
# Elastic Compliance Matrix: (Units=1/GPa)
#
#
# Indices 1 2 3 4 5 6 
#
# 1 0.009141 -0.004725 -0.008311 0.000000 0.000000 0.000000
# 2 -0.004725 0.020393 0.016610 0.000000 0.000000 0.000000
# 3 -0.008311 0.016610 0.036172 0.000000 0.000000 0.000000
# 4 0.000000 0.000000 0.000000 0.166649 0.000000 0.000000
# 5 0.000000 0.000000 0.000000 0.000000 0.027044 0.000000
# 6 0.000000 0.000000 0.000000 0.000000 0.000000 0.041445
#
#
# Mechanical properties :
#
#
# Convention : Reuss Voigt Hill
#
# Bulk Modulus (GPa) = 13.72595 30.55450 22.14022
# Shear Modulus (GPa) = 15.72422 31.07019 23.39721
#
# Velocity S-wave (km/s) = 2.65262 3.72874 3.23573
# Velocity P-wave (km/s) = 3.94005 5.67545 4.88543
#
# Compressibility (1/GPa) = 0.07285473
#
# Stress axis : x y z
#
# Youngs Moduli (GPa) = 109.40086 49.03592 27.64534
#
# Poissons Ratio (x) = 0.23167 0.22976
# Poissons Ratio (y) = 0.51687 -0.45918
# Poissons Ratio (z) = 0.90922 -0.81447
#
# Static dielectric constant tensor:
#      x y z
#    x 1.877330 0.000000 0.000000 
#    y 0.000000 1.851760 0.000000 
#    z 0.000000 0.000000 1.849070 
# 
# From -- ./inp_files/62244.got.cif
#   From: 2010.05.17/outbox.cif.g08.bks.cpg/sg70_32_cif.got.tgz:62244.got - 2010.06.03 15:57:51.
