data_PCOD9514100
_publ_section_title
;
Structure prediction by ZEFSAII (Michael W. Deem and Ramdas Pophale) SiO2 
 PCOD9514100
Probable space group: F D D D
;
_chemical_formula_sum "Si O2"
_cell_formula_units_Z 216
_cell_length_a 27.308393
_cell_length_b 25.021921
_cell_length_c 14.112742
_cell_angle_alpha 90.000000
_cell_angle_beta 90.000000
_cell_angle_gamma 90.000000
_cell_volume 9643.355893
_symmetry_space_group_name_H-M "F D D D"
_symmetry_group_IT_number 70
_space_group.IT_coordinate_system_code '2'
_symmetry_cell_setting 'orthorhombic'
loop_
_space_group_symop_operation_xyz
x,y,z
1/4-x,1/4-y,z
x,1/4-y,1/4-z
1/4-x,y,1/4-z
-x,-y,-z
3/4+x,3/4+y,-z
-x,3/4+y,3/4+z
3/4+x,-y,3/4+z
x,1/2+y,1/2+z
1/4-x,3/4-y,1/2+z
x,3/4-y,3/4-z
1/4-x,1/2+y,3/4-z
-x,1/2-y,1/2-z
3/4+x,1/4+y,1/2-z
-x,1/4+y,1/4+z
3/4+x,1/2-y,1/4+z
1/2+x,y,1/2+z
3/4-x,1/4-y,1/2+z
1/2+x,1/4-y,3/4-z
3/4-x,y,3/4-z
1/2-x,-y,1/2-z
1/4+x,3/4+y,1/2-z
1/2-x,3/4+y,1/4+z
1/4+x,-y,1/4+z
1/2+x,1/2+y,z
3/4-x,3/4-y,z
1/2+x,3/4-y,1/4-z
3/4-x,1/2+y,1/4-z
1/2-x,1/2-y,-z
1/4+x,1/4+y,-z
1/2-x,1/4+y,3/4+z
1/4+x,1/2-y,3/4+z
loop_
_atom_site_type_symbol
_atom_site_label
_atom_site_fract_x
_atom_site_fract_y
_atom_site_fract_z
Si Si1 0.375000 0.375000 0.875000
Si Si2 0.791958 0.445008 0.297114
Si Si3 0.824426 0.897994 0.269010
Si Si4 0.781671 0.117854 0.238277
Si Si5 0.670060 0.773642 0.197031
Si Si6 0.099128 0.765892 0.221109
Si Si7 0.789721 0.625000 0.125000
Si Si8 0.658026 0.986522 0.855307
O O1 0.408765 0.410916 0.940813
O O2 0.794131 0.481264 0.394325
O O3 0.748673 0.401147 0.298873
O O4 0.800566 0.483113 0.206353
O O5 0.824683 0.875000 0.375000
O O6 0.875000 0.875000 0.224644
O O7 0.773368 0.883544 0.220223
O O8 0.819801 0.961240 0.285835
O O9 0.778709 0.125000 0.125000
O O10 0.806040 0.169607 0.284414
O O11 0.814371 0.064882 0.251249
O O12 0.625000 0.780409 0.125000
O O13 0.642113 0.758164 0.294027
O O14 0.125000 0.781913 0.125000
O O15 0.142560 0.746080 0.291123
O O16 0.825676 0.675732 0.127982
#
# Coordination Sequence:
#
# PCOD9514100 Si02
#       8
#     8  32  32  32  32  32  16  32
#     4  10  16  40  68  96 130 184 232 276 336 432
#     4  10  22  42  71  97 141 184 229 288 351 424
#     4  10  22  46  66  90 138 180 223 294 341 407
#     4  11  22  39  71 101 134 174 233 285 351 424
#     4  10  20  42  69  97 138 179 225 287 356 415
#     4  12  24  44  70  99 138 187 238 290 357 419
#     4  11  24  41  70 104 150 174 235 296 351 426
#     4  11  22  43  66 102 141 179 229 290 350 415
#
# _framework density 22.398841999999998
#
# number of rings (size 3 to 8) (size 9 to 14) (size 15 to 20)
#    0.000    1.333    5.185    2.222    0.000    2.370 
#    1.333    4.444    0.000    0.000    0.000    0.000 
#    0.000    0.000    0.000    0.000    0.000    0.000 
#
# Total GULP energy -300938.368515 kJ/mol
# GULP energy per Si atom -5572.932750 kJ/mol
# Density = 2.234786 g / cm^3
# Si number density = 22.398842 Si / 1000 Ang^3
#
#
#
# Elastic Constant Matrix: (Units=GPa)
#
#
# Indices 1 2 3 4 5 6 
#
# 1 69.7353 16.0878 15.0135 0.0000 0.0000 0.0000
# 2 16.0878 129.4343 16.8813 0.0000 0.0000 0.0000
# 3 15.0135 16.8813 72.0401 0.0000 0.0000 0.0000
# 4 0.0000 0.0000 0.0000 11.5887 0.0000 0.0000
# 5 0.0000 0.0000 0.0000 0.0000 9.8594 0.0000
# 6 0.0000 0.0000 0.0000 0.0000 0.0000 26.5417
#
#
#
# Elastic Compliance Matrix: (Units=1/GPa)
#
#
# Indices 1 2 3 4 5 6 
#
# 1 0.015303 -0.001533 -0.002830 0.000000 0.000000 0.000000
# 2 -0.001533 0.008123 -0.001584 0.000000 0.000000 0.000000
# 3 -0.002830 -0.001584 0.014842 0.000000 0.000000 0.000000
# 4 0.000000 0.000000 0.000000 0.086291 0.000000 0.000000
# 5 0.000000 0.000000 0.000000 0.000000 0.101426 0.000000
# 6 0.000000 0.000000 0.000000 0.000000 0.000000 0.037677
#
#
# Mechanical properties :
#
#
# Convention : Reuss Voigt Hill
#
# Bulk Modulus (GPa) = 37.91587 40.79720 39.35654
# Shear Modulus (GPa) = 17.58419 24.47978 21.03199
#
# Velocity S-wave (km/s) = 2.80491 3.30950 3.06760
# Velocity P-wave (km/s) = 5.23969 5.73212 5.49143
#
# Compressibility (1/GPa) = 0.02637418
#
# Stress axis : x y z
#
# Youngs Moduli (GPa) = 65.34725 123.10643 67.37578
#
# Poissons Ratio (x) = 0.18871 0.19067
# Poissons Ratio (y) = 0.10017 0.10672
# Poissons Ratio (z) = 0.18493 0.19500
#
# Static dielectric constant tensor:
#      x y z
#    x 1.919730 0.000000 0.000000 
#    y 0.000000 1.860430 0.000000 
#    z 0.000000 0.000000 1.849780 
# 
# From -- ./inp_files/31286.got.cif
#   From: 2010.05.17/outbox.cif.g08.bks.cpg/sg70_16_cif.got.tgz:31286.got - 2010.06.03 15:57:51.
