data_PCOD9514711
_publ_section_title
;
Structure prediction by ZEFSAII (Michael W. Deem and Ramdas Pophale) SiO2 
 PCOD9514711
Probable space group: F D D D
;
_chemical_formula_sum "Si O2"
_cell_formula_units_Z 152
_cell_length_a 28.471557
_cell_length_b 19.366446
_cell_length_c 14.452527
_cell_angle_alpha 90.000000
_cell_angle_beta 90.000000
_cell_angle_gamma 90.000000
_cell_volume 7969.020358
_symmetry_space_group_name_H-M "F D D D"
_symmetry_group_IT_number 70
_space_group.IT_coordinate_system_code '2'
_symmetry_cell_setting 'orthorhombic'
loop_
_space_group_symop_operation_xyz
x,y,z
1/4-x,1/4-y,z
x,1/4-y,1/4-z
1/4-x,y,1/4-z
-x,-y,-z
3/4+x,3/4+y,-z
-x,3/4+y,3/4+z
3/4+x,-y,3/4+z
x,1/2+y,1/2+z
1/4-x,3/4-y,1/2+z
x,3/4-y,3/4-z
1/4-x,1/2+y,3/4-z
-x,1/2-y,1/2-z
3/4+x,1/4+y,1/2-z
-x,1/4+y,1/4+z
3/4+x,1/2-y,1/4+z
1/2+x,y,1/2+z
3/4-x,1/4-y,1/2+z
1/2+x,1/4-y,3/4-z
3/4-x,y,3/4-z
1/2-x,-y,1/2-z
1/4+x,3/4+y,1/2-z
1/2-x,3/4+y,1/4+z
1/4+x,-y,1/4+z
1/2+x,1/2+y,z
3/4-x,3/4-y,z
1/2+x,3/4-y,1/4-z
3/4-x,1/2+y,1/4-z
1/2-x,1/2-y,-z
1/4+x,1/4+y,-z
1/2-x,1/4+y,3/4+z
1/4+x,1/2-y,3/4+z
loop_
_atom_site_type_symbol
_atom_site_label
_atom_site_fract_x
_atom_site_fract_y
_atom_site_fract_z
Si Si1 0.125000 0.625000 0.625000
Si Si2 0.991469 0.875000 0.375000
Si Si3 0.857743 0.202085 0.665779
Si Si4 0.529028 0.484685 0.702693
Si Si5 0.669447 0.009973 0.497585
Si Si6 0.184797 0.393199 0.208030
O O1 0.154644 0.573806 0.560157
O O2 0.962435 0.807981 0.402968
O O3 0.025539 0.856720 0.288693
O O4 0.851088 0.125000 0.625000
O O5 0.808865 0.231088 0.703369
O O6 0.884552 0.247862 0.589326
O O7 0.892794 0.189827 0.752093
O O8 0.473187 0.480429 0.716174
O O9 0.545551 0.423726 0.635856
O O10 0.668929 0.936188 0.550350
#
# Coordination Sequence:
#
# PCOD9514711 Si02
#       6
#     8  16  32  32  32  32
#     4  12  28  44  62  92 134 174 206 272 328 376
#     4  10  20  38  60  96 132 162 205 277 326 376
#     4  10  21  40  64  95 123 165 221 264 307 390
#     4  11  22  38  71  92 123 174 219 261 328 393
#     4  10  25  44  61  92 132 166 216 273 326 380
#     4  10  19  42  66  87 128 173 209 264 327 383
#
# _framework density 19.073861999999998
#
# number of rings (size 3 to 8) (size 9 to 14) (size 15 to 20)
#    0.000    1.684    5.263    1.263    7.368    3.368 
#    0.000    3.158    0.000    0.000    0.000    0.000 
#    0.000    0.000    0.000    0.000    0.000    0.000 
#
# Total GULP energy -212184.341499 kJ/mol
# GULP energy per Si atom -5583.798461 kJ/mol
# Density = 1.903045 g / cm^3
# Si number density = 19.073862 Si / 1000 Ang^3
#
#
#
# Elastic Constant Matrix: (Units=GPa)
#
#
# Indices 1 2 3 4 5 6 
#
# 1 74.7226 44.0296 65.5448 0.0000 0.0000 0.0000
# 2 44.0296 102.8579 61.2190 0.0000 0.0000 0.0000
# 3 65.5448 61.2190 93.1062 0.0000 0.0000 0.0000
# 4 0.0000 0.0000 0.0000 27.5891 0.0000 0.0000
# 5 0.0000 0.0000 0.0000 0.0000 93.3084 0.0000
# 6 0.0000 0.0000 0.0000 0.0000 0.0000 -81.3356
#
#
#
# Elastic Compliance Matrix: (Units=1/GPa)
#
#
# Indices 1 2 3 4 5 6 
#
# 1 0.035006 -0.000522 -0.024300 0.000000 0.000000 0.000000
# 2 -0.000522 0.015981 -0.010141 0.000000 0.000000 0.000000
# 3 -0.024300 -0.010141 0.034515 0.000000 0.000000 0.000000
# 4 0.000000 0.000000 0.000000 0.036246 0.000000 0.000000
# 5 0.000000 0.000000 0.000000 0.000000 0.010717 0.000000
# 6 0.000000 0.000000 0.000000 0.000000 0.000000 -0.012295
#
#
# Mechanical properties :
#
#
# Convention : Reuss Voigt Hill
#
# Bulk Modulus (GPa) = 64.19865 68.03040 66.11452
# Shear Modulus (GPa) = 25.60323 14.57193 20.08758
#
# Velocity S-wave (km/s) = 3.66774 2.76701 3.24874
# Velocity P-wave (km/s) = 7.18801 6.77884 6.98642
#
# Compressibility (1/GPa) = 0.01557665
#
# Stress axis : x y z
#
# Youngs Moduli (GPa) = 28.56659 62.57483 28.97289
#
# Poissons Ratio (x) = 0.03264 0.70406
# Poissons Ratio (y) = 0.01490 0.29380
# Poissons Ratio (z) = 0.69418 0.63454
#
# Static dielectric constant tensor:
#      x y z
#    x 1.674390 0.000000 0.000000 
#    y 0.000000 1.655950 0.000000 
#    z 0.000000 0.000000 1.660180 
# 
# From -- ./inp_files/27640.got.cif
#   From: 2010.05.17/outbox.cif.g08.bks.cpg/sg70_14_cif.got.tgz:27640.got - 2010.06.03 15:57:51.
