data_PCOD9514499
_publ_section_title
;
Structure prediction by ZEFSAII (Michael W. Deem and Ramdas Pophale) SiO2 
 PCOD9514499
Probable space group: F D D D
;
_chemical_formula_sum "Si O2"
_cell_formula_units_Z 120
_cell_length_a 10.726452
_cell_length_b 16.532636
_cell_length_c 30.690467
_cell_angle_alpha 90.000000
_cell_angle_beta 90.000000
_cell_angle_gamma 90.000000
_cell_volume 5442.540814
_symmetry_space_group_name_H-M "F D D D"
_symmetry_group_IT_number 70
_space_group.IT_coordinate_system_code '2'
_symmetry_cell_setting 'orthorhombic'
loop_
_space_group_symop_operation_xyz
x,y,z
1/4-x,1/4-y,z
x,1/4-y,1/4-z
1/4-x,y,1/4-z
-x,-y,-z
3/4+x,3/4+y,-z
-x,3/4+y,3/4+z
3/4+x,-y,3/4+z
x,1/2+y,1/2+z
1/4-x,3/4-y,1/2+z
x,3/4-y,3/4-z
1/4-x,1/2+y,3/4-z
-x,1/2-y,1/2-z
3/4+x,1/4+y,1/2-z
-x,1/4+y,1/4+z
3/4+x,1/2-y,1/4+z
1/2+x,y,1/2+z
3/4-x,1/4-y,1/2+z
1/2+x,1/4-y,3/4-z
3/4-x,y,3/4-z
1/2-x,-y,1/2-z
1/4+x,3/4+y,1/2-z
1/2-x,3/4+y,1/4+z
1/4+x,-y,1/4+z
1/2+x,1/2+y,z
3/4-x,3/4-y,z
1/2+x,3/4-y,1/4-z
3/4-x,1/2+y,1/4-z
1/2-x,1/2-y,-z
1/4+x,1/4+y,-z
1/2-x,1/4+y,3/4+z
1/4+x,1/2-y,3/4+z
loop_
_atom_site_type_symbol
_atom_site_label
_atom_site_fract_x
_atom_site_fract_y
_atom_site_fract_z
Si Si1 0.925771 0.587458 0.469290
Si Si2 0.470941 0.306506 0.182492
Si Si3 0.375000 0.875000 0.375000
Si Si4 0.514987 0.305147 0.954553
Si Si5 0.875000 0.875000 0.653010
O O1 0.852898 0.666414 0.450434
O O2 0.826973 0.514901 0.472691
O O3 0.981561 0.616600 0.514924
O O4 0.034450 0.573298 0.433984
O O5 0.375000 0.375000 0.199849
O O6 0.342999 0.524857 0.198496
O O7 0.455512 0.320015 0.130498
O O8 0.460557 0.927221 0.343069
#
# Coordination Sequence:
#
# PCOD9514499 Si02
#       5
#    32  32   8  32  16
#     4  11  22  40  64  96 125 173 212 267 324 390
#     4   8  19  37  63  88 124 164 212 259 312 384
#     4  12  26  40  64  92 138 160 210 276 316 384
#     4  11  24  41  63  93 132 167 216 266 327 385
#     4  10  19  34  64  89 126 161 218 264 319 388
#
# _framework density 22.048525000000001
#
# number of rings (size 3 to 8) (size 9 to 14) (size 15 to 20)
#    0.800    1.067    0.000    4.000    0.000    6.400 
#    0.000    0.000    0.000    0.000    0.000    0.000 
#    0.000    0.000    0.000    0.000    0.000    0.000 
#
# Total GULP energy -167347.843801 kJ/mol
# GULP energy per Si atom -5578.261460 kJ/mol
# Density = 2.199834 g / cm^3
# Si number density = 22.048525 Si / 1000 Ang^3
#
#
#
# Elastic Constant Matrix: (Units=GPa)
#
#
# Indices 1 2 3 4 5 6 
#
# 1 71.7309 16.4984 26.2646 0.0000 0.0000 0.0000
# 2 16.4984 54.5194 32.5690 0.0000 0.0000 0.0000
# 3 26.2646 32.5690 123.4625 0.0000 0.0000 0.0000
# 4 0.0000 0.0000 0.0000 24.8396 0.0000 0.0000
# 5 0.0000 0.0000 0.0000 0.0000 -3.5532 0.0000
# 6 0.0000 0.0000 0.0000 0.0000 0.0000 30.2086
#
#
#
# Elastic Compliance Matrix: (Units=1/GPa)
#
#
# Indices 1 2 3 4 5 6 
#
# 1 0.015589 -0.003248 -0.002459 0.000000 0.000000 0.000000
# 2 -0.003248 0.022450 -0.005231 0.000000 0.000000 0.000000
# 3 -0.002459 -0.005231 0.010003 0.000000 0.000000 0.000000
# 4 0.000000 0.000000 0.000000 0.040258 0.000000 0.000000
# 5 0.000000 0.000000 0.000000 0.000000 -0.281439 0.000000
# 6 0.000000 0.000000 0.000000 0.000000 0.000000 0.033103
#
#
# Mechanical properties :
#
#
# Convention : Reuss Voigt Hill
#
# Bulk Modulus (GPa) = 38.22057 44.48632 41.35344
# Shear Modulus (GPa) = -38.62877 21.92439 -8.35219
#
# Velocity S-wave (km/s) = -4.19022 3.15678 -1.94841
# Velocity P-wave (km/s) = 2.45727 5.78856 3.70602
#
# Compressibility (1/GPa) = 0.02616392
#
# Stress axis : x y z
#
# Youngs Moduli (GPa) = 64.14944 44.54326 99.97198
#
# Poissons Ratio (x) = 0.14468 0.24587
# Poissons Ratio (y) = 0.20837 0.52298
# Poissons Ratio (z) = 0.15777 0.23302
#
# Static dielectric constant tensor:
#      x y z
#    x 1.861310 0.000000 0.000000 
#    y 0.000000 1.853480 0.000000 
#    z 0.000000 0.000000 1.803530 
# 
# From -- ./inp_files/41944.got.cif
#   From: 2010.05.17/outbox.cif.g08.bks.cpg/sg70_21_cif.got.tgz:41944.got - 2010.06.03 15:57:51.
