data_PCOD9514120
_publ_section_title
;
Structure prediction by ZEFSAII (Michael W. Deem and Ramdas Pophale) SiO2 
 PCOD9514120
Probable space group: F D D D
;
_chemical_formula_sum "Si O2"
_cell_formula_units_Z 240
_cell_length_a 19.950597
_cell_length_b 22.569892
_cell_length_c 32.701014
_cell_angle_alpha 90.000000
_cell_angle_beta 90.000000
_cell_angle_gamma 90.000000
_cell_volume 14724.704789
_symmetry_space_group_name_H-M "F D D D"
_symmetry_group_IT_number 70
_space_group.IT_coordinate_system_code '2'
_symmetry_cell_setting 'orthorhombic'
loop_
_space_group_symop_operation_xyz
x,y,z
1/4-x,1/4-y,z
x,1/4-y,1/4-z
1/4-x,y,1/4-z
-x,-y,-z
3/4+x,3/4+y,-z
-x,3/4+y,3/4+z
3/4+x,-y,3/4+z
x,1/2+y,1/2+z
1/4-x,3/4-y,1/2+z
x,3/4-y,3/4-z
1/4-x,1/2+y,3/4-z
-x,1/2-y,1/2-z
3/4+x,1/4+y,1/2-z
-x,1/4+y,1/4+z
3/4+x,1/2-y,1/4+z
1/2+x,y,1/2+z
3/4-x,1/4-y,1/2+z
1/2+x,1/4-y,3/4-z
3/4-x,y,3/4-z
1/2-x,-y,1/2-z
1/4+x,3/4+y,1/2-z
1/2-x,3/4+y,1/4+z
1/4+x,-y,1/4+z
1/2+x,1/2+y,z
3/4-x,3/4-y,z
1/2+x,3/4-y,1/4-z
3/4-x,1/2+y,1/4-z
1/2-x,1/2-y,-z
1/4+x,1/4+y,-z
1/2-x,1/4+y,3/4+z
1/4+x,1/2-y,3/4+z
loop_
_atom_site_type_symbol
_atom_site_label
_atom_site_fract_x
_atom_site_fract_y
_atom_site_fract_z
Si Si1 0.291678 0.209057 0.191956
Si Si2 0.310334 0.838260 0.562891
Si Si3 0.839059 0.610461 0.416941
Si Si4 0.859776 0.781593 0.828917
Si Si5 0.493016 0.705916 0.198309
Si Si6 0.560089 0.090450 0.339713
Si Si7 0.945732 0.125000 0.125000
Si Si8 0.559155 0.363765 0.016115
O O1 0.212020 0.193606 0.185528
O O2 0.303607 0.276386 0.180565
O O3 0.333535 0.167261 0.160687
O O4 0.307229 0.194159 0.238458
O O5 0.375000 0.875000 0.547216
O O6 0.290366 0.771217 0.549311
O O7 0.316873 0.832284 0.611534
O O8 0.248093 0.878912 0.550040
O O9 0.875000 0.631213 0.375000
O O10 0.849218 0.539069 0.417676
O O11 0.760453 0.623241 0.416423
O O12 0.873222 0.631363 0.458548
O O13 0.875000 0.803225 0.875000
O O14 0.925471 0.791542 0.800862
O O15 0.479559 0.675073 0.154221
O O16 0.459446 0.665537 0.233262
O O17 0.625000 0.125000 0.324624
#
# Coordination Sequence:
#
# PCOD9514120 Si02
#       8
#    32  32  32  32  32  32  16  32
#     4  10  21  32  48  80 109 141 188 225 263 319
#     4  11  21  33  50  76 108 145 185 223 257 318
#     4  10  18  35  53  72 101 143 175 220 275 318
#     4  10  17  30  52  69 109 158 190 201 236 323
#     4  11  20  32  46  76 112 155 186 210 262 312
#     4  10  20  38  60  74  97 141 192 228 272 334
#     4  10  18  31  46  68 112 148 173 216 250 322
#     4  11  23  31  50  79 114 145 179 227 267 323
#
# _framework density 16.299137999999999
#
# number of rings (size 3 to 8) (size 9 to 14) (size 15 to 20)
#    0.000    1.600    5.333    1.200    1.867    3.200 
#    0.000    0.667    0.000    0.000    0.000    0.000 
#    0.000    0.533    0.000    0.333    0.000    0.000 
#
# Total GULP energy -334024.330731 kJ/mol
# GULP energy per Si atom -5567.072179 kJ/mol
# Density = 1.626204 g / cm^3
# Si number density = 16.299138 Si / 1000 Ang^3
#
#
#
# Elastic Constant Matrix: (Units=GPa)
#
#
# Indices 1 2 3 4 5 6 
#
# 1 94.6221 32.3260 22.7893 0.0000 0.0000 0.0000
# 2 32.3260 58.0877 28.4746 0.0000 0.0000 0.0000
# 3 22.7893 28.4746 64.9674 0.0000 0.0000 0.0000
# 4 0.0000 0.0000 0.0000 26.8344 0.0000 0.0000
# 5 0.0000 0.0000 0.0000 0.0000 22.2028 0.0000
# 6 0.0000 0.0000 0.0000 0.0000 0.0000 14.7319
#
#
#
# Elastic Compliance Matrix: (Units=1/GPa)
#
#
# Indices 1 2 3 4 5 6 
#
# 1 0.013212 -0.006471 -0.001798 0.000000 0.000000 0.000000
# 2 -0.006471 0.025096 -0.008729 0.000000 0.000000 0.000000
# 3 -0.001798 -0.008729 0.019849 0.000000 0.000000 0.000000
# 4 0.000000 0.000000 0.000000 0.037266 0.000000 0.000000
# 5 0.000000 0.000000 0.000000 0.000000 0.045039 0.000000
# 6 0.000000 0.000000 0.000000 0.000000 0.000000 0.067880
#
#
# Mechanical properties :
#
#
# Convention : Reuss Voigt Hill
#
# Bulk Modulus (GPa) = 41.39151 42.76190 42.07670
# Shear Modulus (GPa) = 19.96865 21.69298 20.83082
#
# Velocity S-wave (km/s) = 3.50399 3.65215 3.57884
# Velocity P-wave (km/s) = 6.46689 6.63904 6.55353
#
# Compressibility (1/GPa) = 0.02415955
#
# Stress axis : x y z
#
# Youngs Moduli (GPa) = 75.68744 39.84760 50.38013
#
# Poissons Ratio (x) = 0.25786 0.09060
# Poissons Ratio (y) = 0.48978 0.43978
# Poissons Ratio (z) = 0.13611 0.34784
#
# Static dielectric constant tensor:
#      x y z
#    x 1.578810 0.000000 0.000000 
#    y 0.000000 1.566930 0.000000 
#    z 0.000000 0.000000 1.573880 
# 
# From -- ./inp_files/67414.got.cif
#   From: 2010.05.17/outbox.cif.g08.bks.cpg/sg70_34_cif.got.tgz:67414.got - 2010.06.03 15:57:51.
