data_PCOD9514402
_publ_section_title
;
Structure prediction by ZEFSAII (Michael W. Deem and Ramdas Pophale) SiO2 
 PCOD9514402
Probable space group: F D D D
;
_chemical_formula_sum "Si O2"
_cell_formula_units_Z 160
_cell_length_a 26.938523
_cell_length_b 14.866241
_cell_length_c 25.157633
_cell_angle_alpha 90.000000
_cell_angle_beta 90.000000
_cell_angle_gamma 90.000000
_cell_volume 10074.992386
_symmetry_space_group_name_H-M "F D D D"
_symmetry_group_IT_number 70
_space_group.IT_coordinate_system_code '2'
_symmetry_cell_setting 'orthorhombic'
loop_
_space_group_symop_operation_xyz
x,y,z
1/4-x,1/4-y,z
x,1/4-y,1/4-z
1/4-x,y,1/4-z
-x,-y,-z
3/4+x,3/4+y,-z
-x,3/4+y,3/4+z
3/4+x,-y,3/4+z
x,1/2+y,1/2+z
1/4-x,3/4-y,1/2+z
x,3/4-y,3/4-z
1/4-x,1/2+y,3/4-z
-x,1/2-y,1/2-z
3/4+x,1/4+y,1/2-z
-x,1/4+y,1/4+z
3/4+x,1/2-y,1/4+z
1/2+x,y,1/2+z
3/4-x,1/4-y,1/2+z
1/2+x,1/4-y,3/4-z
3/4-x,y,3/4-z
1/2-x,-y,1/2-z
1/4+x,3/4+y,1/2-z
1/2-x,3/4+y,1/4+z
1/4+x,-y,1/4+z
1/2+x,1/2+y,z
3/4-x,3/4-y,z
1/2+x,3/4-y,1/4-z
3/4-x,1/2+y,1/4-z
1/2-x,1/2-y,-z
1/4+x,1/4+y,-z
1/2-x,1/4+y,3/4+z
1/4+x,1/2-y,3/4+z
loop_
_atom_site_type_symbol
_atom_site_label
_atom_site_fract_x
_atom_site_fract_y
_atom_site_fract_z
Si Si1 0.625000 0.333868 0.625000
Si Si2 0.675159 0.457814 0.416234
Si Si3 0.288589 0.457493 0.916058
Si Si4 0.299999 0.398493 0.726572
Si Si5 0.317181 0.094197 0.271503
Si Si6 0.625000 0.125000 0.384182
O O1 0.669804 0.275646 0.648577
O O2 0.650779 0.373890 0.572352
O O3 0.669872 0.375000 0.375000
O O4 0.732189 0.492309 0.412672
O O5 0.671707 0.413201 0.474079
O O6 0.637957 0.537539 0.400852
O O7 0.290698 0.375000 0.875000
O O8 0.300873 0.419770 0.974216
O O9 0.324106 0.492628 0.747726
O O10 0.241521 0.409911 0.714459
O O11 0.328982 0.365136 0.674992
#
# Coordination Sequence:
#
# PCOD9514402 Si02
#       6
#    16  32  32  32  32  16
#     4  12  19  28  52  81 106 134 172 199 260 329
#     4  10  21  36  49  73 110 140 172 211 257 307
#     4  10  19  29  47  78 115 134 154 203 269 334
#     4  10  19  31  49  79 109 136 161 207 274 328
#     4  10  20  33  49  76 112 134 165 217 266 314
#     4  12  20  32  57  75  98 148 180 204 252 322
#
# _framework density 15.880905
#
# number of rings (size 3 to 8) (size 9 to 14) (size 15 to 20)
#    0.000    1.600    4.000    2.700    0.000    0.000 
#    0.000    0.000    0.000    5.400    0.000    0.000 
#    0.000    0.000    0.000    0.000    0.000    0.000 
#
# Total GULP energy -222916.055399 kJ/mol
# GULP energy per Si atom -5572.901385 kJ/mol
# Density = 1.584476 g / cm^3
# Si number density = 15.880905 Si / 1000 Ang^3
#
#
#
# Elastic Constant Matrix: (Units=GPa)
#
#
# Indices 1 2 3 4 5 6 
#
# 1 72.4768 39.7280 55.3327 0.0000 0.0000 0.0000
# 2 39.7280 58.2846 36.9668 0.0000 0.0000 0.0000
# 3 55.3327 36.9668 114.5538 0.0000 0.0000 0.0000
# 4 0.0000 0.0000 0.0000 20.1027 0.0000 0.0000
# 5 0.0000 0.0000 0.0000 0.0000 30.9079 0.0000
# 6 0.0000 0.0000 0.0000 0.0000 0.0000 24.7707
#
#
#
# Elastic Compliance Matrix: (Units=1/GPa)
#
#
# Indices 1 2 3 4 5 6 
#
# 1 0.028225 -0.013318 -0.009336 0.000000 0.000000 0.000000
# 2 -0.013318 0.027856 -0.002557 0.000000 0.000000 0.000000
# 3 -0.009336 -0.002557 0.014064 0.000000 0.000000 0.000000
# 4 0.000000 0.000000 0.000000 0.049745 0.000000 0.000000
# 5 0.000000 0.000000 0.000000 0.000000 0.032354 0.000000
# 6 0.000000 0.000000 0.000000 0.000000 0.000000 0.040370
#
#
# Mechanical properties :
#
#
# Convention : Reuss Voigt Hill
#
# Bulk Modulus (GPa) = 50.69618 56.59670 53.64644
# Shear Modulus (GPa) = 20.03132 22.70878 21.37005
#
# Velocity S-wave (km/s) = 3.55540 3.78556 3.67228
# Velocity P-wave (km/s) = 6.98903 7.40425 7.19963
#
# Compressibility (1/GPa) = 0.01972535
#
# Stress axis : x y z
#
# Youngs Moduli (GPa) = 35.42964 35.89867 71.10357
#
# Poissons Ratio (x) = 0.47808 0.66381
# Poissons Ratio (y) = 0.47183 0.18178
# Poissons Ratio (z) = 0.33077 0.09178
#
# Static dielectric constant tensor:
#      x y z
#    x 1.565050 0.000000 0.000000 
#    y 0.000000 1.518590 0.000000 
#    z 0.000000 0.000000 1.557970 
# 
# From -- ./inp_files/21119.got.cif
#   From: 2010.05.17/outbox.cif.g08.bks.cpg/sg70_11_cif.got.tgz:21119.got - 2010.06.03 15:57:51.
