data_PCOD9514802
_publ_section_title
;
Structure prediction by ZEFSAII (Michael W. Deem and Ramdas Pophale) SiO2 
 PCOD9514802
Probable space group: F D D D
;
_chemical_formula_sum "Si O2"
_cell_formula_units_Z 208
_cell_length_a 21.338083
_cell_length_b 15.776754
_cell_length_c 30.344634
_cell_angle_alpha 90.000000
_cell_angle_beta 90.000000
_cell_angle_gamma 90.000000
_cell_volume 10215.390139
_symmetry_space_group_name_H-M "F D D D"
_symmetry_group_IT_number 70
_space_group.IT_coordinate_system_code '2'
_symmetry_cell_setting 'orthorhombic'
loop_
_space_group_symop_operation_xyz
x,y,z
1/4-x,1/4-y,z
x,1/4-y,1/4-z
1/4-x,y,1/4-z
-x,-y,-z
3/4+x,3/4+y,-z
-x,3/4+y,3/4+z
3/4+x,-y,3/4+z
x,1/2+y,1/2+z
1/4-x,3/4-y,1/2+z
x,3/4-y,3/4-z
1/4-x,1/2+y,3/4-z
-x,1/2-y,1/2-z
3/4+x,1/4+y,1/2-z
-x,1/4+y,1/4+z
3/4+x,1/2-y,1/4+z
1/2+x,y,1/2+z
3/4-x,1/4-y,1/2+z
1/2+x,1/4-y,3/4-z
3/4-x,y,3/4-z
1/2-x,-y,1/2-z
1/4+x,3/4+y,1/2-z
1/2-x,3/4+y,1/4+z
1/4+x,-y,1/4+z
1/2+x,1/2+y,z
3/4-x,3/4-y,z
1/2+x,3/4-y,1/4-z
3/4-x,1/2+y,1/4-z
1/2-x,1/2-y,-z
1/4+x,1/4+y,-z
1/2-x,1/4+y,3/4+z
1/4+x,1/2-y,3/4+z
loop_
_atom_site_type_symbol
_atom_site_label
_atom_site_fract_x
_atom_site_fract_y
_atom_site_fract_z
Si Si1 0.713530 0.320572 0.971506
Si Si2 0.721459 0.515019 0.965793
Si Si3 0.434938 0.168061 0.525330
Si Si4 0.937768 0.765256 0.135705
Si Si5 0.984930 0.939170 0.916954
Si Si6 0.375000 0.375000 0.978219
Si Si7 0.705304 0.707199 0.850961
O O1 0.732158 0.417437 0.979665
O O2 0.638393 0.317316 0.979046
O O3 0.718915 0.299772 0.919414
O O4 0.750000 0.250000 0.000000
O O5 0.710239 0.514014 0.913940
O O6 0.780638 0.572095 0.979248
O O7 0.663613 0.559296 0.991507
O O8 0.456416 0.083805 0.551203
O O9 0.466931 0.240281 0.556584
O O10 0.862474 0.755551 0.134677
O O11 0.949328 0.858066 0.156323
O O12 0.983397 0.875000 0.875000
O O13 0.923964 0.924532 0.946628
O O14 0.997164 0.025654 0.890971
#
# Coordination Sequence:
#
# PCOD9514802 Si02
#       7
#    32  32  32  32  32  16  32
#     4  11  23  40  61  80 103 145 193 234 278 333
#     4  11  22  37  56  84 117 145 180 230 284 335
#     4   9  20  36  56  82 112 146 186 230 280 336
#     4  10  20  35  56  82 107 140 185 233 279 330
#     4   9  17  32  55  84 119 156 186 221 272 333
#     4  10  21  34  54  88 124 154 184 222 277 344
#     4   9  17  33  56  80 110 147 187 226 271 331
#
# _framework density 20.361436000000001
#
# number of rings (size 3 to 8) (size 9 to 14) (size 15 to 20)
#    0.000    2.154    0.000    3.462    0.000    5.538 
#    0.000    4.615    0.000    5.538    0.000    0.000 
#    0.000    0.000    0.000    0.000    0.000    0.000 
#
# Total GULP energy -290121.944521 kJ/mol
# GULP energy per Si atom -5579.268164 kJ/mol
# Density = 2.031509 g / cm^3
# Si number density = 20.361436 Si / 1000 Ang^3
#
#
#
# Elastic Constant Matrix: (Units=GPa)
#
#
# Indices 1 2 3 4 5 6 
#
# 1 51.3638 -19.8157 13.6534 0.0000 0.0000 0.0000
# 2 -19.8157 24.3535 -17.3632 0.0000 0.0000 0.0000
# 3 13.6534 -17.3632 84.8002 0.0000 0.0000 0.0000
# 4 0.0000 0.0000 0.0000 28.8456 0.0000 0.0000
# 5 0.0000 0.0000 0.0000 0.0000 27.9953 0.0000
# 6 0.0000 0.0000 0.0000 0.0000 0.0000 19.3243
#
#
#
# Elastic Compliance Matrix: (Units=1/GPa)
#
#
# Indices 1 2 3 4 5 6 
#
# 1 0.028379 0.023224 0.000186 0.000000 0.000000 0.000000
# 2 0.023224 0.067085 0.009997 0.000000 0.000000 0.000000
# 3 0.000186 0.009997 0.013809 0.000000 0.000000 0.000000
# 4 0.000000 0.000000 0.000000 0.034667 0.000000 0.000000
# 5 0.000000 0.000000 0.000000 0.000000 0.035720 0.000000
# 6 0.000000 0.000000 0.000000 0.000000 0.000000 0.051748
#
#
# Mechanical properties :
#
#
# Convention : Reuss Voigt Hill
#
# Bulk Modulus (GPa) = 5.67903 12.60741 9.14322
# Shear Modulus (GPa) = 22.39214 27.50256 24.94735
#
# Velocity S-wave (km/s) = 3.31982 3.67920 3.50412
# Velocity P-wave (km/s) = 4.18212 4.92483 4.56859
#
# Compressibility (1/GPa) = 0.17608654
#
# Stress axis : x y z
#
# Youngs Moduli (GPa) = 35.23737 14.90636 72.41453
#
# Poissons Ratio (x) = -0.34618 -0.01346
# Poissons Ratio (y) = -0.81834 -0.72392
# Poissons Ratio (z) = -0.00655 -0.14902
#
# Static dielectric constant tensor:
#      x y z
#    x 1.722810 0.000000 0.000000 
#    y 0.000000 1.760830 0.000000 
#    z 0.000000 0.000000 1.720090 
# 
# From -- ./inp_files/60419.got.cif
#   From: 2010.05.17/outbox.cif.g08.bks.cpg/sg70_31_cif.got.tgz:60419.got - 2010.06.03 15:57:51.
