data_PCOD9514168
_publ_section_title
;
Structure prediction by ZEFSAII (Michael W. Deem and Ramdas Pophale) SiO2 
 PCOD9514168
Probable space group: F D D D
;
_chemical_formula_sum "Si O2"
_cell_formula_units_Z 208
_cell_length_a 22.449470
_cell_length_b 17.110731
_cell_length_c 24.552280
_cell_angle_alpha 90.000000
_cell_angle_beta 90.000000
_cell_angle_gamma 90.000000
_cell_volume 9431.189787
_symmetry_space_group_name_H-M "F D D D"
_symmetry_group_IT_number 70
_space_group.IT_coordinate_system_code '2'
_symmetry_cell_setting 'orthorhombic'
loop_
_space_group_symop_operation_xyz
x,y,z
1/4-x,1/4-y,z
x,1/4-y,1/4-z
1/4-x,y,1/4-z
-x,-y,-z
3/4+x,3/4+y,-z
-x,3/4+y,3/4+z
3/4+x,-y,3/4+z
x,1/2+y,1/2+z
1/4-x,3/4-y,1/2+z
x,3/4-y,3/4-z
1/4-x,1/2+y,3/4-z
-x,1/2-y,1/2-z
3/4+x,1/4+y,1/2-z
-x,1/4+y,1/4+z
3/4+x,1/2-y,1/4+z
1/2+x,y,1/2+z
3/4-x,1/4-y,1/2+z
1/2+x,1/4-y,3/4-z
3/4-x,y,3/4-z
1/2-x,-y,1/2-z
1/4+x,3/4+y,1/2-z
1/2-x,3/4+y,1/4+z
1/4+x,-y,1/4+z
1/2+x,1/2+y,z
3/4-x,3/4-y,z
1/2+x,3/4-y,1/4-z
3/4-x,1/2+y,1/4-z
1/2-x,1/2-y,-z
1/4+x,1/4+y,-z
1/2-x,1/4+y,3/4+z
1/4+x,1/2-y,3/4+z
loop_
_atom_site_type_symbol
_atom_site_label
_atom_site_fract_x
_atom_site_fract_y
_atom_site_fract_z
Si Si1 0.370545 0.758498 0.311308
Si Si2 0.375000 0.640260 0.875000
Si Si3 0.790769 0.237943 0.928749
Si Si4 0.600733 0.544169 0.751012
Si Si5 0.026573 0.619511 0.558588
Si Si6 0.268072 0.127420 0.722112
Si Si7 0.604870 0.382620 0.810467
O O1 0.375000 0.784442 0.375000
O O2 0.373690 0.665967 0.322085
O O3 0.428343 0.802080 0.288548
O O4 0.309437 0.799023 0.291960
O O5 0.435189 0.690551 0.872671
O O6 0.747201 0.311556 0.926068
O O7 0.851826 0.273231 0.954026
O O8 0.766594 0.175078 0.972483
O O9 0.625000 0.625000 0.775948
O O10 0.535304 0.561657 0.727669
O O11 0.604662 0.473218 0.792586
O O12 0.020820 0.625000 0.625000
O O13 0.959481 0.604568 0.539503
O O14 0.334812 0.156563 0.712060
O O15 0.607114 0.375000 0.875000
#
# Coordination Sequence:
#
# PCOD9514168 Si02
#       7
#    32  16  32  32  32  32  32
#     4   7  14  25  44  75 100 132 164 232 265 299
#     4  10  18  27  53  84 102 132 194 242 256 300
#     4   9  19  33  51  81 103 141 190 225 263 328
#     4   9  19  37  55  72 107 152 182 219 275 336
#     4   8  13  27  44  72 106 127 174 218 266 316
#     4   9  19  36  52  71 116 147 177 219 283 331
#     4  10  20  31  55  88 107 141 186 233 275 333
#
# _framework density 22.054480000000002
#
# number of rings (size 3 to 8) (size 9 to 14) (size 15 to 20)
#    0.462    2.769    0.000    1.846    2.154    1.231 
#    0.000    2.692    0.000    3.692    0.000    0.000 
#    0.000    0.000    0.000    0.000    0.000    0.000 
#
# Total GULP energy -289556.276853 kJ/mol
# GULP energy per Si atom -5568.389939 kJ/mol
# Density = 2.200428 g / cm^3
# Si number density = 22.054480 Si / 1000 Ang^3
#
#
#
# Elastic Constant Matrix: (Units=GPa)
#
#
# Indices 1 2 3 4 5 6 
#
# 1 178.2438 27.9905 20.3174 0.0000 0.0000 0.0000
# 2 27.9905 66.2559 21.9010 0.0000 0.0000 0.0000
# 3 20.3174 21.9010 27.2452 0.0000 0.0000 0.0000
# 4 0.0000 0.0000 0.0000 17.7329 0.0000 0.0000
# 5 0.0000 0.0000 0.0000 0.0000 21.8278 0.0000
# 6 0.0000 0.0000 0.0000 0.0000 0.0000 31.5160
#
#
#
# Elastic Compliance Matrix: (Units=1/GPa)
#
#
# Indices 1 2 3 4 5 6 
#
# 1 0.006238 -0.001495 -0.003450 0.000000 0.000000 0.000000
# 2 -0.001495 0.020913 -0.015696 0.000000 0.000000 0.000000
# 3 -0.003450 -0.015696 0.051894 0.000000 0.000000 0.000000
# 4 0.000000 0.000000 0.000000 0.056392 0.000000 0.000000
# 5 0.000000 0.000000 0.000000 0.000000 0.045813 0.000000
# 6 0.000000 0.000000 0.000000 0.000000 0.000000 0.031730
#
#
# Mechanical properties :
#
#
# Convention : Reuss Voigt Hill
#
# Bulk Modulus (GPa) = 26.48122 45.79584 36.13853
# Shear Modulus (GPa) = 18.73707 27.65108 23.19407
#
# Velocity S-wave (km/s) = 2.91792 3.54469 3.24647
# Velocity P-wave (km/s) = 4.83586 6.12887 5.52036
#
# Compressibility (1/GPa) = 0.03776261
#
# Stress axis : x y z
#
# Youngs Moduli (GPa) = 160.29894 47.81743 19.27005
#
# Poissons Ratio (x) = 0.07148 0.06649
# Poissons Ratio (y) = 0.23963 0.30246
# Poissons Ratio (z) = 0.55309 0.75054
#
# Static dielectric constant tensor:
#      x y z
#    x 1.859560 0.000000 0.000000 
#    y 0.000000 1.895960 0.000000 
#    z 0.000000 0.000000 1.862070 
# 
# From -- ./inp_files/67315.got.cif
#   From: 2010.05.17/outbox.cif.g08.bks.cpg/sg70_34_cif.got.tgz:67315.got - 2010.06.03 15:57:51.
