data_PCOD9514442
_publ_section_title
;
Structure prediction by ZEFSAII (Michael W. Deem and Ramdas Pophale) SiO2 
 PCOD9514442
Probable space group: F D D D
;
_chemical_formula_sum "Si O2"
_cell_formula_units_Z 112
_cell_length_a 26.385437
_cell_length_b 15.080873
_cell_length_c 10.640903
_cell_angle_alpha 90.000000
_cell_angle_beta 90.000000
_cell_angle_gamma 90.000000
_cell_volume 4234.179434
_symmetry_space_group_name_H-M "F D D D"
_symmetry_group_IT_number 70
_space_group.IT_coordinate_system_code '2'
_symmetry_cell_setting 'orthorhombic'
loop_
_space_group_symop_operation_xyz
x,y,z
1/4-x,1/4-y,z
x,1/4-y,1/4-z
1/4-x,y,1/4-z
-x,-y,-z
3/4+x,3/4+y,-z
-x,3/4+y,3/4+z
3/4+x,-y,3/4+z
x,1/2+y,1/2+z
1/4-x,3/4-y,1/2+z
x,3/4-y,3/4-z
1/4-x,1/2+y,3/4-z
-x,1/2-y,1/2-z
3/4+x,1/4+y,1/2-z
-x,1/4+y,1/4+z
3/4+x,1/2-y,1/4+z
1/2+x,y,1/2+z
3/4-x,1/4-y,1/2+z
1/2+x,1/4-y,3/4-z
3/4-x,y,3/4-z
1/2-x,-y,1/2-z
1/4+x,3/4+y,1/2-z
1/2-x,3/4+y,1/4+z
1/4+x,-y,1/4+z
1/2+x,1/2+y,z
3/4-x,3/4-y,z
1/2+x,3/4-y,1/4-z
3/4-x,1/2+y,1/4-z
1/2-x,1/2-y,-z
1/4+x,1/4+y,-z
1/2-x,1/4+y,3/4+z
1/4+x,1/2-y,3/4+z
loop_
_atom_site_type_symbol
_atom_site_label
_atom_site_fract_x
_atom_site_fract_y
_atom_site_fract_z
Si Si1 0.625000 0.625000 0.276695
Si Si2 0.930719 0.049708 0.484406
Si Si3 0.321783 0.247263 0.221600
Si Si4 0.289305 0.744918 0.261739
O O1 0.661260 0.569560 0.371215
O O2 0.663182 0.693214 0.209154
O O3 0.932557 0.980314 0.370541
O O4 0.871516 0.064762 0.520051
O O5 0.953128 0.143958 0.441871
O O6 0.957550 0.015460 0.609663
O O7 0.264540 0.219495 0.191897
#
# Coordination Sequence:
#
# PCOD9514442 Si02
#       4
#    16  32  32  32
#     4  10  22  35  58  87 104 138 192 219 258 330
#     4   9  20  31  49  80 112 139 176 219 274 327
#     4  10  19  33  53  79 108 140 175 225 271 314
#     4  10  19  34  51  76 112 144 173 222 270 313
#
# _framework density 26.451405999999999
#
# number of rings (size 3 to 8) (size 9 to 14) (size 15 to 20)
#    0.000    2.286    0.000    2.571    0.000   20.571 
#    0.000    1.429    0.000   13.714    0.000    0.000 
#    0.000    0.000    0.000    0.000    0.000    0.000 
#
# Total GULP energy -156433.200094 kJ/mol
# GULP energy per Si atom -5586.900003 kJ/mol
# Density = 2.639120 g / cm^3
# Si number density = 26.451406 Si / 1000 Ang^3
#
#
#
# Elastic Constant Matrix: (Units=GPa)
#
#
# Indices 1 2 3 4 5 6 
#
# 1 267.6779 43.3079 24.4525 0.0000 0.0000 0.0000
# 2 43.3079 98.4338 18.7527 0.0000 0.0000 0.0000
# 3 24.4525 18.7527 52.5735 0.0000 0.0000 0.0000
# 4 0.0000 0.0000 0.0000 25.6213 0.0000 0.0000
# 5 0.0000 0.0000 0.0000 0.0000 28.2390 0.0000
# 6 0.0000 0.0000 0.0000 0.0000 0.0000 20.3938
#
#
#
# Elastic Compliance Matrix: (Units=1/GPa)
#
#
# Indices 1 2 3 4 5 6 
#
# 1 0.004111 -0.001550 -0.001359 0.000000 0.000000 0.000000
# 2 -0.001550 0.011484 -0.003376 0.000000 0.000000 0.000000
# 3 -0.001359 -0.003376 0.020857 0.000000 0.000000 0.000000
# 4 0.000000 0.000000 0.000000 0.039030 0.000000 0.000000
# 5 0.000000 0.000000 0.000000 0.000000 0.035412 0.000000
# 6 0.000000 0.000000 0.000000 0.000000 0.000000 0.049035
#
#
# Mechanical properties :
#
#
# Convention : Reuss Voigt Hill
#
# Bulk Modulus (GPa) = 41.87046 65.74569 53.80808
# Shear Modulus (GPa) = 27.70725 36.99562 32.35144
#
# Velocity S-wave (km/s) = 3.23999 3.74388 3.50101
# Velocity P-wave (km/s) = 5.46445 6.60288 6.06046
#
# Compressibility (1/GPa) = 0.02388318
#
# Stress axis : x y z
#
# Youngs Moduli (GPa) = 243.26662 87.07781 47.94512
#
# Poissons Ratio (x) = 0.13494 0.06517
# Poissons Ratio (y) = 0.37698 0.16184
# Poissons Ratio (z) = 0.33064 0.29393
#
# Static dielectric constant tensor:
#      x y z
#    x 2.125970 0.000000 0.000000 
#    y 0.000000 2.026140 0.000000 
#    z 0.000000 0.000000 2.198350 
# 
# From -- ./inp_files/26247.got.cif
#   From: 2010.05.17/outbox.cif.g08.bks.cpg/sg70_14_cif.got.tgz:26247.got - 2010.06.03 15:57:51.
