data_PCOD9514581
_publ_section_title
;
Structure prediction by ZEFSAII (Michael W. Deem and Ramdas Pophale) SiO2 
 PCOD9514581
Probable space group: F D D D
;
_chemical_formula_sum "Si O2"
_cell_formula_units_Z 128
_cell_length_a 24.425810
_cell_length_b 10.361644
_cell_length_c 20.339693
_cell_angle_alpha 90.000000
_cell_angle_beta 90.000000
_cell_angle_gamma 90.000000
_cell_volume 5147.804380
_symmetry_space_group_name_H-M "F D D D"
_symmetry_group_IT_number 70
_space_group.IT_coordinate_system_code '2'
_symmetry_cell_setting 'orthorhombic'
loop_
_space_group_symop_operation_xyz
x,y,z
1/4-x,1/4-y,z
x,1/4-y,1/4-z
1/4-x,y,1/4-z
-x,-y,-z
3/4+x,3/4+y,-z
-x,3/4+y,3/4+z
3/4+x,-y,3/4+z
x,1/2+y,1/2+z
1/4-x,3/4-y,1/2+z
x,3/4-y,3/4-z
1/4-x,1/2+y,3/4-z
-x,1/2-y,1/2-z
3/4+x,1/4+y,1/2-z
-x,1/4+y,1/4+z
3/4+x,1/2-y,1/4+z
1/2+x,y,1/2+z
3/4-x,1/4-y,1/2+z
1/2+x,1/4-y,3/4-z
3/4-x,y,3/4-z
1/2-x,-y,1/2-z
1/4+x,3/4+y,1/2-z
1/2-x,3/4+y,1/4+z
1/4+x,-y,1/4+z
1/2+x,1/2+y,z
3/4-x,3/4-y,z
1/2+x,3/4-y,1/4-z
3/4-x,1/2+y,1/4-z
1/2-x,1/2-y,-z
1/4+x,1/4+y,-z
1/2-x,1/4+y,3/4+z
1/4+x,1/2-y,3/4+z
loop_
_atom_site_type_symbol
_atom_site_label
_atom_site_fract_x
_atom_site_fract_y
_atom_site_fract_z
Si Si1 0.565721 0.111087 0.524285
Si Si2 0.125000 0.625000 0.978241
Si Si3 0.297193 0.912007 0.616934
Si Si4 0.024128 0.375000 0.375000
Si Si5 0.323296 0.670088 0.826054
O O1 0.625000 0.125000 0.554413
O O2 0.567364 0.191432 0.456643
O O3 0.517073 0.166000 0.567264
O O4 0.557752 0.956304 0.532524
O O5 0.082832 0.549503 0.929562
O O6 0.090740 0.719061 0.025396
O O7 0.305626 0.755759 0.613046
O O8 0.232816 0.946602 0.616639
O O9 0.375000 0.651176 0.875000
#
# Coordination Sequence:
#
# PCOD9514581 Si02
#       5
#    32  16  32  16  32
#     4  11  20  38  65  98 126 163 224 284 345 393
#     4  12  25  46  68  97 148 180 226 282 336 425
#     4  11  22  41  66 101 130 180 228 282 345 399
#     4  10  19  36  66  92 130 164 223 296 332 388
#     4  11  25  43  68  97 136 183 227 279 343 410
#
# _framework density 24.864971000000001
#
# number of rings (size 3 to 8) (size 9 to 14) (size 15 to 20)
#    0.000    1.000    1.250    9.750    0.000    1.000 
#    0.000    2.500    0.000    0.000    0.000    0.000 
#    0.000    0.000    0.000    0.000    0.000    0.000 
#
# Total GULP energy -178725.106364 kJ/mol
# GULP energy per Si atom -5585.159574 kJ/mol
# Density = 2.480838 g / cm^3
# Si number density = 24.864971 Si / 1000 Ang^3
#
#
#
# Elastic Constant Matrix: (Units=GPa)
#
#
# Indices 1 2 3 4 5 6 
#
# 1 154.6783 -1.9966 59.3325 0.0000 0.0000 0.0000
# 2 -1.9966 31.5098 16.6705 0.0000 0.0000 0.0000
# 3 59.3325 16.6705 135.8338 0.0000 0.0000 0.0000
# 4 0.0000 0.0000 0.0000 15.9291 0.0000 0.0000
# 5 0.0000 0.0000 0.0000 0.0000 29.8499 0.0000
# 6 0.0000 0.0000 0.0000 0.0000 0.0000 21.9324
#
#
#
# Elastic Compliance Matrix: (Units=1/GPa)
#
#
# Indices 1 2 3 4 5 6 
#
# 1 0.007947 0.002502 -0.003778 0.000000 0.000000 0.000000
# 2 0.002502 0.034728 -0.005355 0.000000 0.000000 0.000000
# 3 -0.003778 -0.005355 0.009669 0.000000 0.000000 0.000000
# 4 0.000000 0.000000 0.000000 0.062778 0.000000 0.000000
# 5 0.000000 0.000000 0.000000 0.000000 0.033501 0.000000
# 6 0.000000 0.000000 0.000000 0.000000 0.000000 0.045595
#
#
# Mechanical properties :
#
#
# Convention : Reuss Voigt Hill
#
# Bulk Modulus (GPa) = 25.58712 52.22607 38.90659
# Shear Modulus (GPa) = 22.67501 30.07665 26.37583
#
# Velocity S-wave (km/s) = 3.02309 3.48170 3.26047
# Velocity P-wave (km/s) = 4.74322 6.10020 5.46400
#
# Compressibility (1/GPa) = 0.03908216
#
# Stress axis : x y z
#
# Youngs Moduli (GPa) = 125.83999 28.79531 103.41812
#
# Poissons Ratio (x) = -0.07206 0.39073
# Poissons Ratio (y) = -0.31490 0.55382
# Poissons Ratio (z) = 0.47545 0.15420
#
# Static dielectric constant tensor:
#      x y z
#    x 1.998950 0.000000 0.000000 
#    y 0.000000 2.048640 0.000000 
#    z 0.000000 0.000000 2.058710 
# 
# From -- ./inp_files/26377.got.cif
#   From: 2010.05.17/outbox.cif.g08.bks.cpg/sg70_14_cif.got.tgz:26377.got - 2010.06.03 15:57:51.
