data_PCOD9514252
_publ_section_title
;
Structure prediction by ZEFSAII (Michael W. Deem and Ramdas Pophale) SiO2 
 PCOD9514252
Probable space group: F D D D
;
_chemical_formula_sum "Si O2"
_cell_formula_units_Z 176
_cell_length_a 26.238363
_cell_length_b 10.480698
_cell_length_c 32.647546
_cell_angle_alpha 90.000000
_cell_angle_beta 90.000000
_cell_angle_gamma 90.000000
_cell_volume 8977.956268
_symmetry_space_group_name_H-M "F D D D"
_symmetry_group_IT_number 70
_space_group.IT_coordinate_system_code '2'
_symmetry_cell_setting 'orthorhombic'
loop_
_space_group_symop_operation_xyz
x,y,z
1/4-x,1/4-y,z
x,1/4-y,1/4-z
1/4-x,y,1/4-z
-x,-y,-z
3/4+x,3/4+y,-z
-x,3/4+y,3/4+z
3/4+x,-y,3/4+z
x,1/2+y,1/2+z
1/4-x,3/4-y,1/2+z
x,3/4-y,3/4-z
1/4-x,1/2+y,3/4-z
-x,1/2-y,1/2-z
3/4+x,1/4+y,1/2-z
-x,1/4+y,1/4+z
3/4+x,1/2-y,1/4+z
1/2+x,y,1/2+z
3/4-x,1/4-y,1/2+z
1/2+x,1/4-y,3/4-z
3/4-x,y,3/4-z
1/2-x,-y,1/2-z
1/4+x,3/4+y,1/2-z
1/2-x,3/4+y,1/4+z
1/4+x,-y,1/4+z
1/2+x,1/2+y,z
3/4-x,3/4-y,z
1/2+x,3/4-y,1/4-z
3/4-x,1/2+y,1/4-z
1/2-x,1/2-y,-z
1/4+x,1/4+y,-z
1/2-x,1/4+y,3/4+z
1/4+x,1/2-y,3/4+z
loop_
_atom_site_type_symbol
_atom_site_label
_atom_site_fract_x
_atom_site_fract_y
_atom_site_fract_z
Si Si1 0.779356 0.900457 0.637948
Si Si2 0.792238 0.071555 0.484943
Si Si3 0.093608 0.755203 0.931243
Si Si4 0.065155 0.660952 0.770820
Si Si5 0.569709 0.763167 0.605936
Si Si6 0.331183 0.125000 0.625000
O O1 0.800417 0.989823 0.602832
O O2 0.799100 0.946609 0.682303
O O3 0.719507 0.876555 0.634242
O O4 0.801330 0.756494 0.631431
O O5 0.804875 0.222885 0.489363
O O6 0.730496 0.058670 0.487493
O O7 0.819637 0.018471 0.524703
O O8 0.814730 0.010693 0.443529
O O9 0.125000 0.625000 0.930004
O O10 0.133482 0.859596 0.915150
O O11 0.125000 0.625000 0.769312
O O12 0.554795 0.625000 0.625000
O O13 0.625000 0.788741 0.625000
#
# Coordination Sequence:
#
# PCOD9514252 Si02
#       6
#    32  32  32  32  32  16
#     4  10  19  35  57  84 111 147 189 226 292 337
#     4  10  22  37  56  87 112 145 198 227 280 343
#     4  10  20  31  54  85 115 140 182 241 279 331
#     4  10  20  37  61  82 113 151 181 236 285 337
#     4  10  22  39  58  72 110 159 189 229 282 341
#     4  10  18  34  55  84 117 150 180 230 294 342
#
# _framework density 19.603570999999999
#
# number of rings (size 3 to 8) (size 9 to 14) (size 15 to 20)
#    0.000    2.000    0.909    3.818    2.545    1.455 
#    0.000    0.909    0.000    2.727    0.000    0.000 
#    0.000    0.000    0.000    0.000    0.000    0.000 
#
# Total GULP energy -245206.766667 kJ/mol
# GULP energy per Si atom -5572.881061 kJ/mol
# Density = 1.955895 g / cm^3
# Si number density = 19.603571 Si / 1000 Ang^3
#
#
#
# Elastic Constant Matrix: (Units=GPa)
#
#
# Indices 1 2 3 4 5 6 
#
# 1 139.3875 13.7097 37.4540 0.0000 0.0000 0.0000
# 2 13.7097 37.1793 18.9624 0.0000 0.0000 0.0000
# 3 37.4540 18.9624 129.8385 0.0000 0.0000 0.0000
# 4 0.0000 0.0000 0.0000 23.5934 0.0000 0.0000
# 5 0.0000 0.0000 0.0000 0.0000 23.6899 0.0000
# 6 0.0000 0.0000 0.0000 0.0000 0.0000 7.6115
#
#
#
# Elastic Compliance Matrix: (Units=1/GPa)
#
#
# Indices 1 2 3 4 5 6 
#
# 1 0.007898 -0.001891 -0.002002 0.000000 0.000000 0.000000
# 2 -0.001891 0.029514 -0.003765 0.000000 0.000000 0.000000
# 3 -0.002002 -0.003765 0.008829 0.000000 0.000000 0.000000
# 4 0.000000 0.000000 0.000000 0.042385 0.000000 0.000000
# 5 0.000000 0.000000 0.000000 0.000000 0.042212 0.000000
# 6 0.000000 0.000000 0.000000 0.000000 0.000000 0.131380
#
#
# Mechanical properties :
#
#
# Convention : Reuss Voigt Hill
#
# Bulk Modulus (GPa) = 32.33611 49.62860 40.98235
# Shear Modulus (GPa) = 17.37054 26.73092 22.05073
#
# Velocity S-wave (km/s) = 2.97996 3.69667 3.35749
# Velocity P-wave (km/s) = 5.32644 6.60239 5.99844
#
# Compressibility (1/GPa) = 0.03092518
#
# Stress axis : x y z
#
# Youngs Moduli (GPa) = 126.61022 33.88188 113.25955
#
# Poissons Ratio (x) = 0.06408 0.22676
# Poissons Ratio (y) = 0.23946 0.42641
# Poissons Ratio (z) = 0.25349 0.12756
#
# Static dielectric constant tensor:
#      x y z
#    x 1.732240 0.000000 0.000000 
#    y 0.000000 2.072250 0.000000 
#    z 0.000000 0.000000 1.683600 
# 
# From -- ./inp_files/57617.got.cif
#   From: 2010.05.17/outbox.cif.g08.bks.cpg/sg70_29_cif.got.tgz:57617.got - 2010.06.03 15:57:51.
