data_PCOD9514196
_publ_section_title
;
Structure prediction by ZEFSAII (Michael W. Deem and Ramdas Pophale) SiO2 
 PCOD9514196
Probable space group: F D D D
;
_chemical_formula_sum "Si O2"
_cell_formula_units_Z 160
_cell_length_a 13.871514
_cell_length_b 19.017029
_cell_length_c 25.890829
_cell_angle_alpha 90.000000
_cell_angle_beta 90.000000
_cell_angle_gamma 90.000000
_cell_volume 6829.870822
_symmetry_space_group_name_H-M "F D D D"
_symmetry_group_IT_number 70
_space_group.IT_coordinate_system_code '2'
_symmetry_cell_setting 'orthorhombic'
loop_
_space_group_symop_operation_xyz
x,y,z
1/4-x,1/4-y,z
x,1/4-y,1/4-z
1/4-x,y,1/4-z
-x,-y,-z
3/4+x,3/4+y,-z
-x,3/4+y,3/4+z
3/4+x,-y,3/4+z
x,1/2+y,1/2+z
1/4-x,3/4-y,1/2+z
x,3/4-y,3/4-z
1/4-x,1/2+y,3/4-z
-x,1/2-y,1/2-z
3/4+x,1/4+y,1/2-z
-x,1/4+y,1/4+z
3/4+x,1/2-y,1/4+z
1/2+x,y,1/2+z
3/4-x,1/4-y,1/2+z
1/2+x,1/4-y,3/4-z
3/4-x,y,3/4-z
1/2-x,-y,1/2-z
1/4+x,3/4+y,1/2-z
1/2-x,3/4+y,1/4+z
1/4+x,-y,1/4+z
1/2+x,1/2+y,z
3/4-x,3/4-y,z
1/2+x,3/4-y,1/4-z
3/4-x,1/2+y,1/4-z
1/2-x,1/2-y,-z
1/4+x,1/4+y,-z
1/2-x,1/4+y,3/4+z
1/4+x,1/2-y,3/4+z
loop_
_atom_site_type_symbol
_atom_site_label
_atom_site_fract_x
_atom_site_fract_y
_atom_site_fract_z
Si Si1 0.220086 0.318877 0.793138
Si Si2 0.435513 0.151339 0.806819
Si Si3 0.375000 0.976582 0.375000
Si Si4 0.125000 0.788543 0.125000
Si Si5 0.966182 0.908947 0.223612
Si Si6 0.503386 0.325901 0.327081
O O1 0.226608 0.380999 0.749855
O O2 0.306762 0.314005 0.834362
O O3 0.212538 0.242204 0.765893
O O4 0.118603 0.320486 0.822945
O O5 0.446205 0.223959 0.838893
O O6 0.452245 0.085293 0.843677
O O7 0.319433 0.149619 0.802134
O O8 0.189499 0.742590 0.086187
O O9 0.875000 0.875000 0.194371
O O10 0.972927 0.863214 0.274877
O O11 0.481707 0.375000 0.375000
#
# Coordination Sequence:
#
# PCOD9514196 Si02
#       6
#    32  32  16  16  32  32
#     4  10  20  36  57  79 114 151 191 246 290 342
#     4   9  19  33  55  85 113 149 196 238 285 356
#     4   9  20  38  60  84 114 156 198 243 302 348
#     4  11  19  32  53  82 121 150 177 229 294 350
#     4  10  18  31  52  80 111 145 181 226 292 353
#     4  11  21  31  51  81 110 142 182 226 282 351
#
# _framework density 23.426503
#
# number of rings (size 3 to 8) (size 9 to 14) (size 15 to 20)
#    0.000    2.000    0.000    5.100    0.000    3.200 
#    0.000    0.500    0.000   26.400    0.000    0.000 
#    0.000    0.000    0.000    0.000    0.000    0.000 
#
# Total GULP energy -223232.810618 kJ/mol
# GULP energy per Si atom -5580.820265 kJ/mol
# Density = 2.337318 g / cm^3
# Si number density = 23.426503 Si / 1000 Ang^3
#
#
#
# Elastic Constant Matrix: (Units=GPa)
#
#
# Indices 1 2 3 4 5 6 
#
# 1 85.6603 31.8191 44.3540 0.0000 0.0000 0.0000
# 2 31.8191 62.8333 31.5066 0.0000 0.0000 0.0000
# 3 44.3540 31.5066 114.2076 0.0000 0.0000 0.0000
# 4 0.0000 0.0000 0.0000 20.3253 0.0000 0.0000
# 5 0.0000 0.0000 0.0000 0.0000 156.5833 0.0000
# 6 0.0000 0.0000 0.0000 0.0000 0.0000 22.5501
#
#
#
# Elastic Compliance Matrix: (Units=1/GPa)
#
#
# Indices 1 2 3 4 5 6 
#
# 1 0.016299 -0.005896 -0.004704 0.000000 0.000000 0.000000
# 2 -0.005896 0.020603 -0.003394 0.000000 0.000000 0.000000
# 3 -0.004704 -0.003394 0.011519 0.000000 0.000000 0.000000
# 4 0.000000 0.000000 0.000000 0.049200 0.000000 0.000000
# 5 0.000000 0.000000 0.000000 0.000000 0.006386 0.000000
# 6 0.000000 0.000000 0.000000 0.000000 0.000000 0.044346
#
#
# Mechanical properties :
#
#
# Convention : Reuss Voigt Hill
#
# Bulk Modulus (GPa) = 48.93687 53.11784 51.02736
# Shear Modulus (GPa) = 27.29987 50.22651 38.76319
#
# Velocity S-wave (km/s) = 3.41741 4.63536 4.07218
# Velocity P-wave (km/s) = 6.04206 7.16744 6.62868
#
# Compressibility (1/GPa) = 0.02043449
#
# Stress axis : x y z
#
# Youngs Moduli (GPa) = 61.35162 48.53769 86.81277
#
# Poissons Ratio (x) = 0.28616 0.40834
# Poissons Ratio (y) = 0.36170 0.29464
# Poissons Ratio (z) = 0.28858 0.16474
#
# Static dielectric constant tensor:
#      x y z
#    x 2.006490 0.000000 0.000000 
#    y 0.000000 1.994080 0.000000 
#    z 0.000000 0.000000 1.905660 
# 
# From -- ./inp_files/58542.got.cif
#   From: 2010.05.17/outbox.cif.g08.bks.cpg/sg70_30_cif.got.tgz:58542.got - 2010.06.03 15:57:51.
