data_PCOD9514004
_publ_section_title
;
Structure prediction by ZEFSAII (Michael W. Deem and Ramdas Pophale) SiO2 
 PCOD9514004
Probable space group: F M M M
;
_chemical_formula_sum "Si O2"
_cell_formula_units_Z 42
_cell_length_a 30.000000
_cell_length_b 21.000000
_cell_length_c 15.000000
_cell_angle_alpha 90.000000
_cell_angle_beta 90.000000
_cell_angle_gamma 90.000000
_cell_volume 9450.000000
_symmetry_space_group_name_H-M "F M M M"
_symmetry_group_IT_number 69
_symmetry_cell_setting 'orthorhombic'
loop_
_space_group_symop_operation_xyz
x,y,z
-x,-y,z
x,-y,-z
-x,y,-z
-x,-y,-z
x,y,-z
-x,y,z
x,-y,z
x,1/2+y,1/2+z
-x,1/2-y,1/2+z
x,1/2-y,1/2-z
-x,1/2+y,1/2-z
-x,1/2-y,1/2-z
x,1/2+y,1/2-z
-x,1/2+y,1/2+z
x,1/2-y,1/2+z
1/2+x,y,1/2+z
1/2-x,-y,1/2+z
1/2+x,-y,1/2-z
1/2-x,y,1/2-z
1/2-x,-y,1/2-z
1/2+x,y,1/2-z
1/2-x,y,1/2+z
1/2+x,-y,1/2+z
1/2+x,1/2+y,z
1/2-x,1/2-y,z
1/2+x,1/2-y,-z
1/2-x,1/2+y,-z
1/2-x,1/2-y,-z
1/2+x,1/2+y,-z
1/2-x,1/2+y,z
1/2+x,1/2-y,z
loop_
_atom_site_type_symbol
_atom_site_label
_atom_site_fract_x
_atom_site_fract_y
_atom_site_fract_z
Si Si1 0.218257 0.158015 0.394304
Si Si2 0.549154 0.422407 0.274120
Si Si3 0.250000 0.250000 0.250000
Si Si4 0.803444 0.928144 0.892026
Si Si5 0.901846 0.922485 0.101268
Si Si6 0.369335 0.926286 0.104670
O O1 0.220447 0.177611 0.500000
O O2 0.219087 0.211886 0.319715
O O3 0.262466 0.117064 0.372634
O O4 0.175085 0.114232 0.383676
O O5 0.500000 0.400230 0.299553
O O6 0.548757 0.500000 0.276950
O O7 0.561761 0.403682 0.173380
O O8 0.588995 0.402339 0.338487
O O9 0.852348 0.904234 0.865000
O O10 0.796296 0.000000 0.857953
O O11 0.805849 0.932201 0.000000
O O12 0.900867 0.000000 0.098230
O O13 0.909201 0.900288 0.000000
O O14 0.360270 0.000000 0.129610
O O15 0.380852 0.925262 0.000000
#
# Coordination Sequence:
#
# PCOD9514004 Si02
#       6
#    32  32   8  32  32  32
#     4  10  21  37  53  72 102 132 166 207 245 295
#     4   9  17  27  41  67 103 135 163 198 241 296
#     4  12  26  36  50  74  98 140 174 202 244 294
#     4   8  14  27  49  74  99 128 161 200 246 293
#     4   8  14  24  39  63  97 133 164 193 232 287
#     4   9  18  33  53  75 100 132 168 206 250 296
#
# _framework density 4.4444439999999998
#
# number of rings (size 3 to 8) (size 9 to 14) (size 15 to 20)
#    0.000    3.048    0.000    2.000    2.667    3.048 
#    0.000    4.762    0.000    0.000    0.000    0.667 
#    0.000    0.000    0.000    0.000    0.000    0.000 
#
# Total GULP energy -233923.199179 kJ/mol
# GULP energy per Si atom -5569.599980 kJ/mol
# Density = 0.443433 g / cm^3
# Si number density = 4.444444 Si / 1000 Ang^3
#
#
#
# Elastic Constant Matrix: (Units=GPa)
#
#
# Indices 1 2 3 4 5 6 
#
# 1 79.4842 22.1450 38.9496 0.0000 0.0000 0.0000
# 2 22.1450 27.7506 33.5970 0.0000 0.0000 0.0000
# 3 38.9496 33.5970 67.8880 0.0000 0.0000 0.0000
# 4 0.0000 0.0000 0.0000 19.5046 0.0000 0.0000
# 5 0.0000 0.0000 0.0000 0.0000 24.3684 0.0000
# 6 0.0000 0.0000 0.0000 0.0000 0.0000 -36.3841
#
#
#
# Elastic Compliance Matrix: (Units=1/GPa)
#
#
# Indices 1 2 3 4 5 6 
#
# 1 0.017731 -0.004574 -0.007910 0.000000 0.000000 0.000000
# 2 -0.004574 0.091077 -0.042449 0.000000 0.000000 0.000000
# 3 -0.007910 -0.042449 0.040276 0.000000 0.000000 0.000000
# 4 0.000000 0.000000 0.000000 0.051270 0.000000 0.000000
# 5 0.000000 0.000000 0.000000 0.000000 0.041037 0.000000
# 6 0.000000 0.000000 0.000000 0.000000 0.000000 -0.027485
#
#
# Mechanical properties :
#
#
# Convention : Reuss Voigt Hill
#
# Bulk Modulus (GPa) = 25.49741 40.50067 32.99904
# Shear Modulus (GPa) = 14.84366 6.85985 10.85176
#
# Velocity S-wave (km/s) = 2.89269 1.96648 2.47333
# Velocity P-wave (km/s) = 5.05276 5.29029 5.17289
#
# Compressibility (1/GPa) = 0.03921967
#
# Stress axis : x y z
#
# Youngs Moduli (GPa) = 56.39744 10.97970 24.82885
#
# Poissons Ratio (x) = 0.05022 0.19639
# Poissons Ratio (y) = 0.25794 1.05396
# Poissons Ratio (z) = 0.44608 0.46608
#
# Static dielectric constant tensor:
#      x y z
#    x 1.613040 0.000000 0.000000 
#    y 0.000000 1.626360 0.000000 
#    z 0.000000 0.000000 1.639270 
# 
# From -- ./inp_files/19716.got.cif
#   From: 2010.05.17/outbox.ucp.g08.bks.cvg/sg69_10_cif.got.tgz:19716.got - 2010.06.11 16:51:34.
