data_PCOD9514104
_publ_section_title
;
Structure prediction by ZEFSAII (Michael W. Deem and Ramdas Pophale) SiO2 
 PCOD9514104
Probable space group: F D D D
;
_chemical_formula_sum "Si O2"
_cell_formula_units_Z 208
_cell_length_a 21.108789
_cell_length_b 20.503838
_cell_length_c 32.533088
_cell_angle_alpha 90.000000
_cell_angle_beta 90.000000
_cell_angle_gamma 90.000000
_cell_volume 14080.684533
_symmetry_space_group_name_H-M "F D D D"
_symmetry_group_IT_number 70
_space_group.IT_coordinate_system_code '2'
_symmetry_cell_setting 'orthorhombic'
loop_
_space_group_symop_operation_xyz
x,y,z
1/4-x,1/4-y,z
x,1/4-y,1/4-z
1/4-x,y,1/4-z
-x,-y,-z
3/4+x,3/4+y,-z
-x,3/4+y,3/4+z
3/4+x,-y,3/4+z
x,1/2+y,1/2+z
1/4-x,3/4-y,1/2+z
x,3/4-y,3/4-z
1/4-x,1/2+y,3/4-z
-x,1/2-y,1/2-z
3/4+x,1/4+y,1/2-z
-x,1/4+y,1/4+z
3/4+x,1/2-y,1/4+z
1/2+x,y,1/2+z
3/4-x,1/4-y,1/2+z
1/2+x,1/4-y,3/4-z
3/4-x,y,3/4-z
1/2-x,-y,1/2-z
1/4+x,3/4+y,1/2-z
1/2-x,3/4+y,1/4+z
1/4+x,-y,1/4+z
1/2+x,1/2+y,z
3/4-x,3/4-y,z
1/2+x,3/4-y,1/4-z
3/4-x,1/2+y,1/4-z
1/2-x,1/2-y,-z
1/4+x,1/4+y,-z
1/2-x,1/4+y,3/4+z
1/4+x,1/2-y,3/4+z
loop_
_atom_site_type_symbol
_atom_site_label
_atom_site_fract_x
_atom_site_fract_y
_atom_site_fract_z
Si Si1 0.147079 0.875000 0.375000
Si Si2 0.989570 0.247689 0.113004
Si Si3 0.836268 0.307859 0.426254
Si Si4 0.364614 0.178760 0.710197
Si Si5 0.548498 0.757162 0.028173
Si Si6 0.074236 0.566946 0.435265
Si Si7 0.506832 0.367463 0.757816
O O1 0.193597 0.934519 0.387873
O O2 0.107521 0.896573 0.334810
O O3 0.955274 0.300579 0.141265
O O4 0.053720 0.223878 0.136407
O O5 0.006464 0.272923 0.067968
O O6 0.875000 0.375000 0.419169
O O7 0.882774 0.261592 0.452331
O O8 0.777806 0.328924 0.455162
O O9 0.307776 0.190710 0.742049
O O10 0.392049 0.251303 0.701301
O O11 0.419319 0.138956 0.733741
O O12 0.519244 0.690740 0.009888
O O13 0.125000 0.625000 0.435136
O O14 0.017828 0.585233 0.466193
#
# Coordination Sequence:
#
# PCOD9514104 Si02
#       7
#    16  32  32  32  32  32  32
#     4  10  18  30  45  62  86 124 151 196 218 264
#     4  11  20  30  41  63  93 121 166 195 222 265
#     4  10  17  25  39  60  92 130 162 183 214 258
#     4  11  19  30  45  61  92 122 163 191 229 268
#     4  11  20  28  41  64  92 124 156 189 232 271
#     4  11  19  30  44  63  88 129 161 196 229 269
#     4  11  17  28  41  65  91 129 163 190 212 273
#
# _framework density 14.772009000000001
#
# number of rings (size 3 to 8) (size 9 to 14) (size 15 to 20)
#    0.000    1.231    7.692    3.231    0.000    1.846 
#    0.000    0.000    0.000    0.000    0.000    4.308 
#    0.000    0.000    0.000    0.000    0.000    0.000 
#
# Total GULP energy -290172.981019 kJ/mol
# GULP energy per Si atom -5580.249635 kJ/mol
# Density = 1.473839 g / cm^3
# Si number density = 14.772009 Si / 1000 Ang^3
#
#
#
# Elastic Constant Matrix: (Units=GPa)
#
#
# Indices 1 2 3 4 5 6 
#
# 1 23.8390 14.1340 23.2625 0.0000 0.0000 0.0000
# 2 14.1340 37.2433 32.9116 0.0000 0.0000 0.0000
# 3 23.2625 32.9116 121.7254 0.0000 0.0000 0.0000
# 4 0.0000 0.0000 0.0000 28.2491 0.0000 0.0000
# 5 0.0000 0.0000 0.0000 0.0000 21.7566 0.0000
# 6 0.0000 0.0000 0.0000 0.0000 0.0000 14.6605
#
#
#
# Elastic Compliance Matrix: (Units=1/GPa)
#
#
# Indices 1 2 3 4 5 6 
#
# 1 0.058064 -0.016069 -0.006752 0.000000 0.000000 0.000000
# 2 -0.016069 0.039727 -0.007670 0.000000 0.000000 0.000000
# 3 -0.006752 -0.007670 0.011579 0.000000 0.000000 0.000000
# 4 0.000000 0.000000 0.000000 0.035399 0.000000 0.000000
# 5 0.000000 0.000000 0.000000 0.000000 0.045963 0.000000
# 6 0.000000 0.000000 0.000000 0.000000 0.000000 0.068211
#
#
# Mechanical properties :
#
#
# Convention : Reuss Voigt Hill
#
# Bulk Modulus (GPa) = 20.66632 35.93598 28.30115
# Shear Modulus (GPa) = 14.87857 20.43323 17.65590
#
# Velocity S-wave (km/s) = 3.17711 3.72323 3.46096
# Velocity P-wave (km/s) = 5.24206 6.54699 5.93053
#
# Compressibility (1/GPa) = 0.04838791
#
# Stress axis : x y z
#
# Youngs Moduli (GPa) = 17.22249 25.17188 86.36070
#
# Poissons Ratio (x) = 0.40449 0.58308
# Poissons Ratio (y) = 0.27675 0.66241
# Poissons Ratio (z) = 0.11628 0.19308
#
# Static dielectric constant tensor:
#      x y z
#    x 1.493530 0.000000 0.000000 
#    y 0.000000 1.482890 0.000000 
#    z 0.000000 0.000000 1.543880 
# 
# From -- ./inp_files/46177.got.cif
#   From: 2010.05.17/outbox.cif.g08.bks.cpg/sg70_24_cif.got.tgz:46177.got - 2010.06.03 15:57:51.
