data_PCOD9514059
_publ_section_title
;
Structure prediction by ZEFSAII (Michael W. Deem and Ramdas Pophale) SiO2 
 PCOD9514059
Probable space group: F D D D
;
_chemical_formula_sum "Si O2"
_cell_formula_units_Z 112
_cell_length_a 13.029619
_cell_length_b 9.294261
_cell_length_c 36.917848
_cell_angle_alpha 90.000000
_cell_angle_beta 90.000000
_cell_angle_gamma 90.000000
_cell_volume 4470.776486
_symmetry_space_group_name_H-M "F D D D"
_symmetry_group_IT_number 70
_space_group.IT_coordinate_system_code '2'
_symmetry_cell_setting 'orthorhombic'
loop_
_space_group_symop_operation_xyz
x,y,z
1/4-x,1/4-y,z
x,1/4-y,1/4-z
1/4-x,y,1/4-z
-x,-y,-z
3/4+x,3/4+y,-z
-x,3/4+y,3/4+z
3/4+x,-y,3/4+z
x,1/2+y,1/2+z
1/4-x,3/4-y,1/2+z
x,3/4-y,3/4-z
1/4-x,1/2+y,3/4-z
-x,1/2-y,1/2-z
3/4+x,1/4+y,1/2-z
-x,1/4+y,1/4+z
3/4+x,1/2-y,1/4+z
1/2+x,y,1/2+z
3/4-x,1/4-y,1/2+z
1/2+x,1/4-y,3/4-z
3/4-x,y,3/4-z
1/2-x,-y,1/2-z
1/4+x,3/4+y,1/2-z
1/2-x,3/4+y,1/4+z
1/4+x,-y,1/4+z
1/2+x,1/2+y,z
3/4-x,3/4-y,z
1/2+x,3/4-y,1/4-z
3/4-x,1/2+y,1/4-z
1/2-x,1/2-y,-z
1/4+x,1/4+y,-z
1/2-x,1/4+y,3/4+z
1/4+x,1/2-y,3/4+z
loop_
_atom_site_type_symbol
_atom_site_label
_atom_site_fract_x
_atom_site_fract_y
_atom_site_fract_z
Si Si1 0.875000 0.875000 0.691823
Si Si2 0.144196 0.828089 0.270526
Si Si3 0.769448 0.801716 0.127124
Si Si4 0.045499 0.860234 0.199895
O O1 0.885058 0.738360 0.716422
O O2 0.779924 0.885817 0.663307
O O3 0.046486 0.749407 0.289182
O O4 0.247740 0.759438 0.285440
O O5 0.135187 0.815143 0.227242
O O6 0.770418 0.625000 0.125000
O O7 0.875000 0.875000 0.142612
O O8 0.690815 0.860676 0.157241
#
# Coordination Sequence:
#
# PCOD9514059 Si02
#       4
#    16  32  32  32
#     4  10  18  30  52  78  95 130 176 217 254 308
#     4  10  19  31  50  76 104 132 168 219 262 318
#     4  10  16  29  50  73  98 124 172 214 257 305
#     4  10  18  33  50  75 104 134 168 216 269 315
#
# _framework density 25.051577000000002
#
# number of rings (size 3 to 8) (size 9 to 14) (size 15 to 20)
#    0.857    1.143    5.714    0.000    0.000    1.143 
#    0.000    0.000    0.000    1.714    0.000   12.000 
#    0.000    0.000    0.000    0.000    0.000    0.000 
#
# Total GULP energy -156217.702251 kJ/mol
# GULP energy per Si atom -5579.203652 kJ/mol
# Density = 2.499456 g / cm^3
# Si number density = 25.051577 Si / 1000 Ang^3
#
#
#
# Elastic Constant Matrix: (Units=GPa)
#
#
# Indices 1 2 3 4 5 6 
#
# 1 61.6024 -9.3650 14.2652 0.0000 0.0000 0.0000
# 2 -9.3650 98.8320 -0.6742 0.0000 0.0000 0.0000
# 3 14.2652 -0.6742 169.1505 0.0000 0.0000 0.0000
# 4 0.0000 0.0000 0.0000 38.7326 0.0000 0.0000
# 5 0.0000 0.0000 0.0000 0.0000 24.9905 0.0000
# 6 0.0000 0.0000 0.0000 0.0000 0.0000 -13.5321
#
#
#
# Elastic Compliance Matrix: (Units=1/GPa)
#
#
# Indices 1 2 3 4 5 6 
#
# 1 0.016800 0.001582 -0.001411 0.000000 0.000000 0.000000
# 2 0.001582 0.010267 -0.000093 0.000000 0.000000 0.000000
# 3 -0.001411 -0.000093 0.006030 0.000000 0.000000 0.000000
# 4 0.000000 0.000000 0.000000 0.025818 0.000000 0.000000
# 5 0.000000 0.000000 0.000000 0.000000 0.040015 0.000000
# 6 0.000000 0.000000 0.000000 0.000000 0.000000 -0.073898
#
#
# Mechanical properties :
#
#
# Convention : Reuss Voigt Hill
#
# Bulk Modulus (GPa) = 30.06902 37.55965 33.81433
# Shear Modulus (GPa) = 139.04224 31.72881 85.38553
#
# Velocity S-wave (km/s) = 7.45807 3.56271 5.84447
# Velocity P-wave (km/s) = 9.28400 5.65237 7.68577
#
# Compressibility (1/GPa) = 0.03325682
#
# Stress axis : x y z
#
# Youngs Moduli (GPa) = 59.52273 97.39484 165.82421
#
# Poissons Ratio (x) = -0.15411 0.23390
# Poissons Ratio (y) = -0.09418 0.01534
# Poissons Ratio (z) = 0.08396 0.00901
#
# Static dielectric constant tensor:
#      x y z
#    x 2.214420 0.000000 0.000000 
#    y 0.000000 2.028890 0.000000 
#    z 0.000000 0.000000 1.994430 
# 
# From -- ./inp_files/67614.got.cif
#   From: 2010.05.17/outbox.cif.g08.bks.cpg/sg70_34_cif.got.tgz:67614.got - 2010.06.03 15:57:51.
