data_PCOD9514561
_publ_section_title
;
Structure prediction by ZEFSAII (Michael W. Deem and Ramdas Pophale) SiO2 
 PCOD9514561
Probable space group: F D D D
;
_chemical_formula_sum "Si O2"
_cell_formula_units_Z 144
_cell_length_a 16.196870
_cell_length_b 20.680671
_cell_length_c 21.018556
_cell_angle_alpha 90.000000
_cell_angle_beta 90.000000
_cell_angle_gamma 90.000000
_cell_volume 7040.420491
_symmetry_space_group_name_H-M "F D D D"
_symmetry_group_IT_number 70
_space_group.IT_coordinate_system_code '2'
_symmetry_cell_setting 'orthorhombic'
loop_
_space_group_symop_operation_xyz
x,y,z
1/4-x,1/4-y,z
x,1/4-y,1/4-z
1/4-x,y,1/4-z
-x,-y,-z
3/4+x,3/4+y,-z
-x,3/4+y,3/4+z
3/4+x,-y,3/4+z
x,1/2+y,1/2+z
1/4-x,3/4-y,1/2+z
x,3/4-y,3/4-z
1/4-x,1/2+y,3/4-z
-x,1/2-y,1/2-z
3/4+x,1/4+y,1/2-z
-x,1/4+y,1/4+z
3/4+x,1/2-y,1/4+z
1/2+x,y,1/2+z
3/4-x,1/4-y,1/2+z
1/2+x,1/4-y,3/4-z
3/4-x,y,3/4-z
1/2-x,-y,1/2-z
1/4+x,3/4+y,1/2-z
1/2-x,3/4+y,1/4+z
1/4+x,-y,1/4+z
1/2+x,1/2+y,z
3/4-x,3/4-y,z
1/2+x,3/4-y,1/4-z
3/4-x,1/2+y,1/4-z
1/2-x,1/2-y,-z
1/4+x,1/4+y,-z
1/2-x,1/4+y,3/4+z
1/4+x,1/2-y,3/4+z
loop_
_atom_site_type_symbol
_atom_site_label
_atom_site_fract_x
_atom_site_fract_y
_atom_site_fract_z
Si Si1 0.396320 0.532386 0.065211
Si Si2 0.231667 0.875000 0.875000
Si Si3 0.603444 0.550375 0.439445
Si Si4 0.410562 0.803566 0.307688
Si Si5 0.574465 0.247494 0.183299
O O1 0.328972 0.588412 0.075814
O O2 0.384688 0.485978 0.126716
O O3 0.490237 0.557338 0.063157
O O4 0.385316 0.492279 0.000520
O O5 0.287243 0.928603 0.840369
O O6 0.625000 0.625000 0.438802
O O7 0.630043 0.514948 0.504771
O O8 0.504483 0.542079 0.444601
O O9 0.375000 0.779530 0.375000
O O10 0.375000 0.875000 0.296889
O O11 0.625000 0.275258 0.125000
#
# Coordination Sequence:
#
# PCOD9514561 Si02
#       5
#    32  16  32  32  32
#     4  10  22  38  59  87 117 154 196 240 297 347
#     4  10  19  36  61  86 118 154 190 240 295 354
#     4  10  21  38  59  86 116 148 191 242 289 346
#     4  10  21  39  60  83 117 159 200 245 292 346
#     4  10  21  37  59  84 115 154 191 234 292 351
#
# _framework density 20.453323999999999
#
# number of rings (size 3 to 8) (size 9 to 14) (size 15 to 20)
#    0.000    2.000    0.000    3.667    0.000    5.333 
#    0.000   18.889    0.000    0.000    0.000    0.000 
#    0.000    0.000    0.000    0.000    0.000    0.000 
#
# Total GULP energy -201187.818276 kJ/mol
# GULP energy per Si atom -5588.550508 kJ/mol
# Density = 2.040677 g / cm^3
# Si number density = 20.453324 Si / 1000 Ang^3
#
#
#
# Elastic Constant Matrix: (Units=GPa)
#
#
# Indices 1 2 3 4 5 6 
#
# 1 58.3872 32.4404 36.3042 0.0000 0.0000 0.0000
# 2 32.4404 71.3472 27.4098 0.0000 0.0000 0.0000
# 3 36.3042 27.4098 137.4592 0.0000 0.0000 0.0000
# 4 0.0000 0.0000 0.0000 -10.1528 0.0000 0.0000
# 5 0.0000 0.0000 0.0000 0.0000 0.0854 0.0000
# 6 0.0000 0.0000 0.0000 0.0000 0.0000 8.7967
#
#
#
# Elastic Compliance Matrix: (Units=1/GPa)
#
#
# Indices 1 2 3 4 5 6 
#
# 1 0.025537 -0.009768 -0.004797 0.000000 0.000000 0.000000
# 2 -0.009768 0.018915 -0.001192 0.000000 0.000000 0.000000
# 3 -0.004797 -0.001192 0.008779 0.000000 0.000000 0.000000
# 4 0.000000 0.000000 0.000000 -0.098495 0.000000 0.000000
# 5 0.000000 0.000000 0.000000 0.000000 11.710412 0.000000
# 6 0.000000 0.000000 0.000000 0.000000 0.000000 0.113679
#
#
# Mechanical properties :
#
#
# Convention : Reuss Voigt Hill
#
# Bulk Modulus (GPa) = 46.04526 51.05582 48.55054
# Shear Modulus (GPa) = 0.42310 11.14849 5.78579
#
# Velocity S-wave (km/s) = 0.45531 2.33721 1.68372
# Velocity P-wave (km/s) = 4.77887 5.68328 5.25059
#
# Compressibility (1/GPa) = 0.02171776
#
# Stress axis : x y z
#
# Youngs Moduli (GPa) = 39.15894 52.86700 113.90315
#
# Poissons Ratio (x) = 0.51643 0.54636
# Poissons Ratio (y) = 0.38252 0.13576
# Poissons Ratio (z) = 0.18783 0.06301
#
# Static dielectric constant tensor:
#      x y z
#    x 1.733180 0.000000 0.000000 
#    y 0.000000 1.691370 0.000000 
#    z 0.000000 0.000000 1.784820 
# 
# From -- ./inp_files/37349.got.cif
#   From: 2010.05.17/outbox.cif.g08.bks.cpg/sg70_19_cif.got.tgz:37349.got - 2010.06.03 15:57:51.
