data_PCOD9514653
_publ_section_title
;
Structure prediction by ZEFSAII (Michael W. Deem and Ramdas Pophale) SiO2 
 PCOD9514653
Probable space group: F D D D
;
_chemical_formula_sum "Si O2"
_cell_formula_units_Z 144
_cell_length_a 17.167836
_cell_length_b 18.839183
_cell_length_c 23.419980
_cell_angle_alpha 90.000000
_cell_angle_beta 90.000000
_cell_angle_gamma 90.000000
_cell_volume 7574.677388
_symmetry_space_group_name_H-M "F D D D"
_symmetry_group_IT_number 70
_space_group.IT_coordinate_system_code '2'
_symmetry_cell_setting 'orthorhombic'
loop_
_space_group_symop_operation_xyz
x,y,z
1/4-x,1/4-y,z
x,1/4-y,1/4-z
1/4-x,y,1/4-z
-x,-y,-z
3/4+x,3/4+y,-z
-x,3/4+y,3/4+z
3/4+x,-y,3/4+z
x,1/2+y,1/2+z
1/4-x,3/4-y,1/2+z
x,3/4-y,3/4-z
1/4-x,1/2+y,3/4-z
-x,1/2-y,1/2-z
3/4+x,1/4+y,1/2-z
-x,1/4+y,1/4+z
3/4+x,1/2-y,1/4+z
1/2+x,y,1/2+z
3/4-x,1/4-y,1/2+z
1/2+x,1/4-y,3/4-z
3/4-x,y,3/4-z
1/2-x,-y,1/2-z
1/4+x,3/4+y,1/2-z
1/2-x,3/4+y,1/4+z
1/4+x,-y,1/4+z
1/2+x,1/2+y,z
3/4-x,3/4-y,z
1/2+x,3/4-y,1/4-z
3/4-x,1/2+y,1/4-z
1/2-x,1/2-y,-z
1/4+x,1/4+y,-z
1/2-x,1/4+y,3/4+z
1/4+x,1/2-y,3/4+z
loop_
_atom_site_type_symbol
_atom_site_label
_atom_site_fract_x
_atom_site_fract_y
_atom_site_fract_z
Si Si1 0.375000 0.875000 0.638382
Si Si2 0.226132 0.500318 0.315163
Si Si3 0.993214 0.924378 0.927366
Si Si4 0.731595 0.412988 0.193381
Si Si5 0.143774 0.375000 0.375000
Si Si6 0.125000 0.814463 0.125000
O O1 0.340535 0.940413 0.674308
O O2 0.446669 0.898382 0.598745
O O3 0.250000 0.500000 0.250000
O O4 0.193794 0.424768 0.334840
O O5 0.302244 0.519959 0.352138
O O6 0.962056 0.875000 0.875000
O O7 0.085217 0.925172 0.911109
O O8 0.961185 0.003944 0.933677
O O9 0.991355 0.895636 0.992039
O O10 0.659376 0.364647 0.174733
#
# Coordination Sequence:
#
# PCOD9514653 Si02
#       6
#    16  32  32  32  16  16
#     4  10  20  40  61  87 122 168 202 254 320 380
#     4  11  23  40  64  91 127 170 212 262 319 378
#     4   9  19  37  59  87 117 153 203 255 315 372
#     4  10  19  39  58  85 124 157 204 255 312 380
#     4  10  20  39  60  93 124 160 216 258 316 381
#     4  10  24  37  57  90 124 158 214 254 310 375
#
# _framework density 19.010711000000001
#
# number of rings (size 3 to 8) (size 9 to 14) (size 15 to 20)
#    0.667    1.333    2.222    1.333    0.000    2.222 
#    8.000    4.444    0.000    0.000    0.000    0.000 
#    0.000    0.000    0.000    0.000    0.000    0.000 
#
# Total GULP energy -200641.459221 kJ/mol
# GULP energy per Si atom -5573.373867 kJ/mol
# Density = 1.896744 g / cm^3
# Si number density = 19.010711 Si / 1000 Ang^3
#
#
#
# Elastic Constant Matrix: (Units=GPa)
#
#
# Indices 1 2 3 4 5 6 
#
# 1 65.6968 8.1049 5.0865 0.0000 0.0000 0.0000
# 2 8.1049 54.8686 28.3534 0.0000 0.0000 0.0000
# 3 5.0865 28.3534 118.7544 0.0000 0.0000 0.0000
# 4 0.0000 0.0000 0.0000 27.8654 0.0000 0.0000
# 5 0.0000 0.0000 0.0000 0.0000 15.5050 0.0000
# 6 0.0000 0.0000 0.0000 0.0000 0.0000 9.3930
#
#
#
# Elastic Compliance Matrix: (Units=1/GPa)
#
#
# Indices 1 2 3 4 5 6 
#
# 1 0.015506 -0.002221 -0.000134 0.000000 0.000000 0.000000
# 2 -0.002221 0.021109 -0.004945 0.000000 0.000000 0.000000
# 3 -0.000134 -0.004945 0.009607 0.000000 0.000000 0.000000
# 4 0.000000 0.000000 0.000000 0.035887 0.000000 0.000000
# 5 0.000000 0.000000 0.000000 0.000000 0.064495 0.000000
# 6 0.000000 0.000000 0.000000 0.000000 0.000000 0.106462
#
#
# Mechanical properties :
#
#
# Convention : Reuss Voigt Hill
#
# Bulk Modulus (GPa) = 31.62361 35.82328 33.72345
# Shear Modulus (GPa) = 17.97230 23.73768 20.85499
#
# Velocity S-wave (km/s) = 3.07803 3.53745 3.31571
# Velocity P-wave (km/s) = 5.41324 5.96401 5.69529
#
# Compressibility (1/GPa) = 0.03162194
#
# Stress axis : x y z
#
# Youngs Moduli (GPa) = 64.49186 47.37397 104.09032
#
# Poissons Ratio (x) = 0.10523 0.01393
# Poissons Ratio (y) = 0.14326 0.51469
# Poissons Ratio (z) = 0.00863 0.23425
#
# Static dielectric constant tensor:
#      x y z
#    x 1.670410 0.000000 0.000000 
#    y 0.000000 1.654500 0.000000 
#    z 0.000000 0.000000 1.651460 
# 
# From -- ./inp_files/34971.got.cif
#   From: 2010.05.17/outbox.cif.g08.bks.cpg/sg70_18_cif.got.tgz:34971.got - 2010.06.03 15:57:51.
