data_PCOD9514263
_publ_section_title
;
Structure prediction by ZEFSAII (Michael W. Deem and Ramdas Pophale) SiO2 
 PCOD9514263
Probable space group: F D D D
;
_chemical_formula_sum "Si O2"
_cell_formula_units_Z 208
_cell_length_a 24.087450
_cell_length_b 17.727081
_cell_length_c 23.300104
_cell_angle_alpha 90.000000
_cell_angle_beta 90.000000
_cell_angle_gamma 90.000000
_cell_volume 9949.148538
_symmetry_space_group_name_H-M "F D D D"
_symmetry_group_IT_number 70
_space_group.IT_coordinate_system_code '2'
_symmetry_cell_setting 'orthorhombic'
loop_
_space_group_symop_operation_xyz
x,y,z
1/4-x,1/4-y,z
x,1/4-y,1/4-z
1/4-x,y,1/4-z
-x,-y,-z
3/4+x,3/4+y,-z
-x,3/4+y,3/4+z
3/4+x,-y,3/4+z
x,1/2+y,1/2+z
1/4-x,3/4-y,1/2+z
x,3/4-y,3/4-z
1/4-x,1/2+y,3/4-z
-x,1/2-y,1/2-z
3/4+x,1/4+y,1/2-z
-x,1/4+y,1/4+z
3/4+x,1/2-y,1/4+z
1/2+x,y,1/2+z
3/4-x,1/4-y,1/2+z
1/2+x,1/4-y,3/4-z
3/4-x,y,3/4-z
1/2-x,-y,1/2-z
1/4+x,3/4+y,1/2-z
1/2-x,3/4+y,1/4+z
1/4+x,-y,1/4+z
1/2+x,1/2+y,z
3/4-x,3/4-y,z
1/2+x,3/4-y,1/4-z
3/4-x,1/2+y,1/4-z
1/2-x,1/2-y,-z
1/4+x,1/4+y,-z
1/2-x,1/4+y,3/4+z
1/4+x,1/2-y,3/4+z
loop_
_atom_site_type_symbol
_atom_site_label
_atom_site_fract_x
_atom_site_fract_y
_atom_site_fract_z
Si Si1 0.001740 0.579850 0.467069
Si Si2 0.412687 0.496211 0.820905
Si Si3 0.213851 0.821812 0.321743
Si Si4 0.310452 0.294198 0.356289
Si Si5 0.071341 0.176687 0.473952
Si Si6 0.375000 0.375000 0.731099
Si Si7 0.281185 0.132984 0.404579
O O1 0.065285 0.606250 0.453596
O O2 0.000000 0.500000 0.500000
O O3 0.971098 0.633357 0.512623
O O4 0.972815 0.587758 0.405840
O O5 0.375000 0.478515 0.875000
O O6 0.474405 0.462817 0.830110
O O7 0.387140 0.449553 0.768789
O O8 0.419449 0.586589 0.813834
O O9 0.200415 0.875000 0.375000
O O10 0.172526 0.751826 0.314303
O O11 0.285860 0.375000 0.375000
O O12 0.375000 0.294852 0.375000
O O13 0.305802 0.294166 0.287516
O O14 0.287353 0.219781 0.387107
O O15 0.125000 0.125000 0.478296
O O16 0.022126 0.129668 0.444422
#
# Coordination Sequence:
#
# PCOD9514263 Si02
#       7
#    32  32  32  32  32  16  32
#     4  11  21  36  60  96 136 172 205 266 336 405
#     4  10  18  34  59  91 126 167 208 255 318 401
#     4  10  20  37  63  94 131 171 215 264 321 404
#     4  11  23  46  73  94 122 174 234 276 320 389
#     4  11  23  45  68  93 131 174 218 275 332 384
#     4  10  21  34  56  90 132 168 209 256 324 400
#     4  11  24  39  67  98 132 167 224 276 330 388
#
# _framework density 20.906312
#
# number of rings (size 3 to 8) (size 9 to 14) (size 15 to 20)
#    0.000    1.385    3.077    5.308    1.077    0.615 
#    0.000    0.769    0.000    0.000    0.000    0.000 
#    0.000    0.000    0.000    0.000    0.000    0.000 
#
# Total GULP energy -290257.906707 kJ/mol
# GULP energy per Si atom -5581.882821 kJ/mol
# Density = 2.085873 g / cm^3
# Si number density = 20.906312 Si / 1000 Ang^3
#
#
#
# Elastic Constant Matrix: (Units=GPa)
#
#
# Indices 1 2 3 4 5 6 
#
# 1 35.3698 25.5448 14.8862 0.0000 0.0000 0.0000
# 2 25.5448 156.9945 47.7425 0.0000 0.0000 0.0000
# 3 14.8862 47.7425 84.8677 0.0000 0.0000 0.0000
# 4 0.0000 0.0000 0.0000 52.1662 0.0000 0.0000
# 5 0.0000 0.0000 0.0000 0.0000 20.4460 0.0000
# 6 0.0000 0.0000 0.0000 0.0000 0.0000 16.6624
#
#
#
# Elastic Compliance Matrix: (Units=1/GPa)
#
#
# Indices 1 2 3 4 5 6 
#
# 1 0.032794 -0.004327 -0.003318 0.000000 0.000000 0.000000
# 2 -0.004327 0.008255 -0.003885 0.000000 0.000000 0.000000
# 3 -0.003318 -0.003885 0.014551 0.000000 0.000000 0.000000
# 4 0.000000 0.000000 0.000000 0.019170 0.000000 0.000000
# 5 0.000000 0.000000 0.000000 0.000000 0.048909 0.000000
# 6 0.000000 0.000000 0.000000 0.000000 0.000000 0.060015
#
#
# Mechanical properties :
#
#
# Convention : Reuss Voigt Hill
#
# Bulk Modulus (GPa) = 30.73155 50.39766 40.56461
# Shear Modulus (GPa) = 22.97784 30.45880 26.71832
#
# Velocity S-wave (km/s) = 3.31884 3.82110 3.57879
# Velocity P-wave (km/s) = 5.42382 6.60504 6.04336
#
# Compressibility (1/GPa) = 0.03253985
#
# Stress axis : x y z
#
# Youngs Moduli (GPa) = 30.49311 121.13686 68.72586
#
# Poissons Ratio (x) = 0.52415 0.22804
# Poissons Ratio (y) = 0.13194 0.26700
# Poissons Ratio (z) = 0.10118 0.47061
#
# Static dielectric constant tensor:
#      x y z
#    x 1.758170 0.000000 0.000000 
#    y 0.000000 1.824130 0.000000 
#    z 0.000000 0.000000 1.754280 
# 
# From -- ./inp_files/46932.got.cif
#   From: 2010.05.17/outbox.cif.g08.bks.cpg/sg70_24_cif.got.tgz:46932.got - 2010.06.03 15:57:51.
