data_PCOD9514667
_publ_section_title
;
Structure prediction by ZEFSAII (Michael W. Deem and Ramdas Pophale) SiO2 
 PCOD9514667
Probable space group: F D D D
;
_chemical_formula_sum "Si O2"
_cell_formula_units_Z 168
_cell_length_a 14.061406
_cell_length_b 26.749895
_cell_length_c 21.055925
_cell_angle_alpha 90.000000
_cell_angle_beta 90.000000
_cell_angle_gamma 90.000000
_cell_volume 7919.999508
_symmetry_space_group_name_H-M "F D D D"
_symmetry_group_IT_number 70
_space_group.IT_coordinate_system_code '2'
_symmetry_cell_setting 'orthorhombic'
loop_
_space_group_symop_operation_xyz
x,y,z
1/4-x,1/4-y,z
x,1/4-y,1/4-z
1/4-x,y,1/4-z
-x,-y,-z
3/4+x,3/4+y,-z
-x,3/4+y,3/4+z
3/4+x,-y,3/4+z
x,1/2+y,1/2+z
1/4-x,3/4-y,1/2+z
x,3/4-y,3/4-z
1/4-x,1/2+y,3/4-z
-x,1/2-y,1/2-z
3/4+x,1/4+y,1/2-z
-x,1/4+y,1/4+z
3/4+x,1/2-y,1/4+z
1/2+x,y,1/2+z
3/4-x,1/4-y,1/2+z
1/2+x,1/4-y,3/4-z
3/4-x,y,3/4-z
1/2-x,-y,1/2-z
1/4+x,3/4+y,1/2-z
1/2-x,3/4+y,1/4+z
1/4+x,-y,1/4+z
1/2+x,1/2+y,z
3/4-x,3/4-y,z
1/2+x,3/4-y,1/4-z
3/4-x,1/2+y,1/4-z
1/2-x,1/2-y,-z
1/4+x,1/4+y,-z
1/2-x,1/4+y,3/4+z
1/4+x,1/2-y,3/4+z
loop_
_atom_site_type_symbol
_atom_site_label
_atom_site_fract_x
_atom_site_fract_y
_atom_site_fract_z
Si Si1 0.606674 0.982637 0.300337
Si Si2 0.625000 0.625000 0.625000
Si Si3 0.608164 0.706991 0.329390
Si Si4 0.543422 0.177772 0.242585
Si Si5 0.902252 0.434162 0.303118
Si Si6 0.012651 0.869831 0.130379
O O1 0.693962 0.955454 0.266981
O O2 0.512057 0.950094 0.294266
O O3 0.618616 0.995423 0.375147
O O4 0.620044 0.036839 0.266418
O O5 0.565068 0.657523 0.673440
O O6 0.600618 0.713219 0.254140
O O7 0.701704 0.672216 0.342558
O O8 0.520668 0.673233 0.354017
O O9 0.521734 0.137768 0.297342
O O10 0.875000 0.448119 0.375000
O O11 0.875000 0.375000 0.295734
O O12 0.125000 0.862536 0.125000
#
# Coordination Sequence:
#
# PCOD9514667 Si02
#       6
#    32   8  32  32  32  32
#     4  10  23  43  64  97 132 173 228 271 331 407
#     4  12  24  40  60 100 142 168 210 296 348 400
#     4  10  21  40  64  96 127 173 220 274 325 398
#     4  10  23  40  66  98 131 174 218 281 344 396
#     4  11  24  42  67  95 136 174 218 277 331 403
#     4  10  19  39  68  93 126 175 221 267 329 404
#
# _framework density 21.212122000000001
#
# number of rings (size 3 to 8) (size 9 to 14) (size 15 to 20)
#    0.000    1.714    1.905    3.429    2.667    3.048 
#    3.429    0.000    0.000    0.000    0.000    0.000 
#    0.000    0.000    0.000    0.000    0.000    0.000 
#
# Total GULP energy -234262.356048 kJ/mol
# GULP energy per Si atom -5577.675144 kJ/mol
# Density = 2.116384 g / cm^3
# Si number density = 21.212122 Si / 1000 Ang^3
#
#
#
# Elastic Constant Matrix: (Units=GPa)
#
#
# Indices 1 2 3 4 5 6 
#
# 1 132.4849 49.6614 24.0236 0.0000 0.0000 0.0000
# 2 49.6614 47.7672 27.8123 0.0000 0.0000 0.0000
# 3 24.0236 27.8123 181.5057 0.0000 0.0000 0.0000
# 4 0.0000 0.0000 0.0000 30.8246 0.0000 0.0000
# 5 0.0000 0.0000 0.0000 0.0000 23.3857 0.0000
# 6 0.0000 0.0000 0.0000 0.0000 0.0000 32.3928
#
#
#
# Elastic Compliance Matrix: (Units=1/GPa)
#
#
# Indices 1 2 3 4 5 6 
#
# 1 0.012390 -0.013095 0.000367 0.000000 0.000000 0.000000
# 2 -0.013095 0.036825 -0.003910 0.000000 0.000000 0.000000
# 3 0.000367 -0.003910 0.006060 0.000000 0.000000 0.000000
# 4 0.000000 0.000000 0.000000 0.032442 0.000000 0.000000
# 5 0.000000 0.000000 0.000000 0.000000 0.042761 0.000000
# 6 0.000000 0.000000 0.000000 0.000000 0.000000 0.030871
#
#
# Mechanical properties :
#
#
# Convention : Reuss Voigt Hill
#
# Bulk Modulus (GPa) = 45.45502 62.75026 54.10264
# Shear Modulus (GPa) = 24.75757 34.67131 29.71444
#
# Velocity S-wave (km/s) = 3.42005 4.04729 3.74682
# Velocity P-wave (km/s) = 6.08860 7.17546 6.65425
#
# Compressibility (1/GPa) = 0.02199977
#
# Stress axis : x y z
#
# Youngs Moduli (GPa) = 80.70948 27.15519 165.01612
#
# Poissons Ratio (x) = 0.35559 -0.06050
# Poissons Ratio (y) = 1.05688 0.64515
# Poissons Ratio (z) = -0.02959 0.10617
#
# Static dielectric constant tensor:
#      x y z
#    x 1.740200 0.000000 0.000000 
#    y 0.000000 1.890920 0.000000 
#    z 0.000000 0.000000 1.780660 
# 
# From -- ./inp_files/42973.got.cif
#   From: 2010.05.17/outbox.cif.g08.bks.cpg/sg70_22_cif.got.tgz:42973.got - 2010.06.03 15:57:51.
