data_PCOD9514230
_publ_section_title
;
Structure prediction by ZEFSAII (Michael W. Deem and Ramdas Pophale) SiO2 
 PCOD9514230
Probable space group: F D D D
;
_chemical_formula_sum "Si O2"
_cell_formula_units_Z 160
_cell_length_a 22.176472
_cell_length_b 23.938967
_cell_length_c 18.031396
_cell_angle_alpha 90.000000
_cell_angle_beta 90.000000
_cell_angle_gamma 90.000000
_cell_volume 9572.540531
_symmetry_space_group_name_H-M "F D D D"
_symmetry_group_IT_number 70
_space_group.IT_coordinate_system_code '2'
_symmetry_cell_setting 'orthorhombic'
loop_
_space_group_symop_operation_xyz
x,y,z
1/4-x,1/4-y,z
x,1/4-y,1/4-z
1/4-x,y,1/4-z
-x,-y,-z
3/4+x,3/4+y,-z
-x,3/4+y,3/4+z
3/4+x,-y,3/4+z
x,1/2+y,1/2+z
1/4-x,3/4-y,1/2+z
x,3/4-y,3/4-z
1/4-x,1/2+y,3/4-z
-x,1/2-y,1/2-z
3/4+x,1/4+y,1/2-z
-x,1/4+y,1/4+z
3/4+x,1/2-y,1/4+z
1/2+x,y,1/2+z
3/4-x,1/4-y,1/2+z
1/2+x,1/4-y,3/4-z
3/4-x,y,3/4-z
1/2-x,-y,1/2-z
1/4+x,3/4+y,1/2-z
1/2-x,3/4+y,1/4+z
1/4+x,-y,1/4+z
1/2+x,1/2+y,z
3/4-x,3/4-y,z
1/2+x,3/4-y,1/4-z
3/4-x,1/2+y,1/4-z
1/2-x,1/2-y,-z
1/4+x,1/4+y,-z
1/2-x,1/4+y,3/4+z
1/4+x,1/2-y,3/4+z
loop_
_atom_site_type_symbol
_atom_site_label
_atom_site_fract_x
_atom_site_fract_y
_atom_site_fract_z
Si Si1 0.291876 0.151227 0.868741
Si Si2 0.419747 0.707096 0.124336
Si Si3 0.328112 0.826582 0.563241
Si Si4 0.870878 0.119544 0.501479
Si Si5 0.692429 0.533027 0.150415
O O1 0.222004 0.146132 0.884372
O O2 0.316296 0.134349 0.788411
O O3 0.325614 0.116557 0.932313
O O4 0.307621 0.216217 0.886844
O O5 0.402842 0.770359 0.144251
O O6 0.400099 0.669317 0.194168
O O7 0.492909 0.699648 0.114245
O O8 0.385142 0.684437 0.052652
O O9 0.375000 0.875000 0.545942
O O10 0.302104 0.802660 0.485569
O O11 0.625000 0.552560 0.125000
#
# Coordination Sequence:
#
# PCOD9514230 Si02
#       5
#    32  32  32  32  32
#     4  10  18  36  51  77 105 148 172 220 264 325
#     4  10  20  34  52  83 105 143 181 221 255 335
#     4  11  22  34  51  81 115 140 174 220 276 323
#     4  10  18  33  55  70 108 143 187 208 260 314
#     4  11  19  32  52  81 123 140 161 207 281 340
#
# _framework density 16.714476999999999
#
# number of rings (size 3 to 8) (size 9 to 14) (size 15 to 20)
#    0.000    1.600    6.000    1.200    2.800    0.400 
#    0.000    1.000    0.000    0.000    0.000    0.000 
#    0.000    0.000    0.000    0.000    0.000    0.000 
#
# Total GULP energy -222678.580615 kJ/mol
# GULP energy per Si atom -5566.964515 kJ/mol
# Density = 1.667643 g / cm^3
# Si number density = 16.714477 Si / 1000 Ang^3
#
#
#
# Elastic Constant Matrix: (Units=GPa)
#
#
# Indices 1 2 3 4 5 6 
#
# 1 50.1067 19.5724 33.9901 0.0000 0.0000 0.0000
# 2 19.5724 60.9125 29.2754 0.0000 0.0000 0.0000
# 3 33.9901 29.2754 93.7234 0.0000 0.0000 0.0000
# 4 0.0000 0.0000 0.0000 26.1363 0.0000 0.0000
# 5 0.0000 0.0000 0.0000 0.0000 30.4189 0.0000
# 6 0.0000 0.0000 0.0000 0.0000 0.0000 13.5623
#
#
#
# Elastic Compliance Matrix: (Units=1/GPa)
#
#
# Indices 1 2 3 4 5 6 
#
# 1 0.027601 -0.004775 -0.008518 0.000000 0.000000 0.000000
# 2 -0.004775 0.020143 -0.004560 0.000000 0.000000 0.000000
# 3 -0.008518 -0.004560 0.015183 0.000000 0.000000 0.000000
# 4 0.000000 0.000000 0.000000 0.038261 0.000000 0.000000
# 5 0.000000 0.000000 0.000000 0.000000 0.032874 0.000000
# 6 0.000000 0.000000 0.000000 0.000000 0.000000 0.073734
#
#
# Mechanical properties :
#
#
# Convention : Reuss Voigt Hill
#
# Bulk Modulus (GPa) = 36.73680 41.15759 38.94720
# Shear Modulus (GPa) = 19.79597 22.15048 20.97323
#
# Velocity S-wave (km/s) = 3.44519 3.64432 3.54615
# Velocity P-wave (km/s) = 6.15244 6.51041 6.33395
#
# Compressibility (1/GPa) = 0.02722066
#
# Stress axis : x y z
#
# Youngs Moduli (GPa) = 36.23057 49.64532 65.86103
#
# Poissons Ratio (x) = 0.23704 0.56104
# Poissons Ratio (y) = 0.17299 0.30034
# Poissons Ratio (z) = 0.30863 0.22640
#
# Static dielectric constant tensor:
#      x y z
#    x 1.618210 0.000000 0.000000 
#    y 0.000000 1.584580 0.000000 
#    z 0.000000 0.000000 1.556420 
# 
# From -- ./inp_files/28860.got.cif
#   From: 2010.05.17/outbox.cif.g08.bks.cpg/sg70_15_cif.got.tgz:28860.got - 2010.06.03 15:57:51.
