data_PCOD9514009
_publ_section_title
;
Structure prediction by ZEFSAII (Michael W. Deem and Ramdas Pophale) SiO2 
 PCOD9514009
Probable space group: F M M M
;
_chemical_formula_sum "Si O2"
_cell_formula_units_Z 36
_cell_length_a 18.000000
_cell_length_b 30.000000
_cell_length_c 15.000000
_cell_angle_alpha 90.000000
_cell_angle_beta 90.000000
_cell_angle_gamma 90.000000
_cell_volume 8100.000000
_symmetry_space_group_name_H-M "F M M M"
_symmetry_group_IT_number 69
_symmetry_cell_setting 'orthorhombic'
loop_
_space_group_symop_operation_xyz
x,y,z
-x,-y,z
x,-y,-z
-x,y,-z
-x,-y,-z
x,y,-z
-x,y,z
x,-y,z
x,1/2+y,1/2+z
-x,1/2-y,1/2+z
x,1/2-y,1/2-z
-x,1/2+y,1/2-z
-x,1/2-y,1/2-z
x,1/2+y,1/2-z
-x,1/2+y,1/2+z
x,1/2-y,1/2+z
1/2+x,y,1/2+z
1/2-x,-y,1/2+z
1/2+x,-y,1/2-z
1/2-x,y,1/2-z
1/2-x,-y,1/2-z
1/2+x,y,1/2-z
1/2-x,y,1/2+z
1/2+x,-y,1/2+z
1/2+x,1/2+y,z
1/2-x,1/2-y,z
1/2+x,1/2-y,-z
1/2-x,1/2+y,-z
1/2-x,1/2-y,-z
1/2+x,1/2+y,-z
1/2-x,1/2+y,z
1/2+x,1/2-y,z
loop_
_atom_site_type_symbol
_atom_site_label
_atom_site_fract_x
_atom_site_fract_y
_atom_site_fract_z
Si Si1 0.909904 0.447785 0.800267
Si Si2 0.176929 0.220674 0.894776
Si Si3 0.584128 0.446050 0.500000
Si Si4 0.163853 0.861910 0.238835
Si Si5 0.587760 0.192098 0.102669
O O1 0.889519 0.500000 0.782013
O O2 0.879523 0.409212 0.735120
O O3 0.000000 0.446388 0.801317
O O4 0.883691 0.435693 0.902138
O O5 0.250000 0.250000 0.866879
O O6 0.162208 0.175809 0.839062
O O7 0.110251 0.256161 0.884702
O O8 0.186457 0.210380 0.000000
O O9 0.578919 0.500000 0.500000
O O10 0.500000 0.427380 0.500000
O O11 0.250000 0.873032 0.250000
O O12 0.131726 0.836817 0.325815
O O13 0.500000 0.185754 0.114186
O O14 0.607577 0.180491 0.000000
#
# Coordination Sequence:
#
# PCOD9514009 Si02
#       5
#    32  32  16  32  32
#     4   9  19  36  57  83 118 156 195 246 299 349
#     4  10  21  40  59  78 116 163 202 240 292 353
#     4   7  12  28  54  80 109 148 187 231 296 353
#     4  12  23  33  57  88 117 157 198 241 298 359
#     4  10  22  38  59  88 119 152 195 248 299 351
#
# _framework density 4.4444439999999998
#
# number of rings (size 3 to 8) (size 9 to 14) (size 15 to 20)
#    0.000    2.111    2.222    2.667    1.556    3.111 
#    0.000    0.000    0.000    0.667    0.000    1.556 
#    0.000    0.000    0.000    0.000    0.000    0.000 
#
# Total GULP energy -200716.203119 kJ/mol
# GULP energy per Si atom -5575.450087 kJ/mol
# Density = 0.443433 g / cm^3
# Si number density = 4.444444 Si / 1000 Ang^3
#
#
#
# Elastic Constant Matrix: (Units=GPa)
#
#
# Indices 1 2 3 4 5 6 
#
# 1 64.3955 32.6524 31.6672 0.0000 0.0000 0.0000
# 2 32.6524 136.3771 61.1373 0.0000 0.0000 0.0000
# 3 31.6672 61.1373 75.6555 0.0000 0.0000 0.0000
# 4 0.0000 0.0000 0.0000 30.2459 0.0000 0.0000
# 5 0.0000 0.0000 0.0000 0.0000 23.4548 0.0000
# 6 0.0000 0.0000 0.0000 0.0000 0.0000 34.5350
#
#
#
# Elastic Compliance Matrix: (Units=1/GPa)
#
#
# Indices 1 2 3 4 5 6 
#
# 1 0.019776 -0.001606 -0.006980 0.000000 0.000000 0.000000
# 2 -0.001606 0.011628 -0.008725 0.000000 0.000000 0.000000
# 3 -0.006980 -0.008725 0.023190 0.000000 0.000000 0.000000
# 4 0.000000 0.000000 0.000000 0.033062 0.000000 0.000000
# 5 0.000000 0.000000 0.000000 0.000000 0.042635 0.000000
# 6 0.000000 0.000000 0.000000 0.000000 0.000000 0.028956
#
#
# Mechanical properties :
#
#
# Convention : Reuss Voigt Hill
#
# Bulk Modulus (GPa) = 50.06743 58.59354 54.33048
# Shear Modulus (GPa) = 24.93442 27.71190 26.32316
#
# Velocity S-wave (km/s) = 3.74914 3.95244 3.85213
# Velocity P-wave (km/s) = 6.85314 7.33890 7.10017
#
# Compressibility (1/GPa) = 0.01997307
#
# Stress axis : x y z
#
# Youngs Moduli (GPa) = 50.56707 85.99684 43.12231
#
# Poissons Ratio (x) = 0.13809 0.30099
# Poissons Ratio (y) = 0.08120 0.37623
# Poissons Ratio (z) = 0.35295 0.75030
#
# Static dielectric constant tensor:
#      x y z
#    x 1.622620 0.000000 0.000000 
#    y 0.000000 1.628410 0.000000 
#    z 0.000000 0.000000 1.634780 
# 
# From -- ./inp_files/15523.got.cif
#   From: 2010.05.17/outbox.ucp.g08.bks.cvg/sg69_8_cif.got.tgz:15523.got - 2010.06.11 16:51:34.
