data_PCOD9514493
_publ_section_title
;
Structure prediction by ZEFSAII (Michael W. Deem and Ramdas Pophale) SiO2 
 PCOD9514493
Probable space group: F D D D
;
_chemical_formula_sum "Si O2"
_cell_formula_units_Z 176
_cell_length_a 10.313583
_cell_length_b 28.156245
_cell_length_c 29.832193
_cell_angle_alpha 90.000000
_cell_angle_beta 90.000000
_cell_angle_gamma 90.000000
_cell_volume 8663.023322
_symmetry_space_group_name_H-M "F D D D"
_symmetry_group_IT_number 70
_space_group.IT_coordinate_system_code '2'
_symmetry_cell_setting 'orthorhombic'
loop_
_space_group_symop_operation_xyz
x,y,z
1/4-x,1/4-y,z
x,1/4-y,1/4-z
1/4-x,y,1/4-z
-x,-y,-z
3/4+x,3/4+y,-z
-x,3/4+y,3/4+z
3/4+x,-y,3/4+z
x,1/2+y,1/2+z
1/4-x,3/4-y,1/2+z
x,3/4-y,3/4-z
1/4-x,1/2+y,3/4-z
-x,1/2-y,1/2-z
3/4+x,1/4+y,1/2-z
-x,1/4+y,1/4+z
3/4+x,1/2-y,1/4+z
1/2+x,y,1/2+z
3/4-x,1/4-y,1/2+z
1/2+x,1/4-y,3/4-z
3/4-x,y,3/4-z
1/2-x,-y,1/2-z
1/4+x,3/4+y,1/2-z
1/2-x,3/4+y,1/4+z
1/4+x,-y,1/4+z
1/2+x,1/2+y,z
3/4-x,3/4-y,z
1/2+x,3/4-y,1/4-z
3/4-x,1/2+y,1/4-z
1/2-x,1/2-y,-z
1/4+x,1/4+y,-z
1/2-x,1/4+y,3/4+z
1/4+x,1/2-y,3/4+z
loop_
_atom_site_type_symbol
_atom_site_label
_atom_site_fract_x
_atom_site_fract_y
_atom_site_fract_z
Si Si1 0.657132 0.375000 0.875000
Si Si2 0.759891 0.311795 0.041086
Si Si3 0.652184 0.238729 0.674726
Si Si4 0.050164 0.791062 0.312121
Si Si5 0.000340 0.158968 0.211898
Si Si6 0.186964 0.410602 0.546257
O O1 0.729665 0.419035 0.849727
O O2 0.568558 0.355126 0.834672
O O3 0.732764 0.260885 0.063843
O O4 0.690739 0.356774 0.063964
O O5 0.913237 0.323669 0.040242
O O6 0.723301 0.309074 0.988465
O O7 0.625000 0.221368 0.625000
O O8 0.797886 0.222027 0.684762
O O9 0.556691 0.211666 0.707681
O O10 0.631016 0.295053 0.676735
O O11 0.125000 0.125000 0.219650
O O12 0.894016 0.157508 0.250560
#
# Coordination Sequence:
#
# PCOD9514493 Si02
#       6
#    16  32  32  32  32  32
#     4  12  19  32  59  92 114 147 187 250 310 352
#     4   9  19  38  56  82 111 161 204 236 294 376
#     4  11  20  34  57  85 116 155 197 249 301 363
#     4  10  19  34  61  84 115 150 194 244 306 361
#     4  12  20  34  56  88 121 149 191 253 316 362
#     4  10  21  35  57  81 113 160 207 242 290 365
#
# _framework density 20.316233
#
# number of rings (size 3 to 8) (size 9 to 14) (size 15 to 20)
#    0.000    1.455    5.455    0.818    0.000    0.000 
#    0.000    1.818    8.000    6.545    0.000    0.000 
#    0.000    0.000    0.000    0.000    0.000    0.000 
#
# Total GULP energy -245232.673026 kJ/mol
# GULP energy per Si atom -5573.469841 kJ/mol
# Density = 2.026999 g / cm^3
# Si number density = 20.316233 Si / 1000 Ang^3
#
#
#
# Elastic Constant Matrix: (Units=GPa)
#
#
# Indices 1 2 3 4 5 6 
#
# 1 12.2957 22.2034 6.7933 0.0000 0.0000 0.0000
# 2 22.2034 189.7442 31.3579 0.0000 0.0000 0.0000
# 3 6.7933 31.3579 47.3221 0.0000 0.0000 0.0000
# 4 0.0000 0.0000 0.0000 39.7850 0.0000 0.0000
# 5 0.0000 0.0000 0.0000 0.0000 19.0766 0.0000
# 6 0.0000 0.0000 0.0000 0.0000 0.0000 -28.3018
#
#
#
# Elastic Compliance Matrix: (Units=1/GPa)
#
#
# Indices 1 2 3 4 5 6 
#
# 1 0.105642 -0.011068 -0.007831 0.000000 0.000000 0.000000
# 2 -0.011068 0.007078 -0.003101 0.000000 0.000000 0.000000
# 3 -0.007831 -0.003101 0.024311 0.000000 0.000000 0.000000
# 4 0.000000 0.000000 0.000000 0.025135 0.000000 0.000000
# 5 0.000000 0.000000 0.000000 0.000000 0.052420 0.000000
# 6 0.000000 0.000000 0.000000 0.000000 0.000000 -0.035333
#
#
# Mechanical properties :
#
#
# Convention : Reuss Voigt Hill
#
# Bulk Modulus (GPa) = 10.74923 41.11903 25.93413
# Shear Modulus (GPa) = 19.66463 18.71245 19.18854
#
# Velocity S-wave (km/s) = 3.11453 3.03819 3.07659
# Velocity P-wave (km/s) = 4.27038 5.70884 5.04118
#
# Compressibility (1/GPa) = 0.09302994
#
# Stress axis : x y z
#
# Youngs Moduli (GPa) = 9.46595 141.28457 41.13350
#
# Poissons Ratio (x) = 1.56370 0.32213
# Poissons Ratio (y) = 0.10477 0.12757
# Poissons Ratio (z) = 0.07413 0.43817
#
# Static dielectric constant tensor:
#      x y z
#    x 1.724610 0.000000 0.000000 
#    y 0.000000 1.815460 0.000000 
#    z 0.000000 0.000000 1.675420 
# 
# From -- ./inp_files/65073.got.cif
#   From: 2010.05.17/outbox.cif.g08.bks.cpg/sg70_33_cif.got.tgz:65073.got - 2010.06.03 15:57:51.
