data_PCOD9514016
_publ_section_title
;
Structure prediction by ZEFSAII (Michael W. Deem and Ramdas Pophale) SiO2 
 PCOD9514016
Probable space group: F M M M
;
_chemical_formula_sum "Si O2"
_cell_formula_units_Z 40
_cell_length_a 27.000000
_cell_length_b 18.000000
_cell_length_c 18.000000
_cell_angle_alpha 90.000000
_cell_angle_beta 90.000000
_cell_angle_gamma 90.000000
_cell_volume 8748.000000
_symmetry_space_group_name_H-M "F M M M"
_symmetry_group_IT_number 69
_symmetry_cell_setting 'orthorhombic'
loop_
_space_group_symop_operation_xyz
x,y,z
-x,-y,z
x,-y,-z
-x,y,-z
-x,-y,-z
x,y,-z
-x,y,z
x,-y,z
x,1/2+y,1/2+z
-x,1/2-y,1/2+z
x,1/2-y,1/2-z
-x,1/2+y,1/2-z
-x,1/2-y,1/2-z
x,1/2+y,1/2-z
-x,1/2+y,1/2+z
x,1/2-y,1/2+z
1/2+x,y,1/2+z
1/2-x,-y,1/2+z
1/2+x,-y,1/2-z
1/2-x,y,1/2-z
1/2-x,-y,1/2-z
1/2+x,y,1/2-z
1/2-x,y,1/2+z
1/2+x,-y,1/2+z
1/2+x,1/2+y,z
1/2-x,1/2-y,z
1/2+x,1/2-y,-z
1/2-x,1/2+y,-z
1/2-x,1/2-y,-z
1/2+x,1/2+y,-z
1/2-x,1/2+y,z
1/2+x,1/2-y,z
loop_
_atom_site_type_symbol
_atom_site_label
_atom_site_fract_x
_atom_site_fract_y
_atom_site_fract_z
Si Si1 0.922882 0.910203 0.415693
Si Si2 0.186320 0.587830 0.131661
Si Si3 0.055701 0.661793 0.759467
Si Si4 0.221324 0.825219 0.914471
Si Si5 0.344949 0.090190 0.703290
O O1 0.939933 0.894008 0.500000
O O2 0.864468 0.891738 0.409327
O O3 0.944353 0.865130 0.345833
O O4 0.929221 0.000000 0.403909
O O5 0.187826 0.500000 0.132789
O O6 0.234104 0.616601 0.090720
O O7 0.182535 0.609790 0.218630
O O8 0.066717 0.750000 0.750000
O O9 0.098234 0.614006 0.718852
O O10 0.000000 0.649378 0.730254
O O11 0.250000 0.750000 0.889497
O O12 0.179179 0.859363 0.861208
O O13 0.204678 0.814797 0.000000
O O14 0.340852 0.000000 0.691052
#
# Coordination Sequence:
#
# PCOD9514016 Si02
#       5
#    32  32  32  32  32
#     4   9  18  33  58  90 119 149 186 237 301 360
#     4   9  18  34  55  80 113 150 186 224 278 350
#     4  10  22  39  59  85 116 156 202 247 299 355
#     4  11  24  36  52  83 116 152 194 238 290 343
#     4  10  22  38  59  86 114 153 198 238 287 351
#
# _framework density 4.5724739999999997
#
# number of rings (size 3 to 8) (size 9 to 14) (size 15 to 20)
#    0.000    2.200    0.000    3.600    5.600    6.800 
#    0.000    1.000    0.000    1.800    0.000    1.400 
#    0.000    0.000    0.000    0.000    0.000    0.000 
#
# Total GULP energy -222998.278553 kJ/mol
# GULP energy per Si atom -5574.956964 kJ/mol
# Density = 0.456207 g / cm^3
# Si number density = 4.572474 Si / 1000 Ang^3
#
#
#
# Elastic Constant Matrix: (Units=GPa)
#
#
# Indices 1 2 3 4 5 6 
#
# 1 86.4861 27.0130 38.2970 0.0000 0.0000 0.0000
# 2 27.0130 51.6407 62.8112 0.0000 0.0000 0.0000
# 3 38.2970 62.8112 104.2576 0.0000 0.0000 0.0000
# 4 0.0000 0.0000 0.0000 27.7717 0.0000 0.0000
# 5 0.0000 0.0000 0.0000 0.0000 3.9024 0.0000
# 6 0.0000 0.0000 0.0000 0.0000 0.0000 47.3054
#
#
#
# Elastic Compliance Matrix: (Units=1/GPa)
#
#
# Indices 1 2 3 4 5 6 
#
# 1 0.014027 -0.004005 -0.002739 0.000000 0.000000 0.000000
# 2 -0.004005 0.073611 -0.042876 0.000000 0.000000 0.000000
# 3 -0.002739 -0.042876 0.036429 0.000000 0.000000 0.000000
# 4 0.000000 0.000000 0.000000 0.036008 0.000000 0.000000
# 5 0.000000 0.000000 0.000000 0.000000 0.256256 0.000000
# 6 0.000000 0.000000 0.000000 0.000000 0.000000 0.021139
#
#
# Mechanical properties :
#
#
# Convention : Reuss Voigt Hill
#
# Bulk Modulus (GPa) = 40.28290 55.40296 47.84293
# Shear Modulus (GPa) = 9.17456 23.41344 16.29400
#
# Velocity S-wave (km/s) = 2.24211 3.58177 2.98799
# Velocity P-wave (km/s) = 5.36426 6.88932 6.17406
#
# Compressibility (1/GPa) = 0.02482443
#
# Stress axis : x y z
#
# Youngs Moduli (GPa) = 71.29322 13.58502 27.45059
#
# Poissons Ratio (x) = 0.05441 0.07519
# Poissons Ratio (y) = 0.28556 1.17698
# Poissons Ratio (z) = 0.19529 0.58247
#
# Static dielectric constant tensor:
#      x y z
#    x 1.593010 0.000000 0.000000 
#    y 0.000000 1.663400 0.000000 
#    z 0.000000 0.000000 1.644310 
# 
# From -- ./inp_files/23102.got.cif
#   From: 2010.05.17/outbox.ucp.g08.bks.cvg/sg69_12_cif.got.tgz:23102.got - 2010.06.11 16:51:34.
