data_PCOD9514311
_publ_section_title
;
Structure prediction by ZEFSAII (Michael W. Deem and Ramdas Pophale) SiO2 
 PCOD9514311
Probable space group: F D D D
;
_chemical_formula_sum "Si O2"
_cell_formula_units_Z 176
_cell_length_a 14.602914
_cell_length_b 19.293760
_cell_length_c 33.148789
_cell_angle_alpha 90.000000
_cell_angle_beta 90.000000
_cell_angle_gamma 90.000000
_cell_volume 9339.509469
_symmetry_space_group_name_H-M "F D D D"
_symmetry_group_IT_number 70
_space_group.IT_coordinate_system_code '2'
_symmetry_cell_setting 'orthorhombic'
loop_
_space_group_symop_operation_xyz
x,y,z
1/4-x,1/4-y,z
x,1/4-y,1/4-z
1/4-x,y,1/4-z
-x,-y,-z
3/4+x,3/4+y,-z
-x,3/4+y,3/4+z
3/4+x,-y,3/4+z
x,1/2+y,1/2+z
1/4-x,3/4-y,1/2+z
x,3/4-y,3/4-z
1/4-x,1/2+y,3/4-z
-x,1/2-y,1/2-z
3/4+x,1/4+y,1/2-z
-x,1/4+y,1/4+z
3/4+x,1/2-y,1/4+z
1/2+x,y,1/2+z
3/4-x,1/4-y,1/2+z
1/2+x,1/4-y,3/4-z
3/4-x,y,3/4-z
1/2-x,-y,1/2-z
1/4+x,3/4+y,1/2-z
1/2-x,3/4+y,1/4+z
1/4+x,-y,1/4+z
1/2+x,1/2+y,z
3/4-x,3/4-y,z
1/2+x,3/4-y,1/4-z
3/4-x,1/2+y,1/4-z
1/2-x,1/2-y,-z
1/4+x,1/4+y,-z
1/2-x,1/4+y,3/4+z
1/4+x,1/2-y,3/4+z
loop_
_atom_site_type_symbol
_atom_site_label
_atom_site_fract_x
_atom_site_fract_y
_atom_site_fract_z
Si Si1 0.731584 0.140634 0.804718
Si Si2 0.783659 0.012356 0.519237
Si Si3 0.386245 0.711224 0.420242
Si Si4 0.274985 0.909757 0.645947
Si Si5 0.375000 0.875000 0.981730
Si Si6 0.223439 0.466419 0.293442
O O1 0.625000 0.125000 0.796811
O O2 0.766299 0.193117 0.770776
O O3 0.793605 0.070967 0.810363
O O4 0.737512 0.174756 0.848896
O O5 0.694491 0.004590 0.547258
O O6 0.825619 0.935878 0.508056
O O7 0.866562 0.050915 0.542069
O O8 0.375000 0.743529 0.375000
O O9 0.450402 0.645168 0.410539
O O10 0.375000 0.875000 0.650829
O O11 0.264143 0.977066 0.672533
O O12 0.294330 0.845276 0.954271
O O13 0.250000 0.500000 0.250000
#
# Coordination Sequence:
#
# PCOD9514311 Si02
#       6
#    32  32  32  32  16  32
#     4  10  23  37  55  81 113 155 201 251 293 332
#     4  11  19  35  57  84 117 152 196 245 292 356
#     4  10  19  33  57  86 111 146 202 247 292 346
#     4  10  18  36  58  84 114 150 195 241 287 354
#     4  10  20  32  53  92 122 152 184 226 314 370
#     4  10  19  30  55  84 120 154 185 230 291 363
#
# _framework density 18.844673
#
# number of rings (size 3 to 8) (size 9 to 14) (size 15 to 20)
#    0.000    1.818    1.818    5.455    1.273    0.727 
#    0.000    1.818    0.000    0.545    0.000    0.000 
#    0.000    0.000    0.000    0.000    0.000    0.000 
#
# Total GULP energy -245339.851065 kJ/mol
# GULP energy per Si atom -5575.905706 kJ/mol
# Density = 1.880178 g / cm^3
# Si number density = 18.844673 Si / 1000 Ang^3
#
#
#
# Elastic Constant Matrix: (Units=GPa)
#
#
# Indices 1 2 3 4 5 6 
#
# 1 96.8919 13.3236 6.9085 0.0000 0.0000 0.0000
# 2 13.3236 29.8654 27.9690 0.0000 0.0000 0.0000
# 3 6.9085 27.9690 78.9992 0.0000 0.0000 0.0000
# 4 0.0000 0.0000 0.0000 1378.0388 0.0000 0.0000
# 5 0.0000 0.0000 0.0000 0.0000 31.7741 0.0000
# 6 0.0000 0.0000 0.0000 0.0000 0.0000 31.8948
#
#
#
# Elastic Compliance Matrix: (Units=1/GPa)
#
#
# Indices 1 2 3 4 5 6 
#
# 1 0.011067 -0.006030 0.001167 0.000000 0.000000 0.000000
# 2 -0.006030 0.053378 -0.018371 0.000000 0.000000 0.000000
# 3 0.001167 -0.018371 0.019060 0.000000 0.000000 0.000000
# 4 0.000000 0.000000 0.000000 0.000726 0.000000 0.000000
# 5 0.000000 0.000000 0.000000 0.000000 0.031472 0.000000
# 6 0.000000 0.000000 0.000000 0.000000 0.000000 0.031353
#
#
# Mechanical properties :
#
#
# Convention : Reuss Voigt Hill
#
# Bulk Modulus (GPa) = 26.99962 33.57318 30.28640
# Shear Modulus (GPa) = 24.28735 298.84524 161.56630
#
# Velocity S-wave (km/s) = 3.59391 12.60665 9.26941
# Velocity P-wave (km/s) = 5.61962 15.15777 11.43106
#
# Compressibility (1/GPa) = 0.03703756
#
# Stress axis : x y z
#
# Youngs Moduli (GPa) = 90.36063 18.73443 52.46528
#
# Poissons Ratio (x) = 0.11297 -0.06123
# Poissons Ratio (y) = 0.54488 0.96382
# Poissons Ratio (z) = -0.10546 0.34416
#
# Static dielectric constant tensor:
#      x y z
#    x 1.722180 0.000000 0.000000 
#    y 0.000000 1.660080 0.000000 
#    z 0.000000 0.000000 1.667240 
# 
# From -- ./inp_files/65875.got.cif
#   From: 2010.05.17/outbox.cif.g08.bks.cpg/sg70_33_cif.got.tgz:65875.got - 2010.06.03 15:57:51.
