data_PCOD9514725
_publ_section_title
;
Structure prediction by ZEFSAII (Michael W. Deem and Ramdas Pophale) SiO2 
 PCOD9514725
Probable space group: F D D D
;
_chemical_formula_sum "Si O2"
_cell_formula_units_Z 96
_cell_length_a 8.102908
_cell_length_b 13.688791
_cell_length_c 34.589277
_cell_angle_alpha 90.000000
_cell_angle_beta 90.000000
_cell_angle_gamma 90.000000
_cell_volume 3836.608503
_symmetry_space_group_name_H-M "F D D D"
_symmetry_group_IT_number 70
_space_group.IT_coordinate_system_code '2'
_symmetry_cell_setting 'orthorhombic'
loop_
_space_group_symop_operation_xyz
x,y,z
1/4-x,1/4-y,z
x,1/4-y,1/4-z
1/4-x,y,1/4-z
-x,-y,-z
3/4+x,3/4+y,-z
-x,3/4+y,3/4+z
3/4+x,-y,3/4+z
x,1/2+y,1/2+z
1/4-x,3/4-y,1/2+z
x,3/4-y,3/4-z
1/4-x,1/2+y,3/4-z
-x,1/2-y,1/2-z
3/4+x,1/4+y,1/2-z
-x,1/4+y,1/4+z
3/4+x,1/2-y,1/4+z
1/2+x,y,1/2+z
3/4-x,1/4-y,1/2+z
1/2+x,1/4-y,3/4-z
3/4-x,y,3/4-z
1/2-x,-y,1/2-z
1/4+x,3/4+y,1/2-z
1/2-x,3/4+y,1/4+z
1/4+x,-y,1/4+z
1/2+x,1/2+y,z
3/4-x,3/4-y,z
1/2+x,3/4-y,1/4-z
3/4-x,1/2+y,1/4-z
1/2-x,1/2-y,-z
1/4+x,1/4+y,-z
1/2-x,1/4+y,3/4+z
1/4+x,1/2-y,3/4+z
loop_
_atom_site_type_symbol
_atom_site_label
_atom_site_fract_x
_atom_site_fract_y
_atom_site_fract_z
Si Si1 0.350058 0.494041 0.033691
Si Si2 0.561122 0.770054 0.057180
Si Si3 0.452839 0.742096 0.833754
O O1 0.375000 0.375000 0.031834
O O2 0.506705 0.527391 0.060054
O O3 0.183174 0.524214 0.053540
O O4 0.323082 0.530085 0.989727
O O5 0.557571 0.873992 0.078623
O O6 0.387418 0.727046 0.071824
O O7 0.375000 0.766447 0.875000
#
# Coordination Sequence:
#
# PCOD9514725 Si02
#       3
#    32  32  32
#     4   9  18  33  51  74 103 138 175 207 257 314
#     4   9  19  31  49  77 105 135 167 218 253 312
#     4  10  20  30  52  81 104 130 172 220 265 298
#
# _framework density 25.022099999999998
#
# number of rings (size 3 to 8) (size 9 to 14) (size 15 to 20)
#    0.000    2.667    0.000    1.000   14.000    0.000 
#    0.000    0.000    0.000    1.000    0.000   39.667 
#    0.000    0.000    0.000    0.000    0.000    0.000 
#
# Total GULP energy -133718.518602 kJ/mol
# GULP energy per Si atom -5571.604942 kJ/mol
# Density = 2.496515 g / cm^3
# Si number density = 25.022100 Si / 1000 Ang^3
#
#
#
# Elastic Constant Matrix: (Units=GPa)
#
#
# Indices 1 2 3 4 5 6 
#
# 1 232.2142 72.2762 46.2848 0.0000 0.0000 0.0000
# 2 72.2762 108.2196 60.5676 0.0000 0.0000 0.0000
# 3 46.2848 60.5676 53.2887 0.0000 0.0000 0.0000
# 4 0.0000 0.0000 0.0000 44.4955 0.0000 0.0000
# 5 0.0000 0.0000 0.0000 0.0000 58.8209 0.0000
# 6 0.0000 0.0000 0.0000 0.0000 0.0000 18.4468
#
#
#
# Elastic Compliance Matrix: (Units=1/GPa)
#
#
# Indices 1 2 3 4 5 6 
#
# 1 0.005489 -0.002742 -0.001651 0.000000 0.000000 0.000000
# 2 -0.002742 0.026764 -0.028038 0.000000 0.000000 0.000000
# 3 -0.001651 -0.028038 0.052068 0.000000 0.000000 0.000000
# 4 0.000000 0.000000 0.000000 0.022474 0.000000 0.000000
# 5 0.000000 0.000000 0.000000 0.000000 0.017001 0.000000
# 6 0.000000 0.000000 0.000000 0.000000 0.000000 0.054210
#
#
# Mechanical properties :
#
#
# Convention : Reuss Voigt Hill
#
# Bulk Modulus (GPa) = 51.39196 83.55330 67.47263
# Shear Modulus (GPa) = 20.05184 38.65890 29.35537
#
# Velocity S-wave (km/s) = 2.83391 3.93490 3.42888
# Velocity P-wave (km/s) = 5.59386 7.35587 6.53453
#
# Compressibility (1/GPa) = 0.01945830
#
# Stress axis : x y z
#
# Youngs Moduli (GPa) = 182.18834 37.36403 19.20566
#
# Poissons Ratio (x) = 0.10244 0.03171
# Poissons Ratio (y) = 0.49949 0.53849
# Poissons Ratio (z) = 0.30085 1.04762
#
# Static dielectric constant tensor:
#      x y z
#    x 2.080560 0.000000 0.000000 
#    y 0.000000 1.904900 0.000000 
#    z 0.000000 0.000000 2.017120 
# 
# From -- ./inp_files/8096.got.cif
#   From: 2010.05.17/outbox.cif.g08.bks.cpg/sg70_5_cif.got.tgz:8096.got - 2010.06.03 15:57:51.
