data_PCOD9514007
_publ_section_title
;
Structure prediction by ZEFSAII (Michael W. Deem and Ramdas Pophale) SiO2 
 PCOD9514007
Probable space group: F M M M
;
_chemical_formula_sum "Si O2"
_cell_formula_units_Z 48
_cell_length_a 21.000000
_cell_length_b 24.000000
_cell_length_c 21.000000
_cell_angle_alpha 90.000000
_cell_angle_beta 90.000000
_cell_angle_gamma 90.000000
_cell_volume 10584.000000
_symmetry_space_group_name_H-M "F M M M"
_symmetry_group_IT_number 69
_symmetry_cell_setting 'orthorhombic'
loop_
_space_group_symop_operation_xyz
x,y,z
-x,-y,z
x,-y,-z
-x,y,-z
-x,-y,-z
x,y,-z
-x,y,z
x,-y,z
x,1/2+y,1/2+z
-x,1/2-y,1/2+z
x,1/2-y,1/2-z
-x,1/2+y,1/2-z
-x,1/2-y,1/2-z
x,1/2+y,1/2-z
-x,1/2+y,1/2+z
x,1/2-y,1/2+z
1/2+x,y,1/2+z
1/2-x,-y,1/2+z
1/2+x,-y,1/2-z
1/2-x,y,1/2-z
1/2-x,-y,1/2-z
1/2+x,y,1/2-z
1/2-x,y,1/2+z
1/2+x,-y,1/2+z
1/2+x,1/2+y,z
1/2-x,1/2-y,z
1/2+x,1/2-y,-z
1/2-x,1/2+y,-z
1/2-x,1/2-y,-z
1/2+x,1/2+y,-z
1/2-x,1/2+y,z
1/2+x,1/2-y,z
loop_
_atom_site_type_symbol
_atom_site_label
_atom_site_fract_x
_atom_site_fract_y
_atom_site_fract_z
Si Si1 0.356667 0.564241 0.427808
Si Si2 0.924538 0.111312 0.303621
Si Si3 0.362979 0.231550 0.175808
Si Si4 0.922819 0.065948 0.836617
Si Si5 0.725239 0.173442 0.071739
Si Si6 0.377612 0.830227 0.423014
O O1 0.385679 0.570632 0.500000
O O2 0.335579 0.500000 0.423329
O O3 0.399204 0.578540 0.366048
O O4 0.301492 0.610543 0.424751
O O5 0.905781 0.176234 0.313101
O O6 0.901815 0.087224 0.234582
O O7 0.000000 0.106232 0.302703
O O8 0.347158 0.250000 0.250000
O O9 0.306087 0.207751 0.130054
O O10 0.393428 0.280402 0.129584
O O11 0.899441 0.111201 0.889808
O O12 0.000000 0.067402 0.837974
O O13 0.904355 0.000000 0.845775
O O14 0.800919 0.171597 0.075823
O O15 0.706951 0.194932 0.000000
O O16 0.397376 0.824762 0.500000
#
# Coordination Sequence:
#
# PCOD9514007 Si02
#       6
#    32  32  32  32  32  32
#     4   9  18  34  56  84 117 151 189 233 282 338
#     4  10  21  38  59  82 114 152 191 236 287 342
#     4  11  21  37  59  87 114 149 189 233 283 342
#     4  10  22  41  62  84 113 151 196 244 290 335
#     4   9  20  37  57  83 118 153 185 228 284 341
#     4  11  23  39  59  86 117 153 193 234 287 346
#
# _framework density 4.5351470000000003
#
# number of rings (size 3 to 8) (size 9 to 14) (size 15 to 20)
#    0.000    2.000    1.667    1.500    0.000    7.000 
#    0.000    3.333    0.000    3.000    0.000    0.000 
#    0.000    0.000    0.000    0.000    0.000    0.000 
#
# Total GULP energy -267216.391079 kJ/mol
# GULP energy per Si atom -5567.008147 kJ/mol
# Density = 0.452483 g / cm^3
# Si number density = 4.535147 Si / 1000 Ang^3
#
#
#
# Elastic Constant Matrix: (Units=GPa)
#
#
# Indices 1 2 3 4 5 6 
#
# 1 20.8944 15.9064 12.9275 0.0000 0.0000 0.0000
# 2 15.9064 159.6668 65.5986 0.0000 0.0000 0.0000
# 3 12.9275 65.5986 172.8482 0.0000 0.0000 0.0000
# 4 0.0000 0.0000 0.0000 46.1421 0.0000 0.0000
# 5 0.0000 0.0000 0.0000 0.0000 30.7765 0.0000
# 6 0.0000 0.0000 0.0000 0.0000 0.0000 22.1915
#
#
#
# Elastic Compliance Matrix: (Units=1/GPa)
#
#
# Indices 1 2 3 4 5 6 
#
# 1 0.052549 -0.004289 -0.002302 0.000000 0.000000 0.000000
# 2 -0.004289 0.007770 -0.002628 0.000000 0.000000 0.000000
# 3 -0.002302 -0.002628 0.006955 0.000000 0.000000 0.000000
# 4 0.000000 0.000000 0.000000 0.021672 0.000000 0.000000
# 5 0.000000 0.000000 0.000000 0.000000 0.032492 0.000000
# 6 0.000000 0.000000 0.000000 0.000000 0.000000 0.045062
#
#
# Mechanical properties :
#
#
# Convention : Reuss Voigt Hill
#
# Bulk Modulus (GPa) = 20.47704 60.25273 40.36488
# Shear Modulus (GPa) = 24.84854 37.08713 30.96784
#
# Velocity S-wave (km/s) = 3.70506 4.52644 4.13619
# Velocity P-wave (km/s) = 5.44204 7.78490 6.71641
#
# Compressibility (1/GPa) = 0.04883519
#
# Stress axis : x y z
#
# Youngs Moduli (GPa) = 19.02971 128.69891 143.78105
#
# Poissons Ratio (x) = 0.55201 0.33105
# Poissons Ratio (y) = 0.08162 0.37787
# Poissons Ratio (z) = 0.04381 0.33823
#
# Static dielectric constant tensor:
#      x y z
#    x 1.614070 0.000000 0.000000 
#    y 0.000000 1.653480 0.000000 
#    z 0.000000 0.000000 1.658790 
# 
# From -- ./inp_files/32066.got.cif
#   From: 2010.05.17/outbox.ucp.g08.bks.cvg/sg69_17_cif.got.tgz:32066.got - 2010.06.11 16:51:34.
