data_PCOD9514836
_publ_section_title
;
Structure prediction by ZEFSAII (Michael W. Deem and Ramdas Pophale) SiO2 
 PCOD9514836
Probable space group: F D D D
;
_chemical_formula_sum "Si O2"
_cell_formula_units_Z 192
_cell_length_a 28.276188
_cell_length_b 23.397472
_cell_length_c 14.801004
_cell_angle_alpha 90.000000
_cell_angle_beta 90.000000
_cell_angle_gamma 90.000000
_cell_volume 9792.215729
_symmetry_space_group_name_H-M "F D D D"
_symmetry_group_IT_number 70
_space_group.IT_coordinate_system_code '2'
_symmetry_cell_setting 'orthorhombic'
loop_
_space_group_symop_operation_xyz
x,y,z
1/4-x,1/4-y,z
x,1/4-y,1/4-z
1/4-x,y,1/4-z
-x,-y,-z
3/4+x,3/4+y,-z
-x,3/4+y,3/4+z
3/4+x,-y,3/4+z
x,1/2+y,1/2+z
1/4-x,3/4-y,1/2+z
x,3/4-y,3/4-z
1/4-x,1/2+y,3/4-z
-x,1/2-y,1/2-z
3/4+x,1/4+y,1/2-z
-x,1/4+y,1/4+z
3/4+x,1/2-y,1/4+z
1/2+x,y,1/2+z
3/4-x,1/4-y,1/2+z
1/2+x,1/4-y,3/4-z
3/4-x,y,3/4-z
1/2-x,-y,1/2-z
1/4+x,3/4+y,1/2-z
1/2-x,3/4+y,1/4+z
1/4+x,-y,1/4+z
1/2+x,1/2+y,z
3/4-x,3/4-y,z
1/2+x,3/4-y,1/4-z
3/4-x,1/2+y,1/4-z
1/2-x,1/2-y,-z
1/4+x,1/4+y,-z
1/2-x,1/4+y,3/4+z
1/4+x,1/2-y,3/4+z
loop_
_atom_site_type_symbol
_atom_site_label
_atom_site_fract_x
_atom_site_fract_y
_atom_site_fract_z
Si Si1 0.281424 0.919908 0.069603
Si Si2 0.375000 0.375000 0.649668
Si Si3 0.713445 0.413871 0.234153
Si Si4 0.563935 0.896541 0.774434
Si Si5 0.231581 0.294455 0.818468
Si Si6 0.875000 0.140202 0.375000
Si Si7 0.591747 0.025609 0.713919
O O1 0.329612 0.887497 0.087456
O O2 0.256847 0.926391 0.168399
O O3 0.287865 0.984253 0.034877
O O4 0.240407 0.892550 0.007905
O O5 0.386923 0.429614 0.713540
O O6 0.714011 0.347274 0.259767
O O7 0.715917 0.446225 0.328226
O O8 0.666603 0.424393 0.176452
O O9 0.570396 0.875000 0.875000
O O10 0.596196 0.860257 0.704782
O O11 0.581856 0.962436 0.758350
O O12 0.288675 0.294857 0.814392
O O13 0.625000 0.028183 0.625000
#
# Coordination Sequence:
#
# PCOD9514836 Si02
#       7
#    32  16  32  32  32  16  32
#     4  10  22  39  59  90 130 163 217 270 318 390
#     4  12  23  36  65  96 138 174 216 261 335 414
#     4  10  20  36  56  92 127 168 208 258 326 391
#     4  10  23  43  65  90 128 174 219 278 324 379
#     4  10  21  36  61  89 132 170 206 263 336 389
#     4  10  22  36  60  91 126 155 222 272 314 374
#     4  11  22  37  63 103 135 171 209 268 337 405
#
# _framework density 19.607412
#
# number of rings (size 3 to 8) (size 9 to 14) (size 15 to 20)
#    0.000    1.667    2.500    1.750    7.000    0.000 
#    0.000    1.250    7.333    0.000    0.000    0.000 
#    0.000    0.000    0.000    0.000    0.000    0.000 
#
# Total GULP energy -267782.368550 kJ/mol
# GULP energy per Si atom -5578.799345 kJ/mol
# Density = 1.956278 g / cm^3
# Si number density = 19.607412 Si / 1000 Ang^3
#
#
#
# Elastic Constant Matrix: (Units=GPa)
#
#
# Indices 1 2 3 4 5 6 
#
# 1 137.2756 43.2260 46.1616 0.0000 0.0000 0.0000
# 2 43.2260 56.3162 49.1580 0.0000 0.0000 0.0000
# 3 46.1616 49.1580 111.2126 0.0000 0.0000 0.0000
# 4 0.0000 0.0000 0.0000 5.9042 0.0000 0.0000
# 5 0.0000 0.0000 0.0000 0.0000 18.2942 0.0000
# 6 0.0000 0.0000 0.0000 0.0000 0.0000 19.1919
#
#
#
# Elastic Compliance Matrix: (Units=1/GPa)
#
#
# Indices 1 2 3 4 5 6 
#
# 1 0.009703 -0.006403 -0.001198 0.000000 0.000000 0.000000
# 2 -0.006403 0.033137 -0.011990 0.000000 0.000000 0.000000
# 3 -0.001198 -0.011990 0.014788 0.000000 0.000000 0.000000
# 4 0.000000 0.000000 0.000000 0.169371 0.000000 0.000000
# 5 0.000000 0.000000 0.000000 0.000000 0.054662 0.000000
# 6 0.000000 0.000000 0.000000 0.000000 0.000000 0.052105
#
#
# Mechanical properties :
#
#
# Convention : Reuss Voigt Hill
#
# Bulk Modulus (GPa) = 54.20259 64.65507 59.42883
# Shear Modulus (GPa) = 13.18925 19.76197 16.47561
#
# Velocity S-wave (km/s) = 2.59640 3.17816 2.90189
# Velocity P-wave (km/s) = 6.05742 6.82012 6.45005
#
# Compressibility (1/GPa) = 0.01844930
#
# Stress axis : x y z
#
# Youngs Moduli (GPa) = 103.05661 30.17794 67.62030
#
# Poissons Ratio (x) = 0.19322 0.08098
# Poissons Ratio (y) = 0.65983 0.81073
# Poissons Ratio (z) = 0.12342 0.36182
#
# Static dielectric constant tensor:
#      x y z
#    x 1.711290 0.000000 0.000000 
#    y 0.000000 1.765190 0.000000 
#    z 0.000000 0.000000 1.672300 
# 
# From -- ./inp_files/30159.got.cif
#   From: 2010.05.17/outbox.cif.g08.bks.cpg/sg70_16_cif.got.tgz:30159.got - 2010.06.03 15:57:51.
