data_PCOD9514069
_publ_section_title
;
Structure prediction by ZEFSAII (Michael W. Deem and Ramdas Pophale) SiO2 
 PCOD9514069
Probable space group: F D D D
;
_chemical_formula_sum "Si O2"
_cell_formula_units_Z 160
_cell_length_a 14.588730
_cell_length_b 30.188954
_cell_length_c 13.783930
_cell_angle_alpha 90.000000
_cell_angle_beta 90.000000
_cell_angle_gamma 90.000000
_cell_volume 6070.697759
_symmetry_space_group_name_H-M "F D D D"
_symmetry_group_IT_number 70
_space_group.IT_coordinate_system_code '2'
_symmetry_cell_setting 'orthorhombic'
loop_
_space_group_symop_operation_xyz
x,y,z
1/4-x,1/4-y,z
x,1/4-y,1/4-z
1/4-x,y,1/4-z
-x,-y,-z
3/4+x,3/4+y,-z
-x,3/4+y,3/4+z
3/4+x,-y,3/4+z
x,1/2+y,1/2+z
1/4-x,3/4-y,1/2+z
x,3/4-y,3/4-z
1/4-x,1/2+y,3/4-z
-x,1/2-y,1/2-z
3/4+x,1/4+y,1/2-z
-x,1/4+y,1/4+z
3/4+x,1/2-y,1/4+z
1/2+x,y,1/2+z
3/4-x,1/4-y,1/2+z
1/2+x,1/4-y,3/4-z
3/4-x,y,3/4-z
1/2-x,-y,1/2-z
1/4+x,3/4+y,1/2-z
1/2-x,3/4+y,1/4+z
1/4+x,-y,1/4+z
1/2+x,1/2+y,z
3/4-x,3/4-y,z
1/2+x,3/4-y,1/4-z
3/4-x,1/2+y,1/4-z
1/2-x,1/2-y,-z
1/4+x,1/4+y,-z
1/2-x,1/4+y,3/4+z
1/4+x,1/2-y,3/4+z
loop_
_atom_site_type_symbol
_atom_site_label
_atom_site_fract_x
_atom_site_fract_y
_atom_site_fract_z
Si Si1 0.504991 0.659701 0.206652
Si Si2 0.998717 0.243276 0.103461
Si Si3 0.542616 0.931678 0.783096
Si Si4 0.016533 0.889611 0.598851
Si Si5 0.289084 0.481861 0.104508
O O1 0.532322 0.625000 0.125000
O O2 0.538222 0.710093 0.184646
O O3 0.395617 0.667507 0.192474
O O4 0.525559 0.637541 0.309855
O O5 0.896221 0.258568 0.128710
O O6 0.047933 0.287527 0.064804
O O7 0.004958 0.215945 0.002523
O O8 0.494064 0.887804 0.747831
O O9 0.500840 0.967642 0.856989
O O10 0.125000 0.888808 0.625000
O O11 0.989926 0.940363 0.583410
#
# Coordination Sequence:
#
# PCOD9514069 Si02
#       5
#    32  32  32  32  32
#     4  10  16  31  57  80 110 149 205 247 298 380
#     4   9  18  33  54  80 113 151 196 254 315 368
#     4   8  19  32  51  82 111 148 193 256 300 366
#     4  10  19  32  55  82 109 154 206 247 309 374
#     4   9  18  35  54  80 113 153 195 249 311 371
#
# _framework density 26.356114000000002
#
# number of rings (size 3 to 8) (size 9 to 14) (size 15 to 20)
#    1.200    1.600    2.000    0.000    0.000    1.600 
#    0.000    1.000    0.000    0.000    0.000    0.000 
#    0.000    0.000    0.000    0.000    0.000    0.000 
#
# Total GULP energy -223015.105195 kJ/mol
# GULP energy per Si atom -5575.377630 kJ/mol
# Density = 2.629613 g / cm^3
# Si number density = 26.356114 Si / 1000 Ang^3
#
#
#
# Elastic Constant Matrix: (Units=GPa)
#
#
# Indices 1 2 3 4 5 6 
#
# 1 67.3126 41.4685 25.5124 0.0000 0.0000 0.0000
# 2 41.4685 229.7787 53.2591 0.0000 0.0000 0.0000
# 3 25.5124 53.2591 81.3434 0.0000 0.0000 0.0000
# 4 0.0000 0.0000 0.0000 12.7775 0.0000 0.0000
# 5 0.0000 0.0000 0.0000 0.0000 14.9300 0.0000
# 6 0.0000 0.0000 0.0000 0.0000 0.0000 11.8850
#
#
#
# Elastic Compliance Matrix: (Units=1/GPa)
#
#
# Indices 1 2 3 4 5 6 
#
# 1 0.017805 -0.002262 -0.004103 0.000000 0.000000 0.000000
# 2 -0.002262 0.005418 -0.002838 0.000000 0.000000 0.000000
# 3 -0.004103 -0.002838 0.015439 0.000000 0.000000 0.000000
# 4 0.000000 0.000000 0.000000 0.078262 0.000000 0.000000
# 5 0.000000 0.000000 0.000000 0.000000 0.066979 0.000000
# 6 0.000000 0.000000 0.000000 0.000000 0.000000 0.084140
#
#
# Mechanical properties :
#
#
# Convention : Reuss Voigt Hill
#
# Bulk Modulus (GPa) = 49.37060 68.76830 59.06945
# Shear Modulus (GPa) = 17.05313 25.13149 21.09231
#
# Velocity S-wave (km/s) = 2.54643 3.09129 2.83199
# Velocity P-wave (km/s) = 5.23627 6.23619 5.75798
#
# Compressibility (1/GPa) = 0.02025497
#
# Stress axis : x y z
#
# Youngs Moduli (GPa) = 56.16449 184.56769 64.77293
#
# Poissons Ratio (x) = 0.41754 0.26577
# Poissons Ratio (y) = 0.12706 0.18382
# Poissons Ratio (z) = 0.23045 0.52379
#
# Static dielectric constant tensor:
#      x y z
#    x 2.078520 0.000000 0.000000 
#    y 0.000000 2.108880 0.000000 
#    z 0.000000 0.000000 2.097190 
# 
# From -- ./inp_files/35154.got.cif
#   From: 2010.05.17/outbox.cif.g08.bks.cpg/sg70_18_cif.got.tgz:35154.got - 2010.06.03 15:57:51.
