data_PCOD9514038
_publ_section_title
;
Structure prediction by ZEFSAII (Michael W. Deem and Ramdas Pophale) SiO2 
 PCOD9514038
Probable space group: F D D D
;
_chemical_formula_sum "Si O2"
_cell_formula_units_Z 128
_cell_length_a 11.954336
_cell_length_b 29.647021
_cell_length_c 23.586313
_cell_angle_alpha 90.000000
_cell_angle_beta 90.000000
_cell_angle_gamma 90.000000
_cell_volume 8359.235814
_symmetry_space_group_name_H-M "F D D D"
_symmetry_group_IT_number 70
_space_group.IT_coordinate_system_code '2'
_symmetry_cell_setting 'orthorhombic'
loop_
_space_group_symop_operation_xyz
x,y,z
1/4-x,1/4-y,z
x,1/4-y,1/4-z
1/4-x,y,1/4-z
-x,-y,-z
3/4+x,3/4+y,-z
-x,3/4+y,3/4+z
3/4+x,-y,3/4+z
x,1/2+y,1/2+z
1/4-x,3/4-y,1/2+z
x,3/4-y,3/4-z
1/4-x,1/2+y,3/4-z
-x,1/2-y,1/2-z
3/4+x,1/4+y,1/2-z
-x,1/4+y,1/4+z
3/4+x,1/2-y,1/4+z
1/2+x,y,1/2+z
3/4-x,1/4-y,1/2+z
1/2+x,1/4-y,3/4-z
3/4-x,y,3/4-z
1/2-x,-y,1/2-z
1/4+x,3/4+y,1/2-z
1/2-x,3/4+y,1/4+z
1/4+x,-y,1/4+z
1/2+x,1/2+y,z
3/4-x,3/4-y,z
1/2+x,3/4-y,1/4-z
3/4-x,1/2+y,1/4-z
1/2-x,1/2-y,-z
1/4+x,1/4+y,-z
1/2-x,1/4+y,3/4+z
1/4+x,1/2-y,3/4+z
loop_
_atom_site_type_symbol
_atom_site_label
_atom_site_fract_x
_atom_site_fract_y
_atom_site_fract_z
Si Si1 0.375000 0.774277 0.875000
Si Si2 0.617588 0.889259 0.558964
Si Si3 0.227371 0.555049 0.329763
Si Si4 0.125000 0.625000 0.419524
Si Si5 0.935365 0.423785 0.764282
O O1 0.280605 0.740890 0.899298
O O2 0.320804 0.804204 0.825585
O O3 0.625000 0.905518 0.625000
O O4 0.672976 0.839224 0.560969
O O5 0.486292 0.887163 0.546027
O O6 0.694493 0.916846 0.515531
O O7 0.162174 0.583890 0.378080
O O8 0.141774 0.547926 0.278727
O O9 0.875000 0.375000 0.766281
#
# Coordination Sequence:
#
# PCOD9514038 Si02
#       5
#    16  32  32  16  32
#     4  12  21  30  48  84 106 126 172 218 261 308
#     4   9  15  30  55  71  95 135 172 206 252 304
#     4  10  17  31  52  75  97 131 172 215 249 299
#     4  10  14  30  58  73  95 128 186 208 250 306
#     4  10  20  34  50  74 105 138 164 210 269 304
#
# _framework density 15.312404000000001
#
# number of rings (size 3 to 8) (size 9 to 14) (size 15 to 20)
#    0.000    2.000   10.000    1.125    0.000    0.000 
#    0.000    1.250    0.000    0.000    0.000    7.000 
#    0.000    0.000    0.000    0.000    0.000    0.000 
#
# Total GULP energy -178178.519545 kJ/mol
# GULP energy per Si atom -5568.078736 kJ/mol
# Density = 1.527755 g / cm^3
# Si number density = 15.312404 Si / 1000 Ang^3
#
#
#
# Elastic Constant Matrix: (Units=GPa)
#
#
# Indices 1 2 3 4 5 6 
#
# 1 147.0822 30.9763 55.7677 0.0000 0.0000 0.0000
# 2 30.9763 35.2170 38.0337 0.0000 0.0000 0.0000
# 3 55.7677 38.0337 96.6864 0.0000 0.0000 0.0000
# 4 0.0000 0.0000 0.0000 15.2465 0.0000 0.0000
# 5 0.0000 0.0000 0.0000 0.0000 13.0330 0.0000
# 6 0.0000 0.0000 0.0000 0.0000 0.0000 17.8766
#
#
#
# Elastic Compliance Matrix: (Units=1/GPa)
#
#
# Indices 1 2 3 4 5 6 
#
# 1 0.009019 -0.004024 -0.003619 0.000000 0.000000 0.000000
# 2 -0.004024 0.051165 -0.017806 0.000000 0.000000 0.000000
# 3 -0.003619 -0.017806 0.019434 0.000000 0.000000 0.000000
# 4 0.000000 0.000000 0.000000 0.065589 0.000000 0.000000
# 5 0.000000 0.000000 0.000000 0.000000 0.076728 0.000000
# 6 0.000000 0.000000 0.000000 0.000000 0.000000 0.055939
#
#
# Mechanical properties :
#
#
# Convention : Reuss Voigt Hill
#
# Bulk Modulus (GPa) = 34.81875 58.72677 46.77276
# Shear Modulus (GPa) = 14.77784 19.51176 17.14480
#
# Velocity S-wave (km/s) = 3.10996 3.57353 3.34977
# Velocity P-wave (km/s) = 5.97362 7.44731 6.75080
#
# Compressibility (1/GPa) = 0.02872016
#
# Stress axis : x y z
#
# Youngs Moduli (GPa) = 110.88253 19.54468 51.45585
#
# Poissons Ratio (x) = 0.07866 0.18620
# Poissons Ratio (y) = 0.44624 0.91620
# Poissons Ratio (z) = 0.40125 0.34800
#
# Static dielectric constant tensor:
#      x y z
#    x 1.528270 0.000000 0.000000 
#    y 0.000000 1.500580 0.000000 
#    z 0.000000 0.000000 1.521180 
# 
# From -- ./inp_files/18859.got.cif
#   From: 2010.05.17/outbox.cif.g08.bks.cpg/sg70_10_cif.got.tgz:18859.got - 2010.06.03 15:57:51.
