data_PCOD9514165
_publ_section_title
;
Structure prediction by ZEFSAII (Michael W. Deem and Ramdas Pophale) SiO2 
 PCOD9514165
Probable space group: F D D D
;
_chemical_formula_sum "Si O2"
_cell_formula_units_Z 208
_cell_length_a 31.003370
_cell_length_b 21.140482
_cell_length_c 21.661301
_cell_angle_alpha 90.000000
_cell_angle_beta 90.000000
_cell_angle_gamma 90.000000
_cell_volume 14197.383886
_symmetry_space_group_name_H-M "F D D D"
_symmetry_group_IT_number 70
_space_group.IT_coordinate_system_code '2'
_symmetry_cell_setting 'orthorhombic'
loop_
_space_group_symop_operation_xyz
x,y,z
1/4-x,1/4-y,z
x,1/4-y,1/4-z
1/4-x,y,1/4-z
-x,-y,-z
3/4+x,3/4+y,-z
-x,3/4+y,3/4+z
3/4+x,-y,3/4+z
x,1/2+y,1/2+z
1/4-x,3/4-y,1/2+z
x,3/4-y,3/4-z
1/4-x,1/2+y,3/4-z
-x,1/2-y,1/2-z
3/4+x,1/4+y,1/2-z
-x,1/4+y,1/4+z
3/4+x,1/2-y,1/4+z
1/2+x,y,1/2+z
3/4-x,1/4-y,1/2+z
1/2+x,1/4-y,3/4-z
3/4-x,y,3/4-z
1/2-x,-y,1/2-z
1/4+x,3/4+y,1/2-z
1/2-x,3/4+y,1/4+z
1/4+x,-y,1/4+z
1/2+x,1/2+y,z
3/4-x,3/4-y,z
1/2+x,3/4-y,1/4-z
3/4-x,1/2+y,1/4-z
1/2-x,1/2-y,-z
1/4+x,1/4+y,-z
1/2-x,1/4+y,3/4+z
1/4+x,1/2-y,3/4+z
loop_
_atom_site_type_symbol
_atom_site_label
_atom_site_fract_x
_atom_site_fract_y
_atom_site_fract_z
Si Si1 0.987032 0.377294 0.493760
Si Si2 0.279363 0.508801 0.949601
Si Si3 0.385181 0.504054 0.726082
Si Si4 0.875000 0.375000 0.147446
Si Si5 0.831833 0.297807 0.413574
Si Si6 0.061294 0.933717 0.919713
Si Si7 0.287722 0.823176 0.627827
O O1 0.993282 0.303534 0.478262
O O2 0.946845 0.399529 0.449423
O O3 0.977276 0.392081 0.564947
O O4 0.028427 0.418257 0.474921
O O5 0.300921 0.487416 0.884510
O O6 0.247191 0.565427 0.931892
O O7 0.318867 0.522045 0.995968
O O8 0.386022 0.436155 0.690576
O O9 0.351462 0.494011 0.781893
O O10 0.361352 0.556707 0.685898
O O11 0.916676 0.355868 0.108011
O O12 0.875000 0.314668 0.375000
O O13 0.054949 0.875000 0.875000
O O14 0.047294 0.000543 0.891118
#
# Coordination Sequence:
#
# PCOD9514165 Si02
#       7
#    32  32  32  16  32  32  32
#     4  12  18  29  40  64  93 131 164 193 218 270
#     4  11  20  29  42  63  91 125 159 187 232 273
#     4  10  19  31  42  62  90 121 162 192 223 273
#     4  10  18  30  45  62  88 124 149 196 224 262
#     4  10  18  25  38  59  90 129 162 188 208 257
#     4  11  19  29  44  64  90 125 158 197 233 270
#     4  11  20  30  44  62  92 124 162 192 230 273
#
# _framework density 14.650586000000001
#
# number of rings (size 3 to 8) (size 9 to 14) (size 15 to 20)
#    0.000    1.231    7.692    1.846    0.000    4.923 
#    0.000    0.000    0.000    0.000    0.000    4.308 
#    0.000    0.000    0.000    0.000    0.000    0.000 
#
# Total GULP energy -289708.173053 kJ/mol
# GULP energy per Si atom -5571.311020 kJ/mol
# Density = 1.461724 g / cm^3
# Si number density = 14.650586 Si / 1000 Ang^3
#
#
#
# Elastic Constant Matrix: (Units=GPa)
#
#
# Indices 1 2 3 4 5 6 
#
# 1 102.5680 26.3978 20.6650 0.0000 0.0000 0.0000
# 2 26.3978 35.1484 11.2585 0.0000 0.0000 0.0000
# 3 20.6650 11.2585 23.6249 0.0000 0.0000 0.0000
# 4 0.0000 0.0000 0.0000 7.0759 0.0000 0.0000
# 5 0.0000 0.0000 0.0000 0.0000 21.2162 0.0000
# 6 0.0000 0.0000 0.0000 0.0000 0.0000 22.3451
#
#
#
# Elastic Compliance Matrix: (Units=1/GPa)
#
#
# Indices 1 2 3 4 5 6 
#
# 1 0.013281 -0.007380 -0.008100 0.000000 0.000000 0.000000
# 2 -0.007380 0.037677 -0.011500 0.000000 0.000000 0.000000
# 3 -0.008100 -0.011500 0.054894 0.000000 0.000000 0.000000
# 4 0.000000 0.000000 0.000000 0.141324 0.000000 0.000000
# 5 0.000000 0.000000 0.000000 0.000000 0.047134 0.000000
# 6 0.000000 0.000000 0.000000 0.000000 0.000000 0.044753
#
#
# Mechanical properties :
#
#
# Convention : Reuss Voigt Hill
#
# Bulk Modulus (GPa) = 19.27076 30.88711 25.07894
# Shear Modulus (GPa) = 12.18565 16.99544 14.59055
#
# Velocity S-wave (km/s) = 2.88714 3.40965 3.15921
# Velocity P-wave (km/s) = 4.92912 6.05221 5.51930
#
# Compressibility (1/GPa) = 0.05189208
#
# Stress axis : x y z
#
# Youngs Moduli (GPa) = 75.29565 26.54147 18.21707
#
# Poissons Ratio (x) = 0.19588 0.14756
# Poissons Ratio (y) = 0.55568 0.20949
# Poissons Ratio (z) = 0.60990 0.30522
#
# Static dielectric constant tensor:
#      x y z
#    x 1.539800 0.000000 0.000000 
#    y 0.000000 1.484500 0.000000 
#    z 0.000000 0.000000 1.492540 
# 
# From -- ./inp_files/45235.got.cif
#   From: 2010.05.17/outbox.cif.g08.bks.cpg/sg70_23_cif.got.tgz:45235.got - 2010.06.03 15:57:51.
