data_PCOD9514602
_publ_section_title
;
Structure prediction by ZEFSAII (Michael W. Deem and Ramdas Pophale) SiO2 
 PCOD9514602
Probable space group: F D D D
;
_chemical_formula_sum "Si O2"
_cell_formula_units_Z 160
_cell_length_a 20.692802
_cell_length_b 16.173299
_cell_length_c 22.049149
_cell_angle_alpha 90.000000
_cell_angle_beta 90.000000
_cell_angle_gamma 90.000000
_cell_volume 7379.207964
_symmetry_space_group_name_H-M "F D D D"
_symmetry_group_IT_number 70
_space_group.IT_coordinate_system_code '2'
_symmetry_cell_setting 'orthorhombic'
loop_
_space_group_symop_operation_xyz
x,y,z
1/4-x,1/4-y,z
x,1/4-y,1/4-z
1/4-x,y,1/4-z
-x,-y,-z
3/4+x,3/4+y,-z
-x,3/4+y,3/4+z
3/4+x,-y,3/4+z
x,1/2+y,1/2+z
1/4-x,3/4-y,1/2+z
x,3/4-y,3/4-z
1/4-x,1/2+y,3/4-z
-x,1/2-y,1/2-z
3/4+x,1/4+y,1/2-z
-x,1/4+y,1/4+z
3/4+x,1/2-y,1/4+z
1/2+x,y,1/2+z
3/4-x,1/4-y,1/2+z
1/2+x,1/4-y,3/4-z
3/4-x,y,3/4-z
1/2-x,-y,1/2-z
1/4+x,3/4+y,1/2-z
1/2-x,3/4+y,1/4+z
1/4+x,-y,1/4+z
1/2+x,1/2+y,z
3/4-x,3/4-y,z
1/2+x,3/4-y,1/4-z
3/4-x,1/2+y,1/4-z
1/2-x,1/2-y,-z
1/4+x,1/4+y,-z
1/2-x,1/4+y,3/4+z
1/4+x,1/2-y,3/4+z
loop_
_atom_site_type_symbol
_atom_site_label
_atom_site_fract_x
_atom_site_fract_y
_atom_site_fract_z
Si Si1 0.743353 0.670438 0.458915
Si Si2 0.401520 0.282345 0.108294
Si Si3 0.612889 0.883167 0.191927
Si Si4 0.701109 0.991750 0.956012
Si Si5 0.901679 0.782047 0.967040
O O1 0.750000 0.750000 0.500000
O O2 0.718540 0.705944 0.394477
O O3 0.814186 0.634306 0.464660
O O4 0.699313 0.590070 0.472993
O O5 0.375000 0.375000 0.104398
O O6 0.350573 0.233021 0.150962
O O7 0.407320 0.257280 0.038656
O O8 0.625000 0.918503 0.125000
O O9 0.569179 0.935190 0.237125
O O10 0.600538 0.784665 0.189896
O O11 0.775442 0.971005 0.939993
O O12 0.875000 0.875000 0.961631
#
# Coordination Sequence:
#
# PCOD9514602 Si02
#       5
#    32  32  32  32  32
#     4  10  19  37  63  90 124 157 196 253 314 383
#     4   9  18  37  64  88 125 160 199 259 315 375
#     4  11  23  39  59  88 127 161 205 265 317 372
#     4  10  21  38  61  92 125 158 207 252 318 382
#     4  10  23  42  62  88 119 166 218 261 312 370
#
# _framework density 21.682542999999999
#
# number of rings (size 3 to 8) (size 9 to 14) (size 15 to 20)
#    0.000    2.000    2.000    1.200    0.000    3.600 
#    0.000    8.000    0.000    0.000    0.000    0.000 
#    0.000    0.000    0.000    0.000    0.000    0.000 
#
# Total GULP energy -222707.595546 kJ/mol
# GULP energy per Si atom -5567.689889 kJ/mol
# Density = 2.163319 g / cm^3
# Si number density = 21.682543 Si / 1000 Ang^3
#
#
#
# Elastic Constant Matrix: (Units=GPa)
#
#
# Indices 1 2 3 4 5 6 
#
# 1 64.1330 31.1049 0.6700 0.0000 0.0000 0.0000
# 2 31.1049 82.4500 25.4202 0.0000 0.0000 0.0000
# 3 0.6700 25.4202 68.8094 0.0000 0.0000 0.0000
# 4 0.0000 0.0000 0.0000 18.4787 0.0000 0.0000
# 5 0.0000 0.0000 0.0000 0.0000 2.4733 0.0000
# 6 0.0000 0.0000 0.0000 0.0000 0.0000 29.4237
#
#
#
# Elastic Compliance Matrix: (Units=1/GPa)
#
#
# Indices 1 2 3 4 5 6 
#
# 1 0.019572 -0.008266 0.002863 0.000000 0.000000 0.000000
# 2 -0.008266 0.017179 -0.006266 0.000000 0.000000 0.000000
# 3 0.002863 -0.006266 0.016820 0.000000 0.000000 0.000000
# 4 0.000000 0.000000 0.000000 0.054116 0.000000 0.000000
# 5 0.000000 0.000000 0.000000 0.000000 0.404325 0.000000
# 6 0.000000 0.000000 0.000000 0.000000 0.000000 0.033986
#
#
# Mechanical properties :
#
#
# Convention : Reuss Voigt Hill
#
# Bulk Modulus (GPa) = 33.07686 36.64252 34.85969
# Shear Modulus (GPa) = 8.62941 20.62163 14.62552
#
# Velocity S-wave (km/s) = 1.99713 3.08729 2.59999
# Velocity P-wave (km/s) = 4.53941 5.44470 5.01253
#
# Compressibility (1/GPa) = 0.03023261
#
# Stress axis : x y z
#
# Youngs Moduli (GPa) = 51.09345 58.21061 59.45360
#
# Poissons Ratio (x) = 0.48120 -0.17023
# Poissons Ratio (y) = 0.42236 0.37253
# Poissons Ratio (z) = -0.14630 0.36474
#
# Static dielectric constant tensor:
#      x y z
#    x 1.777660 0.000000 0.000000 
#    y 0.000000 2.633730 0.000000 
#    z 0.000000 0.000000 1.844220 
# 
# From -- ./inp_files/44710.got.cif
#   From: 2010.05.17/outbox.cif.g08.bks.cpg/sg70_23_cif.got.tgz:44710.got - 2010.06.03 15:57:51.
