data_PCOD9514594
_publ_section_title
;
Structure prediction by ZEFSAII (Michael W. Deem and Ramdas Pophale) SiO2 
 PCOD9514594
Probable space group: F D D D
;
_chemical_formula_sum "Si O2"
_cell_formula_units_Z 208
_cell_length_a 20.147153
_cell_length_b 18.566896
_cell_length_c 25.139655
_cell_angle_alpha 90.000000
_cell_angle_beta 90.000000
_cell_angle_gamma 90.000000
_cell_volume 9403.993120
_symmetry_space_group_name_H-M "F D D D"
_symmetry_group_IT_number 70
_space_group.IT_coordinate_system_code '2'
_symmetry_cell_setting 'orthorhombic'
loop_
_space_group_symop_operation_xyz
x,y,z
1/4-x,1/4-y,z
x,1/4-y,1/4-z
1/4-x,y,1/4-z
-x,-y,-z
3/4+x,3/4+y,-z
-x,3/4+y,3/4+z
3/4+x,-y,3/4+z
x,1/2+y,1/2+z
1/4-x,3/4-y,1/2+z
x,3/4-y,3/4-z
1/4-x,1/2+y,3/4-z
-x,1/2-y,1/2-z
3/4+x,1/4+y,1/2-z
-x,1/4+y,1/4+z
3/4+x,1/2-y,1/4+z
1/2+x,y,1/2+z
3/4-x,1/4-y,1/2+z
1/2+x,1/4-y,3/4-z
3/4-x,y,3/4-z
1/2-x,-y,1/2-z
1/4+x,3/4+y,1/2-z
1/2-x,3/4+y,1/4+z
1/4+x,-y,1/4+z
1/2+x,1/2+y,z
3/4-x,3/4-y,z
1/2+x,3/4-y,1/4-z
3/4-x,1/2+y,1/4-z
1/2-x,1/2-y,-z
1/4+x,1/4+y,-z
1/2-x,1/4+y,3/4+z
1/4+x,1/2-y,3/4+z
loop_
_atom_site_type_symbol
_atom_site_label
_atom_site_fract_x
_atom_site_fract_y
_atom_site_fract_z
Si Si1 0.147886 0.289993 0.360746
Si Si2 0.272316 0.298568 0.140802
Si Si3 0.875000 0.071952 0.875000
Si Si4 0.308627 0.839004 0.202378
Si Si5 0.211843 0.447733 0.289976
Si Si6 0.308813 0.329517 0.263332
Si Si7 0.164790 0.423164 0.028201
O O1 0.150540 0.375000 0.375000
O O2 0.073632 0.262583 0.372408
O O3 0.172425 0.244541 0.309519
O O4 0.197454 0.260576 0.406319
O O5 0.194764 0.281498 0.132224
O O6 0.292329 0.366387 0.102469
O O7 0.283276 0.313457 0.203467
O O8 0.886672 0.123307 0.925698
O O9 0.375000 0.875000 0.225315
O O10 0.240679 0.847658 0.235384
O O11 0.250000 0.500000 0.250000
O O12 0.256977 0.377786 0.295005
O O13 0.140380 0.424521 0.267142
O O14 0.375000 0.375000 0.256375
O O15 0.326970 0.256630 0.293832
#
# Coordination Sequence:
#
# PCOD9514594 Si02
#       7
#    32  32  16  32  32  32  32
#     4  11  22  38  60  87 122 156 195 247 303 350
#     4  10  19  37  62  81 113 156 205 232 286 364
#     4  10  22  38  60  86 112 154 204 246 292 350
#     4   9  20  38  60  82 109 157 204 239 284 357
#     4  12  22  36  57  87 123 161 195 236 298 368
#     4  12  21  34  55  88 119 159 189 236 288 363
#     4  11  22  35  60  85 119 149 198 247 287 340
#
# _framework density 22.118262999999999
#
# number of rings (size 3 to 8) (size 9 to 14) (size 15 to 20)
#    0.000    1.231    4.615    3.231    2.154    0.000 
#    0.000    0.769    3.385    3.692    0.000    0.000 
#    0.000    0.000    0.000    0.000    0.000    0.000 
#
# Total GULP energy -290269.366096 kJ/mol
# GULP energy per Si atom -5582.103194 kJ/mol
# Density = 2.206792 g / cm^3
# Si number density = 22.118263 Si / 1000 Ang^3
#
#
#
# Elastic Constant Matrix: (Units=GPa)
#
#
# Indices 1 2 3 4 5 6 
#
# 1 151.5044 13.6728 16.7472 0.0000 0.0000 0.0000
# 2 13.6728 62.3700 -8.3498 0.0000 0.0000 0.0000
# 3 16.7472 -8.3498 18.7182 0.0000 0.0000 0.0000
# 4 0.0000 0.0000 0.0000 10.0908 0.0000 0.0000
# 5 0.0000 0.0000 0.0000 0.0000 21.7056 0.0000
# 6 0.0000 0.0000 0.0000 0.0000 0.0000 42.7859
#
#
#
# Elastic Compliance Matrix: (Units=1/GPa)
#
#
# Indices 1 2 3 4 5 6 
#
# 1 0.007758 -0.002797 -0.008189 0.000000 0.000000 0.000000
# 2 -0.002797 0.018060 0.010559 0.000000 0.000000 0.000000
# 3 -0.008189 0.010559 0.065461 0.000000 0.000000 0.000000
# 4 0.000000 0.000000 0.000000 0.099100 0.000000 0.000000
# 5 0.000000 0.000000 0.000000 0.000000 0.046071 0.000000
# 6 0.000000 0.000000 0.000000 0.000000 0.000000 0.023372
#
#
# Mechanical properties :
#
#
# Convention : Reuss Voigt Hill
#
# Bulk Modulus (GPa) = 11.05893 30.74809 20.90351
# Shear Modulus (GPa) = 17.19286 28.95128 23.07207
#
# Velocity S-wave (km/s) = 2.79106 3.62184 3.23325
# Velocity P-wave (km/s) = 3.92396 5.60555 4.83837
#
# Compressibility (1/GPa) = 0.09042464
#
# Stress axis : x y z
#
# Youngs Moduli (GPa) = 128.89783 55.37072 15.27633
#
# Poissons Ratio (x) = 0.15487 0.12510
# Poissons Ratio (y) = 0.36053 -0.16130
# Poissons Ratio (z) = 1.05553 -0.58465
#
# Static dielectric constant tensor:
#      x y z
#    x 1.852920 0.000000 0.000000 
#    y 0.000000 1.935290 0.000000 
#    z 0.000000 0.000000 1.882200 
# 
# From -- ./inp_files/36892.got.cif
#   From: 2010.05.17/outbox.cif.g08.bks.cpg/sg70_19_cif.got.tgz:36892.got - 2010.06.03 15:57:51.
