data_PCOD9514543
_publ_section_title
;
Structure prediction by ZEFSAII (Michael W. Deem and Ramdas Pophale) SiO2 
 PCOD9514543
Probable space group: F D D D
;
_chemical_formula_sum "Si O2"
_cell_formula_units_Z 160
_cell_length_a 14.159087
_cell_length_b 14.326389
_cell_length_c 34.234746
_cell_angle_alpha 90.000000
_cell_angle_beta 90.000000
_cell_angle_gamma 90.000000
_cell_volume 6944.469895
_symmetry_space_group_name_H-M "F D D D"
_symmetry_group_IT_number 70
_space_group.IT_coordinate_system_code '2'
_symmetry_cell_setting 'orthorhombic'
loop_
_space_group_symop_operation_xyz
x,y,z
1/4-x,1/4-y,z
x,1/4-y,1/4-z
1/4-x,y,1/4-z
-x,-y,-z
3/4+x,3/4+y,-z
-x,3/4+y,3/4+z
3/4+x,-y,3/4+z
x,1/2+y,1/2+z
1/4-x,3/4-y,1/2+z
x,3/4-y,3/4-z
1/4-x,1/2+y,3/4-z
-x,1/2-y,1/2-z
3/4+x,1/4+y,1/2-z
-x,1/4+y,1/4+z
3/4+x,1/2-y,1/4+z
1/2+x,y,1/2+z
3/4-x,1/4-y,1/2+z
1/2+x,1/4-y,3/4-z
3/4-x,y,3/4-z
1/2-x,-y,1/2-z
1/4+x,3/4+y,1/2-z
1/2-x,3/4+y,1/4+z
1/4+x,-y,1/4+z
1/2+x,1/2+y,z
3/4-x,3/4-y,z
1/2+x,3/4-y,1/4-z
3/4-x,1/2+y,1/4-z
1/2-x,1/2-y,-z
1/4+x,1/4+y,-z
1/2-x,1/4+y,3/4+z
1/4+x,1/2-y,3/4+z
loop_
_atom_site_type_symbol
_atom_site_label
_atom_site_fract_x
_atom_site_fract_y
_atom_site_fract_z
Si Si1 0.784354 0.143131 0.997832
Si Si2 0.760071 0.613443 0.034229
Si Si3 0.004613 0.041100 0.921472
Si Si4 0.782777 0.811568 0.166240
Si Si5 0.036745 0.727003 0.457623
O O1 0.764712 0.111189 0.953609
O O2 0.750000 0.250000 0.000000
O O3 0.892167 0.122880 0.010249
O O4 0.736961 0.074668 0.030889
O O5 0.713841 0.703925 0.054348
O O6 0.795004 0.542739 0.067542
O O7 0.698213 0.563589 0.001167
O O8 0.986372 0.044938 0.875690
O O9 0.980528 0.144600 0.936193
O O10 0.116281 0.021326 0.932418
O O11 0.875000 0.875000 0.158685
#
# Coordination Sequence:
#
# PCOD9514543 Si02
#       5
#    32  32  32  32  32
#     4  10  20  33  51  81 109 144 179 218 270 332
#     4  10  20  34  56  80 107 142 180 222 274 325
#     4  10  19  36  54  81 107 136 184 228 271 322
#     4  11  19  33  55  78 108 140 179 224 264 316
#     4   9  19  32  54  77 105 142 176 222 268 323
#
# _framework density 23.039916000000002
#
# number of rings (size 3 to 8) (size 9 to 14) (size 15 to 20)
#    0.000    2.000    4.000    1.200    0.000    0.000 
#    0.000    2.000    0.000    0.000    0.000   14.000 
#    0.000    0.000    0.000    0.000    0.000    0.000 
#
# Total GULP energy -222706.252657 kJ/mol
# GULP energy per Si atom -5567.656316 kJ/mol
# Density = 2.298748 g / cm^3
# Si number density = 23.039916 Si / 1000 Ang^3
#
#
#
# Elastic Constant Matrix: (Units=GPa)
#
#
# Indices 1 2 3 4 5 6 
#
# 1 50.8299 11.5508 22.1044 0.0000 0.0000 0.0000
# 2 11.5508 144.3303 50.4230 0.0000 0.0000 0.0000
# 3 22.1044 50.4230 174.8821 0.0000 0.0000 0.0000
# 4 0.0000 0.0000 0.0000 35.3233 0.0000 0.0000
# 5 0.0000 0.0000 0.0000 0.0000 19.2636 0.0000
# 6 0.0000 0.0000 0.0000 0.0000 0.0000 16.8770
#
#
#
# Elastic Compliance Matrix: (Units=1/GPa)
#
#
# Indices 1 2 3 4 5 6 
#
# 1 0.020908 -0.000834 -0.002402 0.000000 0.000000 0.000000
# 2 -0.000834 0.007738 -0.002126 0.000000 0.000000 0.000000
# 3 -0.002402 -0.002126 0.006635 0.000000 0.000000 0.000000
# 4 0.000000 0.000000 0.000000 0.028310 0.000000 0.000000
# 5 0.000000 0.000000 0.000000 0.000000 0.051911 0.000000
# 6 0.000000 0.000000 0.000000 0.000000 0.000000 0.059252
#
#
# Mechanical properties :
#
#
# Convention : Reuss Voigt Hill
#
# Bulk Modulus (GPa) = 40.72234 59.79984 50.26109
# Shear Modulus (GPa) = 25.81808 33.35706 29.58757
#
# Velocity S-wave (km/s) = 3.35114 3.80912 3.58744
# Velocity P-wave (km/s) = 5.71722 6.73477 6.24674
#
# Compressibility (1/GPa) = 0.02455655
#
# Stress axis : x y z
#
# Youngs Moduli (GPa) = 47.82942 129.23400 150.72423
#
# Poissons Ratio (x) = 0.10778 0.36207
# Poissons Ratio (y) = 0.03989 0.32038
# Poissons Ratio (z) = 0.11489 0.27470
#
# Static dielectric constant tensor:
#      x y z
#    x 2.108620 0.000000 0.000000 
#    y 0.000000 2.050040 0.000000 
#    z 0.000000 0.000000 1.812360 
# 
# From -- ./inp_files/51283.got.cif
#   From: 2010.05.17/outbox.cif.g08.bks.cpg/sg70_26_cif.got.tgz:51283.got - 2010.06.03 15:57:51.
