data_PCOD9514814
_publ_section_title
;
Structure prediction by ZEFSAII (Michael W. Deem and Ramdas Pophale) SiO2 
 PCOD9514814
Probable space group: F D D D
;
_chemical_formula_sum "Si O2"
_cell_formula_units_Z 192
_cell_length_a 17.970487
_cell_length_b 34.065044
_cell_length_c 17.961345
_cell_angle_alpha 90.000000
_cell_angle_beta 90.000000
_cell_angle_gamma 90.000000
_cell_volume 10995.314492
_symmetry_space_group_name_H-M "F D D D"
_symmetry_group_IT_number 70
_space_group.IT_coordinate_system_code '2'
_symmetry_cell_setting 'orthorhombic'
loop_
_space_group_symop_operation_xyz
x,y,z
1/4-x,1/4-y,z
x,1/4-y,1/4-z
1/4-x,y,1/4-z
-x,-y,-z
3/4+x,3/4+y,-z
-x,3/4+y,3/4+z
3/4+x,-y,3/4+z
x,1/2+y,1/2+z
1/4-x,3/4-y,1/2+z
x,3/4-y,3/4-z
1/4-x,1/2+y,3/4-z
-x,1/2-y,1/2-z
3/4+x,1/4+y,1/2-z
-x,1/4+y,1/4+z
3/4+x,1/2-y,1/4+z
1/2+x,y,1/2+z
3/4-x,1/4-y,1/2+z
1/2+x,1/4-y,3/4-z
3/4-x,y,3/4-z
1/2-x,-y,1/2-z
1/4+x,3/4+y,1/2-z
1/2-x,3/4+y,1/4+z
1/4+x,-y,1/4+z
1/2+x,1/2+y,z
3/4-x,3/4-y,z
1/2+x,3/4-y,1/4-z
3/4-x,1/2+y,1/4-z
1/2-x,1/2-y,-z
1/4+x,1/4+y,-z
1/2-x,1/4+y,3/4+z
1/4+x,1/2-y,3/4+z
loop_
_atom_site_type_symbol
_atom_site_label
_atom_site_fract_x
_atom_site_fract_y
_atom_site_fract_z
Si Si1 0.375000 0.875000 0.875000
Si Si2 0.730923 0.588263 0.003222
Si Si3 0.685391 0.268298 0.546069
Si Si4 0.375000 0.375000 0.628516
Si Si5 0.276877 0.750456 0.282245
Si Si6 0.886740 0.107950 0.959611
Si Si7 0.625000 0.125000 0.625000
Si Si8 0.971144 0.916155 0.248575
O O1 0.323144 0.900950 0.929467
O O2 0.680487 0.600065 0.931569
O O3 0.805495 0.614243 0.001546
O O4 0.752315 0.542761 0.009759
O O5 0.678146 0.598920 0.072998
O O6 0.750000 0.250000 0.500000
O O7 0.704974 0.255255 0.630043
O O8 0.611682 0.252512 0.505004
O O9 0.675409 0.315147 0.546985
O O10 0.324210 0.401567 0.574211
O O11 0.230610 0.713122 0.255050
O O12 0.875000 0.122552 0.875000
O O13 0.805008 0.101582 0.994516
#
# Coordination Sequence:
#
# PCOD9514814 Si02
#       8
#     8  32  32  16  32  32   8  32
#     4  10  24  44  68  82 112 154 208 266 284 356
#     4  11  23  35  57  91 124 152 188 253 298 353
#     4  10  20  35  59  82 120 160 195 236 288 363
#     4  10  20  38  66  80 114 164 196 230 302 376
#     4  10  21  36  55  89 116 149 200 242 291 351
#     4  11  20  40  61  86 118 161 201 234 295 371
#     4  10  24  36  48  90 132 154 192 230 312 352
#     4  10  21  44  63  84 111 159 209 238 298 360
#
# _framework density 17.461983
#
# number of rings (size 3 to 8) (size 9 to 14) (size 15 to 20)
#    0.000    1.667    5.000    1.000    9.333    0.667 
#    4.500    0.000    0.000    4.000    0.000    0.000 
#    0.000    0.000    0.000    0.000    0.000    0.000 
#
# Total GULP energy -267609.789400 kJ/mol
# GULP energy per Si atom -5575.203946 kJ/mol
# Density = 1.742224 g / cm^3
# Si number density = 17.461983 Si / 1000 Ang^3
#
#
#
# Elastic Constant Matrix: (Units=GPa)
#
#
# Indices 1 2 3 4 5 6 
#
# 1 113.0635 60.8272 46.9844 0.0000 0.0000 0.0000
# 2 60.8272 103.5858 38.6210 0.0000 0.0000 0.0000
# 3 46.9844 38.6210 84.5489 0.0000 0.0000 0.0000
# 4 0.0000 0.0000 0.0000 4.5995 0.0000 0.0000
# 5 0.0000 0.0000 0.0000 0.0000 23.8228 0.0000
# 6 0.0000 0.0000 0.0000 0.0000 0.0000 6.3601
#
#
#
# Elastic Compliance Matrix: (Units=1/GPa)
#
#
# Indices 1 2 3 4 5 6 
#
# 1 0.014509 -0.006646 -0.005027 0.000000 0.000000 0.000000
# 2 -0.006646 0.014679 -0.003012 0.000000 0.000000 0.000000
# 3 -0.005027 -0.003012 0.015997 0.000000 0.000000 0.000000
# 4 0.000000 0.000000 0.000000 0.217417 0.000000 0.000000
# 5 0.000000 0.000000 0.000000 0.000000 0.041977 0.000000
# 6 0.000000 0.000000 0.000000 0.000000 0.000000 0.157231
#
#
# Mechanical properties :
#
#
# Convention : Reuss Voigt Hill
#
# Bulk Modulus (GPa) = 63.22994 66.00706 64.61850
# Shear Modulus (GPa) = 10.07146 17.27417 13.67282
#
# Velocity S-wave (km/s) = 2.40420 3.14864 2.80126
# Velocity P-wave (km/s) = 6.63292 7.14850 6.89553
#
# Compressibility (1/GPa) = 0.01581529
#
# Stress axis : x y z
#
# Youngs Moduli (GPa) = 68.92331 68.12299 62.51141
#
# Poissons Ratio (x) = 0.45271 0.31425
# Poissons Ratio (y) = 0.45803 0.18831
# Poissons Ratio (z) = 0.34648 0.20521
#
# Static dielectric constant tensor:
#      x y z
#    x 1.621200 0.000000 0.000000 
#    y 0.000000 1.590410 0.000000 
#    z 0.000000 0.000000 1.603670 
# 
# From -- ./inp_files/35543.got.cif
#   From: 2010.05.17/outbox.cif.g08.bks.cpg/sg70_18_cif.got.tgz:35543.got - 2010.06.03 15:57:51.
