data_PCOD9514332
_publ_section_title
;
Structure prediction by ZEFSAII (Michael W. Deem and Ramdas Pophale) SiO2 
 PCOD9514332
Probable space group: F D D D
;
_chemical_formula_sum "Si O2"
_cell_formula_units_Z 160
_cell_length_a 14.161251
_cell_length_b 15.679010
_cell_length_c 28.755321
_cell_angle_alpha 90.000000
_cell_angle_beta 90.000000
_cell_angle_gamma 90.000000
_cell_volume 6384.670331
_symmetry_space_group_name_H-M "F D D D"
_symmetry_group_IT_number 70
_space_group.IT_coordinate_system_code '2'
_symmetry_cell_setting 'orthorhombic'
loop_
_space_group_symop_operation_xyz
x,y,z
1/4-x,1/4-y,z
x,1/4-y,1/4-z
1/4-x,y,1/4-z
-x,-y,-z
3/4+x,3/4+y,-z
-x,3/4+y,3/4+z
3/4+x,-y,3/4+z
x,1/2+y,1/2+z
1/4-x,3/4-y,1/2+z
x,3/4-y,3/4-z
1/4-x,1/2+y,3/4-z
-x,1/2-y,1/2-z
3/4+x,1/4+y,1/2-z
-x,1/4+y,1/4+z
3/4+x,1/2-y,1/4+z
1/2+x,y,1/2+z
3/4-x,1/4-y,1/2+z
1/2+x,1/4-y,3/4-z
3/4-x,y,3/4-z
1/2-x,-y,1/2-z
1/4+x,3/4+y,1/2-z
1/2-x,3/4+y,1/4+z
1/4+x,-y,1/4+z
1/2+x,1/2+y,z
3/4-x,3/4-y,z
1/2+x,3/4-y,1/4-z
3/4-x,1/2+y,1/4-z
1/2-x,1/2-y,-z
1/4+x,1/4+y,-z
1/2-x,1/4+y,3/4+z
1/4+x,1/2-y,3/4+z
loop_
_atom_site_type_symbol
_atom_site_label
_atom_site_fract_x
_atom_site_fract_y
_atom_site_fract_z
Si Si1 0.500655 0.508642 0.595400
Si Si2 0.323846 0.283630 0.037580
Si Si3 0.484242 0.307698 0.444663
Si Si4 0.277513 0.221477 0.132782
Si Si5 0.275074 0.904507 0.047102
O O1 0.533058 0.596892 0.573101
O O2 0.535506 0.499561 0.649102
O O3 0.388384 0.529536 0.602363
O O4 0.526982 0.434213 0.558673
O O5 0.375000 0.375000 0.028896
O O6 0.406042 0.213253 0.043766
O O7 0.272697 0.280773 0.087507
O O8 0.250000 0.250000 0.000000
O O9 0.446904 0.307535 0.497252
O O10 0.246487 0.125000 0.125000
O O11 0.226789 0.269875 0.174626
O O12 0.375000 0.875000 0.069318
#
# Coordination Sequence:
#
# PCOD9514332 Si02
#       5
#    32  32  32  32  32
#     4   9  17  36  57  83 114 159 208 246 312 405
#     4  11  24  40  65  93 124 169 220 268 325 392
#     4  10  19  36  62  87 122 161 203 261 319 381
#     4  10  18  37  59  83 118 168 215 254 313 404
#     4  10  21  33  60  90 117 158 214 258 317 389
#
# _framework density 25.060025
#
# number of rings (size 3 to 8) (size 9 to 14) (size 15 to 20)
#    0.000    2.000    4.000    3.600    2.800    0.000 
#    0.000    3.000    0.000    4.800    0.000    0.000 
#    0.000    0.000    0.000    0.000    0.000    0.000 
#
# Total GULP energy -222928.509445 kJ/mol
# GULP energy per Si atom -5573.212736 kJ/mol
# Density = 2.500299 g / cm^3
# Si number density = 25.060025 Si / 1000 Ang^3
#
#
#
# Elastic Constant Matrix: (Units=GPa)
#
#
# Indices 1 2 3 4 5 6 
#
# 1 62.6901 19.0341 13.0843 0.0000 0.0000 0.0000
# 2 19.0341 141.6498 45.7765 0.0000 0.0000 0.0000
# 3 13.0843 45.7765 110.4041 0.0000 0.0000 0.0000
# 4 0.0000 0.0000 0.0000 28.3890 0.0000 0.0000
# 5 0.0000 0.0000 0.0000 0.0000 31.7757 0.0000
# 6 0.0000 0.0000 0.0000 0.0000 0.0000 6.5720
#
#
#
# Elastic Compliance Matrix: (Units=1/GPa)
#
#
# Indices 1 2 3 4 5 6 
#
# 1 0.016770 -0.001860 -0.001216 0.000000 0.000000 0.000000
# 2 -0.001860 0.008358 -0.003245 0.000000 0.000000 0.000000
# 3 -0.001216 -0.003245 0.010547 0.000000 0.000000 0.000000
# 4 0.000000 0.000000 0.000000 0.035225 0.000000 0.000000
# 5 0.000000 0.000000 0.000000 0.000000 0.031471 0.000000
# 6 0.000000 0.000000 0.000000 0.000000 0.000000 0.152160
#
#
# Mechanical properties :
#
#
# Convention : Reuss Voigt Hill
#
# Bulk Modulus (GPa) = 43.41695 52.28151 47.84923
# Shear Modulus (GPa) = 18.19159 29.13729 23.66444
#
# Velocity S-wave (km/s) = 2.69721 3.41354 3.07630
# Velocity P-wave (km/s) = 5.20219 6.03690 5.63502
#
# Compressibility (1/GPa) = 0.02303248
#
# Stress axis : x y z
#
# Youngs Moduli (GPa) = 59.62963 119.64039 94.81125
#
# Poissons Ratio (x) = 0.22259 0.11530
# Poissons Ratio (y) = 0.11094 0.30767
# Poissons Ratio (z) = 0.07251 0.38825
#
# Static dielectric constant tensor:
#      x y z
#    x 2.162620 0.000000 0.000000 
#    y 0.000000 2.135260 0.000000 
#    z 0.000000 0.000000 2.073360 
# 
# From -- ./inp_files/59400.got.cif
#   From: 2010.05.17/outbox.cif.g08.bks.cpg/sg70_30_cif.got.tgz:59400.got - 2010.06.03 15:57:51.
