data_PCOD9514979
_publ_section_title
;
Structure prediction by ZEFSAII (Michael W. Deem and Ramdas Pophale) SiO2 
 PCOD9514979
Probable space group: F D D D
;
_chemical_formula_sum "Si O2"
_cell_formula_units_Z 208
_cell_length_a 22.269681
_cell_length_b 27.476863
_cell_length_c 19.611713
_cell_angle_alpha 90.000000
_cell_angle_beta 90.000000
_cell_angle_gamma 90.000000
_cell_volume 12000.426284
_symmetry_space_group_name_H-M "F D D D"
_symmetry_group_IT_number 70
_space_group.IT_coordinate_system_code '2'
_symmetry_cell_setting 'orthorhombic'
loop_
_space_group_symop_operation_xyz
x,y,z
1/4-x,1/4-y,z
x,1/4-y,1/4-z
1/4-x,y,1/4-z
-x,-y,-z
3/4+x,3/4+y,-z
-x,3/4+y,3/4+z
3/4+x,-y,3/4+z
x,1/2+y,1/2+z
1/4-x,3/4-y,1/2+z
x,3/4-y,3/4-z
1/4-x,1/2+y,3/4-z
-x,1/2-y,1/2-z
3/4+x,1/4+y,1/2-z
-x,1/4+y,1/4+z
3/4+x,1/2-y,1/4+z
1/2+x,y,1/2+z
3/4-x,1/4-y,1/2+z
1/2+x,1/4-y,3/4-z
3/4-x,y,3/4-z
1/2-x,-y,1/2-z
1/4+x,3/4+y,1/2-z
1/2-x,3/4+y,1/4+z
1/4+x,-y,1/4+z
1/2+x,1/2+y,z
3/4-x,3/4-y,z
1/2+x,3/4-y,1/4-z
3/4-x,1/2+y,1/4-z
1/2-x,1/2-y,-z
1/4+x,1/4+y,-z
1/2-x,1/4+y,3/4+z
1/4+x,1/2-y,3/4+z
loop_
_atom_site_type_symbol
_atom_site_label
_atom_site_fract_x
_atom_site_fract_y
_atom_site_fract_z
Si Si1 0.895610 0.667445 0.571643
Si Si2 0.182084 0.291813 0.076759
Si Si3 0.625000 0.477750 0.625000
Si Si4 0.437923 0.245197 0.678224
Si Si5 0.532539 0.348584 0.064197
Si Si6 0.820133 0.501097 0.737903
Si Si7 0.152253 0.573595 0.383691
O O1 0.880370 0.625000 0.625000
O O2 0.923724 0.710695 0.615424
O O3 0.942592 0.651905 0.513257
O O4 0.839913 0.694448 0.535399
O O5 0.125000 0.279702 0.125000
O O6 0.242368 0.259292 0.081115
O O7 0.201559 0.347510 0.091198
O O8 0.168979 0.283743 0.996536
O O9 0.679627 0.442239 0.604302
O O10 0.605811 0.507591 0.558365
O O11 0.397551 0.293792 0.676259
O O12 0.462973 0.335168 0.074422
O O13 0.750000 0.500000 0.750000
O O14 0.834247 0.461305 0.680327
O O15 0.125000 0.625000 0.361535
#
# Coordination Sequence:
#
# PCOD9514979 Si02
#       7
#    32  32  16  32  32  32  32
#     4  10  21  38  59  87 118 157 200 252 298 359
#     4  11  22  37  60  87 116 154 196 248 294 357
#     4  10  20  38  61  88 114 156 205 246 296 368
#     4  10  23  40  55  86 123 149 200 247 293 360
#     4  11  20  35  63  84 114 159 198 240 303 367
#     4  10  21  39  62  88 122 157 205 250 308 369
#     4  11  22  39  60  87 120 161 193 250 310 356
#
# _framework density 17.332718
#
# number of rings (size 3 to 8) (size 9 to 14) (size 15 to 20)
#    0.000    1.538    5.385    0.000    2.154    0.000 
#    0.000    1.923    0.000    0.000    0.000    0.000 
#    0.000    0.000    0.000    0.000    0.000    0.000 
#
# Total GULP energy -289718.100917 kJ/mol
# GULP energy per Si atom -5571.501941 kJ/mol
# Density = 1.729327 g / cm^3
# Si number density = 17.332718 Si / 1000 Ang^3
#
#
#
# Elastic Constant Matrix: (Units=GPa)
#
#
# Indices 1 2 3 4 5 6 
#
# 1 105.9619 23.9042 41.0320 0.0000 0.0000 0.0000
# 2 23.9042 67.8832 21.4263 0.0000 0.0000 0.0000
# 3 41.0320 21.4263 83.1644 0.0000 0.0000 0.0000
# 4 0.0000 0.0000 0.0000 17.5093 0.0000 0.0000
# 5 0.0000 0.0000 0.0000 0.0000 17.2181 0.0000
# 6 0.0000 0.0000 0.0000 0.0000 0.0000 18.4464
#
#
#
# Elastic Compliance Matrix: (Units=1/GPa)
#
#
# Indices 1 2 3 4 5 6 
#
# 1 0.012068 -0.002580 -0.005289 0.000000 0.000000 0.000000
# 2 -0.002580 0.016587 -0.003000 0.000000 0.000000 0.000000
# 3 -0.005289 -0.003000 0.015407 0.000000 0.000000 0.000000
# 4 0.000000 0.000000 0.000000 0.057112 0.000000 0.000000
# 5 0.000000 0.000000 0.000000 0.000000 0.058078 0.000000
# 6 0.000000 0.000000 0.000000 0.000000 0.000000 0.054211
#
#
# Mechanical properties :
#
#
# Convention : Reuss Voigt Hill
#
# Bulk Modulus (GPa) = 44.79888 47.74828 46.27358
# Shear Modulus (GPa) = 20.60638 22.01123 21.30881
#
# Velocity S-wave (km/s) = 3.45174 3.56747 3.51008
# Velocity P-wave (km/s) = 6.46441 6.67660 6.57136
#
# Compressibility (1/GPa) = 0.02232199
#
# Stress axis : x y z
#
# Youngs Moduli (GPa) = 82.86693 60.28917 64.90544
#
# Poissons Ratio (x) = 0.15554 0.34330
# Poissons Ratio (y) = 0.21379 0.19475
# Poissons Ratio (z) = 0.43830 0.18090
#
# Static dielectric constant tensor:
#      x y z
#    x 1.585860 0.000000 0.000000 
#    y 0.000000 1.584080 0.000000 
#    z 0.000000 0.000000 1.621140 
# 
# From -- ./inp_files/37713.got.cif
#   From: 2010.05.17/outbox.cif.g08.bks.cpg/sg70_19_cif.got.tgz:37713.got - 2010.06.03 15:57:51.
