data_PCOD9514991
_publ_section_title
;
Structure prediction by ZEFSAII (Michael W. Deem and Ramdas Pophale) SiO2 
 PCOD9514991
Probable space group: F D D D
;
_chemical_formula_sum "Si O2"
_cell_formula_units_Z 160
_cell_length_a 13.851301
_cell_length_b 19.717696
_cell_length_c 30.517266
_cell_angle_alpha 90.000000
_cell_angle_beta 90.000000
_cell_angle_gamma 90.000000
_cell_volume 8334.745757
_symmetry_space_group_name_H-M "F D D D"
_symmetry_group_IT_number 70
_space_group.IT_coordinate_system_code '2'
_symmetry_cell_setting 'orthorhombic'
loop_
_space_group_symop_operation_xyz
x,y,z
1/4-x,1/4-y,z
x,1/4-y,1/4-z
1/4-x,y,1/4-z
-x,-y,-z
3/4+x,3/4+y,-z
-x,3/4+y,3/4+z
3/4+x,-y,3/4+z
x,1/2+y,1/2+z
1/4-x,3/4-y,1/2+z
x,3/4-y,3/4-z
1/4-x,1/2+y,3/4-z
-x,1/2-y,1/2-z
3/4+x,1/4+y,1/2-z
-x,1/4+y,1/4+z
3/4+x,1/2-y,1/4+z
1/2+x,y,1/2+z
3/4-x,1/4-y,1/2+z
1/2+x,1/4-y,3/4-z
3/4-x,y,3/4-z
1/2-x,-y,1/2-z
1/4+x,3/4+y,1/2-z
1/2-x,3/4+y,1/4+z
1/4+x,-y,1/4+z
1/2+x,1/2+y,z
3/4-x,3/4-y,z
1/2+x,3/4-y,1/4-z
3/4-x,1/2+y,1/4-z
1/2-x,1/2-y,-z
1/4+x,1/4+y,-z
1/2-x,1/4+y,3/4+z
1/4+x,1/2-y,3/4+z
loop_
_atom_site_type_symbol
_atom_site_label
_atom_site_fract_x
_atom_site_fract_y
_atom_site_fract_z
Si Si1 0.375000 0.176365 0.375000
Si Si2 0.573522 0.874347 0.961644
Si Si3 0.375000 0.375000 0.234833
Si Si4 0.366234 0.977316 0.182432
Si Si5 0.467634 0.127604 0.791402
Si Si6 0.322167 0.485465 0.161690
O O1 0.403599 0.130140 0.415583
O O2 0.465297 0.220020 0.357474
O O3 0.604552 0.804427 0.939353
O O4 0.574713 0.937658 0.928694
O O5 0.469038 0.865751 0.984640
O O6 0.652553 0.885857 0.999602
O O7 0.350528 0.437754 0.202537
O O8 0.450845 0.929934 0.202047
O O9 0.270719 0.949910 0.206102
O O10 0.360280 0.967445 0.129900
#
# Coordination Sequence:
#
# PCOD9514991 Si02
#       6
#    16  32  16  32  32  32
#     4  10  20  38  63  88 119 170 204 252 310 378
#     4  12  24  38  62  95 126 156 204 265 315 359
#     4  12  24  38  61  92 124 168 204 253 310 382
#     4  10  23  41  63  88 119 165 202 254 309 369
#     4  10  21  41  63  85 121 160 212 243 302 378
#     4  11  23  40  60  92 126 159 208 253 315 383
#
# _framework density 19.196746000000001
#
# number of rings (size 3 to 8) (size 9 to 14) (size 15 to 20)
#    0.000    1.200    2.000    5.400    5.600    0.000 
#    0.000    0.000    0.000    0.000    0.000    0.000 
#    0.000    0.000    0.000    0.000    0.000    0.000 
#
# Total GULP energy -223384.268309 kJ/mol
# GULP energy per Si atom -5584.606708 kJ/mol
# Density = 1.915305 g / cm^3
# Si number density = 19.196746 Si / 1000 Ang^3
#
#
#
# Elastic Constant Matrix: (Units=GPa)
#
#
# Indices 1 2 3 4 5 6 
#
# 1 67.1987 17.9279 28.9170 0.0000 0.0000 0.0000
# 2 17.9279 113.6745 10.3635 0.0000 0.0000 0.0000
# 3 28.9170 10.3635 63.9320 0.0000 0.0000 0.0000
# 4 0.0000 0.0000 0.0000 34.4128 0.0000 0.0000
# 5 0.0000 0.0000 0.0000 0.0000 21.5909 0.0000
# 6 0.0000 0.0000 0.0000 0.0000 0.0000 19.3037
#
#
#
# Elastic Compliance Matrix: (Units=1/GPa)
#
#
# Indices 1 2 3 4 5 6 
#
# 1 0.019028 -0.002250 -0.008242 0.000000 0.000000 0.000000
# 2 -0.002250 0.009195 -0.000473 0.000000 0.000000 0.000000
# 3 -0.008242 -0.000473 0.019446 0.000000 0.000000 0.000000
# 4 0.000000 0.000000 0.000000 0.029059 0.000000 0.000000
# 5 0.000000 0.000000 0.000000 0.000000 0.046316 0.000000
# 6 0.000000 0.000000 0.000000 0.000000 0.000000 0.051804
#
#
# Mechanical properties :
#
#
# Convention : Reuss Voigt Hill
#
# Bulk Modulus (GPa) = 38.84969 39.91355 39.38162
# Shear Modulus (GPa) = 24.34788 27.56792 25.95790
#
# Velocity S-wave (km/s) = 3.56523 3.79367 3.68122
# Velocity P-wave (km/s) = 6.10159 6.32662 6.21513
#
# Compressibility (1/GPa) = 0.02574023
#
# Stress axis : x y z
#
# Youngs Moduli (GPa) = 52.55398 108.75533 51.42401
#
# Poissons Ratio (x) = 0.24465 0.42383
# Poissons Ratio (y) = 0.11822 0.02432
# Poissons Ratio (z) = 0.43314 0.05144
#
# Static dielectric constant tensor:
#      x y z
#    x 1.694730 0.000000 0.000000 
#    y 0.000000 1.663070 0.000000 
#    z 0.000000 0.000000 1.653330 
# 
# From -- ./inp_files/30946.got.cif
#   From: 2010.05.17/outbox.cif.g08.bks.cpg/sg70_16_cif.got.tgz:30946.got - 2010.06.03 15:57:51.
