data_PCOD9514890
_publ_section_title
;
Structure prediction by ZEFSAII (Michael W. Deem and Ramdas Pophale) SiO2 
 PCOD9514890
Probable space group: F D D D
;
_chemical_formula_sum "Si O2"
_cell_formula_units_Z 216
_cell_length_a 24.360096
_cell_length_b 15.051549
_cell_length_c 25.177877
_cell_angle_alpha 90.000000
_cell_angle_beta 90.000000
_cell_angle_gamma 90.000000
_cell_volume 9231.649344
_symmetry_space_group_name_H-M "F D D D"
_symmetry_group_IT_number 70
_space_group.IT_coordinate_system_code '2'
_symmetry_cell_setting 'orthorhombic'
loop_
_space_group_symop_operation_xyz
x,y,z
1/4-x,1/4-y,z
x,1/4-y,1/4-z
1/4-x,y,1/4-z
-x,-y,-z
3/4+x,3/4+y,-z
-x,3/4+y,3/4+z
3/4+x,-y,3/4+z
x,1/2+y,1/2+z
1/4-x,3/4-y,1/2+z
x,3/4-y,3/4-z
1/4-x,1/2+y,3/4-z
-x,1/2-y,1/2-z
3/4+x,1/4+y,1/2-z
-x,1/4+y,1/4+z
3/4+x,1/2-y,1/4+z
1/2+x,y,1/2+z
3/4-x,1/4-y,1/2+z
1/2+x,1/4-y,3/4-z
3/4-x,y,3/4-z
1/2-x,-y,1/2-z
1/4+x,3/4+y,1/2-z
1/2-x,3/4+y,1/4+z
1/4+x,-y,1/4+z
1/2+x,1/2+y,z
3/4-x,3/4-y,z
1/2+x,3/4-y,1/4-z
3/4-x,1/2+y,1/4-z
1/2-x,1/2-y,-z
1/4+x,1/4+y,-z
1/2-x,1/4+y,3/4+z
1/4+x,1/2-y,3/4+z
loop_
_atom_site_type_symbol
_atom_site_label
_atom_site_fract_x
_atom_site_fract_y
_atom_site_fract_z
Si Si1 0.548541 0.341861 0.795137
Si Si2 0.760789 0.375000 0.875000
Si Si3 0.768084 0.061621 0.384634
Si Si4 0.919920 0.108304 0.532688
Si Si5 0.992493 0.244132 0.500538
Si Si6 0.702969 0.484878 0.176213
Si Si7 0.625000 0.125000 0.625000
Si Si8 0.566133 0.659283 0.788776
O O1 0.610191 0.373321 0.806907
O O2 0.510186 0.429130 0.789836
O O3 0.515441 0.272057 0.830747
O O4 0.552882 0.295998 0.737105
O O5 0.794483 0.284403 0.875582
O O6 0.717407 0.368897 0.923374
O O7 0.804795 0.147614 0.390809
O O8 0.723590 0.077886 0.339044
O O9 0.740884 0.045368 0.442913
O O10 0.937183 0.187060 0.492384
O O11 0.925891 0.007029 0.512575
O O12 0.039752 0.168219 0.496918
O O13 0.662283 0.562089 0.160962
O O14 0.625000 0.625000 0.806769
#
# Coordination Sequence:
#
# PCOD9514890 Si02
#       8
#    32  16  32  32  32  32   8  32
#     4  10  22  42  62  88 128 170 227 275 334 410
#     4   8  18  37  62  95 122 163 213 286 350 390
#     4   9  21  40  61  89 134 166 222 285 338 405
#     4  10  20  36  64  94 127 170 223 284 344 401
#     4  10  21  39  61  93 132 171 216 285 345 416
#     4  10  25  42  59  91 128 179 222 272 331 404
#     4  12  28  42  68  94 136 180 226 268 330 406
#     4  11  21  36  64 101 128 175 232 284 348 416
#
# _framework density 23.397769
#
# number of rings (size 3 to 8) (size 9 to 14) (size 15 to 20)
#    0.000    2.074    1.481    0.444    4.148    4.148 
#    0.000    0.000    0.000    0.000    3.852    0.000 
#    0.000    0.000    0.000    0.000    0.000    0.000 
#
# Total GULP energy -301392.644605 kJ/mol
# GULP energy per Si atom -5581.345270 kJ/mol
# Density = 2.334451 g / cm^3
# Si number density = 23.397769 Si / 1000 Ang^3
#
#
#
# Elastic Constant Matrix: (Units=GPa)
#
#
# Indices 1 2 3 4 5 6 
#
# 1 69.5653 52.2938 13.3649 0.0000 0.0000 0.0000
# 2 52.2938 189.9023 24.4917 0.0000 0.0000 0.0000
# 3 13.3649 24.4917 70.5149 0.0000 0.0000 0.0000
# 4 0.0000 0.0000 0.0000 13.0785 0.0000 0.0000
# 5 0.0000 0.0000 0.0000 0.0000 8.2659 0.0000
# 6 0.0000 0.0000 0.0000 0.0000 0.0000 26.0812
#
#
#
# Elastic Compliance Matrix: (Units=1/GPa)
#
#
# Indices 1 2 3 4 5 6 
#
# 1 0.018344 -0.004819 -0.001803 0.000000 0.000000 0.000000
# 2 -0.004819 0.006779 -0.001441 0.000000 0.000000 0.000000
# 3 -0.001803 -0.001441 0.015024 0.000000 0.000000 0.000000
# 4 0.000000 0.000000 0.000000 0.076461 0.000000 0.000000
# 5 0.000000 0.000000 0.000000 0.000000 0.120978 0.000000
# 6 0.000000 0.000000 0.000000 0.000000 0.000000 0.038342
#
#
# Mechanical properties :
#
#
# Convention : Reuss Voigt Hill
#
# Bulk Modulus (GPa) = 41.63162 56.69817 49.16490
# Shear Modulus (GPa) = 16.66333 25.47394 21.06863
#
# Velocity S-wave (km/s) = 2.67156 3.30318 3.00401
# Velocity P-wave (km/s) = 5.22952 6.23160 5.75242
#
# Compressibility (1/GPa) = 0.02402020
#
# Stress axis : x y z
#
# Youngs Moduli (GPa) = 54.51429 147.52098 66.56167
#
# Poissons Ratio (x) = 0.71088 0.12001
# Poissons Ratio (y) = 0.26270 0.09592
# Poissons Ratio (z) = 0.09829 0.21259
#
# Static dielectric constant tensor:
#      x y z
#    x 1.852740 0.000000 0.000000 
#    y 0.000000 1.946520 0.000000 
#    z 0.000000 0.000000 1.998830 
# 
# From -- ./inp_files/67982.got.cif
#   From: 2010.05.17/outbox.cif.g08.bks.cpg/sg70_34_cif.got.tgz:67982.got - 2010.06.03 15:57:51.
