data_PCOD9514078
_publ_section_title
;
Structure prediction by ZEFSAII (Michael W. Deem and Ramdas Pophale) SiO2 
 PCOD9514078
Probable space group: F D D D
;
_chemical_formula_sum "Si O2"
_cell_formula_units_Z 240
_cell_length_a 22.643075
_cell_length_b 28.635593
_cell_length_c 20.495928
_cell_angle_alpha 90.000000
_cell_angle_beta 90.000000
_cell_angle_gamma 90.000000
_cell_volume 13289.516263
_symmetry_space_group_name_H-M "F D D D"
_symmetry_group_IT_number 70
_space_group.IT_coordinate_system_code '2'
_symmetry_cell_setting 'orthorhombic'
loop_
_space_group_symop_operation_xyz
x,y,z
1/4-x,1/4-y,z
x,1/4-y,1/4-z
1/4-x,y,1/4-z
-x,-y,-z
3/4+x,3/4+y,-z
-x,3/4+y,3/4+z
3/4+x,-y,3/4+z
x,1/2+y,1/2+z
1/4-x,3/4-y,1/2+z
x,3/4-y,3/4-z
1/4-x,1/2+y,3/4-z
-x,1/2-y,1/2-z
3/4+x,1/4+y,1/2-z
-x,1/4+y,1/4+z
3/4+x,1/2-y,1/4+z
1/2+x,y,1/2+z
3/4-x,1/4-y,1/2+z
1/2+x,1/4-y,3/4-z
3/4-x,y,3/4-z
1/2-x,-y,1/2-z
1/4+x,3/4+y,1/2-z
1/2-x,3/4+y,1/4+z
1/4+x,-y,1/4+z
1/2+x,1/2+y,z
3/4-x,3/4-y,z
1/2+x,3/4-y,1/4-z
3/4-x,1/2+y,1/4-z
1/2-x,1/2-y,-z
1/4+x,1/4+y,-z
1/2-x,1/4+y,3/4+z
1/4+x,1/2-y,3/4+z
loop_
_atom_site_type_symbol
_atom_site_label
_atom_site_fract_x
_atom_site_fract_y
_atom_site_fract_z
Si Si1 0.998553 0.594122 0.819628
Si Si2 0.353573 0.132325 0.021733
Si Si3 0.230480 0.389715 0.538360
Si Si4 0.881618 0.548297 0.628691
Si Si5 0.260577 0.000131 0.636446
Si Si6 0.943537 0.942842 0.484826
Si Si7 0.625000 0.125000 0.410111
Si Si8 0.330032 0.953249 0.057913
O O1 0.951730 0.614638 0.769598
O O2 0.985609 0.617946 0.889486
O O3 0.992668 0.538830 0.834118
O O4 0.066627 0.606972 0.803061
O O5 0.339942 0.177906 0.065282
O O6 0.371415 0.089638 0.068903
O O7 0.412610 0.141824 0.980786
O O8 0.270118 0.355194 0.492929
O O9 0.264195 0.438745 0.539734
O O10 0.815616 0.530739 0.612627
O O11 0.913951 0.504591 0.662163
O O12 0.210264 0.032242 0.667585
O O13 0.284523 0.972646 0.701401
O O14 0.873854 0.942884 0.497618
O O15 0.646023 0.167225 0.363240
#
# Coordination Sequence:
#
# PCOD9514078 Si02
#       8
#    32  32  32  32  32  32  16  32
#     4  10  20  34  59  86 112 145 197 244 285 343
#     4  11  23  36  53  83 120 151 190 240 291 338
#     4  10  18  33  55  84 115 149 182 234 291 337
#     4  10  21  37  55  78 115 161 192 230 293 351
#     4   9  16  30  57  82 112 147 185 229 283 348
#     4   9  14  27  55  87 111 144 182 224 275 342
#     4  10  16  34  58  81 106 149 194 234 280 342
#     4  10  17  33  58  82 112 155 193 222 280 351
#
# _framework density 18.059348
#
# number of rings (size 3 to 8) (size 9 to 14) (size 15 to 20)
#    0.000    2.133    6.667    0.400    1.867    1.067 
#    0.000    2.667    0.000    1.600    0.000    0.000 
#    0.000    0.000    0.000    0.000    0.000    0.000 
#
# Total GULP energy -334450.188622 kJ/mol
# GULP energy per Si atom -5574.169810 kJ/mol
# Density = 1.801824 g / cm^3
# Si number density = 18.059348 Si / 1000 Ang^3
#
#
#
# Elastic Constant Matrix: (Units=GPa)
#
#
# Indices 1 2 3 4 5 6 
#
# 1 122.7040 42.9882 53.5176 0.0000 0.0000 0.0000
# 2 42.9882 90.1527 28.6884 0.0000 0.0000 0.0000
# 3 53.5176 28.6884 46.5166 0.0000 0.0000 0.0000
# 4 0.0000 0.0000 0.0000 11.3517 0.0000 0.0000
# 5 0.0000 0.0000 0.0000 0.0000 17.7789 0.0000
# 6 0.0000 0.0000 0.0000 0.0000 0.0000 24.8858
#
#
#
# Elastic Compliance Matrix: (Units=1/GPa)
#
#
# Indices 1 2 3 4 5 6 
#
# 1 0.016735 -0.002305 -0.017831 0.000000 0.000000 0.000000
# 2 -0.002305 0.014118 -0.006055 0.000000 0.000000 0.000000
# 3 -0.017831 -0.006055 0.045747 0.000000 0.000000 0.000000
# 4 0.000000 0.000000 0.000000 0.088093 0.000000 0.000000
# 5 0.000000 0.000000 0.000000 0.000000 0.056247 0.000000
# 6 0.000000 0.000000 0.000000 0.000000 0.000000 0.040184
#
#
# Mechanical properties :
#
#
# Convention : Reuss Voigt Hill
#
# Bulk Modulus (GPa) = 41.29402 56.64020 48.96711
# Shear Modulus (GPa) = 15.54831 19.74854 17.64843
#
# Velocity S-wave (km/s) = 2.93739 3.31045 3.12948
# Velocity P-wave (km/s) = 5.86683 6.78554 6.34284
#
# Compressibility (1/GPa) = 0.02421658
#
# Stress axis : x y z
#
# Youngs Moduli (GPa) = 59.75672 70.82959 21.85933
#
# Poissons Ratio (x) = 0.16329 0.38978
# Poissons Ratio (y) = 0.13776 0.13236
# Poissons Ratio (z) = 1.06554 0.42887
#
# Static dielectric constant tensor:
#      x y z
#    x 1.637340 0.000000 0.000000 
#    y 0.000000 1.653470 0.000000 
#    z 0.000000 0.000000 1.619130 
# 
# From -- ./inp_files/45289.got.cif
#   From: 2010.05.17/outbox.cif.g08.bks.cpg/sg70_23_cif.got.tgz:45289.got - 2010.06.03 15:57:51.
