data_PCOD9514335
_publ_section_title
;
Structure prediction by ZEFSAII (Michael W. Deem and Ramdas Pophale) SiO2 
 PCOD9514335
Probable space group: F D D D
;
_chemical_formula_sum "Si O2"
_cell_formula_units_Z 160
_cell_length_a 11.692794
_cell_length_b 22.654708
_cell_length_c 29.715267
_cell_angle_alpha 90.000000
_cell_angle_beta 90.000000
_cell_angle_gamma 90.000000
_cell_volume 7871.480143
_symmetry_space_group_name_H-M "F D D D"
_symmetry_group_IT_number 70
_space_group.IT_coordinate_system_code '2'
_symmetry_cell_setting 'orthorhombic'
loop_
_space_group_symop_operation_xyz
x,y,z
1/4-x,1/4-y,z
x,1/4-y,1/4-z
1/4-x,y,1/4-z
-x,-y,-z
3/4+x,3/4+y,-z
-x,3/4+y,3/4+z
3/4+x,-y,3/4+z
x,1/2+y,1/2+z
1/4-x,3/4-y,1/2+z
x,3/4-y,3/4-z
1/4-x,1/2+y,3/4-z
-x,1/2-y,1/2-z
3/4+x,1/4+y,1/2-z
-x,1/4+y,1/4+z
3/4+x,1/2-y,1/4+z
1/2+x,y,1/2+z
3/4-x,1/4-y,1/2+z
1/2+x,1/4-y,3/4-z
3/4-x,y,3/4-z
1/2-x,-y,1/2-z
1/4+x,3/4+y,1/2-z
1/2-x,3/4+y,1/4+z
1/4+x,-y,1/4+z
1/2+x,1/2+y,z
3/4-x,3/4-y,z
1/2+x,3/4-y,1/4-z
3/4-x,1/2+y,1/4-z
1/2-x,1/2-y,-z
1/4+x,1/4+y,-z
1/2-x,1/4+y,3/4+z
1/4+x,1/2-y,3/4+z
loop_
_atom_site_type_symbol
_atom_site_label
_atom_site_fract_x
_atom_site_fract_y
_atom_site_fract_z
Si Si1 0.482709 0.336259 0.054068
Si Si2 0.861148 0.021525 0.723020
Si Si3 0.375000 0.161205 0.875000
Si Si4 0.375000 0.875000 0.743855
Si Si5 0.213974 0.520934 0.942889
Si Si6 0.367392 0.599165 0.215895
O O1 0.375000 0.375000 0.037851
O O2 0.421224 0.273354 0.061759
O O3 0.545156 0.369202 0.094599
O O4 0.575632 0.335051 0.014419
O O5 0.837762 0.085875 0.702630
O O6 0.952174 0.022721 0.763754
O O7 0.750000 0.000000 0.750000
O O8 0.290387 0.203176 0.846908
O O9 0.375343 0.819728 0.709542
O O10 0.266523 0.889069 0.775548
O O11 0.156559 0.456992 0.936800
#
# Coordination Sequence:
#
# PCOD9514335 Si02
#       6
#    32  32  16  16  32  32
#     4  11  21  35  61  91 122 164 211 267 318 374
#     4  10  18  37  61  91 117 158 222 263 304 380
#     4  12  22  38  54 103 131 170 208 268 342 390
#     4  10  18  38  54  92 126 157 216 252 312 387
#     4  10  22  34  59  89 129 161 205 263 319 376
#     4  10  20  37  61  92 120 165 212 265 305 376
#
# _framework density 20.326544999999999
#
# number of rings (size 3 to 8) (size 9 to 14) (size 15 to 20)
#    0.000    1.600    6.000    0.600    1.400    0.000 
#    0.000    0.000    0.000    9.600    0.000    1.400 
#    0.000    0.000    0.000    0.000    0.000    1.600 
#
# Total GULP energy -222795.125008 kJ/mol
# GULP energy per Si atom -5569.878125 kJ/mol
# Density = 2.028028 g / cm^3
# Si number density = 20.326545 Si / 1000 Ang^3
#
#
#
# Elastic Constant Matrix: (Units=GPa)
#
#
# Indices 1 2 3 4 5 6 
#
# 1 85.6516 43.6051 22.3788 0.0000 0.0000 0.0000
# 2 43.6051 194.5078 32.4178 0.0000 0.0000 0.0000
# 3 22.3788 32.4178 46.9870 0.0000 0.0000 0.0000
# 4 0.0000 0.0000 0.0000 1.5426 0.0000 0.0000
# 5 0.0000 0.0000 0.0000 0.0000 9.7256 0.0000
# 6 0.0000 0.0000 0.0000 0.0000 0.0000 33.6420
#
#
#
# Elastic Compliance Matrix: (Units=1/GPa)
#
#
# Indices 1 2 3 4 5 6 
#
# 1 0.014208 -0.002325 -0.005163 0.000000 0.000000 0.000000
# 2 -0.002325 0.006190 -0.003163 0.000000 0.000000 0.000000
# 3 -0.005163 -0.003163 0.025924 0.000000 0.000000 0.000000
# 4 0.000000 0.000000 0.000000 0.648243 0.000000 0.000000
# 5 0.000000 0.000000 0.000000 0.000000 0.102822 0.000000
# 6 0.000000 0.000000 0.000000 0.000000 0.000000 0.029725
#
#
# Mechanical properties :
#
#
# Convention : Reuss Voigt Hill
#
# Bulk Modulus (GPa) = 39.96878 58.21663 49.09271
# Shear Modulus (GPa) = 5.83599 24.23170 15.03385
#
# Velocity S-wave (km/s) = 1.69628 3.45646 2.72254
# Velocity P-wave (km/s) = 4.85206 6.68074 5.83844
#
# Compressibility (1/GPa) = 0.02501953
#
# Stress axis : x y z
#
# Youngs Moduli (GPa) = 70.38478 161.56373 38.57455
#
# Poissons Ratio (x) = 0.37557 0.19916
# Poissons Ratio (y) = 0.16362 0.12202
# Poissons Ratio (z) = 0.36339 0.51106
#
# Static dielectric constant tensor:
#      x y z
#    x 1.708410 0.000000 0.000000 
#    y 0.000000 1.791630 0.000000 
#    z 0.000000 0.000000 1.701010 
# 
# From -- ./inp_files/57551.got.cif
#   From: 2010.05.17/outbox.cif.g08.bks.cpg/sg70_29_cif.got.tgz:57551.got - 2010.06.03 15:57:51.
