data_PCOD9514995
_publ_section_title
;
Structure prediction by ZEFSAII (Michael W. Deem and Ramdas Pophale) SiO2 
 PCOD9514995
Probable space group: F D D D
;
_chemical_formula_sum "Si O2"
_cell_formula_units_Z 176
_cell_length_a 10.534882
_cell_length_b 32.559156
_cell_length_c 26.584023
_cell_angle_alpha 90.000000
_cell_angle_beta 90.000000
_cell_angle_gamma 90.000000
_cell_volume 9118.502428
_symmetry_space_group_name_H-M "F D D D"
_symmetry_group_IT_number 70
_space_group.IT_coordinate_system_code '2'
_symmetry_cell_setting 'orthorhombic'
loop_
_space_group_symop_operation_xyz
x,y,z
1/4-x,1/4-y,z
x,1/4-y,1/4-z
1/4-x,y,1/4-z
-x,-y,-z
3/4+x,3/4+y,-z
-x,3/4+y,3/4+z
3/4+x,-y,3/4+z
x,1/2+y,1/2+z
1/4-x,3/4-y,1/2+z
x,3/4-y,3/4-z
1/4-x,1/2+y,3/4-z
-x,1/2-y,1/2-z
3/4+x,1/4+y,1/2-z
-x,1/4+y,1/4+z
3/4+x,1/2-y,1/4+z
1/2+x,y,1/2+z
3/4-x,1/4-y,1/2+z
1/2+x,1/4-y,3/4-z
3/4-x,y,3/4-z
1/2-x,-y,1/2-z
1/4+x,3/4+y,1/2-z
1/2-x,3/4+y,1/4+z
1/4+x,-y,1/4+z
1/2+x,1/2+y,z
3/4-x,3/4-y,z
1/2+x,3/4-y,1/4-z
3/4-x,1/2+y,1/4-z
1/2-x,1/2-y,-z
1/4+x,1/4+y,-z
1/2-x,1/4+y,3/4+z
1/4+x,1/2-y,3/4+z
loop_
_atom_site_type_symbol
_atom_site_label
_atom_site_fract_x
_atom_site_fract_y
_atom_site_fract_z
Si Si1 0.806373 0.784262 0.223920
Si Si2 0.297227 0.682198 0.923692
Si Si3 0.375000 0.875000 0.236789
Si Si4 0.117831 0.908646 0.069963
Si Si5 0.327359 0.421366 0.318427
Si Si6 0.439746 0.690338 0.027966
O O1 0.682059 0.811674 0.219650
O O2 0.868771 0.795786 0.277947
O O3 0.776374 0.737293 0.211796
O O4 0.908854 0.799669 0.182553
O O5 0.375000 0.695994 0.875000
O O6 0.297850 0.632679 0.923855
O O7 0.377262 0.693140 0.972689
O O8 0.268925 0.895105 0.200446
O O9 0.445661 0.908656 0.271151
O O10 0.125000 0.928500 0.125000
O O11 0.375000 0.429513 0.375000
O O12 0.375000 0.375000 0.304774
O O13 0.174619 0.424098 0.313206
#
# Coordination Sequence:
#
# PCOD9514995 Si02
#       6
#    32  32  16  32  32  32
#     4  11  21  35  58  92 123 149 202 251 307 349
#     4   9  18  33  60  89 122 154 188 245 309 373
#     4  10  22  42  58  81 124 162 209 236 314 368
#     4  10  22  35  59  87 118 160 195 242 302 375
#     4  10  20  38  63  89 116 158 209 247 294 358
#     4  10  22  36  58  88 120 159 196 254 301 359
#
# _framework density 19.301414999999999
#
# number of rings (size 3 to 8) (size 9 to 14) (size 15 to 20)
#    0.000    2.000    0.000    6.000    7.636    3.636 
#    0.000    0.000    4.000    1.091    0.000    0.000 
#    0.000    0.000    0.000    0.000    0.000    0.000 
#
# Total GULP energy -245433.464881 kJ/mol
# GULP energy per Si atom -5578.033293 kJ/mol
# Density = 1.925748 g / cm^3
# Si number density = 19.301415 Si / 1000 Ang^3
#
#
#
# Elastic Constant Matrix: (Units=GPa)
#
#
# Indices 1 2 3 4 5 6 
#
# 1 126.8285 62.5135 38.4665 0.0000 0.0000 0.0000
# 2 62.5135 98.7435 19.7072 0.0000 0.0000 0.0000
# 3 38.4665 19.7072 79.1002 0.0000 0.0000 0.0000
# 4 0.0000 0.0000 0.0000 -9.5091 0.0000 0.0000
# 5 0.0000 0.0000 0.0000 0.0000 23.5399 0.0000
# 6 0.0000 0.0000 0.0000 0.0000 0.0000 2.0168
#
#
#
# Elastic Compliance Matrix: (Units=1/GPa)
#
#
# Indices 1 2 3 4 5 6 
#
# 1 0.012777 -0.007207 -0.004418 0.000000 0.000000 0.000000
# 2 -0.007207 0.014723 -0.000163 0.000000 0.000000 0.000000
# 3 -0.004418 -0.000163 0.014831 0.000000 0.000000 0.000000
# 4 0.000000 0.000000 0.000000 -0.105162 0.000000 0.000000
# 5 0.000000 0.000000 0.000000 0.000000 0.042481 0.000000
# 6 0.000000 0.000000 0.000000 0.000000 0.000000 0.495834
#
#
# Mechanical properties :
#
#
# Convention : Reuss Voigt Hill
#
# Bulk Modulus (GPa) = 53.32077 60.67185 56.99631
# Shear Modulus (GPa) = 9.89487 15.47518 12.68502
#
# Velocity S-wave (km/s) = 2.26663 2.83462 2.56639
# Velocity P-wave (km/s) = 5.87669 6.49735 6.19480
#
# Compressibility (1/GPa) = 0.01875442
#
# Stress axis : x y z
#
# Youngs Moduli (GPa) = 78.26535 67.92245 67.42525
#
# Poissons Ratio (x) = 0.48954 0.29787
# Poissons Ratio (y) = 0.56408 0.01100
# Poissons Ratio (z) = 0.34576 0.01108
#
# Static dielectric constant tensor:
#      x y z
#    x 1.691570 0.000000 0.000000 
#    y 0.000000 1.733990 0.000000 
#    z 0.000000 0.000000 1.692560 
# 
# From -- ./inp_files/57769.got.cif
#   From: 2010.05.17/outbox.cif.g08.bks.cpg/sg70_29_cif.got.tgz:57769.got - 2010.06.03 15:57:51.
