data_PCOD9514147
_publ_section_title
;
Structure prediction by ZEFSAII (Michael W. Deem and Ramdas Pophale) SiO2 
 PCOD9514147
Probable space group: F D D D
;
_chemical_formula_sum "Si O2"
_cell_formula_units_Z 112
_cell_length_a 20.532718
_cell_length_b 8.546295
_cell_length_c 28.315695
_cell_angle_alpha 90.000000
_cell_angle_beta 90.000000
_cell_angle_gamma 90.000000
_cell_volume 4968.800362
_symmetry_space_group_name_H-M "F D D D"
_symmetry_group_IT_number 70
_space_group.IT_coordinate_system_code '2'
_symmetry_cell_setting 'orthorhombic'
loop_
_space_group_symop_operation_xyz
x,y,z
1/4-x,1/4-y,z
x,1/4-y,1/4-z
1/4-x,y,1/4-z
-x,-y,-z
3/4+x,3/4+y,-z
-x,3/4+y,3/4+z
3/4+x,-y,3/4+z
x,1/2+y,1/2+z
1/4-x,3/4-y,1/2+z
x,3/4-y,3/4-z
1/4-x,1/2+y,3/4-z
-x,1/2-y,1/2-z
3/4+x,1/4+y,1/2-z
-x,1/4+y,1/4+z
3/4+x,1/2-y,1/4+z
1/2+x,y,1/2+z
3/4-x,1/4-y,1/2+z
1/2+x,1/4-y,3/4-z
3/4-x,y,3/4-z
1/2-x,-y,1/2-z
1/4+x,3/4+y,1/2-z
1/2-x,3/4+y,1/4+z
1/4+x,-y,1/4+z
1/2+x,1/2+y,z
3/4-x,3/4-y,z
1/2+x,3/4-y,1/4-z
3/4-x,1/2+y,1/4-z
1/2-x,1/2-y,-z
1/4+x,1/4+y,-z
1/2-x,1/4+y,3/4+z
1/4+x,1/2-y,3/4+z
loop_
_atom_site_type_symbol
_atom_site_label
_atom_site_fract_x
_atom_site_fract_y
_atom_site_fract_z
Si Si1 0.500860 0.940182 0.247959
Si Si2 0.942145 0.464211 0.654308
Si Si3 0.875000 0.875000 0.957991
Si Si4 0.061603 0.908233 0.652476
O O1 0.500000 0.750000 0.250000
O O2 0.425046 0.974071 0.259675
O O3 0.530717 0.993317 0.198215
O O4 0.543456 0.000861 0.291143
O O5 0.939987 0.625000 0.625000
O O6 0.875000 0.375000 0.647741
O O7 0.003049 0.368622 0.633589
O O8 0.835526 0.758052 0.924385
O O9 0.125000 0.966721 0.625000
#
# Coordination Sequence:
#
# PCOD9514147 Si02
#       4
#    32  32  16  32
#     4  10  21  34  65 101 131 173 239 294 341 400
#     4  12  24  42  67 108 140 178 235 301 352 422
#     4  10  17  34  64 100 126 158 256 294 319 404
#     4  11  20  38  70  94 135 179 244 286 345 414
#
# _framework density 22.540652999999999
#
# number of rings (size 3 to 8) (size 9 to 14) (size 15 to 20)
#    0.000    1.143    8.571    0.429    2.000    0.000 
#    0.000    1.429    0.000    0.000    0.000    0.000 
#    0.000    0.000    0.000    0.000    0.000    0.000 
#
# Total GULP energy -156506.921705 kJ/mol
# GULP energy per Si atom -5589.532918 kJ/mol
# Density = 2.248935 g / cm^3
# Si number density = 22.540653 Si / 1000 Ang^3
#
#
#
# Elastic Constant Matrix: (Units=GPa)
#
#
# Indices 1 2 3 4 5 6 
#
# 1 201.7999 38.7577 80.5265 0.0000 0.0000 -0.0001
# 2 38.7577 29.5465 36.0474 0.0000 0.0000 -0.0001
# 3 80.5265 36.0474 179.4692 0.0000 0.0000 0.0000
# 4 0.0000 0.0000 0.0000 15.4980 0.0000 0.0000
# 5 0.0000 0.0000 0.0000 0.0000 33.4357 0.0000
# 6 -0.0001 -0.0001 0.0000 0.0000 0.0000 21.4897
#
#
#
# Elastic Compliance Matrix: (Units=1/GPa)
#
#
# Indices 1 2 3 4 5 6 
#
# 1 0.007003 -0.007090 -0.001718 0.000000 0.000000 0.000000
# 2 -0.007090 0.052008 -0.007265 0.000000 0.000000 0.000000
# 3 -0.001718 -0.007265 0.007802 0.000000 0.000000 0.000000
# 4 0.000000 0.000000 0.000000 0.064524 0.000000 0.000000
# 5 0.000000 0.000000 0.000000 0.000000 0.029908 0.000000
# 6 0.000000 0.000000 0.000000 0.000000 0.000000 0.046534
#
#
# Mechanical properties :
#
#
# Convention : Reuss Voigt Hill
#
# Bulk Modulus (GPa) = 28.84545 80.16431 54.50488
# Shear Modulus (GPa) = 19.88223 31.11697 25.49960
#
# Velocity S-wave (km/s) = 2.97317 3.71951 3.36709
# Velocity P-wave (km/s) = 4.96097 7.35445 6.27292
#
# Compressibility (1/GPa) = 0.03466752
#
# Stress axis : x y z
#
# Youngs Moduli (GPa) = 142.80398 19.22768 128.17098
#
# Poissons Ratio (x) = 0.13632 0.22020
# Poissons Ratio (y) = 1.01243 0.93117
# Poissons Ratio (z) = 0.24534 0.13969
#
# Static dielectric constant tensor:
#      x y z
#    x 1.907030 0.000000 0.000000 
#    y 0.000000 1.884190 0.000000 
#    z 0.000000 0.000000 1.856970 
# 
# From -- ./inp_files/16510.got.cif
#   From: 2010.05.17/outbox.cif.g08.bks.cpg/sg70_9_cif.got.tgz:16510.got - 2010.06.03 15:57:51.
