data_PCOD9514794
_publ_section_title
;
Structure prediction by ZEFSAII (Michael W. Deem and Ramdas Pophale) SiO2 
 PCOD9514794
Probable space group: F D D D
;
_chemical_formula_sum "Si O2"
_cell_formula_units_Z 224
_cell_length_a 17.277305
_cell_length_b 21.999098
_cell_length_c 30.856007
_cell_angle_alpha 90.000000
_cell_angle_beta 90.000000
_cell_angle_gamma 90.000000
_cell_volume 11727.909304
_symmetry_space_group_name_H-M "F D D D"
_symmetry_group_IT_number 70
_space_group.IT_coordinate_system_code '2'
_symmetry_cell_setting 'orthorhombic'
loop_
_space_group_symop_operation_xyz
x,y,z
1/4-x,1/4-y,z
x,1/4-y,1/4-z
1/4-x,y,1/4-z
-x,-y,-z
3/4+x,3/4+y,-z
-x,3/4+y,3/4+z
3/4+x,-y,3/4+z
x,1/2+y,1/2+z
1/4-x,3/4-y,1/2+z
x,3/4-y,3/4-z
1/4-x,1/2+y,3/4-z
-x,1/2-y,1/2-z
3/4+x,1/4+y,1/2-z
-x,1/4+y,1/4+z
3/4+x,1/2-y,1/4+z
1/2+x,y,1/2+z
3/4-x,1/4-y,1/2+z
1/2+x,1/4-y,3/4-z
3/4-x,y,3/4-z
1/2-x,-y,1/2-z
1/4+x,3/4+y,1/2-z
1/2-x,3/4+y,1/4+z
1/4+x,-y,1/4+z
1/2+x,1/2+y,z
3/4-x,3/4-y,z
1/2+x,3/4-y,1/4-z
3/4-x,1/2+y,1/4-z
1/2-x,1/2-y,-z
1/4+x,1/4+y,-z
1/2-x,1/4+y,3/4+z
1/4+x,1/2-y,3/4+z
loop_
_atom_site_type_symbol
_atom_site_label
_atom_site_fract_x
_atom_site_fract_y
_atom_site_fract_z
Si Si1 0.125000 0.125000 0.262865
Si Si2 0.210856 0.124025 0.427864
Si Si3 0.975280 0.443019 0.164416
Si Si4 0.105696 0.813085 0.395737
Si Si5 0.870169 0.622892 0.945197
Si Si6 0.223144 0.361610 0.968283
Si Si7 0.125000 0.479350 0.625000
Si Si8 0.729885 0.267833 0.332688
O O1 0.076682 0.082628 0.295957
O O2 0.190789 0.091245 0.233806
O O3 0.125000 0.125000 0.447728
O O4 0.206142 0.155439 0.380009
O O5 0.290981 0.149012 0.447807
O O6 0.228899 0.052430 0.428785
O O7 0.955776 0.514014 0.161500
O O8 0.064040 0.427650 0.174669
O O9 0.073584 0.875000 0.375000
O O10 0.173985 0.829485 0.430185
O O11 0.150722 0.780336 0.357020
O O12 0.860759 0.682475 0.914553
O O13 0.833977 0.639637 0.991056
O O14 0.237288 0.431532 0.953818
O O15 0.197592 0.521622 0.614989
#
# Coordination Sequence:
#
# PCOD9514794 Si02
#       8
#    16  32  32  32  32  32  16  32
#     4  10  22  34  57  92 128 156 202 250 313 384
#     4  11  19  37  66  90 105 149 208 257 307 368
#     4  11  18  36  61  87 118 157 206 254 294 362
#     4  10  22  38  58  84 124 171 208 245 308 375
#     4  10  21  37  59  92 123 144 204 259 307 359
#     4  10  24  38  51  91 132 163 194 248 311 378
#     4  10  20  34  63  90 119 164 202 250 302 380
#     4  10  20  37  58  83 124 161 204 246 305 372
#
# _framework density 19.099739
#
# number of rings (size 3 to 8) (size 9 to 14) (size 15 to 20)
#    0.000    1.714    5.000    0.000    4.000    5.143 
#    0.000    0.714    0.000    1.714    0.000    0.000 
#    0.000    0.000    0.000    0.000    0.000    0.000 
#
# Total GULP energy -311824.538043 kJ/mol
# GULP energy per Si atom -5568.295322 kJ/mol
# Density = 1.905627 g / cm^3
# Si number density = 19.099739 Si / 1000 Ang^3
#
#
#
# Elastic Constant Matrix: (Units=GPa)
#
#
# Indices 1 2 3 4 5 6 
#
# 1 124.6352 34.9696 22.5492 0.0000 0.0000 0.0000
# 2 34.9696 76.1997 10.9471 0.0000 0.0000 0.0000
# 3 22.5492 10.9471 53.4007 0.0000 0.0000 0.0000
# 4 0.0000 0.0000 0.0000 -6.8046 0.0000 0.0000
# 5 0.0000 0.0000 0.0000 0.0000 11.8031 0.0000
# 6 0.0000 0.0000 0.0000 0.0000 0.0000 -50.7627
#
#
#
# Elastic Compliance Matrix: (Units=1/GPa)
#
#
# Indices 1 2 3 4 5 6 
#
# 1 0.009741 -0.003997 -0.003294 0.000000 0.000000 0.000000
# 2 -0.003997 0.015162 -0.001420 0.000000 0.000000 0.000000
# 3 -0.003294 -0.001420 0.020408 0.000000 0.000000 0.000000
# 4 0.000000 0.000000 0.000000 -0.146959 0.000000 0.000000
# 5 0.000000 0.000000 0.000000 0.000000 0.084724 0.000000
# 6 0.000000 0.000000 0.000000 0.000000 0.000000 -0.019700
#
#
# Mechanical properties :
#
#
# Convention : Reuss Voigt Hill
#
# Bulk Modulus (GPa) = 35.85698 43.46305 39.66002
# Shear Modulus (GPa) = -504.81038 3.23180 -250.78929
#
# Velocity S-wave (km/s) = -16.27501 1.30220 -11.47127
# Velocity P-wave (km/s) = 18.28534 5.00662 12.43558
#
# Compressibility (1/GPa) = 0.02788857
#
# Stress axis : x y z
#
# Youngs Moduli (GPa) = 102.66081 65.95527 48.99947
#
# Poissons Ratio (x) = 0.26363 0.16139
# Poissons Ratio (y) = 0.41034 0.06960
# Poissons Ratio (z) = 0.33814 0.09368
#
# Static dielectric constant tensor:
#      x y z
#    x 1.749930 0.000000 0.000000 
#    y 0.000000 1.709100 0.000000 
#    z 0.000000 0.000000 1.706770 
# 
# From -- ./inp_files/66824.got.cif
#   From: 2010.05.17/outbox.cif.g08.bks.cpg/sg70_34_cif.got.tgz:66824.got - 2010.06.03 15:57:51.
