data_PCOD9514329
_publ_section_title
;
Structure prediction by ZEFSAII (Michael W. Deem and Ramdas Pophale) SiO2 
 PCOD9514329
Probable space group: F D D D
;
_chemical_formula_sum "Si O2"
_cell_formula_units_Z 96
_cell_length_a 16.959821
_cell_length_b 20.355850
_cell_length_c 9.939967
_cell_angle_alpha 90.000000
_cell_angle_beta 90.000000
_cell_angle_gamma 90.000000
_cell_volume 3431.590436
_symmetry_space_group_name_H-M "F D D D"
_symmetry_group_IT_number 70
_space_group.IT_coordinate_system_code '2'
_symmetry_cell_setting 'orthorhombic'
loop_
_space_group_symop_operation_xyz
x,y,z
1/4-x,1/4-y,z
x,1/4-y,1/4-z
1/4-x,y,1/4-z
-x,-y,-z
3/4+x,3/4+y,-z
-x,3/4+y,3/4+z
3/4+x,-y,3/4+z
x,1/2+y,1/2+z
1/4-x,3/4-y,1/2+z
x,3/4-y,3/4-z
1/4-x,1/2+y,3/4-z
-x,1/2-y,1/2-z
3/4+x,1/4+y,1/2-z
-x,1/4+y,1/4+z
3/4+x,1/2-y,1/4+z
1/2+x,y,1/2+z
3/4-x,1/4-y,1/2+z
1/2+x,1/4-y,3/4-z
3/4-x,y,3/4-z
1/2-x,-y,1/2-z
1/4+x,3/4+y,1/2-z
1/2-x,3/4+y,1/4+z
1/4+x,-y,1/4+z
1/2+x,1/2+y,z
3/4-x,3/4-y,z
1/2+x,3/4-y,1/4-z
3/4-x,1/2+y,1/4-z
1/2-x,1/2-y,-z
1/4+x,1/4+y,-z
1/2-x,1/4+y,3/4+z
1/4+x,1/2-y,3/4+z
loop_
_atom_site_type_symbol
_atom_site_label
_atom_site_fract_x
_atom_site_fract_y
_atom_site_fract_z
Si Si1 0.048289 0.196570 0.870872
Si Si2 0.125000 0.125000 0.625000
Si Si3 0.666166 0.962530 0.760008
Si Si4 0.125000 0.125000 0.125000
Si Si5 0.875000 0.669733 0.375000
O O1 0.066579 0.156872 0.735501
O O2 0.955618 0.210820 0.868830
O O3 0.111387 0.255626 0.876955
O O4 0.065957 0.154936 0.008349
O O5 0.625000 0.988699 0.625000
O O6 0.651159 0.885301 0.737706
O O7 0.750000 0.000000 0.750000
#
# Coordination Sequence:
#
# PCOD9514329 Si02
#       5
#    32   8  32   8  16
#     4  11  22  44  71 105 148 197 242 320 366 449
#     4  10  24  40  62 102 148 202 226 306 410 414
#     4  10  22  44  74 110 140 188 267 310 358 448
#     4  10  18  36  76  98 124 194 260 274 352 442
#     4  10  25  42  75 117 144 194 260 310 383 446
#
# _framework density 27.975366000000001
#
# number of rings (size 3 to 8) (size 9 to 14) (size 15 to 20)
#    1.000    0.667    1.667    4.000    0.000    1.333 
#    0.000    3.333    0.000    0.000    0.000    0.000 
#    0.000    0.000    0.000    0.000    0.000    0.000 
#
# Total GULP energy -133695.876057 kJ/mol
# GULP energy per Si atom -5570.661502 kJ/mol
# Density = 2.791169 g / cm^3
# Si number density = 27.975366 Si / 1000 Ang^3
#
#
#
# Elastic Constant Matrix: (Units=GPa)
#
#
# Indices 1 2 3 4 5 6 
#
# 1 277.0999 61.3875 16.6601 0.0000 0.0000 0.0000
# 2 61.3875 70.8314 42.7659 0.0000 0.0000 0.0000
# 3 16.6601 42.7659 195.5531 0.0000 0.0000 0.0000
# 4 0.0000 0.0000 0.0000 30.9715 0.0000 0.0000
# 5 0.0000 0.0000 0.0000 0.0000 38.3131 0.0000
# 6 0.0000 0.0000 0.0000 0.0000 0.0000 36.6374
#
#
#
# Elastic Compliance Matrix: (Units=1/GPa)
#
#
# Indices 1 2 3 4 5 6 
#
# 1 0.004516 -0.004241 0.000543 0.000000 0.000000 0.000000
# 2 -0.004241 0.020250 -0.004067 0.000000 0.000000 0.000000
# 3 0.000543 -0.004067 0.005957 0.000000 0.000000 0.000000
# 4 0.000000 0.000000 0.000000 0.032288 0.000000 0.000000
# 5 0.000000 0.000000 0.000000 0.000000 0.026101 0.000000
# 6 0.000000 0.000000 0.000000 0.000000 0.000000 0.027295
#
#
# Mechanical properties :
#
#
# Convention : Reuss Voigt Hill
#
# Bulk Modulus (GPa) = 65.82896 87.23459 76.53178
# Shear Modulus (GPa) = 36.49629 49.36246 42.92937
#
# Velocity S-wave (km/s) = 3.61582 4.20515 3.92157
# Velocity P-wave (km/s) = 6.40425 7.40460 6.92251
#
# Compressibility (1/GPa) = 0.01519088
#
# Stress axis : x y z
#
# Youngs Moduli (GPa) = 221.44440 49.38381 167.87296
#
# Poissons Ratio (x) = 0.20946 -0.09113
# Poissons Ratio (y) = 0.93925 0.68275
# Poissons Ratio (z) = -0.12021 0.20085
#
# Static dielectric constant tensor:
#      x y z
#    x 2.143470 0.000000 0.000000 
#    y 0.000000 2.537590 0.000000 
#    z 0.000000 0.000000 2.158850 
# 
# From -- ./inp_files/14966.got.cif
#   From: 2010.05.17/outbox.cif.g08.bks.cpg/sg70_8_cif.got.tgz:14966.got - 2010.06.03 15:57:51.
