data_PCOD9514741
_publ_section_title
;
Structure prediction by ZEFSAII (Michael W. Deem and Ramdas Pophale) SiO2 
 PCOD9514741
Probable space group: F D D D
;
_chemical_formula_sum "Si O2"
_cell_formula_units_Z 136
_cell_length_a 17.446700
_cell_length_b 25.204557
_cell_length_c 12.835546
_cell_angle_alpha 90.000000
_cell_angle_beta 90.000000
_cell_angle_gamma 90.000000
_cell_volume 5644.256079
_symmetry_space_group_name_H-M "F D D D"
_symmetry_group_IT_number 70
_space_group.IT_coordinate_system_code '2'
_symmetry_cell_setting 'orthorhombic'
loop_
_space_group_symop_operation_xyz
x,y,z
1/4-x,1/4-y,z
x,1/4-y,1/4-z
1/4-x,y,1/4-z
-x,-y,-z
3/4+x,3/4+y,-z
-x,3/4+y,3/4+z
3/4+x,-y,3/4+z
x,1/2+y,1/2+z
1/4-x,3/4-y,1/2+z
x,3/4-y,3/4-z
1/4-x,1/2+y,3/4-z
-x,1/2-y,1/2-z
3/4+x,1/4+y,1/2-z
-x,1/4+y,1/4+z
3/4+x,1/2-y,1/4+z
1/2+x,y,1/2+z
3/4-x,1/4-y,1/2+z
1/2+x,1/4-y,3/4-z
3/4-x,y,3/4-z
1/2-x,-y,1/2-z
1/4+x,3/4+y,1/2-z
1/2-x,3/4+y,1/4+z
1/4+x,-y,1/4+z
1/2+x,1/2+y,z
3/4-x,3/4-y,z
1/2+x,3/4-y,1/4-z
3/4-x,1/2+y,1/4-z
1/2-x,1/2-y,-z
1/4+x,1/4+y,-z
1/2-x,1/4+y,3/4+z
1/4+x,1/2-y,3/4+z
loop_
_atom_site_type_symbol
_atom_site_label
_atom_site_fract_x
_atom_site_fract_y
_atom_site_fract_z
Si Si1 0.351934 0.104578 0.238226
Si Si2 0.500000 0.250000 0.750000
Si Si3 0.745597 0.205326 0.268998
Si Si4 0.875000 0.375000 0.375000
Si Si5 0.274602 0.431004 0.052227
Si Si6 0.625000 0.125000 0.272953
O O1 0.375674 0.125000 0.125000
O O2 0.427271 0.078386 0.286196
O O3 0.307465 0.153342 0.290402
O O4 0.290328 0.057332 0.227696
O O5 0.526869 0.227814 0.867187
O O6 0.767065 0.256091 0.200302
O O7 0.680367 0.168054 0.221110
O O8 0.924756 0.412502 0.298987
O O9 0.318195 0.408009 0.151367
#
# Coordination Sequence:
#
# PCOD9514741 Si02
#       6
#    32  16  32   8  32  16
#     4  12  25  43  68 106 147 186 236 305 384 449
#     4  12  22  42  72 106 138 182 242 318 376 420
#     4  12  26  42  71  99 145 187 243 301 369 436
#     4  10  20  32  60 104 146 162 222 286 384 438
#     4  11  23  38  64 102 142 180 228 305 370 437
#     4  11  26  43  65 104 135 186 244 293 361 444
#
# _framework density 24.095293000000002
#
# number of rings (size 3 to 8) (size 9 to 14) (size 15 to 20)
#    0.000    0.471    5.882    2.118    9.882    0.000 
#    0.000    1.765    5.176    0.000    0.000    0.000 
#    0.000    0.000    0.000    0.000    0.000    0.000 
#
# Total GULP energy -189433.814491 kJ/mol
# GULP energy per Si atom -5571.582779 kJ/mol
# Density = 2.404045 g / cm^3
# Si number density = 24.095293 Si / 1000 Ang^3
#
#
#
# Elastic Constant Matrix: (Units=GPa)
#
#
# Indices 1 2 3 4 5 6 
#
# 1 97.2326 60.1016 2.2272 0.0000 0.0000 0.0000
# 2 60.1016 124.1806 21.0556 0.0000 0.0000 0.0000
# 3 2.2272 21.0556 31.1424 0.0000 0.0000 0.0000
# 4 0.0000 0.0000 0.0000 1.8210 0.0000 0.0000
# 5 0.0000 0.0000 0.0000 0.0000 21.0141 0.0000
# 6 0.0000 0.0000 0.0000 0.0000 0.0000 17.2912
#
#
#
# Elastic Compliance Matrix: (Units=1/GPa)
#
#
# Indices 1 2 3 4 5 6 
#
# 1 0.015187 -0.008094 0.004386 0.000000 0.000000 0.000000
# 2 -0.008094 0.013409 -0.008487 0.000000 0.000000 0.000000
# 3 0.004386 -0.008487 0.037535 0.000000 0.000000 0.000000
# 4 0.000000 0.000000 0.000000 0.549145 0.000000 0.000000
# 5 0.000000 0.000000 0.000000 0.000000 0.047587 0.000000
# 6 0.000000 0.000000 0.000000 0.000000 0.000000 0.057833
#
#
# Mechanical properties :
#
#
# Convention : Reuss Voigt Hill
#
# Bulk Modulus (GPa) = 23.95683 46.59160 35.27422
# Shear Modulus (GPa) = 6.58761 19.30334 12.94547
#
# Velocity S-wave (km/s) = 1.65527 2.83349 2.32040
# Velocity P-wave (km/s) = 3.69017 5.48482 4.67443
#
# Compressibility (1/GPa) = 0.04174174
#
# Stress axis : x y z
#
# Youngs Moduli (GPa) = 65.84423 74.57483 26.64166
#
# Poissons Ratio (x) = 0.60362 -0.11686
# Poissons Ratio (y) = 0.53296 0.22612
# Poissons Ratio (z) = -0.28882 0.63294
#
# Static dielectric constant tensor:
#      x y z
#    x 1.932950 0.000000 0.000000 
#    y 0.000000 1.859780 0.000000 
#    z 0.000000 0.000000 1.999100 
# 
# From -- ./inp_files/34730.got.cif
#   From: 2010.05.17/outbox.cif.g08.bks.cpg/sg70_18_cif.got.tgz:34730.got - 2010.06.03 15:57:51.
