data_PCOD9514215
_publ_section_title
;
Structure prediction by ZEFSAII (Michael W. Deem and Ramdas Pophale) SiO2 
 PCOD9514215
Probable space group: F D D D
;
_chemical_formula_sum "Si O2"
_cell_formula_units_Z 240
_cell_length_a 33.488867
_cell_length_b 18.385001
_cell_length_c 21.288470
_cell_angle_alpha 90.000000
_cell_angle_beta 90.000000
_cell_angle_gamma 90.000000
_cell_volume 13107.158836
_symmetry_space_group_name_H-M "F D D D"
_symmetry_group_IT_number 70
_space_group.IT_coordinate_system_code '2'
_symmetry_cell_setting 'orthorhombic'
loop_
_space_group_symop_operation_xyz
x,y,z
1/4-x,1/4-y,z
x,1/4-y,1/4-z
1/4-x,y,1/4-z
-x,-y,-z
3/4+x,3/4+y,-z
-x,3/4+y,3/4+z
3/4+x,-y,3/4+z
x,1/2+y,1/2+z
1/4-x,3/4-y,1/2+z
x,3/4-y,3/4-z
1/4-x,1/2+y,3/4-z
-x,1/2-y,1/2-z
3/4+x,1/4+y,1/2-z
-x,1/4+y,1/4+z
3/4+x,1/2-y,1/4+z
1/2+x,y,1/2+z
3/4-x,1/4-y,1/2+z
1/2+x,1/4-y,3/4-z
3/4-x,y,3/4-z
1/2-x,-y,1/2-z
1/4+x,3/4+y,1/2-z
1/2-x,3/4+y,1/4+z
1/4+x,-y,1/4+z
1/2+x,1/2+y,z
3/4-x,3/4-y,z
1/2+x,3/4-y,1/4-z
3/4-x,1/2+y,1/4-z
1/2-x,1/2-y,-z
1/4+x,1/4+y,-z
1/2-x,1/4+y,3/4+z
1/4+x,1/2-y,3/4+z
loop_
_atom_site_type_symbol
_atom_site_label
_atom_site_fract_x
_atom_site_fract_y
_atom_site_fract_z
Si Si1 0.798713 0.500028 0.679513
Si Si2 0.312640 0.640720 0.964661
Si Si3 0.005494 0.537552 0.233243
Si Si4 0.541178 0.664417 0.395432
Si Si5 0.899583 0.633225 0.733194
Si Si6 0.277287 0.614840 0.425541
Si Si7 0.508199 0.125000 0.125000
Si Si8 0.862455 0.240060 0.630194
O O1 0.803666 0.533251 0.749226
O O2 0.786076 0.416573 0.674426
O O3 0.769259 0.557396 0.646570
O O4 0.840804 0.501804 0.643465
O O5 0.299110 0.644350 0.892399
O O6 0.286516 0.578326 0.001083
O O7 0.359330 0.624638 0.975324
O O8 0.029187 0.592403 0.186114
O O9 0.026183 0.532727 0.300165
O O10 0.007341 0.459255 0.201362
O O11 0.510098 0.667672 0.338150
O O12 0.586072 0.687279 0.381012
O O13 0.938789 0.638340 0.775713
O O14 0.901134 0.563571 0.686745
O O15 0.894499 0.700205 0.685698
#
# Coordination Sequence:
#
# PCOD9514215 Si02
#       8
#    32  32  32  32  32  32  16  32
#     4  10  19  34  54  82 111 145 189 228 272 337
#     4   9  21  35  57  82 112 156 193 223 276 349
#     4  10  20  33  51  83 115 149 184 233 280 331
#     4  11  22  33  53  84 116 141 187 240 288 329
#     4  10  20  38  59  76 107 152 196 233 279 340
#     4  11  21  35  56  83 118 145 185 240 285 336
#     4  10  18  32  56  74 109 152 188 212 275 336
#     4  10  20  36  56  78 107 145 190 242 281 333
#
# _framework density 18.310603
#
# number of rings (size 3 to 8) (size 9 to 14) (size 15 to 20)
#    0.000    1.867    2.667    3.200    1.867    2.133 
#    0.000    0.000    0.000    0.000    0.000    0.000 
#    0.000    0.000    0.000    0.000    0.000    0.000 
#
# Total GULP energy -334370.444226 kJ/mol
# GULP energy per Si atom -5572.840737 kJ/mol
# Density = 1.826893 g / cm^3
# Si number density = 18.310603 Si / 1000 Ang^3
#
#
#
# Elastic Constant Matrix: (Units=GPa)
#
#
# Indices 1 2 3 4 5 6 
#
# 1 63.3553 11.3783 22.8368 0.0000 0.0000 0.0000
# 2 11.3783 43.8461 15.5286 0.0000 0.0000 0.0000
# 3 22.8368 15.5286 86.7808 0.0000 0.0000 0.0000
# 4 0.0000 0.0000 0.0000 21.9068 0.0000 0.0000
# 5 0.0000 0.0000 0.0000 0.0000 22.2138 0.0000
# 6 0.0000 0.0000 0.0000 0.0000 0.0000 25.6136
#
#
#
# Elastic Compliance Matrix: (Units=1/GPa)
#
#
# Indices 1 2 3 4 5 6 
#
# 1 0.017841 -0.003168 -0.004128 0.000000 0.000000 0.000000
# 2 -0.003168 0.024913 -0.003624 0.000000 0.000000 0.000000
# 3 -0.004128 -0.003624 0.013258 0.000000 0.000000 0.000000
# 4 0.000000 0.000000 0.000000 0.045648 0.000000 0.000000
# 5 0.000000 0.000000 0.000000 0.000000 0.045017 0.000000
# 6 0.000000 0.000000 0.000000 0.000000 0.000000 0.039042
#
#
# Mechanical properties :
#
#
# Convention : Reuss Voigt Hill
#
# Bulk Modulus (GPa) = 29.26418 32.60771 30.93595
# Shear Modulus (GPa) = 22.83635 23.56275 23.19955
#
# Velocity S-wave (km/s) = 3.53535 3.59114 3.56336
# Velocity P-wave (km/s) = 5.71680 5.91961 5.81909
#
# Compressibility (1/GPa) = 0.03417147
#
# Stress axis : x y z
#
# Youngs Moduli (GPa) = 56.05094 40.14019 75.42542
#
# Poissons Ratio (x) = 0.12716 0.31136
# Poissons Ratio (y) = 0.17756 0.27336
# Poissons Ratio (z) = 0.23138 0.14548
#
# Static dielectric constant tensor:
#      x y z
#    x 1.665110 0.000000 0.000000 
#    y 0.000000 1.631170 0.000000 
#    z 0.000000 0.000000 1.665710 
# 
# From -- ./inp_files/47807.got.cif
#   From: 2010.05.17/outbox.cif.g08.bks.cpg/sg70_24_cif.got.tgz:47807.got - 2010.06.03 15:57:51.
