data_PCOD9514749
_publ_section_title
;
Structure prediction by ZEFSAII (Michael W. Deem and Ramdas Pophale) SiO2 
 PCOD9514749
Probable space group: F D D D
;
_chemical_formula_sum "Si O2"
_cell_formula_units_Z 136
_cell_length_a 18.836000
_cell_length_b 23.515109
_cell_length_c 12.724152
_cell_angle_alpha 90.000000
_cell_angle_beta 90.000000
_cell_angle_gamma 90.000000
_cell_volume 5635.916192
_symmetry_space_group_name_H-M "F D D D"
_symmetry_group_IT_number 70
_space_group.IT_coordinate_system_code '2'
_symmetry_cell_setting 'orthorhombic'
loop_
_space_group_symop_operation_xyz
x,y,z
1/4-x,1/4-y,z
x,1/4-y,1/4-z
1/4-x,y,1/4-z
-x,-y,-z
3/4+x,3/4+y,-z
-x,3/4+y,3/4+z
3/4+x,-y,3/4+z
x,1/2+y,1/2+z
1/4-x,3/4-y,1/2+z
x,3/4-y,3/4-z
1/4-x,1/2+y,3/4-z
-x,1/2-y,1/2-z
3/4+x,1/4+y,1/2-z
-x,1/4+y,1/4+z
3/4+x,1/2-y,1/4+z
1/2+x,y,1/2+z
3/4-x,1/4-y,1/2+z
1/2+x,1/4-y,3/4-z
3/4-x,y,3/4-z
1/2-x,-y,1/2-z
1/4+x,3/4+y,1/2-z
1/2-x,3/4+y,1/4+z
1/4+x,-y,1/4+z
1/2+x,1/2+y,z
3/4-x,3/4-y,z
1/2+x,3/4-y,1/4-z
3/4-x,1/2+y,1/4-z
1/2-x,1/2-y,-z
1/4+x,1/4+y,-z
1/2-x,1/4+y,3/4+z
1/4+x,1/2-y,3/4+z
loop_
_atom_site_type_symbol
_atom_site_label
_atom_site_fract_x
_atom_site_fract_y
_atom_site_fract_z
Si Si1 0.527350 0.144480 0.308442
Si Si2 0.105311 0.930856 0.443332
Si Si3 0.875000 0.375000 0.875000
Si Si4 0.657751 0.228410 0.782942
Si Si5 0.974214 0.489205 0.652228
O O1 0.447619 0.164650 0.285830
O O2 0.574250 0.158955 0.205051
O O3 0.565564 0.171759 0.408806
O O4 0.526226 0.076577 0.316574
O O5 0.125634 0.875000 0.375000
O O6 0.064221 0.971792 0.361320
O O7 0.173662 0.968691 0.470987
O O8 0.573206 0.238190 0.795725
O O9 0.697903 0.237025 0.674643
#
# Coordination Sequence:
#
# PCOD9514749 Si02
#       5
#    32  32   8  32  32
#     4  12  19  32  51  80 121 162 210 257 329 391
#     4  10  20  33  53  78 124 160 201 260 332 385
#     4  12  16  28  52  76 120 164 198 260 322 382
#     4  10  21  34  54  84 124 172 207 271 332 406
#     4  10  21  35  56  86 123 171 218 266 339 400
#
# _framework density 24.130948
#
# number of rings (size 3 to 8) (size 9 to 14) (size 15 to 20)
#    1.412    0.000    5.882    0.706    0.000    2.824 
#    0.000    0.000    0.000    1.412    0.000    0.000 
#    0.000    0.000    0.000    0.000    0.000    0.000 
#
# Total GULP energy -189438.216127 kJ/mol
# GULP energy per Si atom -5571.712239 kJ/mol
# Density = 2.407603 g / cm^3
# Si number density = 24.130948 Si / 1000 Ang^3
#
#
#
# Elastic Constant Matrix: (Units=GPa)
#
#
# Indices 1 2 3 4 5 6 
#
# 1 184.1308 37.5705 65.6894 0.0000 0.0000 0.0000
# 2 37.5705 132.7011 18.6154 0.0000 0.0000 0.0000
# 3 65.6894 18.6154 110.6118 0.0000 0.0000 0.0000
# 4 0.0000 0.0000 0.0000 -60.9140 0.0000 0.0000
# 5 0.0000 0.0000 0.0000 0.0000 16.2249 0.0000
# 6 0.0000 0.0000 0.0000 0.0000 0.0000 46.6403
#
#
#
# Elastic Compliance Matrix: (Units=1/GPa)
#
#
# Indices 1 2 3 4 5 6 
#
# 1 0.007159 -0.001465 -0.004005 0.000000 0.000000 0.000000
# 2 -0.001465 0.008018 -0.000479 0.000000 0.000000 0.000000
# 3 -0.004005 -0.000479 0.011500 0.000000 0.000000 0.000000
# 4 0.000000 0.000000 0.000000 -0.016417 0.000000 0.000000
# 5 0.000000 0.000000 0.000000 0.000000 0.061634 0.000000
# 6 0.000000 0.000000 0.000000 0.000000 0.000000 0.021441
#
#
# Mechanical properties :
#
#
# Convention : Reuss Voigt Hill
#
# Bulk Modulus (GPa) = 67.66895 74.57715 71.12305
# Shear Modulus (GPa) = 45.38946 20.76145 33.07545
#
# Velocity S-wave (km/s) = 4.34171 2.93638 3.70627
# Velocity P-wave (km/s) = 7.29639 6.51680 6.91759
#
# Compressibility (1/GPa) = 0.01477783
#
# Stress axis : x y z
#
# Youngs Moduli (GPa) = 139.69347 124.72352 86.95959
#
# Poissons Ratio (x) = 0.18271 0.34825
# Poissons Ratio (y) = 0.20464 0.04168
# Poissons Ratio (z) = 0.55943 0.05979
#
# Static dielectric constant tensor:
#      x y z
#    x 1.979650 0.000000 0.000000 
#    y 0.000000 1.926360 0.000000 
#    z 0.000000 0.000000 1.925100 
# 
# From -- ./inp_files/28575.got.cif
#   From: 2010.05.17/outbox.cif.g08.bks.cpg/sg70_15_cif.got.tgz:28575.got - 2010.06.03 15:57:51.
