data_PCOD9514177
_publ_section_title
;
Structure prediction by ZEFSAII (Michael W. Deem and Ramdas Pophale) SiO2 
 PCOD9514177
Probable space group: F D D D
;
_chemical_formula_sum "Si O2"
_cell_formula_units_Z 192
_cell_length_a 10.070651
_cell_length_b 30.390432
_cell_length_c 27.096444
_cell_angle_alpha 90.000000
_cell_angle_beta 90.000000
_cell_angle_gamma 90.000000
_cell_volume 8292.905554
_symmetry_space_group_name_H-M "F D D D"
_symmetry_group_IT_number 70
_space_group.IT_coordinate_system_code '2'
_symmetry_cell_setting 'orthorhombic'
loop_
_space_group_symop_operation_xyz
x,y,z
1/4-x,1/4-y,z
x,1/4-y,1/4-z
1/4-x,y,1/4-z
-x,-y,-z
3/4+x,3/4+y,-z
-x,3/4+y,3/4+z
3/4+x,-y,3/4+z
x,1/2+y,1/2+z
1/4-x,3/4-y,1/2+z
x,3/4-y,3/4-z
1/4-x,1/2+y,3/4-z
-x,1/2-y,1/2-z
3/4+x,1/4+y,1/2-z
-x,1/4+y,1/4+z
3/4+x,1/2-y,1/4+z
1/2+x,y,1/2+z
3/4-x,1/4-y,1/2+z
1/2+x,1/4-y,3/4-z
3/4-x,y,3/4-z
1/2-x,-y,1/2-z
1/4+x,3/4+y,1/2-z
1/2-x,3/4+y,1/4+z
1/4+x,-y,1/4+z
1/2+x,1/2+y,z
3/4-x,3/4-y,z
1/2+x,3/4-y,1/4-z
3/4-x,1/2+y,1/4-z
1/2-x,1/2-y,-z
1/4+x,1/4+y,-z
1/2-x,1/4+y,3/4+z
1/4+x,1/2-y,3/4+z
loop_
_atom_site_type_symbol
_atom_site_label
_atom_site_fract_x
_atom_site_fract_y
_atom_site_fract_z
Si Si1 0.356992 0.927281 0.668817
Si Si2 0.259617 0.206747 0.153218
Si Si3 0.806484 0.263133 0.162443
Si Si4 0.125000 0.125000 0.195163
Si Si5 0.625000 0.416311 0.125000
Si Si6 0.706524 0.018961 0.995192
Si Si7 0.477627 0.069517 0.472738
O O1 0.375000 0.875000 0.668882
O O2 0.268546 0.949291 0.627205
O O3 0.502056 0.942498 0.647931
O O4 0.346427 0.948033 0.722619
O O5 0.125000 0.221535 0.125000
O O6 0.378563 0.222543 0.117670
O O7 0.226417 0.156077 0.165315
O O8 0.283320 0.229373 0.206186
O O9 0.692400 0.247052 0.199205
O O10 0.917427 0.285497 0.198723
O O11 0.207529 0.093796 0.231707
O O12 0.562728 0.397899 0.073670
O O13 0.846292 0.045319 0.992069
#
# Coordination Sequence:
#
# PCOD9514177 Si02
#       7
#    32  32  32  16  16  32  32
#     4   9  19  31  49  77 108 136 185 231 265 319
#     4  11  20  31  43  73 109 147 173 211 262 342
#     4  10  18  29  50  68 105 150 180 207 273 330
#     4  12  23  28  48  78 114 140 178 218 269 322
#     4   8  18  28  46  72 100 137 180 214 267 314
#     4  10  18  32  49  68 102 151 179 210 272 332
#     4  10  18  31  46  70 105 146 176 211 264 326
#
# _framework density 23.152318999999999
#
# number of rings (size 3 to 8) (size 9 to 14) (size 15 to 20)
#    0.000    2.000    3.333    2.750    7.000    0.000 
#    0.000    0.000    0.000    0.000    0.000   29.167 
#    0.000    5.333    0.000    0.000    0.000    0.000 
#
# Total GULP energy -267542.642616 kJ/mol
# GULP energy per Si atom -5573.805055 kJ/mol
# Density = 2.309962 g / cm^3
# Si number density = 23.152319 Si / 1000 Ang^3
#
#
#
# Elastic Constant Matrix: (Units=GPa)
#
#
# Indices 1 2 3 4 5 6 
#
# 1 47.9924 9.9345 18.4230 0.0000 0.0000 0.0000
# 2 9.9345 143.7442 88.0525 0.0000 0.0000 0.0000
# 3 18.4230 88.0525 158.2304 0.0000 0.0000 0.0000
# 4 0.0000 0.0000 0.0000 619.4932 0.0000 0.0000
# 5 0.0000 0.0000 0.0000 0.0000 21.0431 0.0000
# 6 0.0000 0.0000 0.0000 0.0000 0.0000 10.0848
#
#
#
# Elastic Compliance Matrix: (Units=1/GPa)
#
#
# Indices 1 2 3 4 5 6 
#
# 1 0.021812 0.000073 -0.002580 0.000000 0.000000 0.000000
# 2 0.000073 0.010555 -0.005882 0.000000 0.000000 0.000000
# 3 -0.002580 -0.005882 0.009894 0.000000 0.000000 0.000000
# 4 0.000000 0.000000 0.000000 0.001614 0.000000 0.000000
# 5 0.000000 0.000000 0.000000 0.000000 0.047522 0.000000
# 6 0.000000 0.000000 0.000000 0.000000 0.000000 0.099159
#
#
# Mechanical properties :
#
#
# Convention : Reuss Voigt Hill
#
# Bulk Modulus (GPa) = 39.24351 64.75412 51.99882
# Shear Modulus (GPa) = 23.16659 145.69468 84.43064
#
# Velocity S-wave (km/s) = 3.16668 7.94137 6.04538
# Velocity P-wave (km/s) = 5.50976 10.58851 8.44020
#
# Compressibility (1/GPa) = 0.02548192
#
# Stress axis : x y z
#
# Youngs Moduli (GPa) = 45.84630 94.74231 101.07503
#
# Poissons Ratio (x) = -0.00693 0.26080
# Poissons Ratio (y) = -0.00335 0.59454
# Poissons Ratio (z) = 0.11830 0.55729
#
# Static dielectric constant tensor:
#      x y z
#    x 1.928020 0.000000 0.000000 
#    y 0.000000 1.957200 0.000000 
#    z 0.000000 0.000000 1.962700 
# 
# From -- ./inp_files/30157.got.cif
#   From: 2010.05.17/outbox.cif.g08.bks.cpg/sg70_16_cif.got.tgz:30157.got - 2010.06.03 15:57:51.
