data_PCOD9514905
_publ_section_title
;
Structure prediction by ZEFSAII (Michael W. Deem and Ramdas Pophale) SiO2 
 PCOD9514905
Probable space group: F D D D
;
_chemical_formula_sum "Si O2"
_cell_formula_units_Z 176
_cell_length_a 17.179432
_cell_length_b 18.273573
_cell_length_c 23.149132
_cell_angle_alpha 90.000000
_cell_angle_beta 90.000000
_cell_angle_gamma 90.000000
_cell_volume 7267.197859
_symmetry_space_group_name_H-M "F D D D"
_symmetry_group_IT_number 70
_space_group.IT_coordinate_system_code '2'
_symmetry_cell_setting 'orthorhombic'
loop_
_space_group_symop_operation_xyz
x,y,z
1/4-x,1/4-y,z
x,1/4-y,1/4-z
1/4-x,y,1/4-z
-x,-y,-z
3/4+x,3/4+y,-z
-x,3/4+y,3/4+z
3/4+x,-y,3/4+z
x,1/2+y,1/2+z
1/4-x,3/4-y,1/2+z
x,3/4-y,3/4-z
1/4-x,1/2+y,3/4-z
-x,1/2-y,1/2-z
3/4+x,1/4+y,1/2-z
-x,1/4+y,1/4+z
3/4+x,1/2-y,1/4+z
1/2+x,y,1/2+z
3/4-x,1/4-y,1/2+z
1/2+x,1/4-y,3/4-z
3/4-x,y,3/4-z
1/2-x,-y,1/2-z
1/4+x,3/4+y,1/2-z
1/2-x,3/4+y,1/4+z
1/4+x,-y,1/4+z
1/2+x,1/2+y,z
3/4-x,3/4-y,z
1/2+x,3/4-y,1/4-z
3/4-x,1/2+y,1/4-z
1/2-x,1/2-y,-z
1/4+x,1/4+y,-z
1/2-x,1/4+y,3/4+z
1/4+x,1/2-y,3/4+z
loop_
_atom_site_type_symbol
_atom_site_label
_atom_site_fract_x
_atom_site_fract_y
_atom_site_fract_z
Si Si1 0.036233 0.375504 0.103991
Si Si2 0.835161 0.143008 0.564823
Si Si3 0.018709 0.454795 0.771761
Si Si4 0.441028 0.498693 0.553148
Si Si5 0.375000 0.375000 0.266294
Si Si6 0.282831 0.374446 0.720585
O O1 0.125000 0.382823 0.125000
O O2 0.034598 0.331722 0.042528
O O3 0.994682 0.455190 0.098218
O O4 0.987992 0.342819 0.157672
O O5 0.794814 0.125000 0.625000
O O6 0.901870 0.203472 0.558857
O O7 0.770282 0.162171 0.518511
O O8 0.893073 0.072277 0.559378
O O9 0.000316 0.540651 0.771251
O O10 0.952033 0.401405 0.799341
O O11 0.500000 0.500000 0.500000
O O12 0.379809 0.441133 0.528718
O O13 0.375000 0.375000 0.730593
#
# Coordination Sequence:
#
# PCOD9514905 Si02
#       6
#    32  32  32  32  16  32
#     4  11  23  44  73 104 145 192 241 312 383 454
#     4  12  25  46  66 101 143 184 240 311 366 432
#     4  11  24  44  71 109 144 188 243 304 370 458
#     4  11  20  40  70 100 142 176 225 299 378 444
#     4  10  20  36  73 100 138 180 219 284 378 434
#     4  12  28  48  70 105 142 200 258 296 371 449
#
# _framework density 24.218413999999999
#
# number of rings (size 3 to 8) (size 9 to 14) (size 15 to 20)
#    0.000    0.727    7.273    1.091    5.091    2.545 
#    3.273    0.455    0.000    0.000    0.000    0.000 
#    0.000    0.000    0.000    0.000    0.000    0.000 
#
# Total GULP energy -245242.842782 kJ/mol
# GULP energy per Si atom -5573.700972 kJ/mol
# Density = 2.416329 g / cm^3
# Si number density = 24.218414 Si / 1000 Ang^3
#
#
#
# Elastic Constant Matrix: (Units=GPa)
#
#
# Indices 1 2 3 4 5 6 
#
# 1 129.7624 -26.3328 23.5105 0.0000 0.0000 0.0000
# 2 -26.3328 50.6165 -15.9924 0.0000 0.0000 0.0000
# 3 23.5105 -15.9924 111.9006 0.0000 0.0000 0.0000
# 4 0.0000 0.0000 0.0000 26.8737 0.0000 0.0000
# 5 0.0000 0.0000 0.0000 0.0000 18.4496 0.0000
# 6 0.0000 0.0000 0.0000 0.0000 0.0000 29.8590
#
#
#
# Elastic Compliance Matrix: (Units=1/GPa)
#
#
# Indices 1 2 3 4 5 6 
#
# 1 0.008779 0.004173 -0.001248 0.000000 0.000000 0.000000
# 2 0.004173 0.022674 0.002364 0.000000 0.000000 0.000000
# 3 -0.001248 0.002364 0.009537 0.000000 0.000000 0.000000
# 4 0.000000 0.000000 0.000000 0.037211 0.000000 0.000000
# 5 0.000000 0.000000 0.000000 0.000000 0.054202 0.000000
# 6 0.000000 0.000000 0.000000 0.000000 0.000000 0.033491
#
#
# Mechanical properties :
#
#
# Convention : Reuss Voigt Hill
#
# Bulk Modulus (GPa) = 19.39209 28.29444 23.84327
# Shear Modulus (GPa) = 28.98457 35.77608 32.38032
#
# Velocity S-wave (km/s) = 3.46323 3.84764 3.66048
# Velocity P-wave (km/s) = 4.90066 5.60781 5.26612
#
# Compressibility (1/GPa) = 0.05156741
#
# Stress axis : x y z
#
# Youngs Moduli (GPa) = 113.90331 44.10293 104.85959
#
# Poissons Ratio (x) = -0.18404 0.13088
# Poissons Ratio (y) = -0.47532 -0.24786
# Poissons Ratio (z) = 0.14217 -0.10425
#
# Static dielectric constant tensor:
#      x y z
#    x 2.031120 0.000000 0.000000 
#    y 0.000000 1.978880 0.000000 
#    z 0.000000 0.000000 2.013550 
# 
# From -- ./inp_files/51223.got.cif
#   From: 2010.05.17/outbox.cif.g08.bks.cpg/sg70_26_cif.got.tgz:51223.got - 2010.06.03 15:57:51.
