data_PCOD9514124
_publ_section_title
;
Structure prediction by ZEFSAII (Michael W. Deem and Ramdas Pophale) SiO2 
 PCOD9514124
Probable space group: F D D D
;
_chemical_formula_sum "Si O2"
_cell_formula_units_Z 176
_cell_length_a 22.410118
_cell_length_b 13.461176
_cell_length_c 28.440167
_cell_angle_alpha 90.000000
_cell_angle_beta 90.000000
_cell_angle_gamma 90.000000
_cell_volume 8579.446849
_symmetry_space_group_name_H-M "F D D D"
_symmetry_group_IT_number 70
_space_group.IT_coordinate_system_code '2'
_symmetry_cell_setting 'orthorhombic'
loop_
_space_group_symop_operation_xyz
x,y,z
1/4-x,1/4-y,z
x,1/4-y,1/4-z
1/4-x,y,1/4-z
-x,-y,-z
3/4+x,3/4+y,-z
-x,3/4+y,3/4+z
3/4+x,-y,3/4+z
x,1/2+y,1/2+z
1/4-x,3/4-y,1/2+z
x,3/4-y,3/4-z
1/4-x,1/2+y,3/4-z
-x,1/2-y,1/2-z
3/4+x,1/4+y,1/2-z
-x,1/4+y,1/4+z
3/4+x,1/2-y,1/4+z
1/2+x,y,1/2+z
3/4-x,1/4-y,1/2+z
1/2+x,1/4-y,3/4-z
3/4-x,y,3/4-z
1/2-x,-y,1/2-z
1/4+x,3/4+y,1/2-z
1/2-x,3/4+y,1/4+z
1/4+x,-y,1/4+z
1/2+x,1/2+y,z
3/4-x,3/4-y,z
1/2+x,3/4-y,1/4-z
3/4-x,1/2+y,1/4-z
1/2-x,1/2-y,-z
1/4+x,1/4+y,-z
1/2-x,1/4+y,3/4+z
1/4+x,1/2-y,3/4+z
loop_
_atom_site_type_symbol
_atom_site_label
_atom_site_fract_x
_atom_site_fract_y
_atom_site_fract_z
Si Si1 0.349410 0.648913 0.326931
Si Si2 0.432963 0.675110 0.002468
Si Si3 0.589358 0.358163 0.428692
Si Si4 0.528890 0.546366 0.581212
Si Si5 0.567255 0.695591 0.995624
Si Si6 0.375000 0.875000 0.992310
O O1 0.375000 0.693959 0.375000
O O2 0.403364 0.595264 0.298390
O O3 0.300682 0.565145 0.341226
O O4 0.324629 0.726465 0.288833
O O5 0.397556 0.610457 0.039824
O O6 0.502088 0.650157 0.002871
O O7 0.411482 0.786491 0.017068
O O8 0.604565 0.375000 0.375000
O O9 0.538294 0.440951 0.438203
O O10 0.560993 0.254836 0.446024
O O11 0.533124 0.625000 0.625000
O O12 0.574230 0.580334 0.541256
O O13 0.625000 0.625000 0.995261
#
# Coordination Sequence:
#
# PCOD9514124 Si02
#       6
#    32  32  32  32  32  16
#     4  10  23  39  66 102 127 176 228 276 336 405
#     4  10  22  40  63  96 130 172 214 282 342 388
#     4  10  23  41  62  97 129 172 222 277 343 402
#     4  10  18  33  62  97 136 159 207 276 343 400
#     4  11  25  47  66  90 137 184 226 272 333 404
#     4  10  17  30  62  90 126 156 202 260 341 386
#
# _framework density 20.514143000000001
#
# number of rings (size 3 to 8) (size 9 to 14) (size 15 to 20)
#    0.000    1.818    1.818    2.455    5.091    5.455 
#    8.182    0.000    0.000    0.000    0.000    0.000 
#    0.000    0.000    0.000    0.000    0.000    0.000 
#
# Total GULP energy -245173.981584 kJ/mol
# GULP energy per Si atom -5572.135945 kJ/mol
# Density = 2.046745 g / cm^3
# Si number density = 20.514143 Si / 1000 Ang^3
#
#
#
# Elastic Constant Matrix: (Units=GPa)
#
#
# Indices 1 2 3 4 5 6 
#
# 1 154.2850 10.9610 33.6096 0.0000 0.0000 0.0000
# 2 10.9610 28.2189 15.9597 0.0000 0.0000 0.0000
# 3 33.6096 15.9597 91.4837 0.0000 0.0000 0.0000
# 4 0.0000 0.0000 0.0000 19.4236 0.0000 0.0000
# 5 0.0000 0.0000 0.0000 0.0000 -68.5537 0.0000
# 6 0.0000 0.0000 0.0000 0.0000 0.0000 20.5143
#
#
#
# Elastic Compliance Matrix: (Units=1/GPa)
#
#
# Indices 1 2 3 4 5 6 
#
# 1 0.007096 -0.001422 -0.002359 0.000000 0.000000 0.000000
# 2 -0.001422 0.039602 -0.006386 0.000000 0.000000 0.000000
# 3 -0.002359 -0.006386 0.012912 0.000000 0.000000 0.000000
# 4 0.000000 0.000000 0.000000 0.051484 0.000000 0.000000
# 5 0.000000 0.000000 0.000000 0.000000 -0.014587 0.000000
# 6 0.000000 0.000000 0.000000 0.000000 0.000000 0.048746
#
#
# Mechanical properties :
#
#
# Convention : Reuss Voigt Hill
#
# Bulk Modulus (GPa) = 25.46161 43.89423 34.67792
# Shear Modulus (GPa) = 27.98314 8.50733 18.24523
#
# Velocity S-wave (km/s) = 3.69737 2.03864 2.98551
# Velocity P-wave (km/s) = 5.53769 5.19470 5.36894
#
# Compressibility (1/GPa) = 0.03927481
#
# Stress axis : x y z
#
# Youngs Moduli (GPa) = 140.91570 25.25155 77.44939
#
# Poissons Ratio (x) = 0.03591 0.18270
# Poissons Ratio (y) = 0.20042 0.49460
# Poissons Ratio (z) = 0.33242 0.16126
#
# Static dielectric constant tensor:
#      x y z
#    x 1.739910 0.000000 0.000000 
#    y 0.000000 1.830900 0.000000 
#    z 0.000000 0.000000 1.722930 
# 
# From -- ./inp_files/61089.got.cif
#   From: 2010.05.17/outbox.cif.g08.bks.cpg/sg70_31_cif.got.tgz:61089.got - 2010.06.03 15:57:51.
