data_PCOD9514144
_publ_section_title
;
Structure prediction by ZEFSAII (Michael W. Deem and Ramdas Pophale) SiO2 
 PCOD9514144
Probable space group: F D D D
;
_chemical_formula_sum "Si O2"
_cell_formula_units_Z 104
_cell_length_a 13.238567
_cell_length_b 14.320235
_cell_length_c 23.819583
_cell_angle_alpha 90.000000
_cell_angle_beta 90.000000
_cell_angle_gamma 90.000000
_cell_volume 4515.702027
_symmetry_space_group_name_H-M "F D D D"
_symmetry_group_IT_number 70
_space_group.IT_coordinate_system_code '2'
_symmetry_cell_setting 'orthorhombic'
loop_
_space_group_symop_operation_xyz
x,y,z
1/4-x,1/4-y,z
x,1/4-y,1/4-z
1/4-x,y,1/4-z
-x,-y,-z
3/4+x,3/4+y,-z
-x,3/4+y,3/4+z
3/4+x,-y,3/4+z
x,1/2+y,1/2+z
1/4-x,3/4-y,1/2+z
x,3/4-y,3/4-z
1/4-x,1/2+y,3/4-z
-x,1/2-y,1/2-z
3/4+x,1/4+y,1/2-z
-x,1/4+y,1/4+z
3/4+x,1/2-y,1/4+z
1/2+x,y,1/2+z
3/4-x,1/4-y,1/2+z
1/2+x,1/4-y,3/4-z
3/4-x,y,3/4-z
1/2-x,-y,1/2-z
1/4+x,3/4+y,1/2-z
1/2-x,3/4+y,1/4+z
1/4+x,-y,1/4+z
1/2+x,1/2+y,z
3/4-x,3/4-y,z
1/2+x,3/4-y,1/4-z
3/4-x,1/2+y,1/4-z
1/2-x,1/2-y,-z
1/4+x,1/4+y,-z
1/2-x,1/4+y,3/4+z
1/4+x,1/2-y,3/4+z
loop_
_atom_site_type_symbol
_atom_site_label
_atom_site_fract_x
_atom_site_fract_y
_atom_site_fract_z
Si Si1 0.625000 0.439767 0.625000
Si Si2 0.875000 0.875000 0.875000
Si Si3 0.954511 0.529849 0.294138
Si Si4 0.875000 0.375000 0.996812
Si Si5 0.044700 0.325401 0.926867
O O1 0.666790 0.371185 0.673236
O O2 0.715793 0.500611 0.598848
O O3 0.934478 0.807395 0.917053
O O4 0.074081 0.543960 0.282693
O O5 0.904294 0.529311 0.231588
O O6 0.969084 0.400277 0.957092
O O7 0.098545 0.375000 0.875000
#
# Coordination Sequence:
#
# PCOD9514144 Si02
#       5
#    16   8  32  16  32
#     4  11  17  35  61  80 116 158 193 257 303 345
#     4  10  20  44  60  80 132 170 198 238 304 358
#     4   9  21  35  60  83 120 160 197 245 298 370
#     4   8  17  36  55  88 111 150 201 252 300 362
#     4  10  17  34  58  87 116 144 198 259 308 347
#
# _framework density 23.030749
#
# number of rings (size 3 to 8) (size 9 to 14) (size 15 to 20)
#    1.846    0.615    3.077    0.000    0.000    4.923 
#    0.000   10.769    3.385    0.000    0.000    0.000 
#    0.000    0.000    0.000    0.000    0.000    0.000 
#
# Total GULP energy -144752.680267 kJ/mol
# GULP energy per Si atom -5567.410779 kJ/mol
# Density = 2.297833 g / cm^3
# Si number density = 23.030749 Si / 1000 Ang^3
#
#
#
# Elastic Constant Matrix: (Units=GPa)
#
#
# Indices 1 2 3 4 5 6 
#
# 1 36.7640 35.4159 40.3619 0.0000 0.0000 0.0000
# 2 35.4159 120.9105 90.8676 0.0000 0.0000 0.0000
# 3 40.3619 90.8676 221.2079 0.0000 0.0000 0.0000
# 4 0.0000 0.0000 0.0000 -188.2083 0.0000 0.0000
# 5 0.0000 0.0000 0.0000 0.0000 34.1846 0.0000
# 6 0.0000 0.0000 0.0000 0.0000 0.0000 -30.1235
#
#
#
# Elastic Compliance Matrix: (Units=1/GPa)
#
#
# Indices 1 2 3 4 5 6 
#
# 1 0.039754 -0.008959 -0.003574 0.000000 0.000000 0.000000
# 2 -0.008959 0.013983 -0.004109 0.000000 0.000000 0.000000
# 3 -0.003574 -0.004109 0.006861 0.000000 0.000000 0.000000
# 4 0.000000 0.000000 0.000000 -0.005313 0.000000 0.000000
# 5 0.000000 0.000000 0.000000 0.000000 0.029253 0.000000
# 6 0.000000 0.000000 0.000000 0.000000 0.000000 -0.033197
#
#
# Mechanical properties :
#
#
# Convention : Reuss Voigt Hill
#
# Bulk Modulus (GPa) = 36.61058 79.13036 57.87047
# Shear Modulus (GPa) = 53.34570 -22.68029 15.33271
#
# Velocity S-wave (km/s) = 4.81800 -3.14153 2.58301
# Velocity P-wave (km/s) = 6.84702 4.61240 5.83763
#
# Compressibility (1/GPa) = 0.02731451
#
# Stress axis : x y z
#
# Youngs Moduli (GPa) = 25.15475 71.51593 145.75861
#
# Poissons Ratio (x) = 0.64069 0.52087
# Poissons Ratio (y) = 0.22535 0.59896
# Poissons Ratio (z) = 0.08989 0.29388
#
# Static dielectric constant tensor:
#      x y z
#    x 1.885230 0.000000 0.000000 
#    y 0.000000 1.848710 0.000000 
#    z 0.000000 0.000000 1.971900 
# 
# From -- ./inp_files/26208.got.cif
#   From: 2010.05.17/outbox.cif.g08.bks.cpg/sg70_14_cif.got.tgz:26208.got - 2010.06.03 15:57:51.
