data_PCOD9514102
_publ_section_title
;
Structure prediction by ZEFSAII (Michael W. Deem and Ramdas Pophale) SiO2 
 PCOD9514102
Probable space group: F D D D
;
_chemical_formula_sum "Si O2"
_cell_formula_units_Z 152
_cell_length_a 14.198926
_cell_length_b 13.723734
_cell_length_c 31.529227
_cell_angle_alpha 90.000000
_cell_angle_beta 90.000000
_cell_angle_gamma 90.000000
_cell_volume 6143.857171
_symmetry_space_group_name_H-M "F D D D"
_symmetry_group_IT_number 70
_space_group.IT_coordinate_system_code '2'
_symmetry_cell_setting 'orthorhombic'
loop_
_space_group_symop_operation_xyz
x,y,z
1/4-x,1/4-y,z
x,1/4-y,1/4-z
1/4-x,y,1/4-z
-x,-y,-z
3/4+x,3/4+y,-z
-x,3/4+y,3/4+z
3/4+x,-y,3/4+z
x,1/2+y,1/2+z
1/4-x,3/4-y,1/2+z
x,3/4-y,3/4-z
1/4-x,1/2+y,3/4-z
-x,1/2-y,1/2-z
3/4+x,1/4+y,1/2-z
-x,1/4+y,1/4+z
3/4+x,1/2-y,1/4+z
1/2+x,y,1/2+z
3/4-x,1/4-y,1/2+z
1/2+x,1/4-y,3/4-z
3/4-x,y,3/4-z
1/2-x,-y,1/2-z
1/4+x,3/4+y,1/2-z
1/2-x,3/4+y,1/4+z
1/4+x,-y,1/4+z
1/2+x,1/2+y,z
3/4-x,3/4-y,z
1/2+x,3/4-y,1/4-z
3/4-x,1/2+y,1/4-z
1/2-x,1/2-y,-z
1/4+x,1/4+y,-z
1/2-x,1/4+y,3/4+z
1/4+x,1/2-y,3/4+z
loop_
_atom_site_type_symbol
_atom_site_label
_atom_site_fract_x
_atom_site_fract_y
_atom_site_fract_z
Si Si1 0.905541 0.182410 0.248440
Si Si2 0.875000 0.552636 0.875000
Si Si3 0.234492 0.966463 0.074331
Si Si4 0.331957 0.670490 0.078318
Si Si5 0.125000 0.625000 0.625000
Si Si6 0.883634 0.771859 0.289364
O O1 0.949485 0.125112 0.397373
O O2 0.872569 0.167747 0.200510
O O3 0.000000 0.250000 0.250000
O O4 0.909618 0.069820 0.265169
O O5 0.929279 0.715684 0.970592
O O6 0.837233 0.487254 0.913624
O O7 0.343318 0.991159 0.076998
O O8 0.189767 0.059506 0.096577
O O9 0.318789 0.625000 0.125000
O O10 0.242901 0.716364 0.053256
O O11 0.875000 0.875000 0.266174
#
# Coordination Sequence:
#
# PCOD9514102 Si02
#       6
#    32  16  32  32   8  32
#     4  11  27  48  78 114 156 219 278 345 421 515
#     4   9  21  41  73 106 148 206 263 329 415 489
#     4  10  22  41  75 111 152 207 274 344 421 500
#     4  12  26  46  80 117 160 213 280 349 441 515
#     4  10  16  40  74 104 156 196 250 360 416 498
#     4  11  25  49  76 111 163 213 265 339 428 508
#
# _framework density 24.740159999999999
#
# number of rings (size 3 to 8) (size 9 to 14) (size 15 to 20)
#    0.000    1.263    1.053    3.474    8.842    3.368 
#    0.000    0.000    0.000    0.000    0.000    0.000 
#    0.000    0.000    0.000    0.000    0.000    0.000 
#
# Total GULP energy -212086.197537 kJ/mol
# GULP energy per Si atom -5581.215725 kJ/mol
# Density = 2.468385 g / cm^3
# Si number density = 24.740160 Si / 1000 Ang^3
#
#
#
# Elastic Constant Matrix: (Units=GPa)
#
#
# Indices 1 2 3 4 5 6 
#
# 1 180.1027 68.3978 36.1801 0.0000 0.0000 0.0000
# 2 68.3978 156.6651 38.3270 0.0000 0.0000 0.0000
# 3 36.1801 38.3270 121.7201 0.0000 0.0000 0.0000
# 4 0.0000 0.0000 0.0000 -35.1172 0.0000 0.0000
# 5 0.0000 0.0000 0.0000 0.0000 27.4688 0.0000
# 6 0.0000 0.0000 0.0000 0.0000 0.0000 38.4737
#
#
#
# Elastic Compliance Matrix: (Units=1/GPa)
#
#
# Indices 1 2 3 4 5 6 
#
# 1 0.006809 -0.002684 -0.001179 0.000000 0.000000 0.000000
# 2 -0.002684 0.007974 -0.001713 0.000000 0.000000 0.000000
# 3 -0.001179 -0.001713 0.009105 0.000000 0.000000 0.000000
# 4 0.000000 0.000000 0.000000 -0.028476 0.000000 0.000000
# 5 0.000000 0.000000 0.000000 0.000000 0.036405 0.000000
# 6 0.000000 0.000000 0.000000 0.000000 0.000000 0.025992
#
#
# Mechanical properties :
#
#
# Convention : Reuss Voigt Hill
#
# Bulk Modulus (GPa) = 78.51575 82.69974 80.60774
# Shear Modulus (GPa) = 68.30104 27.20392 47.75248
#
# Velocity S-wave (km/s) = 5.25997 3.31960 4.39813
# Velocity P-wave (km/s) = 8.28823 6.94211 7.64486
#
# Compressibility (1/GPa) = 0.01273630
#
# Stress axis : x y z
#
# Youngs Moduli (GPa) = 146.87487 125.40775 109.82642
#
# Poissons Ratio (x) = 0.33662 0.12944
# Poissons Ratio (y) = 0.39424 0.18813
# Poissons Ratio (z) = 0.17310 0.21482
#
# Static dielectric constant tensor:
#      x y z
#    x 2.070350 0.000000 0.000000 
#    y 0.000000 2.023540 0.000000 
#    z 0.000000 0.000000 3.039610 
# 
# From -- ./inp_files/55066.got.cif
#   From: 2010.05.17/outbox.cif.g08.bks.cpg/sg70_28_cif.got.tgz:55066.got - 2010.06.03 15:57:51.
