data_PCOD9514919
_publ_section_title
;
Structure prediction by ZEFSAII (Michael W. Deem and Ramdas Pophale) SiO2 
 PCOD9514919
Probable space group: F D D D
;
_chemical_formula_sum "Si O2"
_cell_formula_units_Z 232
_cell_length_a 18.580247
_cell_length_b 29.574501
_cell_length_c 19.184530
_cell_angle_alpha 90.000000
_cell_angle_beta 90.000000
_cell_angle_gamma 90.000000
_cell_volume 10541.928654
_symmetry_space_group_name_H-M "F D D D"
_symmetry_group_IT_number 70
_space_group.IT_coordinate_system_code '2'
_symmetry_cell_setting 'orthorhombic'
loop_
_space_group_symop_operation_xyz
x,y,z
1/4-x,1/4-y,z
x,1/4-y,1/4-z
1/4-x,y,1/4-z
-x,-y,-z
3/4+x,3/4+y,-z
-x,3/4+y,3/4+z
3/4+x,-y,3/4+z
x,1/2+y,1/2+z
1/4-x,3/4-y,1/2+z
x,3/4-y,3/4-z
1/4-x,1/2+y,3/4-z
-x,1/2-y,1/2-z
3/4+x,1/4+y,1/2-z
-x,1/4+y,1/4+z
3/4+x,1/2-y,1/4+z
1/2+x,y,1/2+z
3/4-x,1/4-y,1/2+z
1/2+x,1/4-y,3/4-z
3/4-x,y,3/4-z
1/2-x,-y,1/2-z
1/4+x,3/4+y,1/2-z
1/2-x,3/4+y,1/4+z
1/4+x,-y,1/4+z
1/2+x,1/2+y,z
3/4-x,3/4-y,z
1/2+x,3/4-y,1/4-z
3/4-x,1/2+y,1/4-z
1/2-x,1/2-y,-z
1/4+x,1/4+y,-z
1/2-x,1/4+y,3/4+z
1/4+x,1/2-y,3/4+z
loop_
_atom_site_type_symbol
_atom_site_label
_atom_site_fract_x
_atom_site_fract_y
_atom_site_fract_z
Si Si1 0.630097 0.004847 0.209336
Si Si2 0.017769 0.714736 0.443011
Si Si3 0.809102 0.647672 0.831709
Si Si4 0.283233 0.445977 0.823481
Si Si5 0.048505 0.613860 0.442057
Si Si6 0.857423 0.525056 0.251030
Si Si7 0.125000 0.125000 0.125000
Si Si8 0.492766 0.809081 0.718689
O O1 0.625000 0.004534 0.125000
O O2 0.671675 0.049249 0.236468
O O3 0.548430 0.992057 0.227343
O O4 0.684524 0.967196 0.240996
O O5 0.013020 0.661693 0.460662
O O6 0.089992 0.739886 0.463911
O O7 0.017607 0.711363 0.358869
O O8 0.875000 0.624742 0.875000
O O9 0.752987 0.663277 0.890695
O O10 0.845378 0.686174 0.786598
O O11 0.765211 0.610905 0.788310
O O12 0.313061 0.413679 0.761407
O O13 0.199703 0.453373 0.803459
O O14 0.316983 0.495203 0.810071
O O15 0.312853 0.415961 0.887135
O O16 0.125000 0.625000 0.407609
#
# Coordination Sequence:
#
# PCOD9514919 Si02
#       8
#    32  32  32  32  32  32   8  32
#     4   9  18  36  63  91 126 165 213 267 326 385
#     4  10  20  37  59  90 129 165 212 270 326 385
#     4  11  22  37  66  94 126 163 222 274 331 389
#     4  11  24  42  60  86 129 168 213 260 325 396
#     4  11  20  40  62  88 123 169 211 271 314 389
#     4  11  24  40  61  93 131 166 210 272 332 388
#     4  12  24  44  64  88 120 180 218 256 338 392
#     4   9  19  37  63  96 121 168 222 267 321 399
#
# _framework density 22.007359000000001
#
# number of rings (size 3 to 8) (size 9 to 14) (size 15 to 20)
#    0.000    1.655    3.448    2.069    0.966    2.207 
#    4.966    1.379    0.000    2.483    0.000    0.000 
#    0.000    0.000    0.000    0.000    0.000    0.000 
#
# Total GULP energy -323070.484396 kJ/mol
# GULP energy per Si atom -5570.180765 kJ/mol
# Density = 2.195727 g / cm^3
# Si number density = 22.007359 Si / 1000 Ang^3
#
#
#
# Elastic Constant Matrix: (Units=GPa)
#
#
# Indices 1 2 3 4 5 6 
#
# 1 135.7059 41.0068 30.9741 0.0000 0.0000 0.0000
# 2 41.0068 115.2046 20.9163 0.0000 0.0000 0.0000
# 3 30.9741 20.9163 37.6424 0.0000 0.0000 0.0000
# 4 0.0000 0.0000 0.0000 22.9467 0.0000 0.0000
# 5 0.0000 0.0000 0.0000 0.0000 31.2707 0.0000
# 6 0.0000 0.0000 0.0000 0.0000 0.0000 45.7591
#
#
#
# Elastic Compliance Matrix: (Units=1/GPa)
#
#
# Indices 1 2 3 4 5 6 
#
# 1 0.009546 -0.002193 -0.006637 0.000000 0.000000 0.000000
# 2 -0.002193 0.010158 -0.003840 0.000000 0.000000 0.000000
# 3 -0.006637 -0.003840 0.034160 0.000000 0.000000 0.000000
# 4 0.000000 0.000000 0.000000 0.043579 0.000000 0.000000
# 5 0.000000 0.000000 0.000000 0.000000 0.031979 0.000000
# 6 0.000000 0.000000 0.000000 0.000000 0.000000 0.021854
#
#
# Mechanical properties :
#
#
# Convention : Reuss Voigt Hill
#
# Bulk Modulus (GPa) = 35.05611 52.70524 43.88067
# Shear Modulus (GPa) = 26.86385 33.03902 29.95144
#
# Velocity S-wave (km/s) = 3.49761 3.87883 3.69314
# Velocity P-wave (km/s) = 5.68110 6.63787 6.17803
#
# Compressibility (1/GPa) = 0.02852570
#
# Stress axis : x y z
#
# Youngs Moduli (GPa) = 104.75228 98.44484 29.27371
#
# Poissons Ratio (x) = 0.21590 0.19428
# Poissons Ratio (y) = 0.22973 0.11241
# Poissons Ratio (z) = 0.69520 0.37801
#
# Static dielectric constant tensor:
#      x y z
#    x 1.844440 0.000000 0.000000 
#    y 0.000000 1.879440 0.000000 
#    z 0.000000 0.000000 1.990260 
# 
# From -- ./inp_files/52451.got.cif
#   From: 2010.05.17/outbox.cif.g08.bks.cpg/sg70_27_cif.got.tgz:52451.got - 2010.06.03 15:57:51.
