data_PCOD9514085
_publ_section_title
;
Structure prediction by ZEFSAII (Michael W. Deem and Ramdas Pophale) SiO2 
 PCOD9514085
Probable space group: F D D D
;
_chemical_formula_sum "Si O2"
_cell_formula_units_Z 216
_cell_length_a 15.308796
_cell_length_b 26.842854
_cell_length_c 24.036090
_cell_angle_alpha 90.000000
_cell_angle_beta 90.000000
_cell_angle_gamma 90.000000
_cell_volume 9877.193150
_symmetry_space_group_name_H-M "F D D D"
_symmetry_group_IT_number 70
_space_group.IT_coordinate_system_code '2'
_symmetry_cell_setting 'orthorhombic'
loop_
_space_group_symop_operation_xyz
x,y,z
1/4-x,1/4-y,z
x,1/4-y,1/4-z
1/4-x,y,1/4-z
-x,-y,-z
3/4+x,3/4+y,-z
-x,3/4+y,3/4+z
3/4+x,-y,3/4+z
x,1/2+y,1/2+z
1/4-x,3/4-y,1/2+z
x,3/4-y,3/4-z
1/4-x,1/2+y,3/4-z
-x,1/2-y,1/2-z
3/4+x,1/4+y,1/2-z
-x,1/4+y,1/4+z
3/4+x,1/2-y,1/4+z
1/2+x,y,1/2+z
3/4-x,1/4-y,1/2+z
1/2+x,1/4-y,3/4-z
3/4-x,y,3/4-z
1/2-x,-y,1/2-z
1/4+x,3/4+y,1/2-z
1/2-x,3/4+y,1/4+z
1/4+x,-y,1/4+z
1/2+x,1/2+y,z
3/4-x,3/4-y,z
1/2+x,3/4-y,1/4-z
3/4-x,1/2+y,1/4-z
1/2-x,1/2-y,-z
1/4+x,1/4+y,-z
1/2-x,1/4+y,3/4+z
1/4+x,1/2-y,3/4+z
loop_
_atom_site_type_symbol
_atom_site_label
_atom_site_fract_x
_atom_site_fract_y
_atom_site_fract_z
Si Si1 0.892778 0.121945 0.744702
Si Si2 0.362075 0.486941 0.599455
Si Si3 0.512695 0.686854 0.036196
Si Si4 0.554535 0.024030 0.087791
Si Si5 0.771629 0.125000 0.125000
Si Si6 0.823594 0.419290 0.728992
Si Si7 0.875000 0.375000 0.375000
Si Si8 0.401430 0.242004 0.729749
O O1 0.800552 0.150609 0.749413
O O2 0.919569 0.126749 0.679781
O O3 0.880871 0.062445 0.751314
O O4 0.973218 0.149836 0.776174
O O5 0.299331 0.522003 0.564203
O O6 0.463143 0.497013 0.586211
O O7 0.363565 0.431550 0.573690
O O8 0.347579 0.500982 0.663176
O O9 0.562600 0.657001 0.084787
O O10 0.585954 0.715959 0.001899
O O11 0.625000 0.996033 0.125000
O O12 0.533460 0.074750 0.121758
O O13 0.579241 0.036866 0.024911
O O14 0.875000 0.375000 0.759645
O O15 0.500000 0.250000 0.750000
#
# Coordination Sequence:
#
# PCOD9514085 Si02
#       8
#    32  32  32  32  16  32   8  32
#     4  11  21  42  69 100 140 184 230 295 350 435
#     4  12  25  43  70 103 145 183 234 293 355 434
#     4  12  24  44  76 101 139 184 235 308 364 414
#     4  11  21  34  68 103 136 178 226 277 339 417
#     4  10  16  36  61 103 128 172 224 282 334 405
#     4  11  24  42  64 101 151 187 227 278 366 430
#     4  12  26  48  74 100 126 176 256 322 346 398
#     4  12  27  47  74 104 136 188 251 302 363 433
#
# _framework density 21.868561
#
# number of rings (size 3 to 8) (size 9 to 14) (size 15 to 20)
#    0.000    0.593    4.444    6.444    2.074    0.000 
#    4.000    0.000    0.000    0.000    0.000    0.000 
#    0.000    0.000    0.000    0.000    0.000    0.000 
#
# Total GULP energy -301580.846301 kJ/mol
# GULP energy per Si atom -5584.830487 kJ/mol
# Density = 2.181879 g / cm^3
# Si number density = 21.868561 Si / 1000 Ang^3
#
#
#
# Elastic Constant Matrix: (Units=GPa)
#
#
# Indices 1 2 3 4 5 6 
#
# 1 116.8914 21.2478 16.3571 0.0000 0.0000 0.0000
# 2 21.2478 70.4651 16.6315 0.0000 0.0000 0.0000
# 3 16.3571 16.6315 58.3466 0.0000 0.0000 0.0000
# 4 0.0000 0.0000 0.0000 29.0542 0.0000 0.0000
# 5 0.0000 0.0000 0.0000 0.0000 24.5612 0.0000
# 6 0.0000 0.0000 0.0000 0.0000 0.0000 44.6326
#
#
#
# Elastic Compliance Matrix: (Units=1/GPa)
#
#
# Indices 1 2 3 4 5 6 
#
# 1 0.009249 -0.002334 -0.001928 0.000000 0.000000 0.000000
# 2 -0.002334 0.015804 -0.003851 0.000000 0.000000 0.000000
# 3 -0.001928 -0.003851 0.018777 0.000000 0.000000 0.000000
# 4 0.000000 0.000000 0.000000 0.034418 0.000000 0.000000
# 5 0.000000 0.000000 0.000000 0.000000 0.040715 0.000000
# 6 0.000000 0.000000 0.000000 0.000000 0.000000 0.022405
#
#
# Mechanical properties :
#
#
# Convention : Reuss Voigt Hill
#
# Bulk Modulus (GPa) = 36.22444 39.35289 37.78866
# Shear Modulus (GPa) = 29.97705 32.41403 31.19554
#
# Velocity S-wave (km/s) = 3.70643 3.85414 3.78100
# Velocity P-wave (km/s) = 5.90909 6.15143 6.03148
#
# Compressibility (1/GPa) = 0.02760567
#
# Stress axis : x y z
#
# Youngs Moduli (GPa) = 108.12056 63.27506 53.25686
#
# Poissons Ratio (x) = 0.14768 0.10266
# Poissons Ratio (y) = 0.25235 0.20507
# Poissons Ratio (z) = 0.20841 0.24364
#
# Static dielectric constant tensor:
#      x y z
#    x 1.888630 0.000000 0.000000 
#    y 0.000000 2.317460 0.000000 
#    z 0.000000 0.000000 1.664570 
# 
# From -- ./inp_files/51605.got.cif
#   From: 2010.05.17/outbox.cif.g08.bks.cpg/sg70_26_cif.got.tgz:51605.got - 2010.06.03 15:57:51.
