data_PCOD9514992
_publ_section_title
;
Structure prediction by ZEFSAII (Michael W. Deem and Ramdas Pophale) SiO2 
 PCOD9514992
Probable space group: F D D D
;
_chemical_formula_sum "Si O2"
_cell_formula_units_Z 208
_cell_length_a 16.614630
_cell_length_b 32.128117
_cell_length_c 21.155459
_cell_angle_alpha 90.000000
_cell_angle_beta 90.000000
_cell_angle_gamma 90.000000
_cell_volume 11292.715821
_symmetry_space_group_name_H-M "F D D D"
_symmetry_group_IT_number 70
_space_group.IT_coordinate_system_code '2'
_symmetry_cell_setting 'orthorhombic'
loop_
_space_group_symop_operation_xyz
x,y,z
1/4-x,1/4-y,z
x,1/4-y,1/4-z
1/4-x,y,1/4-z
-x,-y,-z
3/4+x,3/4+y,-z
-x,3/4+y,3/4+z
3/4+x,-y,3/4+z
x,1/2+y,1/2+z
1/4-x,3/4-y,1/2+z
x,3/4-y,3/4-z
1/4-x,1/2+y,3/4-z
-x,1/2-y,1/2-z
3/4+x,1/4+y,1/2-z
-x,1/4+y,1/4+z
3/4+x,1/2-y,1/4+z
1/2+x,y,1/2+z
3/4-x,1/4-y,1/2+z
1/2+x,1/4-y,3/4-z
3/4-x,y,3/4-z
1/2-x,-y,1/2-z
1/4+x,3/4+y,1/2-z
1/2-x,3/4+y,1/4+z
1/4+x,-y,1/4+z
1/2+x,1/2+y,z
3/4-x,3/4-y,z
1/2+x,3/4-y,1/4-z
3/4-x,1/2+y,1/4-z
1/2-x,1/2-y,-z
1/4+x,1/4+y,-z
1/2-x,1/4+y,3/4+z
1/4+x,1/2-y,3/4+z
loop_
_atom_site_type_symbol
_atom_site_label
_atom_site_fract_x
_atom_site_fract_y
_atom_site_fract_z
Si Si1 0.041880 0.985984 0.322118
Si Si2 0.875000 0.764641 0.875000
Si Si3 0.933461 0.285098 0.244897
Si Si4 0.669136 0.265028 0.961792
Si Si5 0.925506 0.561987 0.813747
Si Si6 0.965721 0.860871 0.659531
Si Si7 0.739307 0.706947 0.807875
O O1 0.058015 0.969332 0.391818
O O2 0.023598 0.955429 0.263636
O O3 0.114779 0.015215 0.298883
O O4 0.968663 0.018205 0.327538
O O5 0.900858 0.791624 0.815148
O O6 0.800685 0.736541 0.848279
O O7 0.967734 0.325485 0.212492
O O8 0.000000 0.250000 0.250000
O O9 0.599587 0.229017 0.949383
O O10 0.750000 0.250000 0.000000
O O11 0.627532 0.301430 0.002674
O O12 0.875000 0.572598 0.875000
O O13 0.987492 0.599768 0.812439
O O14 0.875000 0.875000 0.648801
O O15 0.990690 0.836790 0.595041
#
# Coordination Sequence:
#
# PCOD9514992 Si02
#       7
#    32  16  32  32  32  32  32
#     4  10  20  39  62  93 123 164 221 266 313 389
#     4  10  20  38  63  88 122 156 226 260 310 390
#     4  11  20  37  64  89 121 167 213 259 314 404
#     4  11  20  38  65  96 127 167 220 281 321 398
#     4  11  23  36  62  99 129 164 219 271 335 381
#     4  12  23  40  62  94 130 169 211 278 336 391
#     4  10  22  36  63  93 119 170 217 264 322 399
#
# _framework density 18.418952999999998
#
# number of rings (size 3 to 8) (size 9 to 14) (size 15 to 20)
#    0.000    1.231    6.154    0.000    1.077    0.000 
#    0.000    0.385    0.000    6.462    0.000    0.000 
#    0.000    0.000    0.000    0.000    0.000    0.000 
#
# Total GULP energy -289807.931055 kJ/mol
# GULP energy per Si atom -5573.229443 kJ/mol
# Density = 1.837703 g / cm^3
# Si number density = 18.418953 Si / 1000 Ang^3
#
#
#
# Elastic Constant Matrix: (Units=GPa)
#
#
# Indices 1 2 3 4 5 6 
#
# 1 72.6391 14.0680 36.4592 0.0000 0.0000 0.0000
# 2 14.0680 70.4857 46.1577 0.0000 0.0000 0.0000
# 3 36.4592 46.1577 176.9411 0.0000 0.0000 0.0000
# 4 0.0000 0.0000 0.0000 31.9783 0.0000 0.0000
# 5 0.0000 0.0000 0.0000 0.0000 -37.2458 0.0000
# 6 0.0000 0.0000 0.0000 0.0000 0.0000 21.4039
#
#
#
# Elastic Compliance Matrix: (Units=1/GPa)
#
#
# Indices 1 2 3 4 5 6 
#
# 1 0.015439 -0.001204 -0.002867 0.000000 0.000000 0.000000
# 2 -0.001204 0.017204 -0.004240 0.000000 0.000000 0.000000
# 3 -0.002867 -0.004240 0.007348 0.000000 0.000000 0.000000
# 4 0.000000 0.000000 0.000000 0.031271 0.000000 0.000000
# 5 0.000000 0.000000 0.000000 0.000000 -0.026849 0.000000
# 6 0.000000 0.000000 0.000000 0.000000 0.000000 0.046720
#
#
# Mechanical properties :
#
#
# Convention : Reuss Voigt Hill
#
# Bulk Modulus (GPa) = 42.79063 57.04841 49.91952
# Shear Modulus (GPa) = 43.27282 18.11937 30.69609
#
# Velocity S-wave (km/s) = 4.85228 3.13986 4.08677
# Velocity P-wave (km/s) = 7.39426 6.64717 7.03065
#
# Compressibility (1/GPa) = 0.02336960
#
# Stress axis : x y z
#
# Youngs Moduli (GPa) = 64.77128 58.12595 136.08360
#
# Poissons Ratio (x) = 0.06997 0.39018
# Poissons Ratio (y) = 0.07797 0.57698
# Poissons Ratio (z) = 0.18571 0.24645
#
# Static dielectric constant tensor:
#      x y z
#    x 1.682830 0.000000 0.000000 
#    y 0.000000 1.604250 0.000000 
#    z 0.000000 0.000000 1.654450 
# 
# From -- ./inp_files/44073.got.cif
#   From: 2010.05.17/outbox.cif.g08.bks.cpg/sg70_23_cif.got.tgz:44073.got - 2010.06.03 15:57:51.
