data_PCOD9514473
_publ_section_title
;
Structure prediction by ZEFSAII (Michael W. Deem and Ramdas Pophale) SiO2 
 PCOD9514473
Probable space group: F D D D
;
_chemical_formula_sum "Si O2"
_cell_formula_units_Z 160
_cell_length_a 10.274724
_cell_length_b 23.861372
_cell_length_c 38.135808
_cell_angle_alpha 90.000000
_cell_angle_beta 90.000000
_cell_angle_gamma 90.000000
_cell_volume 9349.718352
_symmetry_space_group_name_H-M "F D D D"
_symmetry_group_IT_number 70
_space_group.IT_coordinate_system_code '2'
_symmetry_cell_setting 'orthorhombic'
loop_
_space_group_symop_operation_xyz
x,y,z
1/4-x,1/4-y,z
x,1/4-y,1/4-z
1/4-x,y,1/4-z
-x,-y,-z
3/4+x,3/4+y,-z
-x,3/4+y,3/4+z
3/4+x,-y,3/4+z
x,1/2+y,1/2+z
1/4-x,3/4-y,1/2+z
x,3/4-y,3/4-z
1/4-x,1/2+y,3/4-z
-x,1/2-y,1/2-z
3/4+x,1/4+y,1/2-z
-x,1/4+y,1/4+z
3/4+x,1/2-y,1/4+z
1/2+x,y,1/2+z
3/4-x,1/4-y,1/2+z
1/2+x,1/4-y,3/4-z
3/4-x,y,3/4-z
1/2-x,-y,1/2-z
1/4+x,3/4+y,1/2-z
1/2-x,3/4+y,1/4+z
1/4+x,-y,1/4+z
1/2+x,1/2+y,z
3/4-x,3/4-y,z
1/2+x,3/4-y,1/4-z
3/4-x,1/2+y,1/4-z
1/2-x,1/2-y,-z
1/4+x,1/4+y,-z
1/2-x,1/4+y,3/4+z
1/4+x,1/2-y,3/4+z
loop_
_atom_site_type_symbol
_atom_site_label
_atom_site_fract_x
_atom_site_fract_y
_atom_site_fract_z
Si Si1 0.365504 0.233792 0.451988
Si Si2 0.667802 0.219702 0.455348
Si Si3 0.375000 0.685560 0.875000
Si Si4 0.993672 0.590610 0.012463
Si Si5 0.375000 0.875000 0.601409
Si Si6 0.753479 0.414156 0.278624
O O1 0.517578 0.236603 0.462766
O O2 0.365240 0.221170 0.410700
O O3 0.306563 0.183922 0.475509
O O4 0.284763 0.288580 0.462835
O O5 0.668815 0.176310 0.423514
O O6 0.741199 0.278357 0.449534
O O7 0.723407 0.186987 0.489002
O O8 0.502954 0.647323 0.877161
O O9 0.125000 0.625000 0.007010
O O10 0.878630 0.628130 0.028665
O O11 0.875000 0.375000 0.288148
#
# Coordination Sequence:
#
# PCOD9514473 Si02
#       6
#    32  32  16  32  16  32
#     4  10  21  37  57  87 114 152 190 238 285 349
#     4  10  19  34  57  78 119 150 183 229 294 346
#     4  10  22  40  59  80 115 152 194 228 290 348
#     4  11  21  35  57  87 121 139 191 245 288 331
#     4  10  20  40  56  80 110 148 194 234 278 348
#     4  11  19  33  55  86 111 152 180 229 298 345
#
# _framework density 17.112815000000001
#
# number of rings (size 3 to 8) (size 9 to 14) (size 15 to 20)
#    0.000    1.600    5.000    1.200    1.400    0.000 
#    3.600    0.500    0.000    0.000    0.000    0.000 
#    0.000    0.000    0.000    0.000    0.000    0.000 
#
# Total GULP energy -223115.624554 kJ/mol
# GULP energy per Si atom -5577.890614 kJ/mol
# Density = 1.707387 g / cm^3
# Si number density = 17.112815 Si / 1000 Ang^3
#
#
#
# Elastic Constant Matrix: (Units=GPa)
#
#
# Indices 1 2 3 4 5 6 
#
# 1 91.4703 41.9615 9.2886 0.0000 0.0000 0.0000
# 2 41.9615 109.3754 17.4038 0.0000 0.0000 0.0000
# 3 9.2886 17.4038 47.1076 0.0000 0.0000 0.0000
# 4 0.0000 0.0000 0.0000 -1.1288 0.0000 0.0000
# 5 0.0000 0.0000 0.0000 0.0000 17.1785 0.0000
# 6 0.0000 0.0000 0.0000 0.0000 0.0000 42.7513
#
#
#
# Elastic Compliance Matrix: (Units=1/GPa)
#
#
# Indices 1 2 3 4 5 6 
#
# 1 0.013295 -0.004976 -0.000783 0.000000 0.000000 0.000000
# 2 -0.004976 0.011576 -0.003296 0.000000 0.000000 0.000000
# 3 -0.000783 -0.003296 0.022600 0.000000 0.000000 0.000000
# 4 0.000000 0.000000 0.000000 -0.885898 0.000000 0.000000
# 5 0.000000 0.000000 0.000000 0.000000 0.058212 0.000000
# 6 0.000000 0.000000 0.000000 0.000000 0.000000 0.023391
#
#
# Mechanical properties :
#
#
# Convention : Reuss Voigt Hill
#
# Bulk Modulus (GPa) = 34.05808 42.80679 38.43244
# Shear Modulus (GPa) = -6.85940 23.71349 8.42705
#
# Velocity S-wave (km/s) = -2.00426 3.72656 2.22151
# Velocity P-wave (km/s) = 3.81959 6.60190 5.39325
#
# Compressibility (1/GPa) = 0.02936160
#
# Stress axis : x y z
#
# Youngs Moduli (GPa) = 75.21802 86.38413 44.24783
#
# Poissons Ratio (x) = 0.42984 0.03465
# Poissons Ratio (y) = 0.37427 0.14583
# Poissons Ratio (z) = 0.05890 0.28469
#
# Static dielectric constant tensor:
#      x y z
#    x 1.583870 0.000000 0.000000 
#    y 0.000000 1.598590 0.000000 
#    z 0.000000 0.000000 1.547820 
# 
# From -- ./inp_files/64691.got.cif
#   From: 2010.05.17/outbox.cif.g08.bks.cpg/sg70_33_cif.got.tgz:64691.got - 2010.06.03 15:57:51.
