data_PCOD9514772
_publ_section_title
;
Structure prediction by ZEFSAII (Michael W. Deem and Ramdas Pophale) SiO2 
 PCOD9514772
Probable space group: F D D D
;
_chemical_formula_sum "Si O2"
_cell_formula_units_Z 160
_cell_length_a 10.712327
_cell_length_b 27.039711
_cell_length_c 31.638430
_cell_angle_alpha 90.000000
_cell_angle_beta 90.000000
_cell_angle_gamma 90.000000
_cell_volume 9164.331514
_symmetry_space_group_name_H-M "F D D D"
_symmetry_group_IT_number 70
_space_group.IT_coordinate_system_code '2'
_symmetry_cell_setting 'orthorhombic'
loop_
_space_group_symop_operation_xyz
x,y,z
1/4-x,1/4-y,z
x,1/4-y,1/4-z
1/4-x,y,1/4-z
-x,-y,-z
3/4+x,3/4+y,-z
-x,3/4+y,3/4+z
3/4+x,-y,3/4+z
x,1/2+y,1/2+z
1/4-x,3/4-y,1/2+z
x,3/4-y,3/4-z
1/4-x,1/2+y,3/4-z
-x,1/2-y,1/2-z
3/4+x,1/4+y,1/2-z
-x,1/4+y,1/4+z
3/4+x,1/2-y,1/4+z
1/2+x,y,1/2+z
3/4-x,1/4-y,1/2+z
1/2+x,1/4-y,3/4-z
3/4-x,y,3/4-z
1/2-x,-y,1/2-z
1/4+x,3/4+y,1/2-z
1/2-x,3/4+y,1/4+z
1/4+x,-y,1/4+z
1/2+x,1/2+y,z
3/4-x,3/4-y,z
1/2+x,3/4-y,1/4-z
3/4-x,1/2+y,1/4-z
1/2-x,1/2-y,-z
1/4+x,1/4+y,-z
1/2-x,1/4+y,3/4+z
1/4+x,1/2-y,3/4+z
loop_
_atom_site_type_symbol
_atom_site_label
_atom_site_fract_x
_atom_site_fract_y
_atom_site_fract_z
Si Si1 0.256775 0.673813 0.148448
Si Si2 0.860956 0.974543 0.131312
Si Si3 0.875000 0.375000 0.773551
Si Si4 0.477087 0.046002 0.969964
Si Si5 0.875000 0.572002 0.375000
Si Si6 0.501323 0.100906 0.813303
O O1 0.309686 0.625000 0.125000
O O2 0.125000 0.684545 0.125000
O O3 0.338575 0.722277 0.140581
O O4 0.215297 0.657001 0.195336
O O5 0.785418 0.968848 0.174854
O O6 0.805339 0.932581 0.100928
O O7 0.005786 0.960961 0.137153
O O8 0.797641 0.409782 0.743009
O O9 0.335908 0.065059 0.963931
O O10 0.500000 0.000000 0.000000
O O11 0.833634 0.607164 0.335860
O O12 0.625000 0.125000 0.792452
#
# Coordination Sequence:
#
# PCOD9514772 Si02
#       6
#    32  32  16  32  16  32
#     4   9  18  36  55  76 106 148 185 221 270 337
#     4  11  20  35  58  78 109 143 191 224 279 339
#     4  10  21  32  54  82 114 136 180 236 280 320
#     4  12  21  33  56  86 110 141 187 238 287 339
#     4  10  20  34  55  84 101 138 184 238 264 328
#     4  10  20  35  55  79 110 142 181 229 284 337
#
# _framework density 17.458993
#
# number of rings (size 3 to 8) (size 9 to 14) (size 15 to 20)
#    0.000    1.800    2.000    6.000    1.400    0.000 
#    0.000    2.500    0.000    7.200    0.000    0.000 
#    0.000    0.000    0.000    0.000    0.000    0.000 
#
# Total GULP energy -223094.741111 kJ/mol
# GULP energy per Si atom -5577.368528 kJ/mol
# Density = 1.741926 g / cm^3
# Si number density = 17.458993 Si / 1000 Ang^3
#
#
#
# Elastic Constant Matrix: (Units=GPa)
#
#
# Indices 1 2 3 4 5 6 
#
# 1 112.7963 69.0993 29.9973 0.0000 0.0000 0.0000
# 2 69.0993 103.9640 26.0672 0.0000 0.0000 0.0000
# 3 29.9973 26.0672 61.6988 0.0000 0.0000 0.0000
# 4 0.0000 0.0000 0.0000 24.6298 0.0000 0.0000
# 5 0.0000 0.0000 0.0000 0.0000 11.9457 0.0000
# 6 0.0000 0.0000 0.0000 0.0000 0.0000 21.8929
#
#
#
# Elastic Compliance Matrix: (Units=1/GPa)
#
#
# Indices 1 2 3 4 5 6 
#
# 1 0.015635 -0.009491 -0.003592 0.000000 0.000000 0.000000
# 2 -0.009491 0.016520 -0.002365 0.000000 0.000000 0.000000
# 3 -0.003592 -0.002365 0.018953 0.000000 0.000000 0.000000
# 4 0.000000 0.000000 0.000000 0.040601 0.000000 0.000000
# 5 0.000000 0.000000 0.000000 0.000000 0.083712 0.000000
# 6 0.000000 0.000000 0.000000 0.000000 0.000000 0.045677
#
#
# Mechanical properties :
#
#
# Convention : Reuss Voigt Hill
#
# Bulk Modulus (GPa) = 49.47437 58.75406 54.11421
# Shear Modulus (GPa) = 19.32502 21.91337 20.61919
#
# Velocity S-wave (km/s) = 3.33059 3.54663 3.44031
# Velocity P-wave (km/s) = 6.57187 7.10613 6.84421
#
# Compressibility (1/GPa) = 0.02021248
#
# Stress axis : x y z
#
# Youngs Moduli (GPa) = 63.95869 60.53249 52.76156
#
# Poissons Ratio (x) = 0.57453 0.18950
# Poissons Ratio (y) = 0.60705 0.12478
# Poissons Ratio (z) = 0.22972 0.14316
#
# Static dielectric constant tensor:
#      x y z
#    x 1.608920 0.000000 0.000000 
#    y 0.000000 1.611190 0.000000 
#    z 0.000000 0.000000 1.582670 
# 
# From -- ./inp_files/12359.got.cif
#   From: 2010.05.17/outbox.cif.g08.bks.cpg/sg70_7_cif.got.tgz:12359.got - 2010.06.03 15:57:51.
