data_PCOD9514531
_publ_section_title
;
Structure prediction by ZEFSAII (Michael W. Deem and Ramdas Pophale) SiO2 
 PCOD9514531
Probable space group: F D D D
;
_chemical_formula_sum "Si O2"
_cell_formula_units_Z 176
_cell_length_a 12.511949
_cell_length_b 28.402388
_cell_length_c 24.803628
_cell_angle_alpha 90.000000
_cell_angle_beta 90.000000
_cell_angle_gamma 90.000000
_cell_volume 8814.446187
_symmetry_space_group_name_H-M "F D D D"
_symmetry_group_IT_number 70
_space_group.IT_coordinate_system_code '2'
_symmetry_cell_setting 'orthorhombic'
loop_
_space_group_symop_operation_xyz
x,y,z
1/4-x,1/4-y,z
x,1/4-y,1/4-z
1/4-x,y,1/4-z
-x,-y,-z
3/4+x,3/4+y,-z
-x,3/4+y,3/4+z
3/4+x,-y,3/4+z
x,1/2+y,1/2+z
1/4-x,3/4-y,1/2+z
x,3/4-y,3/4-z
1/4-x,1/2+y,3/4-z
-x,1/2-y,1/2-z
3/4+x,1/4+y,1/2-z
-x,1/4+y,1/4+z
3/4+x,1/2-y,1/4+z
1/2+x,y,1/2+z
3/4-x,1/4-y,1/2+z
1/2+x,1/4-y,3/4-z
3/4-x,y,3/4-z
1/2-x,-y,1/2-z
1/4+x,3/4+y,1/2-z
1/2-x,3/4+y,1/4+z
1/4+x,-y,1/4+z
1/2+x,1/2+y,z
3/4-x,3/4-y,z
1/2+x,3/4-y,1/4-z
3/4-x,1/2+y,1/4-z
1/2-x,1/2-y,-z
1/4+x,1/4+y,-z
1/2-x,1/4+y,3/4+z
1/4+x,1/2-y,3/4+z
loop_
_atom_site_type_symbol
_atom_site_label
_atom_site_fract_x
_atom_site_fract_y
_atom_site_fract_z
Si Si1 0.875000 0.799365 0.875000
Si Si2 0.367294 0.745481 0.026894
Si Si3 0.053657 0.898111 0.818205
Si Si4 0.001678 0.366197 0.205623
Si Si5 0.787795 0.530202 0.919617
Si Si6 0.546887 0.528430 0.884283
O O1 0.814837 0.830243 0.830210
O O2 0.781239 0.765213 0.895187
O O3 0.375335 0.693678 0.054004
O O4 0.421148 0.780634 0.070574
O O5 0.250000 0.750000 0.000000
O O6 0.441863 0.745272 0.975315
O O7 0.085283 0.875000 0.875000
O O8 0.049352 0.864132 0.766219
O O9 0.875000 0.375000 0.211782
O O10 0.007046 0.322712 0.164329
O O11 0.049637 0.413735 0.179908
O O12 0.875000 0.516082 0.875000
O O13 0.665599 0.521104 0.906146
#
# Coordination Sequence:
#
# PCOD9514531 Si02
#       6
#    16  32  32  32  32  32
#     4  10  21  36  62  88 130 158 200 260 320 366
#     4  10  20  38  64  90 120 165 210 256 312 363
#     4  10  20  38  61  89 125 170 201 247 316 381
#     4   9  19  34  56  85 123 158 205 249 308 365
#     4  10  19  35  63  83 116 169 204 244 306 369
#     4  10  21  38  60  95 124 157 209 257 310 365
#
# _framework density 19.967220999999999
#
# number of rings (size 3 to 8) (size 9 to 14) (size 15 to 20)
#    0.000    2.182    1.818    1.364    1.273    1.455 
#    0.000   32.727    0.000    0.000    0.000    0.000 
#    0.000    0.000    0.000    0.000    0.000    0.000 
#
# Total GULP energy -245053.795860 kJ/mol
# GULP energy per Si atom -5569.404451 kJ/mol
# Density = 1.992177 g / cm^3
# Si number density = 19.967221 Si / 1000 Ang^3
#
#
#
# Elastic Constant Matrix: (Units=GPa)
#
#
# Indices 1 2 3 4 5 6 
#
# 1 78.2926 27.7943 45.1720 0.0000 0.0000 0.0000
# 2 27.7943 63.6906 57.0711 0.0000 0.0000 0.0000
# 3 45.1720 57.0711 166.9191 0.0000 0.0000 0.0000
# 4 0.0000 0.0000 0.0000 42.1684 0.0000 0.0000
# 5 0.0000 0.0000 0.0000 0.0000 2.2111 0.0000
# 6 0.0000 0.0000 0.0000 0.0000 0.0000 25.3134
#
#
#
# Elastic Compliance Matrix: (Units=1/GPa)
#
#
# Indices 1 2 3 4 5 6 
#
# 1 0.015970 -0.004464 -0.002796 0.000000 0.000000 0.000000
# 2 -0.004464 0.023884 -0.006958 0.000000 0.000000 0.000000
# 3 -0.002796 -0.006958 0.009126 0.000000 0.000000 0.000000
# 4 0.000000 0.000000 0.000000 0.023714 0.000000 0.000000
# 5 0.000000 0.000000 0.000000 0.000000 0.452261 0.000000
# 6 0.000000 0.000000 0.000000 0.000000 0.000000 0.039505
#
#
# Mechanical properties :
#
#
# Convention : Reuss Voigt Hill
#
# Bulk Modulus (GPa) = 48.67367 63.21968 55.94668
# Shear Modulus (GPa) = 8.33688 25.86290 17.09989
#
# Velocity S-wave (km/s) = 2.04557 3.60289 2.92960
# Velocity P-wave (km/s) = 5.47803 7.00273 6.28677
#
# Compressibility (1/GPa) = 0.02054499
#
# Stress axis : x y z
#
# Youngs Moduli (GPa) = 62.61575 41.86908 109.57163
#
# Poissons Ratio (x) = 0.18692 0.30631
# Poissons Ratio (y) = 0.27954 0.76240
# Poissons Ratio (z) = 0.17504 0.29132
#
# Static dielectric constant tensor:
#      x y z
#    x 1.698420 0.000000 0.000000 
#    y 0.000000 1.746480 0.000000 
#    z 0.000000 0.000000 1.678920 
# 
# From -- ./inp_files/54982.got.cif
#   From: 2010.05.17/outbox.cif.g08.bks.cpg/sg70_28_cif.got.tgz:54982.got - 2010.06.03 15:57:51.
