data_PCOD9514656
_publ_section_title
;
Structure prediction by ZEFSAII (Michael W. Deem and Ramdas Pophale) SiO2 
 PCOD9514656
Probable space group: F D D D
;
_chemical_formula_sum "Si O2"
_cell_formula_units_Z 176
_cell_length_a 23.155663
_cell_length_b 13.296768
_cell_length_c 22.778142
_cell_angle_alpha 90.000000
_cell_angle_beta 90.000000
_cell_angle_gamma 90.000000
_cell_volume 7013.286937
_symmetry_space_group_name_H-M "F D D D"
_symmetry_group_IT_number 70
_space_group.IT_coordinate_system_code '2'
_symmetry_cell_setting 'orthorhombic'
loop_
_space_group_symop_operation_xyz
x,y,z
1/4-x,1/4-y,z
x,1/4-y,1/4-z
1/4-x,y,1/4-z
-x,-y,-z
3/4+x,3/4+y,-z
-x,3/4+y,3/4+z
3/4+x,-y,3/4+z
x,1/2+y,1/2+z
1/4-x,3/4-y,1/2+z
x,3/4-y,3/4-z
1/4-x,1/2+y,3/4-z
-x,1/2-y,1/2-z
3/4+x,1/4+y,1/2-z
-x,1/4+y,1/4+z
3/4+x,1/2-y,1/4+z
1/2+x,y,1/2+z
3/4-x,1/4-y,1/2+z
1/2+x,1/4-y,3/4-z
3/4-x,y,3/4-z
1/2-x,-y,1/2-z
1/4+x,3/4+y,1/2-z
1/2-x,3/4+y,1/4+z
1/4+x,-y,1/4+z
1/2+x,1/2+y,z
3/4-x,3/4-y,z
1/2+x,3/4-y,1/4-z
3/4-x,1/2+y,1/4-z
1/2-x,1/2-y,-z
1/4+x,1/4+y,-z
1/2-x,1/4+y,3/4+z
1/4+x,1/2-y,3/4+z
loop_
_atom_site_type_symbol
_atom_site_label
_atom_site_fract_x
_atom_site_fract_y
_atom_site_fract_z
Si Si1 0.140874 0.283136 0.405085
Si Si2 0.812573 0.322648 0.450220
Si Si3 0.201257 0.609701 0.425103
Si Si4 0.875000 0.875000 0.497161
Si Si5 0.226847 0.973956 0.090544
Si Si6 0.504574 0.902736 0.785040
O O1 0.107595 0.375000 0.375000
O O2 0.150663 0.211762 0.348765
O O3 0.119071 0.222676 0.460980
O O4 0.202478 0.330039 0.428786
O O5 0.875000 0.375000 0.445418
O O6 0.803155 0.315073 0.519690
O O7 0.769672 0.411940 0.431313
O O8 0.810320 0.235324 0.401642
O O9 0.218815 0.670734 0.368288
O O10 0.245177 0.518498 0.442074
O O11 0.812235 0.867121 0.465861
O O12 0.216373 0.912627 0.030452
#
# Coordination Sequence:
#
# PCOD9514656 Si02
#       6
#    32  32  32  16  32  32
#     4  10  23  45  67  93 136 172 214 279 332 383
#     4  10  22  39  60  94 125 172 223 270 330 395
#     4  10  21  40  64  87 127 174 211 273 335 381
#     4  12  22  42  69  98 122 175 228 268 318 408
#     4  10  19  39  63  83 131 172 205 269 341 385
#     4  10  23  42  64  94 130 172 213 274 332 386
#
# _framework density 25.095222
#
# number of rings (size 3 to 8) (size 9 to 14) (size 15 to 20)
#    0.000    1.818    1.818    2.182    1.273    0.000 
#   19.636    4.091    0.000    0.000    0.000    0.000 
#    0.000    0.000    0.000    0.000    0.000    0.000 
#
# Total GULP energy -245050.968370 kJ/mol
# GULP energy per Si atom -5569.340190 kJ/mol
# Density = 2.503810 g / cm^3
# Si number density = 25.095222 Si / 1000 Ang^3
#
#
#
# Elastic Constant Matrix: (Units=GPa)
#
#
# Indices 1 2 3 4 5 6 
#
# 1 79.8093 30.3502 22.9974 0.0000 0.0000 0.0000
# 2 30.3502 73.9056 24.7454 0.0000 0.0000 0.0000
# 3 22.9974 24.7454 156.7830 0.0000 0.0000 0.0000
# 4 0.0000 0.0000 0.0000 39.9725 0.0000 0.0000
# 5 0.0000 0.0000 0.0000 0.0000 41.7445 0.0000
# 6 0.0000 0.0000 0.0000 0.0000 0.0000 28.8570
#
#
#
# Elastic Compliance Matrix: (Units=1/GPa)
#
#
# Indices 1 2 3 4 5 6 
#
# 1 0.015097 -0.005763 -0.001305 0.000000 0.000000 0.000000
# 2 -0.005763 0.016486 -0.001757 0.000000 0.000000 0.000000
# 3 -0.001305 -0.001757 0.006847 0.000000 0.000000 0.000000
# 4 0.000000 0.000000 0.000000 0.025017 0.000000 0.000000
# 5 0.000000 0.000000 0.000000 0.000000 0.023955 0.000000
# 6 0.000000 0.000000 0.000000 0.000000 0.000000 0.034654
#
#
# Mechanical properties :
#
#
# Convention : Reuss Voigt Hill
#
# Bulk Modulus (GPa) = 48.12140 51.85378 49.98759
# Shear Modulus (GPa) = 34.09890 37.60843 35.85366
#
# Velocity S-wave (km/s) = 3.69016 3.87541 3.78392
# Velocity P-wave (km/s) = 6.11339 6.38222 6.24925
#
# Compressibility (1/GPa) = 0.02078077
#
# Stress axis : x y z
#
# Youngs Moduli (GPa) = 66.23620 60.65901 146.05128
#
# Poissons Ratio (x) = 0.34958 0.19059
# Poissons Ratio (y) = 0.38172 0.25656
# Poissons Ratio (z) = 0.08644 0.10655
#
# Static dielectric constant tensor:
#      x y z
#    x 2.142960 0.000000 0.000000 
#    y 0.000000 2.222690 0.000000 
#    z 0.000000 0.000000 2.041430 
# 
# From -- ./inp_files/54317.got.cif
#   From: 2010.05.17/outbox.cif.g08.bks.cpg/sg70_28_cif.got.tgz:54317.got - 2010.06.03 15:57:51.
