data_PCOD9514714
_publ_section_title
;
Structure prediction by ZEFSAII (Michael W. Deem and Ramdas Pophale) SiO2 
 PCOD9514714
Probable space group: F D D D
;
_chemical_formula_sum "Si O2"
_cell_formula_units_Z 192
_cell_length_a 15.514736
_cell_length_b 25.230074
_cell_length_c 25.481717
_cell_angle_alpha 90.000000
_cell_angle_beta 90.000000
_cell_angle_gamma 90.000000
_cell_volume 9974.510743
_symmetry_space_group_name_H-M "F D D D"
_symmetry_group_IT_number 70
_space_group.IT_coordinate_system_code '2'
_symmetry_cell_setting 'orthorhombic'
loop_
_space_group_symop_operation_xyz
x,y,z
1/4-x,1/4-y,z
x,1/4-y,1/4-z
1/4-x,y,1/4-z
-x,-y,-z
3/4+x,3/4+y,-z
-x,3/4+y,3/4+z
3/4+x,-y,3/4+z
x,1/2+y,1/2+z
1/4-x,3/4-y,1/2+z
x,3/4-y,3/4-z
1/4-x,1/2+y,3/4-z
-x,1/2-y,1/2-z
3/4+x,1/4+y,1/2-z
-x,1/4+y,1/4+z
3/4+x,1/2-y,1/4+z
1/2+x,y,1/2+z
3/4-x,1/4-y,1/2+z
1/2+x,1/4-y,3/4-z
3/4-x,y,3/4-z
1/2-x,-y,1/2-z
1/4+x,3/4+y,1/2-z
1/2-x,3/4+y,1/4+z
1/4+x,-y,1/4+z
1/2+x,1/2+y,z
3/4-x,3/4-y,z
1/2+x,3/4-y,1/4-z
3/4-x,1/2+y,1/4-z
1/2-x,1/2-y,-z
1/4+x,1/4+y,-z
1/2-x,1/4+y,3/4+z
1/4+x,1/2-y,3/4+z
loop_
_atom_site_type_symbol
_atom_site_label
_atom_site_fract_x
_atom_site_fract_y
_atom_site_fract_z
Si Si1 0.168408 0.768399 0.967154
Si Si2 0.804376 0.968625 0.615101
Si Si3 0.375000 0.664633 0.375000
Si Si4 0.110524 0.924123 0.917402
Si Si5 0.875000 0.375000 0.188405
Si Si6 0.279611 0.937411 0.878251
Si Si7 0.690350 0.889052 0.018933
O O1 0.108167 0.724977 0.938846
O O2 0.218931 0.796589 0.919678
O O3 0.250000 0.750000 0.000000
O O4 0.107638 0.808043 0.999385
O O5 0.706622 0.950109 0.608702
O O6 0.848401 0.924240 0.651587
O O7 0.810161 0.025696 0.643752
O O8 0.348329 0.629683 0.425338
O O9 0.104971 0.875000 0.875000
O O10 0.210656 0.943487 0.925083
O O11 0.076602 0.903274 0.972695
O O12 0.792554 0.357381 0.222140
O O13 0.292690 0.875000 0.875000
O O14 0.375000 0.962666 0.875000
#
# Coordination Sequence:
#
# PCOD9514714 Si02
#       7
#    32  32  16  32  16  32  32
#     4  11  24  38  67 101 131 172 221 278 339 401
#     4  10  23  45  65  95 133 169 227 268 337 401
#     4  10  26  42  65  94 136 179 212 276 340 404
#     4  10  19  42  67  92 126 165 220 277 316 385
#     4  10  26  42  65  94 136 183 208 278 342 406
#     4   9  17  35  58  89 124 158 202 260 320 377
#     4  11  23  45  65  96 133 171 225 271 336 406
#
# _framework density 19.249065000000002
#
# number of rings (size 3 to 8) (size 9 to 14) (size 15 to 20)
#    0.000    1.833    5.000    0.000    4.667    9.333 
#    0.000    0.000    0.000    0.000    0.000    0.000 
#    0.000    0.000    0.000    0.000    0.000    0.000 
#
# Total GULP energy -267365.899910 kJ/mol
# GULP energy per Si atom -5570.122915 kJ/mol
# Density = 1.920525 g / cm^3
# Si number density = 19.249065 Si / 1000 Ang^3
#
#
#
# Elastic Constant Matrix: (Units=GPa)
#
#
# Indices 1 2 3 4 5 6 
#
# 1 204.1815 42.6118 60.5843 0.0000 0.0000 0.0000
# 2 42.6118 63.4864 23.5205 0.0000 0.0000 0.0000
# 3 60.5843 23.5205 89.5357 0.0000 0.0000 0.0000
# 4 0.0000 0.0000 0.0000 19.5805 0.0000 0.0000
# 5 0.0000 0.0000 0.0000 0.0000 33.1867 0.0000
# 6 0.0000 0.0000 0.0000 0.0000 0.0000 15.9184
#
#
#
# Elastic Compliance Matrix: (Units=1/GPa)
#
#
# Indices 1 2 3 4 5 6 
#
# 1 0.006633 -0.003090 -0.003677 0.000000 0.000000 0.000000
# 2 -0.003090 0.018889 -0.002871 0.000000 0.000000 0.000000
# 3 -0.003677 -0.002871 0.014411 0.000000 0.000000 0.000000
# 4 0.000000 0.000000 0.000000 0.051071 0.000000 0.000000
# 5 0.000000 0.000000 0.000000 0.000000 0.030133 0.000000
# 6 0.000000 0.000000 0.000000 0.000000 0.000000 0.062820
#
#
# Mechanical properties :
#
#
# Convention : Reuss Voigt Hill
#
# Bulk Modulus (GPa) = 48.40881 67.84853 58.12867
# Shear Modulus (GPa) = 23.79597 29.10291 26.44944
#
# Velocity S-wave (km/s) = 3.51980 3.89255 3.71086
# Velocity P-wave (km/s) = 6.45925 7.45163 6.97312
#
# Compressibility (1/GPa) = 0.02065739
#
# Stress axis : x y z
#
# Youngs Moduli (GPa) = 150.75054 52.94029 69.39229
#
# Poissons Ratio (x) = 0.16360 0.25514
# Poissons Ratio (y) = 0.46585 0.19923
# Poissons Ratio (z) = 0.55427 0.15200
#
# Static dielectric constant tensor:
#      x y z
#    x 1.700100 0.000000 0.000000 
#    y 0.000000 1.686110 0.000000 
#    z 0.000000 0.000000 1.722120 
# 
# From -- ./inp_files/58665.got.cif
#   From: 2010.05.17/outbox.cif.g08.bks.cpg/sg70_30_cif.got.tgz:58665.got - 2010.06.03 15:57:51.
