data_PCOD9514158
_publ_section_title
;
Structure prediction by ZEFSAII (Michael W. Deem and Ramdas Pophale) SiO2 
 PCOD9514158
Probable space group: F D D D
;
_chemical_formula_sum "Si O2"
_cell_formula_units_Z 240
_cell_length_a 29.499200
_cell_length_b 21.669860
_cell_length_c 22.006515
_cell_angle_alpha 90.000000
_cell_angle_beta 90.000000
_cell_angle_gamma 90.000000
_cell_volume 14067.522422
_symmetry_space_group_name_H-M "F D D D"
_symmetry_group_IT_number 70
_space_group.IT_coordinate_system_code '2'
_symmetry_cell_setting 'orthorhombic'
loop_
_space_group_symop_operation_xyz
x,y,z
1/4-x,1/4-y,z
x,1/4-y,1/4-z
1/4-x,y,1/4-z
-x,-y,-z
3/4+x,3/4+y,-z
-x,3/4+y,3/4+z
3/4+x,-y,3/4+z
x,1/2+y,1/2+z
1/4-x,3/4-y,1/2+z
x,3/4-y,3/4-z
1/4-x,1/2+y,3/4-z
-x,1/2-y,1/2-z
3/4+x,1/4+y,1/2-z
-x,1/4+y,1/4+z
3/4+x,1/2-y,1/4+z
1/2+x,y,1/2+z
3/4-x,1/4-y,1/2+z
1/2+x,1/4-y,3/4-z
3/4-x,y,3/4-z
1/2-x,-y,1/2-z
1/4+x,3/4+y,1/2-z
1/2-x,3/4+y,1/4+z
1/4+x,-y,1/4+z
1/2+x,1/2+y,z
3/4-x,3/4-y,z
1/2+x,3/4-y,1/4-z
3/4-x,1/2+y,1/4-z
1/2-x,1/2-y,-z
1/4+x,1/4+y,-z
1/2-x,1/4+y,3/4+z
1/4+x,1/2-y,3/4+z
loop_
_atom_site_type_symbol
_atom_site_label
_atom_site_fract_x
_atom_site_fract_y
_atom_site_fract_z
Si Si1 0.249966 0.956848 0.308821
Si Si2 0.279432 0.582370 0.507346
Si Si3 0.642971 0.328153 0.820682
Si Si4 0.820672 0.753356 0.146348
Si Si5 0.820179 0.295742 0.215262
Si Si6 0.601179 0.710755 0.186159
Si Si7 0.125000 0.625000 0.372583
Si Si8 0.352635 0.607185 0.810167
O O1 0.222527 0.893743 0.299127
O O2 0.227810 0.998832 0.361248
O O3 0.301372 0.933668 0.313696
O O4 0.250000 0.000000 0.250000
O O5 0.309008 0.531395 0.541693
O O6 0.228344 0.562336 0.492908
O O7 0.306935 0.604350 0.448583
O O8 0.655308 0.375000 0.875000
O O9 0.602765 0.286577 0.850948
O O10 0.679886 0.275759 0.805223
O O11 0.629324 0.359871 0.755692
O O12 0.846682 0.817989 0.156813
O O13 0.862954 0.301751 0.261122
O O14 0.835821 0.341263 0.161917
O O15 0.625000 0.692872 0.125000
O O16 0.592759 0.784340 0.185570
O O17 0.375000 0.624011 0.875000
#
# Coordination Sequence:
#
# PCOD9514158 Si02
#       8
#    32  32  32  32  32  32  16  32
#     4  12  19  31  54  81 117 158 190 231 277 350
#     4  12  21  35  56  86 113 150 204 237 283 362
#     4  10  17  37  58  79 108 149 192 239 292 347
#     4  11  21  34  57  81 107 157 206 238 282 345
#     4  10  21  34  51  82 117 154 188 236 291 347
#     4  10  20  33  48  78 122 160 185 220 284 347
#     4  10  22  38  51  74 119 156 192 250 300 326
#     4  10  20  34  56  82 112 148 189 237 294 341
#
# _framework density 17.060573000000002
#
# number of rings (size 3 to 8) (size 9 to 14) (size 15 to 20)
#    0.000    1.333    4.000    4.400    0.000    0.000 
#    0.000    2.333    0.000    3.200    0.000    0.000 
#    0.000    0.000    0.000    0.000    0.000    0.000 
#
# Total GULP energy -334209.210947 kJ/mol
# GULP energy per Si atom -5570.153516 kJ/mol
# Density = 1.702174 g / cm^3
# Si number density = 17.060573 Si / 1000 Ang^3
#
#
#
# Elastic Constant Matrix: (Units=GPa)
#
#
# Indices 1 2 3 4 5 6 
#
# 1 100.3292 48.8981 32.7675 0.0000 0.0000 0.0000
# 2 48.8981 102.4182 35.7873 0.0000 0.0000 0.0000
# 3 32.7675 35.7873 62.5916 0.0000 0.0000 0.0000
# 4 0.0000 0.0000 0.0000 12.7123 0.0000 0.0000
# 5 0.0000 0.0000 0.0000 0.0000 19.3091 0.0000
# 6 0.0000 0.0000 0.0000 0.0000 0.0000 27.1773
#
#
#
# Elastic Compliance Matrix: (Units=1/GPa)
#
#
# Indices 1 2 3 4 5 6 
#
# 1 0.013875 -0.005106 -0.004344 0.000000 0.000000 0.000000
# 2 -0.005106 0.014081 -0.005378 0.000000 0.000000 0.000000
# 3 -0.004344 -0.005378 0.021325 0.000000 0.000000 0.000000
# 4 0.000000 0.000000 0.000000 0.078664 0.000000 0.000000
# 5 0.000000 0.000000 0.000000 0.000000 0.051789 0.000000
# 6 0.000000 0.000000 0.000000 0.000000 0.000000 0.036795
#
#
# Mechanical properties :
#
#
# Convention : Reuss Voigt Hill
#
# Bulk Modulus (GPa) = 50.95522 55.58275 53.26899
# Shear Modulus (GPa) = 19.78417 21.69881 20.74149
#
# Velocity S-wave (km/s) = 3.40905 3.57020 3.49055
# Velocity P-wave (km/s) = 6.74000 7.04595 6.89467
#
# Compressibility (1/GPa) = 0.01962507
#
# Stress axis : x y z
#
# Youngs Moduli (GPa) = 72.07393 71.01801 46.89236
#
# Poissons Ratio (x) = 0.36264 0.20370
# Poissons Ratio (y) = 0.36804 0.25217
# Poissons Ratio (z) = 0.31308 0.38191
#
# Static dielectric constant tensor:
#      x y z
#    x 1.641770 0.000000 0.000000 
#    y 0.000000 1.606690 0.000000 
#    z 0.000000 0.000000 1.607850 
# 
# From -- ./inp_files/54477.got.cif
#   From: 2010.05.17/outbox.cif.g08.bks.cpg/sg70_28_cif.got.tgz:54477.got - 2010.06.03 15:57:51.
