data_PCOD9514425
_publ_section_title
;
Structure prediction by ZEFSAII (Michael W. Deem and Ramdas Pophale) SiO2 
 PCOD9514425
Probable space group: F D D D
;
_chemical_formula_sum "Si O2"
_cell_formula_units_Z 208
_cell_length_a 20.117728
_cell_length_b 16.459876
_cell_length_c 26.624213
_cell_angle_alpha 90.000000
_cell_angle_beta 90.000000
_cell_angle_gamma 90.000000
_cell_volume 8816.216980
_symmetry_space_group_name_H-M "F D D D"
_symmetry_group_IT_number 70
_space_group.IT_coordinate_system_code '2'
_symmetry_cell_setting 'orthorhombic'
loop_
_space_group_symop_operation_xyz
x,y,z
1/4-x,1/4-y,z
x,1/4-y,1/4-z
1/4-x,y,1/4-z
-x,-y,-z
3/4+x,3/4+y,-z
-x,3/4+y,3/4+z
3/4+x,-y,3/4+z
x,1/2+y,1/2+z
1/4-x,3/4-y,1/2+z
x,3/4-y,3/4-z
1/4-x,1/2+y,3/4-z
-x,1/2-y,1/2-z
3/4+x,1/4+y,1/2-z
-x,1/4+y,1/4+z
3/4+x,1/2-y,1/4+z
1/2+x,y,1/2+z
3/4-x,1/4-y,1/2+z
1/2+x,1/4-y,3/4-z
3/4-x,y,3/4-z
1/2-x,-y,1/2-z
1/4+x,3/4+y,1/2-z
1/2-x,3/4+y,1/4+z
1/4+x,-y,1/4+z
1/2+x,1/2+y,z
3/4-x,3/4-y,z
1/2+x,3/4-y,1/4-z
3/4-x,1/2+y,1/4-z
1/2-x,1/2-y,-z
1/4+x,1/4+y,-z
1/2-x,1/4+y,3/4+z
1/4+x,1/2-y,3/4+z
loop_
_atom_site_type_symbol
_atom_site_label
_atom_site_fract_x
_atom_site_fract_y
_atom_site_fract_z
Si Si1 0.821753 0.301518 0.065706
Si Si2 0.375000 0.875000 0.495564
Si Si3 0.312536 0.271718 0.676113
Si Si4 0.716421 0.980894 0.829358
Si Si5 0.553294 0.947067 0.306426
Si Si6 0.974724 0.156018 0.494492
Si Si7 0.104134 0.462036 0.566844
O O1 0.875000 0.375000 0.070928
O O2 0.787336 0.292178 0.120434
O O3 0.868360 0.222830 0.055272
O O4 0.769896 0.330510 0.023191
O O5 0.315895 0.909220 0.531043
O O6 0.362237 0.799964 0.458906
O O7 0.391905 0.262641 0.670562
O O8 0.286098 0.186412 0.698434
O O9 0.725929 0.959588 0.887686
O O10 0.711517 0.897537 0.797444
O O11 0.774591 0.042349 0.815363
O O12 0.516278 0.015877 0.275415
O O13 0.904075 0.155515 0.465068
O O14 0.125000 0.459360 0.625000
#
# Coordination Sequence:
#
# PCOD9514425 Si02
#       7
#    32  16  32  32  32  32  32
#     4   9  18  36  58  77 112 157 209 252 300 372
#     4  10  21  28  44  72 110 154 190 230 288 363
#     4  10  20  34  52  81 113 153 208 255 305 368
#     4  10  19  32  52  78 114 152 197 243 306 381
#     4   9  18  33  55  77 106 155 201 240 300 370
#     4  10  20  34  53  81 110 159 206 242 313 373
#     4  11  20  30  48  75 117 158 185 234 304 385
#
# _framework density 23.592886
#
# number of rings (size 3 to 8) (size 9 to 14) (size 15 to 20)
#    0.000    2.154    2.308    2.077    2.154    2.462 
#    0.000    3.846    0.000    0.000    0.000    0.000 
#    0.000    0.000    0.000    0.000    1.231    0.000 
#
# Total GULP energy -290023.110295 kJ/mol
# GULP energy per Si atom -5577.367506 kJ/mol
# Density = 2.353919 g / cm^3
# Si number density = 23.592886 Si / 1000 Ang^3
#
#
#
# Elastic Constant Matrix: (Units=GPa)
#
#
# Indices 1 2 3 4 5 6 
#
# 1 88.2796 22.1863 16.0312 0.0000 0.0000 0.0000
# 2 22.1863 62.5105 27.3321 0.0000 0.0000 0.0000
# 3 16.0312 27.3321 75.0580 0.0000 0.0000 0.0000
# 4 0.0000 0.0000 0.0000 29.8626 0.0000 0.0000
# 5 0.0000 0.0000 0.0000 0.0000 22.5809 0.0000
# 6 0.0000 0.0000 0.0000 0.0000 0.0000 31.8447
#
#
#
# Elastic Compliance Matrix: (Units=1/GPa)
#
#
# Indices 1 2 3 4 5 6 
#
# 1 0.012536 -0.003899 -0.001258 0.000000 0.000000 0.000000
# 2 -0.003899 0.020240 -0.006537 0.000000 0.000000 0.000000
# 3 -0.001258 -0.006537 0.015972 0.000000 0.000000 0.000000
# 4 0.000000 0.000000 0.000000 0.033487 0.000000 0.000000
# 5 0.000000 0.000000 0.000000 0.000000 0.044285 0.000000
# 6 0.000000 0.000000 0.000000 0.000000 0.000000 0.031402
#
#
# Mechanical properties :
#
#
# Convention : Reuss Voigt Hill
#
# Bulk Modulus (GPa) = 39.43339 39.66081 39.54710
# Shear Modulus (GPa) = 26.34854 27.54422 26.94638
#
# Velocity S-wave (km/s) = 3.34548 3.42055 3.38322
# Velocity P-wave (km/s) = 5.62791 5.69624 5.66218
#
# Compressibility (1/GPa) = 0.02535922
#
# Stress axis : x y z
#
# Youngs Moduli (GPa) = 79.77019 49.40787 62.60893
#
# Poissons Ratio (x) = 0.19266 0.07873
# Poissons Ratio (y) = 0.31106 0.40930
# Poissons Ratio (z) = 0.10031 0.32300
#
# Static dielectric constant tensor:
#      x y z
#    x 1.968170 0.000000 0.000000 
#    y 0.000000 1.987650 0.000000 
#    z 0.000000 0.000000 1.991380 
# 
# From -- ./inp_files/67311.got.cif
#   From: 2010.05.17/outbox.cif.g08.bks.cpg/sg70_34_cif.got.tgz:67311.got - 2010.06.03 15:57:51.
