data_PCOD9514506
_publ_section_title
;
Structure prediction by ZEFSAII (Michael W. Deem and Ramdas Pophale) SiO2 
 PCOD9514506
Probable space group: F D D D
;
_chemical_formula_sum "Si O2"
_cell_formula_units_Z 96
_cell_length_a 15.030629
_cell_length_b 22.471595
_cell_length_c 11.689190
_cell_angle_alpha 90.000000
_cell_angle_beta 90.000000
_cell_angle_gamma 90.000000
_cell_volume 3948.166618
_symmetry_space_group_name_H-M "F D D D"
_symmetry_group_IT_number 70
_space_group.IT_coordinate_system_code '2'
_symmetry_cell_setting 'orthorhombic'
loop_
_space_group_symop_operation_xyz
x,y,z
1/4-x,1/4-y,z
x,1/4-y,1/4-z
1/4-x,y,1/4-z
-x,-y,-z
3/4+x,3/4+y,-z
-x,3/4+y,3/4+z
3/4+x,-y,3/4+z
x,1/2+y,1/2+z
1/4-x,3/4-y,1/2+z
x,3/4-y,3/4-z
1/4-x,1/2+y,3/4-z
-x,1/2-y,1/2-z
3/4+x,1/4+y,1/2-z
-x,1/4+y,1/4+z
3/4+x,1/2-y,1/4+z
1/2+x,y,1/2+z
3/4-x,1/4-y,1/2+z
1/2+x,1/4-y,3/4-z
3/4-x,y,3/4-z
1/2-x,-y,1/2-z
1/4+x,3/4+y,1/2-z
1/2-x,3/4+y,1/4+z
1/4+x,-y,1/4+z
1/2+x,1/2+y,z
3/4-x,3/4-y,z
1/2+x,3/4-y,1/4-z
3/4-x,1/2+y,1/4-z
1/2-x,1/2-y,-z
1/4+x,1/4+y,-z
1/2-x,1/4+y,3/4+z
1/4+x,1/2-y,3/4+z
loop_
_atom_site_type_symbol
_atom_site_label
_atom_site_fract_x
_atom_site_fract_y
_atom_site_fract_z
Si Si1 0.861442 0.062749 0.058666
Si Si2 0.563055 0.499387 0.728365
Si Si3 0.976025 0.875999 0.014214
O O1 0.846627 0.125000 0.125000
O O2 0.885634 0.013772 0.154493
O O3 0.947738 0.176816 0.271026
O O4 0.769552 0.042712 0.004798
O O5 0.625000 0.520191 0.625000
O O6 0.523064 0.434505 0.695733
O O7 0.965937 0.875000 0.875000
O O8 0.875000 0.875000 0.059975
#
# Coordination Sequence:
#
# PCOD9514506 Si02
#       3
#    32  32  32
#     4   9  20  37  58  81 116 153 188 239 288 338
#     4  10  19  35  55  83 115 150 193 237 283 347
#     4   8  17  36  56  76 111 145 186 235 281 333
#
# _framework density 24.315083999999999
#
# number of rings (size 3 to 8) (size 9 to 14) (size 15 to 20)
#    0.000    3.667    0.000    1.000    0.000    2.000 
#   12.000    0.000    7.333    0.000    0.000    0.000 
#    0.000    0.000    0.000    0.000    0.000    0.000 
#
# Total GULP energy -133971.093104 kJ/mol
# GULP energy per Si atom -5582.128879 kJ/mol
# Density = 2.425974 g / cm^3
# Si number density = 24.315084 Si / 1000 Ang^3
#
#
#
# Elastic Constant Matrix: (Units=GPa)
#
#
# Indices 1 2 3 4 5 6 
#
# 1 152.4620 37.3219 71.2617 0.0000 0.0000 0.0000
# 2 37.3219 53.4034 41.7984 0.0000 0.0000 0.0000
# 3 71.2617 41.7984 94.9370 0.0000 0.0000 0.0000
# 4 0.0000 0.0000 0.0000 18.8826 0.0000 0.0000
# 5 0.0000 0.0000 0.0000 0.0000 -6.3737 0.0000
# 6 0.0000 0.0000 0.0000 0.0000 0.0000 32.2705
#
#
#
# Elastic Compliance Matrix: (Units=1/GPa)
#
#
# Indices 1 2 3 4 5 6 
#
# 1 0.010208 -0.001735 -0.006899 0.000000 0.000000 0.000000
# 2 -0.001735 0.028866 -0.011407 0.000000 0.000000 0.000000
# 3 -0.006899 -0.011407 0.020734 0.000000 0.000000 0.000000
# 4 0.000000 0.000000 0.000000 0.052959 0.000000 0.000000
# 5 0.000000 0.000000 0.000000 0.000000 -0.156895 0.000000
# 6 0.000000 0.000000 0.000000 0.000000 0.000000 0.030988
#
#
# Mechanical properties :
#
#
# Convention : Reuss Voigt Hill
#
# Bulk Modulus (GPa) = 50.69116 66.84073 58.76594
# Shear Modulus (GPa) = 149.18566 18.98390 84.08478
#
# Velocity S-wave (km/s) = 7.84145 2.79721 5.88697
# Velocity P-wave (km/s) = 10.14285 6.16292 8.39223
#
# Compressibility (1/GPa) = 0.01972731
#
# Stress axis : x y z
#
# Youngs Moduli (GPa) = 97.96088 34.64320 48.23035
#
# Poissons Ratio (x) = 0.06009 0.33273
# Poissons Ratio (y) = 0.16992 0.55016
# Poissons Ratio (z) = 0.67581 0.39517
#
# Static dielectric constant tensor:
#      x y z
#    x 1.949230 0.000000 0.000000 
#    y 0.000000 1.967820 0.000000 
#    z 0.000000 0.000000 1.989250 
# 
# From -- ./inp_files/16024.got.cif
#   From: 2010.05.17/outbox.cif.g08.bks.cpg/sg70_9_cif.got.tgz:16024.got - 2010.06.03 15:57:51.
