data_PCOD9514671
_publ_section_title
;
Structure prediction by ZEFSAII (Michael W. Deem and Ramdas Pophale) SiO2 
 PCOD9514671
Probable space group: F D D D
;
_chemical_formula_sum "Si O2"
_cell_formula_units_Z 200
_cell_length_a 24.536681
_cell_length_b 17.458767
_cell_length_c 25.069898
_cell_angle_alpha 90.000000
_cell_angle_beta 90.000000
_cell_angle_gamma 90.000000
_cell_volume 10739.447832
_symmetry_space_group_name_H-M "F D D D"
_symmetry_group_IT_number 70
_space_group.IT_coordinate_system_code '2'
_symmetry_cell_setting 'orthorhombic'
loop_
_space_group_symop_operation_xyz
x,y,z
1/4-x,1/4-y,z
x,1/4-y,1/4-z
1/4-x,y,1/4-z
-x,-y,-z
3/4+x,3/4+y,-z
-x,3/4+y,3/4+z
3/4+x,-y,3/4+z
x,1/2+y,1/2+z
1/4-x,3/4-y,1/2+z
x,3/4-y,3/4-z
1/4-x,1/2+y,3/4-z
-x,1/2-y,1/2-z
3/4+x,1/4+y,1/2-z
-x,1/4+y,1/4+z
3/4+x,1/2-y,1/4+z
1/2+x,y,1/2+z
3/4-x,1/4-y,1/2+z
1/2+x,1/4-y,3/4-z
3/4-x,y,3/4-z
1/2-x,-y,1/2-z
1/4+x,3/4+y,1/2-z
1/2-x,3/4+y,1/4+z
1/4+x,-y,1/4+z
1/2+x,1/2+y,z
3/4-x,3/4-y,z
1/2+x,3/4-y,1/4-z
3/4-x,1/2+y,1/4-z
1/2-x,1/2-y,-z
1/4+x,1/4+y,-z
1/2-x,1/4+y,3/4+z
1/4+x,1/2-y,3/4+z
loop_
_atom_site_type_symbol
_atom_site_label
_atom_site_fract_x
_atom_site_fract_y
_atom_site_fract_z
Si Si1 0.163220 0.375000 0.375000
Si Si2 0.561179 0.699006 0.720170
Si Si3 0.309988 0.079426 0.858588
Si Si4 0.104620 0.756947 0.940640
Si Si5 0.783445 0.481339 0.570196
Si Si6 0.495289 0.186962 0.969382
Si Si7 0.125000 0.625000 0.855284
Si Si8 0.125000 0.625000 0.125000
O O1 0.125492 0.410409 0.328415
O O2 0.199463 0.447860 0.391265
O O3 0.540673 0.776689 0.692445
O O4 0.605906 0.725036 0.763175
O O5 0.525464 0.632556 0.747440
O O6 0.587254 0.667480 0.666262
O O7 0.375000 0.079694 0.875000
O O8 0.275378 0.048149 0.909002
O O9 0.286511 0.158633 0.833422
O O10 0.042712 0.748239 0.957558
O O11 0.108659 0.695840 0.892707
O O12 0.790370 0.519818 0.512917
O O13 0.823790 0.409396 0.574585
#
# Coordination Sequence:
#
# PCOD9514671 Si02
#       8
#    16  32  32  32  32  32  16   8
#     4  10  22  37  61  86 117 152 214 253 298 362
#     4  12  20  34  56  91 127 160 194 239 314 390
#     4  12  24  37  57  91 131 165 198 247 313 379
#     4  11  19  38  60  85 117 161 200 253 302 363
#     4  11  22  38  59  88 121 160 201 252 303 369
#     4  12  21  36  60  86 122 160 205 250 313 369
#     4  10  19  40  60  79 113 162 200 247 304 356
#     4  12  18  30  52  88 128 164 184 234 304 396
#
# _framework density 18.622931999999999
#
# number of rings (size 3 to 8) (size 9 to 14) (size 15 to 20)
#    0.000    0.640    5.600    5.280    0.000    0.000 
#    0.000    0.000    3.520    2.880    0.000    0.000 
#    0.000    0.000    0.000    0.000    0.000    0.000 
#
# Total GULP energy -278344.635278 kJ/mol
# GULP energy per Si atom -5566.892706 kJ/mol
# Density = 1.858055 g / cm^3
# Si number density = 18.622932 Si / 1000 Ang^3
#
#
#
# Elastic Constant Matrix: (Units=GPa)
#
#
# Indices 1 2 3 4 5 6 
#
# 1 63.0439 42.8581 25.6710 0.0000 0.0000 0.0000
# 2 42.8581 63.1043 34.7059 0.0000 0.0000 0.0000
# 3 25.6710 34.7059 67.7471 0.0000 0.0000 0.0000
# 4 0.0000 0.0000 0.0000 -81.0435 0.0000 0.0000
# 5 0.0000 0.0000 0.0000 0.0000 131.0863 0.0000
# 6 0.0000 0.0000 0.0000 0.0000 0.0000 16.4981
#
#
#
# Elastic Compliance Matrix: (Units=1/GPa)
#
#
# Indices 1 2 3 4 5 6 
#
# 1 0.029546 -0.019365 -0.001275 0.000000 0.000000 0.000000
# 2 -0.019365 0.034755 -0.010467 0.000000 0.000000 0.000000
# 3 -0.001275 -0.010467 0.020606 0.000000 0.000000 0.000000
# 4 0.000000 0.000000 0.000000 -0.012339 0.000000 0.000000
# 5 0.000000 0.000000 0.000000 0.000000 0.007629 0.000000
# 6 0.000000 0.000000 0.000000 0.000000 0.000000 0.060613
#
#
# Mechanical properties :
#
#
# Convention : Reuss Voigt Hill
#
# Bulk Modulus (GPa) = 44.06635 44.48502 44.27569
# Shear Modulus (GPa) = 23.74300 19.35221 21.54761
#
# Velocity S-wave (km/s) = 3.57449 3.22710 3.40523
# Velocity P-wave (km/s) = 6.38356 6.15017 6.26795
#
# Compressibility (1/GPa) = 0.02269305
#
# Stress axis : x y z
#
# Youngs Moduli (GPa) = 33.84565 28.77249 48.52969
#
# Poissons Ratio (x) = 0.55719 0.06188
# Poissons Ratio (y) = 0.65543 0.50795
# Poissons Ratio (z) = 0.04316 0.30116
#
# Static dielectric constant tensor:
#      x y z
#    x 1.606020 0.000000 0.000000 
#    y 0.000000 1.727290 0.000000 
#    z 0.000000 0.000000 1.681800 
# 
# From -- ./inp_files/46987.got.cif
#   From: 2010.05.17/outbox.cif.g08.bks.cpg/sg70_24_cif.got.tgz:46987.got - 2010.06.03 15:57:51.
