data_PCOD9514563
_publ_section_title
;
Structure prediction by ZEFSAII (Michael W. Deem and Ramdas Pophale) SiO2 
 PCOD9514563
Probable space group: F D D D
;
_chemical_formula_sum "Si O2"
_cell_formula_units_Z 160
_cell_length_a 20.738384
_cell_length_b 13.169284
_cell_length_c 28.919393
_cell_angle_alpha 90.000000
_cell_angle_beta 90.000000
_cell_angle_gamma 90.000000
_cell_volume 7898.165838
_symmetry_space_group_name_H-M "F D D D"
_symmetry_group_IT_number 70
_space_group.IT_coordinate_system_code '2'
_symmetry_cell_setting 'orthorhombic'
loop_
_space_group_symop_operation_xyz
x,y,z
1/4-x,1/4-y,z
x,1/4-y,1/4-z
1/4-x,y,1/4-z
-x,-y,-z
3/4+x,3/4+y,-z
-x,3/4+y,3/4+z
3/4+x,-y,3/4+z
x,1/2+y,1/2+z
1/4-x,3/4-y,1/2+z
x,3/4-y,3/4-z
1/4-x,1/2+y,3/4-z
-x,1/2-y,1/2-z
3/4+x,1/4+y,1/2-z
-x,1/4+y,1/4+z
3/4+x,1/2-y,1/4+z
1/2+x,y,1/2+z
3/4-x,1/4-y,1/2+z
1/2+x,1/4-y,3/4-z
3/4-x,y,3/4-z
1/2-x,-y,1/2-z
1/4+x,3/4+y,1/2-z
1/2-x,3/4+y,1/4+z
1/4+x,-y,1/4+z
1/2+x,1/2+y,z
3/4-x,3/4-y,z
1/2+x,3/4-y,1/4-z
3/4-x,1/2+y,1/4-z
1/2-x,1/2-y,-z
1/4+x,1/4+y,-z
1/2-x,1/4+y,3/4+z
1/4+x,1/2-y,3/4+z
loop_
_atom_site_type_symbol
_atom_site_label
_atom_site_fract_x
_atom_site_fract_y
_atom_site_fract_z
Si Si1 0.918261 0.776827 0.138515
Si Si2 0.932374 0.995241 0.973044
Si Si3 0.695686 0.878916 0.119874
Si Si4 0.480677 0.314923 0.923325
Si Si5 0.621278 0.860138 0.305250
O O1 0.875000 0.875000 0.150124
O O2 0.921951 0.698041 0.181352
O O3 0.879979 0.721061 0.096685
O O4 0.989673 0.804669 0.120949
O O5 0.940546 0.063956 0.927307
O O6 0.881371 0.047213 0.007875
O O7 0.935774 0.877620 0.957550
O O8 0.000000 0.000000 0.000000
O O9 0.625000 0.928752 0.125000
O O10 0.707459 0.797242 0.161190
O O11 0.477276 0.375000 0.875000
O O12 0.553604 0.329213 0.940305
#
# Coordination Sequence:
#
# PCOD9514563 Si02
#       5
#    32  32  32  32  32
#     4  11  19  37  65  88 128 175 225 261 328 403
#     4   9  19  36  59  94 129 153 216 280 336 387
#     4  11  23  39  57  94 135 178 200 263 353 407
#     4   9  15  33  57  87 125 154 199 270 343 384
#     4  10  19  36  61  94 116 167 230 279 308 382
#
# _framework density 20.257867999999998
#
# number of rings (size 3 to 8) (size 9 to 14) (size 15 to 20)
#    0.000    2.000    4.000    2.400    0.000    3.600 
#   14.400    3.000    0.000    2.400    0.000    0.000 
#    0.000    0.000    0.000    0.000    0.000    0.000 
#
# Total GULP energy -222816.590857 kJ/mol
# GULP energy per Si atom -5570.414771 kJ/mol
# Density = 2.021176 g / cm^3
# Si number density = 20.257868 Si / 1000 Ang^3
#
#
#
# Elastic Constant Matrix: (Units=GPa)
#
#
# Indices 1 2 3 4 5 6 
#
# 1 109.9846 11.9762 13.1334 0.0000 0.0000 0.0000
# 2 11.9762 76.6997 35.3400 0.0000 0.0000 0.0000
# 3 13.1334 35.3400 92.7113 0.0000 0.0000 0.0000
# 4 0.0000 0.0000 0.0000 36.6959 0.0000 0.0000
# 5 0.0000 0.0000 0.0000 0.0000 15.1394 0.0000
# 6 0.0000 0.0000 0.0000 0.0000 0.0000 11.6618
#
#
#
# Elastic Compliance Matrix: (Units=1/GPa)
#
#
# Indices 1 2 3 4 5 6 
#
# 1 0.009315 -0.001027 -0.000928 0.000000 0.000000 0.000000
# 2 -0.001027 0.015929 -0.005926 0.000000 0.000000 0.000000
# 3 -0.000928 -0.005926 0.013177 0.000000 0.000000 0.000000
# 4 0.000000 0.000000 0.000000 0.027251 0.000000 0.000000
# 5 0.000000 0.000000 0.000000 0.000000 0.066053 0.000000
# 6 0.000000 0.000000 0.000000 0.000000 0.000000 0.085750
#
#
# Mechanical properties :
#
#
# Convention : Reuss Voigt Hill
#
# Bulk Modulus (GPa) = 44.13501 44.47719 44.30610
# Shear Modulus (GPa) = 20.76503 27.29581 24.03042
#
# Velocity S-wave (km/s) = 3.20509 3.67470 3.44790
# Velocity P-wave (km/s) = 5.96076 6.32517 6.14567
#
# Compressibility (1/GPa) = 0.02265775
#
# Stress axis : x y z
#
# Youngs Moduli (GPa) = 107.35577 62.77941 75.89174
#
# Poissons Ratio (x) = 0.06446 0.07044
# Poissons Ratio (y) = 0.11023 0.44976
# Poissons Ratio (z) = 0.09964 0.37205
#
# Static dielectric constant tensor:
#      x y z
#    x 1.750650 0.000000 0.000000 
#    y 0.000000 1.761020 0.000000 
#    z 0.000000 0.000000 1.758690 
# 
# From -- ./inp_files/67702.got.cif
#   From: 2010.05.17/outbox.cif.g08.bks.cpg/sg70_34_cif.got.tgz:67702.got - 2010.06.03 15:57:51.
