data_PCOD9514535
_publ_section_title
;
Structure prediction by ZEFSAII (Michael W. Deem and Ramdas Pophale) SiO2 
 PCOD9514535
Probable space group: F D D D
;
_chemical_formula_sum "Si O2"
_cell_formula_units_Z 192
_cell_length_a 12.024743
_cell_length_b 29.060745
_cell_length_c 22.276857
_cell_angle_alpha 90.000000
_cell_angle_beta 90.000000
_cell_angle_gamma 90.000000
_cell_volume 7784.602902
_symmetry_space_group_name_H-M "F D D D"
_symmetry_group_IT_number 70
_space_group.IT_coordinate_system_code '2'
_symmetry_cell_setting 'orthorhombic'
loop_
_space_group_symop_operation_xyz
x,y,z
1/4-x,1/4-y,z
x,1/4-y,1/4-z
1/4-x,y,1/4-z
-x,-y,-z
3/4+x,3/4+y,-z
-x,3/4+y,3/4+z
3/4+x,-y,3/4+z
x,1/2+y,1/2+z
1/4-x,3/4-y,1/2+z
x,3/4-y,3/4-z
1/4-x,1/2+y,3/4-z
-x,1/2-y,1/2-z
3/4+x,1/4+y,1/2-z
-x,1/4+y,1/4+z
3/4+x,1/2-y,1/4+z
1/2+x,y,1/2+z
3/4-x,1/4-y,1/2+z
1/2+x,1/4-y,3/4-z
3/4-x,y,3/4-z
1/2-x,-y,1/2-z
1/4+x,3/4+y,1/2-z
1/2-x,3/4+y,1/4+z
1/4+x,-y,1/4+z
1/2+x,1/2+y,z
3/4-x,3/4-y,z
1/2+x,3/4-y,1/4-z
3/4-x,1/2+y,1/4-z
1/2-x,1/2-y,-z
1/4+x,1/4+y,-z
1/2-x,1/4+y,3/4+z
1/4+x,1/2-y,3/4+z
loop_
_atom_site_type_symbol
_atom_site_label
_atom_site_fract_x
_atom_site_fract_y
_atom_site_fract_z
Si Si1 0.182776 0.801811 0.043854
Si Si2 0.378115 0.786507 0.440127
Si Si3 0.881134 0.013099 0.053427
Si Si4 0.875000 0.875000 0.375000
Si Si5 0.094796 0.576107 0.364346
Si Si6 0.125000 0.371480 0.125000
Si Si7 0.625000 0.125000 0.625000
Si Si8 0.494081 0.205787 0.166383
O O1 0.309959 0.817020 0.063968
O O2 0.103218 0.840092 0.072774
O O3 0.180354 0.750461 0.070647
O O4 0.164347 0.796197 0.973546
O O5 0.375000 0.762652 0.375000
O O6 0.425636 0.754404 0.492251
O O7 0.247016 0.789695 0.458470
O O8 0.426165 0.836768 0.421331
O O9 0.810810 0.041444 0.101262
O O10 0.903299 0.966117 0.090507
O O11 0.807610 0.908469 0.332596
O O12 0.125000 0.625000 0.394747
O O13 0.969163 0.588759 0.347245
#
# Coordination Sequence:
#
# PCOD9514535 Si02
#       8
#    32  32  32   8  32  16   8  32
#     4   9  20  44  63  94 141 182 237 292 363 435
#     4   9  21  42  65  95 131 173 223 282 351 420
#     4  10  21  43  62  95 133 176 227 278 361 429
#     4  12  26  42  68 102 132 180 240 296 338 420
#     4   9  20  35  62  95 134 173 232 297 344 426
#     4  10  19  35  64 103 124 185 238 295 365 410
#     4   8  20  40  64  98 130 174 216 280 362 400
#     4  10  23  44  65  93 135 187 233 291 358 423
#
# _framework density 24.664072000000001
#
# number of rings (size 3 to 8) (size 9 to 14) (size 15 to 20)
#    0.500    2.000    0.000    0.500    5.833    0.667 
#   27.000    0.000    0.000    0.000    0.000    0.000 
#    0.000    0.000    0.000    0.000    0.000    0.000 
#
# Total GULP energy -267326.145353 kJ/mol
# GULP energy per Si atom -5569.294695 kJ/mol
# Density = 2.460794 g / cm^3
# Si number density = 24.664072 Si / 1000 Ang^3
#
#
#
# Elastic Constant Matrix: (Units=GPa)
#
#
# Indices 1 2 3 4 5 6 
#
# 1 74.7901 31.3873 20.2812 0.0000 0.0000 0.0000
# 2 31.3873 143.4577 19.9064 0.0000 0.0000 0.0000
# 3 20.2812 19.9064 153.0562 0.0000 0.0000 0.0000
# 4 0.0000 0.0000 0.0000 46.0893 0.0000 0.0000
# 5 0.0000 0.0000 0.0000 0.0000 26.1127 0.0000
# 6 0.0000 0.0000 0.0000 0.0000 0.0000 13.7526
#
#
#
# Elastic Compliance Matrix: (Units=1/GPa)
#
#
# Indices 1 2 3 4 5 6 
#
# 1 0.015098 -0.003081 -0.001600 0.000000 0.000000 0.000000
# 2 -0.003081 0.007728 -0.000597 0.000000 0.000000 0.000000
# 3 -0.001600 -0.000597 0.006823 0.000000 0.000000 0.000000
# 4 0.000000 0.000000 0.000000 0.021697 0.000000 0.000000
# 5 0.000000 0.000000 0.000000 0.000000 0.038296 0.000000
# 6 0.000000 0.000000 0.000000 0.000000 0.000000 0.072714
#
#
# Mechanical properties :
#
#
# Convention : Reuss Voigt Hill
#
# Bulk Modulus (GPa) = 52.37569 57.16153 54.76861
# Shear Modulus (GPa) = 27.89017 37.17286 32.53151
#
# Velocity S-wave (km/s) = 3.36639 3.88644 3.63572
# Velocity P-wave (km/s) = 6.03256 6.58525 6.31496
#
# Compressibility (1/GPa) = 0.01909283
#
# Stress axis : x y z
#
# Youngs Moduli (GPa) = 66.23530 129.40542 146.55981
#
# Poissons Ratio (x) = 0.39873 0.23447
# Poissons Ratio (y) = 0.20409 0.08746
# Poissons Ratio (z) = 0.10596 0.07722
#
# Static dielectric constant tensor:
#      x y z
#    x 2.229040 0.000000 0.000000 
#    y 0.000000 1.920670 0.000000 
#    z 0.000000 0.000000 2.008850 
# 
# From -- ./inp_files/51593.got.cif
#   From: 2010.05.17/outbox.cif.g08.bks.cpg/sg70_26_cif.got.tgz:51593.got - 2010.06.03 15:57:51.
