data_PCOD9514893
_publ_section_title
;
Structure prediction by ZEFSAII (Michael W. Deem and Ramdas Pophale) SiO2 
 PCOD9514893
Probable space group: F D D D
;
_chemical_formula_sum "Si O2"
_cell_formula_units_Z 176
_cell_length_a 30.378466
_cell_length_b 22.586957
_cell_length_c 12.556920
_cell_angle_alpha 90.000000
_cell_angle_beta 90.000000
_cell_angle_gamma 90.000000
_cell_volume 8616.019878
_symmetry_space_group_name_H-M "F D D D"
_symmetry_group_IT_number 70
_space_group.IT_coordinate_system_code '2'
_symmetry_cell_setting 'orthorhombic'
loop_
_space_group_symop_operation_xyz
x,y,z
1/4-x,1/4-y,z
x,1/4-y,1/4-z
1/4-x,y,1/4-z
-x,-y,-z
3/4+x,3/4+y,-z
-x,3/4+y,3/4+z
3/4+x,-y,3/4+z
x,1/2+y,1/2+z
1/4-x,3/4-y,1/2+z
x,3/4-y,3/4-z
1/4-x,1/2+y,3/4-z
-x,1/2-y,1/2-z
3/4+x,1/4+y,1/2-z
-x,1/4+y,1/4+z
3/4+x,1/2-y,1/4+z
1/2+x,y,1/2+z
3/4-x,1/4-y,1/2+z
1/2+x,1/4-y,3/4-z
3/4-x,y,3/4-z
1/2-x,-y,1/2-z
1/4+x,3/4+y,1/2-z
1/2-x,3/4+y,1/4+z
1/4+x,-y,1/4+z
1/2+x,1/2+y,z
3/4-x,3/4-y,z
1/2+x,3/4-y,1/4-z
3/4-x,1/2+y,1/4-z
1/2-x,1/2-y,-z
1/4+x,1/4+y,-z
1/2-x,1/4+y,3/4+z
1/4+x,1/2-y,3/4+z
loop_
_atom_site_type_symbol
_atom_site_label
_atom_site_fract_x
_atom_site_fract_y
_atom_site_fract_z
Si Si1 0.060322 0.962860 0.080129
Si Si2 0.646516 0.064843 0.807524
Si Si3 0.875000 0.137826 0.875000
Si Si4 0.554443 0.515590 0.315320
Si Si5 0.199986 0.332316 0.470733
Si Si6 0.517288 0.613917 0.885506
O O1 0.093872 0.908431 0.061493
O O2 0.012799 0.934652 0.055170
O O3 0.058123 0.980460 0.204886
O O4 0.079261 0.020408 0.022602
O O5 0.625000 0.125000 0.759136
O O6 0.604077 0.031340 0.851377
O O7 0.684980 0.085769 0.886999
O O8 0.908849 0.173708 0.801357
O O9 0.534955 0.476395 0.409806
O O10 0.527768 0.576324 0.299068
O O11 0.184893 0.375000 0.375000
O O12 0.239415 0.363675 0.534806
#
# Coordination Sequence:
#
# PCOD9514893 Si02
#       6
#    32  32  16  32  32  32
#     4  11  19  40  63  92 126 164 210 266 325 384
#     4  10  21  38  62  96 127 162 210 265 324 381
#     4  10  20  36  65  94 115 164 212 260 316 378
#     4  11  21  39  65  88 123 172 205 259 322 384
#     4  11  20  41  65  87 126 170 212 259 323 380
#     4  10  23  36  60  93 126 159 212 254 317 384
#
# _framework density 20.427064999999999
#
# number of rings (size 3 to 8) (size 9 to 14) (size 15 to 20)
#    0.000    1.455    5.455    1.091    0.000    5.091 
#    6.545    0.000    0.000    3.818    0.000    0.000 
#    0.000    0.000    0.000    0.000    0.000    0.000 
#
# Total GULP energy -245145.079133 kJ/mol
# GULP energy per Si atom -5571.479071 kJ/mol
# Density = 2.038057 g / cm^3
# Si number density = 20.427065 Si / 1000 Ang^3
#
#
#
# Elastic Constant Matrix: (Units=GPa)
#
#
# Indices 1 2 3 4 5 6 
#
# 1 108.8567 30.9625 21.0335 0.0000 0.0000 0.0000
# 2 30.9625 92.4315 20.3895 0.0000 0.0000 0.0000
# 3 21.0335 20.3895 54.8839 -0.0001 0.0000 0.0000
# 4 0.0000 0.0000 -0.0001 9.3063 0.0000 0.0000
# 5 0.0000 0.0000 0.0000 0.0000 17.6297 0.0000
# 6 0.0000 0.0000 0.0000 0.0000 0.0000 37.5601
#
#
#
# Elastic Compliance Matrix: (Units=1/GPa)
#
#
# Indices 1 2 3 4 5 6 
#
# 1 0.010584 -0.002887 -0.002984 0.000000 0.000000 0.000000
# 2 -0.002887 0.012572 -0.003564 0.000000 0.000000 0.000000
# 3 -0.002984 -0.003564 0.020688 0.000000 0.000000 0.000000
# 4 0.000000 0.000000 0.000000 0.107454 0.000000 0.000000
# 5 0.000000 0.000000 0.000000 0.000000 0.056722 0.000000
# 6 0.000000 0.000000 0.000000 0.000000 0.000000 0.026624
#
#
# Mechanical properties :
#
#
# Convention : Reuss Voigt Hill
#
# Bulk Modulus (GPa) = 40.04141 44.54924 42.29532
# Shear Modulus (GPa) = 19.09568 25.15165 22.12366
#
# Velocity S-wave (km/s) = 3.06080 3.51278 3.29455
# Velocity P-wave (km/s) = 5.66887 6.18944 5.93486
#
# Compressibility (1/GPa) = 0.02497415
#
# Stress axis : x y z
#
# Youngs Moduli (GPa) = 94.48109 79.54053 48.33775
#
# Poissons Ratio (x) = 0.22966 0.14422
# Poissons Ratio (y) = 0.27279 0.17228
# Poissons Ratio (z) = 0.28189 0.28349
#
# Static dielectric constant tensor:
#      x y z
#    x 1.762040 0.000000 0.000000 
#    y 0.000000 1.799310 0.000000 
#    z 0.000000 0.000000 1.695880 
# 
# From -- ./inp_files/22278.got.cif
#   From: 2010.05.17/outbox.cif.g08.bks.cpg/sg70_12_cif.got.tgz:22278.got - 2010.06.03 15:57:51.
