data_PCOD9514229
_publ_section_title
;
Structure prediction by ZEFSAII (Michael W. Deem and Ramdas Pophale) SiO2 
 PCOD9514229
Probable space group: F D D D
;
_chemical_formula_sum "Si O2"
_cell_formula_units_Z 160
_cell_length_a 13.193311
_cell_length_b 13.221644
_cell_length_c 35.800041
_cell_angle_alpha 90.000000
_cell_angle_beta 90.000000
_cell_angle_gamma 90.000000
_cell_volume 6244.861104
_symmetry_space_group_name_H-M "F D D D"
_symmetry_group_IT_number 70
_space_group.IT_coordinate_system_code '2'
_symmetry_cell_setting 'orthorhombic'
loop_
_space_group_symop_operation_xyz
x,y,z
1/4-x,1/4-y,z
x,1/4-y,1/4-z
1/4-x,y,1/4-z
-x,-y,-z
3/4+x,3/4+y,-z
-x,3/4+y,3/4+z
3/4+x,-y,3/4+z
x,1/2+y,1/2+z
1/4-x,3/4-y,1/2+z
x,3/4-y,3/4-z
1/4-x,1/2+y,3/4-z
-x,1/2-y,1/2-z
3/4+x,1/4+y,1/2-z
-x,1/4+y,1/4+z
3/4+x,1/2-y,1/4+z
1/2+x,y,1/2+z
3/4-x,1/4-y,1/2+z
1/2+x,1/4-y,3/4-z
3/4-x,y,3/4-z
1/2-x,-y,1/2-z
1/4+x,3/4+y,1/2-z
1/2-x,3/4+y,1/4+z
1/4+x,-y,1/4+z
1/2+x,1/2+y,z
3/4-x,3/4-y,z
1/2+x,3/4-y,1/4-z
3/4-x,1/2+y,1/4-z
1/2-x,1/2-y,-z
1/4+x,1/4+y,-z
1/2-x,1/4+y,3/4+z
1/4+x,1/2-y,3/4+z
loop_
_atom_site_type_symbol
_atom_site_label
_atom_site_fract_x
_atom_site_fract_y
_atom_site_fract_z
Si Si1 0.768152 0.202760 0.040965
Si Si2 0.736307 0.561733 0.049285
Si Si3 0.998510 0.040554 0.930582
Si Si4 0.753058 0.876164 0.151157
Si Si5 0.031686 0.729277 0.466289
O O1 0.890885 0.195339 0.044531
O O2 0.728321 0.272089 0.075385
O O3 0.731073 0.086713 0.041005
O O4 0.750000 0.250000 0.000000
O O5 0.714229 0.674942 0.063950
O O6 0.712223 0.471358 0.077278
O O7 0.689981 0.531010 0.009481
O O8 0.979971 0.099533 0.891776
O O9 0.968369 0.127063 0.960025
O O10 0.119688 0.025426 0.939640
O O11 0.875000 0.875000 0.152710
#
# Coordination Sequence:
#
# PCOD9514229 Si02
#       5
#    32  32  32  32  32
#     4  10  20  33  54  83 113 148 189 232 276 335
#     4  10  20  32  57  81 112 150 184 229 282 340
#     4  10  20  34  53  84 112 139 185 238 286 326
#     4  10  18  33  54  82 111 137 185 233 278 322
#     4  10  19  34  52  82 116 144 182 235 283 335
#
# _framework density 25.621065000000002
#
# number of rings (size 3 to 8) (size 9 to 14) (size 15 to 20)
#    0.000    2.000    4.000    1.200    0.000    0.800 
#    0.000    0.000    0.000    1.200    0.000    8.400 
#    0.000    0.000    0.000    0.000    0.000    0.000 
#
# Total GULP energy -223623.538830 kJ/mol
# GULP energy per Si atom -5590.588471 kJ/mol
# Density = 2.556275 g / cm^3
# Si number density = 25.621065 Si / 1000 Ang^3
#
#
#
# Elastic Constant Matrix: (Units=GPa)
#
#
# Indices 1 2 3 4 5 6 
#
# 1 82.6775 41.5969 6.3945 0.0000 0.0000 0.0000
# 2 41.5969 284.0177 91.7591 0.0000 0.0000 0.0000
# 3 6.3945 91.7591 175.1848 0.0000 0.0000 0.0000
# 4 0.0000 0.0000 0.0000 47.2680 0.0000 0.0000
# 5 0.0000 0.0000 0.0000 0.0000 30.3467 0.0000
# 6 0.0000 0.0000 0.0000 0.0000 0.0000 53.7476
#
#
#
# Elastic Compliance Matrix: (Units=1/GPa)
#
#
# Indices 1 2 3 4 5 6 
#
# 1 0.013116 -0.002126 0.000635 0.000000 0.000000 0.000000
# 2 -0.002126 0.004583 -0.002323 0.000000 0.000000 0.000000
# 3 0.000635 -0.002323 0.006902 0.000000 0.000000 0.000000
# 4 0.000000 0.000000 0.000000 0.021156 0.000000 0.000000
# 5 0.000000 0.000000 0.000000 0.000000 0.032953 0.000000
# 6 0.000000 0.000000 0.000000 0.000000 0.000000 0.018605
#
#
# Mechanical properties :
#
#
# Convention : Reuss Voigt Hill
#
# Bulk Modulus (GPa) = 58.91958 91.26455 75.09207
# Shear Modulus (GPa) = 45.20820 53.08110 49.14465
#
# Velocity S-wave (km/s) = 4.20514 4.55661 4.38440
# Velocity P-wave (km/s) = 6.82819 7.96127 7.41640
#
# Compressibility (1/GPa) = 0.01697229
#
# Stress axis : x y z
#
# Youngs Moduli (GPa) = 76.24429 218.21183 144.89173
#
# Poissons Ratio (x) = 0.46392 -0.09198
# Poissons Ratio (y) = 0.16210 0.33655
# Poissons Ratio (z) = -0.04840 0.50685
#
# Static dielectric constant tensor:
#      x y z
#    x 2.215870 0.000000 0.000000 
#    y 0.000000 2.000260 0.000000 
#    z 0.000000 0.000000 2.007600 
# 
# From -- ./inp_files/51284.got.cif
#   From: 2010.05.17/outbox.cif.g08.bks.cpg/sg70_26_cif.got.tgz:51284.got - 2010.06.03 15:57:51.
