data_PCOD9514090
_publ_section_title
;
Structure prediction by ZEFSAII (Michael W. Deem and Ramdas Pophale) SiO2 
 PCOD9514090
Probable space group: F D D D
;
_chemical_formula_sum "Si O2"
_cell_formula_units_Z 128
_cell_length_a 16.412704
_cell_length_b 12.755846
_cell_length_c 28.052504
_cell_angle_alpha 90.000000
_cell_angle_beta 90.000000
_cell_angle_gamma 90.000000
_cell_volume 5873.014019
_symmetry_space_group_name_H-M "F D D D"
_symmetry_group_IT_number 70
_space_group.IT_coordinate_system_code '2'
_symmetry_cell_setting 'orthorhombic'
loop_
_space_group_symop_operation_xyz
x,y,z
1/4-x,1/4-y,z
x,1/4-y,1/4-z
1/4-x,y,1/4-z
-x,-y,-z
3/4+x,3/4+y,-z
-x,3/4+y,3/4+z
3/4+x,-y,3/4+z
x,1/2+y,1/2+z
1/4-x,3/4-y,1/2+z
x,3/4-y,3/4-z
1/4-x,1/2+y,3/4-z
-x,1/2-y,1/2-z
3/4+x,1/4+y,1/2-z
-x,1/4+y,1/4+z
3/4+x,1/2-y,1/4+z
1/2+x,y,1/2+z
3/4-x,1/4-y,1/2+z
1/2+x,1/4-y,3/4-z
3/4-x,y,3/4-z
1/2-x,-y,1/2-z
1/4+x,3/4+y,1/2-z
1/2-x,3/4+y,1/4+z
1/4+x,-y,1/4+z
1/2+x,1/2+y,z
3/4-x,3/4-y,z
1/2+x,3/4-y,1/4-z
3/4-x,1/2+y,1/4-z
1/2-x,1/2-y,-z
1/4+x,1/4+y,-z
1/2-x,1/4+y,3/4+z
1/4+x,1/2-y,3/4+z
loop_
_atom_site_type_symbol
_atom_site_label
_atom_site_fract_x
_atom_site_fract_y
_atom_site_fract_z
Si Si1 0.211928 0.287556 0.051547
Si Si2 0.239111 0.625000 0.625000
Si Si3 0.656460 0.016824 0.946257
Si Si4 0.185760 0.912802 0.998212
Si Si5 0.125000 0.125000 0.945145
O O1 0.192039 0.193965 0.086646
O O2 0.129296 0.349082 0.041425
O O3 0.288106 0.344154 0.076491
O O4 0.250000 0.250000 0.000000
O O5 0.295869 0.695871 0.658821
O O6 0.625000 0.125000 0.924626
O O7 0.723279 0.059087 0.985018
O O8 0.585218 0.940640 0.967185
O O9 0.154371 0.020229 0.973344
#
# Coordination Sequence:
#
# PCOD9514090 Si02
#       5
#    32  16  32  32  16
#     4  10  20  37  64  93 129 168 217 288 338 400
#     4  12  24  41  66 104 129 172 238 282 343 408
#     4  12  26  42  67 100 135 185 229 278 341 433
#     4  11  21  43  66  95 132 175 225 277 356 398
#     4  10  16  36  64  91 120 176 208 276 343 394
#
# _framework density 21.794601
#
# number of rings (size 3 to 8) (size 9 to 14) (size 15 to 20)
#    0.000    1.000    7.500    2.250    1.750    2.000 
#    0.000    0.000    0.000    0.000    0.000    0.000 
#    0.000    0.000    0.000    0.000    0.000    0.000 
#
# Total GULP energy -178154.489906 kJ/mol
# GULP energy per Si atom -5567.327810 kJ/mol
# Density = 2.174500 g / cm^3
# Si number density = 21.794601 Si / 1000 Ang^3
#
#
#
# Elastic Constant Matrix: (Units=GPa)
#
#
# Indices 1 2 3 4 5 6 
#
# 1 61.8057 7.8790 -9.9795 0.0000 0.0000 0.0000
# 2 7.8790 104.1706 19.9047 0.0000 0.0000 0.0000
# 3 -9.9795 19.9047 62.0676 0.0000 0.0000 0.0000
# 4 0.0000 0.0000 0.0000 36.8675 0.0000 0.0000
# 5 0.0000 0.0000 0.0000 0.0000 14.5905 0.0000
# 6 0.0000 0.0000 0.0000 0.0000 0.0000 38.6171
#
#
#
# Elastic Compliance Matrix: (Units=1/GPa)
#
#
# Indices 1 2 3 4 5 6 
#
# 1 0.016965 -0.001922 0.003344 0.000000 0.000000 0.000000
# 2 -0.001922 0.010444 -0.003658 0.000000 0.000000 0.000000
# 3 0.003344 -0.003658 0.017822 0.000000 0.000000 0.000000
# 4 0.000000 0.000000 0.000000 0.027124 0.000000 0.000000
# 5 0.000000 0.000000 0.000000 0.000000 0.068538 0.000000
# 6 0.000000 0.000000 0.000000 0.000000 0.000000 0.025895
#
#
# Mechanical properties :
#
#
# Convention : Reuss Voigt Hill
#
# Bulk Modulus (GPa) = 24.53489 29.29469 26.91479
# Shear Modulus (GPa) = 27.04935 32.03099 29.54017
#
# Velocity S-wave (km/s) = 3.52675 3.83779 3.68556
# Velocity P-wave (km/s) = 5.27880 5.75401 5.52152
#
# Compressibility (1/GPa) = 0.04075828
#
# Stress axis : x y z
#
# Youngs Moduli (GPa) = 58.94586 95.74826 56.10931
#
# Poissons Ratio (x) = 0.18404 -0.18763
# Poissons Ratio (y) = 0.11330 0.20527
# Poissons Ratio (z) = -0.19712 0.35028
#
# Static dielectric constant tensor:
#      x y z
#    x 1.807970 0.000000 0.000000 
#    y 0.000000 1.826540 0.000000 
#    z 0.000000 0.000000 1.884540 
# 
# From -- ./inp_files/59303.got.cif
#   From: 2010.05.17/outbox.cif.g08.bks.cpg/sg70_30_cif.got.tgz:59303.got - 2010.06.03 15:57:51.
