data_PCOD9514536
_publ_section_title
;
Structure prediction by ZEFSAII (Michael W. Deem and Ramdas Pophale) SiO2 
 PCOD9514536
Probable space group: F D D D
;
_chemical_formula_sum "Si O2"
_cell_formula_units_Z 240
_cell_length_a 23.103870
_cell_length_b 15.415220
_cell_length_c 30.248483
_cell_angle_alpha 90.000000
_cell_angle_beta 90.000000
_cell_angle_gamma 90.000000
_cell_volume 10773.034695
_symmetry_space_group_name_H-M "F D D D"
_symmetry_group_IT_number 70
_space_group.IT_coordinate_system_code '2'
_symmetry_cell_setting 'orthorhombic'
loop_
_space_group_symop_operation_xyz
x,y,z
1/4-x,1/4-y,z
x,1/4-y,1/4-z
1/4-x,y,1/4-z
-x,-y,-z
3/4+x,3/4+y,-z
-x,3/4+y,3/4+z
3/4+x,-y,3/4+z
x,1/2+y,1/2+z
1/4-x,3/4-y,1/2+z
x,3/4-y,3/4-z
1/4-x,1/2+y,3/4-z
-x,1/2-y,1/2-z
3/4+x,1/4+y,1/2-z
-x,1/4+y,1/4+z
3/4+x,1/2-y,1/4+z
1/2+x,y,1/2+z
3/4-x,1/4-y,1/2+z
1/2+x,1/4-y,3/4-z
3/4-x,y,3/4-z
1/2-x,-y,1/2-z
1/4+x,3/4+y,1/2-z
1/2-x,3/4+y,1/4+z
1/4+x,-y,1/4+z
1/2+x,1/2+y,z
3/4-x,3/4-y,z
1/2+x,3/4-y,1/4-z
3/4-x,1/2+y,1/4-z
1/2-x,1/2-y,-z
1/4+x,1/4+y,-z
1/2-x,1/4+y,3/4+z
1/4+x,1/2-y,3/4+z
loop_
_atom_site_type_symbol
_atom_site_label
_atom_site_fract_x
_atom_site_fract_y
_atom_site_fract_z
Si Si1 0.042240 0.546669 0.464814
Si Si2 0.455811 0.455230 0.771410
Si Si3 0.927764 0.037632 0.534260
Si Si4 0.157741 0.867525 0.690807
Si Si5 0.033274 0.407912 0.147759
Si Si6 0.484419 0.927478 0.802869
Si Si7 0.625000 0.625000 0.502483
Si Si8 0.816285 0.120855 0.573465
O O1 0.066998 0.623888 0.494111
O O2 0.078687 0.467154 0.445788
O O3 0.000000 0.500000 0.500000
O O4 0.009842 0.593204 0.423662
O O5 0.411776 0.514777 0.798638
O O6 0.481696 0.519475 0.734702
O O7 0.510130 0.420991 0.800150
O O8 0.919802 0.078380 0.485119
O O9 0.873090 0.066465 0.563072
O O10 0.984748 0.083526 0.554298
O O11 0.917341 0.935674 0.526650
O O12 0.095025 0.892138 0.672008
O O13 0.205313 0.886991 0.653225
O O14 0.014786 0.507854 0.155473
O O15 0.419297 0.922744 0.784995
O O16 0.804742 0.125000 0.625000
#
# Coordination Sequence:
#
# PCOD9514536 Si02
#       8
#    32  32  32  32  32  32  16  32
#     4   9  18  34  61  89 129 173 214 269 325 395
#     4   9  18  36  60  92 126 169 213 258 327 402
#     4  11  23  41  64  94 123 171 214 270 331 408
#     4  10  19  35  64  88 132 169 210 267 327 386
#     4  10  19  37  58  96 131 166 213 273 320 389
#     4  10  21  39  64  91 122 158 212 267 321 395
#     4  12  20  42  69  88 122 162 224 262 342 407
#     4  11  21  39  64  90 130 173 221 276 334 398
#
# _framework density 22.277846
#
# number of rings (size 3 to 8) (size 9 to 14) (size 15 to 20)
#    0.000    1.867    2.667    2.800    0.000    0.000 
#    0.000   20.667    5.867   10.400    0.000    0.000 
#    0.000    0.000    0.000    0.000    0.000    0.000 
#
# Total GULP energy -335096.699541 kJ/mol
# GULP energy per Si atom -5584.944992 kJ/mol
# Density = 2.222714 g / cm^3
# Si number density = 22.277846 Si / 1000 Ang^3
#
#
#
# Elastic Constant Matrix: (Units=GPa)
#
#
# Indices 1 2 3 4 5 6 
#
# 1 57.9130 8.5788 1.4284 0.0000 0.0000 0.0000
# 2 8.5788 113.9319 17.7810 0.0000 0.0000 0.0000
# 3 1.4284 17.7810 64.0113 0.0000 0.0000 0.0000
# 4 0.0000 0.0000 0.0000 17.4525 0.0000 0.0000
# 5 0.0000 0.0000 0.0000 0.0000 1.3826 0.0000
# 6 0.0000 0.0000 0.0000 0.0000 0.0000 36.6783
#
#
#
# Elastic Compliance Matrix: (Units=1/GPa)
#
#
# Indices 1 2 3 4 5 6 
#
# 1 0.017462 -0.001311 -0.000026 0.000000 0.000000 0.000000
# 2 -0.001311 0.009273 -0.002547 0.000000 0.000000 0.000000
# 3 -0.000026 -0.002547 0.016330 0.000000 0.000000 0.000000
# 4 0.000000 0.000000 0.000000 0.057298 0.000000 0.000000
# 5 0.000000 0.000000 0.000000 0.000000 0.723293 0.000000
# 6 0.000000 0.000000 0.000000 0.000000 0.000000 0.027264
#
#
# Mechanical properties :
#
#
# Convention : Reuss Voigt Hill
#
# Bulk Modulus (GPa) = 28.32902 32.38139 30.35521
# Shear Modulus (GPa) = 5.74413 24.97388 15.35900
#
# Velocity S-wave (km/s) = 1.60748 3.35179 2.62855
# Velocity P-wave (km/s) = 4.02358 5.43564 4.78201
#
# Compressibility (1/GPa) = 0.03529949
#
# Stress axis : x y z
#
# Youngs Moduli (GPa) = 57.26694 107.83612 61.23614
#
# Poissons Ratio (x) = 0.14136 0.00156
# Poissons Ratio (y) = 0.07507 0.15595
# Poissons Ratio (z) = 0.00146 0.27462
#
# Static dielectric constant tensor:
#      x y z
#    x 1.870980 0.000000 0.000000 
#    y 0.000000 1.904370 0.000000 
#    z 0.000000 0.000000 1.799270 
# 
# From -- ./inp_files/69100.got.cif
#   From: 2010.05.17/outbox.cif.g08.bks.cpg/sg70_35_cif.got.tgz:69100.got - 2010.06.03 15:57:51.
