data_PCOD9514889
_publ_section_title
;
Structure prediction by ZEFSAII (Michael W. Deem and Ramdas Pophale) SiO2 
 PCOD9514889
Probable space group: F D D D
;
_chemical_formula_sum "Si O2"
_cell_formula_units_Z 208
_cell_length_a 21.889397
_cell_length_b 18.102402
_cell_length_c 25.391366
_cell_angle_alpha 90.000000
_cell_angle_beta 90.000000
_cell_angle_gamma 90.000000
_cell_volume 10061.345638
_symmetry_space_group_name_H-M "F D D D"
_symmetry_group_IT_number 70
_space_group.IT_coordinate_system_code '2'
_symmetry_cell_setting 'orthorhombic'
loop_
_space_group_symop_operation_xyz
x,y,z
1/4-x,1/4-y,z
x,1/4-y,1/4-z
1/4-x,y,1/4-z
-x,-y,-z
3/4+x,3/4+y,-z
-x,3/4+y,3/4+z
3/4+x,-y,3/4+z
x,1/2+y,1/2+z
1/4-x,3/4-y,1/2+z
x,3/4-y,3/4-z
1/4-x,1/2+y,3/4-z
-x,1/2-y,1/2-z
3/4+x,1/4+y,1/2-z
-x,1/4+y,1/4+z
3/4+x,1/2-y,1/4+z
1/2+x,y,1/2+z
3/4-x,1/4-y,1/2+z
1/2+x,1/4-y,3/4-z
3/4-x,y,3/4-z
1/2-x,-y,1/2-z
1/4+x,3/4+y,1/2-z
1/2-x,3/4+y,1/4+z
1/4+x,-y,1/4+z
1/2+x,1/2+y,z
3/4-x,3/4-y,z
1/2+x,3/4-y,1/4-z
3/4-x,1/2+y,1/4-z
1/2-x,1/2-y,-z
1/4+x,1/4+y,-z
1/2-x,1/4+y,3/4+z
1/4+x,1/2-y,3/4+z
loop_
_atom_site_type_symbol
_atom_site_label
_atom_site_fract_x
_atom_site_fract_y
_atom_site_fract_z
Si Si1 0.159209 0.763788 0.237526
Si Si2 0.386768 0.124671 0.063866
Si Si3 0.125000 0.625000 0.481485
Si Si4 0.744447 0.858280 0.680973
Si Si5 0.181772 0.269784 0.017339
Si Si6 0.982978 0.369576 0.776438
Si Si7 0.208044 0.963404 0.677436
O O1 0.124732 0.792206 0.289836
O O2 0.221274 0.808915 0.229944
O O3 0.180152 0.679523 0.232279
O O4 0.113667 0.792587 0.191662
O O5 0.371986 0.125000 0.125000
O O6 0.455991 0.150776 0.053502
O O7 0.346913 0.178703 0.027936
O O8 0.184610 0.621480 0.443670
O O9 0.139630 0.696969 0.517597
O O10 0.699168 0.929778 0.682243
O O11 0.731830 0.813549 0.628137
O O12 0.250000 0.250000 0.000000
O O13 0.004959 0.333503 0.721308
O O14 0.966379 0.300413 0.812914
#
# Coordination Sequence:
#
# PCOD9514889 Si02
#       7
#    32  32  16  32  32  32  32
#     4  10  21  39  60  85 129 166 204 270 323 385
#     4  10  22  38  62  91 125 164 220 270 325 389
#     4  10  20  36  64  94 123 164 217 270 324 388
#     4  10  21  38  59  91 123 165 211 260 328 391
#     4   9  20  38  60  91 122 159 209 268 324 385
#     4  10  22  38  58  89 127 165 211 266 321 383
#     4  10  22  39  57  91 126 168 214 259 322 396
#
# _framework density 20.673179999999999
#
# number of rings (size 3 to 8) (size 9 to 14) (size 15 to 20)
#    0.000    2.154    0.000    1.846    4.308    2.462 
#    5.538    1.538    0.000   12.923    0.000   35.538 
#    0.000    0.000    0.000    0.000    0.000    0.000 
#
# Total GULP energy -289713.903803 kJ/mol
# GULP energy per Si atom -5571.421227 kJ/mol
# Density = 2.062613 g / cm^3
# Si number density = 20.673180 Si / 1000 Ang^3
#
#
#
# Elastic Constant Matrix: (Units=GPa)
#
#
# Indices 1 2 3 4 5 6 
#
# 1 116.1675 48.9607 32.4534 0.0000 0.0000 0.0000
# 2 48.9607 125.8522 29.4644 0.0000 0.0000 0.0000
# 3 32.4534 29.4644 67.8671 0.0000 0.0000 0.0000
# 4 0.0000 0.0000 0.0000 26.2966 0.0000 0.0000
# 5 0.0000 0.0000 0.0000 0.0000 9.4223 0.0000
# 6 0.0000 0.0000 0.0000 0.0000 0.0000 43.7495
#
#
#
# Elastic Compliance Matrix: (Units=1/GPa)
#
#
# Indices 1 2 3 4 5 6 
#
# 1 0.011124 -0.003431 -0.003830 0.000000 0.000000 0.000000
# 2 -0.003431 0.009903 -0.002659 0.000000 0.000000 0.000000
# 3 -0.003830 -0.002659 0.017720 0.000000 0.000000 0.000000
# 4 0.000000 0.000000 0.000000 0.038028 0.000000 0.000000
# 5 0.000000 0.000000 0.000000 0.000000 0.106131 0.000000
# 6 0.000000 0.000000 0.000000 0.000000 0.000000 0.022857
#
#
# Mechanical properties :
#
#
# Convention : Reuss Voigt Hill
#
# Bulk Modulus (GPa) = 52.88668 59.07155 55.97912
# Shear Modulus (GPa) = 21.56042 29.16090 25.36066
#
# Velocity S-wave (km/s) = 3.23293 3.75983 3.50629
# Velocity P-wave (km/s) = 6.29075 6.89089 6.59765
#
# Compressibility (1/GPa) = 0.01890835
#
# Stress axis : x y z
#
# Youngs Moduli (GPa) = 89.89333 100.97874 56.43217
#
# Poissons Ratio (x) = 0.34646 0.21613
# Poissons Ratio (y) = 0.30843 0.15004
# Poissons Ratio (z) = 0.34429 0.26847
#
# Static dielectric constant tensor:
#      x y z
#    x 1.809430 0.000000 0.000000 
#    y 0.000000 1.875950 0.000000 
#    z 0.000000 0.000000 1.721700 
# 
# From -- ./inp_files/60429.got.cif
#   From: 2010.05.17/outbox.cif.g08.bks.cpg/sg70_31_cif.got.tgz:60429.got - 2010.06.03 15:57:51.
