data_PCOD9514210
_publ_section_title
;
Structure prediction by ZEFSAII (Michael W. Deem and Ramdas Pophale) SiO2 
 PCOD9514210
Probable space group: F D D D
;
_chemical_formula_sum "Si O2"
_cell_formula_units_Z 208
_cell_length_a 14.828964
_cell_length_b 21.464844
_cell_length_c 32.302422
_cell_angle_alpha 90.000000
_cell_angle_beta 90.000000
_cell_angle_gamma 90.000000
_cell_volume 10281.906112
_symmetry_space_group_name_H-M "F D D D"
_symmetry_group_IT_number 70
_space_group.IT_coordinate_system_code '2'
_symmetry_cell_setting 'orthorhombic'
loop_
_space_group_symop_operation_xyz
x,y,z
1/4-x,1/4-y,z
x,1/4-y,1/4-z
1/4-x,y,1/4-z
-x,-y,-z
3/4+x,3/4+y,-z
-x,3/4+y,3/4+z
3/4+x,-y,3/4+z
x,1/2+y,1/2+z
1/4-x,3/4-y,1/2+z
x,3/4-y,3/4-z
1/4-x,1/2+y,3/4-z
-x,1/2-y,1/2-z
3/4+x,1/4+y,1/2-z
-x,1/4+y,1/4+z
3/4+x,1/2-y,1/4+z
1/2+x,y,1/2+z
3/4-x,1/4-y,1/2+z
1/2+x,1/4-y,3/4-z
3/4-x,y,3/4-z
1/2-x,-y,1/2-z
1/4+x,3/4+y,1/2-z
1/2-x,3/4+y,1/4+z
1/4+x,-y,1/4+z
1/2+x,1/2+y,z
3/4-x,3/4-y,z
1/2+x,3/4-y,1/4-z
3/4-x,1/2+y,1/4-z
1/2-x,1/2-y,-z
1/4+x,1/4+y,-z
1/2-x,1/4+y,3/4+z
1/4+x,1/2-y,3/4+z
loop_
_atom_site_type_symbol
_atom_site_label
_atom_site_fract_x
_atom_site_fract_y
_atom_site_fract_z
Si Si1 0.480814 0.049795 0.125346
Si Si2 0.770650 0.050134 0.214870
Si Si3 0.739735 0.808430 0.285192
Si Si4 0.982491 0.050387 0.125843
Si Si5 0.125000 0.625000 0.768290
Si Si6 0.516137 0.956289 0.282819
Si Si7 0.798888 0.248926 0.543757
O O1 0.487487 0.125000 0.125000
O O2 0.512865 0.027730 0.080467
O O3 0.522265 0.032905 0.169807
O O4 0.374420 0.034543 0.125625
O O5 0.733862 0.119998 0.221463
O O6 0.878741 0.060699 0.212804
O O7 0.750000 0.000000 0.250000
O O8 0.765935 0.765636 0.247143
O O9 0.631378 0.799632 0.289250
O O10 0.993626 0.125000 0.125000
O O11 0.017408 0.029774 0.170600
O O12 0.012725 0.020461 0.082536
O O13 0.203492 0.654392 0.739188
O O14 0.160303 0.568349 0.796448
O O15 0.750000 0.250000 0.500000
#
# Coordination Sequence:
#
# PCOD9514210 Si02
#       7
#    32  32  32  32  16  32  32
#     4   7  13  29  51  70  92 131 177 210 250 311
#     4  10  19  33  55  79 104 136 177 223 266 313
#     4   9  18  33  52  75 103 138 176 215 266 325
#     4   9  16  30  52  73  97 136 180 219 261 317
#     4  10  20  34  55  82 108 146 186 224 281 340
#     4  10  20  35  54  78 106 135 177 225 268 321
#     4  10  18  32  54  76 106 143 182 227 273 332
#
# _framework density 20.229713
#
# number of rings (size 3 to 8) (size 9 to 14) (size 15 to 20)
#    0.000    2.769    0.000    4.615    0.000    0.615 
#    0.000   14.231    0.000    4.615    0.000    0.000 
#    0.000    0.000    0.000    0.000    0.000    0.000 
#
# Total GULP energy -289724.832360 kJ/mol
# GULP energy per Si atom -5571.631392 kJ/mol
# Density = 2.018367 g / cm^3
# Si number density = 20.229713 Si / 1000 Ang^3
#
#
#
# Elastic Constant Matrix: (Units=GPa)
#
#
# Indices 1 2 3 4 5 6 
#
# 1 68.7710 10.9316 17.8477 0.0000 0.0000 0.0000
# 2 10.9316 104.1926 75.8283 0.0000 0.0000 0.0000
# 3 17.8477 75.8283 206.0667 0.0000 0.0000 0.0000
# 4 0.0000 0.0000 0.0000 33.6875 0.0000 0.0000
# 5 0.0000 0.0000 0.0000 0.0000 17.7429 0.0000
# 6 0.0000 0.0000 0.0000 0.0000 0.0000 10.1396
#
#
#
# Elastic Compliance Matrix: (Units=1/GPa)
#
#
# Indices 1 2 3 4 5 6 
#
# 1 0.014931 -0.000854 -0.000979 0.000000 0.000000 0.000000
# 2 -0.000854 0.013157 -0.004767 0.000000 0.000000 0.000000
# 3 -0.000979 -0.004767 0.006692 0.000000 0.000000 0.000000
# 4 0.000000 0.000000 0.000000 0.029685 0.000000 0.000000
# 5 0.000000 0.000000 0.000000 0.000000 0.056361 0.000000
# 6 0.000000 0.000000 0.000000 0.000000 0.000000 0.098624
#
#
# Mechanical properties :
#
#
# Convention : Reuss Voigt Hill
#
# Bulk Modulus (GPa) = 46.34207 65.36061 55.85134
# Shear Modulus (GPa) = 20.84705 30.60883 25.72794
#
# Velocity S-wave (km/s) = 3.21365 3.89403 3.57008
# Velocity P-wave (km/s) = 6.06034 7.25240 6.68300
#
# Compressibility (1/GPa) = 0.02157866
#
# Stress axis : x y z
#
# Youngs Moduli (GPa) = 66.97556 76.00600 149.43403
#
# Poissons Ratio (x) = 0.06492 0.14628
# Poissons Ratio (y) = 0.05720 0.71242
# Poissons Ratio (z) = 0.06556 0.36236
#
# Static dielectric constant tensor:
#      x y z
#    x 1.837920 0.000000 0.000000 
#    y 0.000000 1.701920 0.000000 
#    z 0.000000 0.000000 1.802040 
# 
# From -- ./inp_files/45241.got.cif
#   From: 2010.05.17/outbox.cif.g08.bks.cpg/sg70_23_cif.got.tgz:45241.got - 2010.06.03 15:57:51.
