data_PCOD9514650
_publ_section_title
;
Structure prediction by ZEFSAII (Michael W. Deem and Ramdas Pophale) SiO2 
 PCOD9514650
Probable space group: F D D D
;
_chemical_formula_sum "Si O2"
_cell_formula_units_Z 144
_cell_length_a 23.184447
_cell_length_b 11.276684
_cell_length_c 25.861596
_cell_angle_alpha 90.000000
_cell_angle_beta 90.000000
_cell_angle_gamma 90.000000
_cell_volume 6761.350894
_symmetry_space_group_name_H-M "F D D D"
_symmetry_group_IT_number 70
_space_group.IT_coordinate_system_code '2'
_symmetry_cell_setting 'orthorhombic'
loop_
_space_group_symop_operation_xyz
x,y,z
1/4-x,1/4-y,z
x,1/4-y,1/4-z
1/4-x,y,1/4-z
-x,-y,-z
3/4+x,3/4+y,-z
-x,3/4+y,3/4+z
3/4+x,-y,3/4+z
x,1/2+y,1/2+z
1/4-x,3/4-y,1/2+z
x,3/4-y,3/4-z
1/4-x,1/2+y,3/4-z
-x,1/2-y,1/2-z
3/4+x,1/4+y,1/2-z
-x,1/4+y,1/4+z
3/4+x,1/2-y,1/4+z
1/2+x,y,1/2+z
3/4-x,1/4-y,1/2+z
1/2+x,1/4-y,3/4-z
3/4-x,y,3/4-z
1/2-x,-y,1/2-z
1/4+x,3/4+y,1/2-z
1/2-x,3/4+y,1/4+z
1/4+x,-y,1/4+z
1/2+x,1/2+y,z
3/4-x,3/4-y,z
1/2+x,3/4-y,1/4-z
3/4-x,1/2+y,1/4-z
1/2-x,1/2-y,-z
1/4+x,1/4+y,-z
1/2-x,1/4+y,3/4+z
1/4+x,1/2-y,3/4+z
loop_
_atom_site_type_symbol
_atom_site_label
_atom_site_fract_x
_atom_site_fract_y
_atom_site_fract_z
Si Si1 0.535116 0.024272 0.586579
Si Si2 0.470675 0.554383 0.449368
Si Si3 0.312817 0.809921 0.254220
Si Si4 0.875000 0.579421 0.875000
Si Si5 0.941164 0.394741 0.137111
O O1 0.557912 0.125000 0.625000
O O2 0.525536 0.090275 0.532636
O O3 0.579368 0.914118 0.593480
O O4 0.473391 0.979897 0.605399
O O5 0.500000 0.500000 0.500000
O O6 0.450083 0.687387 0.466318
O O7 0.414120 0.510751 0.417288
O O8 0.522055 0.546729 0.407744
O O9 0.375000 0.875000 0.260090
O O10 0.303486 0.793793 0.193237
O O11 0.875000 0.375000 0.124046
#
# Coordination Sequence:
#
# PCOD9514650 Si02
#       5
#    32  32  32  16  32
#     4  11  17  36  70 103 127 162 230 302 344 397
#     4  11  24  44  66  98 143 187 230 286 351 442
#     4  11  20  40  71 103 127 165 233 300 351 406
#     4  10  19  38  72 105 130 166 245 288 345 406
#     4  10  24  41  58  98 135 169 222 282 361 415
#
# _framework density 21.297519999999999
#
# number of rings (size 3 to 8) (size 9 to 14) (size 15 to 20)
#    0.000    1.333    6.667    1.000    0.000    0.889 
#   16.000    0.000    0.000    0.000    0.000    0.000 
#    0.000    0.000    0.000    0.000    0.000    0.000 
#
# Total GULP energy -200496.515047 kJ/mol
# GULP energy per Si atom -5569.347640 kJ/mol
# Density = 2.124905 g / cm^3
# Si number density = 21.297520 Si / 1000 Ang^3
#
#
#
# Elastic Constant Matrix: (Units=GPa)
#
#
# Indices 1 2 3 4 5 6 
#
# 1 158.3514 26.8412 55.1808 0.0000 0.0000 0.0000
# 2 26.8412 27.3466 14.8871 0.0000 0.0000 0.0000
# 3 55.1808 14.8871 116.5500 0.0000 0.0000 0.0000
# 4 0.0000 0.0000 0.0000 16.4705 0.0000 0.0000
# 5 0.0000 0.0000 0.0000 0.0000 37.8026 0.0000
# 6 0.0000 0.0000 0.0000 0.0000 0.0000 -27.3181
#
#
#
# Elastic Compliance Matrix: (Units=1/GPa)
#
#
# Indices 1 2 3 4 5 6 
#
# 1 0.008559 -0.006658 -0.003202 0.000000 0.000000 0.000000
# 2 -0.006658 0.044480 -0.002529 0.000000 0.000000 0.000000
# 3 -0.003202 -0.002529 0.010419 0.000000 0.000000 0.000000
# 4 0.000000 0.000000 0.000000 0.060715 0.000000 0.000000
# 5 0.000000 0.000000 0.000000 0.000000 0.026453 0.000000
# 6 0.000000 0.000000 0.000000 0.000000 0.000000 -0.036606
#
#
# Mechanical properties :
#
#
# Convention : Reuss Voigt Hill
#
# Bulk Modulus (GPa) = 25.85350 55.11846 40.48598
# Shear Modulus (GPa) = 32.96155 19.08025 26.02090
#
# Velocity S-wave (km/s) = 3.93831 2.99639 3.49919
# Velocity P-wave (km/s) = 5.73114 6.15691 5.94784
#
# Compressibility (1/GPa) = 0.03867949
#
# Stress axis : x y z
#
# Youngs Moduli (GPa) = 116.82969 22.48225 95.97785
#
# Poissons Ratio (x) = 0.14969 0.30733
# Poissons Ratio (y) = 0.77787 0.24274
# Poissons Ratio (z) = 0.37409 0.05686
#
# Static dielectric constant tensor:
#      x y z
#    x 1.801760 0.000000 0.000000 
#    y 0.000000 1.802250 0.000000 
#    z 0.000000 0.000000 1.854580 
# 
# From -- ./inp_files/60975.got.cif
#   From: 2010.05.17/outbox.cif.g08.bks.cpg/sg70_31_cif.got.tgz:60975.got - 2010.06.03 15:57:51.
