data_PCOD9514320
_publ_section_title
;
Structure prediction by ZEFSAII (Michael W. Deem and Ramdas Pophale) SiO2 
 PCOD9514320
Probable space group: F D D D
;
_chemical_formula_sum "Si O2"
_cell_formula_units_Z 176
_cell_length_a 22.849005
_cell_length_b 14.193730
_cell_length_c 29.098950
_cell_angle_alpha 90.000000
_cell_angle_beta 90.000000
_cell_angle_gamma 90.000000
_cell_volume 9437.156357
_symmetry_space_group_name_H-M "F D D D"
_symmetry_group_IT_number 70
_space_group.IT_coordinate_system_code '2'
_symmetry_cell_setting 'orthorhombic'
loop_
_space_group_symop_operation_xyz
x,y,z
1/4-x,1/4-y,z
x,1/4-y,1/4-z
1/4-x,y,1/4-z
-x,-y,-z
3/4+x,3/4+y,-z
-x,3/4+y,3/4+z
3/4+x,-y,3/4+z
x,1/2+y,1/2+z
1/4-x,3/4-y,1/2+z
x,3/4-y,3/4-z
1/4-x,1/2+y,3/4-z
-x,1/2-y,1/2-z
3/4+x,1/4+y,1/2-z
-x,1/4+y,1/4+z
3/4+x,1/2-y,1/4+z
1/2+x,y,1/2+z
3/4-x,1/4-y,1/2+z
1/2+x,1/4-y,3/4-z
3/4-x,y,3/4-z
1/2-x,-y,1/2-z
1/4+x,3/4+y,1/2-z
1/2-x,3/4+y,1/4+z
1/4+x,-y,1/4+z
1/2+x,1/2+y,z
3/4-x,3/4-y,z
1/2+x,3/4-y,1/4-z
3/4-x,1/2+y,1/4-z
1/2-x,1/2-y,-z
1/4+x,1/4+y,-z
1/2-x,1/4+y,3/4+z
1/4+x,1/2-y,3/4+z
loop_
_atom_site_type_symbol
_atom_site_label
_atom_site_fract_x
_atom_site_fract_y
_atom_site_fract_z
Si Si1 0.994701 0.669723 0.898230
Si Si2 0.875000 0.875000 0.597617
Si Si3 0.968425 0.625000 0.625000
Si Si4 0.166328 0.042174 0.537020
Si Si5 0.518079 0.859218 0.754363
Si Si6 0.140726 0.823173 0.294555
Si Si7 0.875000 0.686304 0.375000
O O1 0.935420 0.621903 0.879760
O O2 0.058523 0.629938 0.881312
O O3 0.995943 0.780067 0.885232
O O4 0.992540 0.652759 0.953657
O O5 0.874644 0.774632 0.570825
O O6 0.926417 0.635210 0.669515
O O7 0.125000 0.125000 0.517265
O O8 0.227693 0.092621 0.542758
O O9 0.176148 0.960563 0.500003
O O10 0.133987 0.001308 0.580675
O O11 0.500000 0.750000 0.750000
O O12 0.583362 0.867445 0.772515
#
# Coordination Sequence:
#
# PCOD9514320 Si02
#       7
#    32  16  16  32  32  32  16
#     4  11  22  41  64  91 130 176 225 272 336 395
#     4  10  18  36  66  87 124 170 214 261 328 410
#     4  10  24  41  66  90 123 178 238 270 318 411
#     4  12  21  37  59  97 133 168 208 272 339 405
#     4  12  19  36  67  91 130 177 213 267 341 406
#     4  11  19  37  62  94 122 170 218 262 331 391
#     4  12  27  39  62  98 138 172 224 287 343 394
#
# _framework density 18.649687
#
# number of rings (size 3 to 8) (size 9 to 14) (size 15 to 20)
#    0.000    0.727   10.000    0.273    0.000    3.273 
#    0.000    0.909    0.000    0.000    0.000    0.000 
#    0.000    0.000    0.000    0.000    0.000    0.000 
#
# Total GULP energy -245040.458407 kJ/mol
# GULP energy per Si atom -5569.101327 kJ/mol
# Density = 1.860724 g / cm^3
# Si number density = 18.649687 Si / 1000 Ang^3
#
#
#
# Elastic Constant Matrix: (Units=GPa)
#
#
# Indices 1 2 3 4 5 6 
#
# 1 127.2790 38.9362 19.0305 0.0000 0.0000 0.0000
# 2 38.9362 90.0142 35.9674 0.0000 0.0000 0.0000
# 3 19.0305 35.9674 76.3384 0.0000 0.0000 0.0000
# 4 0.0000 0.0000 0.0000 31.9434 0.0000 0.0000
# 5 0.0000 0.0000 0.0000 0.0000 21.3186 0.0000
# 6 0.0000 0.0000 0.0000 0.0000 0.0000 38.6745
#
#
#
# Elastic Compliance Matrix: (Units=1/GPa)
#
#
# Indices 1 2 3 4 5 6 
#
# 1 0.009071 -0.003721 -0.000508 0.000000 0.000000 0.000000
# 2 -0.003721 0.015212 -0.006240 0.000000 0.000000 0.000000
# 3 -0.000508 -0.006240 0.016166 0.000000 0.000000 0.000000
# 4 0.000000 0.000000 0.000000 0.031305 0.000000 0.000000
# 5 0.000000 0.000000 0.000000 0.000000 0.046907 0.000000
# 6 0.000000 0.000000 0.000000 0.000000 0.000000 0.025857
#
#
# Mechanical properties :
#
#
# Convention : Reuss Voigt Hill
#
# Bulk Modulus (GPa) = 51.25100 53.49999 52.37550
# Shear Modulus (GPa) = 29.07655 31.70045 30.38850
#
# Velocity S-wave (km/s) = 3.95282 4.12732 4.04101
# Velocity P-wave (km/s) = 6.95511 7.17371 7.06525
#
# Compressibility (1/GPa) = 0.01951181
#
# Stress axis : x y z
#
# Youngs Moduli (GPa) = 110.24233 65.73783 61.85756
#
# Poissons Ratio (x) = 0.24458 0.03144
# Poissons Ratio (y) = 0.41016 0.38597
# Poissons Ratio (z) = 0.05604 0.41019
#
# Static dielectric constant tensor:
#      x y z
#    x 1.714440 0.000000 0.000000 
#    y 0.000000 1.642510 0.000000 
#    z 0.000000 0.000000 1.673060 
# 
# From -- ./inp_files/30022.got.cif
#   From: 2010.05.17/outbox.cif.g08.bks.cpg/sg70_16_cif.got.tgz:30022.got - 2010.06.03 15:57:51.
