data_PCOD9514232
_publ_section_title
;
Structure prediction by ZEFSAII (Michael W. Deem and Ramdas Pophale) SiO2 
 PCOD9514232
Probable space group: F D D D
;
_chemical_formula_sum "Si O2"
_cell_formula_units_Z 192
_cell_length_a 24.208896
_cell_length_b 13.600617
_cell_length_c 29.627049
_cell_angle_alpha 90.000000
_cell_angle_beta 90.000000
_cell_angle_gamma 90.000000
_cell_volume 9754.881349
_symmetry_space_group_name_H-M "F D D D"
_symmetry_group_IT_number 70
_space_group.IT_coordinate_system_code '2'
_symmetry_cell_setting 'orthorhombic'
loop_
_space_group_symop_operation_xyz
x,y,z
1/4-x,1/4-y,z
x,1/4-y,1/4-z
1/4-x,y,1/4-z
-x,-y,-z
3/4+x,3/4+y,-z
-x,3/4+y,3/4+z
3/4+x,-y,3/4+z
x,1/2+y,1/2+z
1/4-x,3/4-y,1/2+z
x,3/4-y,3/4-z
1/4-x,1/2+y,3/4-z
-x,1/2-y,1/2-z
3/4+x,1/4+y,1/2-z
-x,1/4+y,1/4+z
3/4+x,1/2-y,1/4+z
1/2+x,y,1/2+z
3/4-x,1/4-y,1/2+z
1/2+x,1/4-y,3/4-z
3/4-x,y,3/4-z
1/2-x,-y,1/2-z
1/4+x,3/4+y,1/2-z
1/2-x,3/4+y,1/4+z
1/4+x,-y,1/4+z
1/2+x,1/2+y,z
3/4-x,3/4-y,z
1/2+x,3/4-y,1/4-z
3/4-x,1/2+y,1/4-z
1/2-x,1/2-y,-z
1/4+x,1/4+y,-z
1/2-x,1/4+y,3/4+z
1/4+x,1/2-y,3/4+z
loop_
_atom_site_type_symbol
_atom_site_label
_atom_site_fract_x
_atom_site_fract_y
_atom_site_fract_z
Si Si1 0.842537 0.213594 0.184705
Si Si2 0.625000 0.125000 0.887765
Si Si3 0.430638 0.069964 0.402311
Si Si4 0.256567 0.875000 0.375000
Si Si5 0.488155 0.192794 0.467424
Si Si6 0.171491 0.292948 0.806372
Si Si7 0.580203 0.552617 0.009818
O O1 0.846131 0.290941 0.143240
O O2 0.783297 0.222033 0.208490
O O3 0.864956 0.102498 0.182540
O O4 0.888920 0.260158 0.217041
O O5 0.583542 0.187871 0.919039
O O6 0.375000 0.092828 0.375000
O O7 0.467632 0.162522 0.417084
O O8 0.459027 0.975415 0.379086
O O9 0.424407 0.030792 0.453447
O O10 0.217556 0.891586 0.417957
O O11 0.440973 0.216955 0.504453
O O12 0.526494 0.108446 0.491576
O O13 0.625000 0.625000 0.032026
#
# Coordination Sequence:
#
# PCOD9514232 Si02
#       7
#    32  16  32  16  32  32  32
#     4  11  21  40  60  89 128 164 203 256 323 382
#     4  12  22  40  62  94 116 164 220 262 298 384
#     4  12  23  33  54  96 135 159 203 255 319 392
#     4  12  21  32  58  94 122 162 197 260 322 382
#     4  11  22  38  61  85 124 173 201 245 328 387
#     4  12  24  38  63  89 123 165 215 262 315 375
#     4  10  18  33  56  83 123 165 192 238 327 391
#
# _framework density 19.682454
#
# number of rings (size 3 to 8) (size 9 to 14) (size 15 to 20)
#    0.000    0.667    7.500    3.750    2.333    0.000 
#    0.000    0.833    0.000    2.000    0.000    0.000 
#    0.000    0.000    0.000    0.000    0.000    0.000 
#
# Total GULP energy -267308.796337 kJ/mol
# GULP energy per Si atom -5568.933257 kJ/mol
# Density = 1.963766 g / cm^3
# Si number density = 19.682454 Si / 1000 Ang^3
#
#
#
# Elastic Constant Matrix: (Units=GPa)
#
#
# Indices 1 2 3 4 5 6 
#
# 1 88.6369 31.6378 47.3553 0.0000 0.0000 0.0000
# 2 31.6378 47.5824 22.8855 0.0000 0.0000 0.0000
# 3 47.3553 22.8855 65.1133 0.0000 0.0000 0.0000
# 4 0.0000 0.0000 0.0000 21.9847 0.0000 0.0000
# 5 0.0000 0.0000 0.0000 0.0000 16.5521 0.0000
# 6 0.0000 0.0000 0.0000 0.0000 0.0000 20.3385
#
#
#
# Elastic Compliance Matrix: (Units=1/GPa)
#
#
# Indices 1 2 3 4 5 6 
#
# 1 0.020614 -0.007817 -0.012245 0.000000 0.000000 0.000000
# 2 -0.007817 0.028256 -0.004246 0.000000 0.000000 0.000000
# 3 -0.012245 -0.004246 0.025755 0.000000 0.000000 0.000000
# 4 0.000000 0.000000 0.000000 0.045486 0.000000 0.000000
# 5 0.000000 0.000000 0.000000 0.000000 0.060415 0.000000
# 6 0.000000 0.000000 0.000000 0.000000 0.000000 0.049168
#
#
# Mechanical properties :
#
#
# Convention : Reuss Voigt Hill
#
# Bulk Modulus (GPa) = 38.44674 45.00999 41.72837
# Shear Modulus (GPa) = 17.42280 18.40531 17.91406
#
# Velocity S-wave (km/s) = 2.97845 3.06128 3.02015
# Velocity P-wave (km/s) = 5.60394 5.95088 5.78001
#
# Compressibility (1/GPa) = 0.02601000
#
# Stress axis : x y z
#
# Youngs Moduli (GPa) = 48.51063 35.39064 38.82686
#
# Poissons Ratio (x) = 0.27665 0.47542
# Poissons Ratio (y) = 0.37922 0.16486
# Poissons Ratio (z) = 0.59399 0.15027
#
# Static dielectric constant tensor:
#      x y z
#    x 1.782490 0.000000 0.000000 
#    y 0.000000 1.807820 0.000000 
#    z 0.000000 0.000000 1.746870 
# 
# From -- ./inp_files/67954.got.cif
#   From: 2010.05.17/outbox.cif.g08.bks.cpg/sg70_34_cif.got.tgz:67954.got - 2010.06.03 15:57:51.
