data_PCOD9514365
_publ_section_title
;
Structure prediction by ZEFSAII (Michael W. Deem and Ramdas Pophale) SiO2 
 PCOD9514365
Probable space group: F D D D
;
_chemical_formula_sum "Si O2"
_cell_formula_units_Z 176
_cell_length_a 28.423877
_cell_length_b 10.908278
_cell_length_c 24.371484
_cell_angle_alpha 90.000000
_cell_angle_beta 90.000000
_cell_angle_gamma 90.000000
_cell_volume 7556.513928
_symmetry_space_group_name_H-M "F D D D"
_symmetry_group_IT_number 70
_space_group.IT_coordinate_system_code '2'
_symmetry_cell_setting 'orthorhombic'
loop_
_space_group_symop_operation_xyz
x,y,z
1/4-x,1/4-y,z
x,1/4-y,1/4-z
1/4-x,y,1/4-z
-x,-y,-z
3/4+x,3/4+y,-z
-x,3/4+y,3/4+z
3/4+x,-y,3/4+z
x,1/2+y,1/2+z
1/4-x,3/4-y,1/2+z
x,3/4-y,3/4-z
1/4-x,1/2+y,3/4-z
-x,1/2-y,1/2-z
3/4+x,1/4+y,1/2-z
-x,1/4+y,1/4+z
3/4+x,1/2-y,1/4+z
1/2+x,y,1/2+z
3/4-x,1/4-y,1/2+z
1/2+x,1/4-y,3/4-z
3/4-x,y,3/4-z
1/2-x,-y,1/2-z
1/4+x,3/4+y,1/2-z
1/2-x,3/4+y,1/4+z
1/4+x,-y,1/4+z
1/2+x,1/2+y,z
3/4-x,3/4-y,z
1/2+x,3/4-y,1/4-z
3/4-x,1/2+y,1/4-z
1/2-x,1/2-y,-z
1/4+x,1/4+y,-z
1/2-x,1/4+y,3/4+z
1/4+x,1/2-y,3/4+z
loop_
_atom_site_type_symbol
_atom_site_label
_atom_site_fract_x
_atom_site_fract_y
_atom_site_fract_z
Si Si1 0.377830 0.598737 0.755574
Si Si2 0.017659 0.866413 0.482332
Si Si3 0.545452 0.625000 0.625000
Si Si4 0.875000 0.167403 0.875000
Si Si5 0.033989 0.709352 0.914951
Si Si6 0.210734 0.985565 0.296699
Si Si7 0.625000 0.125000 0.967299
O O1 0.427603 0.589992 0.724865
O O2 0.375623 0.585104 0.820779
O O3 0.340463 0.503918 0.730389
O O4 0.368825 0.748525 0.750632
O O5 0.986796 0.845293 0.428007
O O6 0.006642 0.802121 0.540299
O O7 0.000000 0.000000 0.500000
O O8 0.579823 0.742136 0.631223
O O9 0.046638 0.849433 0.928533
O O10 0.024872 0.689310 0.850851
O O11 0.077728 0.622930 0.931424
O O12 0.250000 0.000000 0.250000
#
# Coordination Sequence:
#
# PCOD9514365 Si02
#       7
#    32  32  16  16  32  32  16
#     4  11  23  39  64 100 132 175 229 284 352 414
#     4  12  23  39  63 105 139 171 219 291 359 415
#     4  11  22  36  60  98 140 172 208 278 363 428
#     4  11  20  36  64  92 131 176 218 279 352 412
#     4  10  22  42  65  92 131 172 222 278 335 402
#     4  10  24  45  66  87 129 186 228 267 331 418
#     4  10  18  39  64  90 132 167 214 280 340 414
#
# _framework density 23.291163000000001
#
# number of rings (size 3 to 8) (size 9 to 14) (size 15 to 20)
#    0.000    1.273    3.636    3.273    2.545    4.364 
#    3.273    0.000    0.000    2.182    0.000    0.000 
#    0.000    0.000    0.000    0.000    0.000    0.000 
#
# Total GULP energy -245241.289282 kJ/mol
# GULP energy per Si atom -5573.665665 kJ/mol
# Density = 2.323815 g / cm^3
# Si number density = 23.291163 Si / 1000 Ang^3
#
#
#
# Elastic Constant Matrix: (Units=GPa)
#
#
# Indices 1 2 3 4 5 6 
#
# 1 158.2158 2.4868 69.1099 0.0000 0.0000 0.0000
# 2 2.4868 20.8855 10.1017 0.0000 0.0000 0.0000
# 3 69.1099 10.1017 190.5523 0.0000 0.0000 0.0000
# 4 0.0000 0.0000 0.0000 7.1472 0.0000 0.0000
# 5 0.0000 0.0000 0.0000 0.0000 -158.8352 0.0000
# 6 0.0000 0.0000 0.0000 0.0000 0.0000 16.8073
#
#
#
# Elastic Compliance Matrix: (Units=1/GPa)
#
#
# Indices 1 2 3 4 5 6 
#
# 1 0.007514 0.000435 -0.002748 0.000000 0.000000 0.000000
# 2 0.000435 0.049165 -0.002764 0.000000 0.000000 0.000000
# 3 -0.002748 -0.002764 0.006391 0.000000 0.000000 0.000000
# 4 0.000000 0.000000 0.000000 0.139916 0.000000 0.000000
# 5 0.000000 0.000000 0.000000 0.000000 -0.006296 0.000000
# 6 0.000000 0.000000 0.000000 0.000000 0.000000 0.059498
#
#
# Mechanical properties :
#
#
# Convention : Reuss Voigt Hill
#
# Bulk Modulus (GPa) = 18.89820 59.22781 39.06301
# Shear Modulus (GPa) = 17.60677 -7.77912 4.91382
#
# Velocity S-wave (km/s) = 2.75242 -1.82953 1.45407
# Velocity P-wave (km/s) = 4.26997 4.58493 4.43025
#
# Compressibility (1/GPa) = 0.05291509
#
# Stress axis : x y z
#
# Youngs Moduli (GPa) = 133.08283 20.33961 156.46572
#
# Poissons Ratio (x) = -0.00884 0.43001
# Poissons Ratio (y) = -0.05783 0.43247
# Poissons Ratio (z) = 0.36575 0.05622
#
# Static dielectric constant tensor:
#      x y z
#    x 3.402540 0.000000 0.000000 
#    y 0.000000 2.006400 0.000000 
#    z 0.000000 0.000000 2.050360 
# 
# From -- ./inp_files/55017.got.cif
#   From: 2010.05.17/outbox.cif.g08.bks.cpg/sg70_28_cif.got.tgz:55017.got - 2010.06.03 15:57:51.
