data_PCOD9514923
_publ_section_title
;
Structure prediction by ZEFSAII (Michael W. Deem and Ramdas Pophale) SiO2 
 PCOD9514923
Probable space group: F D D D
;
_chemical_formula_sum "Si O2"
_cell_formula_units_Z 112
_cell_length_a 15.430994
_cell_length_b 9.921577
_cell_length_c 28.563672
_cell_angle_alpha 90.000000
_cell_angle_beta 90.000000
_cell_angle_gamma 90.000000
_cell_volume 4373.092332
_symmetry_space_group_name_H-M "F D D D"
_symmetry_group_IT_number 70
_space_group.IT_coordinate_system_code '2'
_symmetry_cell_setting 'orthorhombic'
loop_
_space_group_symop_operation_xyz
x,y,z
1/4-x,1/4-y,z
x,1/4-y,1/4-z
1/4-x,y,1/4-z
-x,-y,-z
3/4+x,3/4+y,-z
-x,3/4+y,3/4+z
3/4+x,-y,3/4+z
x,1/2+y,1/2+z
1/4-x,3/4-y,1/2+z
x,3/4-y,3/4-z
1/4-x,1/2+y,3/4-z
-x,1/2-y,1/2-z
3/4+x,1/4+y,1/2-z
-x,1/4+y,1/4+z
3/4+x,1/2-y,1/4+z
1/2+x,y,1/2+z
3/4-x,1/4-y,1/2+z
1/2+x,1/4-y,3/4-z
3/4-x,y,3/4-z
1/2-x,-y,1/2-z
1/4+x,3/4+y,1/2-z
1/2-x,3/4+y,1/4+z
1/4+x,-y,1/4+z
1/2+x,1/2+y,z
3/4-x,3/4-y,z
1/2+x,3/4-y,1/4-z
3/4-x,1/2+y,1/4-z
1/2-x,1/2-y,-z
1/4+x,1/4+y,-z
1/2-x,1/4+y,3/4+z
1/4+x,1/2-y,3/4+z
loop_
_atom_site_type_symbol
_atom_site_label
_atom_site_fract_x
_atom_site_fract_y
_atom_site_fract_z
Si Si1 0.047808 0.812803 0.204216
Si Si2 0.258865 0.625000 0.125000
Si Si3 0.755322 0.857869 0.695574
Si Si4 0.719818 0.598466 0.053821
O O1 0.150683 0.844539 0.205959
O O2 0.000000 0.750000 0.250000
O O3 0.041520 0.704254 0.164298
O O4 0.999845 0.948048 0.185230
O O5 0.291264 0.751507 0.157877
O O6 0.789934 0.833994 0.747656
O O7 0.770700 0.015947 0.684307
O O8 0.625000 0.625000 0.074152
#
# Coordination Sequence:
#
# PCOD9514923 Si02
#       4
#    32  16  32  32
#     4  11  21  35  60  90 121 159 200 255 314 364
#     4  12  23  36  62  94 116 154 215 258 297 382
#     4  10  20  37  60  87 120 156 207 252 302 374
#     4   9  20  37  60  82 117 161 196 247 316 366
#
# _framework density 25.611166999999998
#
# number of rings (size 3 to 8) (size 9 to 14) (size 15 to 20)
#    0.000    1.714    2.857    2.571    0.000    1.143 
#    0.000    4.286    6.286    0.000    0.000    0.000 
#    0.000    0.000    0.000    0.000    0.000    0.000 
#
# Total GULP energy -156024.146507 kJ/mol
# GULP energy per Si atom -5572.290947 kJ/mol
# Density = 2.555288 g / cm^3
# Si number density = 25.611167 Si / 1000 Ang^3
#
#
#
# Elastic Constant Matrix: (Units=GPa)
#
#
# Indices 1 2 3 4 5 6 
#
# 1 89.9208 12.5949 48.2861 0.0000 0.0000 0.0000
# 2 12.5949 244.6458 67.2142 0.0000 0.0000 0.0000
# 3 48.2861 67.2142 150.8507 0.0000 0.0000 0.0000
# 4 0.0000 0.0000 0.0000 54.6005 0.0000 0.0000
# 5 0.0000 0.0000 0.0000 0.0000 -1.1394 0.0000
# 6 0.0000 0.0000 0.0000 0.0000 0.0000 6.4759
#
#
#
# Elastic Compliance Matrix: (Units=1/GPa)
#
#
# Indices 1 2 3 4 5 6 
#
# 1 0.013496 0.000561 -0.004570 0.000000 0.000000 0.000000
# 2 0.000561 0.004681 -0.002265 0.000000 0.000000 0.000000
# 3 -0.004570 -0.002265 0.009101 0.000000 0.000000 0.000000
# 4 0.000000 0.000000 0.000000 0.018315 0.000000 0.000000
# 5 0.000000 0.000000 0.000000 0.000000 -0.877648 0.000000
# 6 0.000000 0.000000 0.000000 0.000000 0.000000 0.154418
#
#
# Mechanical properties :
#
#
# Convention : Reuss Voigt Hill
#
# Bulk Modulus (GPa) = 67.88985 82.40087 75.14536
# Shear Modulus (GPa) = -7.57371 35.80888 14.11758
#
# Velocity S-wave (km/s) = -1.72151 3.74327 2.35037
# Velocity P-wave (km/s) = 4.75542 7.13628 6.06384
#
# Compressibility (1/GPa) = 0.01472974
#
# Stress axis : x y z
#
# Youngs Moduli (GPa) = 74.09425 213.62881 109.87613
#
# Poissons Ratio (x) = -0.11979 0.50212
# Poissons Ratio (y) = -0.04155 0.24889
# Poissons Ratio (z) = 0.33860 0.48391
#
# Static dielectric constant tensor:
#      x y z
#    x 2.157730 0.000000 0.000000 
#    y 0.000000 2.012190 0.000000 
#    z 0.000000 0.000000 1.989090 
# 
# From -- ./inp_files/59225.got.cif
#   From: 2010.05.17/outbox.cif.g08.bks.cpg/sg70_30_cif.got.tgz:59225.got - 2010.06.03 15:57:51.
