data_PCOD9514495
_publ_section_title
;
Structure prediction by ZEFSAII (Michael W. Deem and Ramdas Pophale) SiO2 
 PCOD9514495
Probable space group: F D D D
;
_chemical_formula_sum "Si O2"
_cell_formula_units_Z 80
_cell_length_a 5.311942
_cell_length_b 20.590502
_cell_length_c 32.887662
_cell_angle_alpha 90.000000
_cell_angle_beta 90.000000
_cell_angle_gamma 90.000000
_cell_volume 3597.106198
_symmetry_space_group_name_H-M "F D D D"
_symmetry_group_IT_number 70
_space_group.IT_coordinate_system_code '2'
_symmetry_cell_setting 'orthorhombic'
loop_
_space_group_symop_operation_xyz
x,y,z
1/4-x,1/4-y,z
x,1/4-y,1/4-z
1/4-x,y,1/4-z
-x,-y,-z
3/4+x,3/4+y,-z
-x,3/4+y,3/4+z
3/4+x,-y,3/4+z
x,1/2+y,1/2+z
1/4-x,3/4-y,1/2+z
x,3/4-y,3/4-z
1/4-x,1/2+y,3/4-z
-x,1/2-y,1/2-z
3/4+x,1/4+y,1/2-z
-x,1/4+y,1/4+z
3/4+x,1/2-y,1/4+z
1/2+x,y,1/2+z
3/4-x,1/4-y,1/2+z
1/2+x,1/4-y,3/4-z
3/4-x,y,3/4-z
1/2-x,-y,1/2-z
1/4+x,3/4+y,1/2-z
1/2-x,3/4+y,1/4+z
1/4+x,-y,1/4+z
1/2+x,1/2+y,z
3/4-x,3/4-y,z
1/2+x,3/4-y,1/4-z
3/4-x,1/2+y,1/4-z
1/2-x,1/2-y,-z
1/4+x,1/4+y,-z
1/2-x,1/4+y,3/4+z
1/4+x,1/2-y,3/4+z
loop_
_atom_site_type_symbol
_atom_site_label
_atom_site_fract_x
_atom_site_fract_y
_atom_site_fract_z
Si Si1 0.125000 0.625000 0.262489
Si Si2 0.375000 0.375000 0.651726
Si Si3 0.375000 0.375000 0.957132
Si Si4 0.660331 0.264881 0.546014
O O1 0.373182 0.618637 0.234786
O O2 0.166993 0.689366 0.289441
O O3 0.625000 0.378366 0.625000
O O4 0.846509 0.311491 0.570249
O O5 0.365670 0.306012 0.934345
O O6 0.750000 0.250000 0.500000
#
# Coordination Sequence:
#
# PCOD9514495 Si02
#       4
#    16  16  16  32
#     4  10  19  34  62 103 135 165 219 289 337 386
#     4  12  28  46  68 101 147 187 221 281 364 421
#     4  10  21  34  63 102 130 162 227 298 329 367
#     4  10  21  42  70  99 131 180 235 279 327 413
#
# _framework density 22.240100000000002
#
# number of rings (size 3 to 8) (size 9 to 14) (size 15 to 20)
#    0.000    1.600    0.000    7.200    0.000    9.600 
#    0.000    1.000    0.000    7.200    0.000    0.000 
#    0.000    0.000    0.000    0.000    0.000    0.000 
#
# Total GULP energy -111671.948092 kJ/mol
# GULP energy per Si atom -5583.597405 kJ/mol
# Density = 2.218948 g / cm^3
# Si number density = 22.240100 Si / 1000 Ang^3
#
#
#
# Elastic Constant Matrix: (Units=GPa)
#
#
# Indices 1 2 3 4 5 6 
#
# 1 169.6564 45.8251 49.2162 0.0000 0.0000 0.0000
# 2 45.8251 267.5441 45.0932 0.0000 0.0000 0.0000
# 3 49.2162 45.0932 81.6001 0.0000 0.0000 0.0000
# 4 0.0000 0.0000 0.0000 -549.3850 0.0000 0.0000
# 5 0.0000 0.0000 0.0000 0.0000 -7.1555 0.0000
# 6 0.0000 0.0000 0.0000 0.0000 0.0000 40.8004
#
#
#
# Elastic Compliance Matrix: (Units=1/GPa)
#
#
# Indices 1 2 3 4 5 6 
#
# 1 0.007218 -0.000554 -0.004047 0.000000 0.000000 0.000000
# 2 -0.000554 0.004164 -0.001967 0.000000 0.000000 0.000000
# 3 -0.004047 -0.001967 0.015783 0.000000 0.000000 0.000000
# 4 0.000000 0.000000 0.000000 -0.001820 0.000000 0.000000
# 5 0.000000 0.000000 0.000000 0.000000 -0.139752 0.000000
# 6 0.000000 0.000000 0.000000 0.000000 0.000000 0.024510
#
#
# Mechanical properties :
#
#
# Convention : Reuss Voigt Hill
#
# Bulk Modulus (GPa) = 71.28391 88.78550 80.03470
# Shear Modulus (GPa) = -69.36293 -77.90363 -73.63328
#
# Velocity S-wave (km/s) = -5.59070 -5.92490 -5.76023
# Velocity P-wave (km/s) = 3.09080 2.60729 2.85928
#
# Compressibility (1/GPa) = 0.01402841
#
# Stress axis : x y z
#
# Youngs Moduli (GPa) = 138.54199 240.14609 63.35977
#
# Poissons Ratio (x) = 0.13308 0.25643
# Poissons Ratio (y) = 0.07678 0.12462
# Poissons Ratio (z) = 0.56071 0.47235
#
# Static dielectric constant tensor:
#      x y z
#    x 1.846820 0.000000 0.000000 
#    y 0.000000 1.933930 0.000000 
#    z 0.000000 0.000000 1.841610 
# 
# From -- ./inp_files/3765.got.cif
#   From: 2010.05.17/outbox.cif.g08.bks.cpg/sg70_2_cif.got.tgz:3765.got - 2010.06.03 15:57:51.
