data_PCOD9514641
_publ_section_title
;
Structure prediction by ZEFSAII (Michael W. Deem and Ramdas Pophale) SiO2 
 PCOD9514641
Probable space group: F D D D
;
_chemical_formula_sum "Si O2"
_cell_formula_units_Z 176
_cell_length_a 22.041004
_cell_length_b 19.574689
_cell_length_c 19.033484
_cell_angle_alpha 90.000000
_cell_angle_beta 90.000000
_cell_angle_gamma 90.000000
_cell_volume 8211.916704
_symmetry_space_group_name_H-M "F D D D"
_symmetry_group_IT_number 70
_space_group.IT_coordinate_system_code '2'
_symmetry_cell_setting 'orthorhombic'
loop_
_space_group_symop_operation_xyz
x,y,z
1/4-x,1/4-y,z
x,1/4-y,1/4-z
1/4-x,y,1/4-z
-x,-y,-z
3/4+x,3/4+y,-z
-x,3/4+y,3/4+z
3/4+x,-y,3/4+z
x,1/2+y,1/2+z
1/4-x,3/4-y,1/2+z
x,3/4-y,3/4-z
1/4-x,1/2+y,3/4-z
-x,1/2-y,1/2-z
3/4+x,1/4+y,1/2-z
-x,1/4+y,1/4+z
3/4+x,1/2-y,1/4+z
1/2+x,y,1/2+z
3/4-x,1/4-y,1/2+z
1/2+x,1/4-y,3/4-z
3/4-x,y,3/4-z
1/2-x,-y,1/2-z
1/4+x,3/4+y,1/2-z
1/2-x,3/4+y,1/4+z
1/4+x,-y,1/4+z
1/2+x,1/2+y,z
3/4-x,3/4-y,z
1/2+x,3/4-y,1/4-z
3/4-x,1/2+y,1/4-z
1/2-x,1/2-y,-z
1/4+x,1/4+y,-z
1/2-x,1/4+y,3/4+z
1/4+x,1/2-y,3/4+z
loop_
_atom_site_type_symbol
_atom_site_label
_atom_site_fract_x
_atom_site_fract_y
_atom_site_fract_z
Si Si1 0.375000 0.265631 0.375000
Si Si2 0.871365 0.693898 0.515854
Si Si3 0.294329 0.922354 0.574435
Si Si4 0.746934 0.445633 0.839817
Si Si5 0.922405 0.284000 0.143698
Si Si6 0.471427 0.653360 0.200851
O O1 0.356925 0.217591 0.310066
O O2 0.430228 0.307116 0.339677
O O3 0.798428 0.698472 0.523233
O O4 0.898840 0.744235 0.575178
O O5 0.902260 0.621578 0.533254
O O6 0.299106 0.856911 0.626486
O O7 0.363097 0.947405 0.560342
O O8 0.261577 0.886767 0.508222
O O9 0.265968 0.987886 0.612266
O O10 0.726183 0.375000 0.875000
O O11 0.966331 0.234270 0.187007
O O12 0.490173 0.625000 0.125000
#
# Coordination Sequence:
#
# PCOD9514641 Si02
#       6
#    16  32  32  32  32  32
#     4  12  23  42  58  94 122 163 222 272 319 402
#     4  10  21  41  63  89 126 169 210 263 332 390
#     4  10  19  39  64  90 124 165 215 261 324 401
#     4  11  23  43  63  90 127 172 216 273 330 395
#     4   9  20  37  64  91 123 169 208 264 328 392
#     4  10  19  38  65  92 125 166 212 257 328 402
#
# _framework density 21.432268000000001
#
# number of rings (size 3 to 8) (size 9 to 14) (size 15 to 20)
#    0.000    1.818    1.818    4.091    0.000    0.000 
#   16.364    3.636    0.000    0.000    0.000    0.000 
#    0.000    0.000    0.000    0.000    0.000    0.000 
#
# Total GULP energy -244984.721554 kJ/mol
# GULP energy per Si atom -5567.834581 kJ/mol
# Density = 2.138349 g / cm^3
# Si number density = 21.432268 Si / 1000 Ang^3
#
#
#
# Elastic Constant Matrix: (Units=GPa)
#
#
# Indices 1 2 3 4 5 6 
#
# 1 50.4759 8.1447 25.3984 0.0000 0.0000 0.0000
# 2 8.1447 135.9684 6.2148 0.0000 0.0000 0.0000
# 3 25.3984 6.2148 73.7922 0.0000 0.0000 0.0000
# 4 0.0000 0.0000 0.0000 15.9821 0.0000 0.0000
# 5 0.0000 0.0000 0.0000 0.0000 26.5981 0.0000
# 6 0.0000 0.0000 0.0000 0.0000 0.0000 -8.4277
#
#
#
# Elastic Compliance Matrix: (Units=1/GPa)
#
#
# Indices 1 2 3 4 5 6 
#
# 1 0.024115 -0.001069 -0.008210 0.000000 0.000000 0.000000
# 2 -0.001069 0.007430 -0.000258 0.000000 0.000000 0.000000
# 3 -0.008210 -0.000258 0.016399 0.000000 0.000000 0.000000
# 4 0.000000 0.000000 0.000000 0.062570 0.000000 0.000000
# 5 0.000000 0.000000 0.000000 0.000000 0.037597 0.000000
# 6 0.000000 0.000000 0.000000 0.000000 0.000000 -0.118656
#
#
# Mechanical properties :
#
#
# Convention : Reuss Voigt Hill
#
# Bulk Modulus (GPa) = 34.63748 37.75025 36.19386
# Shear Modulus (GPa) = 85.97977 21.52905 53.75441
#
# Velocity S-wave (km/s) = 6.34067 3.17285 5.01353
# Velocity P-wave (km/s) = 8.35475 5.57446 7.10199
#
# Compressibility (1/GPa) = 0.02887046
#
# Stress axis : x y z
#
# Youngs Moduli (GPa) = 41.46773 134.58073 60.97895
#
# Poissons Ratio (x) = 0.14390 0.50064
# Poissons Ratio (y) = 0.04434 0.01572
# Poissons Ratio (z) = 0.34045 0.03469
#
# Static dielectric constant tensor:
#      x y z
#    x 1.888250 0.000000 0.000000 
#    y 0.000000 1.848510 0.000000 
#    z 0.000000 0.000000 1.784290 
# 
# From -- ./inp_files/38527.got.cif
#   From: 2010.05.17/outbox.cif.g08.bks.cpg/sg70_20_cif.got.tgz:38527.got - 2010.06.03 15:57:51.
