data_PCOD9514701
_publ_section_title
;
Structure prediction by ZEFSAII (Michael W. Deem and Ramdas Pophale) SiO2 
 PCOD9514701
Probable space group: F D D D
;
_chemical_formula_sum "Si O2"
_cell_formula_units_Z 136
_cell_length_a 25.761750
_cell_length_b 23.415623
_cell_length_c 10.878407
_cell_angle_alpha 90.000000
_cell_angle_beta 90.000000
_cell_angle_gamma 90.000000
_cell_volume 6562.153452
_symmetry_space_group_name_H-M "F D D D"
_symmetry_group_IT_number 70
_space_group.IT_coordinate_system_code '2'
_symmetry_cell_setting 'orthorhombic'
loop_
_space_group_symop_operation_xyz
x,y,z
1/4-x,1/4-y,z
x,1/4-y,1/4-z
1/4-x,y,1/4-z
-x,-y,-z
3/4+x,3/4+y,-z
-x,3/4+y,3/4+z
3/4+x,-y,3/4+z
x,1/2+y,1/2+z
1/4-x,3/4-y,1/2+z
x,3/4-y,3/4-z
1/4-x,1/2+y,3/4-z
-x,1/2-y,1/2-z
3/4+x,1/4+y,1/2-z
-x,1/4+y,1/4+z
3/4+x,1/2-y,1/4+z
1/2+x,y,1/2+z
3/4-x,1/4-y,1/2+z
1/2+x,1/4-y,3/4-z
3/4-x,y,3/4-z
1/2-x,-y,1/2-z
1/4+x,3/4+y,1/2-z
1/2-x,3/4+y,1/4+z
1/4+x,-y,1/4+z
1/2+x,1/2+y,z
3/4-x,3/4-y,z
1/2+x,3/4-y,1/4-z
3/4-x,1/2+y,1/4-z
1/2-x,1/2-y,-z
1/4+x,1/4+y,-z
1/2-x,1/4+y,3/4+z
1/4+x,1/2-y,3/4+z
loop_
_atom_site_type_symbol
_atom_site_label
_atom_site_fract_x
_atom_site_fract_y
_atom_site_fract_z
Si Si1 0.925700 0.787198 0.190107
Si Si2 0.567984 0.730922 0.354886
Si Si3 0.875000 0.875000 0.375000
Si Si4 0.543924 0.794399 0.607906
Si Si5 0.771583 0.657013 0.996132
O O1 0.878123 0.784653 0.096646
O O2 0.911070 0.836702 0.287010
O O3 0.928381 0.729543 0.271681
O O4 0.981853 0.792909 0.130155
O O5 0.557335 0.752981 0.494041
O O6 0.530501 0.678626 0.320752
O O7 0.553029 0.785272 0.272579
O O8 0.554268 0.860142 0.577701
O O9 0.759089 0.625000 0.125000
#
# Coordination Sequence:
#
# PCOD9514701 Si02
#       5
#    32  32   8  32  32
#     4  11  22  36  62  89 119 156 202 248 301 358
#     4  10  19  41  60  87 120 157 200 244 305 355
#     4  12  20  36  64  84 118 160 196 260 290 360
#     4  10  21  38  57  89 121 154 199 251 297 361
#     4   9  20  38  63  83 121 159 194 251 300 359
#
# _framework density 20.724903000000001
#
# number of rings (size 3 to 8) (size 9 to 14) (size 15 to 20)
#    0.000    1.882    2.353    1.412    0.000    0.000 
#    0.000   25.882    0.000    0.000    0.000    0.000 
#    0.000    0.000    0.000    0.000    0.000    0.000 
#
# Total GULP energy -189921.490997 kJ/mol
# GULP energy per Si atom -5585.926206 kJ/mol
# Density = 2.067773 g / cm^3
# Si number density = 20.724903 Si / 1000 Ang^3
#
#
#
# Elastic Constant Matrix: (Units=GPa)
#
#
# Indices 1 2 3 4 5 6 
#
# 1 99.1330 0.6713 9.9661 -0.0001 0.0001 0.0001
# 2 0.6713 87.8413 7.4005 -0.0002 0.0002 0.0001
# 3 9.9661 7.4005 11.9517 -0.0006 0.0005 0.0003
# 4 -0.0001 -0.0002 -0.0006 23.7539 0.0002 0.0001
# 5 0.0001 0.0002 0.0005 0.0002 29.4647 -0.0001
# 6 0.0001 0.0001 0.0003 0.0001 -0.0001 14.0309
#
#
#
# Elastic Compliance Matrix: (Units=1/GPa)
#
#
# Indices 1 2 3 4 5 6 
#
# 1 0.011055 0.000730 -0.009670 0.000000 0.000000 0.000000
# 2 0.000730 0.012059 -0.008076 0.000000 0.000000 0.000000
# 3 -0.009670 -0.008076 0.096735 0.000002 -0.000002 -0.000002
# 4 0.000000 0.000000 0.000002 0.042098 0.000000 0.000000
# 5 0.000000 0.000000 -0.000002 0.000000 0.033939 0.000000
# 6 0.000000 0.000000 -0.000002 0.000000 0.000000 0.071271
#
#
# Mechanical properties :
#
#
# Convention : Reuss Voigt Hill
#
# Bulk Modulus (GPa) = 11.65278 26.11132 18.88205
# Shear Modulus (GPa) = 15.16098 25.50912 20.33505
#
# Velocity S-wave (km/s) = 2.70762 3.51214 3.13579
# Velocity P-wave (km/s) = 3.92553 5.39196 4.71609
#
# Compressibility (1/GPa) = 0.08581646
#
# Stress axis : x y z
#
# Youngs Moduli (GPa) = 90.45928 82.92594 10.33756
#
# Poissons Ratio (x) = -0.06055 0.09997
# Poissons Ratio (y) = -0.06606 0.08348
# Poissons Ratio (z) = 0.87477 0.66969
#
# Static dielectric constant tensor:
#      x y z
#    x 1.716020 0.000000 0.000000 
#    y 0.000000 1.752560 0.000000 
#    z 0.000000 0.000000 1.757040 
# 
# From -- ./inp_files/17653.got.cif
#   From: 2010.05.17/outbox.cif.g08.bks.cpg/sg70_9_cif.got.tgz:17653.got - 2010.06.03 15:57:51.
