data_PCOD9514866
_publ_section_title
;
Structure prediction by ZEFSAII (Michael W. Deem and Ramdas Pophale) SiO2 
 PCOD9514866
Probable space group: F D D D
;
_chemical_formula_sum "Si O2"
_cell_formula_units_Z 176
_cell_length_a 14.523501
_cell_length_b 24.579253
_cell_length_c 19.745729
_cell_angle_alpha 90.000000
_cell_angle_beta 90.000000
_cell_angle_gamma 90.000000
_cell_volume 7048.767261
_symmetry_space_group_name_H-M "F D D D"
_symmetry_group_IT_number 70
_space_group.IT_coordinate_system_code '2'
_symmetry_cell_setting 'orthorhombic'
loop_
_space_group_symop_operation_xyz
x,y,z
1/4-x,1/4-y,z
x,1/4-y,1/4-z
1/4-x,y,1/4-z
-x,-y,-z
3/4+x,3/4+y,-z
-x,3/4+y,3/4+z
3/4+x,-y,3/4+z
x,1/2+y,1/2+z
1/4-x,3/4-y,1/2+z
x,3/4-y,3/4-z
1/4-x,1/2+y,3/4-z
-x,1/2-y,1/2-z
3/4+x,1/4+y,1/2-z
-x,1/4+y,1/4+z
3/4+x,1/2-y,1/4+z
1/2+x,y,1/2+z
3/4-x,1/4-y,1/2+z
1/2+x,1/4-y,3/4-z
3/4-x,y,3/4-z
1/2-x,-y,1/2-z
1/4+x,3/4+y,1/2-z
1/2-x,3/4+y,1/4+z
1/4+x,-y,1/4+z
1/2+x,1/2+y,z
3/4-x,3/4-y,z
1/2+x,3/4-y,1/4-z
3/4-x,1/2+y,1/4-z
1/2-x,1/2-y,-z
1/4+x,1/4+y,-z
1/2-x,1/4+y,3/4+z
1/4+x,1/2-y,3/4+z
loop_
_atom_site_type_symbol
_atom_site_label
_atom_site_fract_x
_atom_site_fract_y
_atom_site_fract_z
Si Si1 0.023660 0.877059 0.753023
Si Si2 0.966830 0.162399 0.709855
Si Si3 0.375000 0.140477 0.875000
Si Si4 0.993978 0.052945 0.759987
Si Si5 0.872316 0.955364 0.723442
Si Si6 0.179195 0.222996 0.424580
O O1 0.112395 0.889905 0.797129
O O2 0.063238 0.890985 0.678536
O O3 0.942195 0.918482 0.767074
O O4 0.977195 0.817292 0.745939
O O5 0.018542 0.104398 0.711869
O O6 0.971832 0.216724 0.664781
O O7 0.998312 0.187463 0.782896
O O8 0.304617 0.174814 0.828589
O O9 0.088122 0.022232 0.777842
O O10 0.912724 0.015052 0.732614
O O11 0.890276 0.945962 0.643609
#
# Coordination Sequence:
#
# PCOD9514866 Si02
#       6
#    32  32  16  32  32  32
#     4  10  20  37  59  95 112 163 208 259 299 375
#     4  10  23  39  64  89 129 160 211 253 320 378
#     4  10  20  36  62  83 116 151 208 248 308 370
#     4  11  22  40  62  93 122 163 206 261 315 380
#     4  11  22  36  66  87 127 160 212 260 316 372
#     4  11  22  42  61  95 126 166 203 267 316 378
#
# _framework density 24.968906
#
# number of rings (size 3 to 8) (size 9 to 14) (size 15 to 20)
#    0.000    1.455    3.636    2.727    2.545    3.636 
#    0.000    0.000    0.000    4.364    0.000    0.000 
#    0.000    0.000    0.000    0.000    0.000    0.000 
#
# Total GULP energy -245194.138602 kJ/mol
# GULP energy per Si atom -5572.594059 kJ/mol
# Density = 2.491208 g / cm^3
# Si number density = 24.968906 Si / 1000 Ang^3
#
#
#
# Elastic Constant Matrix: (Units=GPa)
#
#
# Indices 1 2 3 4 5 6 
#
# 1 125.9324 19.8242 14.4173 0.0000 0.0000 0.0000
# 2 19.8242 133.1868 6.5042 0.0000 0.0000 0.0000
# 3 14.4173 6.5042 29.5924 0.0000 0.0000 0.0000
# 4 0.0000 0.0000 0.0000 17.4197 0.0000 0.0000
# 5 0.0000 0.0000 0.0000 0.0000 13.3774 0.0000
# 6 0.0000 0.0000 0.0000 0.0000 0.0000 48.8539
#
#
#
# Elastic Compliance Matrix: (Units=1/GPa)
#
#
# Indices 1 2 3 4 5 6 
#
# 1 0.008561 -0.001082 -0.003933 0.000000 0.000000 0.000000
# 2 -0.001082 0.007727 -0.001171 0.000000 0.000000 0.000000
# 3 -0.003933 -0.001171 0.035966 0.000000 0.000000 0.000000
# 4 0.000000 0.000000 0.000000 0.057406 0.000000 0.000000
# 5 0.000000 0.000000 0.000000 0.000000 0.074753 0.000000
# 6 0.000000 0.000000 0.000000 0.000000 0.000000 0.020469
#
#
# Mechanical properties :
#
#
# Convention : Reuss Voigt Hill
#
# Bulk Modulus (GPa) = 25.07450 41.13365 33.10408
# Shear Modulus (GPa) = 21.68739 32.46128 27.07434
#
# Velocity S-wave (km/s) = 2.95036 3.60956 3.29648
# Velocity P-wave (km/s) = 4.65513 5.82079 5.27029
#
# Compressibility (1/GPa) = 0.03988116
#
# Stress axis : x y z
#
# Youngs Moduli (GPa) = 116.80303 129.42434 27.80400
#
# Poissons Ratio (x) = 0.14007 0.10936
# Poissons Ratio (y) = 0.12641 0.03256
# Poissons Ratio (z) = 0.45941 0.15155
#
# Static dielectric constant tensor:
#      x y z
#    x 1.990540 0.000000 0.000000 
#    y 0.000000 2.023970 0.000000 
#    z 0.000000 0.000000 2.042690 
# 
# From -- ./inp_files/58583.got.cif
#   From: 2010.05.17/outbox.cif.g08.bks.cpg/sg70_30_cif.got.tgz:58583.got - 2010.06.03 15:57:51.
