data_PCOD9514117
_publ_section_title
;
Structure prediction by ZEFSAII (Michael W. Deem and Ramdas Pophale) SiO2 
 PCOD9514117
Probable space group: F D D D
;
_chemical_formula_sum "Si O2"
_cell_formula_units_Z 160
_cell_length_a 18.351304
_cell_length_b 24.983466
_cell_length_c 15.392380
_cell_angle_alpha 90.000000
_cell_angle_beta 90.000000
_cell_angle_gamma 90.000000
_cell_volume 7057.085754
_symmetry_space_group_name_H-M "F D D D"
_symmetry_group_IT_number 70
_space_group.IT_coordinate_system_code '2'
_symmetry_cell_setting 'orthorhombic'
loop_
_space_group_symop_operation_xyz
x,y,z
1/4-x,1/4-y,z
x,1/4-y,1/4-z
1/4-x,y,1/4-z
-x,-y,-z
3/4+x,3/4+y,-z
-x,3/4+y,3/4+z
3/4+x,-y,3/4+z
x,1/2+y,1/2+z
1/4-x,3/4-y,1/2+z
x,3/4-y,3/4-z
1/4-x,1/2+y,3/4-z
-x,1/2-y,1/2-z
3/4+x,1/4+y,1/2-z
-x,1/4+y,1/4+z
3/4+x,1/2-y,1/4+z
1/2+x,y,1/2+z
3/4-x,1/4-y,1/2+z
1/2+x,1/4-y,3/4-z
3/4-x,y,3/4-z
1/2-x,-y,1/2-z
1/4+x,3/4+y,1/2-z
1/2-x,3/4+y,1/4+z
1/4+x,-y,1/4+z
1/2+x,1/2+y,z
3/4-x,3/4-y,z
1/2+x,3/4-y,1/4-z
3/4-x,1/2+y,1/4-z
1/2-x,1/2-y,-z
1/4+x,1/4+y,-z
1/2-x,1/4+y,3/4+z
1/4+x,1/2-y,3/4+z
loop_
_atom_site_type_symbol
_atom_site_label
_atom_site_fract_x
_atom_site_fract_y
_atom_site_fract_z
Si Si1 0.588787 0.717760 0.260861
Si Si2 0.102047 0.426409 0.722848
Si Si3 0.815487 0.682750 0.310775
Si Si4 0.204536 0.611244 0.914658
Si Si5 0.520121 0.686005 0.095358
O O1 0.621999 0.775715 0.283091
O O2 0.562178 0.680778 0.338041
O O3 0.529420 0.718995 0.183426
O O4 0.655461 0.687741 0.210585
O O5 0.125000 0.445135 0.625000
O O6 0.145054 0.370828 0.726729
O O7 0.016645 0.413795 0.726000
O O8 0.875000 0.708587 0.375000
O O9 0.747660 0.661054 0.368872
O O10 0.786902 0.709881 0.223750
O O11 0.125000 0.625000 0.952032
O O12 0.505945 0.625000 0.125000
#
# Coordination Sequence:
#
# PCOD9514117 Si02
#       5
#    32  32  32  32  32
#     4  11  18  28  44  74 103 127 156 203 254 301
#     4   9  20  30  41  70 109 128 162 203 248 304
#     4   9  19  31  43  65 104 141 165 197 238 303
#     4  10  17  30  47  65 101 142 162 189 246 310
#     4  11  18  27  43  70 100 135 164 192 245 307
#
# _framework density 22.672248
#
# number of rings (size 3 to 8) (size 9 to 14) (size 15 to 20)
#    0.000    2.400    6.000    1.200    0.000    4.800 
#    0.000    0.000    0.000    0.000    0.000    5.600 
#    0.000    7.800    0.000    0.000    0.000    0.000 
#
# Total GULP energy -223288.522867 kJ/mol
# GULP energy per Si atom -5582.213072 kJ/mol
# Density = 2.262064 g / cm^3
# Si number density = 22.672248 Si / 1000 Ang^3
#
#
#
# Elastic Constant Matrix: (Units=GPa)
#
#
# Indices 1 2 3 4 5 6 
#
# 1 157.5559 -0.2604 25.4397 0.0000 0.0000 0.0000
# 2 -0.2604 20.4988 0.6890 0.0000 0.0000 0.0000
# 3 25.4397 0.6890 46.0193 0.0000 0.0000 0.0000
# 4 0.0000 0.0000 0.0000 10.7761 0.0000 0.0000
# 5 0.0000 0.0000 0.0000 0.0000 39.2947 0.0000
# 6 0.0000 0.0000 0.0000 0.0000 0.0000 11.7947
#
#
#
# Elastic Compliance Matrix: (Units=1/GPa)
#
#
# Indices 1 2 3 4 5 6 
#
# 1 0.006970 0.000218 -0.003856 0.000000 0.000000 0.000000
# 2 0.000218 0.048815 -0.000851 0.000000 0.000000 0.000000
# 3 -0.003856 -0.000851 0.023875 0.000000 0.000000 0.000000
# 4 0.000000 0.000000 0.000000 0.092798 0.000000 0.000000
# 5 0.000000 0.000000 0.000000 0.000000 0.025449 0.000000
# 6 0.000000 0.000000 0.000000 0.000000 0.000000 0.084784
#
#
# Mechanical properties :
#
#
# Convention : Reuss Voigt Hill
#
# Bulk Modulus (GPa) = 14.14827 30.64562 22.39694
# Shear Modulus (GPa) = 15.86151 25.58683 20.72417
#
# Velocity S-wave (km/s) = 2.64787 3.36304 3.02665
# Velocity P-wave (km/s) = 3.94996 5.35034 4.70257
#
# Compressibility (1/GPa) = 0.07068003
#
# Stress axis : x y z
#
# Youngs Moduli (GPa) = 143.47266 20.48565 41.88565
#
# Poissons Ratio (x) = -0.00447 0.16152
# Poissons Ratio (y) = -0.03130 0.03566
# Poissons Ratio (z) = 0.55327 0.01744
#
# Static dielectric constant tensor:
#      x y z
#    x 1.974480 0.000000 0.000000 
#    y 0.000000 1.892230 0.000000 
#    z 0.000000 0.000000 1.827860 
# 
# From -- ./inp_files/35392.got.cif
#   From: 2010.05.17/outbox.cif.g08.bks.cpg/sg70_18_cif.got.tgz:35392.got - 2010.06.03 15:57:51.
