data_PCOD9514984
_publ_section_title
;
Structure prediction by ZEFSAII (Michael W. Deem and Ramdas Pophale) SiO2 
 PCOD9514984
Probable space group: F D D D
;
_chemical_formula_sum "Si O2"
_cell_formula_units_Z 176
_cell_length_a 12.755892
_cell_length_b 23.434656
_cell_length_c 28.737011
_cell_angle_alpha 90.000000
_cell_angle_beta 90.000000
_cell_angle_gamma 90.000000
_cell_volume 8590.353003
_symmetry_space_group_name_H-M "F D D D"
_symmetry_group_IT_number 70
_space_group.IT_coordinate_system_code '2'
_symmetry_cell_setting 'orthorhombic'
loop_
_space_group_symop_operation_xyz
x,y,z
1/4-x,1/4-y,z
x,1/4-y,1/4-z
1/4-x,y,1/4-z
-x,-y,-z
3/4+x,3/4+y,-z
-x,3/4+y,3/4+z
3/4+x,-y,3/4+z
x,1/2+y,1/2+z
1/4-x,3/4-y,1/2+z
x,3/4-y,3/4-z
1/4-x,1/2+y,3/4-z
-x,1/2-y,1/2-z
3/4+x,1/4+y,1/2-z
-x,1/4+y,1/4+z
3/4+x,1/2-y,1/4+z
1/2+x,y,1/2+z
3/4-x,1/4-y,1/2+z
1/2+x,1/4-y,3/4-z
3/4-x,y,3/4-z
1/2-x,-y,1/2-z
1/4+x,3/4+y,1/2-z
1/2-x,3/4+y,1/4+z
1/4+x,-y,1/4+z
1/2+x,1/2+y,z
3/4-x,3/4-y,z
1/2+x,3/4-y,1/4-z
3/4-x,1/2+y,1/4-z
1/2-x,1/2-y,-z
1/4+x,1/4+y,-z
1/2-x,1/4+y,3/4+z
1/4+x,1/2-y,3/4+z
loop_
_atom_site_type_symbol
_atom_site_label
_atom_site_fract_x
_atom_site_fract_y
_atom_site_fract_z
Si Si1 0.633262 0.392296 0.508615
Si Si2 0.875000 0.746751 0.875000
Si Si3 0.975464 0.415319 0.678901
Si Si4 0.436851 0.434426 0.967205
Si Si5 0.235646 0.995394 0.984209
Si Si6 0.751765 0.861898 0.323937
O O1 0.568859 0.375146 0.553739
O O2 0.707446 0.340459 0.490592
O O3 0.694589 0.448944 0.519919
O O4 0.554372 0.399537 0.465350
O O5 0.777614 0.706827 0.858971
O O6 0.827424 0.784617 0.917257
O O7 0.875000 0.375000 0.668761
O O8 0.964360 0.456381 0.724454
O O9 0.375000 0.375000 0.961701
O O10 0.376163 0.477426 0.001693
O O11 0.233739 0.953829 0.940262
O O12 0.709383 0.875000 0.375000
O O13 0.875000 0.875000 0.323126
#
# Coordination Sequence:
#
# PCOD9514984 Si02
#       6
#    32  16  32  32  32  32
#     4  10  20  38  62  86 114 153 195 238 295 354
#     4  10  21  38  58  84 124 160 189 252 306 340
#     4  10  22  39  57  84 119 156 201 242 290 358
#     4   9  19  36  61  92 116 145 195 244 298 356
#     4   9  19  37  61  81 113 156 190 240 296 340
#     4  10  22  37  54  85 118 149 197 239 275 340
#
# _framework density 20.488098999999998
#
# number of rings (size 3 to 8) (size 9 to 14) (size 15 to 20)
#    0.000    2.364    0.000    2.455    0.000   13.818 
#    0.000   11.818    0.000    0.000    0.000    0.000 
#    0.000    0.000    0.000    0.000    0.000    0.000 
#
# Total GULP energy -245256.884282 kJ/mol
# GULP energy per Si atom -5574.020097 kJ/mol
# Density = 2.044147 g / cm^3
# Si number density = 20.488099 Si / 1000 Ang^3
#
#
#
# Elastic Constant Matrix: (Units=GPa)
#
#
# Indices 1 2 3 4 5 6 
#
# 1 83.2617 42.4209 15.7396 0.0000 0.0000 0.0000
# 2 42.4209 149.0642 43.9068 0.0000 0.0000 0.0000
# 3 15.7396 43.9068 69.3364 0.0000 0.0000 0.0000
# 4 0.0000 0.0000 0.0000 38.3548 0.0000 0.0000
# 5 0.0000 0.0000 0.0000 0.0000 -39.2910 0.0000
# 6 0.0000 0.0000 0.0000 0.0000 0.0000 37.9121
#
#
#
# Elastic Compliance Matrix: (Units=1/GPa)
#
#
# Indices 1 2 3 4 5 6 
#
# 1 0.014084 -0.003769 -0.000810 0.000000 0.000000 0.000000
# 2 -0.003769 0.009256 -0.005005 0.000000 0.000000 0.000000
# 3 -0.000810 -0.005005 0.017776 0.000000 0.000000 0.000000
# 4 0.000000 0.000000 0.000000 0.026072 0.000000 0.000000
# 5 0.000000 0.000000 0.000000 0.000000 -0.025451 0.000000
# 6 0.000000 0.000000 0.000000 0.000000 0.000000 0.026377
#
#
# Mechanical properties :
#
#
# Convention : Reuss Voigt Hill
#
# Bulk Modulus (GPa) = 45.56717 56.19966 50.88342
# Shear Modulus (GPa) = 52.85497 20.70151 36.77824
#
# Velocity S-wave (km/s) = 5.08467 3.18215 4.24146
# Velocity P-wave (km/s) = 7.53399 6.40245 6.99115
#
# Compressibility (1/GPa) = 0.02194562
#
# Stress axis : x y z
#
# Youngs Moduli (GPa) = 71.00288 108.04343 56.25579
#
# Poissons Ratio (x) = 0.40726 0.04558
# Poissons Ratio (y) = 0.26764 0.28158
# Poissons Ratio (z) = 0.05752 0.54079
#
# Static dielectric constant tensor:
#      x y z
#    x 1.812890 0.000000 0.000000 
#    y 0.000000 1.725390 0.000000 
#    z 0.000000 0.000000 1.737550 
# 
# From -- ./inp_files/64747.got.cif
#   From: 2010.05.17/outbox.cif.g08.bks.cpg/sg70_33_cif.got.tgz:64747.got - 2010.06.03 15:57:51.
