data_PCOD9514952
_publ_section_title
;
Structure prediction by ZEFSAII (Michael W. Deem and Ramdas Pophale) SiO2 
 PCOD9514952
Probable space group: F D D D
;
_chemical_formula_sum "Si O2"
_cell_formula_units_Z 176
_cell_length_a 24.967143
_cell_length_b 25.676371
_cell_length_c 12.937488
_cell_angle_alpha 90.000000
_cell_angle_beta 90.000000
_cell_angle_gamma 90.000000
_cell_volume 8293.778850
_symmetry_space_group_name_H-M "F D D D"
_symmetry_group_IT_number 70
_space_group.IT_coordinate_system_code '2'
_symmetry_cell_setting 'orthorhombic'
loop_
_space_group_symop_operation_xyz
x,y,z
1/4-x,1/4-y,z
x,1/4-y,1/4-z
1/4-x,y,1/4-z
-x,-y,-z
3/4+x,3/4+y,-z
-x,3/4+y,3/4+z
3/4+x,-y,3/4+z
x,1/2+y,1/2+z
1/4-x,3/4-y,1/2+z
x,3/4-y,3/4-z
1/4-x,1/2+y,3/4-z
-x,1/2-y,1/2-z
3/4+x,1/4+y,1/2-z
-x,1/4+y,1/4+z
3/4+x,1/2-y,1/4+z
1/2+x,y,1/2+z
3/4-x,1/4-y,1/2+z
1/2+x,1/4-y,3/4-z
3/4-x,y,3/4-z
1/2-x,-y,1/2-z
1/4+x,3/4+y,1/2-z
1/2-x,3/4+y,1/4+z
1/4+x,-y,1/4+z
1/2+x,1/2+y,z
3/4-x,3/4-y,z
1/2+x,3/4-y,1/4-z
3/4-x,1/2+y,1/4-z
1/2-x,1/2-y,-z
1/4+x,1/4+y,-z
1/2-x,1/4+y,3/4+z
1/4+x,1/2-y,3/4+z
loop_
_atom_site_type_symbol
_atom_site_label
_atom_site_fract_x
_atom_site_fract_y
_atom_site_fract_z
Si Si1 0.085323 0.026268 0.040424
Si Si2 0.806369 0.125000 0.125000
Si Si3 0.625000 0.541362 0.625000
Si Si4 0.369093 0.058843 0.989297
Si Si5 0.875000 0.875000 0.663030
Si Si6 0.036411 0.162551 0.486398
Si Si7 0.974150 0.724211 0.613326
O O1 0.125000 0.003913 0.125000
O O2 0.031088 0.045795 0.097494
O O3 0.115650 0.073656 0.982432
O O4 0.064939 0.982736 0.960961
O O5 0.844581 0.168555 0.078243
O O6 0.767561 0.110244 0.031115
O O7 0.612921 0.501066 0.531965
O O8 0.675128 0.572598 0.582973
O O9 0.307749 0.058241 0.027587
O O10 0.375000 0.083601 0.875000
O O11 0.927320 0.873455 0.588345
O O12 0.021651 0.216691 0.429672
#
# Coordination Sequence:
#
# PCOD9514952 Si02
#       7
#    32  16  16  32  16  32  32
#     4  10  21  38  63  90 120 172 214 257 315 376
#     4  12  24  37  64 104 123 166 206 262 332 362
#     4   8  18  43  64  82 128 170 208 254 308 373
#     4   9  22  44  59  89 129 169 208 256 319 380
#     4  10  21  39  58  96 132 152 209 273 318 352
#     4  10  20  37  64  94 124 164 211 264 313 374
#     4   9  21  43  61  88 126 171 215 256 312 384
#
# _framework density 21.220725000000002
#
# number of rings (size 3 to 8) (size 9 to 14) (size 15 to 20)
#    0.545    1.818    0.000    1.364    2.545    2.182 
#   13.091    0.000    0.000    0.000    0.000    0.000 
#    0.000    0.000    0.000    0.000    0.000    0.000 
#
# Total GULP energy -245403.188106 kJ/mol
# GULP energy per Si atom -5577.345184 kJ/mol
# Density = 2.117243 g / cm^3
# Si number density = 21.220725 Si / 1000 Ang^3
#
#
#
# Elastic Constant Matrix: (Units=GPa)
#
#
# Indices 1 2 3 4 5 6 
#
# 1 100.1412 36.5905 51.5177 0.0000 0.0000 0.0000
# 2 36.5905 46.7669 17.3137 0.0000 0.0000 0.0000
# 3 51.5177 17.3137 87.5214 0.0000 0.0000 0.0000
# 4 0.0000 0.0000 0.0000 17.0235 0.0000 0.0000
# 5 0.0000 0.0000 0.0000 0.0000 33.1811 0.0000
# 6 0.0000 0.0000 0.0000 0.0000 0.0000 59.9855
#
#
#
# Elastic Compliance Matrix: (Units=1/GPa)
#
#
# Indices 1 2 3 4 5 6 
#
# 1 0.018609 -0.011335 -0.008712 0.000000 0.000000 0.000000
# 2 -0.011335 0.029976 0.000742 0.000000 0.000000 0.000000
# 3 -0.008712 0.000742 0.016407 0.000000 0.000000 0.000000
# 4 0.000000 0.000000 0.000000 0.058742 0.000000 0.000000
# 5 0.000000 0.000000 0.000000 0.000000 0.030138 0.000000
# 6 0.000000 0.000000 0.000000 0.000000 0.000000 0.016671
#
#
# Mechanical properties :
#
#
# Convention : Reuss Voigt Hill
#
# Bulk Modulus (GPa) = 37.90236 49.47480 43.68858
# Shear Modulus (GPa) = 22.94145 30.63854 26.78999
#
# Velocity S-wave (km/s) = 3.29156 3.80386 3.55694
# Velocity P-wave (km/s) = 5.68732 6.53127 6.12385
#
# Compressibility (1/GPa) = 0.02638358
#
# Stress axis : x y z
#
# Youngs Moduli (GPa) = 53.73697 33.35977 60.94982
#
# Poissons Ratio (x) = 0.37812 0.53097
# Poissons Ratio (y) = 0.60909 -0.04522
# Poissons Ratio (z) = 0.46814 -0.02475
#
# Static dielectric constant tensor:
#      x y z
#    x 1.756150 0.000000 0.000000 
#    y 0.000000 1.782000 0.000000 
#    z 0.000000 0.000000 1.817310 
# 
# From -- ./inp_files/28798.got.cif
#   From: 2010.05.17/outbox.cif.g08.bks.cpg/sg70_15_cif.got.tgz:28798.got - 2010.06.03 15:57:51.
