data_PCOD9514591
_publ_section_title
;
Structure prediction by ZEFSAII (Michael W. Deem and Ramdas Pophale) SiO2 
 PCOD9514591
Probable space group: F D D D
;
_chemical_formula_sum "Si O2"
_cell_formula_units_Z 168
_cell_length_a 14.112173
_cell_length_b 20.014999
_cell_length_c 26.222112
_cell_angle_alpha 90.000000
_cell_angle_beta 90.000000
_cell_angle_gamma 90.000000
_cell_volume 7406.570014
_symmetry_space_group_name_H-M "F D D D"
_symmetry_group_IT_number 70
_space_group.IT_coordinate_system_code '2'
_symmetry_cell_setting 'orthorhombic'
loop_
_space_group_symop_operation_xyz
x,y,z
1/4-x,1/4-y,z
x,1/4-y,1/4-z
1/4-x,y,1/4-z
-x,-y,-z
3/4+x,3/4+y,-z
-x,3/4+y,3/4+z
3/4+x,-y,3/4+z
x,1/2+y,1/2+z
1/4-x,3/4-y,1/2+z
x,3/4-y,3/4-z
1/4-x,1/2+y,3/4-z
-x,1/2-y,1/2-z
3/4+x,1/4+y,1/2-z
-x,1/4+y,1/4+z
3/4+x,1/2-y,1/4+z
1/2+x,y,1/2+z
3/4-x,1/4-y,1/2+z
1/2+x,1/4-y,3/4-z
3/4-x,y,3/4-z
1/2-x,-y,1/2-z
1/4+x,3/4+y,1/2-z
1/2-x,3/4+y,1/4+z
1/4+x,-y,1/4+z
1/2+x,1/2+y,z
3/4-x,3/4-y,z
1/2+x,3/4-y,1/4-z
3/4-x,1/2+y,1/4-z
1/2-x,1/2-y,-z
1/4+x,1/4+y,-z
1/2-x,1/4+y,3/4+z
1/4+x,1/2-y,3/4+z
loop_
_atom_site_type_symbol
_atom_site_label
_atom_site_fract_x
_atom_site_fract_y
_atom_site_fract_z
Si Si1 0.987239 0.013958 0.803849
Si Si2 0.375000 0.375000 0.375000
Si Si3 0.809219 0.310379 0.470512
Si Si4 0.233853 0.910455 0.721405
Si Si5 0.853599 0.475054 0.961343
Si Si6 0.109408 0.396988 0.322998
O O1 0.991042 0.093040 0.810449
O O2 0.012415 0.002687 0.743231
O O3 0.885454 0.981557 0.811803
O O4 0.067333 0.971045 0.831224
O O5 0.419868 0.426246 0.334200
O O6 0.875000 0.375000 0.492368
O O7 0.750000 0.250000 0.500000
O O8 0.729412 0.349432 0.438999
O O9 0.330633 0.939833 0.744769
O O10 0.173699 0.896406 0.772982
O O11 0.171983 0.965945 0.692954
O O12 0.157015 0.375000 0.375000
#
# Coordination Sequence:
#
# PCOD9514591 Si02
#       6
#    32   8  32  32  32  32
#     4  10  19  37  60  81 124 165 206 255 323 388
#     4  12  20  36  56  88 120 144 212 252 312 372
#     4  10  20  36  60  87 121 164 213 257 322 391
#     4  10  19  38  60  83 123 165 205 245 327 383
#     4  10  22  34  58  89 118 163 204 256 309 389
#     4  10  22  36  61  95 120 160 217 273 321 383
#
# _framework density 22.682565
#
# number of rings (size 3 to 8) (size 9 to 14) (size 15 to 20)
#    0.000    1.905    3.810    0.000    1.333    3.429 
#    0.000    1.905    0.000    0.000    0.000    0.000 
#    0.000    0.000    0.000    0.000    0.000    0.000 
#
# Total GULP energy -233935.188347 kJ/mol
# GULP energy per Si atom -5569.885437 kJ/mol
# Density = 2.263094 g / cm^3
# Si number density = 22.682565 Si / 1000 Ang^3
#
#
#
# Elastic Constant Matrix: (Units=GPa)
#
#
# Indices 1 2 3 4 5 6 
#
# 1 88.8757 35.6935 22.1034 0.0000 0.0000 0.0000
# 2 35.6935 179.4264 20.4391 0.0000 0.0000 0.0000
# 3 22.1034 20.4391 62.9621 0.0000 0.0000 0.0000
# 4 0.0000 0.0000 0.0000 33.8048 0.0000 0.0000
# 5 0.0000 0.0000 0.0000 0.0000 10.6055 0.0000
# 6 0.0000 0.0000 0.0000 0.0000 0.0000 54.5767
#
#
#
# Elastic Compliance Matrix: (Units=1/GPa)
#
#
# Indices 1 2 3 4 5 6 
#
# 1 0.013087 -0.002160 -0.003893 0.000000 0.000000 0.000000
# 2 -0.002160 0.006144 -0.001236 0.000000 0.000000 0.000000
# 3 -0.003893 -0.001236 0.017651 0.000000 0.000000 0.000000
# 4 0.000000 0.000000 0.000000 0.029582 0.000000 0.000000
# 5 0.000000 0.000000 0.000000 0.000000 0.094290 0.000000
# 6 0.000000 0.000000 0.000000 0.000000 0.000000 0.018323
#
#
# Mechanical properties :
#
#
# Convention : Reuss Voigt Hill
#
# Bulk Modulus (GPa) = 44.83698 54.19292 49.51495
# Shear Modulus (GPa) = 24.86450 36.66595 30.76523
#
# Velocity S-wave (km/s) = 3.31447 4.02491 3.68685
# Velocity P-wave (km/s) = 5.87007 6.74860 6.32461
#
# Compressibility (1/GPa) = 0.02230302
#
# Stress axis : x y z
#
# Youngs Moduli (GPa) = 76.40937 162.76517 56.65520
#
# Poissons Ratio (x) = 0.35157 0.22057
# Poissons Ratio (y) = 0.16504 0.07003
# Poissons Ratio (z) = 0.29748 0.20120
#
# Static dielectric constant tensor:
#      x y z
#    x 1.924060 0.000000 0.000000 
#    y 0.000000 1.938230 0.000000 
#    z 0.000000 0.000000 1.813660 
# 
# From -- ./inp_files/29870.got.cif
#   From: 2010.05.17/outbox.cif.g08.bks.cpg/sg70_15_cif.got.tgz:29870.got - 2010.06.03 15:57:51.
