data_PCOD9514276
_publ_section_title
;
Structure prediction by ZEFSAII (Michael W. Deem and Ramdas Pophale) SiO2 
 PCOD9514276
Probable space group: F D D D
;
_chemical_formula_sum "Si O2"
_cell_formula_units_Z 240
_cell_length_a 26.685107
_cell_length_b 14.349113
_cell_length_c 26.618234
_cell_angle_alpha 90.000000
_cell_angle_beta 90.000000
_cell_angle_gamma 90.000000
_cell_volume 10192.324517
_symmetry_space_group_name_H-M "F D D D"
_symmetry_group_IT_number 70
_space_group.IT_coordinate_system_code '2'
_symmetry_cell_setting 'orthorhombic'
loop_
_space_group_symop_operation_xyz
x,y,z
1/4-x,1/4-y,z
x,1/4-y,1/4-z
1/4-x,y,1/4-z
-x,-y,-z
3/4+x,3/4+y,-z
-x,3/4+y,3/4+z
3/4+x,-y,3/4+z
x,1/2+y,1/2+z
1/4-x,3/4-y,1/2+z
x,3/4-y,3/4-z
1/4-x,1/2+y,3/4-z
-x,1/2-y,1/2-z
3/4+x,1/4+y,1/2-z
-x,1/4+y,1/4+z
3/4+x,1/2-y,1/4+z
1/2+x,y,1/2+z
3/4-x,1/4-y,1/2+z
1/2+x,1/4-y,3/4-z
3/4-x,y,3/4-z
1/2-x,-y,1/2-z
1/4+x,3/4+y,1/2-z
1/2-x,3/4+y,1/4+z
1/4+x,-y,1/4+z
1/2+x,1/2+y,z
3/4-x,3/4-y,z
1/2+x,3/4-y,1/4-z
3/4-x,1/2+y,1/4-z
1/2-x,1/2-y,-z
1/4+x,1/4+y,-z
1/2-x,1/4+y,3/4+z
1/4+x,1/2-y,3/4+z
loop_
_atom_site_type_symbol
_atom_site_label
_atom_site_fract_x
_atom_site_fract_y
_atom_site_fract_z
Si Si1 0.819102 0.891923 0.447866
Si Si2 0.824454 0.175141 0.265303
Si Si3 0.964704 0.853420 0.559193
Si Si4 0.225193 0.027553 0.196629
Si Si5 0.375000 0.375000 0.769868
Si Si6 0.327997 0.148693 0.296335
Si Si7 0.066032 0.344378 0.424143
Si Si8 0.216296 0.810798 0.920708
O O1 0.875000 0.875000 0.430669
O O2 0.815091 0.879256 0.507521
O O3 0.775883 0.826495 0.427845
O O4 0.809217 0.000554 0.438357
O O5 0.770500 0.180824 0.292619
O O6 0.849224 0.276221 0.248513
O O7 0.864073 0.128065 0.303598
O O8 0.811715 0.104873 0.219257
O O9 0.940822 0.764836 0.584728
O O10 0.960213 0.951257 0.586794
O O11 0.173507 0.084151 0.202292
O O12 0.266575 0.090664 0.171438
O O13 0.250000 0.000000 0.250000
O O14 0.207327 0.927286 0.177438
O O15 0.327841 0.145616 0.234133
O O16 0.097076 0.375000 0.375000
O O17 0.202369 0.875000 0.875000
#
# Coordination Sequence:
#
# PCOD9514276 Si02
#       8
#    32  32  32  32  16  32  32  32
#     4  10  19  36  61  84 107 150 204 241 284 345
#     4  10  19  38  63  83 116 148 205 245 293 345
#     4  10  20  38  59  81 113 158 196 240 292 356
#     4   9  18  33  53  82 112 142 191 235 281 344
#     4  10  18  34  63  86 108 156 200 248 280 348
#     4   9  19  33  59  85 104 144 195 242 285 345
#     4  10  20  35  54  82 118 148 183 238 298 354
#     4  11  24  37  55  86 123 157 190 243 306 363
#
# _framework density 23.547131
#
# number of rings (size 3 to 8) (size 9 to 14) (size 15 to 20)
#    0.000    2.133    1.333    3.200    1.867    1.867 
#    4.800    0.333    0.000    1.600    0.000    0.000 
#    0.000    0.000    0.000    0.000    0.000    0.000 
#
# Total GULP energy -334402.202952 kJ/mol
# GULP energy per Si atom -5573.370049 kJ/mol
# Density = 2.349354 g / cm^3
# Si number density = 23.547131 Si / 1000 Ang^3
#
#
#
# Elastic Constant Matrix: (Units=GPa)
#
#
# Indices 1 2 3 4 5 6 
#
# 1 96.1911 10.0021 4.6688 0.0000 0.0000 0.0000
# 2 10.0021 170.4894 24.1767 0.0000 0.0000 0.0000
# 3 4.6688 24.1767 46.4088 0.0000 0.0000 0.0000
# 4 0.0000 0.0000 0.0000 19.2749 0.0000 0.0000
# 5 0.0000 0.0000 0.0000 0.0000 16.2349 0.0000
# 6 0.0000 0.0000 0.0000 0.0000 0.0000 15.4948
#
#
#
# Elastic Compliance Matrix: (Units=1/GPa)
#
#
# Indices 1 2 3 4 5 6 
#
# 1 0.010487 -0.000503 -0.000793 0.000000 0.000000 0.000000
# 2 -0.000503 0.006357 -0.003261 0.000000 0.000000 0.000000
# 3 -0.000793 -0.003261 0.023326 0.000000 0.000000 0.000000
# 4 0.000000 0.000000 0.000000 0.051881 0.000000 0.000000
# 5 0.000000 0.000000 0.000000 0.000000 0.061596 0.000000
# 6 0.000000 0.000000 0.000000 0.000000 0.000000 0.064538
#
#
# Mechanical properties :
#
#
# Convention : Reuss Voigt Hill
#
# Bulk Modulus (GPa) = 32.19965 43.42051 37.81008
# Shear Modulus (GPa) = 21.03922 28.48370 24.76146
#
# Velocity S-wave (km/s) = 2.99238 3.48177 3.24631
# Velocity P-wave (km/s) = 5.06393 5.88587 5.49030
#
# Compressibility (1/GPa) = 0.03105624
#
# Stress axis : x y z
#
# Youngs Moduli (GPa) = 95.35850 157.29587 42.86989
#
# Poissons Ratio (x) = 0.07908 0.03400
# Poissons Ratio (y) = 0.04794 0.13981
# Poissons Ratio (z) = 0.07563 0.51299
#
# Static dielectric constant tensor:
#      x y z
#    x 1.914050 0.000000 0.000000 
#    y 0.000000 1.892760 0.000000 
#    z 0.000000 0.000000 1.985510 
# 
# From -- ./inp_files/69111.got.cif
#   From: 2010.05.17/outbox.cif.g08.bks.cpg/sg70_35_cif.got.tgz:69111.got - 2010.06.03 15:57:51.
