data_PCOD9514192
_publ_section_title
;
Structure prediction by ZEFSAII (Michael W. Deem and Ramdas Pophale) SiO2 
 PCOD9514192
Probable space group: F D D D
;
_chemical_formula_sum "Si O2"
_cell_formula_units_Z 128
_cell_length_a 35.615188
_cell_length_b 14.944746
_cell_length_c 10.155893
_cell_angle_alpha 90.000000
_cell_angle_beta 90.000000
_cell_angle_gamma 90.000000
_cell_volume 5405.574983
_symmetry_space_group_name_H-M "F D D D"
_symmetry_group_IT_number 70
_space_group.IT_coordinate_system_code '2'
_symmetry_cell_setting 'orthorhombic'
loop_
_space_group_symop_operation_xyz
x,y,z
1/4-x,1/4-y,z
x,1/4-y,1/4-z
1/4-x,y,1/4-z
-x,-y,-z
3/4+x,3/4+y,-z
-x,3/4+y,3/4+z
3/4+x,-y,3/4+z
x,1/2+y,1/2+z
1/4-x,3/4-y,1/2+z
x,3/4-y,3/4-z
1/4-x,1/2+y,3/4-z
-x,1/2-y,1/2-z
3/4+x,1/4+y,1/2-z
-x,1/4+y,1/4+z
3/4+x,1/2-y,1/4+z
1/2+x,y,1/2+z
3/4-x,1/4-y,1/2+z
1/2+x,1/4-y,3/4-z
3/4-x,y,3/4-z
1/2-x,-y,1/2-z
1/4+x,3/4+y,1/2-z
1/2-x,3/4+y,1/4+z
1/4+x,-y,1/4+z
1/2+x,1/2+y,z
3/4-x,3/4-y,z
1/2+x,3/4-y,1/4-z
3/4-x,1/2+y,1/4-z
1/2-x,1/2-y,-z
1/4+x,1/4+y,-z
1/2-x,1/4+y,3/4+z
1/4+x,1/2-y,3/4+z
loop_
_atom_site_type_symbol
_atom_site_label
_atom_site_fract_x
_atom_site_fract_y
_atom_site_fract_z
Si Si1 0.289417 0.041615 0.799619
Si Si2 0.650693 0.375000 0.875000
Si Si3 0.542818 0.002130 0.615248
Si Si4 0.375000 0.223859 0.875000
Si Si5 0.285732 0.719519 0.674457
O O1 0.321220 0.049732 0.687524
O O2 0.287459 0.146079 0.848171
O O3 0.301263 0.995190 0.937890
O O4 0.250000 0.000000 0.750000
O O5 0.626052 0.412788 0.994258
O O6 0.585890 0.024328 0.639864
O O7 0.537812 0.024259 0.460340
O O8 0.508963 0.043446 0.697028
O O9 0.301390 0.625000 0.625000
#
# Coordination Sequence:
#
# PCOD9514192 Si02
#       5
#    32  16  32  16  32
#     4  10  18  31  50  75 104 131 171 220 262 306
#     4  10  22  30  50  78 108 141 174 215 272 310
#     4   9  19  33  51  79 102 137 172 222 262 324
#     4  10  20  32  49  72 112 133 176 214 264 324
#     4   9  18  33  54  73 103 133 180 217 266 308
#
# _framework density 23.679257
#
# number of rings (size 3 to 8) (size 9 to 14) (size 15 to 20)
#    0.000    2.500    0.000    3.000    8.750    0.000 
#    0.000    0.625    0.000    0.000    0.000    0.000 
#   15.000    0.000    0.000    0.000    0.000    0.000 
#
# Total GULP energy -178170.618119 kJ/mol
# GULP energy per Si atom -5567.831816 kJ/mol
# Density = 2.362536 g / cm^3
# Si number density = 23.679257 Si / 1000 Ang^3
#
#
#
# Elastic Constant Matrix: (Units=GPa)
#
#
# Indices 1 2 3 4 5 6 
#
# 1 144.8201 16.0974 27.7452 0.0000 0.0000 0.0000
# 2 16.0974 58.4386 11.1426 0.0000 0.0000 0.0000
# 3 27.7452 11.1426 177.7662 0.0000 0.0000 0.0000
# 4 0.0000 0.0000 0.0000 15.4232 0.0000 0.0000
# 5 0.0000 0.0000 0.0000 0.0000 41.1376 0.0000
# 6 0.0000 0.0000 0.0000 0.0000 0.0000 1.6536
#
#
#
# Elastic Compliance Matrix: (Units=1/GPa)
#
#
# Indices 1 2 3 4 5 6 
#
# 1 0.007304 -0.001816 -0.001026 0.000000 0.000000 0.000000
# 2 -0.001816 0.017771 -0.000830 0.000000 0.000000 0.000000
# 3 -0.001026 -0.000830 0.005838 0.000000 0.000000 0.000000
# 4 0.000000 0.000000 0.000000 0.064837 0.000000 0.000000
# 5 0.000000 0.000000 0.000000 0.000000 0.024309 0.000000
# 6 0.000000 0.000000 0.000000 0.000000 0.000000 0.604730
#
#
# Mechanical properties :
#
#
# Convention : Reuss Voigt Hill
#
# Bulk Modulus (GPa) = 42.43336 54.55505 48.49420
# Shear Modulus (GPa) = 6.75686 33.37887 20.06786
#
# Velocity S-wave (km/s) = 1.69106 3.75857 2.91432
# Velocity P-wave (km/s) = 4.66603 6.47495 5.64344
#
# Compressibility (1/GPa) = 0.02356636
#
# Stress axis : x y z
#
# Youngs Moduli (GPa) = 136.91917 56.27276 171.30429
#
# Poissons Ratio (x) = 0.10220 0.17577
# Poissons Ratio (y) = 0.24867 0.14225
# Poissons Ratio (z) = 0.14049 0.04673
#
# Static dielectric constant tensor:
#      x y z
#    x 1.942740 0.000000 0.000000 
#    y 0.000000 2.050870 0.000000 
#    z 0.000000 0.000000 1.999730 
# 
# From -- ./inp_files/36156.got.cif
#   From: 2010.05.17/outbox.cif.g08.bks.cpg/sg70_19_cif.got.tgz:36156.got - 2010.06.03 15:57:51.
