data_PCOD9514277
_publ_section_title
;
Structure prediction by ZEFSAII (Michael W. Deem and Ramdas Pophale) SiO2 
 PCOD9514277
Probable space group: F D D D
;
_chemical_formula_sum "Si O2"
_cell_formula_units_Z 208
_cell_length_a 25.937777
_cell_length_b 24.124543
_cell_length_c 14.417256
_cell_angle_alpha 90.000000
_cell_angle_beta 90.000000
_cell_angle_gamma 90.000000
_cell_volume 9021.410756
_symmetry_space_group_name_H-M "F D D D"
_symmetry_group_IT_number 70
_space_group.IT_coordinate_system_code '2'
_symmetry_cell_setting 'orthorhombic'
loop_
_space_group_symop_operation_xyz
x,y,z
1/4-x,1/4-y,z
x,1/4-y,1/4-z
1/4-x,y,1/4-z
-x,-y,-z
3/4+x,3/4+y,-z
-x,3/4+y,3/4+z
3/4+x,-y,3/4+z
x,1/2+y,1/2+z
1/4-x,3/4-y,1/2+z
x,3/4-y,3/4-z
1/4-x,1/2+y,3/4-z
-x,1/2-y,1/2-z
3/4+x,1/4+y,1/2-z
-x,1/4+y,1/4+z
3/4+x,1/2-y,1/4+z
1/2+x,y,1/2+z
3/4-x,1/4-y,1/2+z
1/2+x,1/4-y,3/4-z
3/4-x,y,3/4-z
1/2-x,-y,1/2-z
1/4+x,3/4+y,1/2-z
1/2-x,3/4+y,1/4+z
1/4+x,-y,1/4+z
1/2+x,1/2+y,z
3/4-x,3/4-y,z
1/2+x,3/4-y,1/4-z
3/4-x,1/2+y,1/4-z
1/2-x,1/2-y,-z
1/4+x,1/4+y,-z
1/2-x,1/4+y,3/4+z
1/4+x,1/2-y,3/4+z
loop_
_atom_site_type_symbol
_atom_site_label
_atom_site_fract_x
_atom_site_fract_y
_atom_site_fract_z
Si Si1 0.976464 0.638775 0.734093
Si Si2 0.791651 0.208659 0.107126
Si Si3 0.205293 0.582869 0.269724
Si Si4 0.625000 0.044419 0.125000
Si Si5 0.847412 0.533394 0.163967
Si Si6 0.168808 0.663014 0.437007
Si Si7 0.714915 0.265898 0.232431
O O1 0.975810 0.625000 0.625000
O O2 0.927030 0.678262 0.743050
O O3 0.976053 0.580628 0.789551
O O4 0.028853 0.669483 0.757099
O O5 0.758838 0.167878 0.039733
O O6 0.850517 0.190793 0.122420
O O7 0.759603 0.223486 0.201145
O O8 0.793784 0.270729 0.062970
O O9 0.159955 0.578659 0.194958
O O10 0.188270 0.631419 0.341653
O O11 0.585234 0.005480 0.179384
O O12 0.860682 0.471000 0.187866
O O13 0.802458 0.519152 0.088801
O O14 0.125000 0.625000 0.480456
#
# Coordination Sequence:
#
# PCOD9514277 Si02
#       7
#    32  32  32  16  32  32  32
#     4  10  23  39  59  84 116 163 216 261 316 370
#     4  10  19  38  63  89 125 168 208 252 321 389
#     4  10  20  35  64  94 126 165 208 246 329 395
#     4  10  18  34  63  94 124 162 201 258 310 400
#     4  11  22  39  60  88 124 163 208 270 309 370
#     4  12  21  39  63  92 122 163 209 261 321 379
#     4  10  19  37  59  85 121 163 207 251 314 384
#
# _framework density 23.056260000000002
#
# number of rings (size 3 to 8) (size 9 to 14) (size 15 to 20)
#    0.000    1.538    4.615    0.462    0.000    0.308 
#    0.000   13.462    0.000    3.692    0.000    0.000 
#    0.000    0.000    0.000    0.000    0.000    0.000 
#
# Total GULP energy -289988.288004 kJ/mol
# GULP energy per Si atom -5576.697846 kJ/mol
# Density = 2.300378 g / cm^3
# Si number density = 23.056260 Si / 1000 Ang^3
#
#
#
# Elastic Constant Matrix: (Units=GPa)
#
#
# Indices 1 2 3 4 5 6 
#
# 1 7.8925 69.1923 -108.9161 0.0000 0.0000 0.0000
# 2 69.1923 52.8972 74.6891 0.0000 0.0000 0.0000
# 3 -108.9161 74.6891 -114.4608 0.0000 0.0000 0.0000
# 4 0.0000 0.0000 0.0000 26.2477 0.0000 0.0000
# 5 0.0000 0.0000 0.0000 0.0000 7.6884 0.0000
# 6 0.0000 0.0000 0.0000 0.0000 0.0000 44.7420
#
#
#
# Elastic Compliance Matrix: (Units=1/GPa)
#
#
# Indices 1 2 3 4 5 6 
#
# 1 0.008969 0.000166 -0.008426 0.000000 0.000000 0.000000
# 2 0.000166 0.009842 0.006265 0.000000 0.000000 0.000000
# 3 -0.008426 0.006265 0.003369 0.000000 0.000000 0.000000
# 4 0.000000 0.000000 0.000000 0.038099 0.000000 0.000000
# 5 0.000000 0.000000 0.000000 0.000000 0.130066 0.000000
# 6 0.000000 0.000000 0.000000 0.000000 0.000000 0.022350
#
#
# Mechanical properties :
#
#
# Convention : Reuss Voigt Hill
#
# Bulk Modulus (GPa) = 54.97878 1.80661 28.39269
# Shear Modulus (GPa) = 22.44677 9.82652 16.13664
#
# Velocity S-wave (km/s) = 3.12359 2.06669 2.64840
# Velocity P-wave (km/s) = 6.07506 2.54563 4.65760
#
# Compressibility (1/GPa) = 0.01818884
#
# Stress axis : x y z
#
# Youngs Moduli (GPa) = 111.49782 101.60244 296.80575
#
# Poissons Ratio (x) = -0.01684 2.50093
# Poissons Ratio (y) = -0.01849 -1.85938
# Poissons Ratio (z) = 0.93950 -0.63650
#
# Static dielectric constant tensor:
#      x y z
#    x 1.658760 0.000000 0.000000 
#    y 0.000000 2.054690 0.000000 
#    z 0.000000 0.000000 1.920350 
# 
# From -- ./inp_files/37705.got.cif
#   From: 2010.05.17/outbox.cif.g08.bks.cpg/sg70_19_cif.got.tgz:37705.got - 2010.06.03 15:57:51.
