data_PCOD9514184
_publ_section_title
;
Structure prediction by ZEFSAII (Michael W. Deem and Ramdas Pophale) SiO2 
 PCOD9514184
Probable space group: F D D D
;
_chemical_formula_sum "Si O2"
_cell_formula_units_Z 192
_cell_length_a 24.390641
_cell_length_b 27.537151
_cell_length_c 12.288173
_cell_angle_alpha 90.000000
_cell_angle_beta 90.000000
_cell_angle_gamma 90.000000
_cell_volume 8253.336210
_symmetry_space_group_name_H-M "F D D D"
_symmetry_group_IT_number 70
_space_group.IT_coordinate_system_code '2'
_symmetry_cell_setting 'orthorhombic'
loop_
_space_group_symop_operation_xyz
x,y,z
1/4-x,1/4-y,z
x,1/4-y,1/4-z
1/4-x,y,1/4-z
-x,-y,-z
3/4+x,3/4+y,-z
-x,3/4+y,3/4+z
3/4+x,-y,3/4+z
x,1/2+y,1/2+z
1/4-x,3/4-y,1/2+z
x,3/4-y,3/4-z
1/4-x,1/2+y,3/4-z
-x,1/2-y,1/2-z
3/4+x,1/4+y,1/2-z
-x,1/4+y,1/4+z
3/4+x,1/2-y,1/4+z
1/2+x,y,1/2+z
3/4-x,1/4-y,1/2+z
1/2+x,1/4-y,3/4-z
3/4-x,y,3/4-z
1/2-x,-y,1/2-z
1/4+x,3/4+y,1/2-z
1/2-x,3/4+y,1/4+z
1/4+x,-y,1/4+z
1/2+x,1/2+y,z
3/4-x,3/4-y,z
1/2+x,3/4-y,1/4-z
3/4-x,1/2+y,1/4-z
1/2-x,1/2-y,-z
1/4+x,1/4+y,-z
1/2-x,1/4+y,3/4+z
1/4+x,1/2-y,3/4+z
loop_
_atom_site_type_symbol
_atom_site_label
_atom_site_fract_x
_atom_site_fract_y
_atom_site_fract_z
Si Si1 0.375000 0.875000 0.582728
Si Si2 0.730640 0.073974 0.495274
Si Si3 0.292055 0.211924 0.052003
Si Si4 0.806886 0.625000 0.625000
Si Si5 0.930599 0.457426 0.703218
Si Si6 0.749099 0.728666 0.618723
Si Si7 0.544979 0.399253 0.143709
O O1 0.324285 0.894093 0.511736
O O2 0.362491 0.831015 0.663758
O O3 0.756520 0.070358 0.614982
O O4 0.773206 0.100662 0.414744
O O5 0.723065 0.018768 0.449796
O O6 0.328962 0.244746 0.130500
O O7 0.250000 0.250000 0.000000
O O8 0.318300 0.182837 0.952906
O O9 0.774451 0.675206 0.608065
O O10 0.828772 0.614453 0.502159
O O11 0.939198 0.471877 0.827352
O O12 0.989269 0.429691 0.677217
O O13 0.750000 0.750000 0.500000
#
# Coordination Sequence:
#
# PCOD9514184 Si02
#       7
#    16  32  32  16  32  32  32
#     4  10  20  38  58  94 130 151 202 273 356 374
#     4  10  19  33  55  84 120 156 193 257 318 383
#     4   9  17  32  50  75 113 157 199 242 300 381
#     4  10  18  30  54  81 108 152 202 260 294 358
#     4   8  18  32  52  79 122 156 191 254 317 383
#     4  10  18  33  55  83 119 160 215 245 305 383
#     4   9  16  29  50  79 111 141 197 245 296 358
#
# _framework density 23.263318999999999
#
# number of rings (size 3 to 8) (size 9 to 14) (size 15 to 20)
#    0.000    2.667    1.667    1.500    0.000    0.000 
#    0.000   16.667    0.000    0.000    8.667    0.000 
#    0.000    0.000    0.000    0.000    0.000    0.000 
#
# Total GULP energy -267450.214188 kJ/mol
# GULP energy per Si atom -5571.879462 kJ/mol
# Density = 2.321037 g / cm^3
# Si number density = 23.263319 Si / 1000 Ang^3
#
#
#
# Elastic Constant Matrix: (Units=GPa)
#
#
# Indices 1 2 3 4 5 6 
#
# 1 37.6069 20.0777 30.3680 0.0000 0.0000 0.0000
# 2 20.0777 154.8235 64.3626 0.0000 0.0000 0.0000
# 3 30.3680 64.3626 197.8216 0.0000 0.0000 0.0000
# 4 0.0000 0.0000 0.0000 32.2472 0.0000 0.0000
# 5 0.0000 0.0000 0.0000 0.0000 -0.6661 0.0000
# 6 0.0000 0.0000 0.0000 0.0000 0.0000 13.2869
#
#
#
# Elastic Compliance Matrix: (Units=1/GPa)
#
#
# Indices 1 2 3 4 5 6 
#
# 1 0.031086 -0.002368 -0.004002 0.000000 0.000000 0.000000
# 2 -0.002368 0.007650 -0.002125 0.000000 0.000000 0.000000
# 3 -0.004002 -0.002125 0.006361 0.000000 0.000000 0.000000
# 4 0.000000 0.000000 0.000000 0.031010 0.000000 0.000000
# 5 0.000000 0.000000 0.000000 0.000000 -1.501235 0.000000
# 6 0.000000 0.000000 0.000000 0.000000 0.000000 0.075262
#
#
# Mechanical properties :
#
#
# Convention : Reuss Voigt Hill
#
# Bulk Modulus (GPa) = 35.57811 68.87429 52.22620
# Shear Modulus (GPa) = -3.77784 27.33650 11.77933
#
# Velocity S-wave (km/s) = -1.27572 3.43168 2.25266
# Velocity P-wave (km/s) = 3.62724 6.73591 5.40969
#
# Compressibility (1/GPa) = 0.02810717
#
# Stress axis : x y z
#
# Youngs Moduli (GPa) = 32.16832 130.72637 157.21079
#
# Poissons Ratio (x) = 0.30952 0.62913
# Poissons Ratio (y) = 0.07617 0.33413
# Poissons Ratio (z) = 0.12873 0.27784
#
# Static dielectric constant tensor:
#      x y z
#    x 1.951100 0.000000 0.000000 
#    y 0.000000 1.896530 0.000000 
#    z 0.000000 0.000000 1.931770 
# 
# From -- ./inp_files/22489.got.cif
#   From: 2010.05.17/outbox.cif.g08.bks.cpg/sg70_12_cif.got.tgz:22489.got - 2010.06.03 15:57:51.
