data_PCOD9514683
_publ_section_title
;
Structure prediction by ZEFSAII (Michael W. Deem and Ramdas Pophale) SiO2 
 PCOD9514683
Probable space group: F D D D
;
_chemical_formula_sum "Si O2"
_cell_formula_units_Z 176
_cell_length_a 18.997879
_cell_length_b 15.533191
_cell_length_c 25.700681
_cell_angle_alpha 90.000000
_cell_angle_beta 90.000000
_cell_angle_gamma 90.000000
_cell_volume 7584.211417
_symmetry_space_group_name_H-M "F D D D"
_symmetry_group_IT_number 70
_space_group.IT_coordinate_system_code '2'
_symmetry_cell_setting 'orthorhombic'
loop_
_space_group_symop_operation_xyz
x,y,z
1/4-x,1/4-y,z
x,1/4-y,1/4-z
1/4-x,y,1/4-z
-x,-y,-z
3/4+x,3/4+y,-z
-x,3/4+y,3/4+z
3/4+x,-y,3/4+z
x,1/2+y,1/2+z
1/4-x,3/4-y,1/2+z
x,3/4-y,3/4-z
1/4-x,1/2+y,3/4-z
-x,1/2-y,1/2-z
3/4+x,1/4+y,1/2-z
-x,1/4+y,1/4+z
3/4+x,1/2-y,1/4+z
1/2+x,y,1/2+z
3/4-x,1/4-y,1/2+z
1/2+x,1/4-y,3/4-z
3/4-x,y,3/4-z
1/2-x,-y,1/2-z
1/4+x,3/4+y,1/2-z
1/2-x,3/4+y,1/4+z
1/4+x,-y,1/4+z
1/2+x,1/2+y,z
3/4-x,3/4-y,z
1/2+x,3/4-y,1/4-z
3/4-x,1/2+y,1/4-z
1/2-x,1/2-y,-z
1/4+x,1/4+y,-z
1/2-x,1/4+y,3/4+z
1/4+x,1/2-y,3/4+z
loop_
_atom_site_type_symbol
_atom_site_label
_atom_site_fract_x
_atom_site_fract_y
_atom_site_fract_z
Si Si1 0.659831 0.941998 0.728972
Si Si2 0.222545 0.331071 0.821906
Si Si3 0.499073 0.858503 0.043964
Si Si4 0.125000 0.125000 0.211344
Si Si5 0.454701 0.171832 0.395309
Si Si6 0.706868 0.147949 0.181914
O O1 0.689333 0.886376 0.775624
O O2 0.581282 0.912898 0.714502
O O3 0.703833 0.917808 0.676851
O O4 0.654816 0.042513 0.741692
O O5 0.197193 0.375000 0.875000
O O6 0.209877 0.230026 0.810493
O O7 0.307627 0.341677 0.820199
O O8 0.497012 0.919302 0.094365
O O9 0.477631 0.891706 0.987229
O O10 0.375000 0.188674 0.375000
O O11 0.470853 0.249502 0.434437
O O12 0.625000 0.125000 0.178241
O O13 0.738056 0.125000 0.125000
#
# Coordination Sequence:
#
# PCOD9514683 Si02
#       6
#    32  32  32  16  32  32
#     4  10  21  39  64  89 135 165 209 270 315 385
#     4  11  21  38  63  91 129 167 212 261 320 383
#     4  10  23  39  64  96 122 168 218 261 324 381
#     4  10  21  36  60  96 116 174 216 246 315 384
#     4  10  19  40  65  90 126 166 211 270 317 383
#     4  11  22  41  65  93 125 168 220 263 327 391
#
# _framework density 23.206105000000001
#
# number of rings (size 3 to 8) (size 9 to 14) (size 15 to 20)
#    0.000    1.636    3.636    1.909    0.000    4.364 
#    0.000    1.818    2.000    0.000    0.000    0.000 
#    0.000    0.000    0.000    0.000    0.000    0.000 
#
# Total GULP energy -245544.080084 kJ/mol
# GULP energy per Si atom -5580.547275 kJ/mol
# Density = 2.315329 g / cm^3
# Si number density = 23.206105 Si / 1000 Ang^3
#
#
#
# Elastic Constant Matrix: (Units=GPa)
#
#
# Indices 1 2 3 4 5 6 
#
# 1 6.8259 8.0540 11.2841 0.0000 0.0000 0.0000
# 2 8.0540 87.9168 33.6774 0.0000 0.0000 0.0000
# 3 11.2841 33.6774 164.2580 0.0000 0.0000 0.0000
# 4 0.0000 0.0000 0.0000 17.0305 0.0000 0.0000
# 5 0.0000 0.0000 0.0000 0.0000 28.2394 0.0000
# 6 0.0000 0.0000 0.0000 0.0000 0.0000 10.8208
#
#
#
# Elastic Compliance Matrix: (Units=1/GPa)
#
#
# Indices 1 2 3 4 5 6 
#
# 1 0.177180 -0.012555 -0.009598 0.000000 0.000000 0.000000
# 2 -0.012555 0.013233 -0.001851 0.000000 0.000000 0.000000
# 3 -0.009598 -0.001851 0.007127 0.000000 0.000000 0.000000
# 4 0.000000 0.000000 0.000000 0.058718 0.000000 0.000000
# 5 0.000000 0.000000 0.000000 0.000000 0.035411 0.000000
# 6 0.000000 0.000000 0.000000 0.000000 0.000000 0.092414
#
#
# Mechanical properties :
#
#
# Convention : Reuss Voigt Hill
#
# Bulk Modulus (GPa) = 6.68745 40.55910 23.62328
# Shear Modulus (GPa) = 10.37482 24.95049 17.66265
#
# Velocity S-wave (km/s) = 2.11670 3.28253 2.76184
# Velocity P-wave (km/s) = 2.97690 5.64645 4.51355
#
# Compressibility (1/GPa) = 0.14953378
#
# Stress axis : x y z
#
# Youngs Moduli (GPa) = 5.64397 75.56583 140.31591
#
# Poissons Ratio (x) = 0.94873 1.34672
# Poissons Ratio (y) = 0.07086 0.25969
# Poissons Ratio (z) = 0.05417 0.13985
#
# Static dielectric constant tensor:
#      x y z
#    x 1.907880 0.000000 0.000000 
#    y 0.000000 1.982440 0.000000 
#    z 0.000000 0.000000 1.896020 
# 
# From -- ./inp_files/61107.got.cif
#   From: 2010.05.17/outbox.cif.g08.bks.cpg/sg70_31_cif.got.tgz:61107.got - 2010.06.03 15:57:51.
