data_PCOD9514185
_publ_section_title
;
Structure prediction by ZEFSAII (Michael W. Deem and Ramdas Pophale) SiO2 
 PCOD9514185
Probable space group: F D D D
;
_chemical_formula_sum "Si O2"
_cell_formula_units_Z 128
_cell_length_a 21.889693
_cell_length_b 23.870777
_cell_length_c 9.060725
_cell_angle_alpha 90.000000
_cell_angle_beta 90.000000
_cell_angle_gamma 90.000000
_cell_volume 4734.446091
_symmetry_space_group_name_H-M "F D D D"
_symmetry_group_IT_number 70
_space_group.IT_coordinate_system_code '2'
_symmetry_cell_setting 'orthorhombic'
loop_
_space_group_symop_operation_xyz
x,y,z
1/4-x,1/4-y,z
x,1/4-y,1/4-z
1/4-x,y,1/4-z
-x,-y,-z
3/4+x,3/4+y,-z
-x,3/4+y,3/4+z
3/4+x,-y,3/4+z
x,1/2+y,1/2+z
1/4-x,3/4-y,1/2+z
x,3/4-y,3/4-z
1/4-x,1/2+y,3/4-z
-x,1/2-y,1/2-z
3/4+x,1/4+y,1/2-z
-x,1/4+y,1/4+z
3/4+x,1/2-y,1/4+z
1/2+x,y,1/2+z
3/4-x,1/4-y,1/2+z
1/2+x,1/4-y,3/4-z
3/4-x,y,3/4-z
1/2-x,-y,1/2-z
1/4+x,3/4+y,1/2-z
1/2-x,3/4+y,1/4+z
1/4+x,-y,1/4+z
1/2+x,1/2+y,z
3/4-x,3/4-y,z
1/2+x,3/4-y,1/4-z
3/4-x,1/2+y,1/4-z
1/2-x,1/2-y,-z
1/4+x,1/4+y,-z
1/2-x,1/4+y,3/4+z
1/4+x,1/2-y,3/4+z
loop_
_atom_site_type_symbol
_atom_site_label
_atom_site_fract_x
_atom_site_fract_y
_atom_site_fract_z
Si Si1 0.720151 0.174386 0.911455
Si Si2 0.937364 0.625000 0.125000
Si Si3 0.738382 0.125000 0.625000
Si Si4 0.092421 0.965992 0.969646
Si Si5 0.817445 0.762180 0.318484
O O1 0.698718 0.147232 0.760919
O O2 0.754858 0.229989 0.852101
O O3 0.771203 0.134327 0.982463
O O4 0.681594 0.189801 0.056152
O O5 0.896141 0.678196 0.097366
O O6 0.783781 0.076053 0.693056
O O7 0.076459 0.016660 0.856749
O O8 0.125000 0.981951 0.125000
O O9 0.875000 0.725637 0.375000
#
# Coordination Sequence:
#
# PCOD9514185 Si02
#       5
#    32  16  16  32  32
#     4  10  20  34  56  86 123 161 216 265 319 390
#     4  11  18  32  55  86 113 159 218 265 304 379
#     4   9  18  30  52  86 118 161 215 268 314 365
#     4  10  18  30  54  84 120 158 215 269 316 373
#     4  10  20  36  54  84 125 166 200 266 338 384
#
# _framework density 27.035898
#
# number of rings (size 3 to 8) (size 9 to 14) (size 15 to 20)
#    0.000    2.000    5.000    0.000    0.000    0.000 
#    0.000    4.375    0.000    0.000    0.000    1.750 
#    0.000    0.000    0.000    0.250    0.000    0.000 
#
# Total GULP energy -178367.256173 kJ/mol
# GULP energy per Si atom -5573.976755 kJ/mol
# Density = 2.697436 g / cm^3
# Si number density = 27.035898 Si / 1000 Ang^3
#
#
#
# Elastic Constant Matrix: (Units=GPa)
#
#
# Indices 1 2 3 4 5 6 
#
# 1 73.2065 32.6384 57.1138 0.0003 -0.0002 -0.0001
# 2 32.6384 55.0452 82.6811 0.0003 -0.0002 -0.0001
# 3 57.1138 82.6811 309.8896 0.0013 -0.0009 -0.0004
# 4 0.0003 0.0003 0.0013 41.0893 -0.0005 -0.0002
# 5 -0.0002 -0.0002 -0.0009 -0.0005 53.5043 0.0002
# 6 -0.0001 -0.0001 -0.0004 -0.0002 0.0002 33.5978
#
#
#
# Elastic Compliance Matrix: (Units=1/GPa)
#
#
# Indices 1 2 3 4 5 6 
#
# 1 0.018691 -0.009860 -0.000814 0.000000 0.000000 0.000000
# 2 -0.009860 0.035518 -0.007659 0.000000 0.000000 0.000000
# 3 -0.000814 -0.007659 0.005421 0.000000 0.000000 0.000000
# 4 0.000000 0.000000 0.000000 0.024337 0.000000 0.000000
# 5 0.000000 0.000000 0.000000 0.000000 0.018690 0.000000
# 6 0.000000 0.000000 0.000000 0.000000 0.000000 0.029764
#
#
# Mechanical properties :
#
#
# Convention : Reuss Voigt Hill
#
# Bulk Modulus (GPa) = 43.54813 87.00085 65.27449
# Shear Modulus (GPa) = 28.28999 43.35215 35.82107
#
# Velocity S-wave (km/s) = 3.23830 4.00872 3.64393
# Velocity P-wave (km/s) = 5.48859 7.32640 6.47305
#
# Compressibility (1/GPa) = 0.02296310
#
# Stress axis : x y z
#
# Youngs Moduli (GPa) = 53.50162 28.15500 184.48286
#
# Poissons Ratio (x) = 0.27760 0.15020
# Poissons Ratio (y) = 0.52751 1.41300
# Poissons Ratio (z) = 0.04356 0.21565
#
# Static dielectric constant tensor:
#      x y z
#    x 2.247800 0.000000 0.000000 
#    y 0.000000 2.237390 0.000000 
#    z 0.000000 0.000000 2.146990 
# 
# From -- ./inp_files/11063.got.cif
#   From: 2010.05.17/outbox.cif.g08.bks.cpg/sg70_6_cif.got.tgz:11063.got - 2010.06.03 15:57:51.
