data_PCOD9514453
_publ_section_title
;
Structure prediction by ZEFSAII (Michael W. Deem and Ramdas Pophale) SiO2 
 PCOD9514453
Probable space group: F D D D
;
_chemical_formula_sum "Si O2"
_cell_formula_units_Z 232
_cell_length_a 24.654735
_cell_length_b 30.829747
_cell_length_c 13.331109
_cell_angle_alpha 90.000000
_cell_angle_beta 90.000000
_cell_angle_gamma 90.000000
_cell_volume 10132.965851
_symmetry_space_group_name_H-M "F D D D"
_symmetry_group_IT_number 70
_space_group.IT_coordinate_system_code '2'
_symmetry_cell_setting 'orthorhombic'
loop_
_space_group_symop_operation_xyz
x,y,z
1/4-x,1/4-y,z
x,1/4-y,1/4-z
1/4-x,y,1/4-z
-x,-y,-z
3/4+x,3/4+y,-z
-x,3/4+y,3/4+z
3/4+x,-y,3/4+z
x,1/2+y,1/2+z
1/4-x,3/4-y,1/2+z
x,3/4-y,3/4-z
1/4-x,1/2+y,3/4-z
-x,1/2-y,1/2-z
3/4+x,1/4+y,1/2-z
-x,1/4+y,1/4+z
3/4+x,1/2-y,1/4+z
1/2+x,y,1/2+z
3/4-x,1/4-y,1/2+z
1/2+x,1/4-y,3/4-z
3/4-x,y,3/4-z
1/2-x,-y,1/2-z
1/4+x,3/4+y,1/2-z
1/2-x,3/4+y,1/4+z
1/4+x,-y,1/4+z
1/2+x,1/2+y,z
3/4-x,3/4-y,z
1/2+x,3/4-y,1/4-z
3/4-x,1/2+y,1/4-z
1/2-x,1/2-y,-z
1/4+x,1/4+y,-z
1/2-x,1/4+y,3/4+z
1/4+x,1/2-y,3/4+z
loop_
_atom_site_type_symbol
_atom_site_label
_atom_site_fract_x
_atom_site_fract_y
_atom_site_fract_z
Si Si1 0.619239 0.012163 0.268669
Si Si2 0.445224 0.579998 0.002133
Si Si3 0.578467 0.157146 0.261828
Si Si4 0.685524 0.185810 0.770089
Si Si5 0.909985 0.027058 0.729088
Si Si6 0.986401 0.324455 0.054001
Si Si7 0.625000 0.625000 0.125000
Si Si8 0.055585 0.820548 0.989330
O O1 0.662748 0.044774 0.214482
O O2 0.565337 0.042130 0.291321
O O3 0.648246 0.990549 0.366540
O O4 0.594438 0.967749 0.224824
O O5 0.393588 0.550069 0.981358
O O6 0.457999 0.568696 0.118758
O O7 0.426123 0.630050 0.995493
O O8 0.492858 0.574221 0.920297
O O9 0.625000 0.125000 0.226117
O O10 0.591552 0.171170 0.376202
O O11 0.528420 0.123563 0.268152
O O12 0.672108 0.231496 0.719839
O O13 0.665729 0.151260 0.692795
O O14 0.748688 0.185487 0.793430
O O15 0.962579 0.056855 0.740752
#
# Coordination Sequence:
#
# PCOD9514453 Si02
#       8
#    32  32  32  32  32  32   8  32
#     4   9  20  34  52  73 101 142 179 217 263 323
#     4  10  21  32  47  70  99 138 177 214 260 310
#     4   9  18  32  47  67  97 133 174 212 255 299
#     4  11  20  32  43  66  99 139 179 212 248 302
#     4  10  22  33  48  74 101 135 183 220 265 315
#     4  11  19  33  50  71 108 139 172 224 265 311
#     4  12  24  24  40  64 100 144 180 216 236 302
#     4  10  19  34  49  64  96 140 175 212 257 306
#
# _framework density 22.895567
#
# number of rings (size 3 to 8) (size 9 to 14) (size 15 to 20)
#    0.000    1.931    3.448    1.241    1.931    2.207 
#    0.000    0.000    0.000    0.828    0.000    0.000 
#    0.000    0.000    0.000    0.000    0.000    0.000 
#
# Total GULP energy -323158.414221 kJ/mol
# GULP energy per Si atom -5571.696797 kJ/mol
# Density = 2.284346 g / cm^3
# Si number density = 22.895567 Si / 1000 Ang^3
#
#
#
# Elastic Constant Matrix: (Units=GPa)
#
#
# Indices 1 2 3 4 5 6 
#
# 1 61.7661 36.8796 23.2106 0.0000 0.0000 0.0000
# 2 36.8796 149.3506 28.8653 0.0000 0.0000 0.0000
# 3 23.2106 28.8653 59.2809 0.0000 0.0000 0.0000
# 4 0.0000 0.0000 0.0000 -1.2019 0.0000 0.0000
# 5 0.0000 0.0000 0.0000 0.0000 -13.6709 0.0000
# 6 0.0000 0.0000 0.0000 0.0000 0.0000 54.7206
#
#
#
# Elastic Compliance Matrix: (Units=1/GPa)
#
#
# Indices 1 2 3 4 5 6 
#
# 1 0.020902 -0.003952 -0.006260 0.000000 0.000000 0.000000
# 2 -0.003952 0.008138 -0.002416 0.000000 0.000000 0.000000
# 3 -0.006260 -0.002416 0.020496 0.000000 0.000000 0.000000
# 4 0.000000 0.000000 0.000000 -0.832029 0.000000 0.000000
# 5 0.000000 0.000000 0.000000 0.000000 -0.073148 0.000000
# 6 0.000000 0.000000 0.000000 0.000000 0.000000 0.018275
#
#
# Mechanical properties :
#
#
# Convention : Reuss Voigt Hill
#
# Bulk Modulus (GPa) = 41.18207 49.81207 45.49707
# Shear Modulus (GPa) = -6.21876 20.06572 6.92348
#
# Velocity S-wave (km/s) = -1.64986 2.96362 1.74083
# Velocity P-wave (km/s) = 3.79428 5.78914 4.89442
#
# Compressibility (1/GPa) = 0.02428241
#
# Stress axis : x y z
#
# Youngs Moduli (GPa) = 47.84286 122.87621 48.79019
#
# Poissons Ratio (x) = 0.48555 0.30541
# Poissons Ratio (y) = 0.18905 0.11786
# Poissons Ratio (z) = 0.29948 0.29682
#
# Static dielectric constant tensor:
#      x y z
#    x 2.055510 0.000000 0.000000 
#    y 0.000000 1.953500 0.000000 
#    z 0.000000 0.000000 1.970460 
# 
# From -- ./inp_files/37845.got.cif
#   From: 2010.05.17/outbox.cif.g08.bks.cpg/sg70_19_cif.got.tgz:37845.got - 2010.06.03 15:57:51.
