data_PCOD9514827
_publ_section_title
;
Structure prediction by ZEFSAII (Michael W. Deem and Ramdas Pophale) SiO2 
 PCOD9514827
Probable space group: F D D D
;
_chemical_formula_sum "Si O2"
_cell_formula_units_Z 168
_cell_length_a 14.929694
_cell_length_b 24.156348
_cell_length_c 18.265291
_cell_angle_alpha 90.000000
_cell_angle_beta 90.000000
_cell_angle_gamma 90.000000
_cell_volume 6587.320281
_symmetry_space_group_name_H-M "F D D D"
_symmetry_group_IT_number 70
_space_group.IT_coordinate_system_code '2'
_symmetry_cell_setting 'orthorhombic'
loop_
_space_group_symop_operation_xyz
x,y,z
1/4-x,1/4-y,z
x,1/4-y,1/4-z
1/4-x,y,1/4-z
-x,-y,-z
3/4+x,3/4+y,-z
-x,3/4+y,3/4+z
3/4+x,-y,3/4+z
x,1/2+y,1/2+z
1/4-x,3/4-y,1/2+z
x,3/4-y,3/4-z
1/4-x,1/2+y,3/4-z
-x,1/2-y,1/2-z
3/4+x,1/4+y,1/2-z
-x,1/4+y,1/4+z
3/4+x,1/2-y,1/4+z
1/2+x,y,1/2+z
3/4-x,1/4-y,1/2+z
1/2+x,1/4-y,3/4-z
3/4-x,y,3/4-z
1/2-x,-y,1/2-z
1/4+x,3/4+y,1/2-z
1/2-x,3/4+y,1/4+z
1/4+x,-y,1/4+z
1/2+x,1/2+y,z
3/4-x,3/4-y,z
1/2+x,3/4-y,1/4-z
3/4-x,1/2+y,1/4-z
1/2-x,1/2-y,-z
1/4+x,1/4+y,-z
1/2-x,1/4+y,3/4+z
1/4+x,1/2-y,3/4+z
loop_
_atom_site_type_symbol
_atom_site_label
_atom_site_fract_x
_atom_site_fract_y
_atom_site_fract_z
Si Si1 0.174352 0.299251 0.785155
Si Si2 0.975933 0.549725 0.141117
Si Si3 0.634471 0.217559 0.747887
Si Si4 0.125000 0.794394 0.625000
Si Si5 0.685690 0.073865 0.898360
Si Si6 0.625000 0.625000 0.625000
Si Si7 0.875000 0.534027 0.875000
O O1 0.097584 0.324350 0.836274
O O2 0.280258 0.312795 0.790299
O O3 0.166358 0.234199 0.809819
O O4 0.153201 0.311331 0.700669
O O5 0.927388 0.517882 0.205357
O O6 0.053871 0.589767 0.170422
O O7 0.039095 0.503621 0.102551
O O8 0.584088 0.251205 0.684765
O O9 0.586358 0.183555 0.811159
O O10 0.207455 0.830465 0.653143
O O11 0.625000 0.125000 0.922939
#
# Coordination Sequence:
#
# PCOD9514827 Si02
#       7
#    32  32  32  16  32   8  16
#     4   9  18  35  59  82 117 162 204 250 317 384
#     4   9  18  34  53  80 115 162 205 252 309 380
#     4   9  19  38  63  84 118 164 213 251 326 384
#     4  10  20  40  65  90 119 178 205 254 324 383
#     4  10  21  40  61  93 126 156 214 271 312 380
#     4  10  20  36  54  84 124 170 216 264 308 388
#     4   9  16  31  53  80 105 154 201 242 306 375
#
# _framework density 25.503541999999999
#
# number of rings (size 3 to 8) (size 9 to 14) (size 15 to 20)
#    0.000    2.667    0.000    1.143    0.000    0.000 
#   30.857   12.857    0.000    0.000    0.000    0.000 
#    0.000    0.000    0.000    0.000    0.000    0.000 
#
# Total GULP energy -234249.881993 kJ/mol
# GULP energy per Si atom -5577.378143 kJ/mol
# Density = 2.544550 g / cm^3
# Si number density = 25.503542 Si / 1000 Ang^3
#
#
#
# Elastic Constant Matrix: (Units=GPa)
#
#
# Indices 1 2 3 4 5 6 
#
# 1 125.7345 28.7049 38.2224 0.0000 0.0000 0.0000
# 2 28.7049 61.4103 8.9926 0.0000 0.0000 0.0000
# 3 38.2224 8.9926 65.6970 0.0000 0.0000 0.0000
# 4 0.0000 0.0000 0.0000 21.9946 0.0000 0.0000
# 5 0.0000 0.0000 0.0000 0.0000 47.3239 0.0000
# 6 0.0000 0.0000 0.0000 0.0000 0.0000 29.7472
#
#
#
# Elastic Compliance Matrix: (Units=1/GPa)
#
#
# Indices 1 2 3 4 5 6 
#
# 1 0.010600 -0.004134 -0.005601 0.000000 0.000000 0.000000
# 2 -0.004134 0.018230 -0.000090 0.000000 0.000000 0.000000
# 3 -0.005601 -0.000090 0.018492 0.000000 0.000000 0.000000
# 4 0.000000 0.000000 0.000000 0.045466 0.000000 0.000000
# 5 0.000000 0.000000 0.000000 0.000000 0.021131 0.000000
# 6 0.000000 0.000000 0.000000 0.000000 0.000000 0.033617
#
#
# Mechanical properties :
#
#
# Convention : Reuss Voigt Hill
#
# Bulk Modulus (GPa) = 36.13872 44.96461 40.55167
# Shear Modulus (GPa) = 28.34312 31.60792 29.97552
#
# Velocity S-wave (km/s) = 3.33729 3.52427 3.43205
# Velocity P-wave (km/s) = 5.38989 5.85061 5.62497
#
# Compressibility (1/GPa) = 0.02767115
#
# Stress axis : x y z
#
# Youngs Moduli (GPa) = 94.34104 54.85569 54.07631
#
# Poissons Ratio (x) = 0.22680 0.30288
# Poissons Ratio (y) = 0.39005 0.00486
# Poissons Ratio (z) = 0.52841 0.00493
#
# Static dielectric constant tensor:
#      x y z
#    x 2.061820 0.000000 0.000000 
#    y 0.000000 2.178930 0.000000 
#    z 0.000000 0.000000 2.001870 
# 
# From -- ./inp_files/43011.got.cif
#   From: 2010.05.17/outbox.cif.g08.bks.cpg/sg70_22_cif.got.tgz:43011.got - 2010.06.03 15:57:51.
