data_PCOD9514723
_publ_section_title
;
Structure prediction by ZEFSAII (Michael W. Deem and Ramdas Pophale) SiO2 
 PCOD9514723
Probable space group: F D D D
;
_chemical_formula_sum "Si O2"
_cell_formula_units_Z 192
_cell_length_a 21.396527
_cell_length_b 28.684364
_cell_length_c 19.557160
_cell_angle_alpha 90.000000
_cell_angle_beta 90.000000
_cell_angle_gamma 90.000000
_cell_volume 12003.124200
_symmetry_space_group_name_H-M "F D D D"
_symmetry_group_IT_number 70
_space_group.IT_coordinate_system_code '2'
_symmetry_cell_setting 'orthorhombic'
loop_
_space_group_symop_operation_xyz
x,y,z
1/4-x,1/4-y,z
x,1/4-y,1/4-z
1/4-x,y,1/4-z
-x,-y,-z
3/4+x,3/4+y,-z
-x,3/4+y,3/4+z
3/4+x,-y,3/4+z
x,1/2+y,1/2+z
1/4-x,3/4-y,1/2+z
x,3/4-y,3/4-z
1/4-x,1/2+y,3/4-z
-x,1/2-y,1/2-z
3/4+x,1/4+y,1/2-z
-x,1/4+y,1/4+z
3/4+x,1/2-y,1/4+z
1/2+x,y,1/2+z
3/4-x,1/4-y,1/2+z
1/2+x,1/4-y,3/4-z
3/4-x,y,3/4-z
1/2-x,-y,1/2-z
1/4+x,3/4+y,1/2-z
1/2-x,3/4+y,1/4+z
1/4+x,-y,1/4+z
1/2+x,1/2+y,z
3/4-x,3/4-y,z
1/2+x,3/4-y,1/4-z
3/4-x,1/2+y,1/4-z
1/2-x,1/2-y,-z
1/4+x,1/4+y,-z
1/2-x,1/4+y,3/4+z
1/4+x,1/2-y,3/4+z
loop_
_atom_site_type_symbol
_atom_site_label
_atom_site_fract_x
_atom_site_fract_y
_atom_site_fract_z
Si Si1 0.120106 0.898950 0.943490
Si Si2 0.935120 0.748827 0.706432
Si Si3 0.062712 0.912907 0.167002
Si Si4 0.830945 0.268838 0.317531
Si Si5 0.189048 0.150748 0.908578
Si Si6 0.009149 0.108313 0.203275
O O1 0.145489 0.875000 0.875000
O O2 0.063539 0.866252 0.968647
O O3 0.082332 0.947561 0.928349
O O4 0.170387 0.905186 0.003503
O O5 0.878259 0.757841 0.757498
O O6 0.932766 0.793249 0.657261
O O7 0.000000 0.750000 0.750000
O O8 0.125000 0.899124 0.125000
O O9 0.000208 0.889785 0.137180
O O10 0.057005 0.969024 0.156029
O O11 0.875000 0.291435 0.375000
O O12 0.779004 0.304722 0.294975
O O13 0.125000 0.125000 0.888549
O O14 0.203817 0.136157 0.987585
O O15 0.020451 0.125000 0.125000
#
# Coordination Sequence:
#
# PCOD9514723 Si02
#       6
#    32  32  32  32  32  32
#     4  10  22  35  55  76 103 148 188 216 256 324
#     4  11  19  32  47  76 111 138 173 214 264 328
#     4  10  20  38  53  74 110 148 180 218 269 321
#     4  10  20  30  48  73 111 148 170 207 265 326
#     4  12  22  33  52  80 115 143 180 222 269 324
#     4  11  21  30  46  81 115 142 177 208 261 316
#
# _framework density 15.995835
#
# number of rings (size 3 to 8) (size 9 to 14) (size 15 to 20)
#    0.000    1.333    5.000    3.000    7.000    0.000 
#    0.000    0.000    0.000    1.500    0.000    0.000 
#    0.000    0.000    0.000    0.000    0.000    0.000 
#
# Total GULP energy -267515.773931 kJ/mol
# GULP energy per Si atom -5573.245290 kJ/mol
# Density = 1.595943 g / cm^3
# Si number density = 15.995835 Si / 1000 Ang^3
#
#
#
# Elastic Constant Matrix: (Units=GPa)
#
#
# Indices 1 2 3 4 5 6 
#
# 1 107.9616 43.1651 36.7583 0.0000 0.0000 0.0000
# 2 43.1651 61.3915 32.2436 0.0000 0.0000 0.0000
# 3 36.7583 32.2436 71.2307 0.0000 0.0000 0.0000
# 4 0.0000 0.0000 0.0000 22.6233 0.0000 0.0000
# 5 0.0000 0.0000 0.0000 0.0000 21.9786 0.0000
# 6 0.0000 0.0000 0.0000 0.0000 0.0000 26.4178
#
#
#
# Elastic Compliance Matrix: (Units=1/GPa)
#
#
# Indices 1 2 3 4 5 6 
#
# 1 0.013521 -0.007665 -0.003508 0.000000 0.000000 0.000000
# 2 -0.007665 0.025714 -0.007685 0.000000 0.000000 0.000000
# 3 -0.003508 -0.007685 0.019328 0.000000 0.000000 0.000000
# 4 0.000000 0.000000 0.000000 0.044202 0.000000 0.000000
# 5 0.000000 0.000000 0.000000 0.000000 0.045499 0.000000
# 6 0.000000 0.000000 0.000000 0.000000 0.000000 0.037853
#
#
# Mechanical properties :
#
#
# Convention : Reuss Voigt Hill
#
# Bulk Modulus (GPa) = 47.96479 51.65751 49.81115
# Shear Modulus (GPa) = 21.66551 22.76506 22.21528
#
# Velocity S-wave (km/s) = 3.68427 3.77661 3.73073
# Velocity P-wave (km/s) = 6.93898 7.16809 7.05446
#
# Compressibility (1/GPa) = 0.02084863
#
# Stress axis : x y z
#
# Youngs Moduli (GPa) = 73.95664 38.88946 51.73891
#
# Poissons Ratio (x) = 0.29807 0.18151
# Poissons Ratio (y) = 0.56684 0.39759
# Poissons Ratio (z) = 0.25946 0.29885
#
# Static dielectric constant tensor:
#      x y z
#    x 1.549210 0.000000 0.000000 
#    y 0.000000 1.584690 0.000000 
#    z 0.000000 0.000000 1.590140 
# 
# From -- ./inp_files/45083.got.cif
#   From: 2010.05.17/outbox.cif.g08.bks.cpg/sg70_23_cif.got.tgz:45083.got - 2010.06.03 15:57:51.
