data_PCOD9514571
_publ_section_title
;
Structure prediction by ZEFSAII (Michael W. Deem and Ramdas Pophale) SiO2 
 PCOD9514571
Probable space group: F D D D
;
_chemical_formula_sum "Si O2"
_cell_formula_units_Z 144
_cell_length_a 18.243273
_cell_length_b 19.349295
_cell_length_c 20.834818
_cell_angle_alpha 90.000000
_cell_angle_beta 90.000000
_cell_angle_gamma 90.000000
_cell_volume 7354.575559
_symmetry_space_group_name_H-M "F D D D"
_symmetry_group_IT_number 70
_space_group.IT_coordinate_system_code '2'
_symmetry_cell_setting 'orthorhombic'
loop_
_space_group_symop_operation_xyz
x,y,z
1/4-x,1/4-y,z
x,1/4-y,1/4-z
1/4-x,y,1/4-z
-x,-y,-z
3/4+x,3/4+y,-z
-x,3/4+y,3/4+z
3/4+x,-y,3/4+z
x,1/2+y,1/2+z
1/4-x,3/4-y,1/2+z
x,3/4-y,3/4-z
1/4-x,1/2+y,3/4-z
-x,1/2-y,1/2-z
3/4+x,1/4+y,1/2-z
-x,1/4+y,1/4+z
3/4+x,1/2-y,1/4+z
1/2+x,y,1/2+z
3/4-x,1/4-y,1/2+z
1/2+x,1/4-y,3/4-z
3/4-x,y,3/4-z
1/2-x,-y,1/2-z
1/4+x,3/4+y,1/2-z
1/2-x,3/4+y,1/4+z
1/4+x,-y,1/4+z
1/2+x,1/2+y,z
3/4-x,3/4-y,z
1/2+x,3/4-y,1/4-z
3/4-x,1/2+y,1/4-z
1/2-x,1/2-y,-z
1/4+x,1/4+y,-z
1/2-x,1/4+y,3/4+z
1/4+x,1/2-y,3/4+z
loop_
_atom_site_type_symbol
_atom_site_label
_atom_site_fract_x
_atom_site_fract_y
_atom_site_fract_z
Si Si1 0.840130 0.646788 0.444358
Si Si2 0.375000 0.875000 0.542545
Si Si3 0.161960 0.938951 0.423583
Si Si4 0.169379 0.517611 0.560758
Si Si5 0.818266 0.824314 0.586667
O O1 0.875000 0.662585 0.375000
O O2 0.887004 0.671108 0.504473
O O3 0.831674 0.564212 0.450061
O O4 0.759619 0.680605 0.445797
O O5 0.369745 0.940778 0.496707
O O6 0.440448 0.864376 0.594439
O O7 0.153023 0.875000 0.375000
O O8 0.247120 0.959258 0.428273
O O9 0.110667 0.002992 0.402039
O O10 0.125000 0.533359 0.625000
O O11 0.875000 0.875000 0.549910
#
# Coordination Sequence:
#
# PCOD9514571 Si02
#       5
#    32  16  32  32  32
#     4  11  24  41  67  92 129 174 220 265 326 386
#     4  10  19  36  64  84 127 166 200 248 338 370
#     4  12  24  40  68  96 130 172 224 265 326 391
#     4  11  22  39  61 101 135 166 208 266 326 403
#     4  10  22  43  62  86 134 168 210 278 320 367
#
# _framework density 19.579647999999999
#
# number of rings (size 3 to 8) (size 9 to 14) (size 15 to 20)
#    0.667    0.444    2.222    5.000    0.000    0.000 
#    0.000    7.778    0.000    0.000    0.000    0.000 
#    0.000    0.000    0.000    0.000    0.000    0.000 
#
# Total GULP energy -200908.146002 kJ/mol
# GULP energy per Si atom -5580.781833 kJ/mol
# Density = 1.953508 g / cm^3
# Si number density = 19.579648 Si / 1000 Ang^3
#
#
#
# Elastic Constant Matrix: (Units=GPa)
#
#
# Indices 1 2 3 4 5 6 
#
# 1 154.3281 54.3457 60.8867 0.0000 0.0000 0.0000
# 2 54.3457 92.5752 36.6244 0.0000 0.0000 0.0000
# 3 60.8867 36.6244 112.6446 0.0000 0.0000 0.0000
# 4 0.0000 0.0000 0.0000 18.3056 0.0000 0.0000
# 5 0.0000 0.0000 0.0000 0.0000 29.9100 0.0000
# 6 0.0000 0.0000 0.0000 0.0000 0.0000 26.4565
#
#
#
# Elastic Compliance Matrix: (Units=1/GPa)
#
#
# Indices 1 2 3 4 5 6 
#
# 1 0.009379 -0.004017 -0.003764 0.000000 0.000000 0.000000
# 2 -0.004017 0.014117 -0.002419 0.000000 0.000000 0.000000
# 3 -0.003764 -0.002419 0.011698 0.000000 0.000000 0.000000
# 4 0.000000 0.000000 0.000000 0.054628 0.000000 0.000000
# 5 0.000000 0.000000 0.000000 0.000000 0.033434 0.000000
# 6 0.000000 0.000000 0.000000 0.000000 0.000000 0.037798
#
#
# Mechanical properties :
#
#
# Convention : Reuss Voigt Hill
#
# Bulk Modulus (GPa) = 67.58630 73.69575 70.64102
# Shear Modulus (GPa) = 26.82629 28.78047 27.80338
#
# Velocity S-wave (km/s) = 3.70552 3.83811 3.77240
# Velocity P-wave (km/s) = 7.27333 7.57378 7.42508
#
# Compressibility (1/GPa) = 0.01479590
#
# Stress axis : x y z
#
# Youngs Moduli (GPa) = 106.62013 70.83637 85.48388
#
# Poissons Ratio (x) = 0.28455 0.32172
# Poissons Ratio (y) = 0.42830 0.20675
# Poissons Ratio (z) = 0.40127 0.17133
#
# Static dielectric constant tensor:
#      x y z
#    x 1.674080 0.000000 0.000000 
#    y 0.000000 1.708700 0.000000 
#    z 0.000000 0.000000 1.694650 
# 
# From -- ./inp_files/52035.got.cif
#   From: 2010.05.17/outbox.cif.g08.bks.cpg/sg70_27_cif.got.tgz:52035.got - 2010.06.03 15:57:51.
