data_PCOD9514763
_publ_section_title
;
Structure prediction by ZEFSAII (Michael W. Deem and Ramdas Pophale) SiO2 
 PCOD9514763
Probable space group: F D D D
;
_chemical_formula_sum "Si O2"
_cell_formula_units_Z 232
_cell_length_a 25.096922
_cell_length_b 28.849530
_cell_length_c 17.360862
_cell_angle_alpha 90.000000
_cell_angle_beta 90.000000
_cell_angle_gamma 90.000000
_cell_volume 12569.861374
_symmetry_space_group_name_H-M "F D D D"
_symmetry_group_IT_number 70
_space_group.IT_coordinate_system_code '2'
_symmetry_cell_setting 'orthorhombic'
loop_
_space_group_symop_operation_xyz
x,y,z
1/4-x,1/4-y,z
x,1/4-y,1/4-z
1/4-x,y,1/4-z
-x,-y,-z
3/4+x,3/4+y,-z
-x,3/4+y,3/4+z
3/4+x,-y,3/4+z
x,1/2+y,1/2+z
1/4-x,3/4-y,1/2+z
x,3/4-y,3/4-z
1/4-x,1/2+y,3/4-z
-x,1/2-y,1/2-z
3/4+x,1/4+y,1/2-z
-x,1/4+y,1/4+z
3/4+x,1/2-y,1/4+z
1/2+x,y,1/2+z
3/4-x,1/4-y,1/2+z
1/2+x,1/4-y,3/4-z
3/4-x,y,3/4-z
1/2-x,-y,1/2-z
1/4+x,3/4+y,1/2-z
1/2-x,3/4+y,1/4+z
1/4+x,-y,1/4+z
1/2+x,1/2+y,z
3/4-x,3/4-y,z
1/2+x,3/4-y,1/4-z
3/4-x,1/2+y,1/4-z
1/2-x,1/2-y,-z
1/4+x,1/4+y,-z
1/2-x,1/4+y,3/4+z
1/4+x,1/2-y,3/4+z
loop_
_atom_site_type_symbol
_atom_site_label
_atom_site_fract_x
_atom_site_fract_y
_atom_site_fract_z
Si Si1 0.640606 0.954598 0.879155
Si Si2 0.816210 0.806033 0.983200
Si Si3 0.503548 0.748067 0.108586
Si Si4 0.075800 0.728201 0.462899
Si Si5 0.433670 0.370413 0.120338
Si Si6 0.392828 0.126824 0.749230
Si Si7 0.625000 0.125000 0.625000
Si Si8 0.791434 0.103135 0.895673
O O1 0.689855 0.990075 0.893502
O O2 0.654445 0.917738 0.811592
O O3 0.635866 0.921442 0.953783
O O4 0.587475 0.982257 0.851370
O O5 0.771428 0.779786 0.935156
O O6 0.837428 0.844244 0.925548
O O7 0.866435 0.772288 0.995453
O O8 0.808452 0.836621 0.060137
O O9 0.528463 0.799106 0.115246
O O10 0.530843 0.732012 0.028384
O O11 0.067994 0.678172 0.424300
O O12 0.375000 0.375000 0.156561
O O13 0.486236 0.373214 0.171464
O O14 0.438494 0.125911 0.814356
O O15 0.338632 0.139840 0.793855
#
# Coordination Sequence:
#
# PCOD9514763 Si02
#       8
#    32  32  32  32  32  32   8  32
#     4  11  23  39  56  86 117 160 198 252 300 371
#     4  11  19  30  47  81 123 160 187 238 282 354
#     4  12  21  31  58  84 117 158 205 235 294 364
#     4  11  20  34  52  79 115 151 199 243 289 351
#     4  10  20  34  52  80 117 150 194 249 300 350
#     4  10  23  40  58  81 125 161 204 242 311 369
#     4  12  16  28  44  72 128 164 184 218 304 332
#     4  11  22  39  59  86 115 164 203 256 301 370
#
# _framework density 18.456847
#
# number of rings (size 3 to 8) (size 9 to 14) (size 15 to 20)
#    0.000    1.103    4.828    4.138    1.931    3.862 
#    0.000    0.690    0.000    0.000    0.000    1.931 
#    0.000    0.000    0.000    0.000    0.000    0.000 
#
# Total GULP energy -323332.464730 kJ/mol
# GULP energy per Si atom -5574.697668 kJ/mol
# Density = 1.841484 g / cm^3
# Si number density = 18.456847 Si / 1000 Ang^3
#
#
#
# Elastic Constant Matrix: (Units=GPa)
#
#
# Indices 1 2 3 4 5 6 
#
# 1 94.5082 22.7857 22.6480 0.0000 0.0000 0.0000
# 2 22.7857 82.0303 32.9418 0.0000 0.0000 0.0000
# 3 22.6480 32.9418 53.2750 0.0000 0.0000 0.0000
# 4 0.0000 0.0000 0.0000 28.8026 0.0000 0.0000
# 5 0.0000 0.0000 0.0000 0.0000 27.2234 0.0000
# 6 0.0000 0.0000 0.0000 0.0000 0.0000 -0.3167
#
#
#
# Elastic Compliance Matrix: (Units=1/GPa)
#
#
# Indices 1 2 3 4 5 6 
#
# 1 0.011957 -0.001703 -0.004030 0.000000 0.000000 0.000000
# 2 -0.001703 0.016460 -0.009454 0.000000 0.000000 0.000000
# 3 -0.004030 -0.009454 0.026330 0.000000 0.000000 0.000000
# 4 0.000000 0.000000 0.000000 0.034719 0.000000 0.000000
# 5 0.000000 0.000000 0.000000 0.000000 0.036733 0.000000
# 6 0.000000 0.000000 0.000000 0.000000 0.000000 -3.157934
#
#
# Mechanical properties :
#
#
# Convention : Reuss Voigt Hill
#
# Bulk Modulus (GPa) = 41.02934 42.95163 41.99048
# Shear Modulus (GPa) = -1.67043 21.23774 9.78365
#
# Velocity S-wave (km/s) = -0.95237 3.39583 2.30485
# Velocity P-wave (km/s) = 4.59007 6.22073 5.46655
#
# Compressibility (1/GPa) = 0.02437280
#
# Stress axis : x y z
#
# Youngs Moduli (GPa) = 83.62957 60.75266 37.98008
#
# Poissons Ratio (x) = 0.10346 0.15307
# Poissons Ratio (y) = 0.14242 0.35906
# Poissons Ratio (z) = 0.33705 0.57435
#
# Static dielectric constant tensor:
#      x y z
#    x 1.687500 0.000000 0.000000 
#    y 0.000000 1.678260 0.000000 
#    z 0.000000 0.000000 1.641940 
# 
# From -- ./inp_files/40025.got.cif
#   From: 2010.05.17/outbox.cif.g08.bks.cpg/sg70_21_cif.got.tgz:40025.got - 2010.06.03 15:57:51.
