data_PCOD9514729
_publ_section_title
;
Structure prediction by ZEFSAII (Michael W. Deem and Ramdas Pophale) SiO2 
 PCOD9514729
Probable space group: F D D D
;
_chemical_formula_sum "Si O2"
_cell_formula_units_Z 128
_cell_length_a 10.619291
_cell_length_b 30.770359
_cell_length_c 13.848783
_cell_angle_alpha 90.000000
_cell_angle_beta 90.000000
_cell_angle_gamma 90.000000
_cell_volume 4525.219974
_symmetry_space_group_name_H-M "F D D D"
_symmetry_group_IT_number 70
_space_group.IT_coordinate_system_code '2'
_symmetry_cell_setting 'orthorhombic'
loop_
_space_group_symop_operation_xyz
x,y,z
1/4-x,1/4-y,z
x,1/4-y,1/4-z
1/4-x,y,1/4-z
-x,-y,-z
3/4+x,3/4+y,-z
-x,3/4+y,3/4+z
3/4+x,-y,3/4+z
x,1/2+y,1/2+z
1/4-x,3/4-y,1/2+z
x,3/4-y,3/4-z
1/4-x,1/2+y,3/4-z
-x,1/2-y,1/2-z
3/4+x,1/4+y,1/2-z
-x,1/4+y,1/4+z
3/4+x,1/2-y,1/4+z
1/2+x,y,1/2+z
3/4-x,1/4-y,1/2+z
1/2+x,1/4-y,3/4-z
3/4-x,y,3/4-z
1/2-x,-y,1/2-z
1/4+x,3/4+y,1/2-z
1/2-x,3/4+y,1/4+z
1/4+x,-y,1/4+z
1/2+x,1/2+y,z
3/4-x,3/4-y,z
1/2+x,3/4-y,1/4-z
3/4-x,1/2+y,1/4-z
1/2-x,1/2-y,-z
1/4+x,1/4+y,-z
1/2-x,1/4+y,3/4+z
1/4+x,1/2-y,3/4+z
loop_
_atom_site_type_symbol
_atom_site_label
_atom_site_fract_x
_atom_site_fract_y
_atom_site_fract_z
Si Si1 0.982132 0.199259 0.266806
Si Si2 0.505574 0.676649 0.986373
Si Si3 0.015968 0.159359 0.757461
Si Si4 0.027078 0.531065 0.257256
O O1 0.099968 0.172161 0.228500
O O2 0.000000 0.250000 0.250000
O O3 0.002456 0.200728 0.383086
O O4 0.846428 0.194320 0.216442
O O5 0.378038 0.654747 0.024513
O O6 0.507936 0.662068 0.874248
O O7 0.483253 0.729192 0.996037
O O8 0.125000 0.125000 0.732568
O O9 0.084786 0.204033 0.726757
#
# Coordination Sequence:
#
# PCOD9514729 Si02
#       4
#    32  32  32  32
#     4   8  15  27  47  76  99 123 168 219 252 298
#     4   9  18  31  48  73 101 137 175 213 262 316
#     4  10  20  31  47  76 106 133 172 225 269 309
#     4   9  16  30  50  73 100 134 172 212 259 316
#
# _framework density 28.285919
#
# number of rings (size 3 to 8) (size 9 to 14) (size 15 to 20)
#    0.000    3.000    0.000    0.750    0.000    8.000 
#    0.000    0.000    0.000    0.000    0.000  140.000 
#    0.000    0.000    0.000    0.000    0.000    0.000 
#
# Total GULP energy -178381.137702 kJ/mol
# GULP energy per Si atom -5574.410553 kJ/mol
# Density = 2.822154 g / cm^3
# Si number density = 28.285919 Si / 1000 Ang^3
#
#
#
# Elastic Constant Matrix: (Units=GPa)
#
#
# Indices 1 2 3 4 5 6 
#
# 1 283.8996 40.7803 -20.2888 0.0000 0.0000 0.0000
# 2 40.7803 126.4245 -12.7612 0.0000 0.0000 0.0000
# 3 -20.2888 -12.7612 126.1970 0.0000 0.0000 0.0000
# 4 0.0000 0.0000 0.0000 25.1375 0.0000 0.0000
# 5 0.0000 0.0000 0.0000 0.0000 1.9589 0.0000
# 6 0.0000 0.0000 0.0000 0.0000 0.0000 -9.9963
#
#
#
# Elastic Compliance Matrix: (Units=1/GPa)
#
#
# Indices 1 2 3 4 5 6 
#
# 1 0.003722 -0.001152 0.000482 0.000000 0.000000 0.000000
# 2 -0.001152 0.008348 0.000659 0.000000 0.000000 0.000000
# 3 0.000482 0.000659 0.008068 0.000000 0.000000 0.000000
# 4 0.000000 0.000000 0.000000 0.039781 0.000000 0.000000
# 5 0.000000 0.000000 0.000000 0.000000 0.510479 0.000000
# 6 0.000000 0.000000 0.000000 0.000000 0.000000 -0.100037
#
#
# Mechanical properties :
#
#
# Convention : Reuss Voigt Hill
#
# Bulk Modulus (GPa) = 49.71118 61.33131 55.52124
# Shear Modulus (GPa) = 10.48023 38.67276 24.57650
#
# Velocity S-wave (km/s) = 1.92695 3.70159 2.95084
# Velocity P-wave (km/s) = 4.75011 6.32445 5.59295
#
# Compressibility (1/GPa) = 0.02011620
#
# Stress axis : x y z
#
# Youngs Moduli (GPa) = 268.65133 119.78942 123.94284
#
# Poissons Ratio (x) = 0.13800 -0.05973
# Poissons Ratio (y) = 0.30950 -0.08167
# Poissons Ratio (z) = -0.12947 -0.07893
#
# Static dielectric constant tensor:
#      x y z
#    x 2.302410 0.000000 0.000000 
#    y 0.000000 2.191010 0.000000 
#    z 0.000000 0.000000 2.162210 
# 
# From -- ./inp_files/50096.got.cif
#   From: 2010.05.17/outbox.cif.g08.bks.cpg/sg70_26_cif.got.tgz:50096.got - 2010.06.03 15:57:51.
