data_PCOD9514468
_publ_section_title
;
Structure prediction by ZEFSAII (Michael W. Deem and Ramdas Pophale) SiO2 
 PCOD9514468
Probable space group: F D D D
;
_chemical_formula_sum "Si O2"
_cell_formula_units_Z 168
_cell_length_a 12.720057
_cell_length_b 23.329137
_cell_length_c 25.068742
_cell_angle_alpha 90.000000
_cell_angle_beta 90.000000
_cell_angle_gamma 90.000000
_cell_volume 7439.097858
_symmetry_space_group_name_H-M "F D D D"
_symmetry_group_IT_number 70
_space_group.IT_coordinate_system_code '2'
_symmetry_cell_setting 'orthorhombic'
loop_
_space_group_symop_operation_xyz
x,y,z
1/4-x,1/4-y,z
x,1/4-y,1/4-z
1/4-x,y,1/4-z
-x,-y,-z
3/4+x,3/4+y,-z
-x,3/4+y,3/4+z
3/4+x,-y,3/4+z
x,1/2+y,1/2+z
1/4-x,3/4-y,1/2+z
x,3/4-y,3/4-z
1/4-x,1/2+y,3/4-z
-x,1/2-y,1/2-z
3/4+x,1/4+y,1/2-z
-x,1/4+y,1/4+z
3/4+x,1/2-y,1/4+z
1/2+x,y,1/2+z
3/4-x,1/4-y,1/2+z
1/2+x,1/4-y,3/4-z
3/4-x,y,3/4-z
1/2-x,-y,1/2-z
1/4+x,3/4+y,1/2-z
1/2-x,3/4+y,1/4+z
1/4+x,-y,1/4+z
1/2+x,1/2+y,z
3/4-x,3/4-y,z
1/2+x,3/4-y,1/4-z
3/4-x,1/2+y,1/4-z
1/2-x,1/2-y,-z
1/4+x,1/4+y,-z
1/2-x,1/4+y,3/4+z
1/4+x,1/2-y,3/4+z
loop_
_atom_site_type_symbol
_atom_site_label
_atom_site_fract_x
_atom_site_fract_y
_atom_site_fract_z
Si Si1 0.852899 0.744800 0.295582
Si Si2 0.775080 0.102258 0.065849
Si Si3 0.376763 0.441694 0.701244
Si Si4 0.875000 0.875000 0.875000
Si Si5 0.302136 0.926688 0.715561
Si Si6 0.738326 0.791212 0.943915
O O1 0.814938 0.803851 0.323193
O O2 0.748163 0.707762 0.296863
O O3 0.879770 0.769371 0.236447
O O4 0.953067 0.706736 0.314010
O O5 0.797667 0.125000 0.125000
O O6 0.743330 0.147734 0.020306
O O7 0.877978 0.071457 0.041874
O O8 0.375000 0.375000 0.691128
O O9 0.302464 0.482661 0.665418
O O10 0.319947 0.459341 0.756799
O O11 0.798129 0.833273 0.905614
O O12 0.375000 0.875000 0.692122
#
# Coordination Sequence:
#
# PCOD9514468 Si02
#       6
#    32  32  32   8  32  32
#     4   9  19  32  52  80 112 151 196 238 292 350
#     4  10  19  34  56  86 118 149 196 252 301 343
#     4  10  19  35  55  83 118 159 197 241 292 373
#     4  12  20  36  56  92 126 156 204 266 304 356
#     4   9  18  32  51  79 115 150 193 253 292 339
#     4  10  21  32  56  89 119 157 197 249 306 354
#
# _framework density 22.583383999999999
#
# number of rings (size 3 to 8) (size 9 to 14) (size 15 to 20)
#    0.000    2.286    1.905    1.143    0.000    4.952 
#    0.000    0.000    0.000    4.571    0.000   44.000 
#    0.000    0.000    0.000    0.000    0.000    0.000 
#
# Total GULP energy -233896.044121 kJ/mol
# GULP energy per Si atom -5568.953431 kJ/mol
# Density = 2.253198 g / cm^3
# Si number density = 22.583384 Si / 1000 Ang^3
#
#
#
# Elastic Constant Matrix: (Units=GPa)
#
#
# Indices 1 2 3 4 5 6 
#
# 1 125.6992 52.0242 12.0530 0.0000 0.0000 0.0000
# 2 52.0242 142.8217 -0.3774 0.0000 0.0000 0.0000
# 3 12.0530 -0.3774 28.4196 0.0000 0.0000 0.0000
# 4 0.0000 0.0000 0.0000 13.5482 0.0000 0.0000
# 5 0.0000 0.0000 0.0000 0.0000 13.8014 0.0000
# 6 0.0000 0.0000 0.0000 0.0000 0.0000 56.2409
#
#
#
# Elastic Compliance Matrix: (Units=1/GPa)
#
#
# Indices 1 2 3 4 5 6 
#
# 1 0.009850 -0.003599 -0.004225 0.000000 0.000000 0.000000
# 2 -0.003599 0.008317 0.001637 0.000000 0.000000 0.000000
# 3 -0.004225 0.001637 0.037001 0.000000 0.000000 0.000000
# 4 0.000000 0.000000 0.000000 0.073810 0.000000 0.000000
# 5 0.000000 0.000000 0.000000 0.000000 0.072456 0.000000
# 6 0.000000 0.000000 0.000000 0.000000 0.000000 0.017781
#
#
# Mechanical properties :
#
#
# Convention : Reuss Voigt Hill
#
# Bulk Modulus (GPa) = 23.36845 47.14890 35.25868
# Shear Modulus (GPa) = 20.33717 32.26749 26.30233
#
# Velocity S-wave (km/s) = 3.00415 3.78407 3.41644
# Velocity P-wave (km/s) = 4.73321 6.32576 5.58653
#
# Compressibility (1/GPa) = 0.04279274
#
# Stress axis : x y z
#
# Youngs Moduli (GPa) = 101.51965 120.23389 27.02649
#
# Poissons Ratio (x) = 0.43275 0.11420
# Poissons Ratio (y) = 0.36539 -0.04424
# Poissons Ratio (z) = 0.42896 -0.19681
#
# Static dielectric constant tensor:
#      x y z
#    x 1.846340 0.000000 0.000000 
#    y 0.000000 1.866600 0.000000 
#    z 0.000000 0.000000 1.923630 
# 
# From -- ./inp_files/64733.got.cif
#   From: 2010.05.17/outbox.cif.g08.bks.cpg/sg70_33_cif.got.tgz:64733.got - 2010.06.03 15:57:51.
