data_PCOD9514858
_publ_section_title
;
Structure prediction by ZEFSAII (Michael W. Deem and Ramdas Pophale) SiO2 
 PCOD9514858
Probable space group: F D D D
;
_chemical_formula_sum "Si O2"
_cell_formula_units_Z 176
_cell_length_a 30.083672
_cell_length_b 11.321515
_cell_length_c 25.802304
_cell_angle_alpha 90.000000
_cell_angle_beta 90.000000
_cell_angle_gamma 90.000000
_cell_volume 8788.077516
_symmetry_space_group_name_H-M "F D D D"
_symmetry_group_IT_number 70
_space_group.IT_coordinate_system_code '2'
_symmetry_cell_setting 'orthorhombic'
loop_
_space_group_symop_operation_xyz
x,y,z
1/4-x,1/4-y,z
x,1/4-y,1/4-z
1/4-x,y,1/4-z
-x,-y,-z
3/4+x,3/4+y,-z
-x,3/4+y,3/4+z
3/4+x,-y,3/4+z
x,1/2+y,1/2+z
1/4-x,3/4-y,1/2+z
x,3/4-y,3/4-z
1/4-x,1/2+y,3/4-z
-x,1/2-y,1/2-z
3/4+x,1/4+y,1/2-z
-x,1/4+y,1/4+z
3/4+x,1/2-y,1/4+z
1/2+x,y,1/2+z
3/4-x,1/4-y,1/2+z
1/2+x,1/4-y,3/4-z
3/4-x,y,3/4-z
1/2-x,-y,1/2-z
1/4+x,3/4+y,1/2-z
1/2-x,3/4+y,1/4+z
1/4+x,-y,1/4+z
1/2+x,1/2+y,z
3/4-x,3/4-y,z
1/2+x,3/4-y,1/4-z
3/4-x,1/2+y,1/4-z
1/2-x,1/2-y,-z
1/4+x,1/4+y,-z
1/2-x,1/4+y,3/4+z
1/4+x,1/2-y,3/4+z
loop_
_atom_site_type_symbol
_atom_site_label
_atom_site_fract_x
_atom_site_fract_y
_atom_site_fract_z
Si Si1 0.227499 0.186867 0.863681
Si Si2 0.875000 0.875000 0.789887
Si Si3 0.094749 0.396456 0.775329
Si Si4 0.954324 0.323495 0.744873
Si Si5 0.750107 0.460461 0.924489
Si Si6 0.844967 0.625000 0.125000
Si Si7 0.698575 0.625000 0.125000
O O1 0.207105 0.124333 0.813004
O O2 0.187282 0.264566 0.885303
O O3 0.268639 0.273988 0.853120
O O4 0.246677 0.091665 0.903169
O O5 0.863435 0.757760 0.756619
O O6 0.833742 0.907395 0.827530
O O7 0.084359 0.272308 0.746287
O O8 0.047048 0.436199 0.798047
O O9 0.125196 0.363137 0.824203
O O10 0.000000 0.250000 0.750000
O O11 0.960343 0.428181 0.786137
O O12 0.753981 0.375000 0.875000
#
# Coordination Sequence:
#
# PCOD9514858 Si02
#       7
#    32  16  32  32  32  16  16
#     4  11  22  40  62  90 129 160 217 257 312 379
#     4  11  24  40  66  86 128 170 204 261 314 384
#     4  11  21  40  60  94 127 161 212 259 322 372
#     4  10  20  36  60  90 120 159 205 261 310 368
#     4  11  20  36  63  93 118 167 207 259 311 374
#     4  11  24  37  62  93 128 170 200 271 322 367
#     4  10  24  43  60  90 122 176 208 254 308 385
#
# _framework density 20.027134
#
# number of rings (size 3 to 8) (size 9 to 14) (size 15 to 20)
#    0.000    1.273    4.545    3.273    0.000    3.636 
#    0.000    4.545    0.000    0.000    0.000    0.000 
#    0.000    0.000    0.000    0.000    0.000    0.000 
#
# Total GULP energy -245531.729079 kJ/mol
# GULP energy per Si atom -5580.266570 kJ/mol
# Density = 1.998155 g / cm^3
# Si number density = 20.027134 Si / 1000 Ang^3
#
#
#
# Elastic Constant Matrix: (Units=GPa)
#
#
# Indices 1 2 3 4 5 6 
#
# 1 80.8334 39.8692 29.9215 0.0000 0.0000 0.0000
# 2 39.8692 122.3393 45.5331 0.0000 0.0000 0.0000
# 3 29.9215 45.5331 79.1653 0.0000 0.0000 0.0000
# 4 0.0000 0.0000 0.0000 41.4268 0.0000 0.0000
# 5 0.0000 0.0000 0.0000 0.0000 7.4575 0.0000
# 6 0.0000 0.0000 0.0000 0.0000 0.0000 27.7177
#
#
#
# Elastic Compliance Matrix: (Units=1/GPa)
#
#
# Indices 1 2 3 4 5 6 
#
# 1 0.015580 -0.003672 -0.003777 0.000000 0.000000 0.000000
# 2 -0.003672 0.011266 -0.005092 0.000000 0.000000 0.000000
# 3 -0.003777 -0.005092 0.016988 0.000000 0.000000 0.000000
# 4 0.000000 0.000000 0.000000 0.024139 0.000000 0.000000
# 5 0.000000 0.000000 0.000000 0.000000 0.134092 0.000000
# 6 0.000000 0.000000 0.000000 0.000000 0.000000 0.036078
#
#
# Mechanical properties :
#
#
# Convention : Reuss Voigt Hill
#
# Bulk Modulus (GPa) = 53.32499 56.99839 55.16169
# Shear Modulus (GPa) = 18.55459 26.45469 22.50464
#
# Velocity S-wave (km/s) = 3.04710 3.63842 3.35581
# Velocity P-wave (km/s) = 6.25012 6.79508 6.52829
#
# Compressibility (1/GPa) = 0.01875293
#
# Stress axis : x y z
#
# Youngs Moduli (GPa) = 64.18411 88.76504 58.86518
#
# Poissons Ratio (x) = 0.32592 0.22233
# Poissons Ratio (y) = 0.23567 0.29973
# Poissons Ratio (z) = 0.24241 0.45198
#
# Static dielectric constant tensor:
#      x y z
#    x 1.699860 0.000000 0.000000 
#    y 0.000000 1.776710 0.000000 
#    z 0.000000 0.000000 1.742100 
# 
# From -- ./inp_files/55031.got.cif
#   From: 2010.05.17/outbox.cif.g08.bks.cpg/sg70_28_cif.got.tgz:55031.got - 2010.06.03 15:57:51.
