data_PCOD9515415
_publ_section_title
;
Structure prediction by ZEFSAII (Michael W. Deem and Ramdas Pophale) SiO2 
 PCOD9515415
Probable space group: F D D D
;
_chemical_formula_sum "Si O2"
_cell_formula_units_Z 160
_cell_length_a 21.561719
_cell_length_b 9.703435
_cell_length_c 34.307623
_cell_angle_alpha 90.000000
_cell_angle_beta 90.000000
_cell_angle_gamma 90.000000
_cell_volume 7177.934846
_symmetry_space_group_name_H-M "F D D D"
_symmetry_group_IT_number 70
_space_group.IT_coordinate_system_code '2'
_symmetry_cell_setting 'orthorhombic'
loop_
_space_group_symop_operation_xyz
x,y,z
1/4-x,1/4-y,z
x,1/4-y,1/4-z
1/4-x,y,1/4-z
-x,-y,-z
3/4+x,3/4+y,-z
-x,3/4+y,3/4+z
3/4+x,-y,3/4+z
x,1/2+y,1/2+z
1/4-x,3/4-y,1/2+z
x,3/4-y,3/4-z
1/4-x,1/2+y,3/4-z
-x,1/2-y,1/2-z
3/4+x,1/4+y,1/2-z
-x,1/4+y,1/4+z
3/4+x,1/2-y,1/4+z
1/2+x,y,1/2+z
3/4-x,1/4-y,1/2+z
1/2+x,1/4-y,3/4-z
3/4-x,y,3/4-z
1/2-x,-y,1/2-z
1/4+x,3/4+y,1/2-z
1/2-x,3/4+y,1/4+z
1/4+x,-y,1/4+z
1/2+x,1/2+y,z
3/4-x,3/4-y,z
1/2+x,3/4-y,1/4-z
3/4-x,1/2+y,1/4-z
1/2-x,1/2-y,-z
1/4+x,1/4+y,-z
1/2-x,1/4+y,3/4+z
1/4+x,1/2-y,3/4+z
loop_
_atom_site_type_symbol
_atom_site_label
_atom_site_fract_x
_atom_site_fract_y
_atom_site_fract_z
Si Si1 0.473911 0.972374 0.543194
Si Si2 0.817141 0.061419 0.848319
Si Si3 0.000474 0.243079 0.653388
Si Si4 0.913799 0.173608 0.547442
Si Si5 0.102793 0.775155 0.216186
O O1 0.526350 0.036621 0.571408
O O2 0.459243 0.807675 0.548559
O O3 0.500000 0.000000 0.500000
O O4 0.407490 0.035499 0.552989
O O5 0.875000 0.020959 0.875000
O O6 0.765028 0.125112 0.877131
O O7 0.848151 0.160698 0.814940
O O8 0.027091 0.125000 0.625000
O O9 0.040859 0.256538 0.691723
O O10 0.935858 0.185573 0.669871
O O11 0.912427 0.115619 0.503620
O O12 0.125000 0.625000 0.229279
#
# Coordination Sequence:
#
# PCOD9515415 Si02
#       5
#    32  32  32  32  32
#     4  11  22  43  67  89 134 177 222 261 325 411
#     4  10  21  38  71  98 125 171 220 275 332 386
#     4  11  20  37  64  96 132 160 213 282 333 373
#     4  11  24  38  65  98 134 174 213 269 334 396
#     4  11  20  36  65 102 126 165 221 274 327 393
#
# _framework density 22.290533
#
# number of rings (size 3 to 8) (size 9 to 14) (size 15 to 20)
#    0.000    1.200    6.000    0.600    0.000    0.000 
#    0.000    2.000    4.400    3.600    0.000    0.000 
#    0.000    0.000    0.000    0.000    0.000    0.000 
#
# Total GULP energy -223022.423080 kJ/mol
# GULP energy per Si atom -5575.560577 kJ/mol
# Density = 2.223980 g / cm^3
# Si number density = 22.290533 Si / 1000 Ang^3
#
#
#
# Elastic Constant Matrix: (Units=GPa)
#
#
# Indices 1 2 3 4 5 6 
#
# 1 127.8007 25.2256 62.8764 0.0000 0.0000 0.0000
# 2 25.2256 35.7591 33.4019 0.0000 0.0000 0.0000
# 3 62.8764 33.4019 137.8465 0.0000 0.0000 0.0000
# 4 0.0000 0.0000 0.0000 22.5035 0.0000 0.0000
# 5 0.0000 0.0000 0.0000 0.0000 42.1145 0.0000
# 6 0.0000 0.0000 0.0000 0.0000 0.0000 11.6103
#
#
#
# Elastic Compliance Matrix: (Units=1/GPa)
#
#
# Indices 1 2 3 4 5 6 
#
# 1 0.010470 -0.003781 -0.003860 0.000000 0.000000 0.000000
# 2 -0.003781 0.037511 -0.007365 0.000000 0.000000 0.000000
# 3 -0.003860 -0.007365 0.010800 0.000000 0.000000 0.000000
# 4 0.000000 0.000000 0.000000 0.044437 0.000000 0.000000
# 5 0.000000 0.000000 0.000000 0.000000 0.023745 0.000000
# 6 0.000000 0.000000 0.000000 0.000000 0.000000 0.086130
#
#
# Mechanical properties :
#
#
# Convention : Reuss Voigt Hill
#
# Bulk Modulus (GPa) = 34.75794 60.49047 47.62420
# Shear Modulus (GPa) = 19.78681 27.23916 23.51299
#
# Velocity S-wave (km/s) = 2.98262 3.49951 3.25136
# Velocity P-wave (km/s) = 5.24294 6.59735 5.95875
#
# Compressibility (1/GPa) = 0.02877041
#
# Stress axis : x y z
#
# Youngs Moduli (GPa) = 95.51337 26.65859 92.59657
#
# Poissons Ratio (x) = 0.10079 0.35738
# Poissons Ratio (y) = 0.36110 0.68198
# Poissons Ratio (z) = 0.36864 0.19634
#
# Static dielectric constant tensor:
#      x y z
#    x 1.959420 0.000000 0.000000 
#    y 0.000000 1.825250 0.000000 
#    z 0.000000 0.000000 1.786440 
# 
# From -- ./inp_files/67700.got.cif
#   From: 2010.05.17/outbox.cif.g08.bks.cpg/sg70_34_cif.got.tgz:67700.got - 2010.06.03 15:57:51.
