data_PCOD9515059
_publ_section_title
;
Structure prediction by ZEFSAII (Michael W. Deem and Ramdas Pophale) SiO2 
 PCOD9515059
Probable space group: F D D D
;
_chemical_formula_sum "Si O2"
_cell_formula_units_Z 176
_cell_length_a 17.356902
_cell_length_b 20.361549
_cell_length_c 25.401745
_cell_angle_alpha 90.000000
_cell_angle_beta 90.000000
_cell_angle_gamma 90.000000
_cell_volume 8977.317335
_symmetry_space_group_name_H-M "F D D D"
_symmetry_group_IT_number 70
_space_group.IT_coordinate_system_code '2'
_symmetry_cell_setting 'orthorhombic'
loop_
_space_group_symop_operation_xyz
x,y,z
1/4-x,1/4-y,z
x,1/4-y,1/4-z
1/4-x,y,1/4-z
-x,-y,-z
3/4+x,3/4+y,-z
-x,3/4+y,3/4+z
3/4+x,-y,3/4+z
x,1/2+y,1/2+z
1/4-x,3/4-y,1/2+z
x,3/4-y,3/4-z
1/4-x,1/2+y,3/4-z
-x,1/2-y,1/2-z
3/4+x,1/4+y,1/2-z
-x,1/4+y,1/4+z
3/4+x,1/2-y,1/4+z
1/2+x,y,1/2+z
3/4-x,1/4-y,1/2+z
1/2+x,1/4-y,3/4-z
3/4-x,y,3/4-z
1/2-x,-y,1/2-z
1/4+x,3/4+y,1/2-z
1/2-x,3/4+y,1/4+z
1/4+x,-y,1/4+z
1/2+x,1/2+y,z
3/4-x,3/4-y,z
1/2+x,3/4-y,1/4-z
3/4-x,1/2+y,1/4-z
1/2-x,1/2-y,-z
1/4+x,1/4+y,-z
1/2-x,1/4+y,3/4+z
1/4+x,1/2-y,3/4+z
loop_
_atom_site_type_symbol
_atom_site_label
_atom_site_fract_x
_atom_site_fract_y
_atom_site_fract_z
Si Si1 0.197971 0.375000 0.875000
Si Si2 0.875000 0.875000 0.745766
Si Si3 0.625000 0.977316 0.125000
Si Si4 0.145868 0.932893 0.780183
Si Si5 0.425935 0.438096 0.474530
Si Si6 0.461727 0.125415 0.438280
Si Si7 0.793831 0.270490 0.445502
O O1 0.143570 0.336035 0.834581
O O2 0.247813 0.322038 0.908742
O O3 0.798491 0.870189 0.710547
O O4 0.866959 0.938741 0.783290
O O5 0.557180 0.929272 0.144555
O O6 0.592295 0.022195 0.078747
O O7 0.235615 0.915666 0.774732
O O8 0.095842 0.895760 0.735744
O O9 0.150574 0.010783 0.769590
O O10 0.375000 0.375000 0.477180
O O11 0.444912 0.050865 0.420159
O O12 0.750000 0.250000 0.500000
#
# Coordination Sequence:
#
# PCOD9515059 Si02
#       7
#    16  16  16  32  32  32  32
#     4  12  22  41  67  98 128 178 218 264 337 385
#     4  10  20  39  64  88 134 174 216 261 328 382
#     4  10  23  40  66  99 124 170 220 270 334 391
#     4  10  23  43  64  94 131 162 218 272 323 394
#     4  10  23  44  66  95 125 167 218 269 332 393
#     4  10  22  44  62  93 134 170 207 278 324 384
#     4  10  22  41  61  95 129 172 220 262 323 397
#
# _framework density 19.604965
#
# number of rings (size 3 to 8) (size 9 to 14) (size 15 to 20)
#    0.000    1.818    3.636    0.273    2.545    7.636 
#    9.818    0.000    0.000    0.000    0.000    0.000 
#    0.000    0.000    0.000    0.000    0.000    0.000 
#
# Total GULP energy -245455.149167 kJ/mol
# GULP energy per Si atom -5578.526117 kJ/mol
# Density = 1.956034 g / cm^3
# Si number density = 19.604965 Si / 1000 Ang^3
#
#
#
# Elastic Constant Matrix: (Units=GPa)
#
#
# Indices 1 2 3 4 5 6 
#
# 1 137.6553 116.4041 53.1846 0.0000 0.0000 0.0000
# 2 116.4041 -6.4269 -17.6532 0.0000 0.0000 0.0000
# 3 53.1846 -17.6532 46.3519 0.0000 0.0000 0.0000
# 4 0.0000 0.0000 0.0000 34.1945 0.0000 0.0000
# 5 0.0000 0.0000 0.0000 0.0000 27.5398 0.0000
# 6 0.0000 0.0000 0.0000 0.0000 0.0000 41.5066
#
#
#
# Elastic Compliance Matrix: (Units=1/GPa)
#
#
# Indices 1 2 3 4 5 6 
#
# 1 0.000668 0.006943 0.001878 0.000000 0.000000 0.000000
# 2 0.006943 -0.003893 -0.009449 0.000000 0.000000 0.000000
# 3 0.001878 -0.009449 0.015821 0.000000 0.000000 0.000000
# 4 0.000000 0.000000 0.000000 0.029244 0.000000 0.000000
# 5 0.000000 0.000000 0.000000 0.000000 0.036311 0.000000
# 6 0.000000 0.000000 0.000000 0.000000 0.000000 0.024093
#
#
# Mechanical properties :
#
#
# Convention : Reuss Voigt Hill
#
# Bulk Modulus (GPa) = 88.19187 53.49457 70.84322
# Shear Modulus (GPa) = 46.60671 22.35784 34.48228
#
# Velocity S-wave (km/s) = 4.88104 3.38067 4.19842
# Velocity P-wave (km/s) = 8.76631 6.52565 7.72762
#
# Compressibility (1/GPa) = 0.01133891
#
# Stress axis : x y z
#
# Youngs Moduli (GPa) = 1496.83068 -256.86173 63.20711
#
# Poissons Ratio (x) = 1.78335 -0.11868
# Poissons Ratio (y) = -10.39225 0.59724
# Poissons Ratio (z) = -2.81050 -2.42708
#
# Static dielectric constant tensor:
#      x y z
#    x 1.647120 0.000000 0.000000 
#    y 0.000000 1.695240 0.000000 
#    z 0.000000 0.000000 1.734670 
# 
# From -- ./inp_files/66687.got.cif
#   From: 2010.05.17/outbox.cif.g08.bks.cpg/sg70_34_cif.got.tgz:66687.got - 2010.06.03 15:57:51.
