data_PCOD9515387
_publ_section_title
;
Structure prediction by ZEFSAII (Michael W. Deem and Ramdas Pophale) SiO2 
 PCOD9515387
Probable space group: F D D D
;
_chemical_formula_sum "Si O2"
_cell_formula_units_Z 128
_cell_length_a 13.833433
_cell_length_b 15.724301
_cell_length_c 22.342398
_cell_angle_alpha 90.000000
_cell_angle_beta 90.000000
_cell_angle_gamma 90.000000
_cell_volume 4859.942193
_symmetry_space_group_name_H-M "F D D D"
_symmetry_group_IT_number 70
_space_group.IT_coordinate_system_code '2'
_symmetry_cell_setting 'orthorhombic'
loop_
_space_group_symop_operation_xyz
x,y,z
1/4-x,1/4-y,z
x,1/4-y,1/4-z
1/4-x,y,1/4-z
-x,-y,-z
3/4+x,3/4+y,-z
-x,3/4+y,3/4+z
3/4+x,-y,3/4+z
x,1/2+y,1/2+z
1/4-x,3/4-y,1/2+z
x,3/4-y,3/4-z
1/4-x,1/2+y,3/4-z
-x,1/2-y,1/2-z
3/4+x,1/4+y,1/2-z
-x,1/4+y,1/4+z
3/4+x,1/2-y,1/4+z
1/2+x,y,1/2+z
3/4-x,1/4-y,1/2+z
1/2+x,1/4-y,3/4-z
3/4-x,y,3/4-z
1/2-x,-y,1/2-z
1/4+x,3/4+y,1/2-z
1/2-x,3/4+y,1/4+z
1/4+x,-y,1/4+z
1/2+x,1/2+y,z
3/4-x,3/4-y,z
1/2+x,3/4-y,1/4-z
3/4-x,1/2+y,1/4-z
1/2-x,1/2-y,-z
1/4+x,1/4+y,-z
1/2-x,1/4+y,3/4+z
1/4+x,1/2-y,3/4+z
loop_
_atom_site_type_symbol
_atom_site_label
_atom_site_fract_x
_atom_site_fract_y
_atom_site_fract_z
Si Si1 0.521171 0.431997 0.315085
Si Si2 0.625000 0.764597 0.125000
Si Si3 0.082367 0.426773 0.249053
Si Si4 0.125000 0.125000 0.226850
Si Si5 0.079531 0.209686 0.385810
O O1 0.502195 0.375000 0.375000
O O2 0.430860 0.491340 0.294695
O O3 0.569488 0.378412 0.259339
O O4 0.607411 0.497796 0.333498
O O5 0.621703 0.705262 0.182741
O O6 0.721050 0.817097 0.122155
O O7 0.075589 0.467272 0.315170
O O8 0.980488 0.376808 0.242724
O O9 0.125000 0.125000 0.410561
#
# Coordination Sequence:
#
# PCOD9515387 Si02
#       5
#    32  16  32  16  32
#     4  10  22  41  63  99 138 180 230 289 348 422
#     4   9  16  34  58  92 139 166 212 284 341 396
#     4  10  21  38  63  95 134 177 228 287 349 409
#     4   9  16  30  58  92 128 158 212 280 349 400
#     4  10  21  38  62  95 138 180 227 285 344 416
#
# _framework density 26.337762000000001
#
# number of rings (size 3 to 8) (size 9 to 14) (size 15 to 20)
#    0.000    2.250    2.500    0.000    1.750    5.000 
#    0.000    5.000    0.000    3.750    0.000    1.750 
#    0.000    0.000    0.000    0.000    0.000    0.000 
#
# Total GULP energy -178734.020190 kJ/mol
# GULP energy per Si atom -5585.438131 kJ/mol
# Density = 2.627782 g / cm^3
# Si number density = 26.337762 Si / 1000 Ang^3
#
#
#
# Elastic Constant Matrix: (Units=GPa)
#
#
# Indices 1 2 3 4 5 6 
#
# 1 43.4351 29.7055 33.4018 0.0000 0.0000 0.0000
# 2 29.7055 75.9647 40.2560 0.0000 0.0000 0.0000
# 3 33.4018 40.2560 113.3446 0.0000 0.0000 0.0000
# 4 0.0000 0.0000 0.0000 46.2939 0.0000 0.0000
# 5 0.0000 0.0000 0.0000 0.0000 -9.4782 0.0000
# 6 0.0000 0.0000 0.0000 0.0000 0.0000 14.5037
#
#
#
# Elastic Compliance Matrix: (Units=1/GPa)
#
#
# Indices 1 2 3 4 5 6 
#
# 1 0.035175 -0.010177 -0.006751 0.000000 0.000000 0.000000
# 2 -0.010177 0.019161 -0.003806 0.000000 0.000000 0.000000
# 3 -0.006751 -0.003806 0.012164 0.000000 0.000000 0.000000
# 4 0.000000 0.000000 0.000000 0.021601 0.000000 0.000000
# 5 0.000000 0.000000 0.000000 0.000000 -0.105505 0.000000
# 6 0.000000 0.000000 0.000000 0.000000 0.000000 0.068948
#
#
# Mechanical properties :
#
#
# Convention : Reuss Voigt Hill
#
# Bulk Modulus (GPa) = 39.95116 48.83012 44.39064
# Shear Modulus (GPa) = 49.33137 18.88930 34.11033
#
# Velocity S-wave (km/s) = 4.33254 2.68095 3.60267
# Velocity P-wave (km/s) = 6.34268 5.30694 5.84779
#
# Compressibility (1/GPa) = 0.02503056
#
# Stress axis : x y z
#
# Youngs Moduli (GPa) = 28.42943 52.19022 82.21022
#
# Poissons Ratio (x) = 0.53115 0.55501
# Poissons Ratio (y) = 0.28933 0.31290
# Poissons Ratio (z) = 0.19193 0.19864
#
# Static dielectric constant tensor:
#      x y z
#    x 2.042150 0.000000 0.000000 
#    y 0.000000 2.040800 0.000000 
#    z 0.000000 0.000000 2.095040 
# 
# From -- ./inp_files/58312.got.cif
#   From: 2010.05.17/outbox.cif.g08.bks.cpg/sg70_30_cif.got.tgz:58312.got - 2010.06.03 15:57:51.
