data_PCOD9515194
_publ_section_title
;
Structure prediction by ZEFSAII (Michael W. Deem and Ramdas Pophale) SiO2 
 PCOD9515194
Probable space group: F D D D
;
_chemical_formula_sum "Si O2"
_cell_formula_units_Z 216
_cell_length_a 30.583763
_cell_length_b 19.856841
_cell_length_c 18.671328
_cell_angle_alpha 90.000000
_cell_angle_beta 90.000000
_cell_angle_gamma 90.000000
_cell_volume 11339.039969
_symmetry_space_group_name_H-M "F D D D"
_symmetry_group_IT_number 70
_space_group.IT_coordinate_system_code '2'
_symmetry_cell_setting 'orthorhombic'
loop_
_space_group_symop_operation_xyz
x,y,z
1/4-x,1/4-y,z
x,1/4-y,1/4-z
1/4-x,y,1/4-z
-x,-y,-z
3/4+x,3/4+y,-z
-x,3/4+y,3/4+z
3/4+x,-y,3/4+z
x,1/2+y,1/2+z
1/4-x,3/4-y,1/2+z
x,3/4-y,3/4-z
1/4-x,1/2+y,3/4-z
-x,1/2-y,1/2-z
3/4+x,1/4+y,1/2-z
-x,1/4+y,1/4+z
3/4+x,1/2-y,1/4+z
1/2+x,y,1/2+z
3/4-x,1/4-y,1/2+z
1/2+x,1/4-y,3/4-z
3/4-x,y,3/4-z
1/2-x,-y,1/2-z
1/4+x,3/4+y,1/2-z
1/2-x,3/4+y,1/4+z
1/4+x,-y,1/4+z
1/2+x,1/2+y,z
3/4-x,3/4-y,z
1/2+x,3/4-y,1/4-z
3/4-x,1/2+y,1/4-z
1/2-x,1/2-y,-z
1/4+x,1/4+y,-z
1/2-x,1/4+y,3/4+z
1/4+x,1/2-y,3/4+z
loop_
_atom_site_type_symbol
_atom_site_label
_atom_site_fract_x
_atom_site_fract_y
_atom_site_fract_z
Si Si1 0.445608 0.444889 0.780306
Si Si2 0.819196 0.018033 0.607143
Si Si3 0.828569 0.260745 0.122174
Si Si4 0.982637 0.426291 0.016530
Si Si5 0.965839 0.617379 0.520192
Si Si6 0.269091 0.125000 0.625000
Si Si7 0.625000 0.125000 0.625000
Si Si8 0.235827 0.820331 0.636064
O O1 0.433787 0.455646 0.697727
O O2 0.484400 0.390083 0.785680
O O3 0.404729 0.419671 0.824256
O O4 0.461451 0.513599 0.817933
O O5 0.810556 0.063072 0.535542
O O6 0.802591 0.064938 0.672458
O O7 0.869923 0.002283 0.616154
O O8 0.786316 0.955035 0.611877
O O9 0.812658 0.308300 0.056987
O O10 0.800760 0.190542 0.123087
O O11 0.014243 0.391068 0.073780
O O12 0.000000 0.500000 0.000000
O O13 0.988219 0.381648 0.945095
O O14 0.966653 0.582871 0.442595
#
# Coordination Sequence:
#
# PCOD9515194 Si02
#       8
#    32  32  32  32  32  16   8  32
#     4  11  24  39  61  92 130 169 209 262 316 398
#     4  10  23  36  64  91 123 164 217 266 313 381
#     4  11  22  40  64  98 122 167 217 271 315 372
#     4  10  22  38  65  92 120 165 215 262 319 379
#     4  10  21  42  60  85 125 169 208 254 322 389
#     4  10  20  42  67  89 130 164 216 258 318 390
#     4  12  28  40  54 100 140 158 208 264 320 364
#     4  11  21  40  64  89 122 173 211 249 331 392
#
# _framework density 19.049232
#
# number of rings (size 3 to 8) (size 9 to 14) (size 15 to 20)
#    0.000    1.481    2.963    3.111    4.148    0.593 
#    0.000    0.000    0.000    7.111    0.000    0.000 
#    0.000    0.000    0.000    0.000    0.000    0.000 
#
# Total GULP energy -301264.587502 kJ/mol
# GULP energy per Si atom -5578.973843 kJ/mol
# Density = 1.900588 g / cm^3
# Si number density = 19.049232 Si / 1000 Ang^3
#
#
#
# Elastic Constant Matrix: (Units=GPa)
#
#
# Indices 1 2 3 4 5 6 
#
# 1 138.8051 36.0942 62.8084 0.0000 0.0000 0.0000
# 2 36.0942 67.1601 25.2058 0.0000 0.0000 0.0000
# 3 62.8084 25.2058 111.5532 0.0000 0.0000 0.0000
# 4 0.0000 0.0000 0.0000 29.0954 0.0000 0.0000
# 5 0.0000 0.0000 0.0000 0.0000 -27.0223 0.0000
# 6 0.0000 0.0000 0.0000 0.0000 0.0000 -7.3344
#
#
#
# Elastic Compliance Matrix: (Units=1/GPa)
#
#
# Indices 1 2 3 4 5 6 
#
# 1 0.010456 -0.003726 -0.005045 0.000000 0.000000 0.000000
# 2 -0.003726 0.017597 -0.001878 0.000000 0.000000 0.000000
# 3 -0.005045 -0.001878 0.012229 0.000000 0.000000 0.000000
# 4 0.000000 0.000000 0.000000 0.034370 0.000000 0.000000
# 5 0.000000 0.000000 0.000000 0.000000 -0.037006 0.000000
# 6 0.000000 0.000000 0.000000 0.000000 0.000000 -0.136344
#
#
# Mechanical properties :
#
#
# Convention : Reuss Voigt Hill
#
# Bulk Modulus (GPa) = 52.67684 62.85948 57.76816
# Shear Modulus (GPa) = -70.35227 11.84173 -29.25527
#
# Velocity S-wave (km/s) = -6.08375 2.49597 -3.92314
# Velocity P-wave (km/s) = 4.65148 6.43246 3.14168
#
# Compressibility (1/GPa) = 0.01898367
#
# Stress axis : x y z
#
# Youngs Moduli (GPa) = 95.63690 56.82721 81.76995
#
# Poissons Ratio (x) = 0.21174 0.41256
# Poissons Ratio (y) = 0.35634 0.15359
# Poissons Ratio (z) = 0.48252 0.10674
#
# Static dielectric constant tensor:
#      x y z
#    x 1.643710 0.000000 0.000000 
#    y 0.000000 1.704500 0.000000 
#    z 0.000000 0.000000 1.700670 
# 
# From -- ./inp_files/47097.got.cif
#   From: 2010.05.17/outbox.cif.g08.bks.cpg/sg70_24_cif.got.tgz:47097.got - 2010.06.03 15:57:51.
