data_PCOD9515409
_publ_section_title
;
Structure prediction by ZEFSAII (Michael W. Deem and Ramdas Pophale) SiO2 
 PCOD9515409
Probable space group: F D D D
;
_chemical_formula_sum "Si O2"
_cell_formula_units_Z 208
_cell_length_a 25.094397
_cell_length_b 21.245293
_cell_length_c 17.065395
_cell_angle_alpha 90.000000
_cell_angle_beta 90.000000
_cell_angle_gamma 90.000000
_cell_volume 9098.207435
_symmetry_space_group_name_H-M "F D D D"
_symmetry_group_IT_number 70
_space_group.IT_coordinate_system_code '2'
_symmetry_cell_setting 'orthorhombic'
loop_
_space_group_symop_operation_xyz
x,y,z
1/4-x,1/4-y,z
x,1/4-y,1/4-z
1/4-x,y,1/4-z
-x,-y,-z
3/4+x,3/4+y,-z
-x,3/4+y,3/4+z
3/4+x,-y,3/4+z
x,1/2+y,1/2+z
1/4-x,3/4-y,1/2+z
x,3/4-y,3/4-z
1/4-x,1/2+y,3/4-z
-x,1/2-y,1/2-z
3/4+x,1/4+y,1/2-z
-x,1/4+y,1/4+z
3/4+x,1/2-y,1/4+z
1/2+x,y,1/2+z
3/4-x,1/4-y,1/2+z
1/2+x,1/4-y,3/4-z
3/4-x,y,3/4-z
1/2-x,-y,1/2-z
1/4+x,3/4+y,1/2-z
1/2-x,3/4+y,1/4+z
1/4+x,-y,1/4+z
1/2+x,1/2+y,z
3/4-x,3/4-y,z
1/2+x,3/4-y,1/4-z
3/4-x,1/2+y,1/4-z
1/2-x,1/2-y,-z
1/4+x,1/4+y,-z
1/2-x,1/4+y,3/4+z
1/4+x,1/2-y,3/4+z
loop_
_atom_site_type_symbol
_atom_site_label
_atom_site_fract_x
_atom_site_fract_y
_atom_site_fract_z
Si Si1 0.273220 0.795393 0.730321
Si Si2 0.272780 0.043266 0.317151
Si Si3 0.428192 0.917223 0.042418
Si Si4 0.416319 0.477832 0.712644
Si Si5 0.128697 0.470231 0.217052
Si Si6 0.905617 0.601963 0.542015
Si Si7 0.625000 0.718365 0.125000
O O1 0.269307 0.797540 0.635696
O O2 0.278254 0.870189 0.744322
O O3 0.221073 0.763120 0.765270
O O4 0.323983 0.754372 0.755396
O O5 0.296628 0.102516 0.271387
O O6 0.250000 0.000000 0.250000
O O7 0.324845 0.011346 0.353663
O O8 0.375000 0.875000 0.032615
O O9 0.427199 0.937705 0.134176
O O10 0.423681 0.980516 0.992243
O O11 0.372806 0.534131 0.699329
O O12 0.394898 0.440806 0.790825
O O13 0.125000 0.460224 0.125000
O O14 0.135113 0.404134 0.260811
O O15 0.926873 0.625000 0.625000
#
# Coordination Sequence:
#
# PCOD9515409 Si02
#       7
#    32  32  32  32  32  32  16
#     4  10  24  42  66  95 132 173 225 276 332 404
#     4  10  21  38  67  95 136 176 218 279 345 405
#     4  10  23  43  66  89 135 178 216 274 337 394
#     4  10  21  42  63  97 131 173 218 281 335 395
#     4  11  25  44  68  97 129 179 228 272 336 400
#     4  11  22  40  68  97 132 171 223 278 337 406
#     4   8  20  36  63  92 134 168 217 272 330 400
#
# _framework density 22.861646
#
# number of rings (size 3 to 8) (size 9 to 14) (size 15 to 20)
#    0.000    1.846    1.538    0.923   15.077    2.769 
#    2.769    1.923    0.000    0.000    0.000    0.000 
#    0.000    0.000    0.000    0.000    0.000    0.000 
#
# Total GULP energy -290167.216812 kJ/mol
# GULP energy per Si atom -5580.138785 kJ/mol
# Density = 2.280961 g / cm^3
# Si number density = 22.861646 Si / 1000 Ang^3
#
#
#
# Elastic Constant Matrix: (Units=GPa)
#
#
# Indices 1 2 3 4 5 6 
#
# 1 51.1160 13.7464 -1.9279 0.0000 0.0000 0.0000
# 2 13.7464 92.2709 6.5695 0.0000 0.0000 0.0000
# 3 -1.9279 6.5695 70.9358 0.0000 0.0000 0.0000
# 4 0.0000 0.0000 0.0000 5.2928 0.0000 0.0000
# 5 0.0000 0.0000 0.0000 0.0000 26.3113 0.0000
# 6 0.0000 0.0000 0.0000 0.0000 0.0000 19.1836
#
#
#
# Elastic Compliance Matrix: (Units=1/GPa)
#
#
# Indices 1 2 3 4 5 6 
#
# 1 0.020430 -0.003104 0.000843 0.000000 0.000000 0.000000
# 2 -0.003104 0.011381 -0.001138 0.000000 0.000000 0.000000
# 3 0.000843 -0.001138 0.014226 0.000000 0.000000 0.000000
# 4 0.000000 0.000000 0.000000 0.188936 0.000000 0.000000
# 5 0.000000 0.000000 0.000000 0.000000 0.038007 0.000000
# 6 0.000000 0.000000 0.000000 0.000000 0.000000 0.052128
#
#
# Mechanical properties :
#
#
# Convention : Reuss Voigt Hill
#
# Bulk Modulus (GPa) = 25.48565 27.89990 26.69277
# Shear Modulus (GPa) = 14.49341 23.21984 18.85663
#
# Velocity S-wave (km/s) = 2.52059 3.19041 2.87507
# Velocity P-wave (km/s) = 4.43206 5.07956 4.76682
#
# Compressibility (1/GPa) = 0.03923776
#
# Stress axis : x y z
#
# Youngs Moduli (GPa) = 48.94822 87.86519 70.29592
#
# Poissons Ratio (x) = 0.27270 -0.05924
# Poissons Ratio (y) = 0.15192 0.08002
# Poissons Ratio (z) = -0.04125 0.10002
#
# Static dielectric constant tensor:
#      x y z
#    x 1.944510 0.000000 0.000000 
#    y 0.000000 1.825250 0.000000 
#    z 0.000000 0.000000 1.898510 
# 
# From -- ./inp_files/38759.got.cif
#   From: 2010.05.17/outbox.cif.g08.bks.cpg/sg70_20_cif.got.tgz:38759.got - 2010.06.03 15:57:51.
