data_PCOD9515512
_publ_section_title
;
Structure prediction by ZEFSAII (Michael W. Deem and Ramdas Pophale) SiO2 
 PCOD9515512
Probable space group: F D D D
;
_chemical_formula_sum "Si O2"
_cell_formula_units_Z 192
_cell_length_a 21.084388
_cell_length_b 14.506617
_cell_length_c 31.079820
_cell_angle_alpha 90.000000
_cell_angle_beta 90.000000
_cell_angle_gamma 90.000000
_cell_volume 9506.171379
_symmetry_space_group_name_H-M "F D D D"
_symmetry_group_IT_number 70
_space_group.IT_coordinate_system_code '2'
_symmetry_cell_setting 'orthorhombic'
loop_
_space_group_symop_operation_xyz
x,y,z
1/4-x,1/4-y,z
x,1/4-y,1/4-z
1/4-x,y,1/4-z
-x,-y,-z
3/4+x,3/4+y,-z
-x,3/4+y,3/4+z
3/4+x,-y,3/4+z
x,1/2+y,1/2+z
1/4-x,3/4-y,1/2+z
x,3/4-y,3/4-z
1/4-x,1/2+y,3/4-z
-x,1/2-y,1/2-z
3/4+x,1/4+y,1/2-z
-x,1/4+y,1/4+z
3/4+x,1/2-y,1/4+z
1/2+x,y,1/2+z
3/4-x,1/4-y,1/2+z
1/2+x,1/4-y,3/4-z
3/4-x,y,3/4-z
1/2-x,-y,1/2-z
1/4+x,3/4+y,1/2-z
1/2-x,3/4+y,1/4+z
1/4+x,-y,1/4+z
1/2+x,1/2+y,z
3/4-x,3/4-y,z
1/2+x,3/4-y,1/4-z
3/4-x,1/2+y,1/4-z
1/2-x,1/2-y,-z
1/4+x,1/4+y,-z
1/2-x,1/4+y,3/4+z
1/4+x,1/2-y,3/4+z
loop_
_atom_site_type_symbol
_atom_site_label
_atom_site_fract_x
_atom_site_fract_y
_atom_site_fract_z
Si Si1 0.219401 0.085922 0.079264
Si Si2 0.375000 0.375000 0.538672
Si Si3 0.125000 0.125000 0.000411
Si Si4 0.739001 0.379653 0.668293
Si Si5 0.370880 0.210568 0.277061
Si Si6 0.941771 0.047387 0.025088
Si Si7 0.446873 0.277228 0.393020
O O1 0.195996 0.125000 0.125000
O O2 0.178956 0.097353 0.035315
O O3 0.222004 0.976948 0.086994
O O4 0.282357 0.145405 0.066145
O O5 0.439787 0.375106 0.564920
O O6 0.382598 0.465185 0.509445
O O7 0.143856 0.211574 0.970782
O O8 0.685966 0.429301 0.698998
O O9 0.734885 0.441207 0.625514
O O10 0.340427 0.120149 0.256762
O O11 0.318208 0.261113 0.307210
O O12 0.000000 0.000000 0.000000
O O13 0.472214 0.375000 0.375000
O O14 0.375000 0.272234 0.375000
#
# Coordination Sequence:
#
# PCOD9515512 Si02
#       7
#    32  16  16  32  32  32  32
#     4  11  23  39  65  94 130 167 212 267 322 386
#     4  12  24  42  66  96 131 172 217 272 321 385
#     4  10  21  40  67  96 123 170 223 262 310 389
#     4  11  23  40  65  95 129 168 217 268 330 376
#     4  11  21  40  70  92 127 170 222 265 312 391
#     4  10  22  39  62  97 127 163 211 267 323 370
#     4   9  20  38  62  97 125 161 213 272 319 374
#
# _framework density 20.197405
#
# number of rings (size 3 to 8) (size 9 to 14) (size 15 to 20)
#    0.000    1.500    3.333    2.750    4.667    1.333 
#    0.000    1.667    3.667    0.000    0.000    0.000 
#    0.000    0.000    0.000    0.000    0.000    0.000 
#
# Total GULP energy -267403.853801 kJ/mol
# GULP energy per Si atom -5570.913621 kJ/mol
# Density = 2.015144 g / cm^3
# Si number density = 20.197405 Si / 1000 Ang^3
#
#
#
# Elastic Constant Matrix: (Units=GPa)
#
#
# Indices 1 2 3 4 5 6 
#
# 1 68.9679 31.2397 17.5255 0.0000 0.0000 0.0000
# 2 31.2397 128.5988 5.8653 0.0000 0.0000 0.0000
# 3 17.5255 5.8653 22.3379 0.0000 0.0000 0.0000
# 4 0.0000 0.0000 0.0000 17.2101 0.0000 0.0000
# 5 0.0000 0.0000 0.0000 0.0000 49.9134 0.0000
# 6 0.0000 0.0000 0.0000 0.0000 0.0000 29.5809
#
#
#
# Elastic Compliance Matrix: (Units=1/GPa)
#
#
# Indices 1 2 3 4 5 6 
#
# 1 0.020148 -0.004224 -0.014698 0.000000 0.000000 0.000000
# 2 -0.004224 0.008756 0.001015 0.000000 0.000000 0.000000
# 3 -0.014698 0.001015 0.056032 0.000000 0.000000 0.000000
# 4 0.000000 0.000000 0.000000 0.058105 0.000000 0.000000
# 5 0.000000 0.000000 0.000000 0.000000 0.020035 0.000000
# 6 0.000000 0.000000 0.000000 0.000000 0.000000 0.033806
#
#
# Mechanical properties :
#
#
# Convention : Reuss Voigt Hill
#
# Bulk Modulus (GPa) = 20.35771 36.57396 28.46584
# Shear Modulus (GPa) = 20.07471 30.35916 25.21694
#
# Velocity S-wave (km/s) = 3.15608 3.88122 3.53728
# Velocity P-wave (km/s) = 4.83553 6.18326 5.55045
#
# Compressibility (1/GPa) = 0.04912144
#
# Stress axis : x y z
#
# Youngs Moduli (GPa) = 49.63329 114.20815 17.84690
#
# Poissons Ratio (x) = 0.48242 0.26232
# Poissons Ratio (y) = 0.20965 -0.01811
# Poissons Ratio (z) = 0.72952 -0.11591
#
# Static dielectric constant tensor:
#      x y z
#    x -10.343950 0.000000 0.000000 
#    y 0.000000 1.711130 0.000000 
#    z 0.000000 0.000000 1.723600 
# 
# From -- ./inp_files/67931.got.cif
#   From: 2010.05.17/outbox.cif.g08.bks.cpg/sg70_34_cif.got.tgz:67931.got - 2010.06.03 15:57:51.
