data_PCOD9515239
_publ_section_title
;
Structure prediction by ZEFSAII (Michael W. Deem and Ramdas Pophale) SiO2 
 PCOD9515239
Probable space group: F D D D
;
_chemical_formula_sum "Si O2"
_cell_formula_units_Z 176
_cell_length_a 11.748919
_cell_length_b 22.422765
_cell_length_c 32.491835
_cell_angle_alpha 90.000000
_cell_angle_beta 90.000000
_cell_angle_gamma 90.000000
_cell_volume 8559.754602
_symmetry_space_group_name_H-M "F D D D"
_symmetry_group_IT_number 70
_space_group.IT_coordinate_system_code '2'
_symmetry_cell_setting 'orthorhombic'
loop_
_space_group_symop_operation_xyz
x,y,z
1/4-x,1/4-y,z
x,1/4-y,1/4-z
1/4-x,y,1/4-z
-x,-y,-z
3/4+x,3/4+y,-z
-x,3/4+y,3/4+z
3/4+x,-y,3/4+z
x,1/2+y,1/2+z
1/4-x,3/4-y,1/2+z
x,3/4-y,3/4-z
1/4-x,1/2+y,3/4-z
-x,1/2-y,1/2-z
3/4+x,1/4+y,1/2-z
-x,1/4+y,1/4+z
3/4+x,1/2-y,1/4+z
1/2+x,y,1/2+z
3/4-x,1/4-y,1/2+z
1/2+x,1/4-y,3/4-z
3/4-x,y,3/4-z
1/2-x,-y,1/2-z
1/4+x,3/4+y,1/2-z
1/2-x,3/4+y,1/4+z
1/4+x,-y,1/4+z
1/2+x,1/2+y,z
3/4-x,3/4-y,z
1/2+x,3/4-y,1/4-z
3/4-x,1/2+y,1/4-z
1/2-x,1/2-y,-z
1/4+x,1/4+y,-z
1/2-x,1/4+y,3/4+z
1/4+x,1/2-y,3/4+z
loop_
_atom_site_type_symbol
_atom_site_label
_atom_site_fract_x
_atom_site_fract_y
_atom_site_fract_z
Si Si1 0.053503 0.472264 0.934992
Si Si2 0.992135 0.696895 0.630194
Si Si3 0.232165 0.583792 0.260393
Si Si4 0.625000 0.277517 0.125000
Si Si5 0.471609 0.595128 0.304252
Si Si6 0.431974 0.273530 0.710101
O O1 0.163692 0.470089 0.906815
O O2 0.063758 0.522417 0.969870
O O3 0.946657 0.488157 0.906412
O O4 0.021817 0.415866 0.962847
O O5 0.984468 0.625000 0.625000
O O6 0.125000 0.713247 0.625000
O O7 0.946535 0.725594 0.673084
O O8 0.125000 0.625000 0.265693
O O9 0.345791 0.597777 0.285674
O O10 0.538877 0.319515 0.100117
O O11 0.517346 0.662209 0.303315
O O12 0.551769 0.545710 0.281544
O O13 0.500000 0.250000 0.750000
#
# Coordination Sequence:
#
# PCOD9515239 Si02
#       6
#    32  32  32  16  32  32
#     4  10  23  43  67  96 137 171 231 281 339 421
#     4  11  27  44  66  99 138 182 232 287 352 427
#     4  10  24  41  68 103 135 179 223 285 353 416
#     4  10  20  44  67  96 131 172 226 284 338 408
#     4  10  24  43  69 102 136 174 238 287 339 429
#     4  11  26  44  71  99 135 188 230 289 356 415
#
# _framework density 20.561337999999999
#
# number of rings (size 3 to 8) (size 9 to 14) (size 15 to 20)
#    0.000    1.636    1.818    0.000    8.909    7.273 
#    0.000    0.000    0.000    0.000    0.000    0.000 
#    0.000    0.000    0.000    0.000    0.000    0.000 
#
# Total GULP energy -245347.020638 kJ/mol
# GULP energy per Si atom -5576.068651 kJ/mol
# Density = 2.051454 g / cm^3
# Si number density = 20.561338 Si / 1000 Ang^3
#
#
#
# Elastic Constant Matrix: (Units=GPa)
#
#
# Indices 1 2 3 4 5 6 
#
# 1 118.4115 34.6364 31.1718 0.0000 0.0000 0.0000
# 2 34.6364 60.2945 27.4454 0.0000 0.0000 0.0000
# 3 31.1718 27.4454 102.8836 0.0000 0.0000 0.0000
# 4 0.0000 0.0000 0.0000 20.5644 0.0000 0.0000
# 5 0.0000 0.0000 0.0000 0.0000 39.9061 0.0000
# 6 0.0000 0.0000 0.0000 0.0000 0.0000 35.9081
#
#
#
# Elastic Compliance Matrix: (Units=1/GPa)
#
#
# Indices 1 2 3 4 5 6 
#
# 1 0.010429 -0.005182 -0.001777 0.000000 0.000000 0.000000
# 2 -0.005182 0.021452 -0.004153 0.000000 0.000000 0.000000
# 3 -0.001777 -0.004153 0.011366 0.000000 0.000000 0.000000
# 4 0.000000 0.000000 0.000000 0.048628 0.000000 0.000000
# 5 0.000000 0.000000 0.000000 0.000000 0.025059 0.000000
# 6 0.000000 0.000000 0.000000 0.000000 0.000000 0.027849
#
#
# Mechanical properties :
#
#
# Convention : Reuss Voigt Hill
#
# Bulk Modulus (GPa) = 47.56631 52.01076 49.78853
# Shear Modulus (GPa) = 28.73335 31.83144 30.28240
#
# Velocity S-wave (km/s) = 3.74230 3.93889 3.84185
# Velocity P-wave (km/s) = 6.46971 6.78504 6.62925
#
# Compressibility (1/GPa) = 0.02102328
#
# Stress axis : x y z
#
# Youngs Moduli (GPa) = 95.88883 46.61534 87.98159
#
# Poissons Ratio (x) = 0.24155 0.15638
# Poissons Ratio (y) = 0.49687 0.36536
# Poissons Ratio (z) = 0.17043 0.19358
#
# Static dielectric constant tensor:
#      x y z
#    x 1.743350 0.000000 0.000000 
#    y 0.000000 1.940290 0.000000 
#    z 0.000000 0.000000 1.736200 
# 
# From -- ./inp_files/22300.got.cif
#   From: 2010.05.17/outbox.cif.g08.bks.cpg/sg70_12_cif.got.tgz:22300.got - 2010.06.03 15:57:51.
