data_PCOD9515785
_publ_section_title
;
Structure prediction by ZEFSAII (Michael W. Deem and Ramdas Pophale) SiO2 
 PCOD9515785
Probable space group: F D D D
;
_chemical_formula_sum "Si O2"
_cell_formula_units_Z 136
_cell_length_a 16.974818
_cell_length_b 22.055009
_cell_length_c 17.712230
_cell_angle_alpha 90.000000
_cell_angle_beta 90.000000
_cell_angle_gamma 90.000000
_cell_volume 6631.100483
_symmetry_space_group_name_H-M "F D D D"
_symmetry_group_IT_number 70
_space_group.IT_coordinate_system_code '2'
_symmetry_cell_setting 'orthorhombic'
loop_
_space_group_symop_operation_xyz
x,y,z
1/4-x,1/4-y,z
x,1/4-y,1/4-z
1/4-x,y,1/4-z
-x,-y,-z
3/4+x,3/4+y,-z
-x,3/4+y,3/4+z
3/4+x,-y,3/4+z
x,1/2+y,1/2+z
1/4-x,3/4-y,1/2+z
x,3/4-y,3/4-z
1/4-x,1/2+y,3/4-z
-x,1/2-y,1/2-z
3/4+x,1/4+y,1/2-z
-x,1/4+y,1/4+z
3/4+x,1/2-y,1/4+z
1/2+x,y,1/2+z
3/4-x,1/4-y,1/2+z
1/2+x,1/4-y,3/4-z
3/4-x,y,3/4-z
1/2-x,-y,1/2-z
1/4+x,3/4+y,1/2-z
1/2-x,3/4+y,1/4+z
1/4+x,-y,1/4+z
1/2+x,1/2+y,z
3/4-x,3/4-y,z
1/2+x,3/4-y,1/4-z
3/4-x,1/2+y,1/4-z
1/2-x,1/2-y,-z
1/4+x,1/4+y,-z
1/2-x,1/4+y,3/4+z
1/4+x,1/2-y,3/4+z
loop_
_atom_site_type_symbol
_atom_site_label
_atom_site_fract_x
_atom_site_fract_y
_atom_site_fract_z
Si Si1 0.875000 0.875000 0.875000
Si Si2 0.562803 0.324046 0.557188
Si Si3 0.284739 0.547999 0.372257
Si Si4 0.828326 0.561918 0.615061
Si Si5 0.011871 0.799965 0.953525
O O1 0.934300 0.832698 0.922033
O O2 0.625000 0.315635 0.625000
O O3 0.532675 0.392957 0.568606
O O4 0.597728 0.309942 0.474297
O O5 0.497138 0.272018 0.561179
O O6 0.375000 0.525238 0.375000
O O7 0.222968 0.494734 0.357185
O O8 0.267912 0.566794 0.458734
O O9 0.782060 0.625000 0.625000
O O10 0.907958 0.567113 0.662217
#
# Coordination Sequence:
#
# PCOD9515785 Si02
#       5
#     8  32  32  32  32
#     4  12  24  40  64 104 134 164 208 268 324 408
#     4  10  22  40  62  92 130 169 213 271 327 385
#     4  10  24  43  62  93 132 170 223 273 320 386
#     4  11  23  40  65  94 125 177 219 268 331 383
#     4  11  24  41  65  98 131 173 213 268 336 395
#
# _framework density 20.509416000000002
#
# number of rings (size 3 to 8) (size 9 to 14) (size 15 to 20)
#    0.000    1.412    2.353    2.824    0.000    9.882 
#    0.000    4.706    0.000    0.000    0.000    0.000 
#    0.000    0.000    0.000    0.000    0.000    0.000 
#
# Total GULP energy -189752.712850 kJ/mol
# GULP energy per Si atom -5580.962143 kJ/mol
# Density = 2.046274 g / cm^3
# Si number density = 20.509416 Si / 1000 Ang^3
#
#
#
# Elastic Constant Matrix: (Units=GPa)
#
#
# Indices 1 2 3 4 5 6 
#
# 1 92.8089 35.0779 5.2693 0.0000 0.0000 0.0000
# 2 35.0779 96.6684 -5.2347 0.0000 0.0000 0.0000
# 3 5.2693 -5.2347 22.4065 0.0000 0.0000 0.0000
# 4 0.0000 0.0000 0.0000 20.5982 0.0000 0.0000
# 5 0.0000 0.0000 0.0000 0.0000 24.6951 0.0000
# 6 0.0000 0.0000 0.0000 0.0000 0.0000 34.0720
#
#
#
# Elastic Compliance Matrix: (Units=1/GPa)
#
#
# Indices 1 2 3 4 5 6 
#
# 1 0.012861 -0.004892 -0.004167 0.000000 0.000000 0.000000
# 2 -0.004892 0.012338 0.004033 0.000000 0.000000 0.000000
# 3 -0.004167 0.004033 0.046552 0.000000 0.000000 0.000000
# 4 0.000000 0.000000 0.000000 0.048548 0.000000 0.000000
# 5 0.000000 0.000000 0.000000 0.000000 0.040494 0.000000
# 6 0.000000 0.000000 0.000000 0.000000 0.000000 0.029350
#
#
# Mechanical properties :
#
#
# Convention : Reuss Voigt Hill
#
# Bulk Modulus (GPa) = 16.20803 31.34539 23.77671
# Shear Modulus (GPa) = 22.64887 27.65784 25.15335
#
# Velocity S-wave (km/s) = 3.32673 3.67624 3.50584
# Velocity P-wave (km/s) = 4.76194 5.77375 5.29208
#
# Compressibility (1/GPa) = 0.06169781
#
# Stress axis : x y z
#
# Youngs Moduli (GPa) = 77.75725 81.04839 21.48125
#
# Poissons Ratio (x) = 0.39652 0.08952
# Poissons Ratio (y) = 0.38042 -0.08664
# Poissons Ratio (z) = 0.32404 -0.32687
#
# Static dielectric constant tensor:
#      x y z
#    x 1.690790 0.000000 0.000000 
#    y 0.000000 1.805610 0.000000 
#    z 0.000000 0.000000 1.759170 
# 
# From -- ./inp_files/28504.got.cif
#   From: 2010.05.17/outbox.cif.g08.bks.cpg/sg70_15_cif.got.tgz:28504.got - 2010.06.03 15:57:51.
