data_PCOD9515988
_publ_section_title
;
Structure prediction by ZEFSAII (Michael W. Deem and Ramdas Pophale) SiO2 
 PCOD9515988
Probable space group: F D D D
;
_chemical_formula_sum "Si O2"
_cell_formula_units_Z 104
_cell_length_a 10.943451
_cell_length_b 16.111822
_cell_length_c 23.726307
_cell_angle_alpha 90.000000
_cell_angle_beta 90.000000
_cell_angle_gamma 90.000000
_cell_volume 4183.397172
_symmetry_space_group_name_H-M "F D D D"
_symmetry_group_IT_number 70
_space_group.IT_coordinate_system_code '2'
_symmetry_cell_setting 'orthorhombic'
loop_
_space_group_symop_operation_xyz
x,y,z
1/4-x,1/4-y,z
x,1/4-y,1/4-z
1/4-x,y,1/4-z
-x,-y,-z
3/4+x,3/4+y,-z
-x,3/4+y,3/4+z
3/4+x,-y,3/4+z
x,1/2+y,1/2+z
1/4-x,3/4-y,1/2+z
x,3/4-y,3/4-z
1/4-x,1/2+y,3/4-z
-x,1/2-y,1/2-z
3/4+x,1/4+y,1/2-z
-x,1/4+y,1/4+z
3/4+x,1/2-y,1/4+z
1/2+x,y,1/2+z
3/4-x,1/4-y,1/2+z
1/2+x,1/4-y,3/4-z
3/4-x,y,3/4-z
1/2-x,-y,1/2-z
1/4+x,3/4+y,1/2-z
1/2-x,3/4+y,1/4+z
1/4+x,-y,1/4+z
1/2+x,1/2+y,z
3/4-x,3/4-y,z
1/2+x,3/4-y,1/4-z
3/4-x,1/2+y,1/4-z
1/2-x,1/2-y,-z
1/4+x,1/4+y,-z
1/2-x,1/4+y,3/4+z
1/4+x,1/2-y,3/4+z
loop_
_atom_site_type_symbol
_atom_site_label
_atom_site_fract_x
_atom_site_fract_y
_atom_site_fract_z
Si Si1 0.394723 0.681178 0.193679
Si Si2 0.375000 0.875000 0.375000
Si Si3 0.068130 0.000772 0.414848
Si Si4 0.680454 0.907991 0.563954
O O1 0.528242 0.668822 0.166485
O O2 0.329649 0.749226 0.153726
O O3 0.319977 0.594797 0.183020
O O4 0.395830 0.687289 0.260446
O O5 0.192710 0.041637 0.437638
O O6 0.961666 0.059749 0.436627
O O7 0.625000 0.923455 0.625000
#
# Coordination Sequence:
#
# PCOD9515988 Si02
#       4
#    32   8  32  32
#     4  10  22  44  69  91 140 176 224 286 327 409
#     4   8  20  40  68 102 120 180 224 260 352 374
#     4   9  23  44  61 100 130 181 223 273 348 387
#     4  11  24  39  67 101 134 175 230 277 337 404
#
# _framework density 24.86018
#
# number of rings (size 3 to 8) (size 9 to 14) (size 15 to 20)
#    0.000    2.462    0.000    0.923   12.923    3.692 
#    0.000    1.538    0.000    0.000    0.000    0.000 
#    0.000    0.000    0.000    0.000    0.000    0.000 
#
# Total GULP energy -145389.598589 kJ/mol
# GULP energy per Si atom -5591.907638 kJ/mol
# Density = 2.480360 g / cm^3
# Si number density = 24.860180 Si / 1000 Ang^3
#
#
#
# Elastic Constant Matrix: (Units=GPa)
#
#
# Indices 1 2 3 4 5 6 
#
# 1 84.9938 17.4001 64.8179 0.0000 0.0000 0.0000
# 2 17.4001 97.9207 29.7153 0.0000 0.0000 0.0000
# 3 64.8179 29.7153 237.8352 0.0000 0.0000 0.0000
# 4 0.0000 0.0000 0.0000 33.7349 0.0000 0.0000
# 5 0.0000 0.0000 0.0000 0.0000 25.6621 0.0000
# 6 0.0000 0.0000 0.0000 0.0000 0.0000 27.1104
#
#
#
# Elastic Compliance Matrix: (Units=1/GPa)
#
#
# Indices 1 2 3 4 5 6 
#
# 1 0.015058 -0.001487 -0.003918 0.000000 0.000000 0.000000
# 2 -0.001487 0.010762 -0.000939 0.000000 0.000000 0.000000
# 3 -0.003918 -0.000939 0.005390 0.000000 0.000000 0.000000
# 4 0.000000 0.000000 0.000000 0.029643 0.000000 0.000000
# 5 0.000000 0.000000 0.000000 0.000000 0.038968 0.000000
# 6 0.000000 0.000000 0.000000 0.000000 0.000000 0.036886
#
#
# Mechanical properties :
#
#
# Convention : Reuss Voigt Hill
#
# Bulk Modulus (GPa) = 53.99288 71.62401 62.80845
# Shear Modulus (GPa) = 32.14023 37.88923 35.01473
#
# Velocity S-wave (km/s) = 3.59951 3.90820 3.75703
# Velocity P-wave (km/s) = 6.24828 7.01703 6.64378
#
# Compressibility (1/GPa) = 0.01852096
#
# Stress axis : x y z
#
# Youngs Moduli (GPa) = 66.41040 92.92299 185.53754
#
# Poissons Ratio (x) = 0.13815 0.72694
# Poissons Ratio (y) = 0.09874 0.17429
# Poissons Ratio (z) = 0.26020 0.08729
#
# Static dielectric constant tensor:
#      x y z
#    x 1.912890 0.000000 0.000000 
#    y 0.000000 2.092120 0.000000 
#    z 0.000000 0.000000 1.999440 
# 
# From -- ./inp_files/26201.got.cif
#   From: 2010.05.17/outbox.cif.g08.bks.cpg/sg70_14_cif.got.tgz:26201.got - 2010.06.03 15:57:51.
