data_PCOD9515689
_publ_section_title
;
Structure prediction by ZEFSAII (Michael W. Deem and Ramdas Pophale) SiO2 
 PCOD9515689
Probable space group: F D D D
;
_chemical_formula_sum "Si O2"
_cell_formula_units_Z 96
_cell_length_a 6.976084
_cell_length_b 18.789436
_cell_length_c 26.386022
_cell_angle_alpha 90.000000
_cell_angle_beta 90.000000
_cell_angle_gamma 90.000000
_cell_volume 3458.592264
_symmetry_space_group_name_H-M "F D D D"
_symmetry_group_IT_number 70
_space_group.IT_coordinate_system_code '2'
_symmetry_cell_setting 'orthorhombic'
loop_
_space_group_symop_operation_xyz
x,y,z
1/4-x,1/4-y,z
x,1/4-y,1/4-z
1/4-x,y,1/4-z
-x,-y,-z
3/4+x,3/4+y,-z
-x,3/4+y,3/4+z
3/4+x,-y,3/4+z
x,1/2+y,1/2+z
1/4-x,3/4-y,1/2+z
x,3/4-y,3/4-z
1/4-x,1/2+y,3/4-z
-x,1/2-y,1/2-z
3/4+x,1/4+y,1/2-z
-x,1/4+y,1/4+z
3/4+x,1/2-y,1/4+z
1/2+x,y,1/2+z
3/4-x,1/4-y,1/2+z
1/2+x,1/4-y,3/4-z
3/4-x,y,3/4-z
1/2-x,-y,1/2-z
1/4+x,3/4+y,1/2-z
1/2-x,3/4+y,1/4+z
1/4+x,-y,1/4+z
1/2+x,1/2+y,z
3/4-x,3/4-y,z
1/2+x,3/4-y,1/4-z
3/4-x,1/2+y,1/4-z
1/2-x,1/2-y,-z
1/4+x,1/4+y,-z
1/2-x,1/4+y,3/4+z
1/4+x,1/2-y,3/4+z
loop_
_atom_site_type_symbol
_atom_site_label
_atom_site_fract_x
_atom_site_fract_y
_atom_site_fract_z
Si Si1 0.595942 0.351315 0.296075
Si Si2 0.818642 0.990043 0.807883
Si Si3 0.097978 0.357584 0.677217
O O1 0.375000 0.375000 0.300893
O O2 0.701574 0.419374 0.320469
O O3 0.708368 0.282017 0.316504
O O4 0.638830 0.337528 0.235669
O O5 0.750000 0.000000 0.750000
O O6 0.785685 0.068032 0.829702
O O7 0.125000 0.314120 0.625000
O O8 0.875000 0.375000 0.680192
#
# Coordination Sequence:
#
# PCOD9515689 Si02
#       3
#    32  32  32
#     4   9  19  37  60  82 107 148 198 231 279 337
#     4   9  19  35  58  82 111 151 187 234 277 339
#     4  10  22  35  54  85 117 146 182 235 290 332
#
# _framework density 27.756957
#
# number of rings (size 3 to 8) (size 9 to 14) (size 15 to 20)
#    0.000    2.667    0.000    0.000    9.333   12.000 
#    0.000    3.333    0.000    2.000    0.000    0.000 
#    0.000    0.000    0.000    0.000    0.000    0.000 
#
# Total GULP energy -133770.632017 kJ/mol
# GULP energy per Si atom -5573.776334 kJ/mol
# Density = 2.769378 g / cm^3
# Si number density = 27.756957 Si / 1000 Ang^3
#
#
#
# Elastic Constant Matrix: (Units=GPa)
#
#
# Indices 1 2 3 4 5 6 
#
# 1 161.0773 48.4330 11.0461 0.0000 0.0000 0.0000
# 2 48.4330 110.0110 0.7174 0.0000 0.0000 0.0000
# 3 11.0461 0.7174 118.9680 0.0000 0.0000 0.0000
# 4 0.0000 0.0000 0.0000 13.4795 0.0000 0.0000
# 5 0.0000 0.0000 0.0000 0.0000 23.2530 0.0000
# 6 0.0000 0.0000 0.0000 0.0000 0.0000 42.1614
#
#
#
# Elastic Compliance Matrix: (Units=1/GPa)
#
#
# Indices 1 2 3 4 5 6 
#
# 1 0.007205 -0.003168 -0.000650 0.000000 0.000000 0.000000
# 2 -0.003168 0.010483 0.000231 0.000000 0.000000 0.000000
# 3 -0.000650 0.000231 0.008465 0.000000 0.000000 0.000000
# 4 0.000000 0.000000 0.000000 0.074187 0.000000 0.000000
# 5 0.000000 0.000000 0.000000 0.000000 0.043005 0.000000
# 6 0.000000 0.000000 0.000000 0.000000 0.000000 0.023718
#
#
# Mechanical properties :
#
#
# Convention : Reuss Voigt Hill
#
# Bulk Modulus (GPa) = 52.68917 56.71660 54.70289
# Shear Modulus (GPa) = 27.69104 37.76943 32.73024
#
# Velocity S-wave (km/s) = 3.16195 3.69279 3.43763
# Velocity P-wave (km/s) = 5.68807 6.21771 5.95878
#
# Compressibility (1/GPa) = 0.01897923
#
# Stress axis : x y z
#
# Youngs Moduli (GPa) = 138.78658 95.39079 118.13946
#
# Poissons Ratio (x) = 0.30219 0.07678
# Poissons Ratio (y) = 0.43967 -0.02728
# Poissons Ratio (z) = 0.09020 -0.02203
#
# Static dielectric constant tensor:
#      x y z
#    x 2.259000 0.000000 0.000000 
#    y 0.000000 2.168020 0.000000 
#    z 0.000000 0.000000 2.183130 
# 
# From -- ./inp_files/9296.got.cif
#   From: 2010.05.17/outbox.cif.g08.bks.cpg/sg70_5_cif.got.tgz:9296.got - 2010.06.03 15:57:51.
