data_PCOD9515525
_publ_section_title
;
Structure prediction by ZEFSAII (Michael W. Deem and Ramdas Pophale) SiO2 
 PCOD9515525
Probable space group: F D D D
;
_chemical_formula_sum "Si O2"
_cell_formula_units_Z 176
_cell_length_a 20.604477
_cell_length_b 14.499752
_cell_length_c 24.654839
_cell_angle_alpha 90.000000
_cell_angle_beta 90.000000
_cell_angle_gamma 90.000000
_cell_volume 7365.874931
_symmetry_space_group_name_H-M "F D D D"
_symmetry_group_IT_number 70
_space_group.IT_coordinate_system_code '2'
_symmetry_cell_setting 'orthorhombic'
loop_
_space_group_symop_operation_xyz
x,y,z
1/4-x,1/4-y,z
x,1/4-y,1/4-z
1/4-x,y,1/4-z
-x,-y,-z
3/4+x,3/4+y,-z
-x,3/4+y,3/4+z
3/4+x,-y,3/4+z
x,1/2+y,1/2+z
1/4-x,3/4-y,1/2+z
x,3/4-y,3/4-z
1/4-x,1/2+y,3/4-z
-x,1/2-y,1/2-z
3/4+x,1/4+y,1/2-z
-x,1/4+y,1/4+z
3/4+x,1/2-y,1/4+z
1/2+x,y,1/2+z
3/4-x,1/4-y,1/2+z
1/2+x,1/4-y,3/4-z
3/4-x,y,3/4-z
1/2-x,-y,1/2-z
1/4+x,3/4+y,1/2-z
1/2-x,3/4+y,1/4+z
1/4+x,-y,1/4+z
1/2+x,1/2+y,z
3/4-x,3/4-y,z
1/2+x,3/4-y,1/4-z
3/4-x,1/2+y,1/4-z
1/2-x,1/2-y,-z
1/4+x,1/4+y,-z
1/2-x,1/4+y,3/4+z
1/4+x,1/2-y,3/4+z
loop_
_atom_site_type_symbol
_atom_site_label
_atom_site_fract_x
_atom_site_fract_y
_atom_site_fract_z
Si Si1 0.375000 0.875000 0.202506
Si Si2 0.934727 0.683278 0.534653
Si Si3 0.375000 0.107519 0.875000
Si Si4 0.472198 0.375000 0.875000
Si Si5 0.587435 0.768733 0.213052
Si Si6 0.625000 0.125000 0.281953
Si Si7 0.333942 0.125000 0.625000
Si Si8 0.023251 0.566390 0.877394
O O1 0.375989 0.788596 0.241724
O O2 0.438106 0.868528 0.164706
O O3 0.954186 0.598020 0.494959
O O4 0.907249 0.778993 0.508235
O O5 0.876671 0.646565 0.572427
O O6 0.989032 0.690279 0.582068
O O7 0.365765 0.168144 0.821539
O O8 0.303783 0.064943 0.877966
O O9 0.439137 0.303187 0.832532
O O10 0.562726 0.159964 0.317368
O O11 0.293298 0.213952 0.637693
#
# Coordination Sequence:
#
# PCOD9515525 Si02
#       8
#    16  32  16  16  32  16  16  32
#     4  11  24  43  76 103 134 203 250 291 385 476
#     4  10  21  40  72 107 145 203 248 306 379 459
#     4  12  28  42  62 106 156 188 236 327 373 432
#     4  11  24  39  72 116 162 188 250 328 392 450
#     4  12  25  45  68 112 153 195 243 313 389 459
#     4   9  20  42  72 102 138 198 260 302 355 466
#     4   9  18  43  70  96 134 198 262 296 362 462
#     4  10  22  43  69 101 145 192 249 311 372 444
#
# _framework density 23.893971000000001
#
# number of rings (size 3 to 8) (size 9 to 14) (size 15 to 20)
#    0.000    1.455    1.818    2.727    7.636    0.364 
#    0.000    5.455    0.000    0.000    0.000    0.000 
#    0.000    0.000    0.000    0.000    0.000    0.000 
#
# Total GULP energy -245092.147951 kJ/mol
# GULP energy per Si atom -5570.276090 kJ/mol
# Density = 2.383959 g / cm^3
# Si number density = 23.893971 Si / 1000 Ang^3
#
#
#
# Elastic Constant Matrix: (Units=GPa)
#
#
# Indices 1 2 3 4 5 6 
#
# 1 131.6680 23.4958 17.6757 0.0000 0.0000 0.0000
# 2 23.4958 107.1195 23.6688 0.0000 0.0000 0.0000
# 3 17.6757 23.6688 74.1430 0.0000 0.0000 0.0000
# 4 0.0000 0.0000 0.0000 30.4876 0.0000 0.0000
# 5 0.0000 0.0000 0.0000 0.0000 20.8951 0.0000
# 6 0.0000 0.0000 0.0000 0.0000 0.0000 11.9956
#
#
#
# Elastic Compliance Matrix: (Units=1/GPa)
#
#
# Indices 1 2 3 4 5 6 
#
# 1 0.008048 -0.001443 -0.001458 0.000000 0.000000 0.000000
# 2 -0.001443 0.010303 -0.002945 0.000000 0.000000 0.000000
# 3 -0.001458 -0.002945 0.014775 0.000000 0.000000 0.000000
# 4 0.000000 0.000000 0.000000 0.032800 0.000000 0.000000
# 5 0.000000 0.000000 0.000000 0.000000 0.047858 0.000000
# 6 0.000000 0.000000 0.000000 0.000000 0.000000 0.083364
#
#
# Mechanical properties :
#
#
# Convention : Reuss Voigt Hill
#
# Bulk Modulus (GPa) = 46.65514 49.17901 47.91708
# Shear Modulus (GPa) = 23.14978 29.21500 26.18239
#
# Velocity S-wave (km/s) = 3.11602 3.50050 3.31384
# Velocity P-wave (km/s) = 5.70214 6.07987 5.89403
#
# Compressibility (1/GPa) = 0.02143386
#
# Stress axis : x y z
#
# Youngs Moduli (GPa) = 124.25273 97.06286 67.68131
#
# Poissons Ratio (x) = 0.14008 0.09868
# Poissons Ratio (y) = 0.17931 0.19931
# Poissons Ratio (z) = 0.18116 0.28584
#
# Static dielectric constant tensor:
#      x y z
#    x 2.170750 0.000000 0.000000 
#    y 0.000000 1.970040 0.000000 
#    z 0.000000 0.000000 1.958410 
# 
# From -- ./inp_files/53671.got.cif
#   From: 2010.05.17/outbox.cif.g08.bks.cpg/sg70_27_cif.got.tgz:53671.got - 2010.06.03 15:57:51.
