data_PCOD9515889
_publ_section_title
;
Structure prediction by ZEFSAII (Michael W. Deem and Ramdas Pophale) SiO2 
 PCOD9515889
Probable space group: F D D D
;
_chemical_formula_sum "Si O2"
_cell_formula_units_Z 160
_cell_length_a 24.397150
_cell_length_b 17.224456
_cell_length_c 15.900929
_cell_angle_alpha 90.000000
_cell_angle_beta 90.000000
_cell_angle_gamma 90.000000
_cell_volume 6682.009815
_symmetry_space_group_name_H-M "F D D D"
_symmetry_group_IT_number 70
_space_group.IT_coordinate_system_code '2'
_symmetry_cell_setting 'orthorhombic'
loop_
_space_group_symop_operation_xyz
x,y,z
1/4-x,1/4-y,z
x,1/4-y,1/4-z
1/4-x,y,1/4-z
-x,-y,-z
3/4+x,3/4+y,-z
-x,3/4+y,3/4+z
3/4+x,-y,3/4+z
x,1/2+y,1/2+z
1/4-x,3/4-y,1/2+z
x,3/4-y,3/4-z
1/4-x,1/2+y,3/4-z
-x,1/2-y,1/2-z
3/4+x,1/4+y,1/2-z
-x,1/4+y,1/4+z
3/4+x,1/2-y,1/4+z
1/2+x,y,1/2+z
3/4-x,1/4-y,1/2+z
1/2+x,1/4-y,3/4-z
3/4-x,y,3/4-z
1/2-x,-y,1/2-z
1/4+x,3/4+y,1/2-z
1/2-x,3/4+y,1/4+z
1/4+x,-y,1/4+z
1/2+x,1/2+y,z
3/4-x,3/4-y,z
1/2+x,3/4-y,1/4-z
3/4-x,1/2+y,1/4-z
1/2-x,1/2-y,-z
1/4+x,1/4+y,-z
1/2-x,1/4+y,3/4+z
1/4+x,1/2-y,3/4+z
loop_
_atom_site_type_symbol
_atom_site_label
_atom_site_fract_x
_atom_site_fract_y
_atom_site_fract_z
Si Si1 0.713354 0.381698 0.558719
Si Si2 0.562717 0.205680 0.091977
Si Si3 0.047511 0.700218 0.893513
Si Si4 0.872818 0.679491 0.697746
Si Si5 0.428372 0.417356 0.741834
O O1 0.713073 0.460660 0.613125
O O2 0.734972 0.307818 0.610913
O O3 0.654245 0.368222 0.519209
O O4 0.759396 0.394973 0.484545
O O5 0.537840 0.125000 0.125000
O O6 0.625000 0.207474 0.125000
O O7 0.558700 0.202940 0.991134
O O8 0.079945 0.767789 0.846112
O O9 0.068879 0.619331 0.852654
O O10 0.849584 0.625000 0.625000
O O11 0.831571 0.741906 0.735660
O O12 0.375000 0.375000 0.780737
#
# Coordination Sequence:
#
# PCOD9515889 Si02
#       5
#    32  32  32  32  32
#     4  10  22  42  64 104 132 179 229 283 341 422
#     4  11  25  40  64  93 134 179 225 281 352 399
#     4   9  21  42  61  93 139 173 224 283 343 410
#     4  11  19  36  72  95 134 185 223 278 354 413
#     4   8  20  36  64  91 133 178 219 270 345 399
#
# _framework density 23.944890999999998
#
# number of rings (size 3 to 8) (size 9 to 14) (size 15 to 20)
#    1.200    1.000    2.000    0.600    8.400    1.600 
#    3.600    0.000    0.000    3.000    0.000    0.000 
#    0.000    0.000    0.000    0.000    0.000    0.000 
#
# Total GULP energy -222970.008911 kJ/mol
# GULP energy per Si atom -5574.250223 kJ/mol
# Density = 2.389039 g / cm^3
# Si number density = 23.944891 Si / 1000 Ang^3
#
#
#
# Elastic Constant Matrix: (Units=GPa)
#
#
# Indices 1 2 3 4 5 6 
#
# 1 61.4587 13.6853 3.3883 0.0000 0.0000 0.0000
# 2 13.6853 113.0673 9.7978 0.0000 0.0000 0.0000
# 3 3.3883 9.7978 73.3971 0.0000 0.0000 0.0000
# 4 0.0000 0.0000 0.0000 21.0341 0.0000 0.0000
# 5 0.0000 0.0000 0.0000 0.0000 10.0863 0.0000
# 6 0.0000 0.0000 0.0000 0.0000 0.0000 46.8782
#
#
#
# Elastic Compliance Matrix: (Units=1/GPa)
#
#
# Indices 1 2 3 4 5 6 
#
# 1 0.016740 -0.001982 -0.000508 0.000000 0.000000 0.000000
# 2 -0.001982 0.009182 -0.001134 0.000000 0.000000 0.000000
# 3 -0.000508 -0.001134 0.013799 0.000000 0.000000 0.000000
# 4 0.000000 0.000000 0.000000 0.047542 0.000000 0.000000
# 5 0.000000 0.000000 0.000000 0.000000 0.099144 0.000000
# 6 0.000000 0.000000 0.000000 0.000000 0.000000 0.021332
#
#
# Mechanical properties :
#
#
# Convention : Reuss Voigt Hill
#
# Bulk Modulus (GPa) = 30.79475 33.51844 32.15659
# Shear Modulus (GPa) = 22.14212 30.33651 26.23932
#
# Velocity S-wave (km/s) = 3.04421 3.56326 3.31391
# Velocity P-wave (km/s) = 5.02443 5.56396 5.30106
#
# Compressibility (1/GPa) = 0.03247307
#
# Stress axis : x y z
#
# Youngs Moduli (GPa) = 59.73538 108.90286 72.46696
#
# Poissons Ratio (x) = 0.21586 0.03683
# Poissons Ratio (y) = 0.11841 0.08220
# Poissons Ratio (z) = 0.03036 0.12353
#
# Static dielectric constant tensor:
#      x y z
#    x 2.080580 0.000000 0.000000 
#    y 0.000000 1.957700 0.000000 
#    z 0.000000 0.000000 1.886260 
# 
# From -- ./inp_files/38423.got.cif
#   From: 2010.05.17/outbox.cif.g08.bks.cpg/sg70_20_cif.got.tgz:38423.got - 2010.06.03 15:57:51.
