data_PCOD9515635
_publ_section_title
;
Structure prediction by ZEFSAII (Michael W. Deem and Ramdas Pophale) SiO2 
 PCOD9515635
Probable space group: F D D D
;
_chemical_formula_sum "Si O2"
_cell_formula_units_Z 160
_cell_length_a 8.102821
_cell_length_b 31.275550
_cell_length_c 31.238708
_cell_angle_alpha 90.000000
_cell_angle_beta 90.000000
_cell_angle_gamma 90.000000
_cell_volume 7916.519108
_symmetry_space_group_name_H-M "F D D D"
_symmetry_group_IT_number 70
_space_group.IT_coordinate_system_code '2'
_symmetry_cell_setting 'orthorhombic'
loop_
_space_group_symop_operation_xyz
x,y,z
1/4-x,1/4-y,z
x,1/4-y,1/4-z
1/4-x,y,1/4-z
-x,-y,-z
3/4+x,3/4+y,-z
-x,3/4+y,3/4+z
3/4+x,-y,3/4+z
x,1/2+y,1/2+z
1/4-x,3/4-y,1/2+z
x,3/4-y,3/4-z
1/4-x,1/2+y,3/4-z
-x,1/2-y,1/2-z
3/4+x,1/4+y,1/2-z
-x,1/4+y,1/4+z
3/4+x,1/2-y,1/4+z
1/2+x,y,1/2+z
3/4-x,1/4-y,1/2+z
1/2+x,1/4-y,3/4-z
3/4-x,y,3/4-z
1/2-x,-y,1/2-z
1/4+x,3/4+y,1/2-z
1/2-x,3/4+y,1/4+z
1/4+x,-y,1/4+z
1/2+x,1/2+y,z
3/4-x,3/4-y,z
1/2+x,3/4-y,1/4-z
3/4-x,1/2+y,1/4-z
1/2-x,1/2-y,-z
1/4+x,1/4+y,-z
1/2-x,1/4+y,3/4+z
1/4+x,1/2-y,3/4+z
loop_
_atom_site_type_symbol
_atom_site_label
_atom_site_fract_x
_atom_site_fract_y
_atom_site_fract_z
Si Si1 0.412606 0.569767 0.506924
Si Si2 0.125000 0.061977 0.125000
Si Si3 0.378319 0.992006 0.623563
Si Si4 0.625000 0.625000 0.809230
Si Si5 0.625000 0.625000 0.198558
Si Si6 0.125000 0.419521 0.625000
Si Si7 0.129260 0.245699 0.555798
O O1 0.529575 0.593211 0.472739
O O2 0.270118 0.601490 0.524603
O O3 0.534434 0.548096 0.541588
O O4 0.340882 0.527444 0.483247
O O5 0.191091 0.089977 0.164342
O O6 0.260065 0.029417 0.107279
O O7 0.486037 0.952233 0.607394
O O8 0.280776 0.011481 0.584012
O O9 0.253440 0.980062 0.661368
O O10 0.771216 0.643427 0.839859
#
# Coordination Sequence:
#
# PCOD9515635 Si02
#       7
#    32  16  32  16  16  16  32
#     4  11  25  43  62 100 133 169 217 286 334 390
#     4  10  22  43  64  96 124 182 222 266 324 417
#     4  10  21  43  68  92 125 182 224 263 320 419
#     4  12  28  41  66  96 134 166 224 268 344 391
#     4  11  24  41  66  93 140 168 218 281 340 385
#     4  11  26  43  66  95 128 176 218 271 326 413
#     4  10  22  43  67  93 131 177 221 271 327 405
#
# _framework density 20.210902000000001
#
# number of rings (size 3 to 8) (size 9 to 14) (size 15 to 20)
#    0.000    1.400    4.000    0.000    8.400    0.000 
#    0.000    2.000    0.000    0.000    0.000    0.000 
#    0.000    0.000    0.000    0.000    0.000    0.000 
#
# Total GULP energy -222779.040367 kJ/mol
# GULP energy per Si atom -5569.476009 kJ/mol
# Density = 2.016490 g / cm^3
# Si number density = 20.210902 Si / 1000 Ang^3
#
#
#
# Elastic Constant Matrix: (Units=GPa)
#
#
# Indices 1 2 3 4 5 6 
#
# 1 86.1351 51.9019 52.0810 0.0000 0.0000 0.0000
# 2 51.9019 90.8857 46.0798 0.0000 0.0000 0.0000
# 3 52.0810 46.0798 91.2335 0.0000 0.0000 0.0000
# 4 0.0000 0.0000 0.0000 99.5681 0.0000 0.0000
# 5 0.0000 0.0000 0.0000 0.0000 42.9054 0.0000
# 6 0.0000 0.0000 0.0000 0.0000 0.0000 9.1263
#
#
#
# Elastic Compliance Matrix: (Units=1/GPa)
#
#
# Indices 1 2 3 4 5 6 
#
# 1 0.021407 -0.008104 -0.008127 0.000000 0.000000 0.000000
# 2 -0.008104 0.017859 -0.004393 0.000000 0.000000 0.000000
# 3 -0.008127 -0.004393 0.017819 0.000000 0.000000 0.000000
# 4 0.000000 0.000000 0.000000 0.010043 0.000000 0.000000
# 5 0.000000 0.000000 0.000000 0.000000 0.023307 0.000000
# 6 0.000000 0.000000 0.000000 0.000000 0.000000 0.109573
#
#
# Mechanical properties :
#
#
# Convention : Reuss Voigt Hill
#
# Bulk Modulus (GPa) = 63.15083 63.15331 63.15207
# Shear Modulus (GPa) = 20.28097 38.19941 29.24019
#
# Velocity S-wave (km/s) = 3.17119 4.35218 3.80775
# Velocity P-wave (km/s) = 6.68748 7.52132 7.11662
#
# Compressibility (1/GPa) = 0.01583510
#
# Stress axis : x y z
#
# Youngs Moduli (GPa) = 46.71374 55.99559 56.11934
#
# Poissons Ratio (x) = 0.45381 0.45608
# Poissons Ratio (y) = 0.37859 0.24656
# Poissons Ratio (z) = 0.37964 0.24601
#
# Static dielectric constant tensor:
#      x y z
#    x 1.746340 0.000000 0.000000 
#    y 0.000000 1.754390 0.000000 
#    z 0.000000 0.000000 1.735860 
# 
# From -- ./inp_files/63967.got.cif
#   From: 2010.05.17/outbox.cif.g08.bks.cpg/sg70_32_cif.got.tgz:63967.got - 2010.06.03 15:57:51.
