data_PCOD9515722
_publ_section_title
;
Structure prediction by ZEFSAII (Michael W. Deem and Ramdas Pophale) SiO2 
 PCOD9515722
Probable space group: F D D D
;
_chemical_formula_sum "Si O2"
_cell_formula_units_Z 240
_cell_length_a 21.006593
_cell_length_b 24.209274
_cell_length_c 21.072360
_cell_angle_alpha 90.000000
_cell_angle_beta 90.000000
_cell_angle_gamma 90.000000
_cell_volume 10716.440675
_symmetry_space_group_name_H-M "F D D D"
_symmetry_group_IT_number 70
_space_group.IT_coordinate_system_code '2'
_symmetry_cell_setting 'orthorhombic'
loop_
_space_group_symop_operation_xyz
x,y,z
1/4-x,1/4-y,z
x,1/4-y,1/4-z
1/4-x,y,1/4-z
-x,-y,-z
3/4+x,3/4+y,-z
-x,3/4+y,3/4+z
3/4+x,-y,3/4+z
x,1/2+y,1/2+z
1/4-x,3/4-y,1/2+z
x,3/4-y,3/4-z
1/4-x,1/2+y,3/4-z
-x,1/2-y,1/2-z
3/4+x,1/4+y,1/2-z
-x,1/4+y,1/4+z
3/4+x,1/2-y,1/4+z
1/2+x,y,1/2+z
3/4-x,1/4-y,1/2+z
1/2+x,1/4-y,3/4-z
3/4-x,y,3/4-z
1/2-x,-y,1/2-z
1/4+x,3/4+y,1/2-z
1/2-x,3/4+y,1/4+z
1/4+x,-y,1/4+z
1/2+x,1/2+y,z
3/4-x,3/4-y,z
1/2+x,3/4-y,1/4-z
3/4-x,1/2+y,1/4-z
1/2-x,1/2-y,-z
1/4+x,1/4+y,-z
1/2-x,1/4+y,3/4+z
1/4+x,1/2-y,3/4+z
loop_
_atom_site_type_symbol
_atom_site_label
_atom_site_fract_x
_atom_site_fract_y
_atom_site_fract_z
Si Si1 0.405450 0.142871 0.555278
Si Si2 0.686815 0.041398 0.440494
Si Si3 0.547934 0.242119 0.992729
Si Si4 0.039723 0.135306 0.201291
Si Si5 0.965661 0.119260 0.781749
Si Si6 0.414324 0.431243 0.543677
Si Si7 0.625000 0.416699 0.125000
Si Si8 0.424994 0.501812 0.983346
O O1 0.387070 0.125000 0.625000
O O2 0.438811 0.203856 0.551628
O O3 0.464621 0.104699 0.535126
O O4 0.344368 0.132064 0.512678
O O5 0.691844 0.092741 0.491212
O O6 0.672466 0.053593 0.367526
O O7 0.629153 0.001028 0.462330
O O8 0.756327 0.013742 0.448740
O O9 0.503217 0.190305 0.970147
O O10 0.619912 0.220655 0.998222
O O11 0.041177 0.125000 0.125000
O O12 0.080770 0.189980 0.205277
O O13 0.933794 0.119575 0.850928
O O14 0.016797 0.166302 0.767986
O O15 0.375000 0.375000 0.544647
O O16 0.598568 0.455809 0.069631
O O17 0.500000 0.500000 0.000000
#
# Coordination Sequence:
#
# PCOD9515722 Si02
#       8
#    32  32  32  32  32  32  16  32
#     4  10  24  43  71  98 137 180 230 286 350 432
#     4  11  23  40  62  92 131 182 221 275 338 414
#     4  10  24  44  67  99 132 180 237 282 357 419
#     4  10  22  38  55  86 129 171 217 259 319 400
#     4  11  25  45  68 101 137 180 232 299 355 420
#     4  10  24  43  72  95 137 180 235 289 352 430
#     4  12  26  38  61  98 144 174 221 290 334 418
#     4  12  25  34  59  90 129 171 217 255 326 398
#
# _framework density 22.395496000000001
#
# number of rings (size 3 to 8) (size 9 to 14) (size 15 to 20)
#    0.000    1.333    1.333    2.800   14.933    1.067 
#    0.000    0.000    2.933    2.800    0.000    0.000 
#    0.000    0.000    0.000    0.000    0.000    0.000 
#
# Total GULP energy -334166.127648 kJ/mol
# GULP energy per Si atom -5569.435461 kJ/mol
# Density = 2.234452 g / cm^3
# Si number density = 22.395496 Si / 1000 Ang^3
#
#
#
# Elastic Constant Matrix: (Units=GPa)
#
#
# Indices 1 2 3 4 5 6 
#
# 1 140.3506 11.9498 18.7280 0.0000 0.0000 0.0000
# 2 11.9498 34.0303 -8.9397 0.0000 0.0000 0.0000
# 3 18.7280 -8.9397 27.5884 0.0000 0.0000 0.0000
# 4 0.0000 0.0000 0.0000 13.7453 0.0000 0.0000
# 5 0.0000 0.0000 0.0000 0.0000 25.5725 0.0000
# 6 0.0000 0.0000 0.0000 0.0000 0.0000 -42.0045
#
#
#
# Elastic Compliance Matrix: (Units=1/GPa)
#
#
# Indices 1 2 3 4 5 6 
#
# 1 0.008532 -0.004938 -0.007392 0.000000 0.000000 0.000000
# 2 -0.004938 0.034977 0.014686 0.000000 0.000000 0.000000
# 3 -0.007392 0.014686 0.046024 0.000000 0.000000 0.000000
# 4 0.000000 0.000000 0.000000 0.072752 0.000000 0.000000
# 5 0.000000 0.000000 0.000000 0.000000 0.039104 0.000000
# 6 0.000000 0.000000 0.000000 0.000000 0.000000 -0.023807
#
#
# Mechanical properties :
#
#
# Convention : Reuss Voigt Hill
#
# Bulk Modulus (GPa) = 10.61053 27.27172 18.94112
# Shear Modulus (GPa) = 24.47564 11.47807 17.97685
#
# Velocity S-wave (km/s) = 3.30946 2.26634 2.83627
# Velocity P-wave (km/s) = 4.39903 4.36488 4.38199
#
# Compressibility (1/GPa) = 0.09424601
#
# Stress axis : x y z
#
# Youngs Moduli (GPa) = 117.20926 28.58986 21.72794
#
# Poissons Ratio (x) = 0.14117 0.16061
# Poissons Ratio (y) = 0.57875 -0.31910
# Poissons Ratio (z) = 0.86637 -0.41987
#
# Static dielectric constant tensor:
#      x y z
#    x 1.856730 0.000000 0.000000 
#    y 0.000000 2.026980 0.000000 
#    z 0.000000 0.000000 1.817080 
# 
# From -- ./inp_files/45193.got.cif
#   From: 2010.05.17/outbox.cif.g08.bks.cpg/sg70_23_cif.got.tgz:45193.got - 2010.06.03 15:57:51.
