data_PCOD9515359
_publ_section_title
;
Structure prediction by ZEFSAII (Michael W. Deem and Ramdas Pophale) SiO2 
 PCOD9515359
Probable space group: F D D D
;
_chemical_formula_sum "Si O2"
_cell_formula_units_Z 144
_cell_length_a 24.912536
_cell_length_b 27.585930
_cell_length_c 9.960462
_cell_angle_alpha 90.000000
_cell_angle_beta 90.000000
_cell_angle_gamma 90.000000
_cell_volume 6845.182826
_symmetry_space_group_name_H-M "F D D D"
_symmetry_group_IT_number 70
_space_group.IT_coordinate_system_code '2'
_symmetry_cell_setting 'orthorhombic'
loop_
_space_group_symop_operation_xyz
x,y,z
1/4-x,1/4-y,z
x,1/4-y,1/4-z
1/4-x,y,1/4-z
-x,-y,-z
3/4+x,3/4+y,-z
-x,3/4+y,3/4+z
3/4+x,-y,3/4+z
x,1/2+y,1/2+z
1/4-x,3/4-y,1/2+z
x,3/4-y,3/4-z
1/4-x,1/2+y,3/4-z
-x,1/2-y,1/2-z
3/4+x,1/4+y,1/2-z
-x,1/4+y,1/4+z
3/4+x,1/2-y,1/4+z
1/2+x,y,1/2+z
3/4-x,1/4-y,1/2+z
1/2+x,1/4-y,3/4-z
3/4-x,y,3/4-z
1/2-x,-y,1/2-z
1/4+x,3/4+y,1/2-z
1/2-x,3/4+y,1/4+z
1/4+x,-y,1/4+z
1/2+x,1/2+y,z
3/4-x,3/4-y,z
1/2+x,3/4-y,1/4-z
3/4-x,1/2+y,1/4-z
1/2-x,1/2-y,-z
1/4+x,1/4+y,-z
1/2-x,1/4+y,3/4+z
1/4+x,1/2-y,3/4+z
loop_
_atom_site_type_symbol
_atom_site_label
_atom_site_fract_x
_atom_site_fract_y
_atom_site_fract_z
Si Si1 0.029923 0.779250 0.472807
Si Si2 0.221854 0.075442 0.272815
Si Si3 0.375000 0.476193 0.875000
Si Si4 0.688219 0.375000 0.875000
Si Si5 0.983846 0.068681 0.265202
Si Si6 0.375000 0.603815 0.375000
O O1 0.086178 0.759887 0.535375
O O2 0.032039 0.823748 0.368656
O O3 0.993120 0.798208 0.596310
O O4 0.005354 0.729741 0.418124
O O5 0.163967 0.057285 0.218556
O O6 0.231067 0.133019 0.296944
O O7 0.260410 0.063784 0.146005
O O8 0.653333 0.367201 0.742730
O O9 0.922570 0.075270 0.304386
#
# Coordination Sequence:
#
# PCOD9515359 Si02
#       6
#    32  32  16  16  32  16
#     4  11  24  40  65  99 136 177 223 280 340 403
#     4  10  21  41  64 104 132 169 226 286 326 414
#     4  10  21  37  71 100 134 175 218 284 346 386
#     4  12  26  42  68  97 138 175 228 280 338 400
#     4  10  22  40  67  92 138 166 227 275 332 405
#     4  12  25  42  69 101 128 180 228 279 342 398
#
# _framework density 21.036691000000001
#
# number of rings (size 3 to 8) (size 9 to 14) (size 15 to 20)
#    0.000    1.333    2.222    4.667    6.222    8.000 
#    0.000    0.000    0.000    0.667    0.000    0.000 
#    0.000    0.000    0.000    0.000    0.000    0.000 
#
# Total GULP energy -200903.141097 kJ/mol
# GULP energy per Si atom -5580.642808 kJ/mol
# Density = 2.098881 g / cm^3
# Si number density = 21.036691 Si / 1000 Ang^3
#
#
#
# Elastic Constant Matrix: (Units=GPa)
#
#
# Indices 1 2 3 4 5 6 
#
# 1 106.0097 48.8641 23.1038 0.0001 -0.0002 0.0000
# 2 48.8641 205.6932 28.0678 0.0001 -0.0001 0.0001
# 3 23.1038 28.0678 65.2623 0.0004 -0.0003 -0.0001
# 4 0.0001 0.0001 0.0004 26.7701 -0.0003 -0.0001
# 5 -0.0002 -0.0001 -0.0003 -0.0003 20.5033 0.0000
# 6 0.0000 0.0001 -0.0001 -0.0001 0.0000 -0.0552
#
#
#
# Elastic Compliance Matrix: (Units=1/GPa)
#
#
# Indices 1 2 3 4 5 6 
#
# 1 0.011111 -0.002234 -0.002973 0.000000 0.000000 0.000011
# 2 -0.002234 0.005614 -0.001624 0.000000 0.000000 0.000015
# 3 -0.002973 -0.001624 0.017073 0.000000 0.000000 -0.000048
# 4 0.000000 0.000000 0.000000 0.037355 0.000001 -0.000091
# 5 0.000000 0.000000 0.000000 0.000001 0.048773 0.000033
# 6 0.000011 0.000015 -0.000048 -0.000091 0.000033-18.111669
#
#
# Mechanical properties :
#
#
# Convention : Reuss Voigt Hill
#
# Bulk Modulus (GPa) = 49.65775 64.11519 56.88647
# Shear Modulus (GPa) = -0.27822 27.90561 13.81369
#
# Velocity S-wave (km/s) = -0.36406 3.64609 2.56529
# Velocity P-wave (km/s) = 4.84560 6.94761 5.98954
#
# Compressibility (1/GPa) = 0.02013784
#
# Stress axis : x y z
#
# Youngs Moduli (GPa) = 90.00421 178.13215 58.57071
#
# Poissons Ratio (x) = 0.39791 0.17411
# Poissons Ratio (y) = 0.20105 0.09509
# Poissons Ratio (z) = 0.26755 0.28921
#
# Static dielectric constant tensor:
#      x y z
#    x 1.807700 0.000000 0.000000 
#    y 0.000000 1.849180 0.000000 
#    z 0.000000 0.000000 1.781700 
# 
# From -- ./inp_files/19274.got.cif
#   From: 2010.05.17/outbox.cif.g08.bks.cpg/sg70_10_cif.got.tgz:19274.got - 2010.06.03 15:57:51.
