data_PCOD9515890
_publ_section_title
;
Structure prediction by ZEFSAII (Michael W. Deem and Ramdas Pophale) SiO2 
 PCOD9515890
Probable space group: F D D D
;
_chemical_formula_sum "Si O2"
_cell_formula_units_Z 136
_cell_length_a 19.592757
_cell_length_b 19.163013
_cell_length_c 19.909867
_cell_angle_alpha 90.000000
_cell_angle_beta 90.000000
_cell_angle_gamma 90.000000
_cell_volume 7475.284143
_symmetry_space_group_name_H-M "F D D D"
_symmetry_group_IT_number 70
_space_group.IT_coordinate_system_code '2'
_symmetry_cell_setting 'orthorhombic'
loop_
_space_group_symop_operation_xyz
x,y,z
1/4-x,1/4-y,z
x,1/4-y,1/4-z
1/4-x,y,1/4-z
-x,-y,-z
3/4+x,3/4+y,-z
-x,3/4+y,3/4+z
3/4+x,-y,3/4+z
x,1/2+y,1/2+z
1/4-x,3/4-y,1/2+z
x,3/4-y,3/4-z
1/4-x,1/2+y,3/4-z
-x,1/2-y,1/2-z
3/4+x,1/4+y,1/2-z
-x,1/4+y,1/4+z
3/4+x,1/2-y,1/4+z
1/2+x,y,1/2+z
3/4-x,1/4-y,1/2+z
1/2+x,1/4-y,3/4-z
3/4-x,y,3/4-z
1/2-x,-y,1/2-z
1/4+x,3/4+y,1/2-z
1/2-x,3/4+y,1/4+z
1/4+x,-y,1/4+z
1/2+x,1/2+y,z
3/4-x,3/4-y,z
1/2+x,3/4-y,1/4-z
3/4-x,1/2+y,1/4-z
1/2-x,1/2-y,-z
1/4+x,1/4+y,-z
1/2-x,1/4+y,3/4+z
1/4+x,1/2-y,3/4+z
loop_
_atom_site_type_symbol
_atom_site_label
_atom_site_fract_x
_atom_site_fract_y
_atom_site_fract_z
Si Si1 0.625000 0.125000 0.625000
Si Si2 0.748490 0.444745 0.308872
Si Si3 0.235090 0.803275 0.940683
Si Si4 0.061455 0.569249 0.197400
Si Si5 0.327344 0.701857 0.691400
O O1 0.574245 0.169783 0.671222
O O2 0.750000 0.500000 0.250000
O O3 0.703890 0.374848 0.292853
O O4 0.715523 0.476031 0.376710
O O5 0.286006 0.794112 0.876597
O O6 0.249580 0.880587 0.968776
O O7 0.156453 0.800119 0.920658
O O8 0.250000 0.750000 0.000000
O O9 0.125000 0.625000 0.199371
O O10 0.072248 0.504995 0.246542
#
# Coordination Sequence:
#
# PCOD9515890 Si02
#       5
#     8  32  32  32  32
#     4   8  20  40  64  88 116 164 204 254 332 352
#     4  10  22  42  64  87 125 162 210 267 305 377
#     4  11  22  37  62  88 126 170 200 256 318 378
#     4  11  22  39  60  89 129 160 206 261 309 371
#     4  10  23  40  60  93 120 163 209 250 321 369
#
# _framework density 18.193287999999999
#
# number of rings (size 3 to 8) (size 9 to 14) (size 15 to 20)
#    0.000    1.882    2.353    4.235    0.000    9.412 
#    2.118    0.000    0.000    0.000    0.000    0.000 
#    0.000    0.000    0.000    0.000    0.000    0.000 
#
# Total GULP energy -189366.187115 kJ/mol
# GULP energy per Si atom -5569.593739 kJ/mol
# Density = 1.815188 g / cm^3
# Si number density = 18.193288 Si / 1000 Ang^3
#
#
#
# Elastic Constant Matrix: (Units=GPa)
#
#
# Indices 1 2 3 4 5 6 
#
# 1 139.3884 34.7032 66.2942 0.0000 0.0000 0.0000
# 2 34.7032 92.6719 95.6426 0.0000 0.0000 0.0000
# 3 66.2942 95.6426 132.7825 0.0000 0.0000 0.0000
# 4 0.0000 0.0000 0.0000 54.8671 0.0000 0.0000
# 5 0.0000 0.0000 0.0000 0.0000 17.8567 0.0000
# 6 0.0000 0.0000 0.0000 0.0000 0.0000 20.7072
#
#
#
# Elastic Compliance Matrix: (Units=1/GPa)
#
#
# Indices 1 2 3 4 5 6 
#
# 1 0.010088 0.005535 -0.009023 0.000000 0.000000 0.000000
# 2 0.005535 0.045087 -0.035240 0.000000 0.000000 0.000000
# 3 -0.009023 -0.035240 0.037419 0.000000 0.000000 0.000000
# 4 0.000000 0.000000 0.000000 0.018226 0.000000 0.000000
# 5 0.000000 0.000000 0.000000 0.000000 0.056002 0.000000
# 6 0.000000 0.000000 0.000000 0.000000 0.000000 0.048292
#
#
# Mechanical properties :
#
#
# Convention : Reuss Voigt Hill
#
# Bulk Modulus (GPa) = 66.05793 84.23586 75.14690
# Shear Modulus (GPa) = 16.80020 29.89971 23.34995
#
# Velocity S-wave (km/s) = 3.04209 4.05834 3.58640
# Velocity P-wave (km/s) = 6.98046 8.26808 7.65141
#
# Compressibility (1/GPa) = 0.01513823
#
# Stress axis : x y z
#
# Youngs Moduli (GPa) = 99.13047 22.17924 26.72439
#
# Poissons Ratio (x) = -0.12276 0.24114
# Poissons Ratio (y) = -0.54868 0.94175
# Poissons Ratio (z) = 0.89448 0.78159
#
# Static dielectric constant tensor:
#      x y z
#    x 1.666120 0.000000 0.000000 
#    y 0.000000 1.633680 0.000000 
#    z 0.000000 0.000000 1.629670 
# 
# From -- ./inp_files/34700.got.cif
#   From: 2010.05.17/outbox.cif.g08.bks.cpg/sg70_18_cif.got.tgz:34700.got - 2010.06.03 15:57:51.
