data_PCOD9515778
_publ_section_title
;
Structure prediction by ZEFSAII (Michael W. Deem and Ramdas Pophale) SiO2 
 PCOD9515778
Probable space group: F D D D
;
_chemical_formula_sum "Si O2"
_cell_formula_units_Z 216
_cell_length_a 12.480395
_cell_length_b 26.291046
_cell_length_c 32.186480
_cell_angle_alpha 90.000000
_cell_angle_beta 90.000000
_cell_angle_gamma 90.000000
_cell_volume 10561.112759
_symmetry_space_group_name_H-M "F D D D"
_symmetry_group_IT_number 70
_space_group.IT_coordinate_system_code '2'
_symmetry_cell_setting 'orthorhombic'
loop_
_space_group_symop_operation_xyz
x,y,z
1/4-x,1/4-y,z
x,1/4-y,1/4-z
1/4-x,y,1/4-z
-x,-y,-z
3/4+x,3/4+y,-z
-x,3/4+y,3/4+z
3/4+x,-y,3/4+z
x,1/2+y,1/2+z
1/4-x,3/4-y,1/2+z
x,3/4-y,3/4-z
1/4-x,1/2+y,3/4-z
-x,1/2-y,1/2-z
3/4+x,1/4+y,1/2-z
-x,1/4+y,1/4+z
3/4+x,1/2-y,1/4+z
1/2+x,y,1/2+z
3/4-x,1/4-y,1/2+z
1/2+x,1/4-y,3/4-z
3/4-x,y,3/4-z
1/2-x,-y,1/2-z
1/4+x,3/4+y,1/2-z
1/2-x,3/4+y,1/4+z
1/4+x,-y,1/4+z
1/2+x,1/2+y,z
3/4-x,3/4-y,z
1/2+x,3/4-y,1/4-z
3/4-x,1/2+y,1/4-z
1/2-x,1/2-y,-z
1/4+x,1/4+y,-z
1/2-x,1/4+y,3/4+z
1/4+x,1/2-y,3/4+z
loop_
_atom_site_type_symbol
_atom_site_label
_atom_site_fract_x
_atom_site_fract_y
_atom_site_fract_z
Si Si1 0.705481 0.331262 0.933651
Si Si2 0.125000 0.311902 0.125000
Si Si3 0.897002 0.434349 0.009494
Si Si4 0.794610 0.613643 0.295953
Si Si5 0.579204 0.436381 0.279995
Si Si6 0.662666 0.545306 0.936408
Si Si7 0.625000 0.625000 0.625000
Si Si8 0.897389 0.266009 0.098097
O O1 0.668995 0.389854 0.937782
O O2 0.807438 0.337759 0.904180
O O3 0.622844 0.293177 0.912263
O O4 0.749534 0.312234 0.979012
O O5 0.139112 0.349375 0.086376
O O6 0.230504 0.278958 0.137551
O O7 0.875000 0.375000 0.016100
O O8 0.891379 0.458593 0.054945
O O9 0.791773 0.450087 0.983750
O O10 0.855813 0.588528 0.257719
O O11 0.763230 0.673219 0.294859
O O12 0.686600 0.581550 0.302996
O O13 0.618927 0.490177 0.296171
O O14 0.671950 0.537099 0.886835
#
# Coordination Sequence:
#
# PCOD9515778 Si02
#       8
#    32  16  32  32  32  32   8  32
#     4  11  24  40  64  96 131 179 214 275 336 401
#     4  10  22  40  63  95 128 179 211 282 350 382
#     4  10  22  40  61  93 130 169 213 269 334 399
#     4  10  22  40  64  89 129 167 220 277 324 399
#     4  11  21  42  64  92 130 170 217 267 338 401
#     4  10  24  40  63  98 122 175 226 268 336 389
#     4  12  20  44  62  86 140 164 226 272 340 394
#     4  11  23  41  67  94 139 170 224 281 333 412
#
# _framework density 20.452390999999999
#
# number of rings (size 3 to 8) (size 9 to 14) (size 15 to 20)
#    0.000    1.481    3.704    1.778    6.222    0.000 
#    2.667    0.000    0.000    7.556    0.000    0.000 
#    0.000    0.000    0.000    0.000    0.000    0.000 
#
# Total GULP energy -300989.205908 kJ/mol
# GULP energy per Si atom -5573.874183 kJ/mol
# Density = 2.040584 g / cm^3
# Si number density = 20.452391 Si / 1000 Ang^3
#
#
#
# Elastic Constant Matrix: (Units=GPa)
#
#
# Indices 1 2 3 4 5 6 
#
# 1 30.6405 31.5402 25.5770 0.0000 0.0000 0.0000
# 2 31.5402 90.4091 43.3909 0.0000 0.0000 0.0000
# 3 25.5770 43.3909 83.5886 0.0000 0.0000 0.0000
# 4 0.0000 0.0000 0.0000 100.7525 0.0000 0.0000
# 5 0.0000 0.0000 0.0000 0.0000 10.2499 0.0000
# 6 0.0000 0.0000 0.0000 0.0000 0.0000 10.8603
#
#
#
# Elastic Compliance Matrix: (Units=1/GPa)
#
#
# Indices 1 2 3 4 5 6 
#
# 1 0.055863 -0.015029 -0.009292 0.000000 0.000000 0.000000
# 2 -0.015029 0.018774 -0.005147 0.000000 0.000000 0.000000
# 3 -0.009292 -0.005147 0.017478 0.000000 0.000000 0.000000
# 4 0.000000 0.000000 0.000000 0.009925 0.000000 0.000000
# 5 0.000000 0.000000 0.000000 0.000000 0.097562 0.000000
# 6 0.000000 0.000000 0.000000 0.000000 0.000000 0.092079
#
#
# Mechanical properties :
#
#
# Convention : Reuss Voigt Hill
#
# Bulk Modulus (GPa) = 30.13862 45.07271 37.60566
# Shear Modulus (GPa) = 13.82450 31.31455 22.56953
#
# Velocity S-wave (km/s) = 2.60270 3.91717 3.32552
# Velocity P-wave (km/s) = 4.87853 6.52262 5.75954
#
# Compressibility (1/GPa) = 0.03318002
#
# Stress axis : x y z
#
# Youngs Moduli (GPa) = 17.90088 53.26498 57.21370
#
# Poissons Ratio (x) = 0.80052 0.53162
# Poissons Ratio (y) = 0.26903 0.29448
# Poissons Ratio (z) = 0.16633 0.27415
#
# Static dielectric constant tensor:
#      x y z
#    x 8.111120 0.000000 0.000000 
#    y 0.000000 1.767260 0.000000 
#    z 0.000000 0.000000 1.788110 
# 
# From -- ./inp_files/58790.got.cif
#   From: 2010.05.17/outbox.cif.g08.bks.cpg/sg70_30_cif.got.tgz:58790.got - 2010.06.03 15:57:51.
