data_PCOD9515819
_publ_section_title
;
Structure prediction by ZEFSAII (Michael W. Deem and Ramdas Pophale) SiO2 
 PCOD9515819
Probable space group: F D D D
;
_chemical_formula_sum "Si O2"
_cell_formula_units_Z 208
_cell_length_a 15.727321
_cell_length_b 23.447204
_cell_length_c 25.706556
_cell_angle_alpha 90.000000
_cell_angle_beta 90.000000
_cell_angle_gamma 90.000000
_cell_volume 9479.593391
_symmetry_space_group_name_H-M "F D D D"
_symmetry_group_IT_number 70
_space_group.IT_coordinate_system_code '2'
_symmetry_cell_setting 'orthorhombic'
loop_
_space_group_symop_operation_xyz
x,y,z
1/4-x,1/4-y,z
x,1/4-y,1/4-z
1/4-x,y,1/4-z
-x,-y,-z
3/4+x,3/4+y,-z
-x,3/4+y,3/4+z
3/4+x,-y,3/4+z
x,1/2+y,1/2+z
1/4-x,3/4-y,1/2+z
x,3/4-y,3/4-z
1/4-x,1/2+y,3/4-z
-x,1/2-y,1/2-z
3/4+x,1/4+y,1/2-z
-x,1/4+y,1/4+z
3/4+x,1/2-y,1/4+z
1/2+x,y,1/2+z
3/4-x,1/4-y,1/2+z
1/2+x,1/4-y,3/4-z
3/4-x,y,3/4-z
1/2-x,-y,1/2-z
1/4+x,3/4+y,1/2-z
1/2-x,3/4+y,1/4+z
1/4+x,-y,1/4+z
1/2+x,1/2+y,z
3/4-x,3/4-y,z
1/2+x,3/4-y,1/4-z
3/4-x,1/2+y,1/4-z
1/2-x,1/2-y,-z
1/4+x,1/4+y,-z
1/2-x,1/4+y,3/4+z
1/4+x,1/2-y,3/4+z
loop_
_atom_site_type_symbol
_atom_site_label
_atom_site_fract_x
_atom_site_fract_y
_atom_site_fract_z
Si Si1 0.001852 0.841062 0.284518
Si Si2 0.529966 0.554087 0.333134
Si Si3 0.375000 0.875000 0.875000
Si Si4 0.564018 0.030809 0.551234
Si Si5 0.907439 0.480384 0.054970
Si Si6 0.482281 0.718448 0.493499
Si Si7 0.625000 0.125000 0.625000
Si Si8 0.227449 0.573184 0.808049
O O1 0.939661 0.844238 0.334741
O O2 0.949552 0.808860 0.239433
O O3 0.078387 0.797681 0.296057
O O4 0.029265 0.903985 0.265116
O O5 0.542918 0.534933 0.392142
O O6 0.492801 0.506860 0.294235
O O7 0.627137 0.566928 0.316172
O O8 0.487716 0.616033 0.325414
O O9 0.574091 0.083959 0.587913
O O10 0.511241 0.057367 0.502754
O O11 0.650794 0.001251 0.530316
O O12 0.519802 0.981107 0.584005
O O13 0.807909 0.467230 0.048603
#
# Coordination Sequence:
#
# PCOD9515819 Si02
#       8
#    32  32   8  32  32  32   8  32
#     4  11  25  42  65  95 135 176 226 278 354 413
#     4  10  22  40  69  96 133 177 229 277 353 400
#     4  12  20  44  70  92 140 180 218 304 356 412
#     4  10  23  41  65  95 137 174 229 277 355 409
#     4  11  25  42  66  99 131 175 229 284 342 424
#     4  11  23  44  67  98 134 183 224 296 337 421
#     4  12  24  40  58 104 132 176 216 292 352 418
#     4   9  21  43  65  92 130 184 217 282 341 420
#
# _framework density 21.941869000000001
#
# number of rings (size 3 to 8) (size 9 to 14) (size 15 to 20)
#    0.000    1.538    1.538    2.769    8.615    0.000 
#    2.769    0.769    0.000    0.000    0.000    0.000 
#    0.000    0.000    0.000    0.000    0.000    0.000 
#
# Total GULP energy -290057.047518 kJ/mol
# GULP energy per Si atom -5578.020145 kJ/mol
# Density = 2.189193 g / cm^3
# Si number density = 21.941869 Si / 1000 Ang^3
#
#
#
# Elastic Constant Matrix: (Units=GPa)
#
#
# Indices 1 2 3 4 5 6 
#
# 1 24.6550 21.4953 4.2479 0.0000 0.0000 0.0000
# 2 21.4953 207.9880 48.2280 0.0000 0.0000 0.0000
# 3 4.2479 48.2280 102.9554 0.0000 0.0000 0.0000
# 4 0.0000 0.0000 0.0000 31.8069 0.0000 0.0000
# 5 0.0000 0.0000 0.0000 0.0000 34.2760 0.0000
# 6 0.0000 0.0000 0.0000 0.0000 0.0000 39.2055
#
#
#
# Elastic Compliance Matrix: (Units=1/GPa)
#
#
# Indices 1 2 3 4 5 6 
#
# 1 0.044588 -0.004691 0.000358 0.000000 0.000000 0.000000
# 2 -0.004691 0.005887 -0.002564 0.000000 0.000000 0.000000
# 3 0.000358 -0.002564 0.010899 0.000000 0.000000 0.000000
# 4 0.000000 0.000000 0.000000 0.031440 0.000000 0.000000
# 5 0.000000 0.000000 0.000000 0.000000 0.029175 0.000000
# 6 0.000000 0.000000 0.000000 0.000000 0.000000 0.025507
#
#
# Mechanical properties :
#
#
# Convention : Reuss Voigt Hill
#
# Bulk Modulus (GPa) = 21.01745 53.72675 37.37210
# Shear Modulus (GPa) = 28.22450 38.49948 33.36199
#
# Velocity S-wave (km/s) = 3.59044 4.19335 3.90355
# Velocity P-wave (km/s) = 5.17569 6.92710 6.11443
#
# Compressibility (1/GPa) = 0.04757952
#
# Stress axis : x y z
#
# Youngs Moduli (GPa) = 22.42760 169.85425 91.74814
#
# Poissons Ratio (x) = 0.79680 -0.03283
# Poissons Ratio (y) = 0.10521 0.23527
# Poissons Ratio (z) = -0.00802 0.43556
#
# Static dielectric constant tensor:
#      x y z
#    x 1.886030 0.000000 0.000000 
#    y 0.000000 1.918100 0.000000 
#    z 0.000000 0.000000 1.908960 
# 
# From -- ./inp_files/59741.got.cif
#   From: 2010.05.17/outbox.cif.g08.bks.cpg/sg70_30_cif.got.tgz:59741.got - 2010.06.03 15:57:51.
