data_PCOD9515572
_publ_section_title
;
Structure prediction by ZEFSAII (Michael W. Deem and Ramdas Pophale) SiO2 
 PCOD9515572
Probable space group: F D D D
;
_chemical_formula_sum "Si O2"
_cell_formula_units_Z 168
_cell_length_a 22.051468
_cell_length_b 14.198611
_cell_length_c 24.935715
_cell_angle_alpha 90.000000
_cell_angle_beta 90.000000
_cell_angle_gamma 90.000000
_cell_volume 7807.377755
_symmetry_space_group_name_H-M "F D D D"
_symmetry_group_IT_number 70
_space_group.IT_coordinate_system_code '2'
_symmetry_cell_setting 'orthorhombic'
loop_
_space_group_symop_operation_xyz
x,y,z
1/4-x,1/4-y,z
x,1/4-y,1/4-z
1/4-x,y,1/4-z
-x,-y,-z
3/4+x,3/4+y,-z
-x,3/4+y,3/4+z
3/4+x,-y,3/4+z
x,1/2+y,1/2+z
1/4-x,3/4-y,1/2+z
x,3/4-y,3/4-z
1/4-x,1/2+y,3/4-z
-x,1/2-y,1/2-z
3/4+x,1/4+y,1/2-z
-x,1/4+y,1/4+z
3/4+x,1/2-y,1/4+z
1/2+x,y,1/2+z
3/4-x,1/4-y,1/2+z
1/2+x,1/4-y,3/4-z
3/4-x,y,3/4-z
1/2-x,-y,1/2-z
1/4+x,3/4+y,1/2-z
1/2-x,3/4+y,1/4+z
1/4+x,-y,1/4+z
1/2+x,1/2+y,z
3/4-x,3/4-y,z
1/2+x,3/4-y,1/4-z
3/4-x,1/2+y,1/4-z
1/2-x,1/2-y,-z
1/4+x,1/4+y,-z
1/2-x,1/4+y,3/4+z
1/4+x,1/2-y,3/4+z
loop_
_atom_site_type_symbol
_atom_site_label
_atom_site_fract_x
_atom_site_fract_y
_atom_site_fract_z
Si Si1 0.845955 0.680722 0.677616
Si Si2 0.686267 0.640577 0.382332
Si Si3 0.123788 0.011273 0.215260
Si Si4 0.722501 0.514365 0.123864
Si Si5 0.235575 0.039984 0.691110
Si Si6 0.625000 0.125000 0.125000
O O1 0.870892 0.625000 0.625000
O O2 0.836472 0.790088 0.663793
O O3 0.879319 0.690508 0.734492
O O4 0.781144 0.629102 0.685771
O O5 0.625000 0.625000 0.417039
O O6 0.716609 0.543144 0.368433
O O7 0.738626 0.703796 0.406854
O O8 0.125000 0.125000 0.226362
O O9 0.176753 0.992688 0.172382
O O10 0.061442 0.992815 0.182345
O O11 0.733138 0.625000 0.125000
O O12 0.170651 0.068271 0.665502
O O13 0.250000 0.000000 0.750000
#
# Coordination Sequence:
#
# PCOD9515572 Si02
#       6
#    32  32  32  32  32   8
#     4  10  21  42  58  97 143 180 236 285 365 440
#     4  11  23  41  63  96 144 186 233 297 362 443
#     4   9  18  39  68  94 133 168 225 302 339 436
#     4   9  20  39  67 104 128 176 237 284 368 427
#     4  11  25  45  71 104 145 198 252 310 379 444
#     4  12  24  52  76 108 162 188 272 318 364 470
#
# _framework density 21.518107000000001
#
# number of rings (size 3 to 8) (size 9 to 14) (size 15 to 20)
#    0.000    1.905    2.857    2.857    1.333    5.333 
#    0.000   10.476    0.000    0.000    0.000    0.000 
#    0.000    0.000    0.000    0.000    0.000    0.000 
#
# Total GULP energy -233943.583079 kJ/mol
# GULP energy per Si atom -5570.085311 kJ/mol
# Density = 2.146913 g / cm^3
# Si number density = 21.518107 Si / 1000 Ang^3
#
#
#
# Elastic Constant Matrix: (Units=GPa)
#
#
# Indices 1 2 3 4 5 6 
#
# 1 127.5568 59.1247 40.7741 0.0000 0.0000 0.0000
# 2 59.1247 102.1863 47.1919 0.0000 0.0000 0.0000
# 3 40.7741 47.1919 134.6350 0.0000 0.0000 0.0000
# 4 0.0000 0.0000 0.0000 35.3405 0.0000 0.0000
# 5 0.0000 0.0000 0.0000 0.0000 -6.2091 0.0000
# 6 0.0000 0.0000 0.0000 0.0000 0.0000 45.9588
#
#
#
# Elastic Compliance Matrix: (Units=1/GPa)
#
#
# Indices 1 2 3 4 5 6 
#
# 1 0.010900 -0.005706 -0.001301 0.000000 0.000000 0.000000
# 2 -0.005706 0.014663 -0.003412 0.000000 0.000000 0.000000
# 3 -0.001301 -0.003412 0.009017 0.000000 0.000000 0.000000
# 4 0.000000 0.000000 0.000000 0.028296 0.000000 0.000000
# 5 0.000000 0.000000 0.000000 0.000000 -0.161054 0.000000
# 6 0.000000 0.000000 0.000000 0.000000 0.000000 0.021759
#
#
# Mechanical properties :
#
#
# Convention : Reuss Voigt Hill
#
# Bulk Modulus (GPa) = 72.76255 73.17329 72.96792
# Shear Modulus (GPa) = -98.03989 29.50386 -34.26802
#
# Velocity S-wave (km/s) = -6.75725 3.70688 -3.99497
# Velocity P-wave (km/s) = 5.19545 7.23882 3.56426
#
# Compressibility (1/GPa) = 0.01374333
#
# Stress axis : x y z
#
# Youngs Moduli (GPa) = 91.73974 68.19838 110.89724
#
# Poissons Ratio (x) = 0.38914 0.14429
# Poissons Ratio (y) = 0.52347 0.37834
# Poissons Ratio (z) = 0.11936 0.23267
#
# Static dielectric constant tensor:
#      x y z
#    x 1.838440 0.000000 0.000000 
#    y 0.000000 1.828800 0.000000 
#    z 0.000000 0.000000 2.097940 
# 
# From -- ./inp_files/60300.got.cif
#   From: 2010.05.17/outbox.cif.g08.bks.cpg/sg70_31_cif.got.tgz:60300.got - 2010.06.03 15:57:51.
