data_PCOD9515005
_publ_section_title
;
Structure prediction by ZEFSAII (Michael W. Deem and Ramdas Pophale) SiO2 
 PCOD9515005
Probable space group: F D D D
;
_chemical_formula_sum "Si O2"
_cell_formula_units_Z 192
_cell_length_a 16.479979
_cell_length_b 27.300318
_cell_length_c 21.806629
_cell_angle_alpha 90.000000
_cell_angle_beta 90.000000
_cell_angle_gamma 90.000000
_cell_volume 9810.991392
_symmetry_space_group_name_H-M "F D D D"
_symmetry_group_IT_number 70
_space_group.IT_coordinate_system_code '2'
_symmetry_cell_setting 'orthorhombic'
loop_
_space_group_symop_operation_xyz
x,y,z
1/4-x,1/4-y,z
x,1/4-y,1/4-z
1/4-x,y,1/4-z
-x,-y,-z
3/4+x,3/4+y,-z
-x,3/4+y,3/4+z
3/4+x,-y,3/4+z
x,1/2+y,1/2+z
1/4-x,3/4-y,1/2+z
x,3/4-y,3/4-z
1/4-x,1/2+y,3/4-z
-x,1/2-y,1/2-z
3/4+x,1/4+y,1/2-z
-x,1/4+y,1/4+z
3/4+x,1/2-y,1/4+z
1/2+x,y,1/2+z
3/4-x,1/4-y,1/2+z
1/2+x,1/4-y,3/4-z
3/4-x,y,3/4-z
1/2-x,-y,1/2-z
1/4+x,3/4+y,1/2-z
1/2-x,3/4+y,1/4+z
1/4+x,-y,1/4+z
1/2+x,1/2+y,z
3/4-x,3/4-y,z
1/2+x,3/4-y,1/4-z
3/4-x,1/2+y,1/4-z
1/2-x,1/2-y,-z
1/4+x,1/4+y,-z
1/2-x,1/4+y,3/4+z
1/4+x,1/2-y,3/4+z
loop_
_atom_site_type_symbol
_atom_site_label
_atom_site_fract_x
_atom_site_fract_y
_atom_site_fract_z
Si Si1 0.160868 0.918728 0.216892
Si Si2 0.916293 0.425742 0.593091
Si Si3 0.004165 0.228655 0.938788
Si Si4 0.421628 0.175614 0.097592
Si Si5 0.125000 0.836995 0.125000
Si Si6 0.959776 0.232589 0.078547
Si Si7 0.875000 0.494610 0.375000
O O1 0.256837 0.914511 0.200951
O O2 0.133647 0.918696 0.286783
O O3 0.115927 0.874330 0.181872
O O4 0.135788 0.969397 0.183543
O O5 0.875000 0.375000 0.613293
O O6 0.845310 0.456674 0.560299
O O7 0.947075 0.461344 0.647644
O O8 0.010441 0.284856 0.918823
O O9 0.951082 0.196825 0.891768
O O10 0.968065 0.226909 0.006456
O O11 0.451893 0.125000 0.125000
O O12 0.364294 0.201039 0.147527
O O13 0.042899 0.215875 0.111900
#
# Coordination Sequence:
#
# PCOD9515005 Si02
#       7
#    32  32  32  32  16  32  16
#     4  10  20  38  64  89 124 163 205 257 322 372
#     4  10  21  38  64  93 122 163 210 260 311 388
#     4  11  23  41  63  89 129 162 216 259 307 380
#     4  11  24  40  59  91 131 165 206 264 316 371
#     4  11  22  40  67  88 116 170 213 254 307 372
#     4  10  22  38  61  94 126 162 206 255 320 376
#     4   9  18  34  63  90 118 164 195 246 321 378
#
# _framework density 19.569887999999999
#
# number of rings (size 3 to 8) (size 9 to 14) (size 15 to 20)
#    0.000    1.667    3.333    1.000    2.333    2.000 
#    0.000   10.000    0.000    0.000    0.000    0.000 
#    0.000    0.000    0.000    0.000    0.000    0.000 
#
# Total GULP energy -268018.394929 kJ/mol
# GULP energy per Si atom -5583.716561 kJ/mol
# Density = 1.952535 g / cm^3
# Si number density = 19.569888 Si / 1000 Ang^3
#
#
#
# Elastic Constant Matrix: (Units=GPa)
#
#
# Indices 1 2 3 4 5 6 
#
# 1 51.4595 10.0193 36.2380 0.0000 0.0000 0.0000
# 2 10.0193 81.2932 33.7168 0.0000 0.0000 0.0000
# 3 36.2380 33.7168 101.5595 0.0000 0.0000 0.0000
# 4 0.0000 0.0000 0.0000 11.9822 0.0000 0.0000
# 5 0.0000 0.0000 0.0000 0.0000 20.2852 0.0000
# 6 0.0000 0.0000 0.0000 0.0000 0.0000 16.9600
#
#
#
# Elastic Compliance Matrix: (Units=1/GPa)
#
#
# Indices 1 2 3 4 5 6 
#
# 1 0.025993 0.000746 -0.009522 0.000000 0.000000 0.000000
# 2 0.000746 0.014287 -0.005009 0.000000 0.000000 0.000000
# 3 -0.009522 -0.005009 0.014907 0.000000 0.000000 0.000000
# 4 0.000000 0.000000 0.000000 0.083457 0.000000 0.000000
# 5 0.000000 0.000000 0.000000 0.000000 0.049297 0.000000
# 6 0.000000 0.000000 0.000000 0.000000 0.000000 0.058962
#
#
# Mechanical properties :
#
#
# Convention : Reuss Voigt Hill
#
# Bulk Modulus (GPa) = 36.21130 43.80672 40.00901
# Shear Modulus (GPa) = 17.62547 20.13469 18.88008
#
# Velocity S-wave (km/s) = 3.00433 3.21107 3.10941
# Velocity P-wave (km/s) = 5.52977 6.01509 5.77753
#
# Compressibility (1/GPa) = 0.02761569
#
# Stress axis : x y z
#
# Youngs Moduli (GPa) = 38.47153 69.99451 67.08167
#
# Poissons Ratio (x) = -0.05220 0.63878
# Poissons Ratio (y) = -0.02869 0.33603
# Poissons Ratio (z) = 0.36634 0.35062
#
# Static dielectric constant tensor:
#      x y z
#    x 1.702290 0.000000 0.000000 
#    y 0.000000 1.721520 0.000000 
#    z 0.000000 0.000000 1.662550 
# 
# From -- ./inp_files/35532.got.cif
#   From: 2010.05.17/outbox.cif.g08.bks.cpg/sg70_18_cif.got.tgz:35532.got - 2010.06.03 15:57:51.
