data_PCOD9515906
_publ_section_title
;
Structure prediction by ZEFSAII (Michael W. Deem and Ramdas Pophale) SiO2 
 PCOD9515906
Probable space group: F D D D
;
_chemical_formula_sum "Si O2"
_cell_formula_units_Z 160
_cell_length_a 29.466329
_cell_length_b 28.063868
_cell_length_c 8.504829
_cell_angle_alpha 90.000000
_cell_angle_beta 90.000000
_cell_angle_gamma 90.000000
_cell_volume 7032.976213
_symmetry_space_group_name_H-M "F D D D"
_symmetry_group_IT_number 70
_space_group.IT_coordinate_system_code '2'
_symmetry_cell_setting 'orthorhombic'
loop_
_space_group_symop_operation_xyz
x,y,z
1/4-x,1/4-y,z
x,1/4-y,1/4-z
1/4-x,y,1/4-z
-x,-y,-z
3/4+x,3/4+y,-z
-x,3/4+y,3/4+z
3/4+x,-y,3/4+z
x,1/2+y,1/2+z
1/4-x,3/4-y,1/2+z
x,3/4-y,3/4-z
1/4-x,1/2+y,3/4-z
-x,1/2-y,1/2-z
3/4+x,1/4+y,1/2-z
-x,1/4+y,1/4+z
3/4+x,1/2-y,1/4+z
1/2+x,y,1/2+z
3/4-x,1/4-y,1/2+z
1/2+x,1/4-y,3/4-z
3/4-x,y,3/4-z
1/2-x,-y,1/2-z
1/4+x,3/4+y,1/2-z
1/2-x,3/4+y,1/4+z
1/4+x,-y,1/4+z
1/2+x,1/2+y,z
3/4-x,3/4-y,z
1/2+x,3/4-y,1/4-z
3/4-x,1/2+y,1/4-z
1/2-x,1/2-y,-z
1/4+x,1/4+y,-z
1/2-x,1/4+y,3/4+z
1/4+x,1/2-y,3/4+z
loop_
_atom_site_type_symbol
_atom_site_label
_atom_site_fract_x
_atom_site_fract_y
_atom_site_fract_z
Si Si1 0.494582 0.855034 0.124215
Si Si2 0.125000 0.125000 0.625000
Si Si3 0.930973 0.125000 0.125000
Si Si4 0.125000 0.125000 0.125000
Si Si5 0.517291 0.450794 0.426613
Si Si6 0.878052 0.708838 0.067413
Si Si7 0.405010 0.936318 0.603791
O O1 0.536909 0.855792 0.239160
O O2 0.500339 0.906407 0.036827
O O3 0.449819 0.838083 0.220562
O O4 0.498281 0.813722 0.993929
O O5 0.153986 0.089355 0.520804
O O6 0.898395 0.081563 0.162844
O O7 0.112374 0.084997 0.256841
O O8 0.500000 0.500000 0.500000
O O9 0.570981 0.456645 0.387013
O O10 0.852063 0.758176 0.101382
O O11 0.875000 0.701292 0.875000
#
# Coordination Sequence:
#
# PCOD9515906 Si02
#       7
#    32   8  16   8  32  32  32
#     4  11  26  47  72 112 150 202 256 318 393 466
#     4  10  24  42  66 108 148 200 232 308 388 464
#     4  12  27  48  77 105 158 200 263 321 384 477
#     4  10  22  42  68 100 160 196 236 322 388 458
#     4  11  27  47  74 107 157 199 255 324 395 476
#     4  12  27  49  78 112 150 209 265 320 398 472
#     4  11  25  44  73 108 150 193 254 311 387 465
#
# _framework density 22.749970000000001
#
# number of rings (size 3 to 8) (size 9 to 14) (size 15 to 20)
#    0.000    0.800    3.000    3.000   11.200    2.400 
#    0.000    0.000    0.000    0.000    0.000    0.000 
#    0.000    0.000    0.000    0.000    0.000    0.000 
#
# Total GULP energy -222747.726608 kJ/mol
# GULP energy per Si atom -5568.693165 kJ/mol
# Density = 2.269819 g / cm^3
# Si number density = 22.749970 Si / 1000 Ang^3
#
#
#
# Elastic Constant Matrix: (Units=GPa)
#
#
# Indices 1 2 3 4 5 6 
#
# 1 167.3200 66.6202 37.4531 -0.0374 0.0027 0.0196
# 2 66.6202 164.0498 21.7926 -0.0431 0.0258 0.0271
# 3 37.4531 21.7926 63.3880 -0.0523 0.0248 0.0230
# 4 -0.0374 -0.0431 -0.0523 27.3661 0.0242 0.0375
# 5 0.0027 0.0258 0.0248 0.0242 34.0029 -0.0011
# 6 0.0196 0.0271 0.0230 0.0375 -0.0011 33.0108
#
#
#
# Elastic Compliance Matrix: (Units=1/GPa)
#
#
# Indices 1 2 3 4 5 6 
#
# 1 0.007890 -0.002709 -0.003731 -0.000001 0.000004 0.000000
# 2 -0.002709 0.007317 -0.000915 0.000006 -0.000005 -0.000004
# 3 -0.003731 -0.000915 0.018295 0.000028 -0.000012 -0.000010
# 4 -0.000001 0.000006 0.000028 0.036542 -0.000026 -0.000041
# 5 0.000004 -0.000005 -0.000012 -0.000026 0.029409 0.000001
# 6 0.000000 -0.000004 -0.000010 -0.000041 0.000001 0.030293
#
#
# Mechanical properties :
#
#
# Convention : Reuss Voigt Hill
#
# Bulk Modulus (GPa) = 53.21097 71.83218 62.52157
# Shear Modulus (GPa) = 33.17415 36.80209 34.98812
#
# Velocity S-wave (km/s) = 3.82279 4.02640 3.92591
# Velocity P-wave (km/s) = 6.55173 7.29788 6.93485
#
# Compressibility (1/GPa) = 0.01879312
#
# Stress axis : x y z
#
# Youngs Moduli (GPa) = 126.74114 136.66359 54.66020
#
# Poissons Ratio (x) = 0.37016 0.20392
# Poissons Ratio (y) = 0.34329 0.05003
# Poissons Ratio (z) = 0.47283 0.12508
#
# Static dielectric constant tensor:
#      x y z
#    x 10.762650 0.000240 -0.000380 
#    y 0.000240 1.865050 0.000020 
#    z -0.000380 0.000020 1.932050 
# 
# From -- ./inp_files/12413.got.cif
#   From: 2010.05.17/outbox.cif.g08.bks.cpg/sg70_7_cif.got.tgz:12413.got - 2010.06.03 15:57:51.
