data_PCOD9515942
_publ_section_title
;
Structure prediction by ZEFSAII (Michael W. Deem and Ramdas Pophale) SiO2 
 PCOD9515942
Probable space group: F D D D
;
_chemical_formula_sum "Si O2"
_cell_formula_units_Z 240
_cell_length_a 21.584842
_cell_length_b 27.937622
_cell_length_c 19.687391
_cell_angle_alpha 90.000000
_cell_angle_beta 90.000000
_cell_angle_gamma 90.000000
_cell_volume 11872.070793
_symmetry_space_group_name_H-M "F D D D"
_symmetry_group_IT_number 70
_space_group.IT_coordinate_system_code '2'
_symmetry_cell_setting 'orthorhombic'
loop_
_space_group_symop_operation_xyz
x,y,z
1/4-x,1/4-y,z
x,1/4-y,1/4-z
1/4-x,y,1/4-z
-x,-y,-z
3/4+x,3/4+y,-z
-x,3/4+y,3/4+z
3/4+x,-y,3/4+z
x,1/2+y,1/2+z
1/4-x,3/4-y,1/2+z
x,3/4-y,3/4-z
1/4-x,1/2+y,3/4-z
-x,1/2-y,1/2-z
3/4+x,1/4+y,1/2-z
-x,1/4+y,1/4+z
3/4+x,1/2-y,1/4+z
1/2+x,y,1/2+z
3/4-x,1/4-y,1/2+z
1/2+x,1/4-y,3/4-z
3/4-x,y,3/4-z
1/2-x,-y,1/2-z
1/4+x,3/4+y,1/2-z
1/2-x,3/4+y,1/4+z
1/4+x,-y,1/4+z
1/2+x,1/2+y,z
3/4-x,3/4-y,z
1/2+x,3/4-y,1/4-z
3/4-x,1/2+y,1/4-z
1/2-x,1/2-y,-z
1/4+x,1/4+y,-z
1/2-x,1/4+y,3/4+z
1/4+x,1/2-y,3/4+z
loop_
_atom_site_type_symbol
_atom_site_label
_atom_site_fract_x
_atom_site_fract_y
_atom_site_fract_z
Si Si1 0.967485 0.549972 0.012371
Si Si2 0.903979 0.721899 0.588460
Si Si3 0.301182 0.082707 0.882608
Si Si4 0.632107 0.044464 0.452784
Si Si5 0.000858 0.748499 0.017812
Si Si6 0.056443 0.680109 0.114486
Si Si7 0.962111 0.125000 0.125000
Si Si8 0.528761 0.615051 0.980835
O O1 0.896106 0.542082 0.031449
O O2 0.003120 0.563859 0.079898
O O3 0.974618 0.580940 0.944286
O O4 0.000000 0.500000 0.000000
O O5 0.879263 0.766394 0.632477
O O6 0.965992 0.737910 0.551111
O O7 0.920415 0.672999 0.627828
O O8 0.375000 0.081699 0.875000
O O9 0.276891 0.127378 0.927199
O O10 0.276293 0.035467 0.923345
O O11 0.566180 0.065046 0.478268
O O12 0.674414 0.092396 0.456974
O O13 0.677430 0.006289 0.489651
O O14 0.026289 0.698136 0.044702
O O15 0.067464 0.625000 0.125000
O O16 0.125000 0.703835 0.125000
O O17 0.003480 0.124640 0.193541
#
# Coordination Sequence:
#
# PCOD9515942 Si02
#       8
#    32  32  32  32  32  32  16  32
#     4  12  21  36  64  92 127 185 221 268 337 401
#     4  12  24  40  70 102 135 186 234 294 346 420
#     4  11  19  37  64  94 128 173 233 273 330 415
#     4  10  22  43  67  97 137 167 233 288 350 414
#     4  11  20  41  63  96 134 178 227 277 337 410
#     4  11  24  38  58  96 141 178 221 274 327 410
#     4  12  24  45  74 100 135 182 238 286 364 420
#     4  10  23  44  69 101 132 180 228 292 350 427
#
# _framework density 20.215513000000001
#
# number of rings (size 3 to 8) (size 9 to 14) (size 15 to 20)
#    0.000    0.933    6.667    2.000    0.933    2.667 
#    0.000    5.333    0.000    0.000    0.000    0.000 
#    0.000    0.000    0.000    0.000    0.000    0.000 
#
# Total GULP energy -334038.587948 kJ/mol
# GULP energy per Si atom -5567.309799 kJ/mol
# Density = 2.016950 g / cm^3
# Si number density = 20.215513 Si / 1000 Ang^3
#
#
#
# Elastic Constant Matrix: (Units=GPa)
#
#
# Indices 1 2 3 4 5 6 
#
# 1 72.6011 19.8871 26.6865 0.0000 0.0000 0.0000
# 2 19.8871 66.4257 16.2689 0.0000 0.0000 0.0000
# 3 26.6865 16.2689 84.1189 0.0000 0.0000 0.0000
# 4 0.0000 0.0000 0.0000 4.0799 0.0000 0.0000
# 5 0.0000 0.0000 0.0000 0.0000 28.4035 0.0000
# 6 0.0000 0.0000 0.0000 0.0000 0.0000 44.5351
#
#
#
# Elastic Compliance Matrix: (Units=1/GPa)
#
#
# Indices 1 2 3 4 5 6 
#
# 1 0.016472 -0.003833 -0.004484 0.000000 0.000000 0.000000
# 2 -0.003833 0.016695 -0.002013 0.000000 0.000000 0.000000
# 3 -0.004484 -0.002013 0.013700 0.000000 0.000000 0.000000
# 4 0.000000 0.000000 0.000000 0.245104 0.000000 0.000000
# 5 0.000000 0.000000 0.000000 0.000000 0.035207 0.000000
# 6 0.000000 0.000000 0.000000 0.000000 0.000000 0.022454
#
#
# Mechanical properties :
#
#
# Convention : Reuss Voigt Hill
#
# Bulk Modulus (GPa) = 38.15888 38.75897 38.45892
# Shear Modulus (GPa) = 13.19160 26.09059 19.64110
#
# Velocity S-wave (km/s) = 2.55727 3.59642 3.12041
# Velocity P-wave (km/s) = 5.25705 6.03823 5.66113
#
# Compressibility (1/GPa) = 0.02620622
#
# Stress axis : x y z
#
# Youngs Moduli (GPa) = 60.70802 59.89807 72.99335
#
# Poissons Ratio (x) = 0.22961 0.32733
# Poissons Ratio (y) = 0.23271 0.14692
# Poissons Ratio (z) = 0.27224 0.12056
#
# Static dielectric constant tensor:
#      x y z
#    x 1.719990 0.000000 0.000000 
#    y 0.000000 1.768290 0.000000 
#    z 0.000000 0.000000 1.690890 
# 
# From -- ./inp_files/45278.got.cif
#   From: 2010.05.17/outbox.cif.g08.bks.cpg/sg70_23_cif.got.tgz:45278.got - 2010.06.03 15:57:51.
