data_PCOD9515344
_publ_section_title
;
Structure prediction by ZEFSAII (Michael W. Deem and Ramdas Pophale) SiO2 
 PCOD9515344
Probable space group: F D D D
;
_chemical_formula_sum "Si O2"
_cell_formula_units_Z 216
_cell_length_a 12.036330
_cell_length_b 29.973379
_cell_length_c 29.090363
_cell_angle_alpha 90.000000
_cell_angle_beta 90.000000
_cell_angle_gamma 90.000000
_cell_volume 10494.915158
_symmetry_space_group_name_H-M "F D D D"
_symmetry_group_IT_number 70
_space_group.IT_coordinate_system_code '2'
_symmetry_cell_setting 'orthorhombic'
loop_
_space_group_symop_operation_xyz
x,y,z
1/4-x,1/4-y,z
x,1/4-y,1/4-z
1/4-x,y,1/4-z
-x,-y,-z
3/4+x,3/4+y,-z
-x,3/4+y,3/4+z
3/4+x,-y,3/4+z
x,1/2+y,1/2+z
1/4-x,3/4-y,1/2+z
x,3/4-y,3/4-z
1/4-x,1/2+y,3/4-z
-x,1/2-y,1/2-z
3/4+x,1/4+y,1/2-z
-x,1/4+y,1/4+z
3/4+x,1/2-y,1/4+z
1/2+x,y,1/2+z
3/4-x,1/4-y,1/2+z
1/2+x,1/4-y,3/4-z
3/4-x,y,3/4-z
1/2-x,-y,1/2-z
1/4+x,3/4+y,1/2-z
1/2-x,3/4+y,1/4+z
1/4+x,-y,1/4+z
1/2+x,1/2+y,z
3/4-x,3/4-y,z
1/2+x,3/4-y,1/4-z
3/4-x,1/2+y,1/4-z
1/2-x,1/2-y,-z
1/4+x,1/4+y,-z
1/2-x,1/4+y,3/4+z
1/4+x,1/2-y,3/4+z
loop_
_atom_site_type_symbol
_atom_site_label
_atom_site_fract_x
_atom_site_fract_y
_atom_site_fract_z
Si Si1 0.625000 0.853628 0.125000
Si Si2 0.601104 0.548409 0.487367
Si Si3 0.560561 0.077782 0.168122
Si Si4 0.369078 0.058222 0.020900
Si Si5 0.979745 0.841956 0.059945
Si Si6 0.159185 0.043260 0.384017
Si Si7 0.625000 0.125000 0.625000
Si Si8 0.072902 0.812937 0.873712
O O1 0.662728 0.884329 0.082448
O O2 0.729820 0.821481 0.128306
O O3 0.679379 0.557382 0.531188
O O4 0.488629 0.573840 0.502565
O O5 0.607488 0.494682 0.481798
O O6 0.622409 0.559642 0.434537
O O7 0.625000 0.125000 0.170654
O O8 0.625000 0.053535 0.125000
O O9 0.432839 0.077878 0.153260
O O10 0.342295 0.073626 0.072226
O O11 0.270082 0.070875 0.987271
O O12 0.875000 0.875000 0.052764
O O13 0.933957 0.806974 0.097206
O O14 0.184496 0.990966 0.375707
O O15 0.714962 0.160846 0.604863
#
# Coordination Sequence:
#
# PCOD9515344 Si02
#       8
#    16  32  32  32  32  32   8  32
#     4  10  21  40  60  93 126 159 214 258 315 384
#     4  10  21  37  63  90 125 162 211 263 330 381
#     4  11  22  39  60  93 128 164 210 277 328 380
#     4  10  21  38  59  94 123 165 209 264 319 397
#     4  10  21  37  63  90 129 166 206 266 324 379
#     4  10  22  42  64  95 126 172 213 266 325 396
#     4  12  26  44  66  92 124 192 212 270 318 372
#     4  11  24  43  65  89 132 169 226 263 322 392
#
# _framework density 20.581396000000002
#
# number of rings (size 3 to 8) (size 9 to 14) (size 15 to 20)
#    0.000    1.630    1.481    3.111    1.037    2.963 
#    2.667    0.000    0.000    7.111    0.000    0.000 
#    0.000    0.000    0.000    0.000    0.000    0.000 
#
# Total GULP energy -300750.711536 kJ/mol
# GULP energy per Si atom -5569.457621 kJ/mol
# Density = 2.053455 g / cm^3
# Si number density = 20.581396 Si / 1000 Ang^3
#
#
#
# Elastic Constant Matrix: (Units=GPa)
#
#
# Indices 1 2 3 4 5 6 
#
# 1 112.9057 17.8145 33.9698 0.0000 0.0000 0.0000
# 2 17.8145 47.2159 8.2206 0.0000 0.0000 0.0000
# 3 33.9698 8.2206 107.7404 0.0000 0.0000 0.0000
# 4 0.0000 0.0000 0.0000 15.0251 0.0000 0.0000
# 5 0.0000 0.0000 0.0000 0.0000 56.5302 0.0000
# 6 0.0000 0.0000 0.0000 0.0000 0.0000 31.6064
#
#
#
# Elastic Compliance Matrix: (Units=1/GPa)
#
#
# Indices 1 2 3 4 5 6 
#
# 1 0.010286 -0.003361 -0.002987 0.000000 0.000000 0.000000
# 2 -0.003361 0.022563 -0.000662 0.000000 0.000000 0.000000
# 3 -0.002987 -0.000662 0.010274 0.000000 0.000000 0.000000
# 4 0.000000 0.000000 0.000000 0.066555 0.000000 0.000000
# 5 0.000000 0.000000 0.000000 0.000000 0.017690 0.000000
# 6 0.000000 0.000000 0.000000 0.000000 0.000000 0.031639
#
#
# Mechanical properties :
#
#
# Convention : Reuss Voigt Hill
#
# Bulk Modulus (GPa) = 34.36018 43.09689 38.72853
# Shear Modulus (GPa) = 27.36336 34.48947 30.92641
#
# Velocity S-wave (km/s) = 3.65021 4.09804 3.88059
# Velocity P-wave (km/s) = 5.87337 6.58613 6.23993
#
# Compressibility (1/GPa) = 0.02910346
#
# Stress axis : x y z
#
# Youngs Moduli (GPa) = 97.22134 44.32117 97.33567
#
# Poissons Ratio (x) = 0.14896 0.29070
# Poissons Ratio (y) = 0.32674 0.06442
# Poissons Ratio (z) = 0.29036 0.02934
#
# Static dielectric constant tensor:
#      x y z
#    x 1.771150 0.000000 0.000000 
#    y 0.000000 1.796790 0.000000 
#    z 0.000000 0.000000 1.673040 
# 
# From -- ./inp_files/65170.got.cif
#   From: 2010.05.17/outbox.cif.g08.bks.cpg/sg70_33_cif.got.tgz:65170.got - 2010.06.03 15:57:51.
