data_PCOD9515873
_publ_section_title
;
Structure prediction by ZEFSAII (Michael W. Deem and Ramdas Pophale) SiO2 
 PCOD9515873
Probable space group: F D D D
;
_chemical_formula_sum "Si O2"
_cell_formula_units_Z 80
_cell_length_a 30.431568
_cell_length_b 9.074786
_cell_length_c 12.219465
_cell_angle_alpha 90.000000
_cell_angle_beta 90.000000
_cell_angle_gamma 90.000000
_cell_volume 3374.527054
_symmetry_space_group_name_H-M "F D D D"
_symmetry_group_IT_number 70
_space_group.IT_coordinate_system_code '2'
_symmetry_cell_setting 'orthorhombic'
loop_
_space_group_symop_operation_xyz
x,y,z
1/4-x,1/4-y,z
x,1/4-y,1/4-z
1/4-x,y,1/4-z
-x,-y,-z
3/4+x,3/4+y,-z
-x,3/4+y,3/4+z
3/4+x,-y,3/4+z
x,1/2+y,1/2+z
1/4-x,3/4-y,1/2+z
x,3/4-y,3/4-z
1/4-x,1/2+y,3/4-z
-x,1/2-y,1/2-z
3/4+x,1/4+y,1/2-z
-x,1/4+y,1/4+z
3/4+x,1/2-y,1/4+z
1/2+x,y,1/2+z
3/4-x,1/4-y,1/2+z
1/2+x,1/4-y,3/4-z
3/4-x,y,3/4-z
1/2-x,-y,1/2-z
1/4+x,3/4+y,1/2-z
1/2-x,3/4+y,1/4+z
1/4+x,-y,1/4+z
1/2+x,1/2+y,z
3/4-x,3/4-y,z
1/2+x,3/4-y,1/4-z
3/4-x,1/2+y,1/4-z
1/2-x,1/2-y,-z
1/4+x,1/4+y,-z
1/2-x,1/4+y,3/4+z
1/4+x,1/2-y,3/4+z
loop_
_atom_site_type_symbol
_atom_site_label
_atom_site_fract_x
_atom_site_fract_y
_atom_site_fract_z
Si Si1 0.399914 0.031760 0.027398
Si Si2 0.997204 0.375000 0.375000
Si Si3 0.059730 0.895565 0.694297
O O1 0.421380 0.125000 0.125000
O O2 0.375000 0.875000 0.048100
O O3 0.431479 0.025108 0.921685
O O4 0.357924 0.129908 0.992849
O O5 0.964773 0.257023 0.323709
O O6 0.028775 0.288369 0.460587
#
# Coordination Sequence:
#
# PCOD9515873 Si02
#       3
#    32  16  32
#     4  11  25  44  70  98 135 183 234 284 332 415
#     4  10  22  41  70 104 138 182 214 292 340 419
#     4  10  22  42  68  98 142 172 230 273 348 402
#
# _framework density 23.707025999999999
#
# number of rings (size 3 to 8) (size 9 to 14) (size 15 to 20)
#    0.000    1.600    2.000    2.400    5.600    1.600 
#    0.000   14.000    0.000    0.000    0.000    0.000 
#    0.000    0.000    0.000    0.000    0.000    0.000 
#
# Total GULP energy -111484.312025 kJ/mol
# GULP energy per Si atom -5574.215601 kJ/mol
# Density = 2.365307 g / cm^3
# Si number density = 23.707026 Si / 1000 Ang^3
#
#
#
# Elastic Constant Matrix: (Units=GPa)
#
#
# Indices 1 2 3 4 5 6 
#
# 1 86.6399 26.9364 25.3770 0.0000 0.0000 0.0000
# 2 26.9364 54.5369 41.0655 0.0000 0.0000 0.0000
# 3 25.3770 41.0655 130.9691 0.0000 0.0000 0.0000
# 4 0.0000 0.0000 0.0000 24.8665 0.0000 0.0000
# 5 0.0000 0.0000 0.0000 0.0000 -6.3956 0.0000
# 6 0.0000 0.0000 0.0000 0.0000 0.0000 12.1656
#
#
#
# Elastic Compliance Matrix: (Units=1/GPa)
#
#
# Indices 1 2 3 4 5 6 
#
# 1 0.013684 -0.006234 -0.000697 0.000000 0.000000 0.000000
# 2 -0.006234 0.026843 -0.007209 0.000000 0.000000 0.000000
# 3 -0.000697 -0.007209 0.010031 0.000000 0.000000 0.000000
# 4 0.000000 0.000000 0.000000 0.040215 0.000000 0.000000
# 5 0.000000 0.000000 0.000000 0.000000 -0.156358 0.000000
# 6 0.000000 0.000000 0.000000 0.000000 0.000000 0.082199
#
#
# Mechanical properties :
#
#
# Convention : Reuss Voigt Hill
#
# Bulk Modulus (GPa) = 44.88548 50.98932 47.93740
# Shear Modulus (GPa) = 95.56551 18.04510 56.80530
#
# Velocity S-wave (km/s) = 6.35599 2.76193 4.90035
# Velocity P-wave (km/s) = 8.53459 5.63256 7.23067
#
# Compressibility (1/GPa) = 0.02227892
#
# Stress axis : x y z
#
# Youngs Moduli (GPa) = 73.07631 37.25297 99.69352
#
# Poissons Ratio (x) = 0.23224 0.06946
# Poissons Ratio (y) = 0.45557 0.71868
# Poissons Ratio (z) = 0.05092 0.26855
#
# Static dielectric constant tensor:
#      x y z
#    x 1.811150 0.000000 0.000000 
#    y 0.000000 1.928030 0.000000 
#    z 0.000000 0.000000 2.134160 
# 
# From -- ./inp_files/13786.got.cif
#   From: 2010.05.17/outbox.cif.g08.bks.cpg/sg70_7_cif.got.tgz:13786.got - 2010.06.03 15:57:51.
