data_PCOD9515440
_publ_section_title
;
Structure prediction by ZEFSAII (Michael W. Deem and Ramdas Pophale) SiO2 
 PCOD9515440
Probable space group: F D D D
;
_chemical_formula_sum "Si O2"
_cell_formula_units_Z 176
_cell_length_a 28.199290
_cell_length_b 22.295297
_cell_length_c 11.174059
_cell_angle_alpha 90.000000
_cell_angle_beta 90.000000
_cell_angle_gamma 90.000000
_cell_volume 7025.259906
_symmetry_space_group_name_H-M "F D D D"
_symmetry_group_IT_number 70
_space_group.IT_coordinate_system_code '2'
_symmetry_cell_setting 'orthorhombic'
loop_
_space_group_symop_operation_xyz
x,y,z
1/4-x,1/4-y,z
x,1/4-y,1/4-z
1/4-x,y,1/4-z
-x,-y,-z
3/4+x,3/4+y,-z
-x,3/4+y,3/4+z
3/4+x,-y,3/4+z
x,1/2+y,1/2+z
1/4-x,3/4-y,1/2+z
x,3/4-y,3/4-z
1/4-x,1/2+y,3/4-z
-x,1/2-y,1/2-z
3/4+x,1/4+y,1/2-z
-x,1/4+y,1/4+z
3/4+x,1/2-y,1/4+z
1/2+x,y,1/2+z
3/4-x,1/4-y,1/2+z
1/2+x,1/4-y,3/4-z
3/4-x,y,3/4-z
1/2-x,-y,1/2-z
1/4+x,3/4+y,1/2-z
1/2-x,3/4+y,1/4+z
1/4+x,-y,1/4+z
1/2+x,1/2+y,z
3/4-x,3/4-y,z
1/2+x,3/4-y,1/4-z
3/4-x,1/2+y,1/4-z
1/2-x,1/2-y,-z
1/4+x,1/4+y,-z
1/2-x,1/4+y,3/4+z
1/4+x,1/2-y,3/4+z
loop_
_atom_site_type_symbol
_atom_site_label
_atom_site_fract_x
_atom_site_fract_y
_atom_site_fract_z
Si Si1 0.761834 0.904332 0.264038
Si Si2 0.643256 0.191525 0.426078
Si Si3 0.456429 0.096880 0.444618
Si Si4 0.962280 0.718769 0.562523
Si Si5 0.200966 0.994977 0.894956
Si Si6 0.625000 0.997111 0.625000
O O1 0.787934 0.875000 0.375000
O O2 0.745381 0.862902 0.155441
O O3 0.794129 0.955708 0.209122
O O4 0.715400 0.934455 0.327369
O O5 0.625000 0.125000 0.398066
O O6 0.676518 0.226024 0.333841
O O7 0.600481 0.241581 0.450778
O O8 0.660297 0.199138 0.560714
O O9 0.439488 0.162490 0.490784
O O10 0.474848 0.060395 0.559625
O O11 0.416551 0.055722 0.389520
O O12 0.007329 0.739423 0.486710
#
# Coordination Sequence:
#
# PCOD9515440 Si02
#       6
#    32  32  32  32  32  16
#     4  10  21  39  64  95 129 172 232 293 347 424
#     4  11  24  43  65 100 147 187 228 293 367 443
#     4   9  19  39  69  99 130 172 241 302 345 412
#     4   9  21  43  69 103 132 179 245 291 359 436
#     4  10  23  42  67  97 134 185 232 289 363 433
#     4  10  21  40  62 102 131 182 230 292 356 412
#
# _framework density 25.052455999999999
#
# number of rings (size 3 to 8) (size 9 to 14) (size 15 to 20)
#    0.000    2.182    0.000    1.364    5.091    0.000 
#   13.091    2.727    0.000    0.000    0.000    0.000 
#    0.000    0.000    0.000    0.000    0.000    0.000 
#
# Total GULP energy -245348.387813 kJ/mol
# GULP energy per Si atom -5576.099723 kJ/mol
# Density = 2.499544 g / cm^3
# Si number density = 25.052456 Si / 1000 Ang^3
#
#
#
# Elastic Constant Matrix: (Units=GPa)
#
#
# Indices 1 2 3 4 5 6 
#
# 1 73.8358 51.9814 14.0492 0.0000 0.0000 0.0000
# 2 51.9814 190.9691 61.0296 0.0000 0.0000 0.0000
# 3 14.0492 61.0296 113.2868 0.0000 0.0000 0.0000
# 4 0.0000 0.0000 0.0000 18.7658 0.0000 0.0000
# 5 0.0000 0.0000 0.0000 0.0000 15.2524 0.0000
# 6 0.0000 0.0000 0.0000 0.0000 0.0000 37.3241
#
#
#
# Elastic Compliance Matrix: (Units=1/GPa)
#
#
# Indices 1 2 3 4 5 6 
#
# 1 0.016774 -0.004712 0.000458 0.000000 0.000000 0.000000
# 2 -0.004712 0.007649 -0.003536 0.000000 0.000000 0.000000
# 3 0.000458 -0.003536 0.010675 0.000000 0.000000 0.000000
# 4 0.000000 0.000000 0.000000 0.053288 0.000000 0.000000
# 5 0.000000 0.000000 0.000000 0.000000 0.065564 0.000000
# 6 0.000000 0.000000 0.000000 0.000000 0.000000 0.026792
#
#
# Mechanical properties :
#
#
# Convention : Reuss Voigt Hill
#
# Bulk Modulus (GPa) = 51.23486 70.24578 60.74032
# Shear Modulus (GPa) = 24.65123 31.00388 27.82755
#
# Velocity S-wave (km/s) = 3.14026 3.52171 3.33644
# Velocity P-wave (km/s) = 5.80032 6.68109 6.25622
#
# Compressibility (1/GPa) = 0.01951796
#
# Stress axis : x y z
#
# Youngs Moduli (GPa) = 59.61654 130.73109 93.67301
#
# Poissons Ratio (x) = 0.61604 -0.04294
# Poissons Ratio (y) = 0.28093 0.33127
# Poissons Ratio (z) = -0.02733 0.46232
#
# Static dielectric constant tensor:
#      x y z
#    x 1.983520 0.000000 0.000000 
#    y 0.000000 2.043100 0.000000 
#    z 0.000000 0.000000 1.750090 
# 
# From -- ./inp_files/22304.got.cif
#   From: 2010.05.17/outbox.cif.g08.bks.cpg/sg70_12_cif.got.tgz:22304.got - 2010.06.03 15:57:51.
