data_PCOD9515900
_publ_section_title
;
Structure prediction by ZEFSAII (Michael W. Deem and Ramdas Pophale) SiO2 
 PCOD9515900
Probable space group: F D D D
;
_chemical_formula_sum "Si O2"
_cell_formula_units_Z 120
_cell_length_a 18.719020
_cell_length_b 18.246502
_cell_length_c 16.337902
_cell_angle_alpha 90.000000
_cell_angle_beta 90.000000
_cell_angle_gamma 90.000000
_cell_volume 5580.318844
_symmetry_space_group_name_H-M "F D D D"
_symmetry_group_IT_number 70
_space_group.IT_coordinate_system_code '2'
_symmetry_cell_setting 'orthorhombic'
loop_
_space_group_symop_operation_xyz
x,y,z
1/4-x,1/4-y,z
x,1/4-y,1/4-z
1/4-x,y,1/4-z
-x,-y,-z
3/4+x,3/4+y,-z
-x,3/4+y,3/4+z
3/4+x,-y,3/4+z
x,1/2+y,1/2+z
1/4-x,3/4-y,1/2+z
x,3/4-y,3/4-z
1/4-x,1/2+y,3/4-z
-x,1/2-y,1/2-z
3/4+x,1/4+y,1/2-z
-x,1/4+y,1/4+z
3/4+x,1/2-y,1/4+z
1/2+x,y,1/2+z
3/4-x,1/4-y,1/2+z
1/2+x,1/4-y,3/4-z
3/4-x,y,3/4-z
1/2-x,-y,1/2-z
1/4+x,3/4+y,1/2-z
1/2-x,3/4+y,1/4+z
1/4+x,-y,1/4+z
1/2+x,1/2+y,z
3/4-x,3/4-y,z
1/2+x,3/4-y,1/4-z
3/4-x,1/2+y,1/4-z
1/2-x,1/2-y,-z
1/4+x,1/4+y,-z
1/2-x,1/4+y,3/4+z
1/4+x,1/2-y,3/4+z
loop_
_atom_site_type_symbol
_atom_site_label
_atom_site_fract_x
_atom_site_fract_y
_atom_site_fract_z
Si Si1 0.875000 0.246321 0.375000
Si Si2 0.873819 0.625000 0.125000
Si Si3 0.245875 0.017082 0.655462
Si Si4 0.875000 0.375000 0.493773
Si Si5 0.970303 0.124629 0.956516
Si Si6 0.375000 0.375000 0.375000
O O1 0.900699 0.304085 0.442718
O O2 0.934137 0.191548 0.342223
O O3 0.930387 0.693686 0.124805
O O4 0.823258 0.629588 0.206547
O O5 0.180439 0.072258 0.665746
O O6 0.250000 0.000000 0.750000
O O7 0.222640 0.950316 0.595739
O O8 0.803014 0.351769 0.536958
#
# Coordination Sequence:
#
# PCOD9515900 Si02
#       6
#    16  16  32  16  32   8
#     4  11  23  44  67  95 134 172 220 281 341 412
#     4  11  24  42  68 101 138 180 232 291 352 414
#     4  11  24  43  70 102 137 184 233 287 351 421
#     4  11  26  43  68  99 132 175 224 279 346 422
#     4  12  25  45  69  98 136 180 229 286 350 422
#     4  10  22  42  66 100 140 174 232 290 338 412
#
# _framework density 21.504147
#
# number of rings (size 3 to 8) (size 9 to 14) (size 15 to 20)
#    0.000    0.800    0.000    8.000    0.000    5.333 
#    0.000    0.000    0.000    1.600    0.000    0.000 
#    0.000    0.000    0.000    0.000    0.000    0.000 
#
# Total GULP energy -167134.949072 kJ/mol
# GULP energy per Si atom -5571.164969 kJ/mol
# Density = 2.145520 g / cm^3
# Si number density = 21.504147 Si / 1000 Ang^3
#
#
#
# Elastic Constant Matrix: (Units=GPa)
#
#
# Indices 1 2 3 4 5 6 
#
# 1 181.3459 65.4309 79.0410 0.0000 0.0000 0.0000
# 2 65.4309 144.8224 83.8137 0.0000 0.0000 0.0000
# 3 79.0410 83.8137 134.4870 0.0000 0.0000 0.0000
# 4 0.0000 0.0000 0.0000 20.1577 0.0000 0.0000
# 5 0.0000 0.0000 0.0000 0.0000 -30.2104 0.0000
# 6 0.0000 0.0000 0.0000 0.0000 0.0000 1.3117
#
#
#
# Elastic Compliance Matrix: (Units=1/GPa)
#
#
# Indices 1 2 3 4 5 6 
#
# 1 0.007572 -0.001323 -0.003626 0.000000 0.000000 0.000000
# 2 -0.001323 0.011031 -0.006098 0.000000 0.000000 0.000000
# 3 -0.003626 -0.006098 0.013367 0.000000 0.000000 0.000000
# 4 0.000000 0.000000 0.000000 0.049609 0.000000 0.000000
# 5 0.000000 0.000000 0.000000 0.000000 -0.033101 0.000000
# 6 0.000000 0.000000 0.000000 0.000000 0.000000 0.762375
#
#
# Mechanical properties :
#
#
# Convention : Reuss Voigt Hill
#
# Bulk Modulus (GPa) = 101.23576 101.91406 101.57491
# Shear Modulus (GPa) = 5.97916 13.74311 9.86114
#
# Velocity S-wave (km/s) = 1.66928 2.53077 2.14375
# Velocity P-wave (km/s) = 7.13406 7.48568 7.31198
#
# Compressibility (1/GPa) = 0.00987793
#
# Stress axis : x y z
#
# Youngs Moduli (GPa) = 132.06718 90.65006 74.81203
#
# Poissons Ratio (x) = 0.11989 0.27127
# Poissons Ratio (y) = 0.17466 0.45618
# Poissons Ratio (z) = 0.47887 0.55275
#
# Static dielectric constant tensor:
#      x y z
#    x 1.814370 0.000000 0.000000 
#    y 0.000000 1.732320 0.000000 
#    z 0.000000 0.000000 1.798290 
# 
# From -- ./inp_files/34523.got.cif
#   From: 2010.05.17/outbox.cif.g08.bks.cpg/sg70_18_cif.got.tgz:34523.got - 2010.06.03 15:57:51.
