data_PCOD9515172
_publ_section_title
;
Structure prediction by ZEFSAII (Michael W. Deem and Ramdas Pophale) SiO2 
 PCOD9515172
Probable space group: F D D D
;
_chemical_formula_sum "Si O2"
_cell_formula_units_Z 176
_cell_length_a 26.141946
_cell_length_b 24.765016
_cell_length_c 12.236405
_cell_angle_alpha 90.000000
_cell_angle_beta 90.000000
_cell_angle_gamma 90.000000
_cell_volume 7921.918479
_symmetry_space_group_name_H-M "F D D D"
_symmetry_group_IT_number 70
_space_group.IT_coordinate_system_code '2'
_symmetry_cell_setting 'orthorhombic'
loop_
_space_group_symop_operation_xyz
x,y,z
1/4-x,1/4-y,z
x,1/4-y,1/4-z
1/4-x,y,1/4-z
-x,-y,-z
3/4+x,3/4+y,-z
-x,3/4+y,3/4+z
3/4+x,-y,3/4+z
x,1/2+y,1/2+z
1/4-x,3/4-y,1/2+z
x,3/4-y,3/4-z
1/4-x,1/2+y,3/4-z
-x,1/2-y,1/2-z
3/4+x,1/4+y,1/2-z
-x,1/4+y,1/4+z
3/4+x,1/2-y,1/4+z
1/2+x,y,1/2+z
3/4-x,1/4-y,1/2+z
1/2+x,1/4-y,3/4-z
3/4-x,y,3/4-z
1/2-x,-y,1/2-z
1/4+x,3/4+y,1/2-z
1/2-x,3/4+y,1/4+z
1/4+x,-y,1/4+z
1/2+x,1/2+y,z
3/4-x,3/4-y,z
1/2+x,3/4-y,1/4-z
3/4-x,1/2+y,1/4-z
1/2-x,1/2-y,-z
1/4+x,1/4+y,-z
1/2-x,1/4+y,3/4+z
1/4+x,1/2-y,3/4+z
loop_
_atom_site_type_symbol
_atom_site_label
_atom_site_fract_x
_atom_site_fract_y
_atom_site_fract_z
Si Si1 0.010131 0.902284 0.157434
Si Si2 0.811873 0.125000 0.125000
Si Si3 0.895912 0.435370 0.606470
Si Si4 0.871878 0.532085 0.007071
Si Si5 0.197973 0.001336 0.176842
Si Si6 0.239914 0.825629 0.287845
O O1 0.025915 0.897064 0.280687
O O2 0.953873 0.927438 0.149726
O O3 0.055427 0.939048 0.104583
O O4 0.006335 0.849350 0.083142
O O5 0.844940 0.171639 0.066075
O O6 0.875000 0.375000 0.588253
O O7 0.866069 0.473034 0.692553
O O8 0.903998 0.470096 0.495554
O O9 0.813891 0.545425 0.043530
O O10 0.875000 0.533717 0.875000
O O11 0.214276 0.036473 0.072410
O O12 0.250000 0.000000 0.250000
O O13 0.241201 0.875000 0.375000
#
# Coordination Sequence:
#
# PCOD9515172 Si02
#       6
#    32  16  32  32  32  32
#     4  11  24  45  68 102 141 184 230 288 359 422
#     4  12  28  42  69 108 138 186 241 292 342 434
#     4  11  25  47  70 103 145 186 235 296 357 419
#     4  12  25  43  69 104 138 185 242 292 351 419
#     4  10  20  41  71  98 130 181 229 283 356 411
#     4  12  19  40  74  98 137 178 228 291 358 414
#
# _framework density 22.216840000000001
#
# number of rings (size 3 to 8) (size 9 to 14) (size 15 to 20)
#    0.000    0.727   10.000    0.000    0.000    3.273 
#    0.000    8.182    0.000    0.000    0.000    0.000 
#    0.000    0.000    0.000    0.000    0.000    0.000 
#
# Total GULP energy -245917.708203 kJ/mol
# GULP energy per Si atom -5589.038823 kJ/mol
# Density = 2.216627 g / cm^3
# Si number density = 22.216840 Si / 1000 Ang^3
#
#
#
# Elastic Constant Matrix: (Units=GPa)
#
#
# Indices 1 2 3 4 5 6 
#
# 1 72.4080 19.8986 26.4133 0.0000 0.0000 0.0000
# 2 19.8986 95.9149 38.0588 0.0000 0.0000 0.0000
# 3 26.4133 38.0588 141.7507 0.0000 0.0000 0.0000
# 4 0.0000 0.0000 0.0000 0.0435 0.0000 0.0000
# 5 0.0000 0.0000 0.0000 0.0000 21.7666 0.0000
# 6 0.0000 0.0000 0.0000 0.0000 0.0000 19.5178
#
#
#
# Elastic Compliance Matrix: (Units=1/GPa)
#
#
# Indices 1 2 3 4 5 6 
#
# 1 0.015250 -0.002279 -0.002230 0.000000 0.000000 0.000000
# 2 -0.002279 0.012010 -0.002800 0.000001 0.000000 0.000000
# 3 -0.002230 -0.002800 0.008222 -0.000004 0.000000 0.000000
# 4 0.000000 0.000001 -0.000004 22.967908 0.000007 0.000005
# 5 0.000000 0.000000 0.000000 0.000007 0.045942 0.000000
# 6 0.000000 0.000000 0.000000 0.000005 0.000000 0.051235
#
#
# Mechanical properties :
#
#
# Convention : Reuss Voigt Hill
#
# Bulk Modulus (GPa) = 47.92826 53.20168 50.56497
# Shear Modulus (GPa) = 0.21624 23.31245 11.76435
#
# Velocity S-wave (km/s) = 0.31232 3.24283 2.30364
# Velocity P-wave (km/s) = 4.66367 6.16602 5.46670
#
# Compressibility (1/GPa) = 0.02086452
#
# Stress axis : x y z
#
# Youngs Moduli (GPa) = 65.57235 83.26606 121.62700
#
# Poissons Ratio (x) = 0.18977 0.27120
# Poissons Ratio (y) = 0.14944 0.34053
# Poissons Ratio (z) = 0.14621 0.23313
#
# Static dielectric constant tensor:
#      x y z
#    x 1.840010 0.000000 0.000000 
#    y 0.000000 1.902630 0.000000 
#    z 0.000000 0.000000 1.780180 
# 
# From -- ./inp_files/22461.got.cif
#   From: 2010.05.17/outbox.cif.g08.bks.cpg/sg70_12_cif.got.tgz:22461.got - 2010.06.03 15:57:51.
