data_PCOD9515457
_publ_section_title
;
Structure prediction by ZEFSAII (Michael W. Deem and Ramdas Pophale) SiO2 
 PCOD9515457
Probable space group: F D D D
;
_chemical_formula_sum "Si O2"
_cell_formula_units_Z 112
_cell_length_a 14.509600
_cell_length_b 10.397198
_cell_length_c 33.296572
_cell_angle_alpha 90.000000
_cell_angle_beta 90.000000
_cell_angle_gamma 90.000000
_cell_volume 5023.093685
_symmetry_space_group_name_H-M "F D D D"
_symmetry_group_IT_number 70
_space_group.IT_coordinate_system_code '2'
_symmetry_cell_setting 'orthorhombic'
loop_
_space_group_symop_operation_xyz
x,y,z
1/4-x,1/4-y,z
x,1/4-y,1/4-z
1/4-x,y,1/4-z
-x,-y,-z
3/4+x,3/4+y,-z
-x,3/4+y,3/4+z
3/4+x,-y,3/4+z
x,1/2+y,1/2+z
1/4-x,3/4-y,1/2+z
x,3/4-y,3/4-z
1/4-x,1/2+y,3/4-z
-x,1/2-y,1/2-z
3/4+x,1/4+y,1/2-z
-x,1/4+y,1/4+z
3/4+x,1/2-y,1/4+z
1/2+x,y,1/2+z
3/4-x,1/4-y,1/2+z
1/2+x,1/4-y,3/4-z
3/4-x,y,3/4-z
1/2-x,-y,1/2-z
1/4+x,3/4+y,1/2-z
1/2-x,3/4+y,1/4+z
1/4+x,-y,1/4+z
1/2+x,1/2+y,z
3/4-x,3/4-y,z
1/2+x,3/4-y,1/4-z
3/4-x,1/2+y,1/4-z
1/2-x,1/2-y,-z
1/4+x,1/4+y,-z
1/2-x,1/4+y,3/4+z
1/4+x,1/2-y,3/4+z
loop_
_atom_site_type_symbol
_atom_site_label
_atom_site_fract_x
_atom_site_fract_y
_atom_site_fract_z
Si Si1 0.855050 0.549968 0.055062
Si Si2 0.253163 0.678333 0.448130
Si Si3 0.551966 0.950604 0.741641
Si Si4 0.875000 0.875000 0.122078
O O1 0.787715 0.444858 0.035545
O O2 0.876606 0.498308 0.098873
O O3 0.713879 0.580431 0.981826
O O4 0.935837 0.591008 0.025054
O O5 0.359080 0.697110 0.461947
O O6 0.044642 0.431954 0.445603
O O7 0.216183 0.621087 0.406071
#
# Coordination Sequence:
#
# PCOD9515457 Si02
#       4
#    32  32  32  16
#     4  11  21  39  59  93 117 164 200 258 301 379
#     4  11  20  38  63  94 117 162 198 268 297 375
#     4  10  21  39  70  87 119 157 221 246 309 362
#     4  12  26  32  56  88 134 156 198 254 334 350
#
# _framework density 22.297015999999999
#
# number of rings (size 3 to 8) (size 9 to 14) (size 15 to 20)
#    0.000    1.143    2.857    6.857    0.000    2.286 
#    0.000    2.857    0.000    0.000    7.429    0.000 
#    0.000    0.000    0.000    0.000    0.000    0.000 
#
# Total GULP energy -156208.515293 kJ/mol
# GULP energy per Si atom -5578.875546 kJ/mol
# Density = 2.224627 g / cm^3
# Si number density = 22.297016 Si / 1000 Ang^3
#
#
#
# Elastic Constant Matrix: (Units=GPa)
#
#
# Indices 1 2 3 4 5 6 
#
# 1 117.7318 51.4398 68.1982 0.0000 0.0000 0.0000
# 2 51.4398 117.7560 65.1694 0.0000 0.0000 0.0000
# 3 68.1982 65.1694 191.8803 0.0000 0.0000 0.0000
# 4 0.0000 0.0000 0.0000 68.8488 0.0000 0.0000
# 5 0.0000 0.0000 0.0000 0.0000 34.4246 0.0000
# 6 0.0000 0.0000 0.0000 0.0000 0.0000 29.4837
#
#
#
# Elastic Compliance Matrix: (Units=1/GPa)
#
#
# Indices 1 2 3 4 5 6 
#
# 1 0.011747 -0.003474 -0.002995 0.000000 0.000000 0.000000
# 2 -0.003474 0.011485 -0.002666 0.000000 0.000000 0.000000
# 3 -0.002995 -0.002666 0.007182 0.000000 0.000000 0.000000
# 4 0.000000 0.000000 0.000000 0.014525 0.000000 0.000000
# 5 0.000000 0.000000 0.000000 0.000000 0.029049 0.000000
# 6 0.000000 0.000000 0.000000 0.000000 0.000000 0.033917
#
#
# Mechanical properties :
#
#
# Convention : Reuss Voigt Hill
#
# Bulk Modulus (GPa) = 82.34980 88.55364 85.45172
# Shear Modulus (GPa) = 38.39601 42.72212 40.55906
#
# Velocity S-wave (km/s) = 4.15423 4.38202 4.26964
# Velocity P-wave (km/s) = 7.74748 8.08730 7.91921
#
# Compressibility (1/GPa) = 0.01214332
#
# Stress axis : x y z
#
# Youngs Moduli (GPa) = 85.13064 87.06954 139.24387
#
# Poissons Ratio (x) = 0.30245 0.41706
# Poissons Ratio (y) = 0.29572 0.37124
# Poissons Ratio (z) = 0.25498 0.23214
#
# Static dielectric constant tensor:
#      x y z
#    x 1.867240 0.000000 0.000000 
#    y 0.000000 1.959480 0.000000 
#    z 0.000000 0.000000 1.833020 
# 
# From -- ./inp_files/66430.got.cif
#   From: 2010.05.17/outbox.cif.g08.bks.cpg/sg70_34_cif.got.tgz:66430.got - 2010.06.03 15:57:51.
