data_PCOD9515792
_publ_section_title
;
Structure prediction by ZEFSAII (Michael W. Deem and Ramdas Pophale) SiO2 
 PCOD9515792
Probable space group: F D D D
;
_chemical_formula_sum "Si O2"
_cell_formula_units_Z 160
_cell_length_a 31.404397
_cell_length_b 23.844733
_cell_length_c 10.441970
_cell_angle_alpha 90.000000
_cell_angle_beta 90.000000
_cell_angle_gamma 90.000000
_cell_volume 7819.254772
_symmetry_space_group_name_H-M "F D D D"
_symmetry_group_IT_number 70
_space_group.IT_coordinate_system_code '2'
_symmetry_cell_setting 'orthorhombic'
loop_
_space_group_symop_operation_xyz
x,y,z
1/4-x,1/4-y,z
x,1/4-y,1/4-z
1/4-x,y,1/4-z
-x,-y,-z
3/4+x,3/4+y,-z
-x,3/4+y,3/4+z
3/4+x,-y,3/4+z
x,1/2+y,1/2+z
1/4-x,3/4-y,1/2+z
x,3/4-y,3/4-z
1/4-x,1/2+y,3/4-z
-x,1/2-y,1/2-z
3/4+x,1/4+y,1/2-z
-x,1/4+y,1/4+z
3/4+x,1/2-y,1/4+z
1/2+x,y,1/2+z
3/4-x,1/4-y,1/2+z
1/2+x,1/4-y,3/4-z
3/4-x,y,3/4-z
1/2-x,-y,1/2-z
1/4+x,3/4+y,1/2-z
1/2-x,3/4+y,1/4+z
1/4+x,-y,1/4+z
1/2+x,1/2+y,z
3/4-x,3/4-y,z
1/2+x,3/4-y,1/4-z
3/4-x,1/2+y,1/4-z
1/2-x,1/2-y,-z
1/4+x,1/4+y,-z
1/2-x,1/4+y,3/4+z
1/4+x,1/2-y,3/4+z
loop_
_atom_site_type_symbol
_atom_site_label
_atom_site_fract_x
_atom_site_fract_y
_atom_site_fract_z
Si Si1 0.312203 0.983856 0.172523
Si Si2 0.855549 0.767511 0.513904
Si Si3 0.785330 0.066662 0.163259
Si Si4 0.228370 0.024055 0.059959
Si Si5 0.542018 0.642530 0.844805
O O1 0.305635 0.982284 0.325419
O O2 0.299827 0.922852 0.114244
O O3 0.275202 0.024462 0.120874
O O4 0.358631 0.998022 0.118528
O O5 0.875000 0.771451 0.375000
O O6 0.817466 0.722422 0.509202
O O7 0.834737 0.826465 0.551430
O O8 0.807054 0.125000 0.125000
O O9 0.744434 0.087257 0.244867
O O10 0.774327 0.027711 0.040916
O O11 0.220225 0.079788 0.979764
#
# Coordination Sequence:
#
# PCOD9515792 Si02
#       5
#    32  32  32  32  32
#     4  11  22  40  63  96 126 164 214 267 325 381
#     4  11  24  40  62  97 128 159 217 281 317 383
#     4  11  22  42  63  89 126 179 215 255 330 402
#     4  10  22  40  63  90 129 167 211 261 319 398
#     4  11  22  39  68  89 124 169 214 264 326 390
#
# _framework density 20.462308
#
# number of rings (size 3 to 8) (size 9 to 14) (size 15 to 20)
#    0.000    1.200    2.000    6.000    0.000    4.000 
#    3.600    6.000    0.000    0.000    0.000    0.000 
#    0.000    0.000    0.000    0.000    0.000    0.000 
#
# Total GULP energy -223535.476693 kJ/mol
# GULP energy per Si atom -5588.386917 kJ/mol
# Density = 2.041574 g / cm^3
# Si number density = 20.462308 Si / 1000 Ang^3
#
#
#
# Elastic Constant Matrix: (Units=GPa)
#
#
# Indices 1 2 3 4 5 6 
#
# 1 62.4493 -1.8580 32.0992 0.0001 0.0000 -0.0001
# 2 -1.8580 36.9103 -15.1237 0.0007 0.0000 0.0000
# 3 32.0992 -15.1237 94.1070 0.0011 0.0000 0.0000
# 4 0.0001 0.0007 0.0011 7.0508 0.0000 0.0000
# 5 0.0000 0.0000 0.0000 0.0000 36.1164 0.0000
# 6 -0.0001 0.0000 0.0000 0.0000 0.0000 28.0163
#
#
#
# Elastic Compliance Matrix: (Units=1/GPa)
#
#
# Indices 1 2 3 4 5 6 
#
# 1 0.019537 -0.001870 -0.006965 0.000001 0.000000 0.000000
# 2 -0.001870 0.029181 0.005328 -0.000003 0.000000 0.000000
# 3 -0.006965 0.005328 0.013858 -0.000002 0.000000 0.000000
# 4 0.000001 -0.000003 -0.000002 0.141827 0.000000 0.000000
# 5 0.000000 0.000000 0.000000 0.000000 0.027688 0.000000
# 6 0.000000 0.000000 0.000000 0.000000 0.000000 0.035693
#
#
# Mechanical properties :
#
#
# Convention : Reuss Voigt Hill
#
# Bulk Modulus (GPa) = 17.99779 24.85572 21.42675
# Shear Modulus (GPa) = 17.04621 26.12667 21.58644
#
# Velocity S-wave (km/s) = 2.88940 3.57714 3.25150
# Velocity P-wave (km/s) = 4.46611 5.40691 4.95887
#
# Compressibility (1/GPa) = 0.05556237
#
# Stress axis : x y z
#
# Youngs Moduli (GPa) = 51.18458 34.26829 72.16083
#
# Poissons Ratio (x) = 0.06409 0.50257
# Poissons Ratio (y) = 0.09572 -0.38444
# Poissons Ratio (z) = 0.35648 -0.18257
#
# Static dielectric constant tensor:
#      x y z
#    x 1.734430 0.000000 0.000000 
#    y 0.000000 1.704320 0.000000 
#    z 0.000000 0.000000 1.761710 
# 
# From -- ./inp_files/20858.got.cif
#   From: 2010.05.17/outbox.cif.g08.bks.cpg/sg70_11_cif.got.tgz:20858.got - 2010.06.03 15:57:51.
