data_PCOD9515774
_publ_section_title
;
Structure prediction by ZEFSAII (Michael W. Deem and Ramdas Pophale) SiO2 
 PCOD9515774
Probable space group: F D D D
;
_chemical_formula_sum "Si O2"
_cell_formula_units_Z 96
_cell_length_a 7.143949
_cell_length_b 27.537357
_cell_length_c 25.874629
_cell_angle_alpha 90.000000
_cell_angle_beta 90.000000
_cell_angle_gamma 90.000000
_cell_volume 5090.198655
_symmetry_space_group_name_H-M "F D D D"
_symmetry_group_IT_number 70
_space_group.IT_coordinate_system_code '2'
_symmetry_cell_setting 'orthorhombic'
loop_
_space_group_symop_operation_xyz
x,y,z
1/4-x,1/4-y,z
x,1/4-y,1/4-z
1/4-x,y,1/4-z
-x,-y,-z
3/4+x,3/4+y,-z
-x,3/4+y,3/4+z
3/4+x,-y,3/4+z
x,1/2+y,1/2+z
1/4-x,3/4-y,1/2+z
x,3/4-y,3/4-z
1/4-x,1/2+y,3/4-z
-x,1/2-y,1/2-z
3/4+x,1/4+y,1/2-z
-x,1/4+y,1/4+z
3/4+x,1/2-y,1/4+z
1/2+x,y,1/2+z
3/4-x,1/4-y,1/2+z
1/2+x,1/4-y,3/4-z
3/4-x,y,3/4-z
1/2-x,-y,1/2-z
1/4+x,3/4+y,1/2-z
1/2-x,3/4+y,1/4+z
1/4+x,-y,1/4+z
1/2+x,1/2+y,z
3/4-x,3/4-y,z
1/2+x,3/4-y,1/4-z
3/4-x,1/2+y,1/4-z
1/2-x,1/2-y,-z
1/4+x,1/4+y,-z
1/2-x,1/4+y,3/4+z
1/4+x,1/2-y,3/4+z
loop_
_atom_site_type_symbol
_atom_site_label
_atom_site_fract_x
_atom_site_fract_y
_atom_site_fract_z
Si Si1 0.654696 0.180375 0.876290
Si Si2 0.299429 0.485398 0.524306
Si Si3 0.209809 0.572408 0.756796
O O1 0.625000 0.125000 0.895188
O O2 0.576245 0.217905 0.917283
O O3 0.571982 0.183062 0.818833
O O4 0.875000 0.188494 0.875000
O O5 0.500000 0.500000 0.500000
O O6 0.166880 0.531952 0.520128
O O7 0.177269 0.441858 0.497457
O O8 0.125000 0.625000 0.743433
#
# Coordination Sequence:
#
# PCOD9515774 Si02
#       3
#    32  32  32
#     4  11  20  36  60  90 120 153 196 250 297 352
#     4  11  22  35  58  92 120 154 196 249 305 355
#     4  10  22  40  60  88 120 157 200 251 297 356
#
# _framework density 18.859774000000002
#
# number of rings (size 3 to 8) (size 9 to 14) (size 15 to 20)
#    0.000    1.333    3.333    5.000    0.000    0.000 
#    0.000    0.000    0.000   16.000    8.667    0.000 
#    0.000    0.000    0.000    0.000    0.000    0.000 
#
# Total GULP energy -133881.076318 kJ/mol
# GULP energy per Si atom -5578.378180 kJ/mol
# Density = 1.881685 g / cm^3
# Si number density = 18.859774 Si / 1000 Ang^3
#
#
#
# Elastic Constant Matrix: (Units=GPa)
#
#
# Indices 1 2 3 4 5 6 
#
# 1 152.6459 43.9376 10.1163 0.0000 0.0000 0.0000
# 2 43.9376 134.4312 53.6782 0.0000 0.0000 0.0000
# 3 10.1163 53.6782 56.4774 0.0000 0.0000 0.0000
# 4 0.0000 0.0000 0.0000 40.9386 0.0000 0.0000
# 5 0.0000 0.0000 0.0000 0.0000 949.0080 0.0000
# 6 0.0000 0.0000 0.0000 0.0000 0.0000 29.7136
#
#
#
# Elastic Compliance Matrix: (Units=1/GPa)
#
#
# Indices 1 2 3 4 5 6 
#
# 1 0.007315 -0.003010 0.001550 0.000000 0.000000 0.000000
# 2 -0.003010 0.013227 -0.012032 0.000000 0.000000 0.000000
# 3 0.001550 -0.012032 0.028864 0.000000 0.000000 0.000000
# 4 0.000000 0.000000 0.000000 0.024427 0.000000 0.000000
# 5 0.000000 0.000000 0.000000 0.000000 0.001054 0.000000
# 6 0.000000 0.000000 0.000000 0.000000 0.000000 0.033655
#
#
# Mechanical properties :
#
#
# Convention : Reuss Voigt Hill
#
# Bulk Modulus (GPa) = 44.59763 62.11320 53.35542
# Shear Modulus (GPa) = 34.96535 219.65354 127.30945
#
# Velocity S-wave (km/s) = 4.31044 10.80368 8.22494
# Velocity P-wave (km/s) = 6.96215 13.73433 10.88814
#
# Compressibility (1/GPa) = 0.02242272
#
# Stress axis : x y z
#
# Youngs Moduli (GPa) = 136.71089 75.60327 34.64482
#
# Poissons Ratio (x) = 0.22755 -0.05371
# Poissons Ratio (y) = 0.41148 0.41685
# Poissons Ratio (z) = -0.21196 0.90968
#
# Static dielectric constant tensor:
#      x y z
#    x 1.721710 0.000000 0.000000 
#    y 0.000000 1.687050 0.000000 
#    z 0.000000 0.000000 1.638970 
# 
# From -- ./inp_files/10522.got.cif
#   From: 2010.05.17/outbox.cif.g08.bks.cpg/sg70_6_cif.got.tgz:10522.got - 2010.06.03 15:57:51.
