data_PCOD9515343
_publ_section_title
;
Structure prediction by ZEFSAII (Michael W. Deem and Ramdas Pophale) SiO2 
 PCOD9515343
Probable space group: F D D D
;
_chemical_formula_sum "Si O2"
_cell_formula_units_Z 160
_cell_length_a 9.665321
_cell_length_b 29.541399
_cell_length_c 24.972669
_cell_angle_alpha 90.000000
_cell_angle_beta 90.000000
_cell_angle_gamma 90.000000
_cell_volume 7130.373862
_symmetry_space_group_name_H-M "F D D D"
_symmetry_group_IT_number 70
_space_group.IT_coordinate_system_code '2'
_symmetry_cell_setting 'orthorhombic'
loop_
_space_group_symop_operation_xyz
x,y,z
1/4-x,1/4-y,z
x,1/4-y,1/4-z
1/4-x,y,1/4-z
-x,-y,-z
3/4+x,3/4+y,-z
-x,3/4+y,3/4+z
3/4+x,-y,3/4+z
x,1/2+y,1/2+z
1/4-x,3/4-y,1/2+z
x,3/4-y,3/4-z
1/4-x,1/2+y,3/4-z
-x,1/2-y,1/2-z
3/4+x,1/4+y,1/2-z
-x,1/4+y,1/4+z
3/4+x,1/2-y,1/4+z
1/2+x,y,1/2+z
3/4-x,1/4-y,1/2+z
1/2+x,1/4-y,3/4-z
3/4-x,y,3/4-z
1/2-x,-y,1/2-z
1/4+x,3/4+y,1/2-z
1/2-x,3/4+y,1/4+z
1/4+x,-y,1/4+z
1/2+x,1/2+y,z
3/4-x,3/4-y,z
1/2+x,3/4-y,1/4-z
3/4-x,1/2+y,1/4-z
1/2-x,1/2-y,-z
1/4+x,1/4+y,-z
1/2-x,1/4+y,3/4+z
1/4+x,1/2-y,3/4+z
loop_
_atom_site_type_symbol
_atom_site_label
_atom_site_fract_x
_atom_site_fract_y
_atom_site_fract_z
Si Si1 0.622737 0.303493 0.784527
Si Si2 0.591518 0.550253 0.280470
Si Si3 0.779133 0.050985 0.147905
Si Si4 0.061784 0.896673 0.505765
Si Si5 0.715343 0.050766 0.353956
O O1 0.469038 0.302701 0.760026
O O2 0.693026 0.253784 0.780636
O O3 0.625955 0.315061 0.847647
O O4 0.693391 0.343052 0.750920
O O5 0.467393 0.583525 0.264983
O O6 0.624364 0.561351 0.343017
O O7 0.625000 0.049770 0.125000
O O8 0.774234 0.082711 0.198633
O O9 0.820714 0.000010 0.164372
O O10 0.972553 0.915814 0.554497
O O11 0.875000 0.049688 0.375000
#
# Coordination Sequence:
#
# PCOD9515343 Si02
#       5
#    32  32  32  32  32
#     4  10  21  37  63  90 122 162 206 255 317 378
#     4   9  20  40  61  85 131 161 199 262 314 377
#     4  10  21  38  60  87 122 155 204 261 308 369
#     4  11  20  35  67  90 117 161 209 253 314 379
#     4   8  17  35  61  83 116 159 193 245 315 361
#
# _framework density 22.439215999999998
#
# number of rings (size 3 to 8) (size 9 to 14) (size 15 to 20)
#    0.000    2.400    0.000    3.000    0.000    2.400 
#    0.000    2.000   83.600    0.000    0.000    0.000 
#    0.000    0.000    0.000    0.000    0.000    0.000 
#
# Total GULP energy -223452.008434 kJ/mol
# GULP energy per Si atom -5586.300211 kJ/mol
# Density = 2.238814 g / cm^3
# Si number density = 22.439216 Si / 1000 Ang^3
#
#
#
# Elastic Constant Matrix: (Units=GPa)
#
#
# Indices 1 2 3 4 5 6 
#
# 1 52.4737 15.4891 47.6327 0.0000 0.0000 0.0000
# 2 15.4891 124.7946 69.9145 0.0000 0.0000 0.0000
# 3 47.6327 69.9145 142.8648 0.0000 0.0000 0.0000
# 4 0.0000 0.0000 0.0000 49.4823 0.0000 0.0000
# 5 0.0000 0.0000 0.0000 0.0000 39.7895 0.0000
# 6 0.0000 0.0000 0.0000 0.0000 0.0000 17.2951
#
#
#
# Elastic Compliance Matrix: (Units=1/GPa)
#
#
# Indices 1 2 3 4 5 6 
#
# 1 0.027842 0.002404 -0.010459 0.000000 0.000000 0.000000
# 2 0.002404 0.011248 -0.006306 0.000000 0.000000 0.000000
# 3 -0.010459 -0.006306 0.013573 0.000000 0.000000 0.000000
# 4 0.000000 0.000000 0.000000 0.020209 0.000000 0.000000
# 5 0.000000 0.000000 0.000000 0.000000 0.025132 0.000000
# 6 0.000000 0.000000 0.000000 0.000000 0.000000 0.057820
#
#
# Mechanical properties :
#
#
# Convention : Reuss Voigt Hill
#
# Bulk Modulus (GPa) = 41.77089 65.13398 53.45243
# Shear Modulus (GPa) = 25.97056 33.78650 29.87853
#
# Velocity S-wave (km/s) = 3.40571 3.88453 3.65297
# Velocity P-wave (km/s) = 5.84129 7.01493 6.45484
#
# Compressibility (1/GPa) = 0.02394012
#
# Stress axis : x y z
#
# Youngs Moduli (GPa) = 35.91709 88.90840 73.67697
#
# Poissons Ratio (x) = -0.21374 0.77061
# Poissons Ratio (y) = -0.08635 0.46459
# Poissons Ratio (z) = 0.37567 0.56064
#
# Static dielectric constant tensor:
#      x y z
#    x 1.888660 0.000000 0.000000 
#    y 0.000000 1.848700 0.000000 
#    z 0.000000 0.000000 1.821860 
# 
# From -- ./inp_files/50293.got.cif
#   From: 2010.05.17/outbox.cif.g08.bks.cpg/sg70_26_cif.got.tgz:50293.got - 2010.06.03 15:57:51.
