data_PCOD9515538
_publ_section_title
;
Structure prediction by ZEFSAII (Michael W. Deem and Ramdas Pophale) SiO2 
 PCOD9515538
Probable space group: F D D D
;
_chemical_formula_sum "Si O2"
_cell_formula_units_Z 80
_cell_length_a 11.220921
_cell_length_b 10.455180
_cell_length_c 28.193503
_cell_angle_alpha 90.000000
_cell_angle_beta 90.000000
_cell_angle_gamma 90.000000
_cell_volume 3307.570110
_symmetry_space_group_name_H-M "F D D D"
_symmetry_group_IT_number 70
_space_group.IT_coordinate_system_code '2'
_symmetry_cell_setting 'orthorhombic'
loop_
_space_group_symop_operation_xyz
x,y,z
1/4-x,1/4-y,z
x,1/4-y,1/4-z
1/4-x,y,1/4-z
-x,-y,-z
3/4+x,3/4+y,-z
-x,3/4+y,3/4+z
3/4+x,-y,3/4+z
x,1/2+y,1/2+z
1/4-x,3/4-y,1/2+z
x,3/4-y,3/4-z
1/4-x,1/2+y,3/4-z
-x,1/2-y,1/2-z
3/4+x,1/4+y,1/2-z
-x,1/4+y,1/4+z
3/4+x,1/2-y,1/4+z
1/2+x,y,1/2+z
3/4-x,1/4-y,1/2+z
1/2+x,1/4-y,3/4-z
3/4-x,y,3/4-z
1/2-x,-y,1/2-z
1/4+x,3/4+y,1/2-z
1/2-x,3/4+y,1/4+z
1/4+x,-y,1/4+z
1/2+x,1/2+y,z
3/4-x,3/4-y,z
1/2+x,3/4-y,1/4-z
3/4-x,1/2+y,1/4-z
1/2-x,1/2-y,-z
1/4+x,1/4+y,-z
1/2-x,1/4+y,3/4+z
1/4+x,1/2-y,3/4+z
loop_
_atom_site_type_symbol
_atom_site_label
_atom_site_fract_x
_atom_site_fract_y
_atom_site_fract_z
Si Si1 0.298794 0.667607 0.940128
Si Si2 0.455668 0.063112 0.212477
Si Si3 0.375000 0.375000 0.643206
O O1 0.424619 0.741393 0.944410
O O2 0.210390 0.785915 0.953003
O O3 0.240727 0.625653 0.890906
O O4 0.301784 0.559351 0.980717
O O5 0.361401 0.994405 0.179109
#
# Coordination Sequence:
#
# PCOD9515538 Si02
#       3
#    32  32  16
#     4  10  21  41  64  90 127 171 219 268 327 399
#     4  10  22  40  64  92 125 170 220 270 328 396
#     4  12  22  36  66  96 128 172 218 272 332 386
#
# _framework density 24.18694
#
# number of rings (size 3 to 8) (size 9 to 14) (size 15 to 20)
#    0.000    1.600    0.000    7.200    0.000    4.800 
#    0.000    0.000    0.000    9.600    0.000    0.000 
#    0.000    0.000    0.000    0.000    0.000    0.000 
#
# Total GULP energy -111529.469234 kJ/mol
# GULP energy per Si atom -5576.473462 kJ/mol
# Density = 2.413189 g / cm^3
# Si number density = 24.186940 Si / 1000 Ang^3
#
#
#
# Elastic Constant Matrix: (Units=GPa)
#
#
# Indices 1 2 3 4 5 6 
#
# 1 53.9880 19.4398 36.0136 0.0000 0.0000 0.0000
# 2 19.4398 57.0887 91.7346 0.0000 0.0000 0.0000
# 3 36.0136 91.7346 229.8002 0.0000 0.0000 0.0000
# 4 0.0000 0.0000 0.0000 621.0185 0.0000 0.0000
# 5 0.0000 0.0000 0.0000 0.0000 47.1816 0.0000
# 6 0.0000 0.0000 0.0000 0.0000 0.0000 38.7609
#
#
#
# Elastic Compliance Matrix: (Units=1/GPa)
#
#
# Indices 1 2 3 4 5 6 
#
# 1 0.021235 -0.005253 -0.001231 0.000000 0.000000 0.000000
# 2 -0.005253 0.050154 -0.019198 0.000000 0.000000 0.000000
# 3 -0.001231 -0.019198 0.012208 0.000000 0.000000 0.000000
# 4 0.000000 0.000000 0.000000 0.001610 0.000000 0.000000
# 5 0.000000 0.000000 0.000000 0.000000 0.021195 0.000000
# 6 0.000000 0.000000 0.000000 0.000000 0.000000 0.025799
#
#
# Mechanical properties :
#
#
# Convention : Reuss Voigt Hill
#
# Bulk Modulus (GPa) = 31.02338 70.58366 50.80352
# Shear Modulus (GPa) = 25.73213 154.30481 90.01847
#
# Velocity S-wave (km/s) = 3.26526 7.99595 6.10726
# Velocity P-wave (km/s) = 5.20291 10.70014 8.41318
#
# Compressibility (1/GPa) = 0.03223375
#
# Stress axis : x y z
#
# Youngs Moduli (GPa) = 47.09153 19.93862 81.91235
#
# Poissons Ratio (x) = 0.10474 0.10083
# Poissons Ratio (y) = 0.24737 1.57254
# Poissons Ratio (z) = 0.05797 0.38278
#
# Static dielectric constant tensor:
#      x y z
#    x 2.089280 0.000000 0.000000 
#    y 0.000000 1.948970 0.000000 
#    z 0.000000 0.000000 2.001190 
# 
# From -- ./inp_files/13854.got.cif
#   From: 2010.05.17/outbox.cif.g08.bks.cpg/sg70_7_cif.got.tgz:13854.got - 2010.06.03 15:57:51.
