data_PCOD9515471
_publ_section_title
;
Structure prediction by ZEFSAII (Michael W. Deem and Ramdas Pophale) SiO2 
 PCOD9515471
Probable space group: F D D D
;
_chemical_formula_sum "Si O2"
_cell_formula_units_Z 240
_cell_length_a 26.372002
_cell_length_b 20.579975
_cell_length_c 21.411159
_cell_angle_alpha 90.000000
_cell_angle_beta 90.000000
_cell_angle_gamma 90.000000
_cell_volume 11620.588417
_symmetry_space_group_name_H-M "F D D D"
_symmetry_group_IT_number 70
_space_group.IT_coordinate_system_code '2'
_symmetry_cell_setting 'orthorhombic'
loop_
_space_group_symop_operation_xyz
x,y,z
1/4-x,1/4-y,z
x,1/4-y,1/4-z
1/4-x,y,1/4-z
-x,-y,-z
3/4+x,3/4+y,-z
-x,3/4+y,3/4+z
3/4+x,-y,3/4+z
x,1/2+y,1/2+z
1/4-x,3/4-y,1/2+z
x,3/4-y,3/4-z
1/4-x,1/2+y,3/4-z
-x,1/2-y,1/2-z
3/4+x,1/4+y,1/2-z
-x,1/4+y,1/4+z
3/4+x,1/2-y,1/4+z
1/2+x,y,1/2+z
3/4-x,1/4-y,1/2+z
1/2+x,1/4-y,3/4-z
3/4-x,y,3/4-z
1/2-x,-y,1/2-z
1/4+x,3/4+y,1/2-z
1/2-x,3/4+y,1/4+z
1/4+x,-y,1/4+z
1/2+x,1/2+y,z
3/4-x,3/4-y,z
1/2+x,3/4-y,1/4-z
3/4-x,1/2+y,1/4-z
1/2-x,1/2-y,-z
1/4+x,1/4+y,-z
1/2-x,1/4+y,3/4+z
1/4+x,1/2-y,3/4+z
loop_
_atom_site_type_symbol
_atom_site_label
_atom_site_fract_x
_atom_site_fract_y
_atom_site_fract_z
Si Si1 0.806080 0.762458 0.565958
Si Si2 0.259545 0.194858 0.091776
Si Si3 0.684228 0.688616 0.297718
Si Si4 0.072691 0.204975 0.265237
Si Si5 0.104039 0.557490 0.224844
Si Si6 0.044602 0.841659 0.222050
Si Si7 0.625000 0.960114 0.125000
Si Si8 0.500396 0.023587 0.283220
O O1 0.821374 0.775105 0.636617
O O2 0.850126 0.786149 0.519640
O O3 0.799505 0.689023 0.541323
O O4 0.754829 0.803575 0.554360
O O5 0.270431 0.125000 0.125000
O O6 0.302576 0.229314 0.048496
O O7 0.251153 0.244746 0.148059
O O8 0.209752 0.192903 0.047640
O O9 0.633377 0.704038 0.258045
O O10 0.687661 0.610694 0.305890
O O11 0.733259 0.715789 0.262473
O O12 0.125000 0.625000 0.199257
O O13 0.093035 0.508040 0.169008
O O14 0.053800 0.556153 0.265822
O O15 0.089836 0.827351 0.173624
O O16 0.038368 0.917944 0.224778
#
# Coordination Sequence:
#
# PCOD9515471 Si02
#       8
#    32  32  32  32  32  32  16  32
#     4  10  21  40  62  91 134 171 220 273 326 399
#     4  11  23  46  69 100 132 176 224 285 340 410
#     4  11  23  42  66 101 129 179 226 276 338 411
#     4  10  24  44  70  96 135 175 228 285 342 400
#     4  11  22  40  67  96 126 177 225 271 333 411
#     4  10  22  40  61  93 135 177 216 277 336 393
#     4  10  23  42  62  94 137 176 218 276 338 410
#     4  12  24  41  68  98 130 177 225 281 339 407
#
# _framework density 20.652999000000001
#
# number of rings (size 3 to 8) (size 9 to 14) (size 15 to 20)
#    0.000    1.333    2.667    2.600    1.867    2.133 
#    9.600    0.000    0.000    0.000    0.000    0.000 
#    0.000    0.000    0.000    0.000    0.000    0.000 
#
# Total GULP energy -334787.617834 kJ/mol
# GULP energy per Si atom -5579.793631 kJ/mol
# Density = 2.060599 g / cm^3
# Si number density = 20.652999 Si / 1000 Ang^3
#
#
#
# Elastic Constant Matrix: (Units=GPa)
#
#
# Indices 1 2 3 4 5 6 
#
# 1 60.3786 23.4230 2.5813 0.0000 0.0000 0.0000
# 2 23.4230 97.0794 18.5957 0.0000 0.0000 0.0000
# 3 2.5813 18.5957 71.8565 0.0000 0.0000 0.0000
# 4 0.0000 0.0000 0.0000 20.0343 0.0000 0.0000
# 5 0.0000 0.0000 0.0000 0.0000 25.5628 0.0000
# 6 0.0000 0.0000 0.0000 0.0000 0.0000 21.6111
#
#
#
# Elastic Compliance Matrix: (Units=1/GPa)
#
#
# Indices 1 2 3 4 5 6 
#
# 1 0.018290 -0.004511 0.000510 0.000000 0.000000 0.000000
# 2 -0.004511 0.011951 -0.002931 0.000000 0.000000 0.000000
# 3 0.000510 -0.002931 0.014657 0.000000 0.000000 0.000000
# 4 0.000000 0.000000 0.000000 0.049914 0.000000 0.000000
# 5 0.000000 0.000000 0.000000 0.000000 0.039119 0.000000
# 6 0.000000 0.000000 0.000000 0.000000 0.000000 0.046273
#
#
# Mechanical properties :
#
#
# Convention : Reuss Voigt Hill
#
# Bulk Modulus (GPa) = 32.22139 35.39051 33.80595
# Shear Modulus (GPa) = 24.46050 25.75592 25.10821
#
# Velocity S-wave (km/s) = 3.44518 3.53523 3.49050
# Velocity P-wave (km/s) = 5.60900 5.81694 5.71392
#
# Compressibility (1/GPa) = 0.03103529
#
# Stress axis : x y z
#
# Youngs Moduli (GPa) = 54.67404 83.67816 68.22814
#
# Poissons Ratio (x) = 0.37745 -0.03482
# Poissons Ratio (y) = 0.24662 0.19995
# Poissons Ratio (z) = -0.02790 0.24523
#
# Static dielectric constant tensor:
#      x y z
#    x 1.761420 0.000000 0.000000 
#    y 0.000000 1.783580 0.000000 
#    z 0.000000 0.000000 1.716830 
# 
# From -- ./inp_files/47115.got.cif
#   From: 2010.05.17/outbox.cif.g08.bks.cpg/sg70_24_cif.got.tgz:47115.got - 2010.06.03 15:57:51.
