data_PCOD9515269
_publ_section_title
;
Structure prediction by ZEFSAII (Michael W. Deem and Ramdas Pophale) SiO2 
 PCOD9515269
Probable space group: F D D D
;
_chemical_formula_sum "Si O2"
_cell_formula_units_Z 160
_cell_length_a 13.168905
_cell_length_b 21.862909
_cell_length_c 26.767054
_cell_angle_alpha 90.000000
_cell_angle_beta 90.000000
_cell_angle_gamma 90.000000
_cell_volume 7706.517818
_symmetry_space_group_name_H-M "F D D D"
_symmetry_group_IT_number 70
_space_group.IT_coordinate_system_code '2'
_symmetry_cell_setting 'orthorhombic'
loop_
_space_group_symop_operation_xyz
x,y,z
1/4-x,1/4-y,z
x,1/4-y,1/4-z
1/4-x,y,1/4-z
-x,-y,-z
3/4+x,3/4+y,-z
-x,3/4+y,3/4+z
3/4+x,-y,3/4+z
x,1/2+y,1/2+z
1/4-x,3/4-y,1/2+z
x,3/4-y,3/4-z
1/4-x,1/2+y,3/4-z
-x,1/2-y,1/2-z
3/4+x,1/4+y,1/2-z
-x,1/4+y,1/4+z
3/4+x,1/2-y,1/4+z
1/2+x,y,1/2+z
3/4-x,1/4-y,1/2+z
1/2+x,1/4-y,3/4-z
3/4-x,y,3/4-z
1/2-x,-y,1/2-z
1/4+x,3/4+y,1/2-z
1/2-x,3/4+y,1/4+z
1/4+x,-y,1/4+z
1/2+x,1/2+y,z
3/4-x,3/4-y,z
1/2+x,3/4-y,1/4-z
3/4-x,1/2+y,1/4-z
1/2-x,1/2-y,-z
1/4+x,1/4+y,-z
1/2-x,1/4+y,3/4+z
1/4+x,1/2-y,3/4+z
loop_
_atom_site_type_symbol
_atom_site_label
_atom_site_fract_x
_atom_site_fract_y
_atom_site_fract_z
Si Si1 0.125000 0.924741 0.125000
Si Si2 0.931088 0.994711 0.157412
Si Si3 0.102666 0.375000 0.875000
Si Si4 0.119102 0.978226 0.728387
Si Si5 0.521383 0.654873 0.719836
Si Si6 0.457856 0.917244 0.167290
O O1 0.205002 0.968636 0.096783
O O2 0.202228 0.878489 0.152043
O O3 0.853740 0.949731 0.127635
O O4 0.916266 0.062764 0.133893
O O5 0.903401 0.999779 0.215465
O O6 0.031013 0.379421 0.826038
O O7 0.189133 0.918435 0.737447
O O8 0.014905 0.966551 0.700678
O O9 0.188448 0.028592 0.701476
O O10 0.625000 0.625000 0.737957
O O11 0.375000 0.875000 0.194821
#
# Coordination Sequence:
#
# PCOD9515269 Si02
#       6
#    16  32  16  32  32  32
#     4  10  24  41  70  87 126 180 212 264 326 394
#     4  10  23  45  63  97 129 172 217 271 330 394
#     4  10  21  39  60  92 136 164 209 265 334 378
#     4  10  23  39  63  97 125 168 220 267 331 387
#     4  10  21  34  59  93 125 163 205 266 323 378
#     4  10  23  43  64  95 130 169 222 272 324 392
#
# _framework density 20.761647
#
# number of rings (size 3 to 8) (size 9 to 14) (size 15 to 20)
#    0.000    2.000    0.000    1.500   11.200    2.800 
#    7.200    2.000    0.000    0.000    0.000    0.000 
#    0.000    0.000    0.000    0.000    0.000    0.000 
#
# Total GULP energy -223120.674829 kJ/mol
# GULP energy per Si atom -5578.016871 kJ/mol
# Density = 2.071439 g / cm^3
# Si number density = 20.761647 Si / 1000 Ang^3
#
#
#
# Elastic Constant Matrix: (Units=GPa)
#
#
# Indices 1 2 3 4 5 6 
#
# 1 153.0105 41.2342 38.2618 0.0000 0.0000 0.0000
# 2 41.2342 96.5169 24.5811 0.0000 0.0000 0.0000
# 3 38.2618 24.5811 45.7110 0.0000 0.0000 0.0000
# 4 0.0000 0.0000 0.0000 21.3037 0.0000 0.0000
# 5 0.0000 0.0000 0.0000 0.0000 22.1737 0.0000
# 6 0.0000 0.0000 0.0000 0.0000 0.0000 56.9787
#
#
#
# Elastic Compliance Matrix: (Units=1/GPa)
#
#
# Indices 1 2 3 4 5 6 
#
# 1 0.008631 -0.002141 -0.006073 0.000000 0.000000 0.000000
# 2 -0.002141 0.012536 -0.004949 0.000000 0.000000 0.000000
# 3 -0.006073 -0.004949 0.029622 0.000000 0.000000 0.000000
# 4 0.000000 0.000000 0.000000 0.046940 0.000000 0.000000
# 5 0.000000 0.000000 0.000000 0.000000 0.045098 0.000000
# 6 0.000000 0.000000 0.000000 0.000000 0.000000 0.017550
#
#
# Mechanical properties :
#
#
# Convention : Reuss Voigt Hill
#
# Bulk Modulus (GPa) = 40.87994 55.93253 48.40623
# Shear Modulus (GPa) = 25.65961 32.83530 29.24745
#
# Velocity S-wave (km/s) = 3.51937 3.98117 3.75737
# Velocity P-wave (km/s) = 6.02059 6.93770 6.49535
#
# Compressibility (1/GPa) = 0.02446188
#
# Stress axis : x y z
#
# Youngs Moduli (GPa) = 115.86030 79.77068 33.75892
#
# Poissons Ratio (x) = 0.17076 0.20503
# Poissons Ratio (y) = 0.24801 0.16709
# Poissons Ratio (z) = 0.70367 0.39482
#
# Static dielectric constant tensor:
#      x y z
#    x 1.806040 0.000000 0.000000 
#    y 0.000000 1.870600 0.000000 
#    z 0.000000 0.000000 1.742820 
# 
# From -- ./inp_files/54906.got.cif
#   From: 2010.05.17/outbox.cif.g08.bks.cpg/sg70_28_cif.got.tgz:54906.got - 2010.06.03 15:57:51.
