data_PCOD9515892
_publ_section_title
;
Structure prediction by ZEFSAII (Michael W. Deem and Ramdas Pophale) SiO2 
 PCOD9515892
Probable space group: F D D D
;
_chemical_formula_sum "Si O2"
_cell_formula_units_Z 160
_cell_length_a 28.234022
_cell_length_b 11.331119
_cell_length_c 24.780376
_cell_angle_alpha 90.000000
_cell_angle_beta 90.000000
_cell_angle_gamma 90.000000
_cell_volume 7927.813795
_symmetry_space_group_name_H-M "F D D D"
_symmetry_group_IT_number 70
_space_group.IT_coordinate_system_code '2'
_symmetry_cell_setting 'orthorhombic'
loop_
_space_group_symop_operation_xyz
x,y,z
1/4-x,1/4-y,z
x,1/4-y,1/4-z
1/4-x,y,1/4-z
-x,-y,-z
3/4+x,3/4+y,-z
-x,3/4+y,3/4+z
3/4+x,-y,3/4+z
x,1/2+y,1/2+z
1/4-x,3/4-y,1/2+z
x,3/4-y,3/4-z
1/4-x,1/2+y,3/4-z
-x,1/2-y,1/2-z
3/4+x,1/4+y,1/2-z
-x,1/4+y,1/4+z
3/4+x,1/2-y,1/4+z
1/2+x,y,1/2+z
3/4-x,1/4-y,1/2+z
1/2+x,1/4-y,3/4-z
3/4-x,y,3/4-z
1/2-x,-y,1/2-z
1/4+x,3/4+y,1/2-z
1/2-x,3/4+y,1/4+z
1/4+x,-y,1/4+z
1/2+x,1/2+y,z
3/4-x,3/4-y,z
1/2+x,3/4-y,1/4-z
3/4-x,1/2+y,1/4-z
1/2-x,1/2-y,-z
1/4+x,1/4+y,-z
1/2-x,1/4+y,3/4+z
1/4+x,1/2-y,3/4+z
loop_
_atom_site_type_symbol
_atom_site_label
_atom_site_fract_x
_atom_site_fract_y
_atom_site_fract_z
Si Si1 0.329763 0.298485 0.800519
Si Si2 0.977299 0.742917 0.601737
Si Si3 0.055758 0.567476 0.238638
Si Si4 0.397183 0.724185 0.814711
Si Si5 0.732469 0.136555 0.464469
O O1 0.375000 0.375000 0.818642
O O2 0.278486 0.303678 0.830057
O O3 0.341634 0.161842 0.807100
O O4 0.316609 0.344985 0.740945
O O5 0.951861 0.625000 0.625000
O O6 0.953681 0.814795 0.552661
O O7 0.982249 0.824775 0.653141
O O8 0.105639 0.506422 0.226450
O O9 0.060066 0.689425 0.204531
O O10 0.016752 0.475902 0.217834
O O11 0.375000 0.743358 0.875000
O O12 0.750000 0.250000 0.500000
#
# Coordination Sequence:
#
# PCOD9515892 Si02
#       5
#    32  32  32  32  32
#     4  11  25  39  69 102 129 168 245 289 342 412
#     4  11  23  40  65  96 133 180 217 285 348 414
#     4  10  22  42  64  91 136 172 225 268 360 409
#     4  11  24  42  67 100 130 180 226 292 341 412
#     4  11  21  41  64  96 132 180 221 282 353 413
#
# _framework density 20.182107999999999
#
# number of rings (size 3 to 8) (size 9 to 14) (size 15 to 20)
#    0.000    1.200    4.000    3.600    2.800    3.200 
#    3.600    3.000    0.000    0.000    0.000    0.000 
#    0.000    0.000    0.000    0.000    0.000    0.000 
#
# Total GULP energy -222890.601436 kJ/mol
# GULP energy per Si atom -5572.265036 kJ/mol
# Density = 2.013617 g / cm^3
# Si number density = 20.182108 Si / 1000 Ang^3
#
#
#
# Elastic Constant Matrix: (Units=GPa)
#
#
# Indices 1 2 3 4 5 6 
#
# 1 76.2051 37.1222 44.2961 0.0000 0.0000 0.0000
# 2 37.1222 170.6884 61.3069 0.0000 0.0000 0.0000
# 3 44.2961 61.3069 185.7130 0.0000 0.0000 0.0000
# 4 0.0000 0.0000 0.0000 23.4947 0.0000 0.0000
# 5 0.0000 0.0000 0.0000 0.0000 -11.1945 0.0000
# 6 0.0000 0.0000 0.0000 0.0000 0.0000 39.5793
#
#
#
# Elastic Compliance Matrix: (Units=1/GPa)
#
#
# Indices 1 2 3 4 5 6 
#
# 1 0.016058 -0.002401 -0.003037 0.000000 0.000000 0.000000
# 2 -0.002401 0.007006 -0.001740 0.000000 0.000000 0.000000
# 3 -0.003037 -0.001740 0.006684 0.000000 0.000000 0.000000
# 4 0.000000 0.000000 0.000000 0.042563 0.000000 0.000000
# 5 0.000000 0.000000 0.000000 0.000000 -0.089330 0.000000
# 6 0.000000 0.000000 0.000000 0.000000 0.000000 0.025266
#
#
# Mechanical properties :
#
#
# Convention : Reuss Voigt Hill
#
# Bulk Modulus (GPa) = 64.97837 79.78411 72.38124
# Shear Modulus (GPa) = 180.28833 29.70133 104.99483
#
# Velocity S-wave (km/s) = 9.46175 3.84039 7.22057
# Velocity P-wave (km/s) = 12.31390 7.69953 10.26925
#
# Compressibility (1/GPa) = 0.01538974
#
# Stress axis : x y z
#
# Youngs Moduli (GPa) = 62.27493 142.73789 149.62190
#
# Poissons Ratio (x) = 0.34277 0.45446
# Poissons Ratio (y) = 0.14955 0.26034
# Poissons Ratio (z) = 0.18915 0.24836
#
# Static dielectric constant tensor:
#      x y z
#    x 1.802300 0.000000 0.000000 
#    y 0.000000 1.758860 0.000000 
#    z 0.000000 0.000000 1.767410 
# 
# From -- ./inp_files/61602.got.cif
#   From: 2010.05.17/outbox.cif.g08.bks.cpg/sg70_31_cif.got.tgz:61602.got - 2010.06.03 15:57:51.
