data_PCOD9515156
_publ_section_title
;
Structure prediction by ZEFSAII (Michael W. Deem and Ramdas Pophale) SiO2 
 PCOD9515156
Probable space group: F D D D
;
_chemical_formula_sum "Si O2"
_cell_formula_units_Z 168
_cell_length_a 21.062449
_cell_length_b 18.796736
_cell_length_c 21.765034
_cell_angle_alpha 90.000000
_cell_angle_beta 90.000000
_cell_angle_gamma 90.000000
_cell_volume 8616.892171
_symmetry_space_group_name_H-M "F D D D"
_symmetry_group_IT_number 70
_space_group.IT_coordinate_system_code '2'
_symmetry_cell_setting 'orthorhombic'
loop_
_space_group_symop_operation_xyz
x,y,z
1/4-x,1/4-y,z
x,1/4-y,1/4-z
1/4-x,y,1/4-z
-x,-y,-z
3/4+x,3/4+y,-z
-x,3/4+y,3/4+z
3/4+x,-y,3/4+z
x,1/2+y,1/2+z
1/4-x,3/4-y,1/2+z
x,3/4-y,3/4-z
1/4-x,1/2+y,3/4-z
-x,1/2-y,1/2-z
3/4+x,1/4+y,1/2-z
-x,1/4+y,1/4+z
3/4+x,1/2-y,1/4+z
1/2+x,y,1/2+z
3/4-x,1/4-y,1/2+z
1/2+x,1/4-y,3/4-z
3/4-x,y,3/4-z
1/2-x,-y,1/2-z
1/4+x,3/4+y,1/2-z
1/2-x,3/4+y,1/4+z
1/4+x,-y,1/4+z
1/2+x,1/2+y,z
3/4-x,3/4-y,z
1/2+x,3/4-y,1/4-z
3/4-x,1/2+y,1/4-z
1/2-x,1/2-y,-z
1/4+x,1/4+y,-z
1/2-x,1/4+y,3/4+z
1/4+x,1/2-y,3/4+z
loop_
_atom_site_type_symbol
_atom_site_label
_atom_site_fract_x
_atom_site_fract_y
_atom_site_fract_z
Si Si1 0.826669 0.696550 0.454413
Si Si2 0.375000 0.875000 0.375000
Si Si3 0.726606 0.307743 0.916627
Si Si4 0.451193 0.638533 0.920551
Si Si5 0.835837 0.440801 0.579233
Si Si6 0.070262 0.512462 0.529018
O O1 0.790306 0.769902 0.441190
O O2 0.812729 0.672196 0.522941
O O3 0.796846 0.644240 0.403150
O O4 0.901383 0.698312 0.441955
O O5 0.332529 0.823940 0.419734
O O6 0.740235 0.375000 0.875000
O O7 0.686439 0.250546 0.876998
O O8 0.520642 0.655666 0.945923
O O9 0.421029 0.564338 0.939899
O O10 0.875000 0.375000 0.607994
O O11 0.879450 0.472202 0.525216
O O12 0.000000 0.500000 0.500000
#
# Coordination Sequence:
#
# PCOD9515156 Si02
#       6
#    32   8  32  32  32  32
#     4   9  20  40  62  94 121 163 212 250 327 376
#     4  12  24  40  68  96 128 168 214 268 320 388
#     4  10  21  40  66  93 127 162 214 266 311 384
#     4  10  20  41  66  85 131 165 200 267 315 379
#     4  11  22  43  62  92 129 166 212 264 318 380
#     4  12  23  43  64  95 128 168 219 261 322 388
#
# _framework density 19.496590000000001
#
# number of rings (size 3 to 8) (size 9 to 14) (size 15 to 20)
#    0.000    1.524    2.857    2.286    0.000    0.000 
#    8.571   24.762    0.000    0.000    0.000    0.000 
#    0.000    0.000    0.000    0.000    0.000    0.000 
#
# Total GULP energy -234173.954994 kJ/mol
# GULP energy per Si atom -5575.570357 kJ/mol
# Density = 1.945221 g / cm^3
# Si number density = 19.496590 Si / 1000 Ang^3
#
#
#
# Elastic Constant Matrix: (Units=GPa)
#
#
# Indices 1 2 3 4 5 6 
#
# 1 138.5883 37.1341 36.5900 0.0000 0.0000 0.0000
# 2 37.1341 77.5865 37.0172 0.0000 0.0000 0.0000
# 3 36.5900 37.0172 103.7911 0.0000 0.0000 0.0000
# 4 0.0000 0.0000 0.0000 31.1343 0.0000 0.0000
# 5 0.0000 0.0000 0.0000 0.0000 26.3334 0.0000
# 6 0.0000 0.0000 0.0000 0.0000 0.0000 24.5282
#
#
#
# Elastic Compliance Matrix: (Units=1/GPa)
#
#
# Indices 1 2 3 4 5 6 
#
# 1 0.008570 -0.003206 -0.001878 0.000000 0.000000 0.000000
# 2 -0.003206 0.016731 -0.004837 0.000000 0.000000 0.000000
# 3 -0.001878 -0.004837 0.012022 0.000000 0.000000 0.000000
# 4 0.000000 0.000000 0.000000 0.032119 0.000000 0.000000
# 5 0.000000 0.000000 0.000000 0.000000 0.037975 0.000000
# 6 0.000000 0.000000 0.000000 0.000000 0.000000 0.040769
#
#
# Mechanical properties :
#
#
# Convention : Reuss Voigt Hill
#
# Bulk Modulus (GPa) = 57.20287 60.16094 58.68191
# Shear Modulus (GPa) = 28.75957 30.34748 29.55353
#
# Velocity S-wave (km/s) = 3.84488 3.94960 3.89759
# Velocity P-wave (km/s) = 7.00817 7.19189 7.10062
#
# Compressibility (1/GPa) = 0.01748164
#
# Stress axis : x y z
#
# Youngs Moduli (GPa) = 116.67983 59.76934 83.18169
#
# Poissons Ratio (x) = 0.19162 0.15621
# Poissons Ratio (y) = 0.37407 0.40234
# Poissons Ratio (z) = 0.21912 0.28910
#
# Static dielectric constant tensor:
#      x y z
#    x 1.703000 0.000000 0.000000 
#    y 0.000000 1.724220 0.000000 
#    z 0.000000 0.000000 1.724400 
# 
# From -- ./inp_files/45881.got.cif
#   From: 2010.05.17/outbox.cif.g08.bks.cpg/sg70_23_cif.got.tgz:45881.got - 2010.06.03 15:57:51.
