data_PCOD9515335
_publ_section_title
;
Structure prediction by ZEFSAII (Michael W. Deem and Ramdas Pophale) SiO2 
 PCOD9515335
Probable space group: F D D D
;
_chemical_formula_sum "Si O2"
_cell_formula_units_Z 112
_cell_length_a 17.770254
_cell_length_b 12.514510
_cell_length_c 20.560726
_cell_angle_alpha 90.000000
_cell_angle_beta 90.000000
_cell_angle_gamma 90.000000
_cell_volume 4572.418052
_symmetry_space_group_name_H-M "F D D D"
_symmetry_group_IT_number 70
_space_group.IT_coordinate_system_code '2'
_symmetry_cell_setting 'orthorhombic'
loop_
_space_group_symop_operation_xyz
x,y,z
1/4-x,1/4-y,z
x,1/4-y,1/4-z
1/4-x,y,1/4-z
-x,-y,-z
3/4+x,3/4+y,-z
-x,3/4+y,3/4+z
3/4+x,-y,3/4+z
x,1/2+y,1/2+z
1/4-x,3/4-y,1/2+z
x,3/4-y,3/4-z
1/4-x,1/2+y,3/4-z
-x,1/2-y,1/2-z
3/4+x,1/4+y,1/2-z
-x,1/4+y,1/4+z
3/4+x,1/2-y,1/4+z
1/2+x,y,1/2+z
3/4-x,1/4-y,1/2+z
1/2+x,1/4-y,3/4-z
3/4-x,y,3/4-z
1/2-x,-y,1/2-z
1/4+x,3/4+y,1/2-z
1/2-x,3/4+y,1/4+z
1/4+x,-y,1/4+z
1/2+x,1/2+y,z
3/4-x,3/4-y,z
1/2+x,3/4-y,1/4-z
3/4-x,1/2+y,1/4-z
1/2-x,1/2-y,-z
1/4+x,1/4+y,-z
1/2-x,1/4+y,3/4+z
1/4+x,1/2-y,3/4+z
loop_
_atom_site_type_symbol
_atom_site_label
_atom_site_fract_x
_atom_site_fract_y
_atom_site_fract_z
Si Si1 0.038500 0.714711 0.875204
Si Si2 0.625000 0.409620 0.125000
Si Si3 0.416050 0.988672 0.765187
Si Si4 0.682959 0.480485 0.915224
O O1 0.094817 0.752670 0.818086
O O2 0.044788 0.586368 0.875495
O O3 0.950083 0.731560 0.872875
O O4 0.080587 0.760529 0.938425
O O5 0.619038 0.329130 0.062248
O O6 0.375000 0.875000 0.777178
O O7 0.504996 0.978558 0.779305
O O8 0.697698 0.375000 0.875000
#
# Coordination Sequence:
#
# PCOD9515335 Si02
#       4
#    32  16  32  32
#     4  10  22  41  61  91 130 157 206 262 307 366
#     4  10  23  38  61  90 126 166 206 251 311 378
#     4  11  20  36  64  93 118 157 202 265 319 355
#     4  10  21  37  61  89 127 153 203 259 311 365
#
# _framework density 24.494696999999999
#
# number of rings (size 3 to 8) (size 9 to 14) (size 15 to 20)
#    0.000    1.714    2.857    3.857    4.000    2.286 
#    0.000    2.143   12.571    0.000    0.000    0.000 
#    0.000    0.000    0.000    0.000    0.000    0.000 
#
# Total GULP energy -156279.764875 kJ/mol
# GULP energy per Si atom -5581.420174 kJ/mol
# Density = 2.443895 g / cm^3
# Si number density = 24.494697 Si / 1000 Ang^3
#
#
#
# Elastic Constant Matrix: (Units=GPa)
#
#
# Indices 1 2 3 4 5 6 
#
# 1 215.5665 1.8150 18.3033 0.0000 0.0000 0.0000
# 2 1.8150 91.3302 8.1801 0.0000 0.0000 0.0000
# 3 18.3033 8.1801 42.5013 0.0000 0.0000 0.0000
# 4 0.0000 0.0000 0.0000 -17.4960 0.0000 0.0000
# 5 0.0000 0.0000 0.0000 0.0000 3.7518 0.0000
# 6 0.0000 0.0000 0.0000 0.0000 0.0000 7.0891
#
#
#
# Elastic Compliance Matrix: (Units=1/GPa)
#
#
# Indices 1 2 3 4 5 6 
#
# 1 0.004816 0.000092 -0.002092 0.000000 0.000000 0.000000
# 2 0.000092 0.011143 -0.002184 0.000000 0.000000 0.000000
# 3 -0.002092 -0.002184 0.024850 0.000000 0.000000 0.000000
# 4 0.000000 0.000000 0.000000 -0.057156 0.000000 0.000000
# 5 0.000000 0.000000 0.000000 0.000000 0.266538 0.000000
# 6 0.000000 0.000000 0.000000 0.000000 0.000000 0.141061
#
#
# Mechanical properties :
#
#
# Convention : Reuss Voigt Hill
#
# Bulk Modulus (GPa) = 30.82563 45.11052 37.96808
# Shear Modulus (GPa) = 12.18224 20.07563 16.12894
#
# Velocity S-wave (km/s) = 2.23254 2.86596 2.56884
# Velocity P-wave (km/s) = 4.38834 5.42292 4.93283
#
# Compressibility (1/GPa) = 0.03244053
#
# Stress axis : x y z
#
# Youngs Moduli (GPa) = 207.65159 89.74176 40.24177
#
# Poissons Ratio (x) = -0.00822 0.08417
# Poissons Ratio (y) = -0.01903 0.08789
# Poissons Ratio (z) = 0.43432 0.19601
#
# Static dielectric constant tensor:
#      x y z
#    x 2.032600 0.000000 0.000000 
#    y 0.000000 1.897160 0.000000 
#    z 0.000000 0.000000 1.962260 
# 
# From -- ./inp_files/17279.got.cif
#   From: 2010.05.17/outbox.cif.g08.bks.cpg/sg70_9_cif.got.tgz:17279.got - 2010.06.03 15:57:51.
