data_PCOD9515421
_publ_section_title
;
Structure prediction by ZEFSAII (Michael W. Deem and Ramdas Pophale) SiO2 
 PCOD9515421
Probable space group: F D D D
;
_chemical_formula_sum "Si O2"
_cell_formula_units_Z 160
_cell_length_a 19.758259
_cell_length_b 24.320186
_cell_length_c 17.695219
_cell_angle_alpha 90.000000
_cell_angle_beta 90.000000
_cell_angle_gamma 90.000000
_cell_volume 8502.986863
_symmetry_space_group_name_H-M "F D D D"
_symmetry_group_IT_number 70
_space_group.IT_coordinate_system_code '2'
_symmetry_cell_setting 'orthorhombic'
loop_
_space_group_symop_operation_xyz
x,y,z
1/4-x,1/4-y,z
x,1/4-y,1/4-z
1/4-x,y,1/4-z
-x,-y,-z
3/4+x,3/4+y,-z
-x,3/4+y,3/4+z
3/4+x,-y,3/4+z
x,1/2+y,1/2+z
1/4-x,3/4-y,1/2+z
x,3/4-y,3/4-z
1/4-x,1/2+y,3/4-z
-x,1/2-y,1/2-z
3/4+x,1/4+y,1/2-z
-x,1/4+y,1/4+z
3/4+x,1/2-y,1/4+z
1/2+x,y,1/2+z
3/4-x,1/4-y,1/2+z
1/2+x,1/4-y,3/4-z
3/4-x,y,3/4-z
1/2-x,-y,1/2-z
1/4+x,3/4+y,1/2-z
1/2-x,3/4+y,1/4+z
1/4+x,-y,1/4+z
1/2+x,1/2+y,z
3/4-x,3/4-y,z
1/2+x,3/4-y,1/4-z
3/4-x,1/2+y,1/4-z
1/2-x,1/2-y,-z
1/4+x,1/4+y,-z
1/2-x,1/4+y,3/4+z
1/4+x,1/2-y,3/4+z
loop_
_atom_site_type_symbol
_atom_site_label
_atom_site_fract_x
_atom_site_fract_y
_atom_site_fract_z
Si Si1 0.454684 0.260171 0.822407
Si Si2 0.506347 0.939495 0.879897
Si Si3 0.758450 0.625000 0.125000
Si Si4 0.184137 0.953821 0.032960
Si Si5 0.373013 0.162609 0.241578
Si Si6 0.125000 0.492848 0.125000
O O1 0.500000 0.250000 0.750000
O O2 0.465142 0.322408 0.850069
O O3 0.475289 0.219360 0.891633
O O4 0.379758 0.244079 0.794590
O O5 0.488811 0.875000 0.875000
O O6 0.529521 0.960428 0.797194
O O7 0.570435 0.939889 0.936527
O O8 0.439200 0.971869 0.902176
O O9 0.809544 0.643201 0.191897
O O10 0.156386 0.891505 0.029667
O O11 0.352577 0.204613 0.305996
#
# Coordination Sequence:
#
# PCOD9515421 Si02
#       6
#    32  32  16  32  32  16
#     4  11  21  36  62  91 120 159 209 248 304 378
#     4  10  21  41  60  85 126 157 199 258 317 371
#     4  12  22  39  64  87 120 166 202 254 314 374
#     4  10  21  39  60  86 124 162 193 257 314 368
#     4  11  21  40  61  87 121 161 204 253 316 377
#     4  12  23  34  64  94 108 157 214 248 304 380
#
# _framework density 18.816917
#
# number of rings (size 3 to 8) (size 9 to 14) (size 15 to 20)
#    0.000    1.200    5.000    3.300    0.000    1.600 
#    0.000    0.000    0.000    0.000    0.000    0.000 
#    0.000    0.000    0.000    0.000    0.000    0.000 
#
# Total GULP energy -223228.182749 kJ/mol
# GULP energy per Si atom -5580.704569 kJ/mol
# Density = 1.877409 g / cm^3
# Si number density = 18.816917 Si / 1000 Ang^3
#
#
#
# Elastic Constant Matrix: (Units=GPa)
#
#
# Indices 1 2 3 4 5 6 
#
# 1 58.5314 36.4692 30.4528 0.0000 0.0000 0.0000
# 2 36.4692 93.5261 58.0146 0.0000 0.0000 0.0000
# 3 30.4528 58.0146 126.1392 0.0000 0.0000 0.0000
# 4 0.0000 0.0000 0.0000 38.6221 0.0000 0.0000
# 5 0.0000 0.0000 0.0000 0.0000 29.0370 0.0000
# 6 0.0000 0.0000 0.0000 0.0000 0.0000 21.9796
#
#
#
# Elastic Compliance Matrix: (Units=1/GPa)
#
#
# Indices 1 2 3 4 5 6 
#
# 1 0.022920 -0.007702 -0.001991 0.000000 0.000000 0.000000
# 2 -0.007702 0.017549 -0.006212 0.000000 0.000000 0.000000
# 3 -0.001991 -0.006212 0.011265 0.000000 0.000000 0.000000
# 4 0.000000 0.000000 0.000000 0.025892 0.000000 0.000000
# 5 0.000000 0.000000 0.000000 0.000000 0.034439 0.000000
# 6 0.000000 0.000000 0.000000 0.000000 0.000000 0.045497
#
#
# Mechanical properties :
#
#
# Convention : Reuss Voigt Hill
#
# Bulk Modulus (GPa) = 50.19020 58.67442 54.43231
# Shear Modulus (GPa) = 25.50865 28.14507 26.82686
#
# Velocity S-wave (km/s) = 3.68587 3.87167 3.77991
# Velocity P-wave (km/s) = 6.69664 7.15792 6.93112
#
# Compressibility (1/GPa) = 0.01992421
#
# Stress axis : x y z
#
# Youngs Moduli (GPa) = 43.63054 56.98444 88.76867
#
# Poissons Ratio (x) = 0.43891 0.17673
# Poissons Ratio (y) = 0.33605 0.55139
# Poissons Ratio (z) = 0.08686 0.35396
#
# Static dielectric constant tensor:
#      x y z
#    x 1.706130 0.000000 0.000000 
#    y 0.000000 1.637780 0.000000 
#    z 0.000000 0.000000 1.702680 
# 
# From -- ./inp_files/36360.got.cif
#   From: 2010.05.17/outbox.cif.g08.bks.cpg/sg70_19_cif.got.tgz:36360.got - 2010.06.03 15:57:51.
