data_PCOD9515776
_publ_section_title
;
Structure prediction by ZEFSAII (Michael W. Deem and Ramdas Pophale) SiO2 
 PCOD9515776
Probable space group: F D D D
;
_chemical_formula_sum "Si O2"
_cell_formula_units_Z 208
_cell_length_a 26.831460
_cell_length_b 13.599412
_cell_length_c 22.429038
_cell_angle_alpha 90.000000
_cell_angle_beta 90.000000
_cell_angle_gamma 90.000000
_cell_volume 8184.178308
_symmetry_space_group_name_H-M "F D D D"
_symmetry_group_IT_number 70
_space_group.IT_coordinate_system_code '2'
_symmetry_cell_setting 'orthorhombic'
loop_
_space_group_symop_operation_xyz
x,y,z
1/4-x,1/4-y,z
x,1/4-y,1/4-z
1/4-x,y,1/4-z
-x,-y,-z
3/4+x,3/4+y,-z
-x,3/4+y,3/4+z
3/4+x,-y,3/4+z
x,1/2+y,1/2+z
1/4-x,3/4-y,1/2+z
x,3/4-y,3/4-z
1/4-x,1/2+y,3/4-z
-x,1/2-y,1/2-z
3/4+x,1/4+y,1/2-z
-x,1/4+y,1/4+z
3/4+x,1/2-y,1/4+z
1/2+x,y,1/2+z
3/4-x,1/4-y,1/2+z
1/2+x,1/4-y,3/4-z
3/4-x,y,3/4-z
1/2-x,-y,1/2-z
1/4+x,3/4+y,1/2-z
1/2-x,3/4+y,1/4+z
1/4+x,-y,1/4+z
1/2+x,1/2+y,z
3/4-x,3/4-y,z
1/2+x,3/4-y,1/4-z
3/4-x,1/2+y,1/4-z
1/2-x,1/2-y,-z
1/4+x,1/4+y,-z
1/2-x,1/4+y,3/4+z
1/4+x,1/2-y,3/4+z
loop_
_atom_site_type_symbol
_atom_site_label
_atom_site_fract_x
_atom_site_fract_y
_atom_site_fract_z
Si Si1 0.677804 0.107600 0.896486
Si Si2 0.746096 0.404238 0.935232
Si Si3 0.148992 0.931247 0.004043
Si Si4 0.973587 0.135963 0.928212
Si Si5 0.625000 0.285588 0.625000
Si Si6 0.307543 0.608711 0.559294
Si Si7 0.665398 0.708290 0.516770
O O1 0.625000 0.125000 0.864521
O O2 0.724516 0.109146 0.853107
O O3 0.679658 0.007291 0.935645
O O4 0.677309 0.192806 0.946508
O O5 0.718730 0.375000 0.875000
O O6 0.704849 0.439205 0.981266
O O7 0.781040 0.497020 0.923356
O O8 0.781977 0.316830 0.953963
O O9 0.107604 0.923720 0.951910
O O10 0.138783 0.004330 0.058856
O O11 0.147072 0.818072 0.029167
O O12 0.927434 0.086622 0.894459
O O13 0.972770 0.116809 0.999497
O O14 0.285128 0.625000 0.625000
O O15 0.625000 0.625000 0.533376
#
# Coordination Sequence:
#
# PCOD9515776 Si02
#       7
#    32  32  32  32  16  32  32
#     4  11  22  42  68  92 133 169 215 273 328 381
#     4  12  23  33  58  94 132 167 213 255 315 405
#     4  11  21  37  58  91 127 168 215 257 324 382
#     4  11  24  42  65  98 128 176 215 267 330 389
#     4  10  22  40  61  90 131 170 216 258 320 394
#     4  11  24  43  67  90 129 166 219 275 326 380
#     4  11  19  36  56  85 130 172 197 261 315 378
#
# _framework density 25.414891000000001
#
# number of rings (size 3 to 8) (size 9 to 14) (size 15 to 20)
#    0.000    0.923    4.615    4.615    2.154    0.923 
#    0.000    0.000    0.000    0.462    0.000    0.000 
#    0.000    0.000    0.000    0.000    0.000    0.000 
#
# Total GULP energy -290552.426331 kJ/mol
# GULP energy per Si atom -5587.546660 kJ/mol
# Density = 2.535705 g / cm^3
# Si number density = 25.414891 Si / 1000 Ang^3
#
#
#
# Elastic Constant Matrix: (Units=GPa)
#
#
# Indices 1 2 3 4 5 6 
#
# 1 157.0106 1.4309 60.3636 0.0000 0.0000 0.0000
# 2 1.4309 49.3991 5.6438 0.0000 0.0000 0.0000
# 3 60.3636 5.6438 156.8870 0.0000 0.0000 0.0000
# 4 0.0000 0.0000 0.0000 12.5417 0.0000 0.0000
# 5 0.0000 0.0000 0.0000 0.0000 36.8419 0.0000
# 6 0.0000 0.0000 0.0000 0.0000 0.0000 15.3321
#
#
#
# Elastic Compliance Matrix: (Units=1/GPa)
#
#
# Indices 1 2 3 4 5 6 
#
# 1 0.007475 0.000113 -0.002880 0.000000 0.000000 0.000000
# 2 0.000113 0.020329 -0.000775 0.000000 0.000000 0.000000
# 3 -0.002880 -0.000775 0.007510 0.000000 0.000000 0.000000
# 4 0.000000 0.000000 0.000000 0.079734 0.000000 0.000000
# 5 0.000000 0.000000 0.000000 0.000000 0.027143 0.000000
# 6 0.000000 0.000000 0.000000 0.000000 0.000000 0.065223
#
#
# Mechanical properties :
#
#
# Convention : Reuss Voigt Hill
#
# Bulk Modulus (GPa) = 35.42416 55.35258 45.38837
# Shear Modulus (GPa) = 22.33061 32.66703 27.49882
#
# Velocity S-wave (km/s) = 2.96741 3.58907 3.29294
# Velocity P-wave (km/s) = 5.07043 6.24516 5.68820
#
# Compressibility (1/GPa) = 0.02822932
#
# Stress axis : x y z
#
# Youngs Moduli (GPa) = 133.77405 49.19196 133.15458
#
# Poissons Ratio (x) = -0.00554 0.38352
# Poissons Ratio (y) = -0.01505 0.10314
# Poissons Ratio (z) = 0.38530 0.03810
#
# Static dielectric constant tensor:
#      x y z
#    x 1.988450 0.000000 0.000000 
#    y 0.000000 2.072730 0.000000 
#    z 0.000000 0.000000 2.054050 
# 
# From -- ./inp_files/46941.got.cif
#   From: 2010.05.17/outbox.cif.g08.bks.cpg/sg70_24_cif.got.tgz:46941.got - 2010.06.03 15:57:51.
