data_PCOD9515348
_publ_section_title
;
Structure prediction by ZEFSAII (Michael W. Deem and Ramdas Pophale) SiO2 
 PCOD9515348
Probable space group: F D D D
;
_chemical_formula_sum "Si O2"
_cell_formula_units_Z 160
_cell_length_a 27.300608
_cell_length_b 30.101858
_cell_length_c 7.580883
_cell_angle_alpha 90.000000
_cell_angle_beta 90.000000
_cell_angle_gamma 90.000000
_cell_volume 6229.962261
_symmetry_space_group_name_H-M "F D D D"
_symmetry_group_IT_number 70
_space_group.IT_coordinate_system_code '2'
_symmetry_cell_setting 'orthorhombic'
loop_
_space_group_symop_operation_xyz
x,y,z
1/4-x,1/4-y,z
x,1/4-y,1/4-z
1/4-x,y,1/4-z
-x,-y,-z
3/4+x,3/4+y,-z
-x,3/4+y,3/4+z
3/4+x,-y,3/4+z
x,1/2+y,1/2+z
1/4-x,3/4-y,1/2+z
x,3/4-y,3/4-z
1/4-x,1/2+y,3/4-z
-x,1/2-y,1/2-z
3/4+x,1/4+y,1/2-z
-x,1/4+y,1/4+z
3/4+x,1/2-y,1/4+z
1/2+x,y,1/2+z
3/4-x,1/4-y,1/2+z
1/2+x,1/4-y,3/4-z
3/4-x,y,3/4-z
1/2-x,-y,1/2-z
1/4+x,3/4+y,1/2-z
1/2-x,3/4+y,1/4+z
1/4+x,-y,1/4+z
1/2+x,1/2+y,z
3/4-x,3/4-y,z
1/2+x,3/4-y,1/4-z
3/4-x,1/2+y,1/4-z
1/2-x,1/2-y,-z
1/4+x,1/4+y,-z
1/2-x,1/4+y,3/4+z
1/4+x,1/2-y,3/4+z
loop_
_atom_site_type_symbol
_atom_site_label
_atom_site_fract_x
_atom_site_fract_y
_atom_site_fract_z
Si Si1 0.439221 0.166235 0.245034
Si Si2 0.875000 0.298005 0.875000
Si Si3 0.733200 0.636403 0.931781
Si Si4 0.462511 0.225058 0.938592
Si Si5 0.125000 0.625000 0.375649
Si Si6 0.440675 0.225920 0.554146
O O1 0.418642 0.125000 0.125000
O O2 0.494101 0.149254 0.295972
O O3 0.423221 0.183242 0.440643
O O4 0.437815 0.209563 0.119722
O O5 0.894746 0.332719 0.732289
O O6 0.834504 0.267273 0.789817
O O7 0.754690 0.682425 0.862892
O O8 0.675270 0.641930 0.955916
O O9 0.753221 0.625000 0.125000
O O10 0.429650 0.228692 0.762973
O O11 0.500271 0.265804 0.959509
#
# Coordination Sequence:
#
# PCOD9515348 Si02
#       6
#    32  16  32  32  16  32
#     4  10  22  37  65  91 125 170 223 276 332 398
#     4  11  24  40  64  92 136 184 214 286 352 419
#     4  11  20  38  60  97 134 175 222 279 342 418
#     4  10  21  37  63  94 125 174 218 278 328 409
#     4  11  23  38  60  98 140 172 220 270 366 420
#     4  11  21  41  62  92 132 166 231 272 334 410
#
# _framework density 25.682337
#
# number of rings (size 3 to 8) (size 9 to 14) (size 15 to 20)
#    0.000    1.400    4.000    2.100    5.600    0.000 
#    0.000    1.000    8.800    0.000    0.000    0.000 
#    0.000    0.000    0.000    0.000    0.000    0.000 
#
# Total GULP energy -223195.874328 kJ/mol
# GULP energy per Si atom -5579.896858 kJ/mol
# Density = 2.562388 g / cm^3
# Si number density = 25.682337 Si / 1000 Ang^3
#
#
#
# Elastic Constant Matrix: (Units=GPa)
#
#
# Indices 1 2 3 4 5 6 
#
# 1 54.0899 11.7863 20.1324 -0.0125 -0.0119 0.0147
# 2 11.7863 87.7149 39.1621 -0.0290 0.0037 0.0298
# 3 20.1324 39.1621 160.0846 -0.0097 -0.0084 0.0317
# 4 -0.0125 -0.0290 -0.0097 19.3805 -0.0159 0.0016
# 5 -0.0119 0.0037 -0.0084 -0.0159 2.2277 -0.0021
# 6 0.0147 0.0298 0.0317 0.0016 -0.0021 17.1838
#
#
#
# Elastic Compliance Matrix: (Units=1/GPa)
#
#
# Indices 1 2 3 4 5 6 
#
# 1 0.019625 -0.001723 -0.002046 0.000009 0.000100 -0.000010
# 2 -0.001723 0.012950 -0.002951 0.000017 -0.000042 -0.000016
# 3 -0.002046 -0.002951 0.007226 -0.000002 0.000021 -0.000006
# 4 0.000009 0.000017 -0.000002 0.051599 0.000369 -0.000005
# 5 0.000100 -0.000042 0.000021 0.000369 0.448900 0.000055
# 6 -0.000010 -0.000016 -0.000006 -0.000005 0.000055 0.058194
#
#
# Mechanical properties :
#
#
# Convention : Reuss Voigt Hill
#
# Bulk Modulus (GPa) = 37.93808 49.33902 43.63855
# Shear Modulus (GPa) = 8.05514 23.14562 15.60038
#
# Velocity S-wave (km/s) = 1.77292 3.00530 2.46730
# Velocity P-wave (km/s) = 4.35834 5.59423 5.01451
#
# Compressibility (1/GPa) = 0.02635874
#
# Stress axis : x y z
#
# Youngs Moduli (GPa) = 50.95547 77.22129 138.38843
#
# Poissons Ratio (x) = 0.13308 0.28321
# Poissons Ratio (y) = 0.08781 0.40842
# Poissons Ratio (z) = 0.10428 0.22790
#
# Static dielectric constant tensor:
#      x y z
#    x 2.017130 0.000080 0.000040 
#    y 0.000080 2.050970 -0.000110 
#    z 0.000040 -0.000110 2.105150 
# 
# From -- ./inp_files/12337.got.cif
#   From: 2010.05.17/outbox.cif.g08.bks.cpg/sg70_7_cif.got.tgz:12337.got - 2010.06.03 15:57:51.
