data_PCOD9515309
_publ_section_title
;
Structure prediction by ZEFSAII (Michael W. Deem and Ramdas Pophale) SiO2 
 PCOD9515309
Probable space group: F D D D
;
_chemical_formula_sum "Si O2"
_cell_formula_units_Z 144
_cell_length_a 15.284931
_cell_length_b 18.061408
_cell_length_c 23.332681
_cell_angle_alpha 90.000000
_cell_angle_beta 90.000000
_cell_angle_gamma 90.000000
_cell_volume 6441.391996
_symmetry_space_group_name_H-M "F D D D"
_symmetry_group_IT_number 70
_space_group.IT_coordinate_system_code '2'
_symmetry_cell_setting 'orthorhombic'
loop_
_space_group_symop_operation_xyz
x,y,z
1/4-x,1/4-y,z
x,1/4-y,1/4-z
1/4-x,y,1/4-z
-x,-y,-z
3/4+x,3/4+y,-z
-x,3/4+y,3/4+z
3/4+x,-y,3/4+z
x,1/2+y,1/2+z
1/4-x,3/4-y,1/2+z
x,3/4-y,3/4-z
1/4-x,1/2+y,3/4-z
-x,1/2-y,1/2-z
3/4+x,1/4+y,1/2-z
-x,1/4+y,1/4+z
3/4+x,1/2-y,1/4+z
1/2+x,y,1/2+z
3/4-x,1/4-y,1/2+z
1/2+x,1/4-y,3/4-z
3/4-x,y,3/4-z
1/2-x,-y,1/2-z
1/4+x,3/4+y,1/2-z
1/2-x,3/4+y,1/4+z
1/4+x,-y,1/4+z
1/2+x,1/2+y,z
3/4-x,3/4-y,z
1/2+x,3/4-y,1/4-z
3/4-x,1/2+y,1/4-z
1/2-x,1/2-y,-z
1/4+x,1/4+y,-z
1/2-x,1/4+y,3/4+z
1/4+x,1/2-y,3/4+z
loop_
_atom_site_type_symbol
_atom_site_label
_atom_site_fract_x
_atom_site_fract_y
_atom_site_fract_z
Si Si1 0.117855 0.504895 0.772093
Si Si2 0.565699 0.886831 0.675451
Si Si3 0.242941 0.651966 0.562306
Si Si4 0.431405 0.226606 0.483440
Si Si5 0.125000 0.125000 0.797681
O O1 0.083347 0.442867 0.727525
O O2 0.171690 0.562723 0.732019
O O3 0.185776 0.467888 0.815412
O O4 0.024795 0.524147 0.799925
O O5 0.625000 0.918150 0.625000
O O6 0.608554 0.810193 0.694373
O O7 0.463629 0.875092 0.665643
O O8 0.215168 0.625000 0.625000
O O9 0.291229 0.581304 0.533749
O O10 0.391656 0.302484 0.508186
#
# Coordination Sequence:
#
# PCOD9515309 Si02
#       5
#    32  32  32  32  16
#     4   9  21  38  56  92 129 157 210 267 307 389
#     4  10  22  40  61  90 121 161 207 253 322 372
#     4  10  21  36  61  91 127 169 209 257 327 383
#     4  10  21  39  59  87 122 164 210 262 310 376
#     4  10  22  40  63  84 122 164 201 258 308 376
#
# _framework density 22.355416000000002
#
# number of rings (size 3 to 8) (size 9 to 14) (size 15 to 20)
#    0.000    2.222    0.000    1.333    6.222    2.667 
#    8.000    0.556    0.000    0.000    0.000    0.000 
#    0.000    0.000    0.000    0.000    0.000    0.000 
#
# Total GULP energy -200689.802048 kJ/mol
# GULP energy per Si atom -5574.716724 kJ/mol
# Density = 2.230453 g / cm^3
# Si number density = 22.355416 Si / 1000 Ang^3
#
#
#
# Elastic Constant Matrix: (Units=GPa)
#
#
# Indices 1 2 3 4 5 6 
#
# 1 179.7962 31.6921 23.4462 0.0000 0.0000 0.0000
# 2 31.6921 101.0041 16.2048 0.0000 0.0000 0.0000
# 3 23.4462 16.2048 51.3623 0.0000 0.0000 0.0000
# 4 0.0000 0.0000 0.0000 37.5260 0.0000 0.0000
# 5 0.0000 0.0000 0.0000 0.0000 6.6222 0.0000
# 6 0.0000 0.0000 0.0000 0.0000 0.0000 41.8020
#
#
#
# Elastic Compliance Matrix: (Units=1/GPa)
#
#
# Indices 1 2 3 4 5 6 
#
# 1 0.006137 -0.001555 -0.002311 0.000000 0.000000 0.000000
# 2 -0.001555 0.010822 -0.002705 0.000000 0.000000 0.000000
# 3 -0.002311 -0.002705 0.021378 0.000000 0.000000 0.000000
# 4 0.000000 0.000000 0.000000 0.026648 0.000000 0.000000
# 5 0.000000 0.000000 0.000000 0.000000 0.151008 0.000000
# 6 0.000000 0.000000 0.000000 0.000000 0.000000 0.023922
#
#
# Mechanical properties :
#
#
# Convention : Reuss Voigt Hill
#
# Bulk Modulus (GPa) = 39.68838 52.76097 46.22468
# Shear Modulus (GPa) = 19.12371 34.57800 26.85086
#
# Velocity S-wave (km/s) = 2.92796 3.93713 3.46943
# Velocity P-wave (km/s) = 5.40579 6.65734 6.06394
#
# Compressibility (1/GPa) = 0.02519629
#
# Stress axis : x y z
#
# Youngs Moduli (GPa) = 162.93803 92.40086 46.77750
#
# Poissons Ratio (x) = 0.14368 0.10810
# Poissons Ratio (y) = 0.25336 0.12652
# Poissons Ratio (z) = 0.37655 0.24991
#
# Static dielectric constant tensor:
#      x y z
#    x 1.933030 0.000000 0.000000 
#    y 0.000000 1.881150 0.000000 
#    z 0.000000 0.000000 1.825810 
# 
# From -- ./inp_files/52060.got.cif
#   From: 2010.05.17/outbox.cif.g08.bks.cpg/sg70_27_cif.got.tgz:52060.got - 2010.06.03 15:57:51.
