data_PCOD9515029
_publ_section_title
;
Structure prediction by ZEFSAII (Michael W. Deem and Ramdas Pophale) SiO2 
 PCOD9515029
Probable space group: F D D D
;
_chemical_formula_sum "Si O2"
_cell_formula_units_Z 80
_cell_length_a 13.954723
_cell_length_b 6.827006
_cell_length_c 36.405138
_cell_angle_alpha 90.000000
_cell_angle_beta 90.000000
_cell_angle_gamma 90.000000
_cell_volume 3468.280278
_symmetry_space_group_name_H-M "F D D D"
_symmetry_group_IT_number 70
_space_group.IT_coordinate_system_code '2'
_symmetry_cell_setting 'orthorhombic'
loop_
_space_group_symop_operation_xyz
x,y,z
1/4-x,1/4-y,z
x,1/4-y,1/4-z
1/4-x,y,1/4-z
-x,-y,-z
3/4+x,3/4+y,-z
-x,3/4+y,3/4+z
3/4+x,-y,3/4+z
x,1/2+y,1/2+z
1/4-x,3/4-y,1/2+z
x,3/4-y,3/4-z
1/4-x,1/2+y,3/4-z
-x,1/2-y,1/2-z
3/4+x,1/4+y,1/2-z
-x,1/4+y,1/4+z
3/4+x,1/2-y,1/4+z
1/2+x,y,1/2+z
3/4-x,1/4-y,1/2+z
1/2+x,1/4-y,3/4-z
3/4-x,y,3/4-z
1/2-x,-y,1/2-z
1/4+x,3/4+y,1/2-z
1/2-x,3/4+y,1/4+z
1/4+x,-y,1/4+z
1/2+x,1/2+y,z
3/4-x,3/4-y,z
1/2+x,3/4-y,1/4-z
3/4-x,1/2+y,1/4-z
1/2-x,1/2-y,-z
1/4+x,1/4+y,-z
1/2-x,1/4+y,3/4+z
1/4+x,1/2-y,3/4+z
loop_
_atom_site_type_symbol
_atom_site_label
_atom_site_fract_x
_atom_site_fract_y
_atom_site_fract_z
Si Si1 0.375000 0.875000 0.074297
Si Si2 0.483296 0.639705 0.366130
Si Si3 0.764180 0.306429 0.457990
O O1 0.451190 0.961770 0.103403
O O2 0.436917 0.725513 0.050546
O O3 0.493343 0.875000 0.375000
O O4 0.375000 0.588624 0.375000
O O5 0.503409 0.637394 0.322637
O O6 0.875000 0.375000 0.452341
O O7 0.750000 0.250000 0.500000
#
# Coordination Sequence:
#
# PCOD9515029 Si02
#       3
#    16  32  32
#     4  10  20  38  70  94 127 184 235 272 362 432
#     4   9  16  37  62  85 122 174 221 278 344 410
#     4  11  23  40  63  96 138 177 225 295 361 416
#
# _framework density 23.066185000000001
#
# number of rings (size 3 to 8) (size 9 to 14) (size 15 to 20)
#    0.000    2.000    8.000    0.000    2.800    1.600 
#    0.000    0.000    0.000   10.800    0.000    0.000 
#    0.000    0.000    0.000    0.000    0.000    0.000 
#
# Total GULP energy -111700.292520 kJ/mol
# GULP energy per Si atom -5585.014626 kJ/mol
# Density = 2.301369 g / cm^3
# Si number density = 23.066185 Si / 1000 Ang^3
#
#
#
# Elastic Constant Matrix: (Units=GPa)
#
#
# Indices 1 2 3 4 5 6 
#
# 1 212.0556 44.4817 79.0446 0.0000 0.0000 0.0000
# 2 44.4817 93.0769 66.5614 0.0000 0.0000 0.0000
# 3 79.0446 66.5614 265.8375 0.0000 0.0000 0.0000
# 4 0.0000 0.0000 0.0000 41.8676 0.0000 0.0000
# 5 0.0000 0.0000 0.0000 0.0000 40.8646 0.0000
# 6 0.0000 0.0000 0.0000 0.0000 0.0000 28.1437
#
#
#
# Elastic Compliance Matrix: (Units=1/GPa)
#
#
# Indices 1 2 3 4 5 6 
#
# 1 0.005538 -0.001789 -0.001199 0.000000 0.000000 0.000000
# 2 -0.001789 0.013665 -0.002890 0.000000 0.000000 0.000000
# 3 -0.001199 -0.002890 0.004842 0.000000 0.000000 0.000000
# 4 0.000000 0.000000 0.000000 0.023885 0.000000 0.000000
# 5 0.000000 0.000000 0.000000 0.000000 0.024471 0.000000
# 6 0.000000 0.000000 0.000000 0.000000 0.000000 0.035532
#
#
# Mechanical properties :
#
#
# Convention : Reuss Voigt Hill
#
# Bulk Modulus (GPa) = 81.36877 105.68281 93.52579
# Shear Modulus (GPa) = 40.39287 47.56733 43.98010
#
# Velocity S-wave (km/s) = 4.18924 4.54608 4.37131
# Velocity P-wave (km/s) = 7.66501 8.57161 8.13096
#
# Compressibility (1/GPa) = 0.01228973
#
# Stress axis : x y z
#
# Youngs Moduli (GPa) = 180.57432 73.17789 206.54431
#
# Poissons Ratio (x) = 0.13095 0.24756
# Poissons Ratio (y) = 0.32312 0.59681
# Poissons Ratio (z) = 0.21644 0.21145
#
# Static dielectric constant tensor:
#      x y z
#    x 1.921170 0.000000 0.000000 
#    y 0.000000 2.061540 0.000000 
#    z 0.000000 0.000000 1.865040 
# 
# From -- ./inp_files/64204.got.cif
#   From: 2010.05.17/outbox.cif.g08.bks.cpg/sg70_33_cif.got.tgz:64204.got - 2010.06.03 15:57:51.
