data_PCOD9515079
_publ_section_title
;
Structure prediction by ZEFSAII (Michael W. Deem and Ramdas Pophale) SiO2 
 PCOD9515079
Probable space group: F D D D
;
_chemical_formula_sum "Si O2"
_cell_formula_units_Z 168
_cell_length_a 17.059727
_cell_length_b 16.943958
_cell_length_c 21.426350
_cell_angle_alpha 90.000000
_cell_angle_beta 90.000000
_cell_angle_gamma 90.000000
_cell_volume 6193.485685
_symmetry_space_group_name_H-M "F D D D"
_symmetry_group_IT_number 70
_space_group.IT_coordinate_system_code '2'
_symmetry_cell_setting 'orthorhombic'
loop_
_space_group_symop_operation_xyz
x,y,z
1/4-x,1/4-y,z
x,1/4-y,1/4-z
1/4-x,y,1/4-z
-x,-y,-z
3/4+x,3/4+y,-z
-x,3/4+y,3/4+z
3/4+x,-y,3/4+z
x,1/2+y,1/2+z
1/4-x,3/4-y,1/2+z
x,3/4-y,3/4-z
1/4-x,1/2+y,3/4-z
-x,1/2-y,1/2-z
3/4+x,1/4+y,1/2-z
-x,1/4+y,1/4+z
3/4+x,1/2-y,1/4+z
1/2+x,y,1/2+z
3/4-x,1/4-y,1/2+z
1/2+x,1/4-y,3/4-z
3/4-x,y,3/4-z
1/2-x,-y,1/2-z
1/4+x,3/4+y,1/2-z
1/2-x,3/4+y,1/4+z
1/4+x,-y,1/4+z
1/2+x,1/2+y,z
3/4-x,3/4-y,z
1/2+x,3/4-y,1/4-z
3/4-x,1/2+y,1/4-z
1/2-x,1/2-y,-z
1/4+x,1/4+y,-z
1/2-x,1/4+y,3/4+z
1/4+x,1/2-y,3/4+z
loop_
_atom_site_type_symbol
_atom_site_label
_atom_site_fract_x
_atom_site_fract_y
_atom_site_fract_z
Si Si1 0.444894 0.280646 0.326362
Si Si2 0.105551 0.209658 0.337844
Si Si3 0.875000 0.875000 0.875000
Si Si4 0.023815 0.533918 0.724392
Si Si5 0.967045 0.102970 0.864357
Si Si6 0.107837 0.944894 0.454949
O O1 0.375000 0.299176 0.375000
O O2 0.478235 0.196859 0.353661
O O3 0.519967 0.336056 0.311607
O O4 0.410705 0.260104 0.258329
O O5 0.125000 0.125000 0.369626
O O6 0.164781 0.218321 0.281129
O O7 0.115171 0.278677 0.386437
O O8 0.013531 0.191976 0.330019
O O9 0.929940 0.925398 0.831009
O O10 0.009727 0.445436 0.698211
O O11 0.942021 0.581872 0.733463
O O12 0.875000 0.094941 0.875000
#
# Coordination Sequence:
#
# PCOD9515079 Si02
#       6
#    32  32   8  32  32  32
#     4  10  20  39  69  95 133 171 224 285 340 407
#     4  11  21  40  65  89 131 177 218 275 339 411
#     4  12  24  44  60  96 142 176 230 292 326 412
#     4  11  24  41  63  94 136 178 225 279 344 406
#     4  10  22  39  62  98 123 173 227 271 336 420
#     4  10  22  39  64  98 125 174 225 276 336 412
#
# _framework density 27.125274999999998
#
# number of rings (size 3 to 8) (size 9 to 14) (size 15 to 20)
#    0.000    1.524    3.810    1.143    2.667    0.762 
#    6.857    0.000    0.000    0.571    0.000    0.000 
#    0.000    0.000    0.000    0.000    0.000    0.000 
#
# Total GULP energy -234319.087689 kJ/mol
# GULP energy per Si atom -5579.025897 kJ/mol
# Density = 2.706354 g / cm^3
# Si number density = 27.125275 Si / 1000 Ang^3
#
#
#
# Elastic Constant Matrix: (Units=GPa)
#
#
# Indices 1 2 3 4 5 6 
#
# 1 237.3267 16.0964 76.0952 0.0000 0.0000 0.0000
# 2 16.0964 80.4130 25.2807 0.0000 0.0000 0.0000
# 3 76.0952 25.2807 159.2904 0.0000 0.0000 0.0000
# 4 0.0000 0.0000 0.0000 44.7358 0.0000 0.0000
# 5 0.0000 0.0000 0.0000 0.0000 65.3804 0.0000
# 6 0.0000 0.0000 0.0000 0.0000 0.0000 18.4646
#
#
#
# Elastic Compliance Matrix: (Units=1/GPa)
#
#
# Indices 1 2 3 4 5 6 
#
# 1 0.004981 -0.000262 -0.002338 0.000000 0.000000 0.000000
# 2 -0.000262 0.013103 -0.001954 0.000000 0.000000 0.000000
# 3 -0.002338 -0.001954 0.007705 0.000000 0.000000 0.000000
# 4 0.000000 0.000000 0.000000 0.022353 0.000000 0.000000
# 5 0.000000 0.000000 0.000000 0.000000 0.015295 0.000000
# 6 0.000000 0.000000 0.000000 0.000000 0.000000 0.054158
#
#
# Mechanical properties :
#
#
# Convention : Reuss Voigt Hill
#
# Bulk Modulus (GPa) = 59.95213 79.10830 69.53022
# Shear Modulus (GPa) = 37.80340 49.68669 43.74504
#
# Velocity S-wave (km/s) = 3.73722 4.28454 4.02021
# Velocity P-wave (km/s) = 6.38533 7.32828 6.87299
#
# Compressibility (1/GPa) = 0.01667997
#
# Stress axis : x y z
#
# Youngs Moduli (GPa) = 200.76360 76.32039 129.78835
#
# Poissons Ratio (x) = 0.02000 0.30343
# Poissons Ratio (y) = 0.05261 0.25365
# Poissons Ratio (z) = 0.46936 0.14915
#
# Static dielectric constant tensor:
#      x y z
#    x 2.443800 0.000000 0.000000 
#    y 0.000000 2.252470 0.000000 
#    z 0.000000 0.000000 2.111670 
# 
# From -- ./inp_files/42819.got.cif
#   From: 2010.05.17/outbox.cif.g08.bks.cpg/sg70_22_cif.got.tgz:42819.got - 2010.06.03 15:57:51.
