data_PCOD9515204
_publ_section_title
;
Structure prediction by ZEFSAII (Michael W. Deem and Ramdas Pophale) SiO2 
 PCOD9515204
Probable space group: F D D D
;
_chemical_formula_sum "Si O2"
_cell_formula_units_Z 112
_cell_length_a 10.868091
_cell_length_b 25.601403
_cell_length_c 16.397099
_cell_angle_alpha 90.000000
_cell_angle_beta 90.000000
_cell_angle_gamma 90.000000
_cell_volume 4562.302222
_symmetry_space_group_name_H-M "F D D D"
_symmetry_group_IT_number 70
_space_group.IT_coordinate_system_code '2'
_symmetry_cell_setting 'orthorhombic'
loop_
_space_group_symop_operation_xyz
x,y,z
1/4-x,1/4-y,z
x,1/4-y,1/4-z
1/4-x,y,1/4-z
-x,-y,-z
3/4+x,3/4+y,-z
-x,3/4+y,3/4+z
3/4+x,-y,3/4+z
x,1/2+y,1/2+z
1/4-x,3/4-y,1/2+z
x,3/4-y,3/4-z
1/4-x,1/2+y,3/4-z
-x,1/2-y,1/2-z
3/4+x,1/4+y,1/2-z
-x,1/4+y,1/4+z
3/4+x,1/2-y,1/4+z
1/2+x,y,1/2+z
3/4-x,1/4-y,1/2+z
1/2+x,1/4-y,3/4-z
3/4-x,y,3/4-z
1/2-x,-y,1/2-z
1/4+x,3/4+y,1/2-z
1/2-x,3/4+y,1/4+z
1/4+x,-y,1/4+z
1/2+x,1/2+y,z
3/4-x,3/4-y,z
1/2+x,3/4-y,1/4-z
3/4-x,1/2+y,1/4-z
1/2-x,1/2-y,-z
1/4+x,1/4+y,-z
1/2-x,1/4+y,3/4+z
1/4+x,1/2-y,3/4+z
loop_
_atom_site_type_symbol
_atom_site_label
_atom_site_fract_x
_atom_site_fract_y
_atom_site_fract_z
Si Si1 0.875000 0.194829 0.375000
Si Si2 0.899426 0.786102 0.155443
Si Si3 0.766595 0.572690 0.677991
Si Si4 0.749090 0.389488 0.514598
O O1 0.747148 0.222596 0.352795
O O2 0.831157 0.158409 0.450164
O O3 0.974477 0.733415 0.135030
O O4 0.950315 0.827965 0.091339
O O5 0.929807 0.811015 0.244034
O O6 0.745645 0.625000 0.625000
O O7 0.903571 0.578535 0.712922
O O8 0.875000 0.375000 0.469817
#
# Coordination Sequence:
#
# PCOD9515204 Si02
#       4
#    16  32  32  32
#     4  10  20  42  71  88 127 196 236 274 362 436
#     4  10  23  44  69 101 144 191 239 295 366 435
#     4  11  24  43  70 106 142 183 241 304 361 434
#     4  10  21  42  68  93 139 191 235 291 359 435
#
# _framework density 24.549008000000001
#
# number of rings (size 3 to 8) (size 9 to 14) (size 15 to 20)
#    0.000    1.714    2.857    0.000    0.000    5.143 
#    0.000   17.143    0.000    1.714    0.000    0.000 
#    0.000    0.000    0.000    0.000    0.000    0.000 
#
# Total GULP energy -156519.653216 kJ/mol
# GULP energy per Si atom -5589.987615 kJ/mol
# Density = 2.449313 g / cm^3
# Si number density = 24.549008 Si / 1000 Ang^3
#
#
#
# Elastic Constant Matrix: (Units=GPa)
#
#
# Indices 1 2 3 4 5 6 
#
# 1 193.1948 34.2263 43.9517 0.0000 0.0000 0.0000
# 2 34.2263 149.1691 61.7543 0.0000 0.0000 0.0000
# 3 43.9517 61.7543 76.2805 0.0000 0.0000 0.0000
# 4 0.0000 0.0000 0.0000 23.1060 0.0000 0.0000
# 5 0.0000 0.0000 0.0000 0.0000 -29.9082 0.0000
# 6 0.0000 0.0000 0.0000 0.0000 0.0000 12.7986
#
#
#
# Elastic Compliance Matrix: (Units=1/GPa)
#
#
# Indices 1 2 3 4 5 6 
#
# 1 0.005958 0.000081 -0.003499 0.000000 0.000000 0.000000
# 2 0.000081 0.010084 -0.008211 0.000000 0.000000 0.000000
# 3 -0.003499 -0.008211 0.021773 0.000000 0.000000 0.000000
# 4 0.000000 0.000000 0.000000 0.043279 0.000000 0.000000
# 5 0.000000 0.000000 0.000000 0.000000 -0.033436 0.000000
# 6 0.000000 0.000000 0.000000 0.000000 0.000000 0.078134
#
#
# Mechanical properties :
#
#
# Convention : Reuss Voigt Hill
#
# Bulk Modulus (GPa) = 68.68858 77.61210 73.15034
# Shear Modulus (GPa) = 32.48856 19.78008 26.13432
#
# Velocity S-wave (km/s) = 3.64183 2.84163 3.26633
# Velocity P-wave (km/s) = 6.76201 6.51539 6.63985
#
# Compressibility (1/GPa) = 0.01455846
#
# Stress axis : x y z
#
# Youngs Moduli (GPa) = 167.85196 99.16387 45.92923
#
# Poissons Ratio (x) = -0.00808 0.16069
# Poissons Ratio (y) = -0.01367 0.37712
# Poissons Ratio (z) = 0.58725 0.81422
#
# Static dielectric constant tensor:
#      x y z
#    x 1.959290 0.000000 0.000000 
#    y 0.000000 1.933560 0.000000 
#    z 0.000000 0.000000 1.946960 
# 
# From -- ./inp_files/16296.got.cif
#   From: 2010.05.17/outbox.cif.g08.bks.cpg/sg70_9_cif.got.tgz:16296.got - 2010.06.03 15:57:51.
