data_PCOD9515998
_publ_section_title
;
Structure prediction by ZEFSAII (Michael W. Deem and Ramdas Pophale) SiO2 
 PCOD9515998
Probable space group: F D D D
;
_chemical_formula_sum "Si O2"
_cell_formula_units_Z 144
_cell_length_a 22.033920
_cell_length_b 13.186196
_cell_length_c 21.102578
_cell_angle_alpha 90.000000
_cell_angle_beta 90.000000
_cell_angle_gamma 90.000000
_cell_volume 6131.218723
_symmetry_space_group_name_H-M "F D D D"
_symmetry_group_IT_number 70
_space_group.IT_coordinate_system_code '2'
_symmetry_cell_setting 'orthorhombic'
loop_
_space_group_symop_operation_xyz
x,y,z
1/4-x,1/4-y,z
x,1/4-y,1/4-z
1/4-x,y,1/4-z
-x,-y,-z
3/4+x,3/4+y,-z
-x,3/4+y,3/4+z
3/4+x,-y,3/4+z
x,1/2+y,1/2+z
1/4-x,3/4-y,1/2+z
x,3/4-y,3/4-z
1/4-x,1/2+y,3/4-z
-x,1/2-y,1/2-z
3/4+x,1/4+y,1/2-z
-x,1/4+y,1/4+z
3/4+x,1/2-y,1/4+z
1/2+x,y,1/2+z
3/4-x,1/4-y,1/2+z
1/2+x,1/4-y,3/4-z
3/4-x,y,3/4-z
1/2-x,-y,1/2-z
1/4+x,3/4+y,1/2-z
1/2-x,3/4+y,1/4+z
1/4+x,-y,1/4+z
1/2+x,1/2+y,z
3/4-x,3/4-y,z
1/2+x,3/4-y,1/4-z
3/4-x,1/2+y,1/4-z
1/2-x,1/2-y,-z
1/4+x,1/4+y,-z
1/2-x,1/4+y,3/4+z
1/4+x,1/2-y,3/4+z
loop_
_atom_site_type_symbol
_atom_site_label
_atom_site_fract_x
_atom_site_fract_y
_atom_site_fract_z
Si Si1 0.666760 0.329124 0.494786
Si Si2 0.125000 0.625000 0.812385
Si Si3 0.410614 0.774200 0.787116
Si Si4 0.481984 0.971186 0.394198
Si Si5 0.732800 0.155616 0.913481
O O1 0.630146 0.226529 0.478776
O O2 0.629992 0.430797 0.510067
O O3 0.712644 0.329142 0.434661
O O4 0.703406 0.300712 0.557571
O O5 0.183271 0.648164 0.857178
O O6 0.375000 0.875000 0.807292
O O7 0.448303 0.811476 0.726222
O O8 0.458102 0.728298 0.838449
O O9 0.443141 0.875000 0.375000
O O10 0.496004 0.039354 0.333424
#
# Coordination Sequence:
#
# PCOD9515998 Si02
#       5
#    32  16  32  32  32
#     4  10  24  42  72 105 137 180 239 286 348 426
#     4  10  22  46  67 110 134 185 240 286 356 422
#     4  11  23  45  69 103 143 188 230 285 348 438
#     4  10  22  44  72 103 140 180 231 297 350 412
#     4  10  23  43  70 101 139 187 227 284 361 411
#
# _framework density 23.486359
#
# number of rings (size 3 to 8) (size 9 to 14) (size 15 to 20)
#    0.000    1.778    1.111    1.333    6.222    0.889 
#   16.000    1.111    0.000    0.000    0.000    0.000 
#    0.000    0.000    0.000    0.000    0.000    0.000 
#
# Total GULP energy -200896.087160 kJ/mol
# GULP energy per Si atom -5580.446866 kJ/mol
# Density = 2.343290 g / cm^3
# Si number density = 23.486359 Si / 1000 Ang^3
#
#
#
# Elastic Constant Matrix: (Units=GPa)
#
#
# Indices 1 2 3 4 5 6 
#
# 1 124.8276 99.6235 44.7540 0.0000 0.0000 0.0000
# 2 99.6235 232.3791 69.1809 0.0000 0.0000 0.0000
# 3 44.7540 69.1809 70.9401 0.0000 0.0000 0.0000
# 4 0.0000 0.0000 0.0000 32.9237 0.0000 0.0000
# 5 0.0000 0.0000 0.0000 0.0000 -123.1503 0.0000
# 6 0.0000 0.0000 0.0000 0.0000 0.0000 -19.5133
#
#
#
# Elastic Compliance Matrix: (Units=1/GPa)
#
#
# Indices 1 2 3 4 5 6 
#
# 1 0.012888 -0.004375 -0.003864 0.000000 0.000000 0.000000
# 2 -0.004375 0.007549 -0.004602 0.000000 0.000000 0.000000
# 3 -0.003864 -0.004602 0.021022 0.000000 0.000000 0.000000
# 4 0.000000 0.000000 0.000000 0.030373 0.000000 0.000000
# 5 0.000000 0.000000 0.000000 0.000000 -0.008120 0.000000
# 6 0.000000 0.000000 0.000000 0.000000 0.000000 -0.051247
#
#
# Mechanical properties :
#
#
# Convention : Reuss Voigt Hill
#
# Bulk Modulus (GPa) = 63.38334 95.02929 79.20631
# Shear Modulus (GPa) = 115.19375 -7.64209 53.77583
#
# Velocity S-wave (km/s) = 7.01096 -1.80580 4.79023
# Velocity P-wave (km/s) = 9.62206 6.01676 8.02451
#
# Compressibility (1/GPa) = 0.01577702
#
# Stress axis : x y z
#
# Youngs Moduli (GPa) = 77.59165 132.47192 47.56955
#
# Poissons Ratio (x) = 0.57953 0.18383
# Poissons Ratio (y) = 0.33945 0.21890
# Poissons Ratio (z) = 0.29984 0.60959
#
# Static dielectric constant tensor:
#      x y z
#    x 2.039130 0.000000 0.000000 
#    y 0.000000 1.900870 0.000000 
#    z 0.000000 0.000000 1.936380 
# 
# From -- ./inp_files/60980.got.cif
#   From: 2010.05.17/outbox.cif.g08.bks.cpg/sg70_31_cif.got.tgz:60980.got - 2010.06.03 15:57:51.
