data_PCOD9515350
_publ_section_title
;
Structure prediction by ZEFSAII (Michael W. Deem and Ramdas Pophale) SiO2 
 PCOD9515350
Probable space group: F D D D
;
_chemical_formula_sum "Si O2"
_cell_formula_units_Z 160
_cell_length_a 11.857534
_cell_length_b 30.258210
_cell_length_c 18.205569
_cell_angle_alpha 90.000000
_cell_angle_beta 90.000000
_cell_angle_gamma 90.000000
_cell_volume 6531.935209
_symmetry_space_group_name_H-M "F D D D"
_symmetry_group_IT_number 70
_space_group.IT_coordinate_system_code '2'
_symmetry_cell_setting 'orthorhombic'
loop_
_space_group_symop_operation_xyz
x,y,z
1/4-x,1/4-y,z
x,1/4-y,1/4-z
1/4-x,y,1/4-z
-x,-y,-z
3/4+x,3/4+y,-z
-x,3/4+y,3/4+z
3/4+x,-y,3/4+z
x,1/2+y,1/2+z
1/4-x,3/4-y,1/2+z
x,3/4-y,3/4-z
1/4-x,1/2+y,3/4-z
-x,1/2-y,1/2-z
3/4+x,1/4+y,1/2-z
-x,1/4+y,1/4+z
3/4+x,1/2-y,1/4+z
1/2+x,y,1/2+z
3/4-x,1/4-y,1/2+z
1/2+x,1/4-y,3/4-z
3/4-x,y,3/4-z
1/2-x,-y,1/2-z
1/4+x,3/4+y,1/2-z
1/2-x,3/4+y,1/4+z
1/4+x,-y,1/4+z
1/2+x,1/2+y,z
3/4-x,3/4-y,z
1/2+x,3/4-y,1/4-z
3/4-x,1/2+y,1/4-z
1/2-x,1/2-y,-z
1/4+x,1/4+y,-z
1/2-x,1/4+y,3/4+z
1/4+x,1/2-y,3/4+z
loop_
_atom_site_type_symbol
_atom_site_label
_atom_site_fract_x
_atom_site_fract_y
_atom_site_fract_z
Si Si1 0.010912 0.985777 0.085152
Si Si2 0.416150 0.683189 0.754496
Si Si3 0.498459 0.642166 0.282262
Si Si4 0.380842 0.187472 0.090569
Si Si5 0.146744 0.533010 0.037040
O O1 0.125000 0.000743 0.125000
O O2 0.005374 0.933343 0.087629
O O3 0.906414 0.013124 0.115700
O O4 0.000000 0.000000 0.000000
O O5 0.343610 0.646026 0.795190
O O6 0.410099 0.667596 0.669079
O O7 0.550005 0.692921 0.760665
O O8 0.358823 0.730658 0.771592
O O9 0.625000 0.625000 0.281440
O O10 0.468044 0.662998 0.202361
O O11 0.481137 0.194423 0.031772
O O12 0.125000 0.537651 0.125000
#
# Coordination Sequence:
#
# PCOD9515350 Si02
#       5
#    32  32  32  32  32
#     4  10  24  43  68  99 137 184 233 298 373 450
#     4  10  21  37  64  91 127 175 231 294 356 443
#     4  11  24  39  60  99 137 174 230 304 370 427
#     4  10  22  37  65  90 128 177 231 291 356 446
#     4   9  20  40  61  90 123 176 231 281 360 443
#
# _framework density 24.495038000000001
#
# number of rings (size 3 to 8) (size 9 to 14) (size 15 to 20)
#    0.000    2.000    0.000    1.800   11.200    2.400 
#    0.000    5.000    0.000    0.000    0.000    0.000 
#    0.000    0.000    0.000    0.000    0.000    0.000 
#
# Total GULP energy -223307.381776 kJ/mol
# GULP energy per Si atom -5582.684544 kJ/mol
# Density = 2.443929 g / cm^3
# Si number density = 24.495038 Si / 1000 Ang^3
#
#
#
# Elastic Constant Matrix: (Units=GPa)
#
#
# Indices 1 2 3 4 5 6 
#
# 1 108.2675 60.4593 39.5232 0.0000 0.0000 0.0000
# 2 60.4593 117.8491 7.2199 0.0000 0.0000 0.0000
# 3 39.5232 7.2199 71.0336 0.0000 0.0000 0.0000
# 4 0.0000 0.0000 0.0000 30.9801 0.0000 0.0000
# 5 0.0000 0.0000 0.0000 0.0000 20.7389 0.0000
# 6 0.0000 0.0000 0.0000 0.0000 0.0000 38.3422
#
#
#
# Elastic Compliance Matrix: (Units=1/GPa)
#
#
# Indices 1 2 3 4 5 6 
#
# 1 0.016928 -0.008158 -0.008589 0.000000 0.000000 0.000000
# 2 -0.008158 0.012470 0.003272 0.000000 0.000000 0.000000
# 3 -0.008589 0.003272 0.018524 0.000000 0.000000 0.000000
# 4 0.000000 0.000000 0.000000 0.032279 0.000000 0.000000
# 5 0.000000 0.000000 0.000000 0.000000 0.048219 0.000000
# 6 0.000000 0.000000 0.000000 0.000000 0.000000 0.026081
#
#
# Mechanical properties :
#
#
# Convention : Reuss Voigt Hill
#
# Bulk Modulus (GPa) = 47.68529 56.83948 52.26239
# Shear Modulus (GPa) = 26.53333 30.67543 28.60438
#
# Velocity S-wave (km/s) = 3.29479 3.54264 3.42096
# Velocity P-wave (km/s) = 5.82956 6.32365 6.08163
#
# Compressibility (1/GPa) = 0.02097083
#
# Stress axis : x y z
#
# Youngs Moduli (GPa) = 59.07520 80.19091 53.98273
#
# Poissons Ratio (x) = 0.65420 0.46368
# Poissons Ratio (y) = 0.48194 -0.17661
# Poissons Ratio (z) = 0.50742 -0.26236
#
# Static dielectric constant tensor:
#      x y z
#    x 2.000600 0.000000 0.000000 
#    y 0.000000 2.059960 0.000000 
#    z 0.000000 0.000000 2.191000 
# 
# From -- ./inp_files/50288.got.cif
#   From: 2010.05.17/outbox.cif.g08.bks.cpg/sg70_26_cif.got.tgz:50288.got - 2010.06.03 15:57:51.
