data_PCOD9515469
_publ_section_title
;
Structure prediction by ZEFSAII (Michael W. Deem and Ramdas Pophale) SiO2 
 PCOD9515469
Probable space group: F D D D
;
_chemical_formula_sum "Si O2"
_cell_formula_units_Z 176
_cell_length_a 14.376344
_cell_length_b 28.315000
_cell_length_c 22.096422
_cell_angle_alpha 90.000000
_cell_angle_beta 90.000000
_cell_angle_gamma 90.000000
_cell_volume 8994.706103
_symmetry_space_group_name_H-M "F D D D"
_symmetry_group_IT_number 70
_space_group.IT_coordinate_system_code '2'
_symmetry_cell_setting 'orthorhombic'
loop_
_space_group_symop_operation_xyz
x,y,z
1/4-x,1/4-y,z
x,1/4-y,1/4-z
1/4-x,y,1/4-z
-x,-y,-z
3/4+x,3/4+y,-z
-x,3/4+y,3/4+z
3/4+x,-y,3/4+z
x,1/2+y,1/2+z
1/4-x,3/4-y,1/2+z
x,3/4-y,3/4-z
1/4-x,1/2+y,3/4-z
-x,1/2-y,1/2-z
3/4+x,1/4+y,1/2-z
-x,1/4+y,1/4+z
3/4+x,1/2-y,1/4+z
1/2+x,y,1/2+z
3/4-x,1/4-y,1/2+z
1/2+x,1/4-y,3/4-z
3/4-x,y,3/4-z
1/2-x,-y,1/2-z
1/4+x,3/4+y,1/2-z
1/2-x,3/4+y,1/4+z
1/4+x,-y,1/4+z
1/2+x,1/2+y,z
3/4-x,3/4-y,z
1/2+x,3/4-y,1/4-z
3/4-x,1/2+y,1/4-z
1/2-x,1/2-y,-z
1/4+x,1/4+y,-z
1/2-x,1/4+y,3/4+z
1/4+x,1/2-y,3/4+z
loop_
_atom_site_type_symbol
_atom_site_label
_atom_site_fract_x
_atom_site_fract_y
_atom_site_fract_z
Si Si1 0.875000 0.375000 0.522872
Si Si2 0.501008 0.695114 0.916204
Si Si3 0.429504 0.961211 0.437112
Si Si4 0.865400 0.530386 0.536612
Si Si5 0.305009 0.705180 0.972615
Si Si6 0.985817 0.380189 0.802512
O O1 0.790864 0.394727 0.563216
O O2 0.848507 0.331491 0.480753
O O3 0.574876 0.736191 0.927052
O O4 0.414799 0.710231 0.959228
O O5 0.479530 0.694239 0.845346
O O6 0.375000 0.958286 0.375000
O O7 0.539893 0.955552 0.429620
O O8 0.400274 0.009505 0.472008
O O9 0.787832 0.571258 0.533976
O O10 0.250000 0.750000 0.000000
O O11 0.286175 0.662048 0.017466
O O12 0.995145 0.375000 0.875000
O O13 0.875000 0.375000 0.788818
#
# Coordination Sequence:
#
# PCOD9515469 Si02
#       6
#    16  32  32  32  32  32
#     4  10  21  40  62  88 127 154 214 252 316 382
#     4  10  23  41  62  91 126 165 209 264 316 389
#     4  10  22  40  63  93 122 169 209 265 324 388
#     4  10  22  41  59  90 128 159 213 267 319 384
#     4  11  23  41  64  91 124 168 211 261 326 379
#     4  11  24  40  62  94 126 167 217 266 322 394
#
# _framework density 19.567064999999999
#
# number of rings (size 3 to 8) (size 9 to 14) (size 15 to 20)
#    0.000    1.636    0.000    3.545    1.273   11.636 
#    9.818    0.000    0.000    0.000    0.000    0.000 
#    0.000    0.000    0.000    0.000    0.000    0.000 
#
# Total GULP energy -245555.234231 kJ/mol
# GULP energy per Si atom -5580.800778 kJ/mol
# Density = 1.952253 g / cm^3
# Si number density = 19.567065 Si / 1000 Ang^3
#
#
#
# Elastic Constant Matrix: (Units=GPa)
#
#
# Indices 1 2 3 4 5 6 
#
# 1 116.1158 32.6402 44.8338 0.0000 0.0000 0.0000
# 2 32.6402 98.3943 35.8734 0.0000 0.0000 0.0000
# 3 44.8338 35.8734 76.7954 0.0000 0.0000 0.0000
# 4 0.0000 0.0000 0.0000 22.7934 0.0000 0.0000
# 5 0.0000 0.0000 0.0000 0.0000 29.4573 0.0000
# 6 0.0000 0.0000 0.0000 0.0000 0.0000 40.2306
#
#
#
# Elastic Compliance Matrix: (Units=1/GPa)
#
#
# Indices 1 2 3 4 5 6 
#
# 1 0.011329 -0.001623 -0.005856 0.000000 0.000000 0.000000
# 2 -0.001623 0.012482 -0.004883 0.000000 0.000000 0.000000
# 3 -0.005856 -0.004883 0.018721 0.000000 0.000000 0.000000
# 4 0.000000 0.000000 0.000000 0.043872 0.000000 0.000000
# 5 0.000000 0.000000 0.000000 0.000000 0.033947 0.000000
# 6 0.000000 0.000000 0.000000 0.000000 0.000000 0.024857
#
#
# Mechanical properties :
#
#
# Convention : Reuss Voigt Hill
#
# Bulk Modulus (GPa) = 56.15360 57.55560 56.85460
# Shear Modulus (GPa) = 28.43014 30.36015 29.39514
#
# Velocity S-wave (km/s) = 3.81590 3.94330 3.88013
# Velocity P-wave (km/s) = 6.94083 7.08599 7.01379
#
# Compressibility (1/GPa) = 0.01780830
#
# Stress axis : x y z
#
# Youngs Moduli (GPa) = 88.26557 80.11553 53.41500
#
# Poissons Ratio (x) = 0.13005 0.31279
# Poissons Ratio (y) = 0.14328 0.26083
# Poissons Ratio (z) = 0.51688 0.39120
#
# Static dielectric constant tensor:
#      x y z
#    x 1.707080 0.000000 0.000000 
#    y 0.000000 1.674090 0.000000 
#    z 0.000000 0.000000 1.664490 
# 
# From -- ./inp_files/51213.got.cif
#   From: 2010.05.17/outbox.cif.g08.bks.cpg/sg70_26_cif.got.tgz:51213.got - 2010.06.03 15:57:51.
