data_PCOD9515928
_publ_section_title
;
Structure prediction by ZEFSAII (Michael W. Deem and Ramdas Pophale) SiO2 
 PCOD9515928
Probable space group: F D D D
;
_chemical_formula_sum "Si O2"
_cell_formula_units_Z 96
_cell_length_a 18.274983
_cell_length_b 22.843809
_cell_length_c 7.957155
_cell_angle_alpha 90.000000
_cell_angle_beta 90.000000
_cell_angle_gamma 90.000000
_cell_volume 3321.875257
_symmetry_space_group_name_H-M "F D D D"
_symmetry_group_IT_number 70
_space_group.IT_coordinate_system_code '2'
_symmetry_cell_setting 'orthorhombic'
loop_
_space_group_symop_operation_xyz
x,y,z
1/4-x,1/4-y,z
x,1/4-y,1/4-z
1/4-x,y,1/4-z
-x,-y,-z
3/4+x,3/4+y,-z
-x,3/4+y,3/4+z
3/4+x,-y,3/4+z
x,1/2+y,1/2+z
1/4-x,3/4-y,1/2+z
x,3/4-y,3/4-z
1/4-x,1/2+y,3/4-z
-x,1/2-y,1/2-z
3/4+x,1/4+y,1/2-z
-x,1/4+y,1/4+z
3/4+x,1/2-y,1/4+z
1/2+x,y,1/2+z
3/4-x,1/4-y,1/2+z
1/2+x,1/4-y,3/4-z
3/4-x,y,3/4-z
1/2-x,-y,1/2-z
1/4+x,3/4+y,1/2-z
1/2-x,3/4+y,1/4+z
1/4+x,-y,1/4+z
1/2+x,1/2+y,z
3/4-x,3/4-y,z
1/2+x,3/4-y,1/4-z
3/4-x,1/2+y,1/4-z
1/2-x,1/2-y,-z
1/4+x,1/4+y,-z
1/2-x,1/4+y,3/4+z
1/4+x,1/2-y,3/4+z
loop_
_atom_site_type_symbol
_atom_site_label
_atom_site_fract_x
_atom_site_fract_y
_atom_site_fract_z
Si Si1 0.524796 0.817700 0.288352
Si Si2 0.433373 0.551016 0.669211
Si Si3 0.078960 0.183974 0.784246
O O1 0.486366 0.875000 0.375000
O O2 0.500000 0.750000 0.250000
O O3 0.427809 0.769893 0.566402
O O4 0.546430 0.830413 0.095008
O O5 0.497910 0.566456 0.542725
O O6 0.351478 0.564620 0.612429
O O7 0.125000 0.125000 0.822210
O O8 0.125000 0.208971 0.625000
#
# Coordination Sequence:
#
# PCOD9515928 Si02
#       3
#    32  32  32
#     4  11  26  49  77 112 164 223 293 364 441 525
#     4  10  24  48  72 117 163 219 288 358 433 540
#     4  10  22  42  78 118 166 222 284 354 448 535
#
# _framework density 28.899338
#
# number of rings (size 3 to 8) (size 9 to 14) (size 15 to 20)
#    0.000    1.667    0.000    2.000    4.667    8.000 
#   24.000    3.333    0.000    0.000    0.000    0.000 
#    0.000    0.000    0.000    0.000    0.000    0.000 
#
# Total GULP energy -133917.040613 kJ/mol
# GULP energy per Si atom -5579.876692 kJ/mol
# Density = 2.883356 g / cm^3
# Si number density = 28.899338 Si / 1000 Ang^3
#
#
#
# Elastic Constant Matrix: (Units=GPa)
#
#
# Indices 1 2 3 4 5 6 
#
# 1 174.6152 72.4235 26.2255 0.0000 0.0000 0.0000
# 2 72.4235 308.2242 86.7597 0.0000 0.0000 0.0000
# 3 26.2255 86.7597 110.6691 0.0000 0.0001 0.0000
# 4 0.0000 0.0000 0.0000 71.1005 0.0000 0.0000
# 5 0.0000 0.0000 0.0001 0.0000 33.6037 0.0000
# 6 0.0000 0.0000 0.0000 0.0000 0.0000 42.1307
#
#
#
# Elastic Compliance Matrix: (Units=1/GPa)
#
#
# Indices 1 2 3 4 5 6 
#
# 1 0.006361 -0.001373 -0.000431 0.000000 0.000000 0.000000
# 2 -0.001373 0.004460 -0.003171 0.000000 0.000000 0.000000
# 3 -0.000431 -0.003171 0.011624 0.000000 0.000000 0.000000
# 4 0.000000 0.000000 0.000000 0.014065 0.000000 0.000000
# 5 0.000000 0.000000 0.000000 0.000000 0.029759 0.000000
# 6 0.000000 0.000000 0.000000 0.000000 0.000000 0.023736
#
#
# Mechanical properties :
#
#
# Convention : Reuss Voigt Hill
#
# Bulk Modulus (GPa) = 80.03296 107.14731 93.59013
# Shear Modulus (GPa) = 48.02248 56.57365 52.29806
#
# Velocity S-wave (km/s) = 4.08084 4.42929 4.25863
# Velocity P-wave (km/s) = 7.06811 7.95705 7.52572
#
# Compressibility (1/GPa) = 0.01249485
#
# Stress axis : x y z
#
# Youngs Moduli (GPa) = 157.20244 224.23540 86.03141
#
# Poissons Ratio (x) = 0.30798 0.03705
# Poissons Ratio (y) = 0.21591 0.27278
# Poissons Ratio (z) = 0.06771 0.71097
#
# Static dielectric constant tensor:
#      x y z
#    x 2.288440 0.000000 0.000000 
#    y 0.000000 2.607370 0.000000 
#    z 0.000000 0.000000 2.235220 
# 
# From -- ./inp_files/9289.got.cif
#   From: 2010.05.17/outbox.cif.g08.bks.cpg/sg70_5_cif.got.tgz:9289.got - 2010.06.03 15:57:51.
