data_PCOD9515662
_publ_section_title
;
Structure prediction by ZEFSAII (Michael W. Deem and Ramdas Pophale) SiO2 
 PCOD9515662
Probable space group: F D D D
;
_chemical_formula_sum "Si O2"
_cell_formula_units_Z 192
_cell_length_a 24.915058
_cell_length_b 31.391790
_cell_length_c 12.325700
_cell_angle_alpha 90.000000
_cell_angle_beta 90.000000
_cell_angle_gamma 90.000000
_cell_volume 9640.278400
_symmetry_space_group_name_H-M "F D D D"
_symmetry_group_IT_number 70
_space_group.IT_coordinate_system_code '2'
_symmetry_cell_setting 'orthorhombic'
loop_
_space_group_symop_operation_xyz
x,y,z
1/4-x,1/4-y,z
x,1/4-y,1/4-z
1/4-x,y,1/4-z
-x,-y,-z
3/4+x,3/4+y,-z
-x,3/4+y,3/4+z
3/4+x,-y,3/4+z
x,1/2+y,1/2+z
1/4-x,3/4-y,1/2+z
x,3/4-y,3/4-z
1/4-x,1/2+y,3/4-z
-x,1/2-y,1/2-z
3/4+x,1/4+y,1/2-z
-x,1/4+y,1/4+z
3/4+x,1/2-y,1/4+z
1/2+x,y,1/2+z
3/4-x,1/4-y,1/2+z
1/2+x,1/4-y,3/4-z
3/4-x,y,3/4-z
1/2-x,-y,1/2-z
1/4+x,3/4+y,1/2-z
1/2-x,3/4+y,1/4+z
1/4+x,-y,1/4+z
1/2+x,1/2+y,z
3/4-x,3/4-y,z
1/2+x,3/4-y,1/4-z
3/4-x,1/2+y,1/4-z
1/2-x,1/2-y,-z
1/4+x,1/4+y,-z
1/2-x,1/4+y,3/4+z
1/4+x,1/2-y,3/4+z
loop_
_atom_site_type_symbol
_atom_site_label
_atom_site_fract_x
_atom_site_fract_y
_atom_site_fract_z
Si Si1 0.240917 0.591286 0.542334
Si Si2 0.415509 0.222028 0.467234
Si Si3 0.822437 0.856676 0.598672
Si Si4 0.279641 0.375000 0.375000
Si Si5 0.125000 0.697307 0.625000
Si Si6 0.600622 0.512586 0.342807
Si Si7 0.246680 0.721158 0.110054
O O1 0.264737 0.625000 0.625000
O O2 0.284341 0.556450 0.506140
O O3 0.226046 0.614022 0.429447
O O4 0.182843 0.575570 0.594324
O O5 0.375000 0.203722 0.375000
O O6 0.382754 0.234460 0.572968
O O7 0.441316 0.264441 0.414498
O O8 0.875000 0.875000 0.654550
O O9 0.814058 0.879063 0.484392
O O10 0.832589 0.806163 0.595959
O O11 0.250051 0.329967 0.398858
O O12 0.117597 0.724582 0.734799
O O13 0.546045 0.487506 0.317202
O O14 0.250000 0.750000 0.000000
#
# Coordination Sequence:
#
# PCOD9515662 Si02
#       7
#    32  32  32  16  16  32  32
#     4  11  23  43  66  97 137 186 231 282 352 422
#     4  12  23  41  71  94 135 189 225 283 359 423
#     4  11  21  39  65 101 129 167 235 298 346 397
#     4  12  23  36  70 102 136 176 232 287 350 418
#     4  10  21  44  72  96 132 184 232 292 356 405
#     4  11  23  42  67  96 140 182 224 285 354 414
#     4  12  22  45  65 100 142 178 229 284 356 416
#
# _framework density 19.916436999999998
#
# number of rings (size 3 to 8) (size 9 to 14) (size 15 to 20)
#    0.000    0.667    6.667    3.500    0.000    0.667 
#    4.500    0.000    0.000    0.000    0.000    0.000 
#    0.000    0.000    0.000    0.000    0.000    0.000 
#
# Total GULP energy -267454.500029 kJ/mol
# GULP energy per Si atom -5571.968751 kJ/mol
# Density = 1.987111 g / cm^3
# Si number density = 19.916437 Si / 1000 Ang^3
#
#
#
# Elastic Constant Matrix: (Units=GPa)
#
#
# Indices 1 2 3 4 5 6 
#
# 1 78.4451 32.5110 30.8545 0.0000 0.0000 0.0000
# 2 32.5110 104.2480 26.5964 0.0000 0.0000 0.0000
# 3 30.8545 26.5964 132.6342 0.0000 0.0000 0.0000
# 4 0.0000 0.0000 0.0000 13.7475 0.0000 0.0000
# 5 0.0000 0.0000 0.0000 0.0000 20.3472 0.0000
# 6 0.0000 0.0000 0.0000 0.0000 0.0000 28.3401
#
#
#
# Elastic Compliance Matrix: (Units=1/GPa)
#
#
# Indices 1 2 3 4 5 6 
#
# 1 0.015561 -0.004141 -0.002790 0.000000 0.000000 0.000000
# 2 -0.004141 0.011212 -0.001285 0.000000 0.000000 0.000000
# 3 -0.002790 -0.001285 0.008446 0.000000 0.000000 0.000000
# 4 0.000000 0.000000 0.000000 0.072740 0.000000 0.000000
# 5 0.000000 0.000000 0.000000 0.000000 0.049147 0.000000
# 6 0.000000 0.000000 0.000000 0.000000 0.000000 0.035286
#
#
# Mechanical properties :
#
#
# Convention : Reuss Voigt Hill
#
# Bulk Modulus (GPa) = 53.22606 55.02791 54.12698
# Shear Modulus (GPa) = 23.24650 27.51132 25.37891
#
# Velocity S-wave (km/s) = 3.42014 3.72067 3.57356
# Velocity P-wave (km/s) = 6.50993 6.79317 6.65306
#
# Compressibility (1/GPa) = 0.01878779
#
# Stress axis : x y z
#
# Youngs Moduli (GPa) = 64.26191 89.19154 118.39759
#
# Poissons Ratio (x) = 0.36937 0.33028
# Poissons Ratio (y) = 0.26613 0.15212
# Poissons Ratio (z) = 0.17926 0.11460
#
# Static dielectric constant tensor:
#      x y z
#    x 1.749120 0.000000 0.000000 
#    y 0.000000 1.754300 0.000000 
#    z 0.000000 0.000000 1.700100 
# 
# From -- ./inp_files/21249.got.cif
#   From: 2010.05.17/outbox.cif.g08.bks.cpg/sg70_11_cif.got.tgz:21249.got - 2010.06.03 15:57:51.
