data_PCOD9515282
_publ_section_title
;
Structure prediction by ZEFSAII (Michael W. Deem and Ramdas Pophale) SiO2 
 PCOD9515282
Probable space group: F D D D
;
_chemical_formula_sum "Si O2"
_cell_formula_units_Z 160
_cell_length_a 28.210744
_cell_length_b 21.950638
_cell_length_c 10.563507
_cell_angle_alpha 90.000000
_cell_angle_beta 90.000000
_cell_angle_gamma 90.000000
_cell_volume 6541.386525
_symmetry_space_group_name_H-M "F D D D"
_symmetry_group_IT_number 70
_space_group.IT_coordinate_system_code '2'
_symmetry_cell_setting 'orthorhombic'
loop_
_space_group_symop_operation_xyz
x,y,z
1/4-x,1/4-y,z
x,1/4-y,1/4-z
1/4-x,y,1/4-z
-x,-y,-z
3/4+x,3/4+y,-z
-x,3/4+y,3/4+z
3/4+x,-y,3/4+z
x,1/2+y,1/2+z
1/4-x,3/4-y,1/2+z
x,3/4-y,3/4-z
1/4-x,1/2+y,3/4-z
-x,1/2-y,1/2-z
3/4+x,1/4+y,1/2-z
-x,1/4+y,1/4+z
3/4+x,1/2-y,1/4+z
1/2+x,y,1/2+z
3/4-x,1/4-y,1/2+z
1/2+x,1/4-y,3/4-z
3/4-x,y,3/4-z
1/2-x,-y,1/2-z
1/4+x,3/4+y,1/2-z
1/2-x,3/4+y,1/4+z
1/4+x,-y,1/4+z
1/2+x,1/2+y,z
3/4-x,3/4-y,z
1/2+x,3/4-y,1/4-z
3/4-x,1/2+y,1/4-z
1/2-x,1/2-y,-z
1/4+x,1/4+y,-z
1/2-x,1/4+y,3/4+z
1/4+x,1/2-y,3/4+z
loop_
_atom_site_type_symbol
_atom_site_label
_atom_site_fract_x
_atom_site_fract_y
_atom_site_fract_z
Si Si1 0.076043 0.491782 0.379370
Si Si2 0.432581 0.447941 0.863958
Si Si3 0.713484 0.134988 0.264558
Si Si4 0.734473 0.440759 0.564573
Si Si5 0.162475 0.009781 0.739449
O O1 0.057311 0.508159 0.517236
O O2 0.061122 0.552128 0.297655
O O3 0.050080 0.438680 0.304296
O O4 0.132416 0.484622 0.358612
O O5 0.443579 0.375000 0.875000
O O6 0.375000 0.448823 0.875000
O O7 0.466643 0.467435 0.746758
O O8 0.734179 0.125000 0.125000
O O9 0.751666 0.122164 0.371538
O O10 0.675477 0.079799 0.267937
O O11 0.708556 0.476995 0.679552
O O12 0.125000 0.004729 0.625000
#
# Coordination Sequence:
#
# PCOD9515282 Si02
#       5
#    32  32  32  32  32
#     4  11  23  39  65  95 134 176 223 287 353 413
#     4  11  23  41  64  95 134 178 233 290 355 425
#     4  12  21  35  61  96 131 166 220 283 342 409
#     4  11  23  39  62  96 135 175 225 287 356 423
#     4  10  21  35  61  94 128 165 219 278 343 407
#
# _framework density 24.459647
#
# number of rings (size 3 to 8) (size 9 to 14) (size 15 to 20)
#    0.000    1.000    6.000    3.000    2.800    0.000 
#    0.000    0.000    0.000   14.400    0.000    0.000 
#    0.000    0.000    0.000    0.000    0.000    0.000 
#
# Total GULP energy -222961.541961 kJ/mol
# GULP energy per Si atom -5574.038549 kJ/mol
# Density = 2.440398 g / cm^3
# Si number density = 24.459647 Si / 1000 Ang^3
#
#
#
# Elastic Constant Matrix: (Units=GPa)
#
#
# Indices 1 2 3 4 5 6 
#
# 1 140.8779 44.4414 55.9996 0.0000 0.0000 0.0000
# 2 44.4414 23.8966 15.0987 0.0000 0.0000 0.0000
# 3 55.9996 15.0987 124.4312 0.0001 -0.0001 -0.0001
# 4 0.0000 0.0000 0.0001 32.7672 0.0000 0.0000
# 5 0.0000 0.0000 -0.0001 0.0000 47.7207 0.0000
# 6 0.0000 0.0000 -0.0001 0.0000 0.0000 31.5248
#
#
#
# Elastic Compliance Matrix: (Units=1/GPa)
#
#
# Indices 1 2 3 4 5 6 
#
# 1 0.019439 -0.033166 -0.004724 0.000000 0.000000 0.000000
# 2 -0.033166 0.101910 0.002560 0.000000 0.000000 0.000000
# 3 -0.004724 0.002560 0.009852 0.000000 0.000000 0.000000
# 4 0.000000 0.000000 0.000000 0.030518 0.000000 0.000000
# 5 0.000000 0.000000 0.000000 0.000000 0.020955 0.000000
# 6 0.000000 0.000000 0.000000 0.000000 0.000000 0.031721
#
#
# Mechanical properties :
#
#
# Convention : Reuss Voigt Hill
#
# Bulk Modulus (GPa) = 16.51780 57.80946 37.16363
# Shear Modulus (GPa) = 16.38086 33.98029 25.18057
#
# Velocity S-wave (km/s) = 2.59068 3.73129 3.21202
# Velocity P-wave (km/s) = 3.96442 6.49995 5.38358
#
# Compressibility (1/GPa) = 0.06054075
#
# Stress axis : x y z
#
# Youngs Moduli (GPa) = 51.44372 9.81262 101.50397
#
# Poissons Ratio (x) = 0.32545 0.47949
# Poissons Ratio (y) = 1.70619 -0.25989
# Poissons Ratio (z) = 0.24301 -0.02512
#
# Static dielectric constant tensor:
#      x y z
#    x 2.052830 0.000000 0.000000 
#    y 0.000000 1.908260 0.000000 
#    z 0.000000 0.000000 2.044060 
# 
# From -- ./inp_files/20829.got.cif
#   From: 2010.05.17/outbox.cif.g08.bks.cpg/sg70_11_cif.got.tgz:20829.got - 2010.06.03 15:57:51.
