data_PCOD9515380
_publ_section_title
;
Structure prediction by ZEFSAII (Michael W. Deem and Ramdas Pophale) SiO2 
 PCOD9515380
Probable space group: F D D D
;
_chemical_formula_sum "Si O2"
_cell_formula_units_Z 184
_cell_length_a 25.232327
_cell_length_b 20.729813
_cell_length_c 17.225293
_cell_angle_alpha 90.000000
_cell_angle_beta 90.000000
_cell_angle_gamma 90.000000
_cell_volume 9009.886221
_symmetry_space_group_name_H-M "F D D D"
_symmetry_group_IT_number 70
_space_group.IT_coordinate_system_code '2'
_symmetry_cell_setting 'orthorhombic'
loop_
_space_group_symop_operation_xyz
x,y,z
1/4-x,1/4-y,z
x,1/4-y,1/4-z
1/4-x,y,1/4-z
-x,-y,-z
3/4+x,3/4+y,-z
-x,3/4+y,3/4+z
3/4+x,-y,3/4+z
x,1/2+y,1/2+z
1/4-x,3/4-y,1/2+z
x,3/4-y,3/4-z
1/4-x,1/2+y,3/4-z
-x,1/2-y,1/2-z
3/4+x,1/4+y,1/2-z
-x,1/4+y,1/4+z
3/4+x,1/2-y,1/4+z
1/2+x,y,1/2+z
3/4-x,1/4-y,1/2+z
1/2+x,1/4-y,3/4-z
3/4-x,y,3/4-z
1/2-x,-y,1/2-z
1/4+x,3/4+y,1/2-z
1/2-x,3/4+y,1/4+z
1/4+x,-y,1/4+z
1/2+x,1/2+y,z
3/4-x,3/4-y,z
1/2+x,3/4-y,1/4-z
3/4-x,1/2+y,1/4-z
1/2-x,1/2-y,-z
1/4+x,1/4+y,-z
1/2-x,1/4+y,3/4+z
1/4+x,1/2-y,3/4+z
loop_
_atom_site_type_symbol
_atom_site_label
_atom_site_fract_x
_atom_site_fract_y
_atom_site_fract_z
Si Si1 0.933157 0.766937 0.173187
Si Si2 0.681298 0.364996 0.149089
Si Si3 0.375000 0.375000 0.375000
Si Si4 0.953790 0.273253 0.848160
Si Si5 0.224005 0.041237 0.319538
Si Si6 0.125000 0.125000 0.926379
Si Si7 0.828857 0.062864 0.571608
O O1 0.947175 0.794659 0.258591
O O2 0.908974 0.824937 0.124244
O O3 0.888170 0.713733 0.180177
O O4 0.984386 0.733905 0.134775
O O5 0.625000 0.396310 0.125000
O O6 0.684510 0.300459 0.098133
O O7 0.731291 0.411907 0.144787
O O8 0.684600 0.335794 0.235604
O O9 0.331370 0.320573 0.348238
O O10 0.172308 0.080876 0.287468
O O11 0.250000 0.000000 0.250000
O O12 0.204864 0.993742 0.388139
O O13 0.824049 0.125000 0.625000
#
# Coordination Sequence:
#
# PCOD9515380 Si02
#       7
#    32  32   8  32  32  16  32
#     4  10  21  38  61  93 124 168 216 274 347 415
#     4  12  23  47  67 100 140 178 229 295 355 421
#     4  12  22  36  56  88 128 170 206 264 328 398
#     4  11  22  38  60  91 133 169 213 273 339 425
#     4  11  24  46  70  99 139 189 239 296 359 425
#     4  10  21  40  72  96 132 181 234 298 360 411
#     4  11  23  42  68  93 131 176 230 286 346 411
#
# _framework density 20.422011000000001
#
# number of rings (size 3 to 8) (size 9 to 14) (size 15 to 20)
#    0.000    1.043    6.087    0.522    1.217    1.391 
#    6.261    0.000    0.000    0.000    0.000    0.000 
#    0.000    0.000    0.000    0.000    0.000    0.000 
#
# Total GULP energy -256339.451214 kJ/mol
# GULP energy per Si atom -5572.596766 kJ/mol
# Density = 2.037553 g / cm^3
# Si number density = 20.422011 Si / 1000 Ang^3
#
#
#
# Elastic Constant Matrix: (Units=GPa)
#
#
# Indices 1 2 3 4 5 6 
#
# 1 171.0525 74.6247 32.7525 0.0000 0.0000 0.0000
# 2 74.6247 114.7823 16.1934 0.0000 0.0000 0.0000
# 3 32.7525 16.1934 56.3610 0.0000 0.0000 0.0000
# 4 0.0000 0.0000 0.0000 14.8583 0.0000 0.0000
# 5 0.0000 0.0000 0.0000 0.0000 22.0921 0.0000
# 6 0.0000 0.0000 0.0000 0.0000 0.0000 40.7442
#
#
#
# Elastic Compliance Matrix: (Units=1/GPa)
#
#
# Indices 1 2 3 4 5 6 
#
# 1 0.008818 -0.005222 -0.003624 0.000000 0.000000 0.000000
# 2 -0.005222 0.012172 -0.000463 0.000000 0.000000 0.000000
# 3 -0.003624 -0.000463 0.019982 0.000000 0.000000 0.000000
# 4 0.000000 0.000000 0.000000 0.067302 0.000000 0.000000
# 5 0.000000 0.000000 0.000000 0.000000 0.045265 0.000000
# 6 0.000000 0.000000 0.000000 0.000000 0.000000 0.024543
#
#
# Mechanical properties :
#
#
# Convention : Reuss Voigt Hill
#
# Bulk Modulus (GPa) = 44.73303 65.48190 55.10747
# Shear Modulus (GPa) = 24.49153 30.11394 27.30274
#
# Velocity S-wave (km/s) = 3.46681 3.84420 3.66037
# Velocity P-wave (km/s) = 6.16254 7.19984 6.70129
#
# Compressibility (1/GPa) = 0.02235484
#
# Stress axis : x y z
#
# Youngs Moduli (GPa) = 113.40207 82.15354 50.04561
#
# Poissons Ratio (x) = 0.42899 0.18137
# Poissons Ratio (y) = 0.59216 0.02316
# Poissons Ratio (z) = 0.41098 0.03802
#
# Static dielectric constant tensor:
#      x y z
#    x 1.713900 0.000000 0.000000 
#    y 0.000000 1.756010 0.000000 
#    z 0.000000 0.000000 1.859060 
# 
# From -- ./inp_files/36646.got.cif
#   From: 2010.05.17/outbox.cif.g08.bks.cpg/sg70_19_cif.got.tgz:36646.got - 2010.06.03 15:57:51.
