data_PCOD9515289
_publ_section_title
;
Structure prediction by ZEFSAII (Michael W. Deem and Ramdas Pophale) SiO2 
 PCOD9515289
Probable space group: F D D D
;
_chemical_formula_sum "Si O2"
_cell_formula_units_Z 128
_cell_length_a 11.606504
_cell_length_b 23.156691
_cell_length_c 20.118091
_cell_angle_alpha 90.000000
_cell_angle_beta 90.000000
_cell_angle_gamma 90.000000
_cell_volume 5407.103643
_symmetry_space_group_name_H-M "F D D D"
_symmetry_group_IT_number 70
_space_group.IT_coordinate_system_code '2'
_symmetry_cell_setting 'orthorhombic'
loop_
_space_group_symop_operation_xyz
x,y,z
1/4-x,1/4-y,z
x,1/4-y,1/4-z
1/4-x,y,1/4-z
-x,-y,-z
3/4+x,3/4+y,-z
-x,3/4+y,3/4+z
3/4+x,-y,3/4+z
x,1/2+y,1/2+z
1/4-x,3/4-y,1/2+z
x,3/4-y,3/4-z
1/4-x,1/2+y,3/4-z
-x,1/2-y,1/2-z
3/4+x,1/4+y,1/2-z
-x,1/4+y,1/4+z
3/4+x,1/2-y,1/4+z
1/2+x,y,1/2+z
3/4-x,1/4-y,1/2+z
1/2+x,1/4-y,3/4-z
3/4-x,y,3/4-z
1/2-x,-y,1/2-z
1/4+x,3/4+y,1/2-z
1/2-x,3/4+y,1/4+z
1/4+x,-y,1/4+z
1/2+x,1/2+y,z
3/4-x,3/4-y,z
1/2+x,3/4-y,1/4-z
3/4-x,1/2+y,1/4-z
1/2-x,1/2-y,-z
1/4+x,1/4+y,-z
1/2-x,1/4+y,3/4+z
1/4+x,1/2-y,3/4+z
loop_
_atom_site_type_symbol
_atom_site_label
_atom_site_fract_x
_atom_site_fract_y
_atom_site_fract_z
Si Si1 0.075826 0.310760 0.553032
Si Si2 0.749949 0.821919 0.126059
Si Si3 0.117079 0.488163 0.457469
Si Si4 0.002077 0.871966 0.478286
O O1 0.125000 0.289140 0.625000
O O2 0.017747 0.373193 0.575588
O O3 0.177447 0.321608 0.500044
O O4 0.981599 0.270912 0.518193
O O5 0.625000 0.792597 0.125000
O O6 0.842981 0.775450 0.107732
O O7 0.769367 0.845233 0.198620
O O8 0.157332 0.422887 0.445725
O O9 0.000000 0.500000 0.500000
O O10 0.875000 0.875000 0.447452
#
# Coordination Sequence:
#
# PCOD9515289 Si02
#       4
#    32  32  32  32
#     4   9  19  35  58  84 117 151 190 244 293 342
#     4   9  17  34  57  87 118 140 188 249 292 332
#     4  12  20  32  61  94 111 148 197 250 290 347
#     4  10  21  36  57  86 119 152 194 240 293 356
#
# _framework density 23.672561999999999
#
# number of rings (size 3 to 8) (size 9 to 14) (size 15 to 20)
#    0.000    2.500    5.000    3.750    0.000    1.000 
#    0.000    0.000    0.000    5.250    6.500    0.000 
#    0.000    0.000    0.000    0.000    0.000    0.000 
#
# Total GULP energy -178283.002172 kJ/mol
# GULP energy per Si atom -5571.343818 kJ/mol
# Density = 2.361868 g / cm^3
# Si number density = 23.672562 Si / 1000 Ang^3
#
#
#
# Elastic Constant Matrix: (Units=GPa)
#
#
# Indices 1 2 3 4 5 6 
#
# 1 170.4995 39.2873 17.4601 0.0000 0.0000 0.0000
# 2 39.2873 43.8339 5.3366 0.0000 0.0000 0.0000
# 3 17.4601 5.3366 29.8211 0.0000 0.0000 0.0000
# 4 0.0000 0.0000 0.0000 7.9215 0.0000 0.0000
# 5 0.0000 0.0000 0.0000 0.0000 25.3551 0.0000
# 6 0.0000 0.0000 0.0000 0.0000 0.0000 54.5664
#
#
#
# Elastic Compliance Matrix: (Units=1/GPa)
#
#
# Indices 1 2 3 4 5 6 
#
# 1 0.007705 -0.006499 -0.003349 0.000000 0.000000 0.000000
# 2 -0.006499 0.028802 -0.001349 0.000000 0.000000 0.000000
# 3 -0.003349 -0.001349 0.035735 0.000000 0.000000 0.000000
# 4 0.000000 0.000000 0.000000 0.126238 0.000000 0.000000
# 5 0.000000 0.000000 0.000000 0.000000 0.039440 0.000000
# 6 0.000000 0.000000 0.000000 0.000000 0.000000 0.018326
#
#
# Mechanical properties :
#
#
# Convention : Reuss Voigt Hill
#
# Bulk Modulus (GPa) = 20.06020 40.92471 30.49246
# Shear Modulus (GPa) = 16.93442 29.70664 23.32053
#
# Velocity S-wave (km/s) = 2.67752 3.54630 3.14208
# Velocity P-wave (km/s) = 4.24868 5.83898 5.10612
#
# Compressibility (1/GPa) = 0.04984995
#
# Stress axis : x y z
#
# Youngs Moduli (GPa) = 129.77815 34.71964 27.98353
#
# Poissons Ratio (x) = 0.22563 0.09370
# Poissons Ratio (y) = 0.84337 0.03776
# Poissons Ratio (z) = 0.43457 0.04685
#
# Static dielectric constant tensor:
#      x y z
#    x 2.212810 0.000000 0.000000 
#    y 0.000000 1.986690 0.000000 
#    z 0.000000 0.000000 2.009320 
# 
# From -- ./inp_files/18844.got.cif
#   From: 2010.05.17/outbox.cif.g08.bks.cpg/sg70_10_cif.got.tgz:18844.got - 2010.06.03 15:57:51.
