data_PCOD9515159
_publ_section_title
;
Structure prediction by ZEFSAII (Michael W. Deem and Ramdas Pophale) SiO2 
 PCOD9515159
Probable space group: F D D D
;
_chemical_formula_sum "Si O2"
_cell_formula_units_Z 176
_cell_length_a 27.379989
_cell_length_b 26.530361
_cell_length_c 11.413723
_cell_angle_alpha 90.000000
_cell_angle_beta 90.000000
_cell_angle_gamma 90.000000
_cell_volume 8290.939714
_symmetry_space_group_name_H-M "F D D D"
_symmetry_group_IT_number 70
_space_group.IT_coordinate_system_code '2'
_symmetry_cell_setting 'orthorhombic'
loop_
_space_group_symop_operation_xyz
x,y,z
1/4-x,1/4-y,z
x,1/4-y,1/4-z
1/4-x,y,1/4-z
-x,-y,-z
3/4+x,3/4+y,-z
-x,3/4+y,3/4+z
3/4+x,-y,3/4+z
x,1/2+y,1/2+z
1/4-x,3/4-y,1/2+z
x,3/4-y,3/4-z
1/4-x,1/2+y,3/4-z
-x,1/2-y,1/2-z
3/4+x,1/4+y,1/2-z
-x,1/4+y,1/4+z
3/4+x,1/2-y,1/4+z
1/2+x,y,1/2+z
3/4-x,1/4-y,1/2+z
1/2+x,1/4-y,3/4-z
3/4-x,y,3/4-z
1/2-x,-y,1/2-z
1/4+x,3/4+y,1/2-z
1/2-x,3/4+y,1/4+z
1/4+x,-y,1/4+z
1/2+x,1/2+y,z
3/4-x,3/4-y,z
1/2+x,3/4-y,1/4-z
3/4-x,1/2+y,1/4-z
1/2-x,1/2-y,-z
1/4+x,1/4+y,-z
1/2-x,1/4+y,3/4+z
1/4+x,1/2-y,3/4+z
loop_
_atom_site_type_symbol
_atom_site_label
_atom_site_fract_x
_atom_site_fract_y
_atom_site_fract_z
Si Si1 0.173235 0.283108 0.498032
Si Si2 0.960164 0.003338 0.745290
Si Si3 0.011922 0.380547 0.739868
Si Si4 0.829297 0.345091 0.608046
Si Si5 0.375000 0.805767 0.375000
Si Si6 0.567549 0.491169 0.755688
O O1 0.199618 0.254404 0.393005
O O2 0.198352 0.336752 0.521171
O O3 0.179065 0.251063 0.616028
O O4 0.115905 0.291382 0.468320
O O5 0.966399 0.063027 0.774048
O O6 0.914291 0.978007 0.806529
O O7 0.011329 0.976357 0.777699
O O8 0.969726 0.375774 0.643014
O O9 0.993061 0.375000 0.875000
O O10 0.875000 0.375000 0.658564
O O11 0.842737 0.335053 0.472647
O O12 0.825177 0.291780 0.671798
#
# Coordination Sequence:
#
# PCOD9515159 Si02
#       6
#    32  32  32  32  16  32
#     4  10  20  41  67 103 135 171 223 289 354 400
#     4  10  22  42  67  97 140 181 227 280 337 418
#     4   9  22  41  69 102 141 175 219 296 355 396
#     4  11  25  44  64  99 132 182 232 280 341 412
#     4  12  25  44  70  90 142 194 228 276 335 418
#     4  10  22  38  70  99 127 174 232 282 348 395
#
# _framework density 21.227990999999999
#
# number of rings (size 3 to 8) (size 9 to 14) (size 15 to 20)
#    0.000    1.818    1.818    0.818    2.545   13.455 
#    0.000    0.000    0.000    0.000    0.000    0.000 
#    0.000    0.000    0.000    0.000    0.000    0.000 
#
# Total GULP energy -245559.833049 kJ/mol
# GULP energy per Si atom -5580.905297 kJ/mol
# Density = 2.117968 g / cm^3
# Si number density = 21.227991 Si / 1000 Ang^3
#
#
#
# Elastic Constant Matrix: (Units=GPa)
#
#
# Indices 1 2 3 4 5 6 
#
# 1 179.3967 49.9448 45.8749 0.0000 0.0000 0.0000
# 2 49.9448 56.3782 39.9021 -0.0001 0.0002 0.0001
# 3 45.8749 39.9021 89.1106 -0.0004 0.0004 0.0002
# 4 0.0000 -0.0001 -0.0004 28.3311 0.0002 0.0001
# 5 0.0000 0.0002 0.0004 0.0002 17.9672 -0.0001
# 6 0.0000 0.0001 0.0002 0.0001 -0.0001 42.0144
#
#
#
# Elastic Compliance Matrix: (Units=1/GPa)
#
#
# Indices 1 2 3 4 5 6 
#
# 1 0.007500 -0.005726 -0.001297 0.000000 0.000000 0.000000
# 2 -0.005726 0.030339 -0.010637 0.000000 0.000000 0.000000
# 3 -0.001297 -0.010637 0.016653 0.000000 0.000000 0.000000
# 4 0.000000 0.000000 0.000000 0.035297 0.000000 0.000000
# 5 0.000000 0.000000 0.000000 0.000000 0.055657 0.000000
# 6 0.000000 0.000000 0.000000 0.000000 0.000000 0.023801
#
#
# Mechanical properties :
#
#
# Convention : Reuss Voigt Hill
#
# Bulk Modulus (GPa) = 52.16278 66.25880 59.21079
# Shear Modulus (GPa) = 23.70136 30.27345 26.98741
#
# Velocity S-wave (km/s) = 3.34505 3.78048 3.56941
# Velocity P-wave (km/s) = 6.28849 7.09484 6.70380
#
# Compressibility (1/GPa) = 0.01917076
#
# Stress axis : x y z
#
# Youngs Moduli (GPa) = 133.33084 32.96106 60.04978
#
# Poissons Ratio (x) = 0.18875 0.07788
# Poissons Ratio (y) = 0.76350 0.63876
# Poissons Ratio (z) = 0.17293 0.35061
#
# Static dielectric constant tensor:
#      x y z
#    x 1.814950 0.000000 0.000000 
#    y 0.000000 1.785000 0.000000 
#    z 0.000000 0.000000 1.764160 
# 
# From -- ./inp_files/20949.got.cif
#   From: 2010.05.17/outbox.cif.g08.bks.cpg/sg70_11_cif.got.tgz:20949.got - 2010.06.03 15:57:51.
