data_PCOD9515744
_publ_section_title
;
Structure prediction by ZEFSAII (Michael W. Deem and Ramdas Pophale) SiO2 
 PCOD9515744
Probable space group: F D D D
;
_chemical_formula_sum "Si O2"
_cell_formula_units_Z 160
_cell_length_a 7.906881
_cell_length_b 29.758897
_cell_length_c 29.982944
_cell_angle_alpha 90.000000
_cell_angle_beta 90.000000
_cell_angle_gamma 90.000000
_cell_volume 7054.988440
_symmetry_space_group_name_H-M "F D D D"
_symmetry_group_IT_number 70
_space_group.IT_coordinate_system_code '2'
_symmetry_cell_setting 'orthorhombic'
loop_
_space_group_symop_operation_xyz
x,y,z
1/4-x,1/4-y,z
x,1/4-y,1/4-z
1/4-x,y,1/4-z
-x,-y,-z
3/4+x,3/4+y,-z
-x,3/4+y,3/4+z
3/4+x,-y,3/4+z
x,1/2+y,1/2+z
1/4-x,3/4-y,1/2+z
x,3/4-y,3/4-z
1/4-x,1/2+y,3/4-z
-x,1/2-y,1/2-z
3/4+x,1/4+y,1/2-z
-x,1/4+y,1/4+z
3/4+x,1/2-y,1/4+z
1/2+x,y,1/2+z
3/4-x,1/4-y,1/2+z
1/2+x,1/4-y,3/4-z
3/4-x,y,3/4-z
1/2-x,-y,1/2-z
1/4+x,3/4+y,1/2-z
1/2-x,3/4+y,1/4+z
1/4+x,-y,1/4+z
1/2+x,1/2+y,z
3/4-x,3/4-y,z
1/2+x,3/4-y,1/4-z
3/4-x,1/2+y,1/4-z
1/2-x,1/2-y,-z
1/4+x,1/4+y,-z
1/2-x,1/4+y,3/4+z
1/4+x,1/2-y,3/4+z
loop_
_atom_site_type_symbol
_atom_site_label
_atom_site_fract_x
_atom_site_fract_y
_atom_site_fract_z
Si Si1 0.677383 0.723799 0.693139
Si Si2 0.526315 0.064721 0.840820
Si Si3 0.295410 0.754573 0.706383
Si Si4 0.875000 0.375000 0.801193
Si Si5 0.625000 0.944377 0.625000
Si Si6 0.973959 0.657028 0.509850
O O1 0.790754 0.760003 0.667224
O O2 0.493524 0.748340 0.694199
O O3 0.723701 0.720634 0.745859
O O4 0.669373 0.672843 0.675358
O O5 0.375000 0.072468 0.875000
O O6 0.708641 0.080842 0.857713
O O7 0.480783 0.084119 0.792743
O O8 0.194711 0.777753 0.667123
O O9 0.240628 0.703988 0.716015
O O10 0.708675 0.388372 0.773290
O O11 0.125000 0.625000 0.522880
#
# Coordination Sequence:
#
# PCOD9515744 Si02
#       6
#    32  32  32  16  16  32
#     4   9  19  41  65  86 124 164 211 256 313 383
#     4  11  24  42  63  93 130 166 212 262 316 388
#     4   9  20  39  65  91 119 165 212 256 311 386
#     4  10  22  38  71  88 118 164 210 264 310 371
#     4  12  24  36  71  92 120 168 214 264 318 373
#     4  10  24  42  63  93 127 166 210 258 319 389
#
# _framework density 22.678989000000001
#
# number of rings (size 3 to 8) (size 9 to 14) (size 15 to 20)
#    0.000    2.000    2.000    1.200    5.600    1.600 
#    3.600    1.000    0.000    0.000    0.000    0.000 
#    0.000    0.000    0.000    0.000    0.000    0.000 
#
# Total GULP energy -223692.677634 kJ/mol
# GULP energy per Si atom -5592.316941 kJ/mol
# Density = 2.262737 g / cm^3
# Si number density = 22.678989 Si / 1000 Ang^3
#
#
#
# Elastic Constant Matrix: (Units=GPa)
#
#
# Indices 1 2 3 4 5 6 
#
# 1 107.1810 31.9360 43.9115 0.0000 0.0000 0.0000
# 2 31.9360 108.9113 14.6179 0.0000 0.0000 0.0000
# 3 43.9115 14.6179 108.8079 0.0000 0.0000 0.0000
# 4 0.0000 0.0000 0.0000 10.2091 0.0000 0.0000
# 5 0.0000 0.0000 0.0000 0.0000 35.5033 0.0000
# 6 0.0000 0.0000 0.0000 0.0000 0.0000 32.7266
#
#
#
# Elastic Compliance Matrix: (Units=1/GPa)
#
#
# Indices 1 2 3 4 5 6 
#
# 1 0.012031 -0.002929 -0.004462 0.000000 0.000000 0.000000
# 2 -0.002929 0.010063 -0.000170 0.000000 0.000000 0.000000
# 3 -0.004462 -0.000170 0.011014 0.000000 0.000000 0.000000
# 4 0.000000 0.000000 0.000000 0.097952 0.000000 0.000000
# 5 0.000000 0.000000 0.000000 0.000000 0.028166 0.000000
# 6 0.000000 0.000000 0.000000 0.000000 0.000000 0.030556
#
#
# Mechanical properties :
#
#
# Convention : Reuss Voigt Hill
#
# Bulk Modulus (GPa) = 55.59608 56.20345 55.89977
# Shear Modulus (GPa) = 23.70799 31.31678 27.51239
#
# Velocity S-wave (km/s) = 3.23673 3.72004 3.48677
# Velocity P-wave (km/s) = 6.20775 6.57933 6.39624
#
# Compressibility (1/GPa) = 0.01798688
#
# Stress axis : x y z
#
# Youngs Moduli (GPa) = 83.12092 99.36964 90.79394
#
# Poissons Ratio (x) = 0.29104 0.40510
# Poissons Ratio (y) = 0.24345 0.01543
# Poissons Ratio (z) = 0.37086 0.01689
#
# Static dielectric constant tensor:
#      x y z
#    x 1.893240 0.000000 0.000000 
#    y 0.000000 1.890500 0.000000 
#    z 0.000000 0.000000 1.820260 
# 
# From -- ./inp_files/63918.got.cif
#   From: 2010.05.17/outbox.cif.g08.bks.cpg/sg70_32_cif.got.tgz:63918.got - 2010.06.03 15:57:51.
