data_PCOD9515420
_publ_section_title
;
Structure prediction by ZEFSAII (Michael W. Deem and Ramdas Pophale) SiO2 
 PCOD9515420
Probable space group: F D D D
;
_chemical_formula_sum "Si O2"
_cell_formula_units_Z 160
_cell_length_a 20.979856
_cell_length_b 18.710731
_cell_length_c 17.404105
_cell_angle_alpha 90.000000
_cell_angle_beta 90.000000
_cell_angle_gamma 90.000000
_cell_volume 6831.954303
_symmetry_space_group_name_H-M "F D D D"
_symmetry_group_IT_number 70
_space_group.IT_coordinate_system_code '2'
_symmetry_cell_setting 'orthorhombic'
loop_
_space_group_symop_operation_xyz
x,y,z
1/4-x,1/4-y,z
x,1/4-y,1/4-z
1/4-x,y,1/4-z
-x,-y,-z
3/4+x,3/4+y,-z
-x,3/4+y,3/4+z
3/4+x,-y,3/4+z
x,1/2+y,1/2+z
1/4-x,3/4-y,1/2+z
x,3/4-y,3/4-z
1/4-x,1/2+y,3/4-z
-x,1/2-y,1/2-z
3/4+x,1/4+y,1/2-z
-x,1/4+y,1/4+z
3/4+x,1/2-y,1/4+z
1/2+x,y,1/2+z
3/4-x,1/4-y,1/2+z
1/2+x,1/4-y,3/4-z
3/4-x,y,3/4-z
1/2-x,-y,1/2-z
1/4+x,3/4+y,1/2-z
1/2-x,3/4+y,1/4+z
1/4+x,-y,1/4+z
1/2+x,1/2+y,z
3/4-x,3/4-y,z
1/2+x,3/4-y,1/4-z
3/4-x,1/2+y,1/4-z
1/2-x,1/2-y,-z
1/4+x,1/4+y,-z
1/2-x,1/4+y,3/4+z
1/4+x,1/2-y,3/4+z
loop_
_atom_site_type_symbol
_atom_site_label
_atom_site_fract_x
_atom_site_fract_y
_atom_site_fract_z
Si Si1 0.306794 0.754897 0.372882
Si Si2 0.831272 0.014940 0.593302
Si Si3 0.679393 0.849488 0.687085
Si Si4 0.206576 0.752968 0.807654
Si Si5 0.125000 0.625000 0.259454
Si Si6 0.458227 0.375000 0.375000
O O1 0.375000 0.795122 0.375000
O O2 0.235235 0.783481 0.386145
O O3 0.315086 0.684297 0.424483
O O4 0.300985 0.738366 0.282674
O O5 0.836923 0.934434 0.557007
O O6 0.839143 0.069352 0.521397
O O7 0.889693 0.011922 0.651183
O O8 0.625000 0.826569 0.625000
O O9 0.750525 0.817010 0.674055
O O10 0.250247 0.815631 0.836940
O O11 0.170520 0.588321 0.195844
#
# Coordination Sequence:
#
# PCOD9515420 Si02
#       6
#    32  32  32  32  16  16
#     4  10  23  43  61  86 122 160 211 259 304 360
#     4  11  23  38  63  91 123 168 201 251 306 370
#     4  10  21  39  59  91 125 160 195 250 310 366
#     4  11  24  37  60  92 122 161 208 245 311 367
#     4  11  20  38  60  98 137 154 198 238 309 380
#     4  11  22  34  56  96 131 156 188 256 299 374
#
# _framework density 23.419360999999999
#
# number of rings (size 3 to 8) (size 9 to 14) (size 15 to 20)
#    0.000    1.400    4.000    2.400    5.600    2.400 
#    0.000    0.000    0.000    0.000    0.000    0.000 
#    0.000    0.000    0.000    0.000    0.000    0.000 
#
# Total GULP energy -223176.661562 kJ/mol
# GULP energy per Si atom -5579.416539 kJ/mol
# Density = 2.336606 g / cm^3
# Si number density = 23.419361 Si / 1000 Ang^3
#
#
#
# Elastic Constant Matrix: (Units=GPa)
#
#
# Indices 1 2 3 4 5 6 
#
# 1 168.7401 6.5414 30.8101 0.0000 0.0000 0.0000
# 2 6.5414 76.6679 17.0284 0.0000 0.0000 0.0000
# 3 30.8101 17.0284 62.8988 0.0000 0.0000 0.0000
# 4 0.0000 0.0000 0.0000 -29.9422 0.0000 0.0000
# 5 0.0000 0.0000 0.0000 0.0000 63.5435 0.0000
# 6 0.0000 0.0000 0.0000 0.0000 0.0000 103.2446
#
#
#
# Elastic Compliance Matrix: (Units=1/GPa)
#
#
# Indices 1 2 3 4 5 6 
#
# 1 0.006510 0.000163 -0.003233 0.000000 0.000000 0.000000
# 2 0.000163 0.013882 -0.003838 0.000000 0.000000 0.000000
# 3 -0.003233 -0.003838 0.018521 0.000000 0.000000 0.000000
# 4 0.000000 0.000000 0.000000 -0.033398 0.000000 0.000000
# 5 0.000000 0.000000 0.000000 0.000000 0.015737 0.000000
# 6 0.000000 0.000000 0.000000 0.000000 0.000000 0.009686
#
#
# Mechanical properties :
#
#
# Convention : Reuss Voigt Hill
#
# Bulk Modulus (GPa) = 39.84565 46.34073 43.09319
# Shear Modulus (GPa) = 94.12538 44.29765 69.21151
#
# Velocity S-wave (km/s) = 6.34654 4.35385 5.44218
# Velocity P-wave (km/s) = 8.41164 6.71603 7.61120
#
# Compressibility (1/GPa) = 0.02509684
#
# Stress axis : x y z
#
# Youngs Moduli (GPa) = 153.60330 72.03676 53.99215
#
# Poissons Ratio (x) = -0.01171 0.17456
# Poissons Ratio (y) = -0.02498 0.20721
# Poissons Ratio (z) = 0.49660 0.27647
#
# Static dielectric constant tensor:
#      x y z
#    x 1.992370 0.000000 0.000000 
#    y 0.000000 1.604830 0.000000 
#    z 0.000000 0.000000 1.845660 
# 
# From -- ./inp_files/36344.got.cif
#   From: 2010.05.17/outbox.cif.g08.bks.cpg/sg70_19_cif.got.tgz:36344.got - 2010.06.03 15:57:51.
