data_PCOD9515503
_publ_section_title
;
Structure prediction by ZEFSAII (Michael W. Deem and Ramdas Pophale) SiO2 
 PCOD9515503
Probable space group: F D D D
;
_chemical_formula_sum "Si O2"
_cell_formula_units_Z 176
_cell_length_a 18.935192
_cell_length_b 18.566550
_cell_length_c 25.006538
_cell_angle_alpha 90.000000
_cell_angle_beta 90.000000
_cell_angle_gamma 90.000000
_cell_volume 8791.328233
_symmetry_space_group_name_H-M "F D D D"
_symmetry_group_IT_number 70
_space_group.IT_coordinate_system_code '2'
_symmetry_cell_setting 'orthorhombic'
loop_
_space_group_symop_operation_xyz
x,y,z
1/4-x,1/4-y,z
x,1/4-y,1/4-z
1/4-x,y,1/4-z
-x,-y,-z
3/4+x,3/4+y,-z
-x,3/4+y,3/4+z
3/4+x,-y,3/4+z
x,1/2+y,1/2+z
1/4-x,3/4-y,1/2+z
x,3/4-y,3/4-z
1/4-x,1/2+y,3/4-z
-x,1/2-y,1/2-z
3/4+x,1/4+y,1/2-z
-x,1/4+y,1/4+z
3/4+x,1/2-y,1/4+z
1/2+x,y,1/2+z
3/4-x,1/4-y,1/2+z
1/2+x,1/4-y,3/4-z
3/4-x,y,3/4-z
1/2-x,-y,1/2-z
1/4+x,3/4+y,1/2-z
1/2-x,3/4+y,1/4+z
1/4+x,-y,1/4+z
1/2+x,1/2+y,z
3/4-x,3/4-y,z
1/2+x,3/4-y,1/4-z
3/4-x,1/2+y,1/4-z
1/2-x,1/2-y,-z
1/4+x,1/4+y,-z
1/2-x,1/4+y,3/4+z
1/4+x,1/2-y,3/4+z
loop_
_atom_site_type_symbol
_atom_site_label
_atom_site_fract_x
_atom_site_fract_y
_atom_site_fract_z
Si Si1 0.576314 0.732401 0.573362
Si Si2 0.907465 0.122878 0.466253
Si Si3 0.691875 0.164681 0.289039
Si Si4 0.030498 0.460955 0.369636
Si Si5 0.328960 0.190721 0.666580
Si Si6 0.125000 0.984829 0.125000
O O1 0.625000 0.713625 0.625000
O O2 0.611470 0.803875 0.548281
O O3 0.572603 0.677666 0.523614
O O4 0.492744 0.737611 0.586842
O O5 0.907503 0.152241 0.526464
O O6 0.882653 0.185298 0.426834
O O7 0.990417 0.113682 0.453621
O O8 0.625000 0.125000 0.313376
O O9 0.707827 0.242693 0.315406
O O10 0.037370 0.375000 0.375000
O O11 0.099218 0.484269 0.403937
O O12 0.948897 0.474720 0.383376
O O13 0.317395 0.125000 0.625000
#
# Coordination Sequence:
#
# PCOD9515503 Si02
#       6
#    32  32  32  32  32  16
#     4  11  23  36  63  89 127 173 214 258 319 395
#     4  10  22  42  59  93 128 163 217 273 322 383
#     4  10  24  39  62  91 129 171 212 268 331 380
#     4  10  21  41  65  91 126 168 217 269 326 392
#     4  10  23  39  60  90 126 161 214 267 319 389
#     4  10  21  40  66  92 121 168 218 270 333 382
#
# _framework density 20.019728000000001
#
# number of rings (size 3 to 8) (size 9 to 14) (size 15 to 20)
#    0.000    1.818    0.909    2.455    7.636    1.455 
#    0.000    0.000    0.000    0.000    0.000    0.000 
#    0.000    0.000    0.000    0.000    0.000    0.000 
#
# Total GULP energy -244949.120599 kJ/mol
# GULP energy per Si atom -5567.025468 kJ/mol
# Density = 1.997416 g / cm^3
# Si number density = 20.019728 Si / 1000 Ang^3
#
#
#
# Elastic Constant Matrix: (Units=GPa)
#
#
# Indices 1 2 3 4 5 6 
#
# 1 226.6810 59.8621 47.2667 0.0000 0.0000 0.0000
# 2 59.8621 43.3734 17.8792 0.0000 0.0000 0.0000
# 3 47.2667 17.8792 109.8549 0.0000 0.0000 0.0000
# 4 0.0000 0.0000 0.0000 7.1378 0.0000 0.0000
# 5 0.0000 0.0000 0.0000 0.0000 20.8630 0.0000
# 6 0.0000 0.0000 0.0000 0.0000 0.0000 34.9105
#
#
#
# Elastic Compliance Matrix: (Units=1/GPa)
#
#
# Indices 1 2 3 4 5 6 
#
# 1 0.007190 -0.009270 -0.001585 0.000000 0.000000 0.000000
# 2 -0.009270 0.036665 -0.001979 0.000000 0.000000 0.000000
# 3 -0.001585 -0.001979 0.010107 0.000000 0.000000 0.000000
# 4 0.000000 0.000000 0.000000 0.140100 0.000000 0.000000
# 5 0.000000 0.000000 0.000000 0.000000 0.047932 0.000000
# 6 0.000000 0.000000 0.000000 0.000000 0.000000 0.028645
#
#
# Mechanical properties :
#
#
# Convention : Reuss Voigt Hill
#
# Bulk Modulus (GPa) = 35.34211 69.99170 52.66691
# Shear Modulus (GPa) = 16.35388 29.57567 22.96477
#
# Velocity S-wave (km/s) = 2.86123 3.84777 3.39057
# Velocity P-wave (km/s) = 5.34859 7.40120 6.45698
#
# Compressibility (1/GPa) = 0.02829485
#
# Stress axis : x y z
#
# Youngs Moduli (GPa) = 139.08215 27.27366 98.94231
#
# Poissons Ratio (x) = 0.25283 0.15681
# Poissons Ratio (y) = 1.28929 0.19579
# Poissons Ratio (z) = 0.22043 0.05397
#
# Static dielectric constant tensor:
#      x y z
#    x 1.799100 0.000000 0.000000 
#    y 0.000000 1.705230 0.000000 
#    z 0.000000 0.000000 1.713100 
# 
# From -- ./inp_files/66635.got.cif
#   From: 2010.05.17/outbox.cif.g08.bks.cpg/sg70_34_cif.got.tgz:66635.got - 2010.06.03 15:57:51.
