data_PCOD9515148
_publ_section_title
;
Structure prediction by ZEFSAII (Michael W. Deem and Ramdas Pophale) SiO2 
 PCOD9515148
Probable space group: F D D D
;
_chemical_formula_sum "Si O2"
_cell_formula_units_Z 144
_cell_length_a 21.812425
_cell_length_b 14.460867
_cell_length_c 17.073920
_cell_angle_alpha 90.000000
_cell_angle_beta 90.000000
_cell_angle_gamma 90.000000
_cell_volume 5385.568139
_symmetry_space_group_name_H-M "F D D D"
_symmetry_group_IT_number 70
_space_group.IT_coordinate_system_code '2'
_symmetry_cell_setting 'orthorhombic'
loop_
_space_group_symop_operation_xyz
x,y,z
1/4-x,1/4-y,z
x,1/4-y,1/4-z
1/4-x,y,1/4-z
-x,-y,-z
3/4+x,3/4+y,-z
-x,3/4+y,3/4+z
3/4+x,-y,3/4+z
x,1/2+y,1/2+z
1/4-x,3/4-y,1/2+z
x,3/4-y,3/4-z
1/4-x,1/2+y,3/4-z
-x,1/2-y,1/2-z
3/4+x,1/4+y,1/2-z
-x,1/4+y,1/4+z
3/4+x,1/2-y,1/4+z
1/2+x,y,1/2+z
3/4-x,1/4-y,1/2+z
1/2+x,1/4-y,3/4-z
3/4-x,y,3/4-z
1/2-x,-y,1/2-z
1/4+x,3/4+y,1/2-z
1/2-x,3/4+y,1/4+z
1/4+x,-y,1/4+z
1/2+x,1/2+y,z
3/4-x,3/4-y,z
1/2+x,3/4-y,1/4-z
3/4-x,1/2+y,1/4-z
1/2-x,1/2-y,-z
1/4+x,1/4+y,-z
1/2-x,1/4+y,3/4+z
1/4+x,1/2-y,3/4+z
loop_
_atom_site_type_symbol
_atom_site_label
_atom_site_fract_x
_atom_site_fract_y
_atom_site_fract_z
Si Si1 0.239966 0.875000 0.375000
Si Si2 0.995482 0.577874 0.381810
Si Si3 0.125000 0.954078 0.625000
Si Si4 0.752864 0.144912 0.034877
Si Si5 0.875000 0.375000 0.154767
Si Si6 0.380657 0.706560 0.039552
O O1 0.272399 0.778832 0.394070
O O2 0.192437 0.901156 0.444078
O O3 0.935950 0.641849 0.384214
O O4 0.018832 0.586361 0.290209
O O5 0.054328 0.609132 0.434335
O O6 0.124450 0.007023 0.543954
O O7 0.731532 0.125000 0.125000
O O8 0.826385 0.131172 0.038704
O O9 0.750000 0.250000 0.000000
O O10 0.882268 0.469272 0.105985
#
# Coordination Sequence:
#
# PCOD9515148 Si02
#       6
#    16  32  16  32  16  32
#     4  10  22  43  64  90 136 197 238 278 350 441
#     4  10  23  42  66  98 141 183 241 292 354 425
#     4  10  24  40  64 104 134 178 236 302 345 411
#     4  11  22  41  68 102 143 185 231 297 368 436
#     4  10  20  41  60  98 130 181 226 274 372 431
#     4  10  21  41  64  92 138 175 232 293 360 430
#
# _framework density 26.738126999999999
#
# number of rings (size 3 to 8) (size 9 to 14) (size 15 to 20)
#    0.000    1.778    3.333    0.000    0.000    8.889 
#    0.000    0.000    0.000    2.667    0.000    0.000 
#    0.000    0.000    0.000    0.000    0.000    0.000 
#
# Total GULP energy -200808.423553 kJ/mol
# GULP energy per Si atom -5578.011765 kJ/mol
# Density = 2.667727 g / cm^3
# Si number density = 26.738127 Si / 1000 Ang^3
#
#
#
# Elastic Constant Matrix: (Units=GPa)
#
#
# Indices 1 2 3 4 5 6 
#
# 1 127.7150 4.7440 -10.6014 0.0000 0.0000 0.0000
# 2 4.7440 129.5716 18.9902 0.0000 0.0000 0.0000
# 3 -10.6014 18.9902 138.2198 0.0000 0.0000 0.0000
# 4 0.0000 0.0000 0.0000 30.7251 0.0000 0.0000
# 5 0.0000 0.0000 0.0000 0.0000 29.3615 0.0000
# 6 0.0000 0.0000 0.0000 0.0000 0.0000 32.1084
#
#
#
# Elastic Compliance Matrix: (Units=1/GPa)
#
#
# Indices 1 2 3 4 5 6 
#
# 1 0.007899 -0.000386 0.000659 0.000000 0.000000 0.000000
# 2 -0.000386 0.007895 -0.001114 0.000000 0.000000 0.000000
# 3 0.000659 -0.001114 0.007438 0.000000 0.000000 0.000000
# 4 0.000000 0.000000 0.000000 0.032547 0.000000 0.000000
# 5 0.000000 0.000000 0.000000 0.000000 0.034058 0.000000
# 6 0.000000 0.000000 0.000000 0.000000 0.000000 0.031144
#
#
# Mechanical properties :
#
#
# Convention : Reuss Voigt Hill
#
# Bulk Modulus (GPa) = 46.40339 46.86355 46.63347
# Shear Modulus (GPa) = 38.50664 43.93060 41.21862
#
# Velocity S-wave (km/s) = 3.79903 4.05778 3.93054
# Velocity P-wave (km/s) = 6.05277 6.28642 6.17070
#
# Compressibility (1/GPa) = 0.02155015
#
# Stress axis : x y z
#
# Youngs Moduli (GPa) = 126.59902 126.65951 134.43604
#
# Poissons Ratio (x) = 0.04886 -0.08857
# Poissons Ratio (y) = 0.04884 0.14980
# Poissons Ratio (z) = -0.08341 0.14114
#
# Static dielectric constant tensor:
#      x y z
#    x 2.255600 0.000000 0.000000 
#    y 0.000000 2.054430 0.000000 
#    z 0.000000 0.000000 2.220270 
# 
# From -- ./inp_files/37371.got.cif
#   From: 2010.05.17/outbox.cif.g08.bks.cpg/sg70_19_cif.got.tgz:37371.got - 2010.06.03 15:57:51.
