data_PCOD9515019
_publ_section_title
;
Structure prediction by ZEFSAII (Michael W. Deem and Ramdas Pophale) SiO2 
 PCOD9515019
Probable space group: F D D D
;
_chemical_formula_sum "Si O2"
_cell_formula_units_Z 96
_cell_length_a 28.480971
_cell_length_b 8.882389
_cell_length_c 16.382648
_cell_angle_alpha 90.000000
_cell_angle_beta 90.000000
_cell_angle_gamma 90.000000
_cell_volume 4144.466949
_symmetry_space_group_name_H-M "F D D D"
_symmetry_group_IT_number 70
_space_group.IT_coordinate_system_code '2'
_symmetry_cell_setting 'orthorhombic'
loop_
_space_group_symop_operation_xyz
x,y,z
1/4-x,1/4-y,z
x,1/4-y,1/4-z
1/4-x,y,1/4-z
-x,-y,-z
3/4+x,3/4+y,-z
-x,3/4+y,3/4+z
3/4+x,-y,3/4+z
x,1/2+y,1/2+z
1/4-x,3/4-y,1/2+z
x,3/4-y,3/4-z
1/4-x,1/2+y,3/4-z
-x,1/2-y,1/2-z
3/4+x,1/4+y,1/2-z
-x,1/4+y,1/4+z
3/4+x,1/2-y,1/4+z
1/2+x,y,1/2+z
3/4-x,1/4-y,1/2+z
1/2+x,1/4-y,3/4-z
3/4-x,y,3/4-z
1/2-x,-y,1/2-z
1/4+x,3/4+y,1/2-z
1/2-x,3/4+y,1/4+z
1/4+x,-y,1/4+z
1/2+x,1/2+y,z
3/4-x,3/4-y,z
1/2+x,3/4-y,1/4-z
3/4-x,1/2+y,1/4-z
1/2-x,1/2-y,-z
1/4+x,1/4+y,-z
1/2-x,1/4+y,3/4+z
1/4+x,1/2-y,3/4+z
loop_
_atom_site_type_symbol
_atom_site_label
_atom_site_fract_x
_atom_site_fract_y
_atom_site_fract_z
Si Si1 0.889100 0.590617 0.280768
Si Si2 0.707198 0.013600 0.311358
Si Si3 0.950151 0.941823 0.033077
O O1 0.875000 0.594548 0.375000
O O2 0.912305 0.739616 0.245151
O O3 0.927591 0.456290 0.263512
O O4 0.842009 0.556779 0.231177
O O5 0.709278 0.875000 0.375000
O O6 0.750000 0.000000 0.250000
O O7 0.706506 0.153763 0.371732
O O8 0.000000 0.000000 0.000000
#
# Coordination Sequence:
#
# PCOD9515019 Si02
#       3
#    32  32  32
#     4  10  21  41  65  95 128 167 217 267 323 391
#     4  10  22  42  63  92 129 166 211 266 324 384
#     4  10  20  38  66  96 126 168 216 267 322 390
#
# _framework density 23.163415000000001
#
# number of rings (size 3 to 8) (size 9 to 14) (size 15 to 20)
#    0.000    2.000    0.000    4.000    0.000    2.667 
#    0.000   73.333    0.000    6.000    0.000    0.000 
#    0.000    0.000    0.000    0.000    0.000    0.000 
#
# Total GULP energy -134197.092303 kJ/mol
# GULP energy per Si atom -5591.545513 kJ/mol
# Density = 2.311069 g / cm^3
# Si number density = 23.163415 Si / 1000 Ang^3
#
#
#
# Elastic Constant Matrix: (Units=GPa)
#
#
# Indices 1 2 3 4 5 6 
#
# 1 231.3338 73.4730 109.3362 0.0000 0.0000 0.0000
# 2 73.4730 43.7701 57.5380 0.0000 0.0000 0.0000
# 3 109.3362 57.5380 223.9101 0.0000 0.0000 0.0000
# 4 0.0000 0.0000 0.0000 22.6945 0.0000 0.0000
# 5 0.0000 0.0000 0.0000 0.0000 58.3239 0.0000
# 6 0.0000 0.0000 0.0000 0.0000 0.0000 30.5551
#
#
#
# Elastic Compliance Matrix: (Units=1/GPa)
#
#
# Indices 1 2 3 4 5 6 
#
# 1 0.009354 -0.014644 -0.000805 0.000000 0.000000 0.000000
# 2 -0.014644 0.057428 -0.007606 0.000000 0.000000 0.000000
# 3 -0.000805 -0.007606 0.006813 0.000000 0.000000 0.000000
# 4 0.000000 0.000000 0.000000 0.044064 0.000000 0.000000
# 5 0.000000 0.000000 0.000000 0.000000 0.017146 0.000000
# 6 0.000000 0.000000 0.000000 0.000000 0.000000 0.032728
#
#
# Mechanical properties :
#
#
# Convention : Reuss Voigt Hill
#
# Bulk Modulus (GPa) = 36.38346 108.85648 72.61997
# Shear Modulus (GPa) = 22.44124 39.55915 31.00020
#
# Velocity S-wave (km/s) = 3.11597 4.13707 3.66228
# Velocity P-wave (km/s) = 5.35603 8.36167 7.02156
#
# Compressibility (1/GPa) = 0.02748501
#
# Stress axis : x y z
#
# Youngs Moduli (GPa) = 106.90451 17.41322 146.76776
#
# Poissons Ratio (x) = 0.25501 0.11808
# Poissons Ratio (y) = 1.56555 1.11635
# Poissons Ratio (z) = 0.08601 0.13245
#
# Static dielectric constant tensor:
#      x y z
#    x 1.831120 0.000000 0.000000 
#    y 0.000000 2.025310 0.000000 
#    z 0.000000 0.000000 1.823640 
# 
# From -- ./inp_files/20115.got.cif
#   From: 2010.05.17/outbox.cif.g08.bks.cpg/sg70_11_cif.got.tgz:20115.got - 2010.06.03 15:57:51.
