data_PCOD9515455
_publ_section_title
;
Structure prediction by ZEFSAII (Michael W. Deem and Ramdas Pophale) SiO2 
 PCOD9515455
Probable space group: F D D D
;
_chemical_formula_sum "Si O2"
_cell_formula_units_Z 192
_cell_length_a 32.351668
_cell_length_b 24.687081
_cell_length_c 12.590122
_cell_angle_alpha 90.000000
_cell_angle_beta 90.000000
_cell_angle_gamma 90.000000
_cell_volume 10055.330685
_symmetry_space_group_name_H-M "F D D D"
_symmetry_group_IT_number 70
_space_group.IT_coordinate_system_code '2'
_symmetry_cell_setting 'orthorhombic'
loop_
_space_group_symop_operation_xyz
x,y,z
1/4-x,1/4-y,z
x,1/4-y,1/4-z
1/4-x,y,1/4-z
-x,-y,-z
3/4+x,3/4+y,-z
-x,3/4+y,3/4+z
3/4+x,-y,3/4+z
x,1/2+y,1/2+z
1/4-x,3/4-y,1/2+z
x,3/4-y,3/4-z
1/4-x,1/2+y,3/4-z
-x,1/2-y,1/2-z
3/4+x,1/4+y,1/2-z
-x,1/4+y,1/4+z
3/4+x,1/2-y,1/4+z
1/2+x,y,1/2+z
3/4-x,1/4-y,1/2+z
1/2+x,1/4-y,3/4-z
3/4-x,y,3/4-z
1/2-x,-y,1/2-z
1/4+x,3/4+y,1/2-z
1/2-x,3/4+y,1/4+z
1/4+x,-y,1/4+z
1/2+x,1/2+y,z
3/4-x,3/4-y,z
1/2+x,3/4-y,1/4-z
3/4-x,1/2+y,1/4-z
1/2-x,1/2-y,-z
1/4+x,1/4+y,-z
1/2-x,1/4+y,3/4+z
1/4+x,1/2-y,3/4+z
loop_
_atom_site_type_symbol
_atom_site_label
_atom_site_fract_x
_atom_site_fract_y
_atom_site_fract_z
Si Si1 0.142480 0.181553 0.432244
Si Si2 0.603458 0.966022 0.240693
Si Si3 0.307628 0.301609 0.759073
Si Si4 0.875000 0.875000 0.375000
Si Si5 0.575865 0.434096 0.162365
Si Si6 0.530690 0.856231 0.494870
Si Si7 0.401982 0.625000 0.625000
Si Si8 0.125000 0.625000 0.625000
O O1 0.125000 0.125000 0.386701
O O2 0.108042 0.226789 0.450873
O O3 0.177949 0.206815 0.362257
O O4 0.153427 0.161818 0.550573
O O5 0.556853 0.947220 0.228409
O O6 0.625325 0.921151 0.315188
O O7 0.625000 0.966601 0.125000
O O8 0.307638 0.244266 0.819672
O O9 0.266873 0.338221 0.754909
O O10 0.344433 0.335714 0.811501
O O11 0.625000 0.435763 0.125000
O O12 0.548590 0.401242 0.076212
O O13 0.574789 0.403754 0.276555
O O14 0.539625 0.875000 0.375000
#
# Coordination Sequence:
#
# PCOD9515455 Si02
#       8
#    32  32  32   8  32  32  16   8
#     4  10  21  39  68  96 131 180 227 270 336 416
#     4  12  20  39  71  98 133 177 227 273 338 414
#     4  12  26  42  68  99 137 175 228 287 348 403
#     4   8  18  40  66  96 120 178 238 260 322 428
#     4  12  24  44  72 101 136 185 232 277 350 422
#     4  12  26  43  65 104 139 176 227 294 344 403
#     4  12  20  39  73 102 126 178 232 272 333 427
#     4  12  22  46  64  92 132 174 218 284 344 414
#
# _framework density 19.094349999999999
#
# number of rings (size 3 to 8) (size 9 to 14) (size 15 to 20)
#    0.500    0.000    9.167    0.000    0.000    2.000 
#    0.000    4.167    0.000    0.000    0.000    0.000 
#    0.000    0.000    0.000    0.000    0.000    0.000 
#
# Total GULP energy -267358.693629 kJ/mol
# GULP energy per Si atom -5569.972784 kJ/mol
# Density = 1.905089 g / cm^3
# Si number density = 19.094350 Si / 1000 Ang^3
#
#
#
# Elastic Constant Matrix: (Units=GPa)
#
#
# Indices 1 2 3 4 5 6 
#
# 1 112.9928 45.1276 46.7396 0.0000 0.0000 0.0000
# 2 45.1276 139.4015 43.6712 0.0000 0.0000 0.0000
# 3 46.7396 43.6712 120.9568 -0.0002 0.0000 0.0001
# 4 0.0000 0.0000 -0.0002 3.4022 0.0000 0.0001
# 5 0.0000 0.0000 0.0000 0.0000 9.5264 0.0000
# 6 0.0000 0.0000 0.0001 0.0001 0.0000 0.6454
#
#
#
# Elastic Compliance Matrix: (Units=1/GPa)
#
#
# Indices 1 2 3 4 5 6 
#
# 1 0.011303 -0.002583 -0.003435 0.000000 0.000000 0.000001
# 2 -0.002583 0.008679 -0.002135 0.000000 0.000000 0.000000
# 3 -0.003435 -0.002135 0.010366 0.000000 0.000000 -0.000002
# 4 0.000000 0.000000 0.000000 0.293931 0.000000 -0.000043
# 5 0.000000 0.000000 0.000000 0.000000 0.104971 0.000000
# 6 0.000001 0.000000 -0.000002 -0.000043 0.000000 1.549437
#
#
# Mechanical properties :
#
#
# Convention : Reuss Voigt Hill
#
# Bulk Modulus (GPa) = 71.22207 71.60310 71.41259
# Shear Modulus (GPa) = 2.50041 18.56897 10.53469
#
# Velocity S-wave (km/s) = 1.14558 3.12185 2.35142
# Velocity P-wave (km/s) = 6.25547 7.11166 6.69726
#
# Compressibility (1/GPa) = 0.01404059
#
# Stress axis : x y z
#
# Youngs Moduli (GPa) = 88.47579 115.22604 96.47198
#
# Poissons Ratio (x) = 0.29761 0.33138
# Poissons Ratio (y) = 0.22852 0.20600
# Poissons Ratio (z) = 0.30391 0.24605
#
# Static dielectric constant tensor:
#      x y z
#    x 1.670820 0.000000 0.000000 
#    y 0.000000 1.733660 0.000000 
#    z 0.000000 0.000000 1.748330 
# 
# From -- ./inp_files/22515.got.cif
#   From: 2010.05.17/outbox.cif.g08.bks.cpg/sg70_12_cif.got.tgz:22515.got - 2010.06.03 15:57:51.
