data_PCOD9515660
_publ_section_title
;
Structure prediction by ZEFSAII (Michael W. Deem and Ramdas Pophale) SiO2 
 PCOD9515660
Probable space group: F D D D
;
_chemical_formula_sum "Si O2"
_cell_formula_units_Z 176
_cell_length_a 20.948896
_cell_length_b 18.797045
_cell_length_c 19.647303
_cell_angle_alpha 90.000000
_cell_angle_beta 90.000000
_cell_angle_gamma 90.000000
_cell_volume 7736.662729
_symmetry_space_group_name_H-M "F D D D"
_symmetry_group_IT_number 70
_space_group.IT_coordinate_system_code '2'
_symmetry_cell_setting 'orthorhombic'
loop_
_space_group_symop_operation_xyz
x,y,z
1/4-x,1/4-y,z
x,1/4-y,1/4-z
1/4-x,y,1/4-z
-x,-y,-z
3/4+x,3/4+y,-z
-x,3/4+y,3/4+z
3/4+x,-y,3/4+z
x,1/2+y,1/2+z
1/4-x,3/4-y,1/2+z
x,3/4-y,3/4-z
1/4-x,1/2+y,3/4-z
-x,1/2-y,1/2-z
3/4+x,1/4+y,1/2-z
-x,1/4+y,1/4+z
3/4+x,1/2-y,1/4+z
1/2+x,y,1/2+z
3/4-x,1/4-y,1/2+z
1/2+x,1/4-y,3/4-z
3/4-x,y,3/4-z
1/2-x,-y,1/2-z
1/4+x,3/4+y,1/2-z
1/2-x,3/4+y,1/4+z
1/4+x,-y,1/4+z
1/2+x,1/2+y,z
3/4-x,3/4-y,z
1/2+x,3/4-y,1/4-z
3/4-x,1/2+y,1/4-z
1/2-x,1/2-y,-z
1/4+x,1/4+y,-z
1/2-x,1/4+y,3/4+z
1/4+x,1/2-y,3/4+z
loop_
_atom_site_type_symbol
_atom_site_label
_atom_site_fract_x
_atom_site_fract_y
_atom_site_fract_z
Si Si1 0.084343 0.696348 0.005142
Si Si2 0.475199 0.802488 0.398733
Si Si3 0.223699 0.399180 0.589871
Si Si4 0.875000 0.038011 0.375000
Si Si5 0.937477 0.828077 0.046237
Si Si6 0.120579 0.456693 0.371907
O O1 0.125000 0.625000 0.014089
O O2 0.083280 0.739081 0.075402
O O3 0.017736 0.668615 0.974261
O O4 0.117963 0.748314 0.948900
O O5 0.443605 0.875000 0.375000
O O6 0.445785 0.725335 0.387047
O O7 0.479645 0.814617 0.479784
O O8 0.544522 0.797832 0.362750
O O9 0.170128 0.339979 0.581245
O O10 0.271871 0.369361 0.647126
O O11 0.875000 0.875000 0.029442
O O12 0.910103 0.754895 0.076487
O O13 0.143472 0.375000 0.375000
#
# Coordination Sequence:
#
# PCOD9515660 Si02
#       6
#    32  32  32  16  32  32
#     4  11  22  49  71 103 152 194 246 311 369 438
#     4  10  24  42  67 107 142 181 245 297 360 445
#     4  11  23  48  71 105 151 190 246 309 366 440
#     4  12  29  42  77 114 146 198 248 310 373 448
#     4  12  22  45  76  98 142 197 232 302 375 420
#     4  10  21  44  72 103 136 190 243 295 360 444
#
# _framework density 22.748826999999999
#
# number of rings (size 3 to 8) (size 9 to 14) (size 15 to 20)
#    0.000    1.091    5.455    2.455    2.545    3.273 
#    0.000    0.000    0.000    0.000    0.000    0.000 
#    0.000    0.000    0.000    0.000    0.000    0.000 
#
# Total GULP energy -245803.170017 kJ/mol
# GULP energy per Si atom -5586.435682 kJ/mol
# Density = 2.269705 g / cm^3
# Si number density = 22.748827 Si / 1000 Ang^3
#
#
#
# Elastic Constant Matrix: (Units=GPa)
#
#
# Indices 1 2 3 4 5 6 
#
# 1 89.9498 49.2635 34.1971 0.0000 0.0000 0.0000
# 2 49.2635 208.7423 43.7272 0.0000 0.0000 0.0000
# 3 34.1971 43.7272 78.8547 0.0000 0.0000 0.0000
# 4 0.0000 0.0000 0.0000 32.5086 0.0000 0.0000
# 5 0.0000 0.0000 0.0000 0.0000 16.6064 0.0000
# 6 0.0000 0.0000 0.0000 0.0000 0.0000 13.2091
#
#
#
# Elastic Compliance Matrix: (Units=1/GPa)
#
#
# Indices 1 2 3 4 5 6 
#
# 1 0.014257 -0.002341 -0.004884 0.000000 0.000000 0.000000
# 2 -0.002341 0.005805 -0.002203 0.000000 0.000000 0.000000
# 3 -0.004884 -0.002203 0.016022 0.000000 0.000000 0.000000
# 4 0.000000 0.000000 0.000000 0.030761 0.000000 0.000000
# 5 0.000000 0.000000 0.000000 0.000000 0.060218 0.000000
# 6 0.000000 0.000000 0.000000 0.000000 0.000000 0.075705
#
#
# Mechanical properties :
#
#
# Convention : Reuss Voigt Hill
#
# Bulk Modulus (GPa) = 58.05668 70.21359 64.13514
# Shear Modulus (GPa) = 21.99087 29.15541 25.57314
#
# Velocity S-wave (km/s) = 3.11252 3.58386 3.35648
# Velocity P-wave (km/s) = 6.20429 6.93232 6.57839
#
# Compressibility (1/GPa) = 0.01722455
#
# Stress axis : x y z
#
# Youngs Moduli (GPa) = 70.14315 172.27242 62.41560
#
# Poissons Ratio (x) = 0.40336 0.30486
# Poissons Ratio (y) = 0.16423 0.13753
# Poissons Ratio (z) = 0.34260 0.37960
#
# Static dielectric constant tensor:
#      x y z
#    x 1.844960 0.000000 0.000000 
#    y 0.000000 1.878610 0.000000 
#    z 0.000000 0.000000 1.841050 
# 
# From -- ./inp_files/38548.got.cif
#   From: 2010.05.17/outbox.cif.g08.bks.cpg/sg70_20_cif.got.tgz:38548.got - 2010.06.03 15:57:51.
