data_PCOD9515717
_publ_section_title
;
Structure prediction by ZEFSAII (Michael W. Deem and Ramdas Pophale) SiO2 
 PCOD9515717
Probable space group: F D D D
;
_chemical_formula_sum "Si O2"
_cell_formula_units_Z 176
_cell_length_a 12.622067
_cell_length_b 23.475851
_cell_length_c 26.915823
_cell_angle_alpha 90.000000
_cell_angle_beta 90.000000
_cell_angle_gamma 90.000000
_cell_volume 7975.528830
_symmetry_space_group_name_H-M "F D D D"
_symmetry_group_IT_number 70
_space_group.IT_coordinate_system_code '2'
_symmetry_cell_setting 'orthorhombic'
loop_
_space_group_symop_operation_xyz
x,y,z
1/4-x,1/4-y,z
x,1/4-y,1/4-z
1/4-x,y,1/4-z
-x,-y,-z
3/4+x,3/4+y,-z
-x,3/4+y,3/4+z
3/4+x,-y,3/4+z
x,1/2+y,1/2+z
1/4-x,3/4-y,1/2+z
x,3/4-y,3/4-z
1/4-x,1/2+y,3/4-z
-x,1/2-y,1/2-z
3/4+x,1/4+y,1/2-z
-x,1/4+y,1/4+z
3/4+x,1/2-y,1/4+z
1/2+x,y,1/2+z
3/4-x,1/4-y,1/2+z
1/2+x,1/4-y,3/4-z
3/4-x,y,3/4-z
1/2-x,-y,1/2-z
1/4+x,3/4+y,1/2-z
1/2-x,3/4+y,1/4+z
1/4+x,-y,1/4+z
1/2+x,1/2+y,z
3/4-x,3/4-y,z
1/2+x,3/4-y,1/4-z
3/4-x,1/2+y,1/4-z
1/2-x,1/2-y,-z
1/4+x,1/4+y,-z
1/2-x,1/4+y,3/4+z
1/4+x,1/2-y,3/4+z
loop_
_atom_site_type_symbol
_atom_site_label
_atom_site_fract_x
_atom_site_fract_y
_atom_site_fract_z
Si Si1 0.241341 0.995619 0.026562
Si Si2 0.442664 0.625000 0.125000
Si Si3 0.508417 0.139019 0.463798
Si Si4 0.125000 0.820247 0.125000
Si Si5 0.375000 0.469694 0.875000
Si Si6 0.917497 0.111387 0.725656
Si Si7 0.555428 0.068459 0.945555
O O1 0.358471 0.979760 0.045033
O O2 0.161914 0.996768 0.074642
O O3 0.225648 0.947884 0.984007
O O4 0.236898 0.054944 0.998075
O O5 0.522889 0.571697 0.116723
O O6 0.365135 0.618501 0.171753
O O7 0.625000 0.125000 0.448786
O O8 0.436622 0.144074 0.415850
O O9 0.445994 0.096692 0.499019
O O10 0.220521 0.793509 0.093590
O O11 0.985801 0.157203 0.757855
O O12 0.625000 0.125000 0.929520
#
# Coordination Sequence:
#
# PCOD9515717 Si02
#       7
#    32  16  32  16  16  32  32
#     4  11  24  43  68 100 138 184 231 283 347 424
#     4  11  22  44  65  98 142 187 230 294 351 416
#     4  11  23  43  64  96 136 175 228 289 342 410
#     4  10  22  37  66  93 129 174 216 282 345 398
#     4  11  24  41  72  99 136 186 237 290 354 412
#     4  10  23  42  67  97 139 183 226 288 347 415
#     4   9  21  42  63  95 134 174 221 279 340 409
#
# _framework density 22.067502999999999
#
# number of rings (size 3 to 8) (size 9 to 14) (size 15 to 20)
#    0.000    1.636    1.818    1.636    0.000   15.273 
#    3.273    3.182    0.000    0.000    0.000    0.000 
#    0.000    0.000    0.000    0.000    0.000    0.000 
#
# Total GULP energy -245169.925938 kJ/mol
# GULP energy per Si atom -5572.043771 kJ/mol
# Density = 2.201728 g / cm^3
# Si number density = 22.067503 Si / 1000 Ang^3
#
#
#
# Elastic Constant Matrix: (Units=GPa)
#
#
# Indices 1 2 3 4 5 6 
#
# 1 145.2440 22.8676 71.5716 0.0000 0.0000 0.0000
# 2 22.8676 49.7732 18.0137 0.0000 0.0000 0.0000
# 3 71.5716 18.0137 129.5427 0.0000 0.0000 0.0000
# 4 0.0000 0.0000 0.0000 -10.6018 0.0000 0.0000
# 5 0.0000 0.0000 0.0000 0.0000 -44.7736 0.0000
# 6 0.0000 0.0000 0.0000 0.0000 0.0000 13.2500
#
#
#
# Elastic Compliance Matrix: (Units=1/GPa)
#
#
# Indices 1 2 3 4 5 6 
#
# 1 0.009787 -0.002674 -0.005036 0.000000 0.000000 0.000000
# 2 -0.002674 0.021887 -0.001566 0.000000 0.000000 0.000000
# 3 -0.005036 -0.001566 0.010719 0.000000 0.000000 0.000000
# 4 0.000000 0.000000 0.000000 -0.094324 0.000000 0.000000
# 5 0.000000 0.000000 0.000000 0.000000 -0.022335 0.000000
# 6 0.000000 0.000000 0.000000 0.000000 0.000000 0.075472
#
#
# Mechanical properties :
#
#
# Convention : Reuss Voigt Hill
#
# Bulk Modulus (GPa) = 41.94333 61.05173 51.49753
# Shear Modulus (GPa) = 180.46927 5.71539 93.09233
#
# Velocity S-wave (km/s) = 9.05307 1.61108 6.50206
# Velocity P-wave (km/s) = 11.32809 5.58451 8.93063
#
# Compressibility (1/GPa) = 0.02384169
#
# Stress axis : x y z
#
# Youngs Moduli (GPa) = 102.17226 45.69025 93.28906
#
# Poissons Ratio (x) = 0.12219 0.46977
# Poissons Ratio (y) = 0.27323 0.14609
# Poissons Ratio (z) = 0.51450 0.07155
#
# Static dielectric constant tensor:
#      x y z
#    x 1.822720 0.000000 0.000000 
#    y 0.000000 1.827910 0.000000 
#    z 0.000000 0.000000 1.968190 
# 
# From -- ./inp_files/57638.got.cif
#   From: 2010.05.17/outbox.cif.g08.bks.cpg/sg70_29_cif.got.tgz:57638.got - 2010.06.03 15:57:51.
