data_PCOD9515044
_publ_section_title
;
Structure prediction by ZEFSAII (Michael W. Deem and Ramdas Pophale) SiO2 
 PCOD9515044
Probable space group: F D D D
;
_chemical_formula_sum "Si O2"
_cell_formula_units_Z 160
_cell_length_a 24.083024
_cell_length_b 16.888643
_cell_length_c 19.061587
_cell_angle_alpha 90.000000
_cell_angle_beta 90.000000
_cell_angle_gamma 90.000000
_cell_volume 7752.911555
_symmetry_space_group_name_H-M "F D D D"
_symmetry_group_IT_number 70
_space_group.IT_coordinate_system_code '2'
_symmetry_cell_setting 'orthorhombic'
loop_
_space_group_symop_operation_xyz
x,y,z
1/4-x,1/4-y,z
x,1/4-y,1/4-z
1/4-x,y,1/4-z
-x,-y,-z
3/4+x,3/4+y,-z
-x,3/4+y,3/4+z
3/4+x,-y,3/4+z
x,1/2+y,1/2+z
1/4-x,3/4-y,1/2+z
x,3/4-y,3/4-z
1/4-x,1/2+y,3/4-z
-x,1/2-y,1/2-z
3/4+x,1/4+y,1/2-z
-x,1/4+y,1/4+z
3/4+x,1/2-y,1/4+z
1/2+x,y,1/2+z
3/4-x,1/4-y,1/2+z
1/2+x,1/4-y,3/4-z
3/4-x,y,3/4-z
1/2-x,-y,1/2-z
1/4+x,3/4+y,1/2-z
1/2-x,3/4+y,1/4+z
1/4+x,-y,1/4+z
1/2+x,1/2+y,z
3/4-x,3/4-y,z
1/2+x,3/4-y,1/4-z
3/4-x,1/2+y,1/4-z
1/2-x,1/2-y,-z
1/4+x,1/4+y,-z
1/2-x,1/4+y,3/4+z
1/4+x,1/2-y,3/4+z
loop_
_atom_site_type_symbol
_atom_site_label
_atom_site_fract_x
_atom_site_fract_y
_atom_site_fract_z
Si Si1 0.375000 0.375000 0.754892
Si Si2 0.339943 0.486034 0.266606
Si Si3 0.782415 0.607249 0.423250
Si Si4 0.125000 0.512337 0.625000
Si Si5 0.549748 0.537675 0.357072
Si Si6 0.290274 0.430548 0.452464
O O1 0.348761 0.435275 0.812061
O O2 0.409930 0.431768 0.703525
O O3 0.310061 0.567434 0.286978
O O4 0.330386 0.471224 0.182881
O O5 0.310918 0.410614 0.304857
O O6 0.403399 0.482487 0.293726
O O7 0.827998 0.544131 0.405074
O O8 0.748463 0.646093 0.360444
O O9 0.735191 0.567540 0.469811
O O10 0.513350 0.460195 0.340282
#
# Coordination Sequence:
#
# PCOD9515044 Si02
#       6
#    16  32  32  16  32  32
#     4  11  24  44  66  90 130 185 226 282 318 391
#     4  10  23  39  64 100 135 160 217 273 331 413
#     4  11  22  40  64  95 131 167 214 274 328 394
#     4  11  24  44  64  91 134 176 236 271 324 400
#     4  11  21  40  69  93 128 178 216 270 342 392
#     4  10  20  39  61  94 130 168 205 262 340 385
#
# _framework density 20.637408000000001
#
# number of rings (size 3 to 8) (size 9 to 14) (size 15 to 20)
#    0.000    1.400    2.000    6.000    0.000    4.000 
#    0.000    4.000    4.400    0.000    0.000    0.000 
#    0.000    0.000    0.000    0.000    0.000    0.000 
#
# Total GULP energy -223046.691439 kJ/mol
# GULP energy per Si atom -5576.167286 kJ/mol
# Density = 2.059044 g / cm^3
# Si number density = 20.637408 Si / 1000 Ang^3
#
#
#
# Elastic Constant Matrix: (Units=GPa)
#
#
# Indices 1 2 3 4 5 6 
#
# 1 94.3321 21.8994 34.0335 0.0000 0.0000 0.0000
# 2 21.8994 52.1053 41.8978 0.0000 0.0000 0.0000
# 3 34.0335 41.8978 100.2784 0.0000 0.0000 0.0000
# 4 0.0000 0.0000 0.0000 53.7689 0.0000 0.0000
# 5 0.0000 0.0000 0.0000 0.0000 28.4029 0.0000
# 6 0.0000 0.0000 0.0000 0.0000 0.0000 17.0638
#
#
#
# Elastic Compliance Matrix: (Units=1/GPa)
#
#
# Indices 1 2 3 4 5 6 
#
# 1 0.012334 -0.002738 -0.003042 0.000000 0.000000 0.000000
# 2 -0.002738 0.029510 -0.011400 0.000000 0.000000 0.000000
# 3 -0.003042 -0.011400 0.015768 0.000000 0.000000 0.000000
# 4 0.000000 0.000000 0.000000 0.018598 0.000000 0.000000
# 5 0.000000 0.000000 0.000000 0.000000 0.035208 0.000000
# 6 0.000000 0.000000 0.000000 0.000000 0.000000 0.058604
#
#
# Mechanical properties :
#
#
# Convention : Reuss Voigt Hill
#
# Bulk Modulus (GPa) = 43.00885 49.15303 46.08094
# Shear Modulus (GPa) = 23.57028 29.77280 26.67154
#
# Velocity S-wave (km/s) = 3.38318 3.80236 3.59888
# Velocity P-wave (km/s) = 6.01222 6.56859 6.29655
#
# Compressibility (1/GPa) = 0.02325103
#
# Stress axis : x y z
#
# Youngs Moduli (GPa) = 81.07694 33.88738 63.41977
#
# Poissons Ratio (x) = 0.09277 0.19294
# Poissons Ratio (y) = 0.22196 0.72301
# Poissons Ratio (z) = 0.24665 0.38633
#
# Static dielectric constant tensor:
#      x y z
#    x 1.698990 0.000000 0.000000 
#    y 0.000000 1.767720 0.000000 
#    z 0.000000 0.000000 1.825840 
# 
# From -- ./inp_files/45820.got.cif
#   From: 2010.05.17/outbox.cif.g08.bks.cpg/sg70_23_cif.got.tgz:45820.got - 2010.06.03 15:57:51.
