data_PCOD9515897
_publ_section_title
;
Structure prediction by ZEFSAII (Michael W. Deem and Ramdas Pophale) SiO2 
 PCOD9515897
Probable space group: F D D D
;
_chemical_formula_sum "Si O2"
_cell_formula_units_Z 208
_cell_length_a 19.071066
_cell_length_b 31.867448
_cell_length_c 16.607605
_cell_angle_alpha 90.000000
_cell_angle_beta 90.000000
_cell_angle_gamma 90.000000
_cell_volume 10093.208897
_symmetry_space_group_name_H-M "F D D D"
_symmetry_group_IT_number 70
_space_group.IT_coordinate_system_code '2'
_symmetry_cell_setting 'orthorhombic'
loop_
_space_group_symop_operation_xyz
x,y,z
1/4-x,1/4-y,z
x,1/4-y,1/4-z
1/4-x,y,1/4-z
-x,-y,-z
3/4+x,3/4+y,-z
-x,3/4+y,3/4+z
3/4+x,-y,3/4+z
x,1/2+y,1/2+z
1/4-x,3/4-y,1/2+z
x,3/4-y,3/4-z
1/4-x,1/2+y,3/4-z
-x,1/2-y,1/2-z
3/4+x,1/4+y,1/2-z
-x,1/4+y,1/4+z
3/4+x,1/2-y,1/4+z
1/2+x,y,1/2+z
3/4-x,1/4-y,1/2+z
1/2+x,1/4-y,3/4-z
3/4-x,y,3/4-z
1/2-x,-y,1/2-z
1/4+x,3/4+y,1/2-z
1/2-x,3/4+y,1/4+z
1/4+x,-y,1/4+z
1/2+x,1/2+y,z
3/4-x,3/4-y,z
1/2+x,3/4-y,1/4-z
3/4-x,1/2+y,1/4-z
1/2-x,1/2-y,-z
1/4+x,1/4+y,-z
1/2-x,1/4+y,3/4+z
1/4+x,1/2-y,3/4+z
loop_
_atom_site_type_symbol
_atom_site_label
_atom_site_fract_x
_atom_site_fract_y
_atom_site_fract_z
Si Si1 0.573299 0.388504 0.964426
Si Si2 0.625000 0.013799 0.625000
Si Si3 0.311438 0.039738 0.520963
Si Si4 0.070593 0.943773 0.694978
Si Si5 0.422547 0.833924 0.255230
Si Si6 0.328137 0.457677 0.124726
Si Si7 0.344943 0.463458 0.466147
O O1 0.552339 0.375000 0.875000
O O2 0.632752 0.423339 0.968150
O O3 0.595388 0.345316 0.004652
O O4 0.502640 0.404051 0.006489
O O5 0.580326 0.046664 0.571394
O O6 0.668912 0.985297 0.561988
O O7 0.231833 0.057268 0.524299
O O8 0.321085 0.005755 0.593362
O O9 0.125000 0.949502 0.625000
O O10 0.994113 0.937565 0.656651
O O11 0.073379 0.988417 0.738651
O O12 0.375000 0.875000 0.277020
O O13 0.389394 0.814336 0.175392
O O14 0.346340 0.452287 0.218155
O O15 0.375000 0.459608 0.375000
#
# Coordination Sequence:
#
# PCOD9515897 Si02
#       7
#    32  16  32  32  32  32  32
#     4  12  25  39  64  97 136 175 217 279 339 401
#     4  10  23  38  62  98 140 166 218 270 332 406
#     4  10  25  39  65 101 133 174 220 283 335 393
#     4  10  23  41  64  96 128 171 220 280 330 396
#     4  11  22  39  65  96 133 179 214 266 336 416
#     4  10  22  42  65  95 128 172 229 271 337 403
#     4  10  23  44  71  91 127 178 231 277 327 403
#
# _framework density 20.607914999999998
#
# number of rings (size 3 to 8) (size 9 to 14) (size 15 to 20)
#    0.000    1.538    1.538    2.077    9.692    8.000 
#    0.000    0.000    0.000    0.000    0.000    0.000 
#    0.000    0.000    0.000    0.000    0.000    0.000 
#
# Total GULP energy -290209.731507 kJ/mol
# GULP energy per Si atom -5580.956375 kJ/mol
# Density = 2.056101 g / cm^3
# Si number density = 20.607915 Si / 1000 Ang^3
#
#
#
# Elastic Constant Matrix: (Units=GPa)
#
#
# Indices 1 2 3 4 5 6 
#
# 1 53.9695 15.7551 -13.4776 0.0000 0.0000 0.0000
# 2 15.7551 45.6397 -2.7355 0.0000 0.0000 0.0000
# 3 -13.4776 -2.7355 70.6510 0.0000 0.0000 0.0000
# 4 0.0000 0.0000 0.0000 49.8844 0.0000 0.0000
# 5 0.0000 0.0000 0.0000 0.0000 24.7402 0.0000
# 6 0.0000 0.0000 0.0000 0.0000 0.0000 -1.6950
#
#
#
# Elastic Compliance Matrix: (Units=1/GPa)
#
#
# Indices 1 2 3 4 5 6 
#
# 1 0.021597 -0.007225 0.003840 0.000000 0.000000 0.000000
# 2 -0.007225 0.024379 -0.000434 0.000000 0.000000 0.000000
# 3 0.003840 -0.000434 0.014870 0.000000 0.000000 0.000000
# 4 0.000000 0.000000 0.000000 0.020046 0.000000 0.000000
# 5 0.000000 0.000000 0.000000 0.000000 0.040420 0.000000
# 6 0.000000 0.000000 0.000000 0.000000 0.000000 -0.589977
#
#
# Mechanical properties :
#
#
# Convention : Reuss Voigt Hill
#
# Bulk Modulus (GPa) = 18.79455 18.81603 18.80529
# Shear Modulus (GPa) = -11.27931 25.96713 7.34391
#
# Velocity S-wave (km/s) = -2.34204 3.55358 1.88981
# Velocity P-wave (km/s) = 1.35141 5.09780 3.72920
#
# Compressibility (1/GPa) = 0.05320692
#
# Stress axis : x y z
#
# Youngs Moduli (GPa) = 46.30219 41.01897 67.25031
#
# Poissons Ratio (x) = 0.29638 -0.25825
# Poissons Ratio (y) = 0.33455 0.02921
# Poissons Ratio (z) = -0.17781 0.01782
#
# Static dielectric constant tensor:
#      x y z
#    x 1.737930 0.000000 0.000000 
#    y 0.000000 0.520900 0.000000 
#    z 0.000000 0.000000 1.727420 
# 
# From -- ./inp_files/36878.got.cif
#   From: 2010.05.17/outbox.cif.g08.bks.cpg/sg70_19_cif.got.tgz:36878.got - 2010.06.03 15:57:51.
