data_PCOD9515790
_publ_section_title
;
Structure prediction by ZEFSAII (Michael W. Deem and Ramdas Pophale) SiO2 
 PCOD9515790
Probable space group: F D D D
;
_chemical_formula_sum "Si O2"
_cell_formula_units_Z 216
_cell_length_a 11.990394
_cell_length_b 33.240054
_cell_length_c 29.033934
_cell_angle_alpha 90.000000
_cell_angle_beta 90.000000
_cell_angle_gamma 90.000000
_cell_volume 11571.803758
_symmetry_space_group_name_H-M "F D D D"
_symmetry_group_IT_number 70
_space_group.IT_coordinate_system_code '2'
_symmetry_cell_setting 'orthorhombic'
loop_
_space_group_symop_operation_xyz
x,y,z
1/4-x,1/4-y,z
x,1/4-y,1/4-z
1/4-x,y,1/4-z
-x,-y,-z
3/4+x,3/4+y,-z
-x,3/4+y,3/4+z
3/4+x,-y,3/4+z
x,1/2+y,1/2+z
1/4-x,3/4-y,1/2+z
x,3/4-y,3/4-z
1/4-x,1/2+y,3/4-z
-x,1/2-y,1/2-z
3/4+x,1/4+y,1/2-z
-x,1/4+y,1/4+z
3/4+x,1/2-y,1/4+z
1/2+x,y,1/2+z
3/4-x,1/4-y,1/2+z
1/2+x,1/4-y,3/4-z
3/4-x,y,3/4-z
1/2-x,-y,1/2-z
1/4+x,3/4+y,1/2-z
1/2-x,3/4+y,1/4+z
1/4+x,-y,1/4+z
1/2+x,1/2+y,z
3/4-x,3/4-y,z
1/2+x,3/4-y,1/4-z
3/4-x,1/2+y,1/4-z
1/2-x,1/2-y,-z
1/4+x,1/4+y,-z
1/2-x,1/4+y,3/4+z
1/4+x,1/2-y,3/4+z
loop_
_atom_site_type_symbol
_atom_site_label
_atom_site_fract_x
_atom_site_fract_y
_atom_site_fract_z
Si Si1 0.380067 0.164816 0.929495
Si Si2 0.621234 0.670127 0.818049
Si Si3 0.371203 0.671985 0.786374
Si Si4 0.375000 0.020104 0.875000
Si Si5 0.009530 0.689968 0.558807
Si Si6 0.359957 0.246693 0.619605
Si Si7 0.029537 0.748871 0.697604
Si Si8 0.875000 0.375000 0.375000
O O1 0.375000 0.155917 0.875000
O O2 0.503243 0.173134 0.951085
O O3 0.338361 0.123925 0.952364
O O4 0.316250 0.206373 0.934151
O O5 0.625000 0.625000 0.838995
O O6 0.509787 0.672806 0.786053
O O7 0.617958 0.706414 0.854198
O O8 0.351428 0.701446 0.830343
O O9 0.298230 0.682391 0.741168
O O10 0.479476 0.991269 0.880670
O O11 0.121210 0.717110 0.558058
O O12 0.046996 0.652063 0.590735
O O13 0.920038 0.717917 0.584047
O O14 0.422829 0.238967 0.666941
O O15 0.000000 0.750000 0.750000
#
# Coordination Sequence:
#
# PCOD9515790 Si02
#       8
#    32  32  32  16  32  32  32   8
#     4  11  19  39  66  94 133 176 215 280 349 409
#     4   9  19  36  63  94 132 169 213 271 343 412
#     4  10  23  39  62 101 133 172 219 280 349 410
#     4  10  22  40  63 105 138 162 214 282 340 422
#     4  12  25  47  67  92 129 186 229 279 348 401
#     4  11  21  42  64  89 136 177 218 266 342 404
#     4  12  24  39  63 102 129 169 232 280 337 413
#     4  12  28  48  74  90 140 184 244 298 322 414
#
# _framework density 18.666062
#
# number of rings (size 3 to 8) (size 9 to 14) (size 15 to 20)
#    0.000    1.185    5.185    0.889    2.074    2.370 
#    2.667    0.000    3.259    0.000    0.000    0.000 
#    0.000    0.000    0.000    0.000    0.000    0.000 
#
# Total GULP energy -300673.779239 kJ/mol
# GULP energy per Si atom -5568.032949 kJ/mol
# Density = 1.862358 g / cm^3
# Si number density = 18.666062 Si / 1000 Ang^3
#
#
#
# Elastic Constant Matrix: (Units=GPa)
#
#
# Indices 1 2 3 4 5 6 
#
# 1 94.7260 44.4609 38.4238 0.0000 0.0000 0.0000
# 2 44.4609 71.1997 48.5947 0.0000 0.0000 0.0000
# 3 38.4238 48.5947 122.6706 0.0000 0.0000 0.0000
# 4 0.0000 0.0000 0.0000 65.1313 0.0000 0.0000
# 5 0.0000 0.0000 0.0000 0.0000 31.2423 0.0000
# 6 0.0000 0.0000 0.0000 0.0000 0.0000 -34.8473
#
#
#
# Elastic Compliance Matrix: (Units=1/GPa)
#
#
# Indices 1 2 3 4 5 6 
#
# 1 0.015098 -0.008498 -0.001363 0.000000 0.000000 0.000000
# 2 -0.008498 0.024033 -0.006858 0.000000 0.000000 0.000000
# 3 -0.001363 -0.006858 0.011296 0.000000 0.000000 0.000000
# 4 0.000000 0.000000 0.000000 0.015354 0.000000 0.000000
# 5 0.000000 0.000000 0.000000 0.000000 0.032008 0.000000
# 6 0.000000 0.000000 0.000000 0.000000 0.000000 -0.028697
#
#
# Mechanical properties :
#
#
# Convention : Reuss Voigt Hill
#
# Bulk Modulus (GPa) = 58.86511 61.28391 60.07451
# Shear Modulus (GPa) = 46.21392 22.77972 34.49682
#
# Velocity S-wave (km/s) = 4.98117 3.49719 4.30362
# Velocity P-wave (km/s) = 8.04283 7.01499 7.54643
#
# Compressibility (1/GPa) = 0.01698799
#
# Stress axis : x y z
#
# Youngs Moduli (GPa) = 66.23303 41.61009 88.52939
#
# Poissons Ratio (x) = 0.35360 0.12064
# Poissons Ratio (y) = 0.56285 0.60718
# Poissons Ratio (z) = 0.09026 0.28538
#
# Static dielectric constant tensor:
#      x y z
#    x 1.762570 0.000000 0.000000 
#    y 0.000000 1.657930 0.000000 
#    z 0.000000 0.000000 1.557930 
# 
# From -- ./inp_files/65167.got.cif
#   From: 2010.05.17/outbox.cif.g08.bks.cpg/sg70_33_cif.got.tgz:65167.got - 2010.06.03 15:57:51.
