data_PCOD9515555
_publ_section_title
;
Structure prediction by ZEFSAII (Michael W. Deem and Ramdas Pophale) SiO2 
 PCOD9515555
Probable space group: F D D D
;
_chemical_formula_sum "Si O2"
_cell_formula_units_Z 240
_cell_length_a 27.886519
_cell_length_b 23.305779
_cell_length_c 18.833498
_cell_angle_alpha 90.000000
_cell_angle_beta 90.000000
_cell_angle_gamma 90.000000
_cell_volume 12240.211440
_symmetry_space_group_name_H-M "F D D D"
_symmetry_group_IT_number 70
_space_group.IT_coordinate_system_code '2'
_symmetry_cell_setting 'orthorhombic'
loop_
_space_group_symop_operation_xyz
x,y,z
1/4-x,1/4-y,z
x,1/4-y,1/4-z
1/4-x,y,1/4-z
-x,-y,-z
3/4+x,3/4+y,-z
-x,3/4+y,3/4+z
3/4+x,-y,3/4+z
x,1/2+y,1/2+z
1/4-x,3/4-y,1/2+z
x,3/4-y,3/4-z
1/4-x,1/2+y,3/4-z
-x,1/2-y,1/2-z
3/4+x,1/4+y,1/2-z
-x,1/4+y,1/4+z
3/4+x,1/2-y,1/4+z
1/2+x,y,1/2+z
3/4-x,1/4-y,1/2+z
1/2+x,1/4-y,3/4-z
3/4-x,y,3/4-z
1/2-x,-y,1/2-z
1/4+x,3/4+y,1/2-z
1/2-x,3/4+y,1/4+z
1/4+x,-y,1/4+z
1/2+x,1/2+y,z
3/4-x,3/4-y,z
1/2+x,3/4-y,1/4-z
3/4-x,1/2+y,1/4-z
1/2-x,1/2-y,-z
1/4+x,1/4+y,-z
1/2-x,1/4+y,3/4+z
1/4+x,1/2-y,3/4+z
loop_
_atom_site_type_symbol
_atom_site_label
_atom_site_fract_x
_atom_site_fract_y
_atom_site_fract_z
Si Si1 0.238792 0.414935 0.807332
Si Si2 0.497078 0.774267 0.668392
Si Si3 0.824916 0.810343 0.401671
Si Si4 0.528071 0.894047 0.607661
Si Si5 0.875000 0.715085 0.875000
Si Si6 0.645268 0.688979 0.435620
Si Si7 0.150865 0.684329 0.528955
Si Si8 0.811786 0.473255 0.136690
O O1 0.230213 0.375000 0.875000
O O2 0.228293 0.389282 0.728772
O O3 0.294762 0.432566 0.807845
O O4 0.207308 0.471047 0.822683
O O5 0.500000 0.750000 0.750000
O O6 0.528850 0.726218 0.629443
O O7 0.522779 0.834788 0.650616
O O8 0.442026 0.786006 0.645109
O O9 0.820389 0.875000 0.375000
O O10 0.875000 0.784207 0.375000
O O11 0.833579 0.814100 0.485531
O O12 0.577964 0.926022 0.621496
O O13 0.484080 0.934917 0.631787
O O14 0.875246 0.759978 0.940321
O O15 0.625000 0.625000 0.421541
O O16 0.599225 0.730307 0.426984
O O17 0.125000 0.625000 0.546344
O O18 0.156462 0.690310 0.445096
#
# Coordination Sequence:
#
# PCOD9515555 Si02
#       8
#    32  32  32  32  16  32  32  32
#     4  11  23  44  61  94 137 175 221 276 330 400
#     4  10  24  43  65 100 130 168 226 283 334 411
#     4  10  21  41  67  94 132 170 226 280 332 404
#     4  11  23  41  68  91 135 175 216 274 341 399
#     4  12  21  40  62  98 129 172 214 270 344 388
#     4  11  20  40  67  94 125 175 220 273 339 395
#     4  11  22  38  66  98 126 167 227 272 317 405
#     4  11  22  42  64  92 133 171 218 278 330 398
#
# _framework density 19.607505
#
# number of rings (size 3 to 8) (size 9 to 14) (size 15 to 20)
#    0.000    1.200    5.333    2.200    2.800    1.067 
#    2.400    4.667    0.000    0.000    0.000    0.000 
#    0.000    0.000    0.000    0.000    0.000    0.000 
#
# Total GULP energy -334419.822666 kJ/mol
# GULP energy per Si atom -5573.663711 kJ/mol
# Density = 1.956288 g / cm^3
# Si number density = 19.607505 Si / 1000 Ang^3
#
#
#
# Elastic Constant Matrix: (Units=GPa)
#
#
# Indices 1 2 3 4 5 6 
#
# 1 134.5888 51.2473 39.0564 0.0000 0.0000 0.0000
# 2 51.2473 96.8210 44.3453 0.0000 0.0000 0.0000
# 3 39.0564 44.3453 55.3954 0.0000 0.0000 0.0000
# 4 0.0000 0.0000 0.0000 19.8755 0.0000 0.0000
# 5 0.0000 0.0000 0.0000 0.0000 13.9485 0.0000
# 6 0.0000 0.0000 0.0000 0.0000 0.0000 34.7059
#
#
#
# Elastic Compliance Matrix: (Units=1/GPa)
#
#
# Indices 1 2 3 4 5 6 
#
# 1 0.009946 -0.003241 -0.004418 0.000000 0.000000 0.000000
# 2 -0.003241 0.017364 -0.011615 0.000000 0.000000 0.000000
# 3 -0.004418 -0.011615 0.030465 0.000000 0.000000 0.000000
# 4 0.000000 0.000000 0.000000 0.050313 0.000000 0.000000
# 5 0.000000 0.000000 0.000000 0.000000 0.071692 0.000000
# 6 0.000000 0.000000 0.000000 0.000000 0.000000 0.028814
#
#
# Mechanical properties :
#
#
# Convention : Reuss Voigt Hill
#
# Bulk Modulus (GPa) = 52.01056 61.78926 56.89991
# Shear Modulus (GPa) = 19.71993 23.84972 21.78483
#
# Velocity S-wave (km/s) = 3.17477 3.49141 3.33685
# Velocity P-wave (km/s) = 6.32632 6.91627 6.62786
#
# Compressibility (1/GPa) = 0.01922686
#
# Stress axis : x y z
#
# Youngs Moduli (GPa) = 100.54112 57.59183 32.82454
#
# Poissons Ratio (x) = 0.18665 0.14502
# Poissons Ratio (y) = 0.32585 0.38125
# Poissons Ratio (z) = 0.44420 0.66892
#
# Static dielectric constant tensor:
#      x y z
#    x 1.578490 0.000000 0.000000 
#    y 0.000000 1.703320 0.000000 
#    z 0.000000 0.000000 1.778510 
# 
# From -- ./inp_files/47204.got.cif
#   From: 2010.05.17/outbox.cif.g08.bks.cpg/sg70_24_cif.got.tgz:47204.got - 2010.06.03 15:57:51.
