data_PCOD9515257
_publ_section_title
;
Structure prediction by ZEFSAII (Michael W. Deem and Ramdas Pophale) SiO2 
 PCOD9515257
Probable space group: F D D D
;
_chemical_formula_sum "Si O2"
_cell_formula_units_Z 160
_cell_length_a 12.093462
_cell_length_b 23.628436
_cell_length_c 27.237476
_cell_angle_alpha 90.000000
_cell_angle_beta 90.000000
_cell_angle_gamma 90.000000
_cell_volume 7783.097678
_symmetry_space_group_name_H-M "F D D D"
_symmetry_group_IT_number 70
_space_group.IT_coordinate_system_code '2'
_symmetry_cell_setting 'orthorhombic'
loop_
_space_group_symop_operation_xyz
x,y,z
1/4-x,1/4-y,z
x,1/4-y,1/4-z
1/4-x,y,1/4-z
-x,-y,-z
3/4+x,3/4+y,-z
-x,3/4+y,3/4+z
3/4+x,-y,3/4+z
x,1/2+y,1/2+z
1/4-x,3/4-y,1/2+z
x,3/4-y,3/4-z
1/4-x,1/2+y,3/4-z
-x,1/2-y,1/2-z
3/4+x,1/4+y,1/2-z
-x,1/4+y,1/4+z
3/4+x,1/2-y,1/4+z
1/2+x,y,1/2+z
3/4-x,1/4-y,1/2+z
1/2+x,1/4-y,3/4-z
3/4-x,y,3/4-z
1/2-x,-y,1/2-z
1/4+x,3/4+y,1/2-z
1/2-x,3/4+y,1/4+z
1/4+x,-y,1/4+z
1/2+x,1/2+y,z
3/4-x,3/4-y,z
1/2+x,3/4-y,1/4-z
3/4-x,1/2+y,1/4-z
1/2-x,1/2-y,-z
1/4+x,1/4+y,-z
1/2-x,1/4+y,3/4+z
1/4+x,1/2-y,3/4+z
loop_
_atom_site_type_symbol
_atom_site_label
_atom_site_fract_x
_atom_site_fract_y
_atom_site_fract_z
Si Si1 0.412458 0.637813 0.681802
Si Si2 0.375997 0.435176 0.162052
Si Si3 0.233182 0.788284 0.751433
Si Si4 0.172552 0.237662 0.571374
Si Si5 0.714863 0.216495 0.664786
O O1 0.437741 0.625000 0.625000
O O2 0.420500 0.581845 0.714119
O O3 0.501824 0.685469 0.697247
O O4 0.291959 0.665612 0.682112
O O5 0.375000 0.375000 0.135332
O O6 0.441280 0.426515 0.213160
O O7 0.254785 0.459637 0.172113
O O8 0.449428 0.487073 0.140726
O O9 0.320430 0.753938 0.784870
O O10 0.169200 0.747326 0.713840
O O11 0.125000 0.223593 0.625000
O O12 0.625000 0.201157 0.625000
#
# Coordination Sequence:
#
# PCOD9515257 Si02
#       5
#    32  32  32  32  32
#     4  11  21  37  64  96 124 169 219 270 328 377
#     4   9  20  34  58  85 129 167 208 257 338 382
#     4  10  21  33  62  91 127 162 211 270 334 377
#     4  11  20  33  57  99 130 163 213 277 321 389
#     4   9  23  41  60  86 130 171 218 267 325 394
#
# _framework density 20.557368
#
# number of rings (size 3 to 8) (size 9 to 14) (size 15 to 20)
#    1.200    0.800    2.000    2.400    2.800    1.200 
#    0.000    1.000    0.000    0.000    0.000    0.000 
#    0.000    0.000    0.000    0.000    0.000    0.000 
#
# Total GULP energy -222920.209499 kJ/mol
# GULP energy per Si atom -5573.005237 kJ/mol
# Density = 2.051058 g / cm^3
# Si number density = 20.557368 Si / 1000 Ang^3
#
#
#
# Elastic Constant Matrix: (Units=GPa)
#
#
# Indices 1 2 3 4 5 6 
#
# 1 75.4759 47.5976 41.4047 0.0000 0.0000 0.0000
# 2 47.5976 86.4022 16.3900 0.0000 0.0000 0.0000
# 3 41.4047 16.3900 81.8398 0.0000 0.0000 0.0000
# 4 0.0000 0.0000 0.0000 -5.1722 0.0000 0.0000
# 5 0.0000 0.0000 0.0000 0.0000 24.7943 0.0000
# 6 0.0000 0.0000 0.0000 0.0000 0.0000 8.7704
#
#
#
# Elastic Compliance Matrix: (Units=1/GPa)
#
#
# Indices 1 2 3 4 5 6 
#
# 1 0.027823 -0.013157 -0.011441 0.000000 0.000000 0.000000
# 2 -0.013157 0.018252 0.003001 0.000000 0.000000 0.000000
# 3 -0.011441 0.003001 0.017406 0.000000 0.000000 0.000000
# 4 0.000000 0.000000 0.000000 -0.193342 0.000000 0.000000
# 5 0.000000 0.000000 0.000000 0.000000 0.040332 0.000000
# 6 0.000000 0.000000 0.000000 0.000000 0.000000 0.114019
#
#
# Mechanical properties :
#
#
# Convention : Reuss Voigt Hill
#
# Bulk Modulus (GPa) = 49.29195 50.50029 49.89612
# Shear Modulus (GPa) = 67.16054 14.90020 41.03037
#
# Velocity S-wave (km/s) = 5.72195 2.69515 4.47239
# Velocity P-wave (km/s) = 8.22704 5.85696 7.14101
#
# Compressibility (1/GPa) = 0.02028729
#
# Stress axis : x y z
#
# Youngs Moduli (GPa) = 35.94158 54.78722 57.44994
#
# Poissons Ratio (x) = 0.72083 0.65731
# Poissons Ratio (y) = 0.47288 -0.17240
# Poissons Ratio (z) = 0.41122 -0.16441
#
# Static dielectric constant tensor:
#      x y z
#    x 1.738920 0.000000 0.000000 
#    y 0.000000 1.776490 0.000000 
#    z 0.000000 0.000000 1.744680 
# 
# From -- ./inp_files/64853.got.cif
#   From: 2010.05.17/outbox.cif.g08.bks.cpg/sg70_33_cif.got.tgz:64853.got - 2010.06.03 15:57:51.
