data_PCOD9515305
_publ_section_title
;
Structure prediction by ZEFSAII (Michael W. Deem and Ramdas Pophale) SiO2 
 PCOD9515305
Probable space group: F D D D
;
_chemical_formula_sum "Si O2"
_cell_formula_units_Z 176
_cell_length_a 27.183257
_cell_length_b 9.740085
_cell_length_c 25.221788
_cell_angle_alpha 90.000000
_cell_angle_beta 90.000000
_cell_angle_gamma 90.000000
_cell_volume 6677.903039
_symmetry_space_group_name_H-M "F D D D"
_symmetry_group_IT_number 70
_space_group.IT_coordinate_system_code '2'
_symmetry_cell_setting 'orthorhombic'
loop_
_space_group_symop_operation_xyz
x,y,z
1/4-x,1/4-y,z
x,1/4-y,1/4-z
1/4-x,y,1/4-z
-x,-y,-z
3/4+x,3/4+y,-z
-x,3/4+y,3/4+z
3/4+x,-y,3/4+z
x,1/2+y,1/2+z
1/4-x,3/4-y,1/2+z
x,3/4-y,3/4-z
1/4-x,1/2+y,3/4-z
-x,1/2-y,1/2-z
3/4+x,1/4+y,1/2-z
-x,1/4+y,1/4+z
3/4+x,1/2-y,1/4+z
1/2+x,y,1/2+z
3/4-x,1/4-y,1/2+z
1/2+x,1/4-y,3/4-z
3/4-x,y,3/4-z
1/2-x,-y,1/2-z
1/4+x,3/4+y,1/2-z
1/2-x,3/4+y,1/4+z
1/4+x,-y,1/4+z
1/2+x,1/2+y,z
3/4-x,3/4-y,z
1/2+x,3/4-y,1/4-z
3/4-x,1/2+y,1/4-z
1/2-x,1/2-y,-z
1/4+x,1/4+y,-z
1/2-x,1/4+y,3/4+z
1/4+x,1/2-y,3/4+z
loop_
_atom_site_type_symbol
_atom_site_label
_atom_site_fract_x
_atom_site_fract_y
_atom_site_fract_z
Si Si1 0.755530 0.524883 0.332228
Si Si2 0.076358 0.180038 0.873264
Si Si3 0.227077 0.459581 0.557944
Si Si4 0.765040 0.875000 0.375000
Si Si5 0.862516 0.034867 0.015249
Si Si6 0.947230 0.502497 0.769685
O O1 0.700011 0.543450 0.352167
O O2 0.788636 0.576108 0.381898
O O3 0.768547 0.373381 0.317126
O O4 0.762990 0.631586 0.286070
O O5 0.125000 0.125000 0.843122
O O6 0.026816 0.262728 0.857456
O O7 0.098366 0.268761 0.922910
O O8 0.185804 0.422493 0.516677
O O9 0.279456 0.424926 0.530375
O O10 0.798708 0.840275 0.323192
O O11 0.875000 0.875000 0.999219
O O12 0.901952 0.151208 0.998448
#
# Coordination Sequence:
#
# PCOD9515305 Si02
#       6
#    32  32  32  16  32  32
#     4  10  21  36  61 101 143 181 226 311 369 426
#     4  10  21  38  65 101 134 185 244 300 356 435
#     4  11  20  37  63  99 139 183 234 295 379 422
#     4  10  22  42  66  93 150 198 232 297 374 432
#     4  11  20  35  69 100 139 182 241 306 365 435
#     4  11  22  41  63  97 149 192 234 300 370 430
#
# _framework density 26.355578000000001
#
# number of rings (size 3 to 8) (size 9 to 14) (size 15 to 20)
#    0.000    1.455    5.455    2.727    0.000    3.636 
#    0.000    3.636    0.000    8.727    4.727    0.000 
#    0.000    0.000    0.000    0.000    0.000    0.000 
#
# Total GULP energy -245112.191647 kJ/mol
# GULP energy per Si atom -5570.731628 kJ/mol
# Density = 2.629559 g / cm^3
# Si number density = 26.355578 Si / 1000 Ang^3
#
#
#
# Elastic Constant Matrix: (Units=GPa)
#
#
# Indices 1 2 3 4 5 6 
#
# 1 107.8153 23.1412 10.9441 0.0000 0.0000 0.0000
# 2 23.1412 81.8195 38.4384 0.0000 0.0000 0.0000
# 3 10.9441 38.4384 136.5831 0.0000 0.0000 0.0000
# 4 0.0000 0.0000 0.0000 41.9503 0.0000 0.0000
# 5 0.0000 0.0000 0.0000 0.0000 24.7181 0.0000
# 6 0.0000 0.0000 0.0000 0.0000 0.0000 30.8038
#
#
#
# Elastic Compliance Matrix: (Units=1/GPa)
#
#
# Indices 1 2 3 4 5 6 
#
# 1 0.009875 -0.002790 -0.000006 0.000000 0.000000 0.000000
# 2 -0.002790 0.014872 -0.003962 0.000000 0.000000 0.000000
# 3 -0.000006 -0.003962 0.008437 0.000000 0.000000 0.000000
# 4 0.000000 0.000000 0.000000 0.023838 0.000000 0.000000
# 5 0.000000 0.000000 0.000000 0.000000 0.040456 0.000000
# 6 0.000000 0.000000 0.000000 0.000000 0.000000 0.032464
#
#
# Mechanical properties :
#
#
# Convention : Reuss Voigt Hill
#
# Bulk Modulus (GPa) = 50.84397 52.36281 51.60339
# Shear Modulus (GPa) = 33.33034 36.40740 34.86887
#
# Velocity S-wave (km/s) = 3.56004 3.72074 3.64128
# Velocity P-wave (km/s) = 6.01929 6.19431 6.10743
#
# Compressibility (1/GPa) = 0.01966802
#
# Stress axis : x y z
#
# Youngs Moduli (GPa) = 101.27019 67.23844 118.52483
#
# Poissons Ratio (x) = 0.18760 0.00072
# Poissons Ratio (y) = 0.28255 0.46959
# Poissons Ratio (z) = 0.00061 0.26640
#
# Static dielectric constant tensor:
#      x y z
#    x 2.058360 0.000000 0.000000 
#    y 0.000000 2.323940 0.000000 
#    z 0.000000 0.000000 2.161950 
# 
# From -- ./inp_files/62193.got.cif
#   From: 2010.05.17/outbox.cif.g08.bks.cpg/sg70_32_cif.got.tgz:62193.got - 2010.06.03 15:57:51.
