data_PCOD9515481
_publ_section_title
;
Structure prediction by ZEFSAII (Michael W. Deem and Ramdas Pophale) SiO2 
 PCOD9515481
Probable space group: F D D D
;
_chemical_formula_sum "Si O2"
_cell_formula_units_Z 136
_cell_length_a 29.470765
_cell_length_b 12.125808
_cell_length_c 18.851891
_cell_angle_alpha 90.000000
_cell_angle_beta 90.000000
_cell_angle_gamma 90.000000
_cell_volume 6736.852158
_symmetry_space_group_name_H-M "F D D D"
_symmetry_group_IT_number 70
_space_group.IT_coordinate_system_code '2'
_symmetry_cell_setting 'orthorhombic'
loop_
_space_group_symop_operation_xyz
x,y,z
1/4-x,1/4-y,z
x,1/4-y,1/4-z
1/4-x,y,1/4-z
-x,-y,-z
3/4+x,3/4+y,-z
-x,3/4+y,3/4+z
3/4+x,-y,3/4+z
x,1/2+y,1/2+z
1/4-x,3/4-y,1/2+z
x,3/4-y,3/4-z
1/4-x,1/2+y,3/4-z
-x,1/2-y,1/2-z
3/4+x,1/4+y,1/2-z
-x,1/4+y,1/4+z
3/4+x,1/2-y,1/4+z
1/2+x,y,1/2+z
3/4-x,1/4-y,1/2+z
1/2+x,1/4-y,3/4-z
3/4-x,y,3/4-z
1/2-x,-y,1/2-z
1/4+x,3/4+y,1/2-z
1/2-x,3/4+y,1/4+z
1/4+x,-y,1/4+z
1/2+x,1/2+y,z
3/4-x,3/4-y,z
1/2+x,3/4-y,1/4-z
3/4-x,1/2+y,1/4-z
1/2-x,1/2-y,-z
1/4+x,1/4+y,-z
1/2-x,1/4+y,3/4+z
1/4+x,1/2-y,3/4+z
loop_
_atom_site_type_symbol
_atom_site_label
_atom_site_fract_x
_atom_site_fract_y
_atom_site_fract_z
Si Si1 0.195284 0.804661 0.179463
Si Si2 0.625000 0.625000 0.625000
Si Si3 0.417319 0.009079 0.323019
Si Si4 0.281166 0.894814 0.230536
Si Si5 0.646803 0.812082 0.947371
O O1 0.160957 0.703662 0.165985
O O2 0.189855 0.887990 0.112775
O O3 0.249495 0.803673 0.192387
O O4 0.176092 0.859405 0.251066
O O5 0.375000 0.985617 0.375000
O O6 0.396617 0.038117 0.246077
O O7 0.449814 0.909094 0.302335
O O8 0.250000 0.000000 0.250000
O O9 0.323290 0.950374 0.188777
O O10 0.637552 0.875000 0.875000
#
# Coordination Sequence:
#
# PCOD9515481 Si02
#       5
#    32   8  32  32  32
#     4  10  23  41  69  92 129 177 227 277 331 411
#     4  12  20  52  68  90 124 196 234 264 360 394
#     4  10  21  45  69  96 128 183 223 265 341 406
#     4  10  23  36  65 104 128 163 221 284 328 396
#     4  10  21  40  63  97 132 168 215 275 343 395
#
# _framework density 20.187469
#
# number of rings (size 3 to 8) (size 9 to 14) (size 15 to 20)
#    0.000    1.882    3.529    0.706    6.588   12.235 
#    6.353    1.176    0.000    0.000    0.000    0.000 
#    0.000    0.000    0.000    0.000    0.000    0.000 
#
# Total GULP energy -189312.232690 kJ/mol
# GULP energy per Si atom -5568.006844 kJ/mol
# Density = 2.014152 g / cm^3
# Si number density = 20.187469 Si / 1000 Ang^3
#
#
#
# Elastic Constant Matrix: (Units=GPa)
#
#
# Indices 1 2 3 4 5 6 
#
# 1 101.6350 41.2329 65.9764 0.0000 0.0000 0.0000
# 2 41.2329 84.3471 57.7247 0.0000 0.0000 0.0000
# 3 65.9764 57.7247 130.5016 0.0000 0.0000 0.0000
# 4 0.0000 0.0000 0.0000 15.2960 0.0000 0.0000
# 5 0.0000 0.0000 0.0000 0.0000 11.9494 0.0000
# 6 0.0000 0.0000 0.0000 0.0000 0.0000 35.2136
#
#
#
# Elastic Compliance Matrix: (Units=1/GPa)
#
#
# Indices 1 2 3 4 5 6 
#
# 1 0.015195 -0.003113 -0.006305 0.000000 0.000000 0.000000
# 2 -0.003113 0.017641 -0.006229 0.000000 0.000000 0.000000
# 3 -0.006305 -0.006229 0.013606 0.000000 0.000000 0.000000
# 4 0.000000 0.000000 0.000000 0.065377 0.000000 0.000000
# 5 0.000000 0.000000 0.000000 0.000000 0.083687 0.000000
# 6 0.000000 0.000000 0.000000 0.000000 0.000000 0.028398
#
#
# Mechanical properties :
#
#
# Convention : Reuss Voigt Hill
#
# Bulk Modulus (GPa) = 66.02030 71.81686 68.91858
# Shear Modulus (GPa) = 19.21262 22.59511 20.90386
#
# Velocity S-wave (km/s) = 3.08833 3.34917 3.22139
# Velocity P-wave (km/s) = 6.74475 7.11394 6.93180
#
# Compressibility (1/GPa) = 0.01514686
#
# Stress axis : x y z
#
# Youngs Moduli (GPa) = 65.81124 56.68736 73.49927
#
# Poissons Ratio (x) = 0.17647 0.46341
# Poissons Ratio (y) = 0.20488 0.45783
# Poissons Ratio (z) = 0.41494 0.35311
#
# Static dielectric constant tensor:
#      x y z
#    x 1.819460 0.000000 0.000000 
#    y 0.000000 1.837130 0.000000 
#    z 0.000000 0.000000 1.692750 
# 
# From -- ./inp_files/47481.got.cif
#   From: 2010.05.17/outbox.cif.g08.bks.cpg/sg70_24_cif.got.tgz:47481.got - 2010.06.03 15:57:51.
