data_PCOD9515830
_publ_section_title
;
Structure prediction by ZEFSAII (Michael W. Deem and Ramdas Pophale) SiO2 
 PCOD9515830
Probable space group: F D D D
;
_chemical_formula_sum "Si O2"
_cell_formula_units_Z 168
_cell_length_a 12.281188
_cell_length_b 23.136422
_cell_length_c 24.755589
_cell_angle_alpha 90.000000
_cell_angle_beta 90.000000
_cell_angle_gamma 90.000000
_cell_volume 7034.121092
_symmetry_space_group_name_H-M "F D D D"
_symmetry_group_IT_number 70
_space_group.IT_coordinate_system_code '2'
_symmetry_cell_setting 'orthorhombic'
loop_
_space_group_symop_operation_xyz
x,y,z
1/4-x,1/4-y,z
x,1/4-y,1/4-z
1/4-x,y,1/4-z
-x,-y,-z
3/4+x,3/4+y,-z
-x,3/4+y,3/4+z
3/4+x,-y,3/4+z
x,1/2+y,1/2+z
1/4-x,3/4-y,1/2+z
x,3/4-y,3/4-z
1/4-x,1/2+y,3/4-z
-x,1/2-y,1/2-z
3/4+x,1/4+y,1/2-z
-x,1/4+y,1/4+z
3/4+x,1/2-y,1/4+z
1/2+x,y,1/2+z
3/4-x,1/4-y,1/2+z
1/2+x,1/4-y,3/4-z
3/4-x,y,3/4-z
1/2-x,-y,1/2-z
1/4+x,3/4+y,1/2-z
1/2-x,3/4+y,1/4+z
1/4+x,-y,1/4+z
1/2+x,1/2+y,z
3/4-x,3/4-y,z
1/2+x,3/4-y,1/4-z
3/4-x,1/2+y,1/4-z
1/2-x,1/2-y,-z
1/4+x,1/4+y,-z
1/2-x,1/4+y,3/4+z
1/4+x,1/2-y,3/4+z
loop_
_atom_site_type_symbol
_atom_site_label
_atom_site_fract_x
_atom_site_fract_y
_atom_site_fract_z
Si Si1 0.125000 0.125000 0.625000
Si Si2 0.430872 0.263612 0.429962
Si Si3 0.588557 0.257627 0.836779
Si Si4 0.072691 0.005636 0.796110
Si Si5 0.109365 0.920635 0.065752
Si Si6 0.254929 0.626754 0.712386
O O1 0.192827 0.081335 0.587709
O O2 0.375000 0.239825 0.375000
O O3 0.551892 0.242645 0.445561
O O4 0.371119 0.260684 0.487676
O O5 0.630896 0.238148 0.896277
O O6 0.483018 0.220201 0.822129
O O7 0.551408 0.323276 0.823185
O O8 0.031764 0.940633 0.806313
O O9 0.973009 0.050813 0.798523
O O10 0.125000 0.894612 0.125000
O O11 0.063286 0.879618 0.020183
O O12 0.125000 0.625000 0.715963
#
# Coordination Sequence:
#
# PCOD9515830 Si02
#       6
#     8  32  32  32  32  32
#     4   8  24  44  68  80 126 172 228 276 330 374
#     4  10  23  43  64  89 128 172 222 275 329 391
#     4  11  22  39  64  93 128 169 218 272 330 398
#     4  11  23  37  66  97 126 168 216 276 330 401
#     4  10  22  41  61  92 139 171 210 273 348 398
#     4  12  22  35  65  96 133 172 215 275 338 403
#
# _framework density 23.883579999999998
#
# number of rings (size 3 to 8) (size 9 to 14) (size 15 to 20)
#    0.571    0.762    3.810    2.286    2.667    2.286 
#    0.000    0.000   16.762    0.000    0.000    0.000 
#    0.000    0.000    0.000    0.000    0.000    0.000 
#
# Total GULP energy -234206.435604 kJ/mol
# GULP energy per Si atom -5576.343705 kJ/mol
# Density = 2.382922 g / cm^3
# Si number density = 23.883580 Si / 1000 Ang^3
#
#
#
# Elastic Constant Matrix: (Units=GPa)
#
#
# Indices 1 2 3 4 5 6 
#
# 1 92.3724 8.0415 20.9729 0.0000 0.0000 0.0000
# 2 8.0415 54.0550 -19.2585 0.0000 0.0000 0.0000
# 3 20.9729 -19.2585 158.9091 0.0000 0.0000 0.0000
# 4 0.0000 0.0000 0.0000 14.7305 0.0000 0.0000
# 5 0.0000 0.0000 0.0000 0.0000 -147.1379 0.0000
# 6 0.0000 0.0000 0.0000 0.0000 0.0000 0.7931
#
#
#
# Elastic Compliance Matrix: (Units=1/GPa)
#
#
# Indices 1 2 3 4 5 6 
#
# 1 0.011437 -0.002340 -0.001793 0.000000 0.000000 0.000000
# 2 -0.002340 0.019813 0.002710 0.000000 0.000000 0.000000
# 3 -0.001793 0.002710 0.006858 0.000000 0.000000 0.000000
# 4 0.000000 0.000000 0.000000 0.067887 0.000000 0.000000
# 5 0.000000 0.000000 0.000000 0.000000 -0.006796 0.000000
# 6 0.000000 0.000000 0.000000 0.000000 0.000000 1.260829
#
#
# Mechanical properties :
#
#
# Convention : Reuss Voigt Hill
#
# Bulk Modulus (GPa) = 28.35941 36.09426 32.22684
# Shear Modulus (GPa) = 3.63735 -6.61748 -1.49006
#
# Velocity S-wave (km/s) = 1.23542 -1.66635 -0.79072
# Velocity P-wave (km/s) = 3.73294 3.38276 3.56215
#
# Compressibility (1/GPa) = 0.03526166
#
# Stress axis : x y z
#
# Youngs Moduli (GPa) = 87.43888 50.47109 145.81542
#
# Poissons Ratio (x) = 0.11811 0.26145
# Poissons Ratio (y) = 0.20462 -0.39517
# Poissons Ratio (z) = 0.15678 -0.13678
#
# Static dielectric constant tensor:
#      x y z
#    x 1.842710 0.000000 0.000000 
#    y 0.000000 1.870280 0.000000 
#    z 0.000000 0.000000 1.968150 
# 
# From -- ./inp_files/50397.got.cif
#   From: 2010.05.17/outbox.cif.g08.bks.cpg/sg70_26_cif.got.tgz:50397.got - 2010.06.03 15:57:51.
