data_PCOD9515581
_publ_section_title
;
Structure prediction by ZEFSAII (Michael W. Deem and Ramdas Pophale) SiO2 
 PCOD9515581
Probable space group: F D D D
;
_chemical_formula_sum "Si O2"
_cell_formula_units_Z 176
_cell_length_a 29.556809
_cell_length_b 25.189111
_cell_length_c 10.903442
_cell_angle_alpha 90.000000
_cell_angle_beta 90.000000
_cell_angle_gamma 90.000000
_cell_volume 8117.718798
_symmetry_space_group_name_H-M "F D D D"
_symmetry_group_IT_number 70
_space_group.IT_coordinate_system_code '2'
_symmetry_cell_setting 'orthorhombic'
loop_
_space_group_symop_operation_xyz
x,y,z
1/4-x,1/4-y,z
x,1/4-y,1/4-z
1/4-x,y,1/4-z
-x,-y,-z
3/4+x,3/4+y,-z
-x,3/4+y,3/4+z
3/4+x,-y,3/4+z
x,1/2+y,1/2+z
1/4-x,3/4-y,1/2+z
x,3/4-y,3/4-z
1/4-x,1/2+y,3/4-z
-x,1/2-y,1/2-z
3/4+x,1/4+y,1/2-z
-x,1/4+y,1/4+z
3/4+x,1/2-y,1/4+z
1/2+x,y,1/2+z
3/4-x,1/4-y,1/2+z
1/2+x,1/4-y,3/4-z
3/4-x,y,3/4-z
1/2-x,-y,1/2-z
1/4+x,3/4+y,1/2-z
1/2-x,3/4+y,1/4+z
1/4+x,-y,1/4+z
1/2+x,1/2+y,z
3/4-x,3/4-y,z
1/2+x,3/4-y,1/4-z
3/4-x,1/2+y,1/4-z
1/2-x,1/2-y,-z
1/4+x,1/4+y,-z
1/2-x,1/4+y,3/4+z
1/4+x,1/2-y,3/4+z
loop_
_atom_site_type_symbol
_atom_site_label
_atom_site_fract_x
_atom_site_fract_y
_atom_site_fract_z
Si Si1 0.106142 0.815229 0.890543
Si Si2 0.828945 0.053457 0.944636
Si Si3 0.300619 0.478727 0.760535
Si Si4 0.534905 0.042733 0.055680
Si Si5 0.375000 0.739835 0.875000
Si Si6 0.482213 0.404724 0.182243
O O1 0.089670 0.875000 0.875000
O O2 0.157333 0.811372 0.835936
O O3 0.080298 0.769842 0.816738
O O4 0.101442 0.798245 0.028812
O O5 0.875000 0.070698 0.875000
O O6 0.785840 0.088331 0.908385
O O7 0.817592 0.993091 0.898475
O O8 0.250000 0.500000 0.750000
O O9 0.297044 0.423844 0.685656
O O10 0.525457 0.056778 0.199362
O O11 0.586880 0.023679 0.056311
O O12 0.529461 0.096367 0.977783
O O13 0.500000 0.000000 0.000000
#
# Coordination Sequence:
#
# PCOD9515581 Si02
#       6
#    32  32  32  32  16  32
#     4  11  24  38  65 104 131 176 231 289 354 412
#     4   9  20  37  68  96 130 174 226 289 349 403
#     4   9  19  41  64  90 129 174 220 278 342 418
#     4  11  25  41  66  97 138 182 227 289 351 426
#     4  12  26  43  66 102 144 180 239 284 352 440
#     4  10  21  42  63  94 137 175 225 282 352 416
#
# _framework density 21.680968
#
# number of rings (size 3 to 8) (size 9 to 14) (size 15 to 20)
#    0.000    1.818    1.818    1.091    8.909    2.909 
#    0.000    0.000    0.000    0.000    4.727    1.273 
#    0.000    0.000    0.000    0.000    0.000    0.000 
#
# Total GULP energy -245316.043628 kJ/mol
# GULP energy per Si atom -5575.364628 kJ/mol
# Density = 2.163162 g / cm^3
# Si number density = 21.680968 Si / 1000 Ang^3
#
#
#
# Elastic Constant Matrix: (Units=GPa)
#
#
# Indices 1 2 3 4 5 6 
#
# 1 88.2917 40.4255 -14.5829 0.0000 0.0000 0.0000
# 2 40.4255 111.0677 29.0131 0.0000 0.0000 0.0000
# 3 -14.5829 29.0131 37.7100 -0.0001 0.0001 0.0001
# 4 0.0000 0.0000 -0.0001 39.3978 0.0000 0.0000
# 5 0.0000 0.0000 0.0001 0.0000 20.1802 0.0000
# 6 0.0000 0.0000 0.0001 0.0000 0.0000 15.4219
#
#
#
# Elastic Compliance Matrix: (Units=1/GPa)
#
#
# Indices 1 2 3 4 5 6 
#
# 1 0.019012 -0.011064 0.015865 0.000000 0.000000 0.000000
# 2 -0.011064 0.017707 -0.017902 0.000000 0.000000 0.000000
# 3 0.015865 -0.017902 0.046426 0.000000 0.000000 0.000000
# 4 0.000000 0.000000 0.000000 0.025382 0.000000 0.000000
# 5 0.000000 0.000000 0.000000 0.000000 0.049553 0.000000
# 6 0.000000 0.000000 0.000000 0.000000 0.000000 0.064843
#
#
# Mechanical properties :
#
#
# Convention : Reuss Voigt Hill
#
# Bulk Modulus (GPa) = 17.56136 38.53119 28.04627
# Shear Modulus (GPa) = 18.64923 27.14756 22.89839
#
# Velocity S-wave (km/s) = 2.93604 3.54239 3.25337
# Velocity P-wave (km/s) = 4.42846 5.87723 5.20352
#
# Compressibility (1/GPa) = 0.05694320
#
# Stress axis : x y z
#
# Youngs Moduli (GPa) = 52.59756 56.47527 21.53943
#
# Poissons Ratio (x) = 0.62485 -0.34172
# Poissons Ratio (y) = 0.58195 0.38560
# Poissons Ratio (z) = -0.83445 1.01101
#
# Static dielectric constant tensor:
#      x y z
#    x 1.710070 0.000000 0.000000 
#    y 0.000000 1.786900 0.000000 
#    z 0.000000 0.000000 1.971010 
# 
# From -- ./inp_files/22311.got.cif
#   From: 2010.05.17/outbox.cif.g08.bks.cpg/sg70_12_cif.got.tgz:22311.got - 2010.06.03 15:57:51.
