data_PCOD9515921
_publ_section_title
;
Structure prediction by ZEFSAII (Michael W. Deem and Ramdas Pophale) SiO2 
 PCOD9515921
Probable space group: F D D D
;
_chemical_formula_sum "Si O2"
_cell_formula_units_Z 144
_cell_length_a 14.869033
_cell_length_b 22.134887
_cell_length_c 22.787836
_cell_angle_alpha 90.000000
_cell_angle_beta 90.000000
_cell_angle_gamma 90.000000
_cell_volume 7500.032059
_symmetry_space_group_name_H-M "F D D D"
_symmetry_group_IT_number 70
_space_group.IT_coordinate_system_code '2'
_symmetry_cell_setting 'orthorhombic'
loop_
_space_group_symop_operation_xyz
x,y,z
1/4-x,1/4-y,z
x,1/4-y,1/4-z
1/4-x,y,1/4-z
-x,-y,-z
3/4+x,3/4+y,-z
-x,3/4+y,3/4+z
3/4+x,-y,3/4+z
x,1/2+y,1/2+z
1/4-x,3/4-y,1/2+z
x,3/4-y,3/4-z
1/4-x,1/2+y,3/4-z
-x,1/2-y,1/2-z
3/4+x,1/4+y,1/2-z
-x,1/4+y,1/4+z
3/4+x,1/2-y,1/4+z
1/2+x,y,1/2+z
3/4-x,1/4-y,1/2+z
1/2+x,1/4-y,3/4-z
3/4-x,y,3/4-z
1/2-x,-y,1/2-z
1/4+x,3/4+y,1/2-z
1/2-x,3/4+y,1/4+z
1/4+x,-y,1/4+z
1/2+x,1/2+y,z
3/4-x,3/4-y,z
1/2+x,3/4-y,1/4-z
3/4-x,1/2+y,1/4-z
1/2-x,1/2-y,-z
1/4+x,1/4+y,-z
1/2-x,1/4+y,3/4+z
1/4+x,1/2-y,3/4+z
loop_
_atom_site_type_symbol
_atom_site_label
_atom_site_fract_x
_atom_site_fract_y
_atom_site_fract_z
Si Si1 0.875000 0.743544 0.875000
Si Si2 0.125000 0.125000 0.861888
Si Si3 0.208007 0.362310 0.052449
Si Si4 0.953040 0.996272 0.562395
Si Si5 0.779860 0.580017 0.072107
Si Si6 0.625000 0.466181 0.625000
O O1 0.842607 0.699069 0.928243
O O2 0.799610 0.785307 0.843945
O O3 0.206626 0.140669 0.904813
O O4 0.091819 0.181099 0.823768
O O5 0.147859 0.419620 0.072631
O O6 0.236301 0.379581 0.986464
O O7 0.034813 0.002483 0.609331
O O8 0.872093 0.043084 0.565578
O O9 0.000000 0.000000 0.500000
O O10 0.793018 0.625000 0.125000
#
# Coordination Sequence:
#
# PCOD9515921 Si02
#       6
#    16  16  32  32  32  16
#     4  11  25  48  69 100 143 185 231 290 354 422
#     4  10  22  42  71 101 130 192 222 278 360 406
#     4  10  22  42  70  97 134 183 230 279 347 423
#     4  11  22  45  68  99 134 175 231 285 340 418
#     4  12  27  43  67 105 141 177 235 291 347 420
#     4   9  20  40  68  96 128 174 231 276 346 410
#
# _framework density 19.199918
#
# number of rings (size 3 to 8) (size 9 to 14) (size 15 to 20)
#    0.000    1.333    4.444    0.333    3.111    4.444 
#    4.000    0.000    0.000    0.000    0.000    0.000 
#    0.000    0.000    0.000    0.000    0.000    0.000 
#
# Total GULP energy -200753.664782 kJ/mol
# GULP energy per Si atom -5576.490688 kJ/mol
# Density = 1.915622 g / cm^3
# Si number density = 19.199918 Si / 1000 Ang^3
#
#
#
# Elastic Constant Matrix: (Units=GPa)
#
#
# Indices 1 2 3 4 5 6 
#
# 1 138.4430 88.7656 50.7505 0.0000 0.0000 0.0000
# 2 88.7656 111.4115 89.7815 0.0000 0.0000 0.0000
# 3 50.7505 89.7815 147.0433 0.0000 0.0000 0.0000
# 4 0.0000 0.0000 0.0000 26.3225 0.0000 0.0000
# 5 0.0000 0.0000 0.0000 0.0000 32.9211 0.0000
# 6 0.0000 0.0000 0.0000 0.0000 0.0000 23.0519
#
#
#
# Elastic Compliance Matrix: (Units=1/GPa)
#
#
# Indices 1 2 3 4 5 6 
#
# 1 0.016145 -0.016483 0.004492 0.000000 0.000000 0.000000
# 2 -0.016483 0.034499 -0.015375 0.000000 0.000000 0.000000
# 3 0.004492 -0.015375 0.014638 0.000000 0.000000 0.000000
# 4 0.000000 0.000000 0.000000 0.037990 0.000000 0.000000
# 5 0.000000 0.000000 0.000000 0.000000 0.030376 0.000000
# 6 0.000000 0.000000 0.000000 0.000000 0.000000 0.043380
#
#
# Mechanical properties :
#
#
# Convention : Reuss Voigt Hill
#
# Bulk Modulus (GPa) = 94.79508 95.05476 94.92492
# Shear Modulus (GPa) = 21.25150 27.63245 24.44197
#
# Velocity S-wave (km/s) = 3.33055 3.79779 3.57182
# Velocity P-wave (km/s) = 8.01685 8.29737 8.15832
#
# Compressibility (1/GPa) = 0.01054907
#
# Stress axis : x y z
#
# Youngs Moduli (GPa) = 61.93811 28.98655 68.31507
#
# Poissons Ratio (x) = 0.47780 -0.30688
# Poissons Ratio (y) = 1.02095 1.05035
# Poissons Ratio (z) = -0.27823 0.44567
#
# Static dielectric constant tensor:
#      x y z
#    x 1.682970 0.000000 0.000000 
#    y 0.000000 1.675190 0.000000 
#    z 0.000000 0.000000 1.670050 
# 
# From -- ./inp_files/34939.got.cif
#   From: 2010.05.17/outbox.cif.g08.bks.cpg/sg70_18_cif.got.tgz:34939.got - 2010.06.03 15:57:51.
