data_PCOD9515078
_publ_section_title
;
Structure prediction by ZEFSAII (Michael W. Deem and Ramdas Pophale) SiO2 
 PCOD9515078
Probable space group: F D D D
;
_chemical_formula_sum "Si O2"
_cell_formula_units_Z 168
_cell_length_a 18.922145
_cell_length_b 13.588488
_cell_length_c 33.091509
_cell_angle_alpha 90.000000
_cell_angle_beta 90.000000
_cell_angle_gamma 90.000000
_cell_volume 8508.599329
_symmetry_space_group_name_H-M "F D D D"
_symmetry_group_IT_number 70
_space_group.IT_coordinate_system_code '2'
_symmetry_cell_setting 'orthorhombic'
loop_
_space_group_symop_operation_xyz
x,y,z
1/4-x,1/4-y,z
x,1/4-y,1/4-z
1/4-x,y,1/4-z
-x,-y,-z
3/4+x,3/4+y,-z
-x,3/4+y,3/4+z
3/4+x,-y,3/4+z
x,1/2+y,1/2+z
1/4-x,3/4-y,1/2+z
x,3/4-y,3/4-z
1/4-x,1/2+y,3/4-z
-x,1/2-y,1/2-z
3/4+x,1/4+y,1/2-z
-x,1/4+y,1/4+z
3/4+x,1/2-y,1/4+z
1/2+x,y,1/2+z
3/4-x,1/4-y,1/2+z
1/2+x,1/4-y,3/4-z
3/4-x,y,3/4-z
1/2-x,-y,1/2-z
1/4+x,3/4+y,1/2-z
1/2-x,3/4+y,1/4+z
1/4+x,-y,1/4+z
1/2+x,1/2+y,z
3/4-x,3/4-y,z
1/2+x,3/4-y,1/4-z
3/4-x,1/2+y,1/4-z
1/2-x,1/2-y,-z
1/4+x,1/4+y,-z
1/2-x,1/4+y,3/4+z
1/4+x,1/2-y,3/4+z
loop_
_atom_site_type_symbol
_atom_site_label
_atom_site_fract_x
_atom_site_fract_y
_atom_site_fract_z
Si Si1 0.060887 0.787178 0.569842
Si Si2 0.628709 0.483101 0.862967
Si Si3 0.699774 0.420751 0.226262
Si Si4 0.875000 0.875000 0.875000
Si Si5 0.162470 0.026116 0.474262
Si Si6 0.256957 0.864014 0.138930
O O1 0.126054 0.784473 0.539161
O O2 0.074082 0.690340 0.596936
O O3 0.989884 0.797893 0.544103
O O4 0.052937 0.870399 0.604807
O O5 0.607394 0.375000 0.875000
O O6 0.634326 0.497749 0.814957
O O7 0.702176 0.512080 0.883755
O O8 0.566969 0.555741 0.877524
O O9 0.750000 0.500000 0.250000
O O10 0.676992 0.321974 0.250030
O O11 0.735307 0.386499 0.184343
O O12 0.125000 0.125000 0.491939
#
# Coordination Sequence:
#
# PCOD9515078 Si02
#       6
#    32  32  32   8  32  32
#     4  11  23  41  65  95 129 171 228 262 342 409
#     4  10  20  39  69  92 128 179 225 267 322 409
#     4  12  25  41  65 100 137 169 222 293 343 393
#     4  12  20  36  76  96 126 176 216 294 332 388
#     4  11  24  43  63  99 136 176 217 279 352 408
#     4  10  21  42  62  95 131 168 231 264 320 413
#
# _framework density 19.744730000000001
#
# number of rings (size 3 to 8) (size 9 to 14) (size 15 to 20)
#    0.000    1.143    5.714    2.286    5.333    5.333 
#    3.429    0.000    0.000    0.000    0.000    0.000 
#    0.000    0.000    0.000    0.000    0.000    0.000 
#
# Total GULP energy -234026.917658 kJ/mol
# GULP energy per Si atom -5572.069468 kJ/mol
# Density = 1.969979 g / cm^3
# Si number density = 19.744730 Si / 1000 Ang^3
#
#
#
# Elastic Constant Matrix: (Units=GPa)
#
#
# Indices 1 2 3 4 5 6 
#
# 1 109.4761 33.4248 36.8464 0.0000 0.0000 0.0000
# 2 33.4248 97.7042 37.5241 0.0000 0.0000 0.0000
# 3 36.8464 37.5241 98.6365 0.0000 0.0000 0.0000
# 4 0.0000 0.0000 0.0000 35.9587 0.0000 0.0000
# 5 0.0000 0.0000 0.0000 0.0000 1131.2297 0.0000
# 6 0.0000 0.0000 0.0000 0.0000 0.0000 32.0552
#
#
#
# Elastic Compliance Matrix: (Units=1/GPa)
#
#
# Indices 1 2 3 4 5 6 
#
# 1 0.010965 -0.002551 -0.003126 0.000000 0.000000 0.000000
# 2 -0.002551 0.012580 -0.003833 0.000000 0.000000 0.000000
# 3 -0.003126 -0.003833 0.012764 0.000000 0.000000 0.000000
# 4 0.000000 0.000000 0.000000 0.027810 0.000000 0.000000
# 5 0.000000 0.000000 0.000000 0.000000 0.000884 0.000000
# 6 0.000000 0.000000 0.000000 0.000000 0.000000 0.031196
#
#
# Mechanical properties :
#
#
# Convention : Reuss Voigt Hill
#
# Bulk Modulus (GPa) = 57.83616 57.93416 57.88516
# Shear Modulus (GPa) = 41.32889 253.05014 147.18951
#
# Velocity S-wave (km/s) = 4.58007 11.33310 8.64338
# Velocity P-wave (km/s) = 7.57132 14.16536 11.35743
#
# Compressibility (1/GPa) = 0.01729022
#
# Stress axis : x y z
#
# Youngs Moduli (GPa) = 91.19727 79.49380 78.34543
#
# Poissons Ratio (x) = 0.20277 0.24489
# Poissons Ratio (y) = 0.23262 0.30028
# Poissons Ratio (z) = 0.28506 0.30468
#
# Static dielectric constant tensor:
#      x y z
#    x 1.765040 0.000000 0.000000 
#    y 0.000000 1.898010 0.000000 
#    z 0.000000 0.000000 1.710430 
# 
# From -- ./inp_files/67213.got.cif
#   From: 2010.05.17/outbox.cif.g08.bks.cpg/sg70_34_cif.got.tgz:67213.got - 2010.06.03 15:57:51.
