data_PCOD9515813
_publ_section_title
;
Structure prediction by ZEFSAII (Michael W. Deem and Ramdas Pophale) SiO2 
 PCOD9515813
Probable space group: F D D D
;
_chemical_formula_sum "Si O2"
_cell_formula_units_Z 80
_cell_length_a 9.536212
_cell_length_b 24.516412
_cell_length_c 13.357876
_cell_angle_alpha 90.000000
_cell_angle_beta 90.000000
_cell_angle_gamma 90.000000
_cell_volume 3122.987285
_symmetry_space_group_name_H-M "F D D D"
_symmetry_group_IT_number 70
_space_group.IT_coordinate_system_code '2'
_symmetry_cell_setting 'orthorhombic'
loop_
_space_group_symop_operation_xyz
x,y,z
1/4-x,1/4-y,z
x,1/4-y,1/4-z
1/4-x,y,1/4-z
-x,-y,-z
3/4+x,3/4+y,-z
-x,3/4+y,3/4+z
3/4+x,-y,3/4+z
x,1/2+y,1/2+z
1/4-x,3/4-y,1/2+z
x,3/4-y,3/4-z
1/4-x,1/2+y,3/4-z
-x,1/2-y,1/2-z
3/4+x,1/4+y,1/2-z
-x,1/4+y,1/4+z
3/4+x,1/2-y,1/4+z
1/2+x,y,1/2+z
3/4-x,1/4-y,1/2+z
1/2+x,1/4-y,3/4-z
3/4-x,y,3/4-z
1/2-x,-y,1/2-z
1/4+x,3/4+y,1/2-z
1/2-x,3/4+y,1/4+z
1/4+x,-y,1/4+z
1/2+x,1/2+y,z
3/4-x,3/4-y,z
1/2+x,3/4-y,1/4-z
3/4-x,1/2+y,1/4-z
1/2-x,1/2-y,-z
1/4+x,1/4+y,-z
1/2-x,1/4+y,3/4+z
1/4+x,1/2-y,3/4+z
loop_
_atom_site_type_symbol
_atom_site_label
_atom_site_fract_x
_atom_site_fract_y
_atom_site_fract_z
Si Si1 0.125000 0.416297 0.625000
Si Si2 0.355238 0.257593 0.596322
Si Si3 0.757728 0.165419 0.733090
O O1 0.259591 0.452502 0.598883
O O2 0.132015 0.373843 0.715943
O O3 0.250000 0.250000 0.500000
O O4 0.426578 0.198014 0.609612
O O5 0.275172 0.284716 0.690005
O O6 0.625000 0.125000 0.723996
#
# Coordination Sequence:
#
# PCOD9515813 Si02
#       3
#    16  32  32
#     4  10  22  40  67  94 133 178 222 290 352 408
#     4  11  21  40  69  96 128 184 233 281 355 432
#     4  10  22  41  67  93 137 178 225 289 354 412
#
# _framework density 25.616499999999998
#
# number of rings (size 3 to 8) (size 9 to 14) (size 15 to 20)
#    0.000    1.600    4.000    0.000    0.000    6.400 
#    0.000    7.000   17.600    0.000    0.000    0.000 
#    0.000    0.000    0.000    0.000    0.000    0.000 
#
# Total GULP energy -111523.756813 kJ/mol
# GULP energy per Si atom -5576.187841 kJ/mol
# Density = 2.555820 g / cm^3
# Si number density = 25.616500 Si / 1000 Ang^3
#
#
#
# Elastic Constant Matrix: (Units=GPa)
#
#
# Indices 1 2 3 4 5 6 
#
# 1 125.9119 66.4617 18.5313 0.0000 0.0000 0.0000
# 2 66.4617 194.0945 81.5814 0.0000 0.0000 0.0000
# 3 18.5313 81.5814 107.7352 0.0000 0.0000 0.0000
# 4 0.0000 0.0000 0.0000 68.1146 0.0000 0.0000
# 5 0.0000 0.0000 0.0000 0.0000 25.5997 0.0000
# 6 0.0000 0.0000 0.0000 0.0000 0.0000 30.5598
#
#
#
# Elastic Compliance Matrix: (Units=1/GPa)
#
#
# Indices 1 2 3 4 5 6 
#
# 1 0.009809 -0.003887 0.001256 0.000000 0.000000 0.000000
# 2 -0.003887 0.009098 -0.006221 0.000000 0.000000 0.000000
# 3 0.001256 -0.006221 0.013776 0.000000 0.000000 0.000000
# 4 0.000000 0.000000 0.000000 0.014681 0.000000 0.000000
# 5 0.000000 0.000000 0.000000 0.000000 0.039063 0.000000
# 6 0.000000 0.000000 0.000000 0.000000 0.000000 0.032723
#
#
# Mechanical properties :
#
#
# Convention : Reuss Voigt Hill
#
# Bulk Modulus (GPa) = 66.75429 84.54338 75.64883
# Shear Modulus (GPa) = 35.24963 42.26595 38.75779
#
# Velocity S-wave (km/s) = 3.71354 4.06636 3.89395
# Velocity P-wave (km/s) = 6.67105 7.42443 7.05780
#
# Compressibility (1/GPa) = 0.01498031
#
# Stress axis : x y z
#
# Youngs Moduli (GPa) = 101.95005 109.91953 72.58778
#
# Poissons Ratio (x) = 0.42721 -0.09116
# Poissons Ratio (y) = 0.39624 0.45153
# Poissons Ratio (z) = -0.12804 0.68376
#
# Static dielectric constant tensor:
#      x y z
#    x 2.055010 0.000000 0.000000 
#    y 0.000000 2.000550 0.000000 
#    z 0.000000 0.000000 2.205120 
# 
# From -- ./inp_files/14532.got.cif
#   From: 2010.05.17/outbox.cif.g08.bks.cpg/sg70_8_cif.got.tgz:14532.got - 2010.06.03 15:57:51.
