data_PCOD9515322
_publ_section_title
;
Structure prediction by ZEFSAII (Michael W. Deem and Ramdas Pophale) SiO2 
 PCOD9515322
Probable space group: F D D D
;
_chemical_formula_sum "Si O2"
_cell_formula_units_Z 216
_cell_length_a 20.404262
_cell_length_b 21.749473
_cell_length_c 26.612160
_cell_angle_alpha 90.000000
_cell_angle_beta 90.000000
_cell_angle_gamma 90.000000
_cell_volume 11809.996138
_symmetry_space_group_name_H-M "F D D D"
_symmetry_group_IT_number 70
_space_group.IT_coordinate_system_code '2'
_symmetry_cell_setting 'orthorhombic'
loop_
_space_group_symop_operation_xyz
x,y,z
1/4-x,1/4-y,z
x,1/4-y,1/4-z
1/4-x,y,1/4-z
-x,-y,-z
3/4+x,3/4+y,-z
-x,3/4+y,3/4+z
3/4+x,-y,3/4+z
x,1/2+y,1/2+z
1/4-x,3/4-y,1/2+z
x,3/4-y,3/4-z
1/4-x,1/2+y,3/4-z
-x,1/2-y,1/2-z
3/4+x,1/4+y,1/2-z
-x,1/4+y,1/4+z
3/4+x,1/2-y,1/4+z
1/2+x,y,1/2+z
3/4-x,1/4-y,1/2+z
1/2+x,1/4-y,3/4-z
3/4-x,y,3/4-z
1/2-x,-y,1/2-z
1/4+x,3/4+y,1/2-z
1/2-x,3/4+y,1/4+z
1/4+x,-y,1/4+z
1/2+x,1/2+y,z
3/4-x,3/4-y,z
1/2+x,3/4-y,1/4-z
3/4-x,1/2+y,1/4-z
1/2-x,1/2-y,-z
1/4+x,1/4+y,-z
1/2-x,1/4+y,3/4+z
1/4+x,1/2-y,3/4+z
loop_
_atom_site_type_symbol
_atom_site_label
_atom_site_fract_x
_atom_site_fract_y
_atom_site_fract_z
Si Si1 0.849153 0.198725 0.516088
Si Si2 0.287599 0.956150 0.302581
Si Si3 0.778370 0.277780 0.636336
Si Si4 0.080102 0.360084 0.074868
Si Si5 0.125000 0.125000 0.420634
Si Si6 0.397170 0.197927 0.125252
Si Si7 0.625000 0.125000 0.625000
Si Si8 0.269346 0.967768 0.697744
O O1 0.777353 0.173533 0.531972
O O2 0.832932 0.263072 0.488927
O O3 0.880893 0.152592 0.476316
O O4 0.891079 0.212352 0.565884
O O5 0.329171 0.915900 0.340092
O O6 0.257173 0.012386 0.334664
O O7 0.720987 0.302514 0.672046
O O8 0.828527 0.334234 0.635710
O O9 0.826315 0.220189 0.647832
O O10 0.125000 0.359103 0.125000
O O11 0.039543 0.423751 0.071360
O O12 0.080374 0.079613 0.453413
O O13 0.404823 0.125000 0.125000
O O14 0.453235 0.233439 0.156517
O O15 0.250000 0.000000 0.750000
#
# Coordination Sequence:
#
# PCOD9515322 Si02
#       8
#    32  32  32  32  16  32   8  32
#     4  10  21  38  56  86 119 164 201 252 303 364
#     4  10  21  37  57  87 129 160 197 242 299 372
#     4   9  18  35  61  83 116 156 198 240 305 370
#     4  11  20  38  62  87 122 158 203 258 309 371
#     4   8  18  36  63  86 109 160 202 258 310 362
#     4  10  21  39  61  87 120 158 202 254 312 371
#     4  12  24  40  58  92 132 172 194 238 314 370
#     4  10  21  40  62  88 117 160 215 259 308 370
#
# _framework density 18.289591000000001
#
# number of rings (size 3 to 8) (size 9 to 14) (size 15 to 20)
#    0.000    2.074    1.481    1.778    4.148    0.000 
#    2.667   11.111    0.000    0.000    0.000    0.000 
#    0.000    0.000    0.000    0.000    0.000    0.000 
#
# Total GULP energy -300726.842723 kJ/mol
# GULP energy per Si atom -5569.015606 kJ/mol
# Density = 1.824796 g / cm^3
# Si number density = 18.289591 Si / 1000 Ang^3
#
#
#
# Elastic Constant Matrix: (Units=GPa)
#
#
# Indices 1 2 3 4 5 6 
#
# 1 109.8867 65.8339 78.1046 0.0000 0.0000 0.0000
# 2 65.8339 104.5738 66.6056 0.0000 0.0000 0.0000
# 3 78.1046 66.6056 135.3309 0.0000 0.0000 0.0000
# 4 0.0000 0.0000 0.0000 56.9768 0.0000 0.0000
# 5 0.0000 0.0000 0.0000 0.0000 44.8790 0.0000
# 6 0.0000 0.0000 0.0000 0.0000 0.0000 11.5487
#
#
#
# Elastic Compliance Matrix: (Units=1/GPa)
#
#
# Indices 1 2 3 4 5 6 
#
# 1 0.018397 -0.007019 -0.007163 0.000000 0.000000 0.000000
# 2 -0.007019 0.016607 -0.004122 0.000000 0.000000 0.000000
# 3 -0.007163 -0.004122 0.013552 0.000000 0.000000 0.000000
# 4 0.000000 0.000000 0.000000 0.017551 0.000000 0.000000
# 5 0.000000 0.000000 0.000000 0.000000 0.022282 0.000000
# 6 0.000000 0.000000 0.000000 0.000000 0.000000 0.086589
#
#
# Mechanical properties :
#
#
# Convention : Reuss Voigt Hill
#
# Bulk Modulus (GPa) = 83.70290 85.65329 84.67809
# Shear Modulus (GPa) = 23.19429 31.96408 27.57918
#
# Velocity S-wave (km/s) = 3.56500 4.18504 3.88740
# Velocity P-wave (km/s) = 7.92529 8.38368 8.15771
#
# Compressibility (1/GPa) = 0.01194702
#
# Stress axis : x y z
#
# Youngs Moduli (GPa) = 54.35739 60.21423 73.78948
#
# Poissons Ratio (x) = 0.42267 0.52853
# Poissons Ratio (y) = 0.38156 0.30419
# Poissons Ratio (z) = 0.38935 0.24823
#
# Static dielectric constant tensor:
#      x y z
#    x 1.669540 0.000000 0.000000 
#    y 0.000000 1.655360 0.000000 
#    z 0.000000 0.000000 1.631620 
# 
# From -- ./inp_files/60528.got.cif
#   From: 2010.05.17/outbox.cif.g08.bks.cpg/sg70_31_cif.got.tgz:60528.got - 2010.06.03 15:57:51.
