data_PCOD9515451
_publ_section_title
;
Structure prediction by ZEFSAII (Michael W. Deem and Ramdas Pophale) SiO2 
 PCOD9515451
Probable space group: F D D D
;
_chemical_formula_sum "Si O2"
_cell_formula_units_Z 192
_cell_length_a 25.719350
_cell_length_b 25.657200
_cell_length_c 12.600760
_cell_angle_alpha 90.000000
_cell_angle_beta 90.000000
_cell_angle_gamma 90.000000
_cell_volume 8315.071500
_symmetry_space_group_name_H-M "F D D D"
_symmetry_group_IT_number 70
_space_group.IT_coordinate_system_code '2'
_symmetry_cell_setting 'orthorhombic'
loop_
_space_group_symop_operation_xyz
x,y,z
1/4-x,1/4-y,z
x,1/4-y,1/4-z
1/4-x,y,1/4-z
-x,-y,-z
3/4+x,3/4+y,-z
-x,3/4+y,3/4+z
3/4+x,-y,3/4+z
x,1/2+y,1/2+z
1/4-x,3/4-y,1/2+z
x,3/4-y,3/4-z
1/4-x,1/2+y,3/4-z
-x,1/2-y,1/2-z
3/4+x,1/4+y,1/2-z
-x,1/4+y,1/4+z
3/4+x,1/2-y,1/4+z
1/2+x,y,1/2+z
3/4-x,1/4-y,1/2+z
1/2+x,1/4-y,3/4-z
3/4-x,y,3/4-z
1/2-x,-y,1/2-z
1/4+x,3/4+y,1/2-z
1/2-x,3/4+y,1/4+z
1/4+x,-y,1/4+z
1/2+x,1/2+y,z
3/4-x,3/4-y,z
1/2+x,3/4-y,1/4-z
3/4-x,1/2+y,1/4-z
1/2-x,1/2-y,-z
1/4+x,1/4+y,-z
1/2-x,1/4+y,3/4+z
1/4+x,1/2-y,3/4+z
loop_
_atom_site_type_symbol
_atom_site_label
_atom_site_fract_x
_atom_site_fract_y
_atom_site_fract_z
Si Si1 0.125000 0.404143 0.625000
Si Si2 0.733671 0.178819 0.087156
Si Si3 0.095669 0.813109 0.984762
Si Si4 0.125000 0.027183 0.625000
Si Si5 0.557940 0.274155 0.763854
Si Si6 0.761570 0.458358 0.600736
Si Si7 0.115176 0.681106 0.500626
O O1 0.127583 0.363612 0.525324
O O2 0.171861 0.442937 0.661156
O O3 0.756850 0.125000 0.125000
O O4 0.675992 0.188156 0.132898
O O5 0.763503 0.230164 0.124892
O O6 0.729272 0.179609 0.961063
O O7 0.127683 0.761744 0.023021
O O8 0.044210 0.808687 0.057852
O O9 0.071490 0.809519 0.867176
O O10 0.500000 0.250000 0.750000
O O11 0.595466 0.225218 0.785471
O O12 0.806038 0.445625 0.518436
O O13 0.125000 0.625000 0.449363
O O14 0.125000 0.677401 0.625000
#
# Coordination Sequence:
#
# PCOD9515451 Si02
#       7
#    16  32  32  16  32  32  32
#     4  11  26  48  74 112 152 214 256 321 410 486
#     4  10  21  39  67 102 140 192 237 311 372 462
#     4  10  23  44  73 103 154 200 251 330 393 480
#     4   9  19  40  63  98 143 186 255 303 386 460
#     4  12  26  47  77 116 153 202 270 339 399 498
#     4  10  23  42  66 105 144 187 254 307 383 475
#     4  11  25  45  70 101 143 195 245 321 399 471
#
# _framework density 23.090600999999999
#
# number of rings (size 3 to 8) (size 9 to 14) (size 15 to 20)
#    0.000    1.500    0.833    2.750    2.333    6.667 
#    0.000    0.000    0.000    0.000    0.000    0.000 
#    0.000    0.000    0.000    0.000    0.000    0.000 
#
# Total GULP energy -268194.518025 kJ/mol
# GULP energy per Si atom -5587.385792 kJ/mol
# Density = 2.303805 g / cm^3
# Si number density = 23.090601 Si / 1000 Ang^3
#
#
#
# Elastic Constant Matrix: (Units=GPa)
#
#
# Indices 1 2 3 4 5 6 
#
# 1 97.7167 31.2436 34.4212 0.0000 0.0000 0.0000
# 2 31.2436 115.6605 46.2696 0.0000 0.0000 0.0000
# 3 34.4212 46.2696 105.5972 0.0000 0.0000 0.0000
# 4 0.0000 0.0000 0.0000 45.8272 0.0000 0.0000
# 5 0.0000 0.0000 0.0000 0.0000 99.3168 0.0000
# 6 0.0000 0.0000 0.0000 0.0000 0.0000 0.3356
#
#
#
# Elastic Compliance Matrix: (Units=1/GPa)
#
#
# Indices 1 2 3 4 5 6 
#
# 1 0.011939 -0.002023 -0.003005 0.000000 0.000000 0.000000
# 2 -0.002023 0.010826 -0.004084 0.000000 0.000000 0.000000
# 3 -0.003005 -0.004084 0.012239 0.000000 0.000000 0.000000
# 4 0.000000 0.000000 0.000000 0.021821 0.000000 0.000000
# 5 0.000000 0.000000 0.000000 0.000000 0.010069 0.000000
# 6 0.000000 0.000000 0.000000 0.000000 0.000000 2.979789
#
#
# Mechanical properties :
#
#
# Convention : Reuss Voigt Hill
#
# Bulk Modulus (GPa) = 59.59673 60.31591 59.95632
# Shear Modulus (GPa) = 1.62840 42.89860 22.26350
#
# Velocity S-wave (km/s) = 0.84069 4.31494 3.10849
# Velocity P-wave (km/s) = 5.17767 7.14164 6.23744
#
# Compressibility (1/GPa) = 0.01677945
#
# Stress axis : x y z
#
# Youngs Moduli (GPa) = 83.75838 92.36694 81.70415
#
# Poissons Ratio (x) = 0.18684 0.24555
# Poissons Ratio (y) = 0.16943 0.33371
# Poissons Ratio (z) = 0.25173 0.37727
#
# Static dielectric constant tensor:
#      x y z
#    x 1.897160 0.000000 0.000000 
#    y 0.000000 1.938260 0.000000 
#    z 0.000000 0.000000 1.894380 
# 
# From -- ./inp_files/30169.got.cif
#   From: 2010.05.17/outbox.cif.g08.bks.cpg/sg70_16_cif.got.tgz:30169.got - 2010.06.03 15:57:51.
