data_PCOD9515248
_publ_section_title
;
Structure prediction by ZEFSAII (Michael W. Deem and Ramdas Pophale) SiO2 
 PCOD9515248
Probable space group: F D D D
;
_chemical_formula_sum "Si O2"
_cell_formula_units_Z 120
_cell_length_a 21.645911
_cell_length_b 27.614582
_cell_length_c 7.618690
_cell_angle_alpha 90.000000
_cell_angle_beta 90.000000
_cell_angle_gamma 90.000000
_cell_volume 4554.016973
_symmetry_space_group_name_H-M "F D D D"
_symmetry_group_IT_number 70
_space_group.IT_coordinate_system_code '2'
_symmetry_cell_setting 'orthorhombic'
loop_
_space_group_symop_operation_xyz
x,y,z
1/4-x,1/4-y,z
x,1/4-y,1/4-z
1/4-x,y,1/4-z
-x,-y,-z
3/4+x,3/4+y,-z
-x,3/4+y,3/4+z
3/4+x,-y,3/4+z
x,1/2+y,1/2+z
1/4-x,3/4-y,1/2+z
x,3/4-y,3/4-z
1/4-x,1/2+y,3/4-z
-x,1/2-y,1/2-z
3/4+x,1/4+y,1/2-z
-x,1/4+y,1/4+z
3/4+x,1/2-y,1/4+z
1/2+x,y,1/2+z
3/4-x,1/4-y,1/2+z
1/2+x,1/4-y,3/4-z
3/4-x,y,3/4-z
1/2-x,-y,1/2-z
1/4+x,3/4+y,1/2-z
1/2-x,3/4+y,1/4+z
1/4+x,-y,1/4+z
1/2+x,1/2+y,z
3/4-x,3/4-y,z
1/2+x,3/4-y,1/4-z
3/4-x,1/2+y,1/4-z
1/2-x,1/2-y,-z
1/4+x,1/4+y,-z
1/2-x,1/4+y,3/4+z
1/4+x,1/2-y,3/4+z
loop_
_atom_site_type_symbol
_atom_site_label
_atom_site_fract_x
_atom_site_fract_y
_atom_site_fract_z
Si Si1 0.125000 0.625000 0.625000
Si Si2 0.197397 0.216820 0.276491
Si Si3 0.993062 0.186400 0.466355
Si Si4 0.875000 0.289621 0.875000
Si Si5 0.446991 0.089382 0.895810
O O1 0.166058 0.665795 0.724923
O O2 0.205335 0.265184 0.161010
O O3 0.164224 0.230953 0.460033
O O4 0.269015 0.202821 0.293298
O O5 0.975431 0.141437 0.346008
O O6 0.964824 0.172592 0.654767
O O7 0.066745 0.187255 0.512183
O O8 0.375000 0.090350 0.875000
#
# Coordination Sequence:
#
# PCOD9515248 Si02
#       5
#     8  32  32  16  32
#     4  12  28  46  56 102 140 180 228 262 340 416
#     4  11  25  43  70  96 135 182 219 280 331 393
#     4  10  23  38  71 100 128 177 224 282 331 382
#     4  10  20  45  72  97 122 173 240 264 320 403
#     4  10  22  41  64 102 131 170 226 274 330 403
#
# _framework density 26.350363000000002
#
# number of rings (size 3 to 8) (size 9 to 14) (size 15 to 20)
#    0.000    1.600    0.000    4.800    9.333   12.267 
#    0.000    2.667    0.000    0.000    0.000    0.000 
#    0.000    0.000    0.000    0.000    0.000    0.000 
#
# Total GULP energy -167134.165288 kJ/mol
# GULP energy per Si atom -5571.138843 kJ/mol
# Density = 2.629039 g / cm^3
# Si number density = 26.350363 Si / 1000 Ang^3
#
#
#
# Elastic Constant Matrix: (Units=GPa)
#
#
# Indices 1 2 3 4 5 6 
#
# 1 226.3882 60.5449 21.8599 0.0033 -0.0103 -0.0028
# 2 60.5449 160.4171 26.0855 0.0013 -0.0014 -0.0021
# 3 21.8599 26.0855 47.7571 0.0081 -0.0340 -0.0088
# 4 0.0033 0.0013 0.0081 20.7937 -0.0120 -0.0040
# 5 -0.0103 -0.0014 -0.0340 -0.0120 -88.4267 0.0026
# 6 -0.0028 -0.0021 -0.0088 -0.0040 0.0026 -18.5388
#
#
#
# Elastic Compliance Matrix: (Units=1/GPa)
#
#
# Indices 1 2 3 4 5 6 
#
# 1 0.004995 -0.001661 -0.001379 0.000000 0.000000 0.000000
# 2 -0.001661 0.007394 -0.003278 0.000001 0.000001 0.000001
# 3 -0.001379 -0.003278 0.023361 -0.000009 -0.000009 -0.000010
# 4 0.000000 0.000001 -0.000009 0.048092 -0.000007 -0.000010
# 5 0.000000 0.000001 -0.000009 -0.000007 -0.011309 -0.000002
# 6 0.000000 0.000001 -0.000010 -0.000010 -0.000002 -0.053941
#
#
# Mechanical properties :
#
#
# Convention : Reuss Voigt Hill
#
# Bulk Modulus (GPa) = 43.26546 72.39368 57.82957
# Shear Modulus (GPa) = 128.42937 4.50375 66.46656
#
# Velocity S-wave (km/s) = 6.98892 1.30877 5.02781
# Velocity P-wave (km/s) = 9.03225 5.46049 7.46319
#
# Compressibility (1/GPa) = 0.02311312
#
# Stress axis : x y z
#
# Youngs Moduli (GPa) = 200.21998 135.25103 42.80608
#
# Poissons Ratio (x) = 0.22462 0.05903
# Poissons Ratio (y) = 0.33252 0.14033
# Poissons Ratio (z) = 0.27610 0.44339
#
# Static dielectric constant tensor:
#      x y z
#    x 2.078260 0.000000 0.000000 
#    y 0.000000 2.148800 0.000000 
#    z 0.000000 0.000000 2.132100 
# 
# From -- ./inp_files/17603.got.cif
#   From: 2010.05.17/outbox.cif.g08.bks.cpg/sg70_9_cif.got.tgz:17603.got - 2010.06.03 15:57:51.
