data_PCOD9515738
_publ_section_title
;
Structure prediction by ZEFSAII (Michael W. Deem and Ramdas Pophale) SiO2 
 PCOD9515738
Probable space group: F D D D
;
_chemical_formula_sum "Si O2"
_cell_formula_units_Z 168
_cell_length_a 17.075142
_cell_length_b 19.586228
_cell_length_c 20.689522
_cell_angle_alpha 90.000000
_cell_angle_beta 90.000000
_cell_angle_gamma 90.000000
_cell_volume 6919.354587
_symmetry_space_group_name_H-M "F D D D"
_symmetry_group_IT_number 70
_space_group.IT_coordinate_system_code '2'
_symmetry_cell_setting 'orthorhombic'
loop_
_space_group_symop_operation_xyz
x,y,z
1/4-x,1/4-y,z
x,1/4-y,1/4-z
1/4-x,y,1/4-z
-x,-y,-z
3/4+x,3/4+y,-z
-x,3/4+y,3/4+z
3/4+x,-y,3/4+z
x,1/2+y,1/2+z
1/4-x,3/4-y,1/2+z
x,3/4-y,3/4-z
1/4-x,1/2+y,3/4-z
-x,1/2-y,1/2-z
3/4+x,1/4+y,1/2-z
-x,1/4+y,1/4+z
3/4+x,1/2-y,1/4+z
1/2+x,y,1/2+z
3/4-x,1/4-y,1/2+z
1/2+x,1/4-y,3/4-z
3/4-x,y,3/4-z
1/2-x,-y,1/2-z
1/4+x,3/4+y,1/2-z
1/2-x,3/4+y,1/4+z
1/4+x,-y,1/4+z
1/2+x,1/2+y,z
3/4-x,3/4-y,z
1/2+x,3/4-y,1/4-z
3/4-x,1/2+y,1/4-z
1/2-x,1/2-y,-z
1/4+x,1/4+y,-z
1/2-x,1/4+y,3/4+z
1/4+x,1/2-y,3/4+z
loop_
_atom_site_type_symbol
_atom_site_label
_atom_site_fract_x
_atom_site_fract_y
_atom_site_fract_z
Si Si1 0.008317 0.616848 0.017496
Si Si2 0.877617 0.050377 0.946844
Si Si3 0.875000 0.375000 0.875000
Si Si4 0.629922 0.544741 0.935515
Si Si5 0.394566 0.498926 0.554894
Si Si6 0.310476 0.052700 0.930549
O O1 0.063038 0.652396 0.071301
O O2 0.954913 0.562397 0.056712
O O3 0.059258 0.568521 0.969781
O O4 0.952188 0.663749 0.974135
O O5 0.875000 0.019584 0.875000
O O6 0.935366 0.114970 0.938406
O O7 0.897535 0.996597 0.002335
O O8 0.625000 0.625000 0.944793
O O9 0.595005 0.517161 0.868644
O O10 0.721867 0.531944 0.919097
O O11 0.338481 0.522806 0.497871
O O12 0.375000 0.035485 0.875000
#
# Coordination Sequence:
#
# PCOD9515738 Si02
#       6
#    32  32   8  32  32  32
#     4  10  22  38  65 108 141 188 216 278 373 456
#     4  10  23  47  70  92 141 197 247 290 360 419
#     4  12  24  32  68 112 152 164 216 292 378 452
#     4  12  27  44  69 104 135 185 257 305 347 419
#     4  10  22  39  63 100 146 182 227 273 363 445
#     4  10  23  44  73 103 148 187 223 296 370 445
#
# _framework density 24.279720000000001
#
# number of rings (size 3 to 8) (size 9 to 14) (size 15 to 20)
#    0.000    1.524    0.000    5.714    8.000    6.476 
#    1.714    1.905    0.000    0.000    0.000    0.000 
#    0.000    0.000    0.000    0.000    0.000    0.000 
#
# Total GULP energy -234909.417225 kJ/mol
# GULP energy per Si atom -5593.081363 kJ/mol
# Density = 2.422446 g / cm^3
# Si number density = 24.279720 Si / 1000 Ang^3
#
#
#
# Elastic Constant Matrix: (Units=GPa)
#
#
# Indices 1 2 3 4 5 6 
#
# 1 57.5798 5.2044 1.5324 0.0000 0.0000 0.0000
# 2 5.2044 88.1594 68.8595 0.0000 0.0000 0.0000
# 3 1.5324 68.8595 209.0976 0.0000 0.0000 0.0000
# 4 0.0000 0.0000 0.0000 35.3505 0.0000 0.0000
# 5 0.0000 0.0000 0.0000 0.0000 34.3735 0.0000
# 6 0.0000 0.0000 0.0000 0.0000 0.0000 30.8607
#
#
#
# Elastic Compliance Matrix: (Units=1/GPa)
#
#
# Indices 1 2 3 4 5 6 
#
# 1 0.017473 -0.001254 0.000285 0.000000 0.000000 0.000000
# 2 -0.001254 0.015361 -0.005050 0.000000 0.000000 0.000000
# 3 0.000285 -0.005050 0.006443 0.000000 0.000000 0.000000
# 4 0.000000 0.000000 0.000000 0.028288 0.000000 0.000000
# 5 0.000000 0.000000 0.000000 0.000000 0.029092 0.000000
# 6 0.000000 0.000000 0.000000 0.000000 0.000000 0.032404
#
#
# Mechanical properties :
#
#
# Convention : Reuss Voigt Hill
#
# Bulk Modulus (GPa) = 36.71054 56.22549 46.46802
# Shear Modulus (GPa) = 33.29367 38.73298 36.01333
#
# Velocity S-wave (km/s) = 3.70706 3.99843 3.85550
# Velocity P-wave (km/s) = 5.78582 6.67265 6.24500
#
# Compressibility (1/GPa) = 0.02724013
#
# Stress axis : x y z
#
# Youngs Moduli (GPa) = 57.23128 65.09914 155.20090
#
# Poissons Ratio (x) = 0.08164 -0.04422
# Poissons Ratio (y) = 0.07177 0.78369
# Poissons Ratio (z) = -0.01631 0.32872
#
# Static dielectric constant tensor:
#      x y z
#    x 2.031620 0.000000 0.000000 
#    y 0.000000 2.001980 0.000000 
#    z 0.000000 0.000000 1.932920 
# 
# From -- ./inp_files/44901.got.cif
#   From: 2010.05.17/outbox.cif.g08.bks.cpg/sg70_23_cif.got.tgz:44901.got - 2010.06.03 15:57:51.
