data_PCOD9515477
_publ_section_title
;
Structure prediction by ZEFSAII (Michael W. Deem and Ramdas Pophale) SiO2 
 PCOD9515477
Probable space group: F D D D
;
_chemical_formula_sum "Si O2"
_cell_formula_units_Z 160
_cell_length_a 19.326589
_cell_length_b 20.178075
_cell_length_c 18.604885
_cell_angle_alpha 90.000000
_cell_angle_beta 90.000000
_cell_angle_gamma 90.000000
_cell_volume 7255.409559
_symmetry_space_group_name_H-M "F D D D"
_symmetry_group_IT_number 70
_space_group.IT_coordinate_system_code '2'
_symmetry_cell_setting 'orthorhombic'
loop_
_space_group_symop_operation_xyz
x,y,z
1/4-x,1/4-y,z
x,1/4-y,1/4-z
1/4-x,y,1/4-z
-x,-y,-z
3/4+x,3/4+y,-z
-x,3/4+y,3/4+z
3/4+x,-y,3/4+z
x,1/2+y,1/2+z
1/4-x,3/4-y,1/2+z
x,3/4-y,3/4-z
1/4-x,1/2+y,3/4-z
-x,1/2-y,1/2-z
3/4+x,1/4+y,1/2-z
-x,1/4+y,1/4+z
3/4+x,1/2-y,1/4+z
1/2+x,y,1/2+z
3/4-x,1/4-y,1/2+z
1/2+x,1/4-y,3/4-z
3/4-x,y,3/4-z
1/2-x,-y,1/2-z
1/4+x,3/4+y,1/2-z
1/2-x,3/4+y,1/4+z
1/4+x,-y,1/4+z
1/2+x,1/2+y,z
3/4-x,3/4-y,z
1/2+x,3/4-y,1/4-z
3/4-x,1/2+y,1/4-z
1/2-x,1/2-y,-z
1/4+x,1/4+y,-z
1/2-x,1/4+y,3/4+z
1/4+x,1/2-y,3/4+z
loop_
_atom_site_type_symbol
_atom_site_label
_atom_site_fract_x
_atom_site_fract_y
_atom_site_fract_z
Si Si1 0.707631 0.509001 0.930460
Si Si2 0.985499 0.375000 0.875000
Si Si3 0.375000 0.875000 0.746750
Si Si4 0.198108 0.376824 0.096870
Si Si5 0.437244 0.539248 0.035812
Si Si6 0.715094 0.517601 0.426836
O O1 0.719548 0.440721 0.887717
O O2 0.738361 0.572939 0.891816
O O3 0.631274 0.506506 0.963215
O O4 0.758907 0.506985 0.997774
O O5 0.938205 0.363777 0.803618
O O6 0.351039 0.813766 0.696451
O O7 0.125000 0.403955 0.125000
O O8 0.224184 0.313219 0.142327
O O9 0.182373 0.352582 0.015387
O O10 0.451740 0.541190 0.120699
O O11 0.500000 0.500000 0.000000
#
# Coordination Sequence:
#
# PCOD9515477 Si02
#       6
#    32  16  16  32  32  32
#     4  11  23  40  66  97 134 174 223 273 342 406
#     4   9  22  38  62  96 144 169 212 274 327 412
#     4   9  18  38  60  90 125 174 214 254 335 404
#     4  11  23  41  66  93 129 176 222 281 343 394
#     4  10  23  43  67  93 134 173 228 281 331 405
#     4  10  21  40  63  89 130 170 217 274 326 401
#
# _framework density 22.052510000000002
#
# number of rings (size 3 to 8) (size 9 to 14) (size 15 to 20)
#    0.000    1.800    2.000    1.200    5.600    4.800 
#    0.000    5.000    0.000    7.200    0.000    0.000 
#    0.000    0.000    0.000    0.000    0.000    0.000 
#
# Total GULP energy -223034.717310 kJ/mol
# GULP energy per Si atom -5575.867933 kJ/mol
# Density = 2.200232 g / cm^3
# Si number density = 22.052510 Si / 1000 Ang^3
#
#
#
# Elastic Constant Matrix: (Units=GPa)
#
#
# Indices 1 2 3 4 5 6 
#
# 1 134.5216 28.6427 0.7811 0.0000 0.0000 0.0000
# 2 28.6427 63.3254 22.3237 0.0000 0.0000 0.0000
# 3 0.7811 22.3237 76.3877 0.0000 0.0000 0.0000
# 4 0.0000 0.0000 0.0000 26.7451 0.0000 0.0000
# 5 0.0000 0.0000 0.0000 0.0000 16.5257 0.0000
# 6 0.0000 0.0000 0.0000 0.0000 0.0000 15.2766
#
#
#
# Elastic Compliance Matrix: (Units=1/GPa)
#
#
# Indices 1 2 3 4 5 6 
#
# 1 0.008313 -0.004158 0.001130 0.000000 0.000000 0.000000
# 2 -0.004158 0.019685 -0.005710 0.000000 0.000000 0.000000
# 3 0.001130 -0.005710 0.014748 0.000000 0.000000 0.000000
# 4 0.000000 0.000000 0.000000 0.037390 0.000000 0.000000
# 5 0.000000 0.000000 0.000000 0.000000 0.060512 0.000000
# 6 0.000000 0.000000 0.000000 0.000000 0.000000 0.065460
#
#
# Mechanical properties :
#
#
# Convention : Reuss Voigt Hill
#
# Bulk Modulus (GPa) = 39.57353 41.96997 40.77175
# Shear Modulus (GPa) = 21.55101 26.54197 24.04649
#
# Velocity S-wave (km/s) = 3.12951 3.47303 3.30573
# Velocity P-wave (km/s) = 5.57158 5.92923 5.75318
#
# Compressibility (1/GPa) = 0.02526941
#
# Stress axis : x y z
#
# Youngs Moduli (GPa) = 120.29954 50.79928 67.80417
#
# Poissons Ratio (x) = 0.21124 -0.07663
# Poissons Ratio (y) = 0.50024 0.38719
# Poissons Ratio (z) = -0.13597 0.29008
#
# Static dielectric constant tensor:
#      x y z
#    x 1.822610 0.000000 0.000000 
#    y 0.000000 1.811690 0.000000 
#    z 0.000000 0.000000 1.837650 
# 
# From -- ./inp_files/36378.got.cif
#   From: 2010.05.17/outbox.cif.g08.bks.cpg/sg70_19_cif.got.tgz:36378.got - 2010.06.03 15:57:51.
