data_PCOD9515502
_publ_section_title
;
Structure prediction by ZEFSAII (Michael W. Deem and Ramdas Pophale) SiO2 
 PCOD9515502
Probable space group: F D D D
;
_chemical_formula_sum "Si O2"
_cell_formula_units_Z 208
_cell_length_a 24.521329
_cell_length_b 18.024097
_cell_length_c 21.473722
_cell_angle_alpha 90.000000
_cell_angle_beta 90.000000
_cell_angle_gamma 90.000000
_cell_volume 9490.844254
_symmetry_space_group_name_H-M "F D D D"
_symmetry_group_IT_number 70
_space_group.IT_coordinate_system_code '2'
_symmetry_cell_setting 'orthorhombic'
loop_
_space_group_symop_operation_xyz
x,y,z
1/4-x,1/4-y,z
x,1/4-y,1/4-z
1/4-x,y,1/4-z
-x,-y,-z
3/4+x,3/4+y,-z
-x,3/4+y,3/4+z
3/4+x,-y,3/4+z
x,1/2+y,1/2+z
1/4-x,3/4-y,1/2+z
x,3/4-y,3/4-z
1/4-x,1/2+y,3/4-z
-x,1/2-y,1/2-z
3/4+x,1/4+y,1/2-z
-x,1/4+y,1/4+z
3/4+x,1/2-y,1/4+z
1/2+x,y,1/2+z
3/4-x,1/4-y,1/2+z
1/2+x,1/4-y,3/4-z
3/4-x,y,3/4-z
1/2-x,-y,1/2-z
1/4+x,3/4+y,1/2-z
1/2-x,3/4+y,1/4+z
1/4+x,-y,1/4+z
1/2+x,1/2+y,z
3/4-x,3/4-y,z
1/2+x,3/4-y,1/4-z
3/4-x,1/2+y,1/4-z
1/2-x,1/2-y,-z
1/4+x,1/4+y,-z
1/2-x,1/4+y,3/4+z
1/4+x,1/2-y,3/4+z
loop_
_atom_site_type_symbol
_atom_site_label
_atom_site_fract_x
_atom_site_fract_y
_atom_site_fract_z
Si Si1 0.081743 0.007821 0.071979
Si Si2 0.476628 0.969912 0.198278
Si Si3 0.625000 0.625000 0.979501
Si Si4 0.498209 0.050047 0.325957
Si Si5 0.735713 0.720310 0.431771
Si Si6 0.344708 0.155675 0.308144
Si Si7 0.117772 0.043759 0.776590
O O1 0.125000 0.028494 0.125000
O O2 0.101986 0.930611 0.041417
O O3 0.086008 0.072413 0.021929
O O4 0.027826 0.988600 0.113144
O O5 0.419829 0.925253 0.194615
O O6 0.493401 0.012595 0.133958
O O7 0.529698 0.917205 0.202472
O O8 0.474820 0.016779 0.261583
O O9 0.488272 0.138431 0.325470
O O10 0.563062 0.040787 0.317457
O O11 0.750000 0.750000 0.500000
O O12 0.671187 0.711675 0.433193
O O13 0.375000 0.162039 0.375000
O O14 0.368221 0.223692 0.268785
O O15 0.125000 0.125000 0.744504
#
# Coordination Sequence:
#
# PCOD9515502 Si02
#       7
#    32  32  16  32  32  32  32
#     4  11  22  41  68  94 141 191 229 282 345 414
#     4  11  24  40  65 100 132 173 236 285 344 419
#     4  12  27  40  70 104 140 189 240 286 350 417
#     4  10  22  42  64  95 132 180 228 280 333 418
#     4  11  23  41  67  94 132 176 217 288 360 408
#     4  10  21  40  66  91 128 180 230 284 346 413
#     4   9  21  38  63  96 131 168 225 289 344 411
#
# _framework density 21.915859000000001
#
# number of rings (size 3 to 8) (size 9 to 14) (size 15 to 20)
#    0.000    1.538    3.077    1.154    5.385    1.538 
#    0.000    4.615    0.000    1.846    0.000    0.000 
#    0.000    0.000    0.000    0.000    0.000    0.000 
#
# Total GULP energy -289605.655011 kJ/mol
# GULP energy per Si atom -5569.339519 kJ/mol
# Density = 2.186598 g / cm^3
# Si number density = 21.915859 Si / 1000 Ang^3
#
#
#
# Elastic Constant Matrix: (Units=GPa)
#
#
# Indices 1 2 3 4 5 6 
#
# 1 127.1282 23.0826 38.9795 0.0000 0.0000 0.0000
# 2 23.0826 95.4432 74.3394 0.0000 0.0000 0.0000
# 3 38.9795 74.3394 120.9337 0.0000 0.0000 0.0000
# 4 0.0000 0.0000 0.0000 11.7418 0.0000 0.0000
# 5 0.0000 0.0000 0.0000 0.0000 24.2174 0.0000
# 6 0.0000 0.0000 0.0000 0.0000 0.0000 30.7136
#
#
#
# Elastic Compliance Matrix: (Units=1/GPa)
#
#
# Indices 1 2 3 4 5 6 
#
# 1 0.008730 0.000154 -0.002909 0.000000 0.000000 0.000000
# 2 0.000154 0.020105 -0.012408 0.000000 0.000000 0.000000
# 3 -0.002909 -0.012408 0.016834 0.000000 0.000000 0.000000
# 4 0.000000 0.000000 0.000000 0.085166 0.000000 0.000000
# 5 0.000000 0.000000 0.000000 0.000000 0.041293 0.000000
# 6 0.000000 0.000000 0.000000 0.000000 0.000000 0.032559
#
#
# Mechanical properties :
#
#
# Convention : Reuss Voigt Hill
#
# Bulk Modulus (GPa) = 65.17541 68.47868 66.82704
# Shear Modulus (GPa) = 20.82235 27.14146 23.98190
#
# Velocity S-wave (km/s) = 3.08572 3.52296 3.31157
# Velocity P-wave (km/s) = 6.51913 6.91826 6.72166
#
# Compressibility (1/GPa) = 0.01534321
#
# Stress axis : x y z
#
# Youngs Moduli (GPa) = 114.54878 49.73911 59.40320
#
# Poissons Ratio (x) = -0.00767 0.17278
# Poissons Ratio (y) = -0.01766 0.73710
# Poissons Ratio (z) = 0.33318 0.61718
#
# Static dielectric constant tensor:
#      x y z
#    x 1.851450 0.000000 0.000000 
#    y 0.000000 1.847290 0.000000 
#    z 0.000000 0.000000 1.871770 
# 
# From -- ./inp_files/46951.got.cif
#   From: 2010.05.17/outbox.cif.g08.bks.cpg/sg70_24_cif.got.tgz:46951.got - 2010.06.03 15:57:51.
