data_PCOD9515571
_publ_section_title
;
Structure prediction by ZEFSAII (Michael W. Deem and Ramdas Pophale) SiO2 
 PCOD9515571
Probable space group: F D D D
;
_chemical_formula_sum "Si O2"
_cell_formula_units_Z 104
_cell_length_a 18.795987
_cell_length_b 7.428527
_cell_length_c 28.313670
_cell_angle_alpha 90.000000
_cell_angle_beta 90.000000
_cell_angle_gamma 90.000000
_cell_volume 3953.338557
_symmetry_space_group_name_H-M "F D D D"
_symmetry_group_IT_number 70
_space_group.IT_coordinate_system_code '2'
_symmetry_cell_setting 'orthorhombic'
loop_
_space_group_symop_operation_xyz
x,y,z
1/4-x,1/4-y,z
x,1/4-y,1/4-z
1/4-x,y,1/4-z
-x,-y,-z
3/4+x,3/4+y,-z
-x,3/4+y,3/4+z
3/4+x,-y,3/4+z
x,1/2+y,1/2+z
1/4-x,3/4-y,1/2+z
x,3/4-y,3/4-z
1/4-x,1/2+y,3/4-z
-x,1/2-y,1/2-z
3/4+x,1/4+y,1/2-z
-x,1/4+y,1/4+z
3/4+x,1/2-y,1/4+z
1/2+x,y,1/2+z
3/4-x,1/4-y,1/2+z
1/2+x,1/4-y,3/4-z
3/4-x,y,3/4-z
1/2-x,-y,1/2-z
1/4+x,3/4+y,1/2-z
1/2-x,3/4+y,1/4+z
1/4+x,-y,1/4+z
1/2+x,1/2+y,z
3/4-x,3/4-y,z
1/2+x,3/4-y,1/4-z
3/4-x,1/2+y,1/4-z
1/2-x,1/2-y,-z
1/4+x,1/4+y,-z
1/2-x,1/4+y,3/4+z
1/4+x,1/2-y,3/4+z
loop_
_atom_site_type_symbol
_atom_site_label
_atom_site_fract_x
_atom_site_fract_y
_atom_site_fract_z
Si Si1 0.625000 0.125000 0.125000
Si Si2 0.496470 0.895703 0.157036
Si Si3 0.844316 0.068310 0.012920
Si Si4 0.726410 0.001087 0.944274
O O1 0.678131 0.255679 0.153179
O O2 0.465783 0.853338 0.105018
O O3 0.502898 0.700310 0.181008
O O4 0.444690 0.018658 0.187909
O O5 0.907431 0.205197 0.024324
O O6 0.875000 0.875000 0.997877
O O7 0.785586 0.107925 0.973647
#
# Coordination Sequence:
#
# PCOD9515571 Si02
#       4
#     8  32  32  32
#     4  12  28  42  68 104 148 182 250 300 368 418
#     4  10  24  43  69 103 146 195 241 302 370 446
#     4  10  21  41  74 111 139 185 249 305 362 449
#     4  10  23  43  80 104 143 193 251 300 373 448
#
# _framework density 26.30688
#
# number of rings (size 3 to 8) (size 9 to 14) (size 15 to 20)
#    0.000    1.846    0.000    3.692    8.615    8.615 
#    0.000    1.538   23.692    0.000    0.000    0.000 
#    0.000    0.000    0.000    0.000    0.000    0.000 
#
# Total GULP energy -145843.311472 kJ/mol
# GULP energy per Si atom -5609.358134 kJ/mol
# Density = 2.624700 g / cm^3
# Si number density = 26.306880 Si / 1000 Ang^3
#
#
#
# Elastic Constant Matrix: (Units=GPa)
#
#
# Indices 1 2 3 4 5 6 
#
# 1 137.3217 9.9546 68.9683 0.0000 0.0000 -0.0002
# 2 9.9546 92.8889 5.3232 0.0000 0.0000 -0.0003
# 3 68.9683 5.3232 148.5047 0.0000 0.0000 0.0000
# 4 0.0000 0.0000 0.0000 11.1067 0.0000 0.0000
# 5 0.0000 0.0000 0.0000 0.0000 52.6652 0.0000
# 6 -0.0002 -0.0003 0.0000 0.0000 0.0000 46.6758
#
#
#
# Elastic Compliance Matrix: (Units=1/GPa)
#
#
# Indices 1 2 3 4 5 6 
#
# 1 0.009552 -0.000771 -0.004409 0.000000 0.000000 0.000000
# 2 -0.000771 0.010850 -0.000031 0.000000 0.000000 0.000000
# 3 -0.004409 -0.000031 0.008782 0.000000 0.000000 0.000000
# 4 0.000000 0.000000 0.000000 0.090036 0.000000 0.000000
# 5 0.000000 0.000000 0.000000 0.000000 0.018988 0.000000
# 6 0.000000 0.000000 0.000000 0.000000 0.000000 0.021424
#
#
# Mechanical properties :
#
#
# Convention : Reuss Voigt Hill
#
# Bulk Modulus (GPa) = 53.29473 60.80082 57.04777
# Shear Modulus (GPa) = 28.35948 41.72082 35.04015
#
# Velocity S-wave (km/s) = 3.28689 3.98669 3.65358
# Velocity P-wave (km/s) = 5.89133 6.65987 6.28735
#
# Compressibility (1/GPa) = 0.01876358
#
# Stress axis : x y z
#
# Youngs Moduli (GPa) = 104.68759 92.16636 113.86493
#
# Poissons Ratio (x) = 0.07106 0.50198
# Poissons Ratio (y) = 0.08072 0.00351
# Poissons Ratio (z) = 0.46153 0.00284
#
# Static dielectric constant tensor:
#      x y z
#    x 2.061130 0.000000 0.000000 
#    y 0.000000 2.028000 0.000000 
#    z 0.000000 0.000000 2.047100 
# 
# From -- ./inp_files/10610.got.cif
#   From: 2010.05.17/outbox.cif.g08.bks.cpg/sg70_6_cif.got.tgz:10610.got - 2010.06.03 15:57:51.
