data_PCOD9515599
_publ_section_title
;
Structure prediction by ZEFSAII (Michael W. Deem and Ramdas Pophale) SiO2 
 PCOD9515599
Probable space group: F D D D
;
_chemical_formula_sum "Si O2"
_cell_formula_units_Z 160
_cell_length_a 15.886077
_cell_length_b 23.553151
_cell_length_c 16.541801
_cell_angle_alpha 90.000000
_cell_angle_beta 90.000000
_cell_angle_gamma 90.000000
_cell_volume 6189.398873
_symmetry_space_group_name_H-M "F D D D"
_symmetry_group_IT_number 70
_space_group.IT_coordinate_system_code '2'
_symmetry_cell_setting 'orthorhombic'
loop_
_space_group_symop_operation_xyz
x,y,z
1/4-x,1/4-y,z
x,1/4-y,1/4-z
1/4-x,y,1/4-z
-x,-y,-z
3/4+x,3/4+y,-z
-x,3/4+y,3/4+z
3/4+x,-y,3/4+z
x,1/2+y,1/2+z
1/4-x,3/4-y,1/2+z
x,3/4-y,3/4-z
1/4-x,1/2+y,3/4-z
-x,1/2-y,1/2-z
3/4+x,1/4+y,1/2-z
-x,1/4+y,1/4+z
3/4+x,1/2-y,1/4+z
1/2+x,y,1/2+z
3/4-x,1/4-y,1/2+z
1/2+x,1/4-y,3/4-z
3/4-x,y,3/4-z
1/2-x,-y,1/2-z
1/4+x,3/4+y,1/2-z
1/2-x,3/4+y,1/4+z
1/4+x,-y,1/4+z
1/2+x,1/2+y,z
3/4-x,3/4-y,z
1/2+x,3/4-y,1/4-z
3/4-x,1/2+y,1/4-z
1/2-x,1/2-y,-z
1/4+x,1/4+y,-z
1/2-x,1/4+y,3/4+z
1/4+x,1/2-y,3/4+z
loop_
_atom_site_type_symbol
_atom_site_label
_atom_site_fract_x
_atom_site_fract_y
_atom_site_fract_z
Si Si1 0.875000 0.375000 0.997170
Si Si2 0.875000 0.503882 0.375000
Si Si3 0.747875 0.166366 0.551203
Si Si4 0.670873 0.750263 0.699682
Si Si5 0.860609 0.006792 0.118549
Si Si6 0.236059 0.656353 0.374162
O O1 0.790608 0.366430 0.051764
O O2 0.856992 0.433945 0.954353
O O3 0.826016 0.463538 0.312020
O O4 0.803945 0.547399 0.404669
O O5 0.731788 0.125000 0.625000
O O6 0.834867 0.198230 0.568131
O O7 0.754758 0.136018 0.464555
O O8 0.625000 0.780638 0.625000
O O9 0.634902 0.772100 0.786779
O O10 0.767918 0.747783 0.669441
O O11 0.904019 0.945420 0.110948
#
# Coordination Sequence:
#
# PCOD9515599 Si02
#       6
#    16  16  32  32  32  32
#     4  10  25  40  69 100 142 186 244 306 361 438
#     4  10  21  42  68  90 140 198 236 290 387 442
#     4  11  25  38  68 108 145 182 240 310 373 447
#     4  11  24  47  72 101 144 199 253 306 374 450
#     4  10  24  43  74 102 143 193 249 295 384 453
#     4  10  24  42  68 101 141 191 236 303 377 456
#
# _framework density 25.850653000000001
#
# number of rings (size 3 to 8) (size 9 to 14) (size 15 to 20)
#    0.000    1.600    0.000    3.600   19.600    3.200 
#    0.000    0.000    8.800    0.000    0.000    0.000 
#    0.000    0.000    0.000    0.000    0.000    0.000 
#
# Total GULP energy -223338.058132 kJ/mol
# GULP energy per Si atom -5583.451453 kJ/mol
# Density = 2.579182 g / cm^3
# Si number density = 25.850653 Si / 1000 Ang^3
#
#
#
# Elastic Constant Matrix: (Units=GPa)
#
#
# Indices 1 2 3 4 5 6 
#
# 1 167.0388 34.1466 57.1462 0.0000 0.0000 0.0000
# 2 34.1466 48.1690 7.0914 0.0000 0.0000 0.0000
# 3 57.1462 7.0914 194.1975 0.0000 0.0000 0.0000
# 4 0.0000 0.0000 0.0000 1.5725 0.0000 0.0000
# 5 0.0000 0.0000 0.0000 0.0000 42.2691 0.0000
# 6 0.0000 0.0000 0.0000 0.0000 0.0000 26.6785
#
#
#
# Elastic Compliance Matrix: (Units=1/GPa)
#
#
# Indices 1 2 3 4 5 6 
#
# 1 0.007766 -0.005197 -0.002095 0.000000 0.000000 0.000000
# 2 -0.005197 0.024350 0.000640 0.000000 0.000000 0.000000
# 3 -0.002095 0.000640 0.005743 0.000000 0.000000 0.000000
# 4 0.000000 0.000000 0.000000 0.635934 0.000000 0.000000
# 5 0.000000 0.000000 0.000000 0.000000 0.023658 0.000000
# 6 0.000000 0.000000 0.000000 0.000000 0.000000 0.037483
#
#
# Mechanical properties :
#
#
# Convention : Reuss Voigt Hill
#
# Bulk Modulus (GPa) = 40.72625 67.35265 54.03945
# Shear Modulus (GPa) = 6.61006 34.83875 20.72440
#
# Velocity S-wave (km/s) = 1.60080 3.67508 2.83450
# Velocity P-wave (km/s) = 4.38240 6.64224 5.62693
#
# Compressibility (1/GPa) = 0.02455419
#
# Stress axis : x y z
#
# Youngs Moduli (GPa) = 128.76911 41.06798 174.13539
#
# Poissons Ratio (x) = 0.21342 0.36490
# Poissons Ratio (y) = 0.66917 -0.11145
# Poissons Ratio (z) = 0.26983 -0.02628
#
# Static dielectric constant tensor:
#      x y z
#    x 2.156500 0.000000 0.000000 
#    y 0.000000 2.088960 0.000000 
#    z 0.000000 0.000000 2.191210 
# 
# From -- ./inp_files/34011.got.cif
#   From: 2010.05.17/outbox.cif.g08.bks.cpg/sg70_18_cif.got.tgz:34011.got - 2010.06.03 15:57:51.
