data_PCOD9515753
_publ_section_title
;
Structure prediction by ZEFSAII (Michael W. Deem and Ramdas Pophale) SiO2 
 PCOD9515753
Probable space group: F D D D
;
_chemical_formula_sum "Si O2"
_cell_formula_units_Z 168
_cell_length_a 18.524728
_cell_length_b 15.417060
_cell_length_c 32.459150
_cell_angle_alpha 90.000000
_cell_angle_beta 90.000000
_cell_angle_gamma 90.000000
_cell_volume 9270.230768
_symmetry_space_group_name_H-M "F D D D"
_symmetry_group_IT_number 70
_space_group.IT_coordinate_system_code '2'
_symmetry_cell_setting 'orthorhombic'
loop_
_space_group_symop_operation_xyz
x,y,z
1/4-x,1/4-y,z
x,1/4-y,1/4-z
1/4-x,y,1/4-z
-x,-y,-z
3/4+x,3/4+y,-z
-x,3/4+y,3/4+z
3/4+x,-y,3/4+z
x,1/2+y,1/2+z
1/4-x,3/4-y,1/2+z
x,3/4-y,3/4-z
1/4-x,1/2+y,3/4-z
-x,1/2-y,1/2-z
3/4+x,1/4+y,1/2-z
-x,1/4+y,1/4+z
3/4+x,1/2-y,1/4+z
1/2+x,y,1/2+z
3/4-x,1/4-y,1/2+z
1/2+x,1/4-y,3/4-z
3/4-x,y,3/4-z
1/2-x,-y,1/2-z
1/4+x,3/4+y,1/2-z
1/2-x,3/4+y,1/4+z
1/4+x,-y,1/4+z
1/2+x,1/2+y,z
3/4-x,3/4-y,z
1/2+x,3/4-y,1/4-z
3/4-x,1/2+y,1/4-z
1/2-x,1/2-y,-z
1/4+x,1/4+y,-z
1/2-x,1/4+y,3/4+z
1/4+x,1/2-y,3/4+z
loop_
_atom_site_type_symbol
_atom_site_label
_atom_site_fract_x
_atom_site_fract_y
_atom_site_fract_z
Si Si1 0.101243 0.026603 0.467344
Si Si2 0.685366 0.556112 0.227956
Si Si3 0.715502 0.422061 0.418453
Si Si4 0.686115 0.996451 0.190746
Si Si5 0.661497 0.947912 0.582527
Si Si6 0.125000 0.625000 0.125000
O O1 0.125000 0.125000 0.456735
O O2 0.019265 0.012329 0.453476
O O3 0.147290 0.951519 0.445202
O O4 0.105945 0.017361 0.516881
O O5 0.625000 0.625000 0.247857
O O6 0.750000 0.500000 0.250000
O O7 0.730029 0.611725 0.194444
O O8 0.633320 0.488756 0.204882
O O9 0.699627 0.375000 0.375000
O O10 0.759335 0.511678 0.413880
O O11 0.661990 0.904113 0.173385
O O12 0.672600 0.066530 0.155489
O O13 0.625000 0.974309 0.625000
#
# Coordination Sequence:
#
# PCOD9515753 Si02
#       6
#    32  32  32  32  32   8
#     4  11  23  42  62  87 124 170 206 259 322 379
#     4  10  22  39  62  93 128 162 209 264 327 378
#     4  11  22  39  64  92 122 162 214 254 311 391
#     4  11  24  41  63  90 125 164 215 257 324 378
#     4  11  20  38  65  88 120 164 201 256 315 384
#     4  12  24  40  64  96 122 164 218 276 300 408
#
# _framework density 18.122526000000001
#
# number of rings (size 3 to 8) (size 9 to 14) (size 15 to 20)
#    0.000    1.143    5.714    1.143    1.333    0.000 
#    0.000    2.857    0.000    0.000    0.000    0.000 
#    0.000    0.000    0.000    0.000    0.000    0.000 
#
# Total GULP energy -233986.836258 kJ/mol
# GULP energy per Si atom -5571.115149 kJ/mol
# Density = 1.808128 g / cm^3
# Si number density = 18.122526 Si / 1000 Ang^3
#
#
#
# Elastic Constant Matrix: (Units=GPa)
#
#
# Indices 1 2 3 4 5 6 
#
# 1 70.3567 23.4434 35.2644 0.0000 0.0000 0.0000
# 2 23.4434 106.9959 39.6270 0.0000 0.0000 0.0000
# 3 35.2644 39.6270 96.6195 0.0000 0.0000 0.0000
# 4 0.0000 0.0000 0.0000 30.9473 0.0000 0.0000
# 5 0.0000 0.0000 0.0000 0.0000 22.3950 0.0000
# 6 0.0000 0.0000 0.0000 0.0000 0.0000 19.1412
#
#
#
# Elastic Compliance Matrix: (Units=1/GPa)
#
#
# Indices 1 2 3 4 5 6 
#
# 1 0.017669 -0.001749 -0.005732 0.000000 0.000000 0.000000
# 2 -0.001749 0.011193 -0.003952 0.000000 0.000000 0.000000
# 3 -0.005732 -0.003952 0.014063 0.000000 0.000000 0.000000
# 4 0.000000 0.000000 0.000000 0.032313 0.000000 0.000000
# 5 0.000000 0.000000 0.000000 0.000000 0.044653 0.000000
# 6 0.000000 0.000000 0.000000 0.000000 0.000000 0.052243
#
#
# Mechanical properties :
#
#
# Convention : Reuss Voigt Hill
#
# Bulk Modulus (GPa) = 49.85200 52.29351 51.07275
# Shear Modulus (GPa) = 24.79106 26.20586 25.49846
#
# Velocity S-wave (km/s) = 3.70262 3.80681 3.75507
# Velocity P-wave (km/s) = 6.77106 6.94554 6.85885
#
# Compressibility (1/GPa) = 0.02005938
#
# Stress axis : x y z
#
# Youngs Moduli (GPa) = 56.59707 89.34064 71.10920
#
# Poissons Ratio (x) = 0.15622 0.40757
# Poissons Ratio (y) = 0.09896 0.28106
# Poissons Ratio (z) = 0.32439 0.35312
#
# Static dielectric constant tensor:
#      x y z
#    x 1.672710 0.000000 0.000000 
#    y 0.000000 1.627710 0.000000 
#    z 0.000000 0.000000 1.641940 
# 
# From -- ./inp_files/29831.got.cif
#   From: 2010.05.17/outbox.cif.g08.bks.cpg/sg70_15_cif.got.tgz:29831.got - 2010.06.03 15:57:51.
