data_PCOD9515909
_publ_section_title
;
Structure prediction by ZEFSAII (Michael W. Deem and Ramdas Pophale) SiO2 
 PCOD9515909
Probable space group: F D D D
;
_chemical_formula_sum "Si O2"
_cell_formula_units_Z 160
_cell_length_a 29.272257
_cell_length_b 13.864254
_cell_length_c 19.067056
_cell_angle_alpha 90.000000
_cell_angle_beta 90.000000
_cell_angle_gamma 90.000000
_cell_volume 7738.135991
_symmetry_space_group_name_H-M "F D D D"
_symmetry_group_IT_number 70
_space_group.IT_coordinate_system_code '2'
_symmetry_cell_setting 'orthorhombic'
loop_
_space_group_symop_operation_xyz
x,y,z
1/4-x,1/4-y,z
x,1/4-y,1/4-z
1/4-x,y,1/4-z
-x,-y,-z
3/4+x,3/4+y,-z
-x,3/4+y,3/4+z
3/4+x,-y,3/4+z
x,1/2+y,1/2+z
1/4-x,3/4-y,1/2+z
x,3/4-y,3/4-z
1/4-x,1/2+y,3/4-z
-x,1/2-y,1/2-z
3/4+x,1/4+y,1/2-z
-x,1/4+y,1/4+z
3/4+x,1/2-y,1/4+z
1/2+x,y,1/2+z
3/4-x,1/4-y,1/2+z
1/2+x,1/4-y,3/4-z
3/4-x,y,3/4-z
1/2-x,-y,1/2-z
1/4+x,3/4+y,1/2-z
1/2-x,3/4+y,1/4+z
1/4+x,-y,1/4+z
1/2+x,1/2+y,z
3/4-x,3/4-y,z
1/2+x,3/4-y,1/4-z
3/4-x,1/2+y,1/4-z
1/2-x,1/2-y,-z
1/4+x,1/4+y,-z
1/2-x,1/4+y,3/4+z
1/4+x,1/2-y,3/4+z
loop_
_atom_site_type_symbol
_atom_site_label
_atom_site_fract_x
_atom_site_fract_y
_atom_site_fract_z
Si Si1 0.442314 0.129071 0.856656
Si Si2 0.663045 0.375000 0.875000
Si Si3 0.870166 0.565563 0.768043
Si Si4 0.125000 0.125000 0.801575
Si Si5 0.427746 0.840187 0.301225
Si Si6 0.546188 0.662695 0.899175
O O1 0.413106 0.120657 0.928075
O O2 0.418948 0.052346 0.804840
O O3 0.432270 0.226035 0.812415
O O4 0.494762 0.111686 0.871888
O O5 0.631980 0.381163 0.805966
O O6 0.691783 0.474241 0.884971
O O7 0.855477 0.458559 0.747325
O O8 0.083318 0.101573 0.854521
O O9 0.448799 0.875000 0.375000
O O10 0.375000 0.875000 0.299664
O O11 0.449162 0.883108 0.230873
#
# Coordination Sequence:
#
# PCOD9515909 Si02
#       6
#    32  16  32  16  32  32
#     4  11  24  40  64  97 130 171 226 278 346 412
#     4  10  22  42  68  87 128 177 218 268 340 420
#     4  10  23  42  62  92 127 174 220 277 338 410
#     4  10  24  41  65  92 134 178 226 284 338 409
#     4  11  21  39  66  92 131 170 215 277 342 409
#     4  11  23  41  64  97 131 172 226 280 347 410
#
# _framework density 20.676814
#
# number of rings (size 3 to 8) (size 9 to 14) (size 15 to 20)
#    0.000    1.400    1.000    5.400    2.800    9.600 
#    1.800    0.000    0.000    0.000    0.000    0.000 
#    0.000    0.000    0.000    0.000    0.000    0.000 
#
# Total GULP energy -222962.787304 kJ/mol
# GULP energy per Si atom -5574.069683 kJ/mol
# Density = 2.062975 g / cm^3
# Si number density = 20.676814 Si / 1000 Ang^3
#
#
#
# Elastic Constant Matrix: (Units=GPa)
#
#
# Indices 1 2 3 4 5 6 
#
# 1 117.7615 -3.9743 34.6647 0.0000 0.0000 0.0000
# 2 -3.9743 58.8897 23.9647 0.0000 0.0000 0.0000
# 3 34.6647 23.9647 130.8704 0.0000 0.0000 0.0000
# 4 0.0000 0.0000 0.0000 33.4056 0.0000 0.0000
# 5 0.0000 0.0000 0.0000 0.0000 17.4567 0.0000
# 6 0.0000 0.0000 0.0000 0.0000 0.0000 16.7411
#
#
#
# Elastic Compliance Matrix: (Units=1/GPa)
#
#
# Indices 1 2 3 4 5 6 
#
# 1 0.009379 0.001776 -0.002809 0.000000 0.000000 0.000000
# 2 0.001776 0.018685 -0.003892 0.000000 0.000000 0.000000
# 3 -0.002809 -0.003892 0.009098 0.000000 0.000000 0.000000
# 4 0.000000 0.000000 0.000000 0.029935 0.000000 0.000000
# 5 0.000000 0.000000 0.000000 0.000000 0.057285 0.000000
# 6 0.000000 0.000000 0.000000 0.000000 0.000000 0.059733
#
#
# Mechanical properties :
#
#
# Convention : Reuss Voigt Hill
#
# Bulk Modulus (GPa) = 36.61543 46.31463 41.46503
# Shear Modulus (GPa) = 24.62226 30.37844 27.50035
#
# Velocity S-wave (km/s) = 3.45456 3.83718 3.65089
# Velocity P-wave (km/s) = 5.80163 6.48690 6.15381
#
# Compressibility (1/GPa) = 0.02731089
#
# Stress axis : x y z
#
# Youngs Moduli (GPa) = 106.62467 53.52003 109.91424
#
# Poissons Ratio (x) = -0.09506 0.30880
# Poissons Ratio (y) = -0.18939 0.42778
# Poissons Ratio (z) = 0.29956 0.20830
#
# Static dielectric constant tensor:
#      x y z
#    x 1.738670 0.000000 0.000000 
#    y 0.000000 1.905270 0.000000 
#    z 0.000000 0.000000 1.752470 
# 
# From -- ./inp_files/39536.got.cif
#   From: 2010.05.17/outbox.cif.g08.bks.cpg/sg70_20_cif.got.tgz:39536.got - 2010.06.03 15:57:51.
