data_PCOD9515174
_publ_section_title
;
Structure prediction by ZEFSAII (Michael W. Deem and Ramdas Pophale) SiO2 
 PCOD9515174
Probable space group: F D D D
;
_chemical_formula_sum "Si O2"
_cell_formula_units_Z 192
_cell_length_a 26.879376
_cell_length_b 18.278699
_cell_length_c 16.288624
_cell_angle_alpha 90.000000
_cell_angle_beta 90.000000
_cell_angle_gamma 90.000000
_cell_volume 8002.927122
_symmetry_space_group_name_H-M "F D D D"
_symmetry_group_IT_number 70
_space_group.IT_coordinate_system_code '2'
_symmetry_cell_setting 'orthorhombic'
loop_
_space_group_symop_operation_xyz
x,y,z
1/4-x,1/4-y,z
x,1/4-y,1/4-z
1/4-x,y,1/4-z
-x,-y,-z
3/4+x,3/4+y,-z
-x,3/4+y,3/4+z
3/4+x,-y,3/4+z
x,1/2+y,1/2+z
1/4-x,3/4-y,1/2+z
x,3/4-y,3/4-z
1/4-x,1/2+y,3/4-z
-x,1/2-y,1/2-z
3/4+x,1/4+y,1/2-z
-x,1/4+y,1/4+z
3/4+x,1/2-y,1/4+z
1/2+x,y,1/2+z
3/4-x,1/4-y,1/2+z
1/2+x,1/4-y,3/4-z
3/4-x,y,3/4-z
1/2-x,-y,1/2-z
1/4+x,3/4+y,1/2-z
1/2-x,3/4+y,1/4+z
1/4+x,-y,1/4+z
1/2+x,1/2+y,z
3/4-x,3/4-y,z
1/2+x,3/4-y,1/4-z
3/4-x,1/2+y,1/4-z
1/2-x,1/2-y,-z
1/4+x,1/4+y,-z
1/2-x,1/4+y,3/4+z
1/4+x,1/2-y,3/4+z
loop_
_atom_site_type_symbol
_atom_site_label
_atom_site_fract_x
_atom_site_fract_y
_atom_site_fract_z
Si Si1 0.444710 0.977898 0.326109
Si Si2 0.189928 0.755710 0.488942
Si Si3 0.784544 0.625000 0.125000
Si Si4 0.813660 0.124619 0.026622
Si Si5 0.797055 0.374265 0.775322
Si Si6 0.625000 0.625000 0.271982
Si Si7 0.122571 0.741988 0.026357
O O1 0.498557 0.938301 0.337460
O O2 0.414353 0.913423 0.285874
O O3 0.425612 0.003108 0.415403
O O4 0.436267 0.044332 0.263228
O O5 0.250000 0.750000 0.500000
O O6 0.183325 0.831239 0.441258
O O7 0.159276 0.691267 0.441912
O O8 0.813935 0.125000 0.125000
O O9 0.757715 0.147425 0.997840
O O10 0.856268 0.179856 0.998369
O O11 0.796698 0.375000 0.875000
O O12 0.836475 0.433735 0.745006
O O13 0.819325 0.294039 0.753467
O O14 0.125000 0.740103 0.125000
#
# Coordination Sequence:
#
# PCOD9515174 Si02
#       7
#    32  32  16  32  32  16  32
#     4  11  22  42  71 100 139 188 239 294 362 428
#     4  10  20  41  73 107 138 183 241 299 364 430
#     4  10  22  47  70 112 142 182 244 304 367 428
#     4  11  24  43  63 105 140 179 234 291 353 425
#     4   8  17  39  68  94 133 176 224 282 338 423
#     4  12  21  44  76 102 140 191 242 293 356 442
#     4   9  18  39  69  99 127 180 233 276 345 415
#
# _framework density 23.991222
#
# number of rings (size 3 to 8) (size 9 to 14) (size 15 to 20)
#    0.000    2.000    3.333    2.500    0.000    1.333 
#   16.500    3.333    0.000    0.000    0.000    0.000 
#    0.000    0.000    0.000    0.000    0.000    0.000 
#
# Total GULP energy -267777.045949 kJ/mol
# GULP energy per Si atom -5578.688457 kJ/mol
# Density = 2.393662 g / cm^3
# Si number density = 23.991222 Si / 1000 Ang^3
#
#
#
# Elastic Constant Matrix: (Units=GPa)
#
#
# Indices 1 2 3 4 5 6 
#
# 1 107.1373 67.2016 11.7574 0.0000 0.0000 0.0000
# 2 67.2016 184.5925 61.7770 0.0000 0.0000 0.0000
# 3 11.7574 61.7770 68.8925 0.0000 0.0000 0.0000
# 4 0.0000 0.0000 0.0000 33.6112 0.0000 0.0000
# 5 0.0000 0.0000 0.0000 0.0000 -4.4424 0.0000
# 6 0.0000 0.0000 0.0000 0.0000 0.0000 57.7765
#
#
#
# Elastic Compliance Matrix: (Units=1/GPa)
#
#
# Indices 1 2 3 4 5 6 
#
# 1 0.012456 -0.005462 0.002773 0.000000 0.000000 0.000000
# 2 -0.005462 0.010136 -0.008157 0.000000 0.000000 0.000000
# 3 0.002773 -0.008157 0.021356 0.000000 0.000000 0.000000
# 4 0.000000 0.000000 0.000000 0.029752 0.000000 0.000000
# 5 0.000000 0.000000 0.000000 0.000000 -0.225102 0.000000
# 6 0.000000 0.000000 0.000000 0.000000 0.000000 0.017308
#
#
# Mechanical properties :
#
#
# Convention : Reuss Voigt Hill
#
# Bulk Modulus (GPa) = 44.93405 71.34381 58.13893
# Shear Modulus (GPa) = -47.62684 32.04815 -7.78934
#
# Velocity S-wave (km/s) = -4.46037 3.65886 -1.80383
# Velocity P-wave (km/s) = 2.78504 6.90302 4.46628
#
# Compressibility (1/GPa) = 0.02225484
#
# Stress axis : x y z
#
# Youngs Moduli (GPa) = 80.28337 98.66090 46.82444
#
# Poissons Ratio (x) = 0.53893 -0.12982
# Poissons Ratio (y) = 0.43855 0.38193
# Poissons Ratio (z) = -0.22259 0.80474
#
# Static dielectric constant tensor:
#      x y z
#    x 2.059130 0.000000 0.000000 
#    y 0.000000 1.954550 0.000000 
#    z 0.000000 0.000000 1.909090 
# 
# From -- ./inp_files/39753.got.cif
#   From: 2010.05.17/outbox.cif.g08.bks.cpg/sg70_20_cif.got.tgz:39753.got - 2010.06.03 15:57:51.
