data_PCOD9515703
_publ_section_title
;
Structure prediction by ZEFSAII (Michael W. Deem and Ramdas Pophale) SiO2 
 PCOD9515703
Probable space group: F D D D
;
_chemical_formula_sum "Si O2"
_cell_formula_units_Z 96
_cell_length_a 9.266198
_cell_length_b 25.727495
_cell_length_c 16.808435
_cell_angle_alpha 90.000000
_cell_angle_beta 90.000000
_cell_angle_gamma 90.000000
_cell_volume 4007.064724
_symmetry_space_group_name_H-M "F D D D"
_symmetry_group_IT_number 70
_space_group.IT_coordinate_system_code '2'
_symmetry_cell_setting 'orthorhombic'
loop_
_space_group_symop_operation_xyz
x,y,z
1/4-x,1/4-y,z
x,1/4-y,1/4-z
1/4-x,y,1/4-z
-x,-y,-z
3/4+x,3/4+y,-z
-x,3/4+y,3/4+z
3/4+x,-y,3/4+z
x,1/2+y,1/2+z
1/4-x,3/4-y,1/2+z
x,3/4-y,3/4-z
1/4-x,1/2+y,3/4-z
-x,1/2-y,1/2-z
3/4+x,1/4+y,1/2-z
-x,1/4+y,1/4+z
3/4+x,1/2-y,1/4+z
1/2+x,y,1/2+z
3/4-x,1/4-y,1/2+z
1/2+x,1/4-y,3/4-z
3/4-x,y,3/4-z
1/2-x,-y,1/2-z
1/4+x,3/4+y,1/2-z
1/2-x,3/4+y,1/4+z
1/4+x,-y,1/4+z
1/2+x,1/2+y,z
3/4-x,3/4-y,z
1/2+x,3/4-y,1/4-z
3/4-x,1/2+y,1/4-z
1/2-x,1/2-y,-z
1/4+x,1/4+y,-z
1/2-x,1/4+y,3/4+z
1/4+x,1/2-y,3/4+z
loop_
_atom_site_type_symbol
_atom_site_label
_atom_site_fract_x
_atom_site_fract_y
_atom_site_fract_z
Si Si1 0.875000 0.875000 0.006766
Si Si2 0.582808 0.012138 0.747029
Si Si3 0.185068 0.716984 0.928380
Si Si4 0.125000 0.875849 0.625000
O O1 0.931783 0.822155 0.966325
O O2 0.742776 0.854901 0.062355
O O3 0.535320 0.011778 0.839695
O O4 0.750000 0.000000 0.750000
O O5 0.485715 0.972630 0.696219
O O6 0.266185 0.662125 0.927525
O O7 0.250000 0.750000 0.000000
#
# Coordination Sequence:
#
# PCOD9515703 Si02
#       4
#    16  32  32  16
#     4  10  22  38  61  92 123 168 214 252 310 402
#     4  11  24  39  65  93 126 164 212 259 321 375
#     4  11  19  41  61  92 120 165 206 256 313 378
#     4  10  22  36  66  92 127 165 218 258 312 392
#
# _framework density 23.957685999999999
#
# number of rings (size 3 to 8) (size 9 to 14) (size 15 to 20)
#    0.000    1.333    6.667    1.000    9.333    0.000 
#    0.000    3.333    0.000    0.000    0.000    0.000 
#    0.000    0.000    0.000    0.000    0.000    0.000 
#
# Total GULP energy -133885.639085 kJ/mol
# GULP energy per Si atom -5578.568295 kJ/mol
# Density = 2.390316 g / cm^3
# Si number density = 23.957686 Si / 1000 Ang^3
#
#
#
# Elastic Constant Matrix: (Units=GPa)
#
#
# Indices 1 2 3 4 5 6 
#
# 1 165.3351 17.7909 6.1162 0.0000 0.0000 0.0000
# 2 17.7909 77.3971 5.4536 0.0000 0.0000 0.0000
# 3 6.1162 5.4536 95.7047 0.0000 0.0000 0.0000
# 4 0.0000 0.0000 0.0000 19.8861 0.0000 0.0000
# 5 0.0000 0.0000 0.0000 0.0000 48.7243 0.0000
# 6 0.0000 0.0000 0.0000 0.0000 0.0000 51.8188
#
#
#
# Elastic Compliance Matrix: (Units=1/GPa)
#
#
# Indices 1 2 3 4 5 6 
#
# 1 0.006211 -0.001405 -0.000317 0.000000 0.000000 0.000000
# 2 -0.001405 0.013290 -0.000668 0.000000 0.000000 0.000000
# 3 -0.000317 -0.000668 0.010507 0.000000 0.000000 0.000000
# 4 0.000000 0.000000 0.000000 0.050286 0.000000 0.000000
# 5 0.000000 0.000000 0.000000 0.000000 0.020524 0.000000
# 6 0.000000 0.000000 0.000000 0.000000 0.000000 0.019298
#
#
# Mechanical properties :
#
#
# Convention : Reuss Voigt Hill
#
# Bulk Modulus (GPa) = 39.63658 44.12872 41.88265
# Shear Modulus (GPa) = 37.50765 44.69094 41.09930
#
# Velocity S-wave (km/s) = 3.96103 4.32373 4.14635
# Velocity P-wave (km/s) = 6.12373 6.58677 6.35947
#
# Compressibility (1/GPa) = 0.02522922
#
# Stress axis : x y z
#
# Youngs Moduli (GPa) = 160.99757 75.24186 95.17383
#
# Poissons Ratio (x) = 0.10575 0.03016
# Poissons Ratio (y) = 0.22627 0.06353
# Poissons Ratio (z) = 0.05101 0.05023
#
# Static dielectric constant tensor:
#      x y z
#    x 2.066010 0.000000 0.000000 
#    y 0.000000 1.990520 0.000000 
#    z 0.000000 0.000000 1.912320 
# 
# From -- ./inp_files/10550.got.cif
#   From: 2010.05.17/outbox.cif.g08.bks.cpg/sg70_6_cif.got.tgz:10550.got - 2010.06.03 15:57:51.
