data_PCOD9515554
_publ_section_title
;
Structure prediction by ZEFSAII (Michael W. Deem and Ramdas Pophale) SiO2 
 PCOD9515554
Probable space group: F D D D
;
_chemical_formula_sum "Si O2"
_cell_formula_units_Z 160
_cell_length_a 26.129463
_cell_length_b 11.084499
_cell_length_c 21.719388
_cell_angle_alpha 90.000000
_cell_angle_beta 90.000000
_cell_angle_gamma 90.000000
_cell_volume 6290.629926
_symmetry_space_group_name_H-M "F D D D"
_symmetry_group_IT_number 70
_space_group.IT_coordinate_system_code '2'
_symmetry_cell_setting 'orthorhombic'
loop_
_space_group_symop_operation_xyz
x,y,z
1/4-x,1/4-y,z
x,1/4-y,1/4-z
1/4-x,y,1/4-z
-x,-y,-z
3/4+x,3/4+y,-z
-x,3/4+y,3/4+z
3/4+x,-y,3/4+z
x,1/2+y,1/2+z
1/4-x,3/4-y,1/2+z
x,3/4-y,3/4-z
1/4-x,1/2+y,3/4-z
-x,1/2-y,1/2-z
3/4+x,1/4+y,1/2-z
-x,1/4+y,1/4+z
3/4+x,1/2-y,1/4+z
1/2+x,y,1/2+z
3/4-x,1/4-y,1/2+z
1/2+x,1/4-y,3/4-z
3/4-x,y,3/4-z
1/2-x,-y,1/2-z
1/4+x,3/4+y,1/2-z
1/2-x,3/4+y,1/4+z
1/4+x,-y,1/4+z
1/2+x,1/2+y,z
3/4-x,3/4-y,z
1/2+x,3/4-y,1/4-z
3/4-x,1/2+y,1/4-z
1/2-x,1/2-y,-z
1/4+x,1/4+y,-z
1/2-x,1/4+y,3/4+z
1/4+x,1/2-y,3/4+z
loop_
_atom_site_type_symbol
_atom_site_label
_atom_site_fract_x
_atom_site_fract_y
_atom_site_fract_z
Si Si1 0.465381 0.717937 0.345674
Si Si2 0.296930 0.532977 0.977902
Si Si3 0.349870 0.261752 0.524278
Si Si4 0.550838 0.374232 0.782780
Si Si5 0.539908 0.234311 0.390281
O O1 0.437781 0.757524 0.408726
O O2 0.438533 0.701993 0.280080
O O3 0.517423 0.790423 0.327775
O O4 0.486702 0.585403 0.360664
O O5 0.237763 0.487278 0.979548
O O6 0.311963 0.672806 0.987443
O O7 0.315102 0.472668 0.042047
O O8 0.375000 0.375000 0.489097
O O9 0.395001 0.176515 0.550141
O O10 0.322453 0.314380 0.584048
O O11 0.532853 0.375000 0.375000
#
# Coordination Sequence:
#
# PCOD9515554 Si02
#       5
#    32  32  32  32  32
#     4  10  21  41  67  94 131 176 220 278 347 412
#     4  10  22  39  62  95 131 169 221 279 337 402
#     4  11  24  41  66  97 132 178 228 283 346 418
#     4  10  23  43  67  95 131 175 224 277 344 418
#     4   9  21  37  58  93 129 170 223 276 335 405
#
# _framework density 25.434653999999998
#
# number of rings (size 3 to 8) (size 9 to 14) (size 15 to 20)
#    0.000    2.000    0.000    1.800    0.000   19.200 
#    0.000   13.000    0.000    9.600    0.000    0.000 
#    0.000    0.000    0.000    0.000    0.000    0.000 
#
# Total GULP energy -223110.296523 kJ/mol
# GULP energy per Si atom -5577.757413 kJ/mol
# Density = 2.537676 g / cm^3
# Si number density = 25.434654 Si / 1000 Ang^3
#
#
#
# Elastic Constant Matrix: (Units=GPa)
#
#
# Indices 1 2 3 4 5 6 
#
# 1 24.2585 21.1390 8.4338 0.0000 0.0000 0.0000
# 2 21.1390 91.3412 41.4876 0.0000 0.0000 0.0000
# 3 8.4338 41.4876 196.8158 0.0000 0.0000 0.0000
# 4 0.0000 0.0000 0.0000 26.0123 0.0000 0.0000
# 5 0.0000 0.0000 0.0000 0.0000 2.2311 0.0000
# 6 0.0000 0.0000 0.0000 0.0000 0.0000 51.2616
#
#
#
# Elastic Compliance Matrix: (Units=1/GPa)
#
#
# Indices 1 2 3 4 5 6 
#
# 1 0.051656 -0.012109 0.000339 0.000000 0.000000 0.000000
# 2 -0.012109 0.014946 -0.002632 0.000000 0.000000 0.000000
# 3 0.000339 -0.002632 0.005621 0.000000 0.000000 0.000000
# 4 0.000000 0.000000 0.000000 0.038443 0.000000 0.000000
# 5 0.000000 0.000000 0.000000 0.000000 0.448215 0.000000
# 6 0.000000 0.000000 0.000000 0.000000 0.000000 0.019508
#
#
# Mechanical properties :
#
#
# Convention : Reuss Voigt Hill
#
# Bulk Modulus (GPa) = 23.03068 50.50401 36.76735
# Shear Modulus (GPa) = 8.04292 31.99134 20.01713
#
# Velocity S-wave (km/s) = 1.78018 3.55037 2.80840
# Velocity P-wave (km/s) = 3.64690 6.05858 5.00031
#
# Compressibility (1/GPa) = 0.04342034
#
# Stress axis : x y z
#
# Youngs Moduli (GPa) = 19.35867 66.90962 177.90156
#
# Poissons Ratio (x) = 0.81019 -0.06029
# Poissons Ratio (y) = 0.23441 0.46816
# Poissons Ratio (z) = -0.00656 0.17608
#
# Static dielectric constant tensor:
#      x y z
#    x 1.970470 0.000000 0.000000 
#    y 0.000000 2.104820 0.000000 
#    z 0.000000 0.000000 2.105200 
# 
# From -- ./inp_files/54873.got.cif
#   From: 2010.05.17/outbox.cif.g08.bks.cpg/sg70_28_cif.got.tgz:54873.got - 2010.06.03 15:57:51.
