data_PCOD9515745
_publ_section_title
;
Structure prediction by ZEFSAII (Michael W. Deem and Ramdas Pophale) SiO2 
 PCOD9515745
Probable space group: F D D D
;
_chemical_formula_sum "Si O2"
_cell_formula_units_Z 192
_cell_length_a 24.095445
_cell_length_b 14.626988
_cell_length_c 21.565032
_cell_angle_alpha 90.000000
_cell_angle_beta 90.000000
_cell_angle_gamma 90.000000
_cell_volume 7600.461499
_symmetry_space_group_name_H-M "F D D D"
_symmetry_group_IT_number 70
_space_group.IT_coordinate_system_code '2'
_symmetry_cell_setting 'orthorhombic'
loop_
_space_group_symop_operation_xyz
x,y,z
1/4-x,1/4-y,z
x,1/4-y,1/4-z
1/4-x,y,1/4-z
-x,-y,-z
3/4+x,3/4+y,-z
-x,3/4+y,3/4+z
3/4+x,-y,3/4+z
x,1/2+y,1/2+z
1/4-x,3/4-y,1/2+z
x,3/4-y,3/4-z
1/4-x,1/2+y,3/4-z
-x,1/2-y,1/2-z
3/4+x,1/4+y,1/2-z
-x,1/4+y,1/4+z
3/4+x,1/2-y,1/4+z
1/2+x,y,1/2+z
3/4-x,1/4-y,1/2+z
1/2+x,1/4-y,3/4-z
3/4-x,y,3/4-z
1/2-x,-y,1/2-z
1/4+x,3/4+y,1/2-z
1/2-x,3/4+y,1/4+z
1/4+x,-y,1/4+z
1/2+x,1/2+y,z
3/4-x,3/4-y,z
1/2+x,3/4-y,1/4-z
3/4-x,1/2+y,1/4-z
1/2-x,1/2-y,-z
1/4+x,1/4+y,-z
1/2-x,1/4+y,3/4+z
1/4+x,1/2-y,3/4+z
loop_
_atom_site_type_symbol
_atom_site_label
_atom_site_fract_x
_atom_site_fract_y
_atom_site_fract_z
Si Si1 0.375000 0.875000 0.474998
Si Si2 0.670272 0.899866 0.072214
Si Si3 0.147015 0.977971 0.364401
Si Si4 0.974842 0.842830 0.446008
Si Si5 0.875000 0.375000 0.719827
Si Si6 0.725405 0.206944 0.578180
Si Si7 0.839534 0.049137 0.001595
O O1 0.309572 0.831355 0.481416
O O2 0.398286 0.776146 0.449604
O O3 0.625000 0.920279 0.125000
O O4 0.705564 0.810734 0.088958
O O5 0.706721 0.987608 0.059488
O O6 0.634470 0.875960 0.011537
O O7 0.124523 0.875000 0.375000
O O8 0.208191 0.964496 0.336810
O O9 0.106756 0.015883 0.309965
O O10 0.142592 0.043108 0.423465
O O11 0.982172 0.875000 0.375000
O O12 0.926611 0.894515 0.484157
O O13 0.030698 0.842284 0.486256
O O14 0.712529 0.125000 0.625000
#
# Coordination Sequence:
#
# PCOD9515745 Si02
#       7
#    16  32  32  32  16  32  32
#     4  10  22  38  72 110 158 196 244 304 398 468
#     4  11  25  45  77 114 159 206 262 317 394 469
#     4  11  26  45  74 111 156 203 264 320 395 468
#     4  12  29  52  79 110 155 209 272 331 386 472
#     4  12  28  50  80 110 151 208 261 332 404 464
#     4  10  22  41  72 112 159 197 246 320 386 473
#     4  11  26  45  74 116 155 203 258 323 394 471
#
# _framework density 25.261623
#
# number of rings (size 3 to 8) (size 9 to 14) (size 15 to 20)
#    0.000    1.000    0.000    5.500   14.000    1.333 
#    0.000    5.000    0.000    0.000    0.000    0.000 
#    0.000    0.000    0.000    0.000    0.000    0.000 
#
# Total GULP energy -267365.547420 kJ/mol
# GULP energy per Si atom -5570.115571 kJ/mol
# Density = 2.520413 g / cm^3
# Si number density = 25.261623 Si / 1000 Ang^3
#
#
#
# Elastic Constant Matrix: (Units=GPa)
#
#
# Indices 1 2 3 4 5 6 
#
# 1 151.2449 41.9784 45.5448 0.0000 0.0000 0.0000
# 2 41.9784 123.6901 24.2515 0.0000 0.0000 0.0000
# 3 45.5448 24.2515 91.6983 0.0000 0.0000 0.0000
# 4 0.0000 0.0000 0.0000 94.8419 0.0000 0.0000
# 5 0.0000 0.0000 0.0000 0.0000 -338.8440 0.0000
# 6 0.0000 0.0000 0.0000 0.0000 0.0000 -7.5255
#
#
#
# Elastic Compliance Matrix: (Units=1/GPa)
#
#
# Indices 1 2 3 4 5 6 
#
# 1 0.008266 -0.002110 -0.003547 0.000000 0.000000 0.000000
# 2 -0.002110 0.009065 -0.001350 0.000000 0.000000 0.000000
# 3 -0.003547 -0.001350 0.013024 0.000000 0.000000 0.000000
# 4 0.000000 0.000000 0.000000 0.010544 0.000000 0.000000
# 5 0.000000 0.000000 0.000000 0.000000 -0.002951 0.000000
# 6 0.000000 0.000000 0.000000 0.000000 0.000000 -0.132881
#
#
# Mechanical properties :
#
#
# Convention : Reuss Voigt Hill
#
# Bulk Modulus (GPa) = 61.19355 65.57587 63.38471
# Shear Modulus (GPa) = -66.24951 -33.31494 -49.78223
#
# Velocity S-wave (km/s) = -5.12663 -3.63546 -4.44403
# Velocity P-wave (km/s) = 3.28124 2.89705 1.08941
#
# Compressibility (1/GPa) = 0.01634159
#
# Stress axis : x y z
#
# Youngs Moduli (GPa) = 120.98363 110.31034 76.78008
#
# Poissons Ratio (x) = 0.23272 0.27237
# Poissons Ratio (y) = 0.25524 0.10363
# Poissons Ratio (z) = 0.42918 0.14888
#
# Static dielectric constant tensor:
#      x y z
#    x 2.011600 0.000000 0.000000 
#    y 0.000000 1.356600 0.000000 
#    z 0.000000 0.000000 -6.378110 
# 
# From -- ./inp_files/54355.got.cif
#   From: 2010.05.17/outbox.cif.g08.bks.cpg/sg70_28_cif.got.tgz:54355.got - 2010.06.03 15:57:51.
