data_PCOD9515260
_publ_section_title
;
Structure prediction by ZEFSAII (Michael W. Deem and Ramdas Pophale) SiO2 
 PCOD9515260
Probable space group: F D D D
;
_chemical_formula_sum "Si O2"
_cell_formula_units_Z 160
_cell_length_a 31.296741
_cell_length_b 15.580669
_cell_length_c 16.598053
_cell_angle_alpha 90.000000
_cell_angle_beta 90.000000
_cell_angle_gamma 90.000000
_cell_volume 8093.611690
_symmetry_space_group_name_H-M "F D D D"
_symmetry_group_IT_number 70
_space_group.IT_coordinate_system_code '2'
_symmetry_cell_setting 'orthorhombic'
loop_
_space_group_symop_operation_xyz
x,y,z
1/4-x,1/4-y,z
x,1/4-y,1/4-z
1/4-x,y,1/4-z
-x,-y,-z
3/4+x,3/4+y,-z
-x,3/4+y,3/4+z
3/4+x,-y,3/4+z
x,1/2+y,1/2+z
1/4-x,3/4-y,1/2+z
x,3/4-y,3/4-z
1/4-x,1/2+y,3/4-z
-x,1/2-y,1/2-z
3/4+x,1/4+y,1/2-z
-x,1/4+y,1/4+z
3/4+x,1/2-y,1/4+z
1/2+x,y,1/2+z
3/4-x,1/4-y,1/2+z
1/2+x,1/4-y,3/4-z
3/4-x,y,3/4-z
1/2-x,-y,1/2-z
1/4+x,3/4+y,1/2-z
1/2-x,3/4+y,1/4+z
1/4+x,-y,1/4+z
1/2+x,1/2+y,z
3/4-x,3/4-y,z
1/2+x,3/4-y,1/4-z
3/4-x,1/2+y,1/4-z
1/2-x,1/2-y,-z
1/4+x,1/4+y,-z
1/2-x,1/4+y,3/4+z
1/4+x,1/2-y,3/4+z
loop_
_atom_site_type_symbol
_atom_site_label
_atom_site_fract_x
_atom_site_fract_y
_atom_site_fract_z
Si Si1 0.372877 0.067205 0.507059
Si Si2 0.980770 0.836317 0.208884
Si Si3 0.811463 0.612711 0.366725
Si Si4 0.823848 0.446913 0.939931
Si Si5 0.110165 0.505793 0.922106
O O1 0.419728 0.074483 0.466232
O O2 0.337865 0.062372 0.435744
O O3 0.358991 0.157764 0.546690
O O4 0.372972 0.998638 0.578475
O O5 0.970680 0.912259 0.272738
O O6 0.935254 0.802021 0.177973
O O7 0.000000 0.750000 0.250000
O O8 0.012427 0.877259 0.142913
O O9 0.824313 0.713235 0.357158
O O10 0.833882 0.375000 0.875000
O O11 0.855406 0.456404 0.015560
#
# Coordination Sequence:
#
# PCOD9515260 Si02
#       5
#    32  32  32  32  32
#     4   9  19  37  53  73 114 158 202 222 308 360
#     4  12  22  32  54  90 119 148 193 252 307 357
#     4  10  21  35  56  84 111 158 191 251 289 372
#     4  11  22  37  56  87 125 148 192 243 318 361
#     4  10  21  34  54  81 117 157 190 246 295 377
#
# _framework density 19.768678000000001
#
# number of rings (size 3 to 8) (size 9 to 14) (size 15 to 20)
#    0.000    1.600    4.000    0.600    2.800    6.400 
#    0.000    1.000    0.000    0.000    0.000    5.600 
#    0.000    0.000    0.000    0.000    0.000    0.000 
#
# Total GULP energy -222770.552578 kJ/mol
# GULP energy per Si atom -5569.263814 kJ/mol
# Density = 1.972368 g / cm^3
# Si number density = 19.768678 Si / 1000 Ang^3
#
#
#
# Elastic Constant Matrix: (Units=GPa)
#
#
# Indices 1 2 3 4 5 6 
#
# 1 112.8058 12.3770 56.1081 0.0000 0.0000 0.0000
# 2 12.3770 30.6928 28.6646 0.0000 0.0000 0.0000
# 3 56.1081 28.6646 128.5526 0.0000 0.0000 0.0000
# 4 0.0000 0.0000 0.0000 32.4375 0.0000 0.0000
# 5 0.0000 0.0000 0.0000 0.0000 37.1258 0.0000
# 6 0.0000 0.0000 0.0000 0.0000 0.0000 4.2009
#
#
#
# Elastic Compliance Matrix: (Units=1/GPa)
#
#
# Indices 1 2 3 4 5 6 
#
# 1 0.011323 0.000062 -0.004956 0.000000 0.000000 0.000000
# 2 0.000062 0.041151 -0.009203 0.000000 0.000000 0.000000
# 3 -0.004956 -0.009203 0.011994 0.000000 0.000000 0.000000
# 4 0.000000 0.000000 0.000000 0.030829 0.000000 0.000000
# 5 0.000000 0.000000 0.000000 0.000000 0.026935 0.000000
# 6 0.000000 0.000000 0.000000 0.000000 0.000000 0.238045
#
#
# Mechanical properties :
#
#
# Convention : Reuss Voigt Hill
#
# Bulk Modulus (GPa) = 27.56747 51.81673 39.69210
# Shear Modulus (GPa) = 12.48247 26.41292 19.44770
#
# Velocity S-wave (km/s) = 2.51555 3.65924 3.13990
# Velocity P-wave (km/s) = 4.73419 6.64242 5.76777
#
# Compressibility (1/GPa) = 0.03627464
#
# Stress axis : x y z
#
# Youngs Moduli (GPa) = 88.31612 24.30096 83.37446
#
# Poissons Ratio (x) = -0.00152 0.41320
# Poissons Ratio (y) = -0.00552 0.76730
# Poissons Ratio (z) = 0.43769 0.22364
#
# Static dielectric constant tensor:
#      x y z
#    x 1.753740 0.000000 0.000000 
#    y 0.000000 1.732950 0.000000 
#    z 0.000000 0.000000 1.757800 
# 
# From -- ./inp_files/38424.got.cif
#   From: 2010.05.17/outbox.cif.g08.bks.cpg/sg70_20_cif.got.tgz:38424.got - 2010.06.03 15:57:51.
