data_PCOD9515993
_publ_section_title
;
Structure prediction by ZEFSAII (Michael W. Deem and Ramdas Pophale) SiO2 
 PCOD9515993
Probable space group: F D D D
;
_chemical_formula_sum "Si O2"
_cell_formula_units_Z 240
_cell_length_a 25.710831
_cell_length_b 22.597738
_cell_length_c 20.789602
_cell_angle_alpha 90.000000
_cell_angle_beta 90.000000
_cell_angle_gamma 90.000000
_cell_volume 12078.896445
_symmetry_space_group_name_H-M "F D D D"
_symmetry_group_IT_number 70
_space_group.IT_coordinate_system_code '2'
_symmetry_cell_setting 'orthorhombic'
loop_
_space_group_symop_operation_xyz
x,y,z
1/4-x,1/4-y,z
x,1/4-y,1/4-z
1/4-x,y,1/4-z
-x,-y,-z
3/4+x,3/4+y,-z
-x,3/4+y,3/4+z
3/4+x,-y,3/4+z
x,1/2+y,1/2+z
1/4-x,3/4-y,1/2+z
x,3/4-y,3/4-z
1/4-x,1/2+y,3/4-z
-x,1/2-y,1/2-z
3/4+x,1/4+y,1/2-z
-x,1/4+y,1/4+z
3/4+x,1/2-y,1/4+z
1/2+x,y,1/2+z
3/4-x,1/4-y,1/2+z
1/2+x,1/4-y,3/4-z
3/4-x,y,3/4-z
1/2-x,-y,1/2-z
1/4+x,3/4+y,1/2-z
1/2-x,3/4+y,1/4+z
1/4+x,-y,1/4+z
1/2+x,1/2+y,z
3/4-x,3/4-y,z
1/2+x,3/4-y,1/4-z
3/4-x,1/2+y,1/4-z
1/2-x,1/2-y,-z
1/4+x,1/4+y,-z
1/2-x,1/4+y,3/4+z
1/4+x,1/2-y,3/4+z
loop_
_atom_site_type_symbol
_atom_site_label
_atom_site_fract_x
_atom_site_fract_y
_atom_site_fract_z
Si Si1 0.908147 0.315490 0.536467
Si Si2 0.001993 0.099319 0.361486
Si Si3 0.144120 0.848848 0.196258
Si Si4 0.284209 0.560596 0.253214
Si Si5 0.685017 0.187108 0.647021
Si Si6 0.008142 0.014613 0.925034
Si Si7 0.810489 0.125000 0.125000
Si Si8 0.396689 0.051836 0.554593
O O1 0.875000 0.375000 0.538971
O O2 0.942082 0.314487 0.472735
O O3 0.869997 0.261200 0.527079
O O4 0.946668 0.311628 0.596303
O O5 0.951705 0.075072 0.322086
O O6 0.989001 0.097338 0.436711
O O7 0.015289 0.165963 0.337739
O O8 0.125000 0.869529 0.125000
O O9 0.096773 0.809202 0.226949
O O10 0.153794 0.901256 0.247445
O O11 0.250000 0.500000 0.250000
O O12 0.280895 0.595605 0.185429
O O13 0.708918 0.125000 0.625000
O O14 0.625000 0.185724 0.625000
O O15 0.708920 0.244267 0.615141
O O16 0.053354 0.968234 0.904794
O O17 0.000000 0.000000 0.000000
O O18 0.849544 0.075891 0.096753
#
# Coordination Sequence:
#
# PCOD9515993 Si02
#       8
#    32  32  32  32  32  32  16  32
#     4  12  23  40  58  90 131 174 212 255 323 396
#     4  11  23  40  65  94 129 172 217 265 333 396
#     4   9  21  37  65  93 121 164 220 260 323 394
#     4  10  22  44  70  96 128 168 223 292 340 391
#     4  11  24  35  52  85 127 175 210 245 302 376
#     4  12  23  36  61  90 136 175 209 270 311 384
#     4  10  24  42  70  96 122 172 226 280 340 404
#     4  11  23  38  62  89 129 168 211 267 316 384
#
# _framework density 19.869364999999998
#
# number of rings (size 3 to 8) (size 9 to 14) (size 15 to 20)
#    0.000    1.200    4.000    2.400    6.533    1.067 
#    0.000    0.000    0.000    0.000    0.000    0.933 
#    0.000    0.000    0.000    0.000    0.000    0.000 
#
# Total GULP energy -334420.951649 kJ/mol
# GULP energy per Si atom -5573.682527 kJ/mol
# Density = 1.982414 g / cm^3
# Si number density = 19.869365 Si / 1000 Ang^3
#
#
#
# Elastic Constant Matrix: (Units=GPa)
#
#
# Indices 1 2 3 4 5 6 
#
# 1 72.2782 34.1173 27.8408 0.0000 0.0000 0.0000
# 2 34.1173 73.2195 13.1094 0.0000 0.0000 0.0000
# 3 27.8408 13.1094 107.8745 0.0000 0.0000 0.0000
# 4 0.0000 0.0000 0.0000 18.0797 0.0000 0.0000
# 5 0.0000 0.0000 0.0000 0.0000 -30.3754 0.0000
# 6 0.0000 0.0000 0.0000 0.0000 0.0000 48.4356
#
#
#
# Elastic Compliance Matrix: (Units=1/GPa)
#
#
# Indices 1 2 3 4 5 6 
#
# 1 0.019266 -0.008267 -0.003968 0.000000 0.000000 0.000000
# 2 -0.008267 0.017508 0.000006 0.000000 0.000000 0.000000
# 3 -0.003968 0.000006 0.010293 0.000000 0.000000 0.000000
# 4 0.000000 0.000000 0.000000 0.055311 0.000000 0.000000
# 5 0.000000 0.000000 0.000000 0.000000 -0.032921 0.000000
# 6 0.000000 0.000000 0.000000 0.000000 0.000000 0.020646
#
#
# Mechanical properties :
#
#
# Convention : Reuss Voigt Hill
#
# Bulk Modulus (GPa) = 44.22710 44.83412 44.53061
# Shear Modulus (GPa) = 40.95117 19.11497 30.03307
#
# Velocity S-wave (km/s) = 4.54477 3.10503 3.89205
# Velocity P-wave (km/s) = 7.06025 5.95553 6.53129
#
# Compressibility (1/GPa) = 0.02261057
#
# Stress axis : x y z
#
# Youngs Moduli (GPa) = 51.90543 57.11524 97.15050
#
# Poissons Ratio (x) = 0.47215 0.38545
# Poissons Ratio (y) = 0.42909 -0.00056
# Poissons Ratio (z) = 0.20594 -0.00033
#
# Static dielectric constant tensor:
#      x y z
#    x 1.688360 0.000000 0.000000 
#    y 0.000000 1.849940 0.000000 
#    z 0.000000 0.000000 1.724130 
# 
# From -- ./inp_files/47829.got.cif
#   From: 2010.05.17/outbox.cif.g08.bks.cpg/sg70_24_cif.got.tgz:47829.got - 2010.06.03 15:57:51.
