data_PCOD9515140
_publ_section_title
;
Structure prediction by ZEFSAII (Michael W. Deem and Ramdas Pophale) SiO2 
 PCOD9515140
Probable space group: F D D D
;
_chemical_formula_sum "Si O2"
_cell_formula_units_Z 80
_cell_length_a 7.444009
_cell_length_b 21.942565
_cell_length_c 17.922601
_cell_angle_alpha 90.000000
_cell_angle_beta 90.000000
_cell_angle_gamma 90.000000
_cell_volume 2927.489321
_symmetry_space_group_name_H-M "F D D D"
_symmetry_group_IT_number 70
_space_group.IT_coordinate_system_code '2'
_symmetry_cell_setting 'orthorhombic'
loop_
_space_group_symop_operation_xyz
x,y,z
1/4-x,1/4-y,z
x,1/4-y,1/4-z
1/4-x,y,1/4-z
-x,-y,-z
3/4+x,3/4+y,-z
-x,3/4+y,3/4+z
3/4+x,-y,3/4+z
x,1/2+y,1/2+z
1/4-x,3/4-y,1/2+z
x,3/4-y,3/4-z
1/4-x,1/2+y,3/4-z
-x,1/2-y,1/2-z
3/4+x,1/4+y,1/2-z
-x,1/4+y,1/4+z
3/4+x,1/2-y,1/4+z
1/2+x,y,1/2+z
3/4-x,1/4-y,1/2+z
1/2+x,1/4-y,3/4-z
3/4-x,y,3/4-z
1/2-x,-y,1/2-z
1/4+x,3/4+y,1/2-z
1/2-x,3/4+y,1/4+z
1/4+x,-y,1/4+z
1/2+x,1/2+y,z
3/4-x,3/4-y,z
1/2+x,3/4-y,1/4-z
3/4-x,1/2+y,1/4-z
1/2-x,1/2-y,-z
1/4+x,1/4+y,-z
1/2-x,1/4+y,3/4+z
1/4+x,1/2-y,3/4+z
loop_
_atom_site_type_symbol
_atom_site_label
_atom_site_fract_x
_atom_site_fract_y
_atom_site_fract_z
Si Si1 0.375000 0.875000 0.556230
Si Si2 0.530752 0.423229 0.287379
Si Si3 0.920637 0.991281 0.152594
O O1 0.542566 0.896640 0.504976
O O2 0.411082 0.818331 0.612018
O O3 0.375000 0.375000 0.284612
O O4 0.581355 0.449314 0.367957
O O5 0.448818 0.479883 0.239625
O O6 0.125000 0.994769 0.125000
#
# Coordination Sequence:
#
# PCOD9515140 Si02
#       3
#    16  32  32
#     4  10  20  40  71 106 154 199 250 316 402 464
#     4  11  24  45  76 113 158 209 260 326 396 477
#     4  10  21  43  74 112 155 205 258 323 398 471
#
# _framework density 27.327169999999999
#
# number of rings (size 3 to 8) (size 9 to 14) (size 15 to 20)
#    0.000    1.600    2.000    4.800    0.000    1.600 
#    0.000   17.000    0.000    9.600    0.000    0.000 
#    0.000    0.000    0.000    0.000    0.000    0.000 
#
# Total GULP energy -112255.162328 kJ/mol
# GULP energy per Si atom -5612.758116 kJ/mol
# Density = 2.726497 g / cm^3
# Si number density = 27.327170 Si / 1000 Ang^3
#
#
#
# Elastic Constant Matrix: (Units=GPa)
#
#
# Indices 1 2 3 4 5 6 
#
# 1 157.5479 41.0875 39.3676 0.0000 0.0000 0.0000
# 2 41.0875 61.5185 19.8874 0.0000 0.0000 0.0000
# 3 39.3676 19.8874 135.5432 0.0000 0.0000 0.0000
# 4 0.0000 0.0000 0.0000 42.3811 0.0000 0.0000
# 5 0.0000 0.0000 0.0000 0.0000 18.3354 0.0000
# 6 0.0000 0.0000 0.0000 0.0000 0.0000 46.4686
#
#
#
# Elastic Compliance Matrix: (Units=1/GPa)
#
#
# Indices 1 2 3 4 5 6 
#
# 1 0.008011 -0.004827 -0.001618 0.000000 0.000000 0.000000
# 2 -0.004827 0.019973 -0.001529 0.000000 0.000000 0.000000
# 3 -0.001618 -0.001529 0.008072 0.000000 0.000000 0.000000
# 4 0.000000 0.000000 0.000000 0.023595 0.000000 0.000000
# 5 0.000000 0.000000 0.000000 0.000000 0.054539 0.000000
# 6 0.000000 0.000000 0.000000 0.000000 0.000000 0.021520
#
#
# Mechanical properties :
#
#
# Convention : Reuss Voigt Hill
#
# Bulk Modulus (GPa) = 49.73142 61.69940 55.71541
# Shear Modulus (GPa) = 31.57340 38.38814 34.98077
#
# Velocity S-wave (km/s) = 3.40278 3.75208 3.58169
# Velocity P-wave (km/s) = 5.80316 6.43412 6.12676
#
# Compressibility (1/GPa) = 0.02010801
#
# Stress axis : x y z
#
# Youngs Moduli (GPa) = 124.83605 50.06685 123.88429
#
# Poissons Ratio (x) = 0.24167 0.20049
# Poissons Ratio (y) = 0.60258 0.18937
# Poissons Ratio (z) = 0.20203 0.07653
#
# Static dielectric constant tensor:
#      x y z
#    x 2.102330 0.000000 0.000000 
#    y 0.000000 2.186310 0.000000 
#    z 0.000000 0.000000 2.123140 
# 
# From -- ./inp_files/3840.got.cif
#   From: 2010.05.17/outbox.cif.g08.bks.cpg/sg70_2_cif.got.tgz:3840.got - 2010.06.03 15:57:51.
