data_PCOD9515069
_publ_section_title
;
Structure prediction by ZEFSAII (Michael W. Deem and Ramdas Pophale) SiO2 
 PCOD9515069
Probable space group: F D D D
;
_chemical_formula_sum "Si O2"
_cell_formula_units_Z 176
_cell_length_a 27.170756
_cell_length_b 11.465112
_cell_length_c 23.827558
_cell_angle_alpha 90.000000
_cell_angle_beta 90.000000
_cell_angle_gamma 90.000000
_cell_volume 7422.659855
_symmetry_space_group_name_H-M "F D D D"
_symmetry_group_IT_number 70
_space_group.IT_coordinate_system_code '2'
_symmetry_cell_setting 'orthorhombic'
loop_
_space_group_symop_operation_xyz
x,y,z
1/4-x,1/4-y,z
x,1/4-y,1/4-z
1/4-x,y,1/4-z
-x,-y,-z
3/4+x,3/4+y,-z
-x,3/4+y,3/4+z
3/4+x,-y,3/4+z
x,1/2+y,1/2+z
1/4-x,3/4-y,1/2+z
x,3/4-y,3/4-z
1/4-x,1/2+y,3/4-z
-x,1/2-y,1/2-z
3/4+x,1/4+y,1/2-z
-x,1/4+y,1/4+z
3/4+x,1/2-y,1/4+z
1/2+x,y,1/2+z
3/4-x,1/4-y,1/2+z
1/2+x,1/4-y,3/4-z
3/4-x,y,3/4-z
1/2-x,-y,1/2-z
1/4+x,3/4+y,1/2-z
1/2-x,3/4+y,1/4+z
1/4+x,-y,1/4+z
1/2+x,1/2+y,z
3/4-x,3/4-y,z
1/2+x,3/4-y,1/4-z
3/4-x,1/2+y,1/4-z
1/2-x,1/2-y,-z
1/4+x,1/4+y,-z
1/2-x,1/4+y,3/4+z
1/4+x,1/2-y,3/4+z
loop_
_atom_site_type_symbol
_atom_site_label
_atom_site_fract_x
_atom_site_fract_y
_atom_site_fract_z
Si Si1 0.509802 0.801662 0.487893
Si Si2 0.625000 0.625000 0.403136
Si Si3 0.375000 0.875000 0.288211
Si Si4 0.728196 0.187850 0.944542
Si Si5 0.625000 0.301980 0.625000
Si Si6 0.937966 0.277636 0.197023
Si Si7 0.551422 0.243383 0.100104
O O1 0.501404 0.694410 0.446839
O O2 0.470494 0.862644 0.530072
O O3 0.543861 0.736782 0.533708
O O4 0.531524 0.909659 0.452922
O O5 0.668422 0.688425 0.438287
O O6 0.658365 0.546950 0.360366
O O7 0.349362 0.786121 0.330846
O O8 0.350927 0.968893 0.247323
O O9 0.752694 0.242617 0.888930
O O10 0.750000 0.250000 0.000000
O O11 0.666812 0.389715 0.605147
O O12 0.573663 0.125000 0.125000
#
# Coordination Sequence:
#
# PCOD9515069 Si02
#       7
#    32  16  16  32  16  32  32
#     4  11  23  46  73 104 141 193 248 317 389 455
#     4  11  26  49  76 116 152 207 264 321 408 480
#     4  10  20  39  66 106 136 185 228 314 366 438
#     4  12  27  49  73 109 153 204 258 323 392 475
#     4  11  23  38  68 106 145 191 258 296 392 459
#     4  10  22  46  73 105 147 184 253 319 381 459
#     4  12  24  46  70 102 147 204 252 315 382 468
#
# _framework density 23.711176999999999
#
# number of rings (size 3 to 8) (size 9 to 14) (size 15 to 20)
#    0.000    0.909    5.455    1.364    0.000    2.182 
#   13.091    0.000    0.000    0.000    0.000    0.000 
#    0.000    0.000    0.000    0.000    0.000    0.000 
#
# Total GULP energy -245057.689211 kJ/mol
# GULP energy per Si atom -5569.492937 kJ/mol
# Density = 2.365721 g / cm^3
# Si number density = 23.711177 Si / 1000 Ang^3
#
#
#
# Elastic Constant Matrix: (Units=GPa)
#
#
# Indices 1 2 3 4 5 6 
#
# 1 112.1035 18.5817 35.9060 0.0000 0.0000 0.0000
# 2 18.5817 113.2912 20.0937 0.0000 0.0000 0.0000
# 3 35.9060 20.0937 89.8197 0.0000 0.0000 0.0000
# 4 0.0000 0.0000 0.0000 30.6133 0.0000 0.0000
# 5 0.0000 0.0000 0.0000 0.0000 31.6178 0.0000
# 6 0.0000 0.0000 0.0000 0.0000 0.0000 29.7167
#
#
#
# Elastic Compliance Matrix: (Units=1/GPa)
#
#
# Indices 1 2 3 4 5 6 
#
# 1 0.010338 -0.001002 -0.003909 0.000000 0.000000 0.000000
# 2 -0.001002 0.009289 -0.001677 0.000000 0.000000 0.000000
# 3 -0.003909 -0.001677 0.013071 0.000000 0.000000 0.000000
# 4 0.000000 0.000000 0.000000 0.032666 0.000000 0.000000
# 5 0.000000 0.000000 0.000000 0.000000 0.031628 0.000000
# 6 0.000000 0.000000 0.000000 0.000000 0.000000 0.033651
#
#
# Mechanical properties :
#
#
# Convention : Reuss Voigt Hill
#
# Bulk Modulus (GPa) = 51.22516 51.59748 51.41132
# Shear Modulus (GPa) = 33.26097 34.43176 33.84637
#
# Velocity S-wave (km/s) = 3.74940 3.81482 3.78225
# Velocity P-wave (km/s) = 6.35568 6.41965 6.38774
#
# Compressibility (1/GPa) = 0.01952166
#
# Stress axis : x y z
#
# Youngs Moduli (GPa) = 96.72700 107.65757 76.50454
#
# Poissons Ratio (x) = 0.10792 0.29902
# Poissons Ratio (y) = 0.09696 0.12832
# Poissons Ratio (z) = 0.37807 0.18057
#
# Static dielectric constant tensor:
#      x y z
#    x 2.000450 0.000000 0.000000 
#    y 0.000000 1.879340 0.000000 
#    z 0.000000 0.000000 1.922630 
# 
# From -- ./inp_files/61696.got.cif
#   From: 2010.05.17/outbox.cif.g08.bks.cpg/sg70_31_cif.got.tgz:61696.got - 2010.06.03 15:57:51.
