data_PCOD9515655
_publ_section_title
;
Structure prediction by ZEFSAII (Michael W. Deem and Ramdas Pophale) SiO2 
 PCOD9515655
Probable space group: F D D D
;
_chemical_formula_sum "Si O2"
_cell_formula_units_Z 176
_cell_length_a 26.509724
_cell_length_b 12.381499
_cell_length_c 23.706257
_cell_angle_alpha 90.000000
_cell_angle_beta 90.000000
_cell_angle_gamma 90.000000
_cell_volume 7781.107608
_symmetry_space_group_name_H-M "F D D D"
_symmetry_group_IT_number 70
_space_group.IT_coordinate_system_code '2'
_symmetry_cell_setting 'orthorhombic'
loop_
_space_group_symop_operation_xyz
x,y,z
1/4-x,1/4-y,z
x,1/4-y,1/4-z
1/4-x,y,1/4-z
-x,-y,-z
3/4+x,3/4+y,-z
-x,3/4+y,3/4+z
3/4+x,-y,3/4+z
x,1/2+y,1/2+z
1/4-x,3/4-y,1/2+z
x,3/4-y,3/4-z
1/4-x,1/2+y,3/4-z
-x,1/2-y,1/2-z
3/4+x,1/4+y,1/2-z
-x,1/4+y,1/4+z
3/4+x,1/2-y,1/4+z
1/2+x,y,1/2+z
3/4-x,1/4-y,1/2+z
1/2+x,1/4-y,3/4-z
3/4-x,y,3/4-z
1/2-x,-y,1/2-z
1/4+x,3/4+y,1/2-z
1/2-x,3/4+y,1/4+z
1/4+x,-y,1/4+z
1/2+x,1/2+y,z
3/4-x,3/4-y,z
1/2+x,3/4-y,1/4-z
3/4-x,1/2+y,1/4-z
1/2-x,1/2-y,-z
1/4+x,1/4+y,-z
1/2-x,1/4+y,3/4+z
1/4+x,1/2-y,3/4+z
loop_
_atom_site_type_symbol
_atom_site_label
_atom_site_fract_x
_atom_site_fract_y
_atom_site_fract_z
Si Si1 0.659875 0.017224 0.048540
Si Si2 0.822029 0.417199 0.501749
Si Si3 0.069195 0.346213 0.748043
Si Si4 0.209557 0.641014 0.945401
Si Si5 0.802533 0.375000 0.375000
Si Si6 0.994163 0.647891 0.833549
O O1 0.625000 0.125000 0.065065
O O2 0.686916 0.056208 0.990413
O O3 0.618506 0.924663 0.038812
O O4 0.703812 0.953387 0.083471
O O5 0.875000 0.375000 0.522510
O O6 0.817158 0.537698 0.524543
O O7 0.825252 0.421366 0.433521
O O8 0.773140 0.355644 0.524129
O O9 0.069319 0.251205 0.793049
O O10 0.018031 0.338261 0.712087
O O11 0.212174 0.614887 0.880423
O O12 0.778135 0.485414 0.349876
#
# Coordination Sequence:
#
# PCOD9515655 Si02
#       6
#    32  32  32  32  16  32
#     4  10  22  43  73 103 141 186 236 285 354 422
#     4  12  26  44  68 102 140 187 237 285 350 424
#     4  10  21  44  68  98 140 183 226 291 351 412
#     4  10  22  44  69 100 145 179 225 299 354 408
#     4  12  25  46  72  94 144 186 232 294 349 416
#     4  12  24  45  71 105 140 184 236 293 352 421
#
# _framework density 22.618887000000001
#
# number of rings (size 3 to 8) (size 9 to 14) (size 15 to 20)
#    0.000    1.091    3.636    1.909    0.000    5.091 
#    0.000    4.545    0.000    0.000    0.000    0.000 
#    0.000    0.000    0.000    0.000    0.000    0.000 
#
# Total GULP energy -245058.161258 kJ/mol
# GULP energy per Si atom -5569.503665 kJ/mol
# Density = 2.256741 g / cm^3
# Si number density = 22.618887 Si / 1000 Ang^3
#
#
#
# Elastic Constant Matrix: (Units=GPa)
#
#
# Indices 1 2 3 4 5 6 
#
# 1 99.7172 31.1058 33.6326 0.0000 0.0000 0.0000
# 2 31.1058 131.0540 27.9050 0.0000 0.0000 0.0000
# 3 33.6326 27.9050 82.3329 0.0000 0.0000 0.0000
# 4 0.0000 0.0000 0.0000 12.8044 0.0000 0.0000
# 5 0.0000 0.0000 0.0000 0.0000 8.9251 0.0000
# 6 0.0000 0.0000 0.0000 0.0000 0.0000 32.1410
#
#
#
# Elastic Compliance Matrix: (Units=1/GPa)
#
#
# Indices 1 2 3 4 5 6 
#
# 1 0.012080 -0.001958 -0.004271 0.000000 0.000000 0.000000
# 2 -0.001958 0.008541 -0.002095 0.000000 0.000000 0.000000
# 3 -0.004271 -0.002095 0.014601 0.000000 0.000000 0.000000
# 4 0.000000 0.000000 0.000000 0.078098 0.000000 0.000000
# 5 0.000000 0.000000 0.000000 0.000000 0.112044 0.000000
# 6 0.000000 0.000000 0.000000 0.000000 0.000000 0.031113
#
#
# Mechanical properties :
#
#
# Convention : Reuss Voigt Hill
#
# Bulk Modulus (GPa) = 53.83930 55.37676 54.60803
# Shear Modulus (GPa) = 17.90095 25.47148 21.68622
#
# Velocity S-wave (km/s) = 2.81626 3.35941 3.09975
# Velocity P-wave (km/s) = 5.86767 6.29151 6.08329
#
# Compressibility (1/GPa) = 0.01857379
#
# Stress axis : x y z
#
# Youngs Moduli (GPa) = 82.78457 117.07931 68.49047
#
# Poissons Ratio (x) = 0.22921 0.29252
# Poissons Ratio (y) = 0.16207 0.14350
# Poissons Ratio (z) = 0.35357 0.24530
#
# Static dielectric constant tensor:
#      x y z
#    x 2.227630 0.000000 0.000000 
#    y 0.000000 1.871500 0.000000 
#    z 0.000000 0.000000 1.931170 
# 
# From -- ./inp_files/61685.got.cif
#   From: 2010.05.17/outbox.cif.g08.bks.cpg/sg70_31_cif.got.tgz:61685.got - 2010.06.03 15:57:51.
