data_PCOD9515749
_publ_section_title
;
Structure prediction by ZEFSAII (Michael W. Deem and Ramdas Pophale) SiO2 
 PCOD9515749
Probable space group: F D D D
;
_chemical_formula_sum "Si O2"
_cell_formula_units_Z 208
_cell_length_a 23.443952
_cell_length_b 27.367998
_cell_length_c 15.046823
_cell_angle_alpha 90.000000
_cell_angle_beta 90.000000
_cell_angle_gamma 90.000000
_cell_volume 9654.252766
_symmetry_space_group_name_H-M "F D D D"
_symmetry_group_IT_number 70
_space_group.IT_coordinate_system_code '2'
_symmetry_cell_setting 'orthorhombic'
loop_
_space_group_symop_operation_xyz
x,y,z
1/4-x,1/4-y,z
x,1/4-y,1/4-z
1/4-x,y,1/4-z
-x,-y,-z
3/4+x,3/4+y,-z
-x,3/4+y,3/4+z
3/4+x,-y,3/4+z
x,1/2+y,1/2+z
1/4-x,3/4-y,1/2+z
x,3/4-y,3/4-z
1/4-x,1/2+y,3/4-z
-x,1/2-y,1/2-z
3/4+x,1/4+y,1/2-z
-x,1/4+y,1/4+z
3/4+x,1/2-y,1/4+z
1/2+x,y,1/2+z
3/4-x,1/4-y,1/2+z
1/2+x,1/4-y,3/4-z
3/4-x,y,3/4-z
1/2-x,-y,1/2-z
1/4+x,3/4+y,1/2-z
1/2-x,3/4+y,1/4+z
1/4+x,-y,1/4+z
1/2+x,1/2+y,z
3/4-x,3/4-y,z
1/2+x,3/4-y,1/4-z
3/4-x,1/2+y,1/4-z
1/2-x,1/2-y,-z
1/4+x,1/4+y,-z
1/2-x,1/4+y,3/4+z
1/4+x,1/2-y,3/4+z
loop_
_atom_site_type_symbol
_atom_site_label
_atom_site_fract_x
_atom_site_fract_y
_atom_site_fract_z
Si Si1 0.320675 0.152021 0.533103
Si Si2 0.994894 0.359983 0.614150
Si Si3 0.658812 0.926352 0.708984
Si Si4 0.647260 0.764723 0.349621
Si Si5 0.625000 0.540726 0.625000
Si Si6 0.730192 0.994769 0.040944
Si Si7 0.093773 0.067103 0.813443
O O1 0.302341 0.125000 0.625000
O O2 0.272504 0.154890 0.459209
O O3 0.370613 0.119430 0.491368
O O4 0.346986 0.203659 0.561035
O O5 0.936631 0.386709 0.643579
O O6 0.031707 0.404072 0.570622
O O7 0.005559 0.312801 0.550542
O O8 0.625000 0.947911 0.625000
O O9 0.652799 0.964140 0.788827
O O10 0.708982 0.770624 0.304819
O O11 0.637871 0.708824 0.371671
O O12 0.682807 0.508476 0.616388
O O13 0.621946 0.571356 0.715828
O O14 0.702166 0.022594 0.956749
#
# Coordination Sequence:
#
# PCOD9515749 Si02
#       7
#    32  32  32  32  16  32  32
#     4   9  18  32  55  86 111 154 207 248 292 368
#     4  11  21  36  60  86 124 157 208 254 309 361
#     4   9  19  34  59  89 112 155 206 260 294 358
#     4  11  21  38  62  85 122 158 204 247 316 367
#     4   8  22  40  58  87 126 158 204 250 301 378
#     4  10  22  40  58  86 122 163 197 258 302 369
#     4  10  22  39  60  92 119 162 207 245 308 380
#
# _framework density 21.544909000000001
#
# number of rings (size 3 to 8) (size 9 to 14) (size 15 to 20)
#    0.923    1.231    0.000    4.615    3.231    3.692 
#    0.000    0.000    3.385    0.000    0.000    1.077 
#    0.000    0.000    0.000    0.000    0.000    0.000 
#
# Total GULP energy -289823.127850 kJ/mol
# GULP energy per Si atom -5573.521689 kJ/mol
# Density = 2.149587 g / cm^3
# Si number density = 21.544909 Si / 1000 Ang^3
#
#
#
# Elastic Constant Matrix: (Units=GPa)
#
#
# Indices 1 2 3 4 5 6 
#
# 1 52.2954 29.6722 18.9508 0.0000 0.0000 0.0000
# 2 29.6722 123.8104 20.4958 0.0000 0.0000 0.0000
# 3 18.9508 20.4958 49.9075 0.0000 0.0000 0.0000
# 4 0.0000 0.0000 0.0000 19.3270 0.0000 0.0000
# 5 0.0000 0.0000 0.0000 0.0000 16.2362 0.0000
# 6 0.0000 0.0000 0.0000 0.0000 0.0000 25.6279
#
#
#
# Elastic Compliance Matrix: (Units=1/GPa)
#
#
# Indices 1 2 3 4 5 6 
#
# 1 0.024422 -0.004633 -0.007371 0.000000 0.000000 0.000000
# 2 -0.004633 0.009545 -0.002161 0.000000 0.000000 0.000000
# 3 -0.007371 -0.002161 0.023723 0.000000 0.000000 0.000000
# 4 0.000000 0.000000 0.000000 0.051741 0.000000 0.000000
# 5 0.000000 0.000000 0.000000 0.000000 0.061591 0.000000
# 6 0.000000 0.000000 0.000000 0.000000 0.000000 0.039020
#
#
# Mechanical properties :
#
#
# Convention : Reuss Voigt Hill
#
# Bulk Modulus (GPa) = 34.05842 40.47233 37.26538
# Shear Modulus (GPa) = 20.14851 22.69785 21.42318
#
# Velocity S-wave (km/s) = 3.06140 3.24931 3.15675
# Velocity P-wave (km/s) = 5.32341 5.73613 5.53362
#
# Compressibility (1/GPa) = 0.02936131
#
# Stress axis : x y z
#
# Youngs Moduli (GPa) = 40.94708 104.76888 42.15269
#
# Poissons Ratio (x) = 0.48536 0.31070
# Poissons Ratio (y) = 0.18970 0.09108
# Poissons Ratio (z) = 0.30182 0.22637
#
# Static dielectric constant tensor:
#      x y z
#    x 1.828750 0.000000 0.000000 
#    y 0.000000 1.841050 0.000000 
#    z 0.000000 0.000000 1.804470 
# 
# From -- ./inp_files/37817.got.cif
#   From: 2010.05.17/outbox.cif.g08.bks.cpg/sg70_19_cif.got.tgz:37817.got - 2010.06.03 15:57:51.
