data_PCOD9515113
_publ_section_title
;
Structure prediction by ZEFSAII (Michael W. Deem and Ramdas Pophale) SiO2 
 PCOD9515113
Probable space group: F D D D
;
_chemical_formula_sum "Si O2"
_cell_formula_units_Z 144
_cell_length_a 19.586509
_cell_length_b 13.674952
_cell_length_c 27.384605
_cell_angle_alpha 90.000000
_cell_angle_beta 90.000000
_cell_angle_gamma 90.000000
_cell_volume 7334.817762
_symmetry_space_group_name_H-M "F D D D"
_symmetry_group_IT_number 70
_space_group.IT_coordinate_system_code '2'
_symmetry_cell_setting 'orthorhombic'
loop_
_space_group_symop_operation_xyz
x,y,z
1/4-x,1/4-y,z
x,1/4-y,1/4-z
1/4-x,y,1/4-z
-x,-y,-z
3/4+x,3/4+y,-z
-x,3/4+y,3/4+z
3/4+x,-y,3/4+z
x,1/2+y,1/2+z
1/4-x,3/4-y,1/2+z
x,3/4-y,3/4-z
1/4-x,1/2+y,3/4-z
-x,1/2-y,1/2-z
3/4+x,1/4+y,1/2-z
-x,1/4+y,1/4+z
3/4+x,1/2-y,1/4+z
1/2+x,y,1/2+z
3/4-x,1/4-y,1/2+z
1/2+x,1/4-y,3/4-z
3/4-x,y,3/4-z
1/2-x,-y,1/2-z
1/4+x,3/4+y,1/2-z
1/2-x,3/4+y,1/4+z
1/4+x,-y,1/4+z
1/2+x,1/2+y,z
3/4-x,3/4-y,z
1/2+x,3/4-y,1/4-z
3/4-x,1/2+y,1/4-z
1/2-x,1/2-y,-z
1/4+x,1/4+y,-z
1/2-x,1/4+y,3/4+z
1/4+x,1/2-y,3/4+z
loop_
_atom_site_type_symbol
_atom_site_label
_atom_site_fract_x
_atom_site_fract_y
_atom_site_fract_z
Si Si1 0.375000 0.375000 0.875000
Si Si2 0.996591 0.246100 0.913286
Si Si3 0.875000 0.375000 0.875000
Si Si4 0.937938 0.304068 0.687883
Si Si5 0.831357 0.560067 0.328382
Si Si6 0.062314 0.365775 0.999941
O O1 0.422643 0.446289 0.907199
O O2 0.034674 0.246848 0.861298
O O3 0.037494 0.296407 0.956604
O O4 0.925549 0.306481 0.906691
O O5 0.982032 0.132175 0.924510
O O6 0.875000 0.375000 0.677867
O O7 0.918263 0.219841 0.726292
O O8 0.000164 0.363381 0.712645
O O9 0.875000 0.599482 0.375000
O O10 0.875940 0.571721 0.280316
#
# Coordination Sequence:
#
# PCOD9515113 Si02
#       6
#     8  32   8  32  32  32
#     4   8  18  40  68  76 122 168 214 260 312 396
#     4  12  22  38  66  98 130 172 219 275 341 393
#     4  12  18  36  64 100 134 168 210 274 332 402
#     4  11  22  37  59  95 140 167 207 279 337 401
#     4  10  20  40  65  86 123 169 223 269 318 401
#     4  11  22  37  63  99 126 171 226 267 336 406
#
# _framework density 19.632389
#
# number of rings (size 3 to 8) (size 9 to 14) (size 15 to 20)
#    0.667    0.444    5.556    1.333    4.667    0.000 
#    2.000    1.111   24.444    0.000    0.000    0.000 
#    0.000    0.000    0.000    0.000    0.000    0.000 
#
# Total GULP energy -200929.070829 kJ/mol
# GULP energy per Si atom -5581.363079 kJ/mol
# Density = 1.958770 g / cm^3
# Si number density = 19.632389 Si / 1000 Ang^3
#
#
#
# Elastic Constant Matrix: (Units=GPa)
#
#
# Indices 1 2 3 4 5 6 
#
# 1 37.9986 17.5465 28.1712 0.0000 0.0000 0.0000
# 2 17.5465 90.1558 11.3880 0.0000 0.0000 0.0000
# 3 28.1712 11.3880 106.2942 0.0000 0.0000 0.0000
# 4 0.0000 0.0000 0.0000 22.7249 0.0000 0.0000
# 5 0.0000 0.0000 0.0000 0.0000 24.3846 0.0000
# 6 0.0000 0.0000 0.0000 0.0000 0.0000 21.5523
#
#
#
# Elastic Compliance Matrix: (Units=1/GPa)
#
#
# Indices 1 2 3 4 5 6 
#
# 1 0.035513 -0.005801 -0.008790 0.000000 0.000000 0.000000
# 2 -0.005801 0.012192 0.000231 0.000000 0.000000 0.000000
# 3 -0.008790 0.000231 0.011713 0.000000 0.000000 0.000000
# 4 0.000000 0.000000 0.000000 0.044005 0.000000 0.000000
# 5 0.000000 0.000000 0.000000 0.000000 0.041010 0.000000
# 6 0.000000 0.000000 0.000000 0.000000 0.000000 0.046399
#
#
# Mechanical properties :
#
#
# Convention : Reuss Voigt Hill
#
# Bulk Modulus (GPa) = 32.57702 38.74002 35.65852
# Shear Modulus (GPa) = 21.75968 25.55522 23.65745
#
# Velocity S-wave (km/s) = 3.33281 3.61180 3.47511
# Velocity P-wave (km/s) = 5.60711 6.09664 5.85699
#
# Compressibility (1/GPa) = 0.03069648
#
# Stress axis : x y z
#
# Youngs Moduli (GPa) = 28.15899 82.02264 85.37670
#
# Poissons Ratio (x) = 0.47584 0.75050
# Poissons Ratio (y) = 0.16336 -0.01975
# Poissons Ratio (z) = 0.24753 -0.01897
#
# Static dielectric constant tensor:
#      x y z
#    x 1.670300 0.000000 0.000000 
#    y 0.000000 1.720360 0.000000 
#    z 0.000000 0.000000 1.670090 
# 
# From -- ./inp_files/66495.got.cif
#   From: 2010.05.17/outbox.cif.g08.bks.cpg/sg70_34_cif.got.tgz:66495.got - 2010.06.03 15:57:51.
