data_PCOD9515324
_publ_section_title
;
Structure prediction by ZEFSAII (Michael W. Deem and Ramdas Pophale) SiO2 
 PCOD9515324
Probable space group: F D D D
;
_chemical_formula_sum "Si O2"
_cell_formula_units_Z 144
_cell_length_a 21.318877
_cell_length_b 21.228755
_cell_length_c 17.152131
_cell_angle_alpha 90.000000
_cell_angle_beta 90.000000
_cell_angle_gamma 90.000000
_cell_volume 7762.595100
_symmetry_space_group_name_H-M "F D D D"
_symmetry_group_IT_number 70
_space_group.IT_coordinate_system_code '2'
_symmetry_cell_setting 'orthorhombic'
loop_
_space_group_symop_operation_xyz
x,y,z
1/4-x,1/4-y,z
x,1/4-y,1/4-z
1/4-x,y,1/4-z
-x,-y,-z
3/4+x,3/4+y,-z
-x,3/4+y,3/4+z
3/4+x,-y,3/4+z
x,1/2+y,1/2+z
1/4-x,3/4-y,1/2+z
x,3/4-y,3/4-z
1/4-x,1/2+y,3/4-z
-x,1/2-y,1/2-z
3/4+x,1/4+y,1/2-z
-x,1/4+y,1/4+z
3/4+x,1/2-y,1/4+z
1/2+x,y,1/2+z
3/4-x,1/4-y,1/2+z
1/2+x,1/4-y,3/4-z
3/4-x,y,3/4-z
1/2-x,-y,1/2-z
1/4+x,3/4+y,1/2-z
1/2-x,3/4+y,1/4+z
1/4+x,-y,1/4+z
1/2+x,1/2+y,z
3/4-x,3/4-y,z
1/2+x,3/4-y,1/4-z
3/4-x,1/2+y,1/4-z
1/2-x,1/2-y,-z
1/4+x,1/4+y,-z
1/2-x,1/4+y,3/4+z
1/4+x,1/2-y,3/4+z
loop_
_atom_site_type_symbol
_atom_site_label
_atom_site_fract_x
_atom_site_fract_y
_atom_site_fract_z
Si Si1 0.302671 0.174106 0.351798
Si Si2 0.695264 0.562356 0.591533
Si Si3 0.125000 0.125000 0.960253
Si Si4 0.966909 0.313800 0.089526
Si Si5 0.259991 0.425993 0.942071
O O1 0.375000 0.172537 0.375000
O O2 0.276070 0.244970 0.365213
O O3 0.265623 0.120350 0.396898
O O4 0.291732 0.164747 0.259502
O O5 0.727258 0.625000 0.625000
O O6 0.625000 0.560901 0.625000
O O7 0.691487 0.567184 0.498466
O O8 0.086330 0.077543 0.904051
O O9 0.075958 0.163473 0.013635
O O10 0.000054 0.245610 0.093074
O O11 0.254281 0.375000 0.875000
#
# Coordination Sequence:
#
# PCOD9515324 Si02
#       5
#    32  32  16  32  32
#     4   9  20  36  54  81 112 145 187 231 283 341
#     4   9  17  33  55  77 107 144 181 228 279 331
#     4  10  21  38  61  86 114 150 192 234 287 342
#     4  10  21  37  58  83 114 150 189 235 287 337
#     4  10  22  38  58  85 114 149 191 235 282 337
#
# _framework density 18.550497
#
# number of rings (size 3 to 8) (size 9 to 14) (size 15 to 20)
#    0.000    2.444    0.000    1.667    0.000    8.000 
#    0.000   12.222    0.000    0.000    0.000    0.000 
#    0.000    0.000    0.000    0.000    0.000    0.000 
#
# Total GULP energy -200625.475802 kJ/mol
# GULP energy per Si atom -5572.929883 kJ/mol
# Density = 1.850828 g / cm^3
# Si number density = 18.550497 Si / 1000 Ang^3
#
#
#
# Elastic Constant Matrix: (Units=GPa)
#
#
# Indices 1 2 3 4 5 6 
#
# 1 83.4697 64.7139 49.1614 0.0000 0.0000 0.0000
# 2 64.7139 193.8141 99.2639 0.0000 0.0000 0.0000
# 3 49.1614 99.2639 93.8159 0.0000 0.0000 0.0000
# 4 0.0000 0.0000 0.0000 34.7992 0.0000 0.0000
# 5 0.0000 0.0000 0.0000 0.0000 1.8121 0.0000
# 6 0.0000 0.0000 0.0000 0.0000 0.0000 74.6640
#
#
#
# Elastic Compliance Matrix: (Units=1/GPa)
#
#
# Indices 1 2 3 4 5 6 
#
# 1 0.017892 -0.002559 -0.006668 0.000000 0.000000 0.000000
# 2 -0.002559 0.011629 -0.010963 0.000000 0.000000 0.000000
# 3 -0.006668 -0.010963 0.025754 0.000000 0.000000 0.000000
# 4 0.000000 0.000000 0.000000 0.028736 0.000000 0.000000
# 5 0.000000 0.000000 0.000000 0.000000 0.551840 0.000000
# 6 0.000000 0.000000 0.000000 0.000000 0.000000 0.013393
#
#
# Mechanical properties :
#
#
# Convention : Reuss Voigt Hill
#
# Bulk Modulus (GPa) = 67.14427 88.59757 77.87092
# Shear Modulus (GPa) = 7.19850 32.78576 19.99213
#
# Velocity S-wave (km/s) = 1.97203 4.20858 3.28642
# Velocity P-wave (km/s) = 6.43888 8.45459 7.51463
#
# Compressibility (1/GPa) = 0.01489330
#
# Stress axis : x y z
#
# Youngs Moduli (GPa) = 55.89218 85.99197 38.82961
#
# Poissons Ratio (x) = 0.22003 0.25892
# Poissons Ratio (y) = 0.14301 0.42571
# Poissons Ratio (z) = 0.37270 0.94277
#
# Static dielectric constant tensor:
#      x y z
#    x 1.632840 0.000000 0.000000 
#    y 0.000000 1.686220 0.000000 
#    z 0.000000 0.000000 1.627880 
# 
# From -- ./inp_files/36207.got.cif
#   From: 2010.05.17/outbox.cif.g08.bks.cpg/sg70_19_cif.got.tgz:36207.got - 2010.06.03 15:57:51.
