data_PCOD9515373
_publ_section_title
;
Structure prediction by ZEFSAII (Michael W. Deem and Ramdas Pophale) SiO2 
 PCOD9515373
Probable space group: F D D D
;
_chemical_formula_sum "Si O2"
_cell_formula_units_Z 112
_cell_length_a 6.978970
_cell_length_b 25.064601
_cell_length_c 33.625932
_cell_angle_alpha 90.000000
_cell_angle_beta 90.000000
_cell_angle_gamma 90.000000
_cell_volume 5882.019465
_symmetry_space_group_name_H-M "F D D D"
_symmetry_group_IT_number 70
_space_group.IT_coordinate_system_code '2'
_symmetry_cell_setting 'orthorhombic'
loop_
_space_group_symop_operation_xyz
x,y,z
1/4-x,1/4-y,z
x,1/4-y,1/4-z
1/4-x,y,1/4-z
-x,-y,-z
3/4+x,3/4+y,-z
-x,3/4+y,3/4+z
3/4+x,-y,3/4+z
x,1/2+y,1/2+z
1/4-x,3/4-y,1/2+z
x,3/4-y,3/4-z
1/4-x,1/2+y,3/4-z
-x,1/2-y,1/2-z
3/4+x,1/4+y,1/2-z
-x,1/4+y,1/4+z
3/4+x,1/2-y,1/4+z
1/2+x,y,1/2+z
3/4-x,1/4-y,1/2+z
1/2+x,1/4-y,3/4-z
3/4-x,y,3/4-z
1/2-x,-y,1/2-z
1/4+x,3/4+y,1/2-z
1/2-x,3/4+y,1/4+z
1/4+x,-y,1/4+z
1/2+x,1/2+y,z
3/4-x,3/4-y,z
1/2+x,3/4-y,1/4-z
3/4-x,1/2+y,1/4-z
1/2-x,1/2-y,-z
1/4+x,1/4+y,-z
1/2-x,1/4+y,3/4+z
1/4+x,1/2-y,3/4+z
loop_
_atom_site_type_symbol
_atom_site_label
_atom_site_fract_x
_atom_site_fract_y
_atom_site_fract_z
Si Si1 0.794587 0.500628 0.478786
Si Si2 0.802027 0.935467 0.293690
Si Si3 0.963896 0.428180 0.654929
Si Si4 0.875000 0.999382 0.375000
O O1 0.673365 0.447193 0.466654
O O2 0.663509 0.533287 0.509344
O O3 0.802632 0.533996 0.438204
O O4 0.000000 0.500000 0.500000
O O5 0.875000 0.875000 0.294099
O O6 0.861018 0.963002 0.335549
O O7 0.875000 0.375000 0.673935
O O8 0.808331 0.462166 0.630175
O O9 0.125000 0.409123 0.625000
#
# Coordination Sequence:
#
# PCOD9515373 Si02
#       4
#    32  32  32  16
#     4  10  22  39  58  86 122 155 204 253 302 377
#     4  10  21  39  60  87 118 159 201 247 311 367
#     4  11  21  37  59  87 118 157 200 250 314 366
#     4  10  21  38  60  86 122 152 203 256 298 382
#
# _framework density 19.041080999999998
#
# number of rings (size 3 to 8) (size 9 to 14) (size 15 to 20)
#    0.000    1.714    1.429    3.000    0.000    1.143 
#    5.143    0.000    0.000    5.143    0.000    0.000 
#    0.000    0.000    0.000    0.000    0.000    0.000 
#
# Total GULP energy -156048.728639 kJ/mol
# GULP energy per Si atom -5573.168880 kJ/mol
# Density = 1.899774 g / cm^3
# Si number density = 19.041081 Si / 1000 Ang^3
#
#
#
# Elastic Constant Matrix: (Units=GPa)
#
#
# Indices 1 2 3 4 5 6 
#
# 1 115.8566 49.4712 29.3349 0.0000 0.0000 0.0000
# 2 49.4712 128.6430 18.1323 0.0000 0.0000 0.0000
# 3 29.3349 18.1323 75.1499 0.0000 0.0000 0.0000
# 4 0.0000 0.0000 0.0000 27.5323 0.0000 0.0000
# 5 0.0000 0.0000 0.0000 0.0000 40.0023 0.0000
# 6 0.0000 0.0000 0.0000 0.0000 0.0000 20.7895
#
#
#
# Elastic Compliance Matrix: (Units=1/GPa)
#
#
# Indices 1 2 3 4 5 6 
#
# 1 0.011118 -0.003793 -0.003425 0.000000 0.000000 0.000000
# 2 -0.003793 0.009341 -0.000773 0.000000 0.000000 0.000000
# 3 -0.003425 -0.000773 0.014830 0.000000 0.000000 0.000000
# 4 0.000000 0.000000 0.000000 0.036321 0.000000 0.000000
# 5 0.000000 0.000000 0.000000 0.000000 0.024999 0.000000
# 6 0.000000 0.000000 0.000000 0.000000 0.000000 0.048101
#
#
# Mechanical properties :
#
#
# Convention : Reuss Voigt Hill
#
# Bulk Modulus (GPa) = 51.79356 57.05847 54.42601
# Shear Modulus (GPa) = 29.91723 32.51222 31.21472
#
# Velocity S-wave (km/s) = 3.96813 4.13665 4.05326
# Velocity P-wave (km/s) = 6.94656 7.26958 7.10991
#
# Compressibility (1/GPa) = 0.01930742
#
# Stress axis : x y z
#
# Youngs Moduli (GPa) = 89.94352 107.05453 67.42997
#
# Poissons Ratio (x) = 0.40604 0.23094
# Poissons Ratio (y) = 0.34114 0.05214
# Poissons Ratio (z) = 0.30804 0.08278
#
# Static dielectric constant tensor:
#      x y z
#    x 1.700180 0.000000 0.000000 
#    y 0.000000 1.651550 0.000000 
#    z 0.000000 0.000000 1.651870 
# 
# From -- ./inp_files/62924.got.cif
#   From: 2010.05.17/outbox.cif.g08.bks.cpg/sg70_32_cif.got.tgz:62924.got - 2010.06.03 15:57:51.
