data_PCOD9515296
_publ_section_title
;
Structure prediction by ZEFSAII (Michael W. Deem and Ramdas Pophale) SiO2 
 PCOD9515296
Probable space group: F D D D
;
_chemical_formula_sum "Si O2"
_cell_formula_units_Z 112
_cell_length_a 9.907309
_cell_length_b 16.387824
_cell_length_c 34.459575
_cell_angle_alpha 90.000000
_cell_angle_beta 90.000000
_cell_angle_gamma 90.000000
_cell_volume 5594.830277
_symmetry_space_group_name_H-M "F D D D"
_symmetry_group_IT_number 70
_space_group.IT_coordinate_system_code '2'
_symmetry_cell_setting 'orthorhombic'
loop_
_space_group_symop_operation_xyz
x,y,z
1/4-x,1/4-y,z
x,1/4-y,1/4-z
1/4-x,y,1/4-z
-x,-y,-z
3/4+x,3/4+y,-z
-x,3/4+y,3/4+z
3/4+x,-y,3/4+z
x,1/2+y,1/2+z
1/4-x,3/4-y,1/2+z
x,3/4-y,3/4-z
1/4-x,1/2+y,3/4-z
-x,1/2-y,1/2-z
3/4+x,1/4+y,1/2-z
-x,1/4+y,1/4+z
3/4+x,1/2-y,1/4+z
1/2+x,y,1/2+z
3/4-x,1/4-y,1/2+z
1/2+x,1/4-y,3/4-z
3/4-x,y,3/4-z
1/2-x,-y,1/2-z
1/4+x,3/4+y,1/2-z
1/2-x,3/4+y,1/4+z
1/4+x,-y,1/4+z
1/2+x,1/2+y,z
3/4-x,3/4-y,z
1/2+x,3/4-y,1/4-z
3/4-x,1/2+y,1/4-z
1/2-x,1/2-y,-z
1/4+x,1/4+y,-z
1/2-x,1/4+y,3/4+z
1/4+x,1/2-y,3/4+z
loop_
_atom_site_type_symbol
_atom_site_label
_atom_site_fract_x
_atom_site_fract_y
_atom_site_fract_z
Si Si1 0.015144 0.925142 0.911381
Si Si2 0.625000 0.920969 0.625000
Si Si3 0.533598 0.854037 0.782554
Si Si4 0.240262 0.926260 0.696561
O O1 0.073686 0.875000 0.875000
O O2 0.120075 0.918746 0.946450
O O3 0.875000 0.875000 0.921014
O O4 0.979032 0.014772 0.895264
O O5 0.581698 0.861736 0.659691
O O6 0.375000 0.875000 0.782023
O O7 0.535683 0.769580 0.806151
O O8 0.581317 0.835542 0.738464
O O9 0.375000 0.875000 0.699871
#
# Coordination Sequence:
#
# PCOD9515296 Si02
#       4
#    32  16  32  32
#     4   9  19  37  59  83 115 153 189 232 287 340
#     4  10  21  36  59  84 112 152 196 240 279 334
#     4  10  22  39  60  85 116 154 191 233 289 348
#     4  10  21  39  58  83 121 153 184 238 296 337
#
# _framework density 20.01848
#
# number of rings (size 3 to 8) (size 9 to 14) (size 15 to 20)
#    0.000    2.571    0.000    3.429    0.000    6.286 
#    0.000    1.429    0.000    0.000    0.000    0.000 
#    0.000    0.000    0.000    0.000    0.000    0.000 
#
# Total GULP energy -155976.505377 kJ/mol
# GULP energy per Si atom -5570.589478 kJ/mol
# Density = 1.997292 g / cm^3
# Si number density = 20.018480 Si / 1000 Ang^3
#
#
#
# Elastic Constant Matrix: (Units=GPa)
#
#
# Indices 1 2 3 4 5 6 
#
# 1 42.5729 13.3729 52.2323 0.0000 0.0000 0.0000
# 2 13.3729 113.8370 60.2517 0.0000 0.0000 0.0000
# 3 52.2323 60.2517 141.8950 0.0000 0.0000 0.0000
# 4 0.0000 0.0000 0.0000 106.0123 0.0000 0.0000
# 5 0.0000 0.0000 0.0000 0.0000 -18.2147 0.0000
# 6 0.0000 0.0000 0.0000 0.0000 0.0000 8.8799
#
#
#
# Elastic Compliance Matrix: (Units=1/GPa)
#
#
# Indices 1 2 3 4 5 6 
#
# 1 0.044509 0.004441 -0.018270 0.000000 0.000000 0.000000
# 2 0.004441 0.011774 -0.006634 0.000000 0.000000 0.000000
# 3 -0.018270 -0.006634 0.016590 0.000000 0.000000 0.000000
# 4 0.000000 0.000000 0.000000 0.009433 0.000000 0.000000
# 5 0.000000 0.000000 0.000000 0.000000 -0.054901 0.000000
# 6 0.000000 0.000000 0.000000 0.000000 0.000000 0.112614
#
#
# Mechanical properties :
#
#
# Convention : Reuss Voigt Hill
#
# Bulk Modulus (GPa) = 31.30182 61.11319 46.20750
# Shear Modulus (GPa) = 26.09681 30.83203 28.46442
#
# Velocity S-wave (km/s) = 3.61451 3.92877 3.77491
# Velocity P-wave (km/s) = 5.75239 7.15367 6.49095
#
# Compressibility (1/GPa) = 0.03194703
#
# Stress axis : x y z
#
# Youngs Moduli (GPa) = 22.46726 84.93126 60.27789
#
# Poissons Ratio (x) = -0.37720 1.10127
# Poissons Ratio (y) = -0.09978 0.39991
# Poissons Ratio (z) = 0.41047 0.56347
#
# Static dielectric constant tensor:
#      x y z
#    x 1.741240 0.000000 0.000000 
#    y 0.000000 1.698620 0.000000 
#    z 0.000000 0.000000 1.759870 
# 
# From -- ./inp_files/16273.got.cif
#   From: 2010.05.17/outbox.cif.g08.bks.cpg/sg70_9_cif.got.tgz:16273.got - 2010.06.03 15:57:51.
