data_PCOD9515182
_publ_section_title
;
Structure prediction by ZEFSAII (Michael W. Deem and Ramdas Pophale) SiO2 
 PCOD9515182
Probable space group: F D D D
;
_chemical_formula_sum "Si O2"
_cell_formula_units_Z 160
_cell_length_a 16.113291
_cell_length_b 25.834410
_cell_length_c 18.661456
_cell_angle_alpha 90.000000
_cell_angle_beta 90.000000
_cell_angle_gamma 90.000000
_cell_volume 7768.341752
_symmetry_space_group_name_H-M "F D D D"
_symmetry_group_IT_number 70
_space_group.IT_coordinate_system_code '2'
_symmetry_cell_setting 'orthorhombic'
loop_
_space_group_symop_operation_xyz
x,y,z
1/4-x,1/4-y,z
x,1/4-y,1/4-z
1/4-x,y,1/4-z
-x,-y,-z
3/4+x,3/4+y,-z
-x,3/4+y,3/4+z
3/4+x,-y,3/4+z
x,1/2+y,1/2+z
1/4-x,3/4-y,1/2+z
x,3/4-y,3/4-z
1/4-x,1/2+y,3/4-z
-x,1/2-y,1/2-z
3/4+x,1/4+y,1/2-z
-x,1/4+y,1/4+z
3/4+x,1/2-y,1/4+z
1/2+x,y,1/2+z
3/4-x,1/4-y,1/2+z
1/2+x,1/4-y,3/4-z
3/4-x,y,3/4-z
1/2-x,-y,1/2-z
1/4+x,3/4+y,1/2-z
1/2-x,3/4+y,1/4+z
1/4+x,-y,1/4+z
1/2+x,1/2+y,z
3/4-x,3/4-y,z
1/2+x,3/4-y,1/4-z
3/4-x,1/2+y,1/4-z
1/2-x,1/2-y,-z
1/4+x,1/4+y,-z
1/2-x,1/4+y,3/4+z
1/4+x,1/2-y,3/4+z
loop_
_atom_site_type_symbol
_atom_site_label
_atom_site_fract_x
_atom_site_fract_y
_atom_site_fract_z
Si Si1 0.874570 0.567566 0.641196
Si Si2 0.375000 0.875000 0.555714
Si Si3 0.375000 0.077426 0.375000
Si Si4 0.295477 0.582415 0.465592
Si Si5 0.547831 0.531999 0.674067
Si Si6 0.703937 0.037524 0.907740
O O1 0.906839 0.625000 0.625000
O O2 0.884550 0.566860 0.726919
O O3 0.785153 0.559552 0.605259
O O4 0.928839 0.517305 0.622936
O O5 0.298208 0.900637 0.512360
O O6 0.337836 0.831461 0.609128
O O7 0.331974 0.116754 0.320505
O O8 0.447233 0.043393 0.342285
O O9 0.284768 0.530517 0.418392
O O10 0.625000 0.547089 0.625000
O O11 0.567343 0.542872 0.757795
#
# Coordination Sequence:
#
# PCOD9515182 Si02
#       6
#    32  16  16  32  32  32
#     4  11  24  43  59  93 134 168 212 266 316 381
#     4  10  20  44  66  94 122 174 222 258 318 388
#     4  10  20  42  63  90 119 172 222 258 316 376
#     4  10  21  39  66  92 127 171 213 267 317 389
#     4  11  23  40  64  98 131 164 211 264 334 385
#     4  10  23  40  67  91 126 170 213 266 317 390
#
# _framework density 20.596416999999999
#
# number of rings (size 3 to 8) (size 9 to 14) (size 15 to 20)
#    0.000    1.600    3.000    1.200    0.000    8.400 
#    7.200    3.000    0.000    0.000    0.000    0.000 
#    0.000    0.000    0.000    0.000    0.000    0.000 
#
# Total GULP energy -222778.305894 kJ/mol
# GULP energy per Si atom -5569.457647 kJ/mol
# Density = 2.054954 g / cm^3
# Si number density = 20.596417 Si / 1000 Ang^3
#
#
#
# Elastic Constant Matrix: (Units=GPa)
#
#
# Indices 1 2 3 4 5 6 
#
# 1 44.2433 21.2794 1.4927 0.0000 0.0000 0.0000
# 2 21.2794 114.9162 9.1148 0.0000 0.0000 0.0000
# 3 1.4927 9.1148 36.2770 0.0000 0.0000 0.0000
# 4 0.0000 0.0000 0.0000 14.6909 0.0000 0.0000
# 5 0.0000 0.0000 0.0000 0.0000 33.4792 0.0000
# 6 0.0000 0.0000 0.0000 0.0000 0.0000 24.1633
#
#
#
# Elastic Compliance Matrix: (Units=1/GPa)
#
#
# Indices 1 2 3 4 5 6 
#
# 1 0.024813 -0.004605 0.000136 0.000000 0.000000 0.000000
# 2 -0.004605 0.009734 -0.002256 0.000000 0.000000 0.000000
# 3 0.000136 -0.002256 0.028127 0.000000 0.000000 0.000000
# 4 0.000000 0.000000 0.000000 0.068070 0.000000 0.000000
# 5 0.000000 0.000000 0.000000 0.000000 0.029869 0.000000
# 6 0.000000 0.000000 0.000000 0.000000 0.000000 0.041385
#
#
# Mechanical properties :
#
#
# Convention : Reuss Voigt Hill
#
# Bulk Modulus (GPa) = 20.31590 28.80116 24.55853
# Shear Modulus (GPa) = 21.56512 25.36996 23.46754
#
# Velocity S-wave (km/s) = 3.23930 3.51346 3.37916
# Velocity P-wave (km/s) = 4.88630 5.52025 5.21292
#
# Compressibility (1/GPa) = 0.04922254
#
# Stress axis : x y z
#
# Youngs Moduli (GPa) = 40.30186 102.73527 35.55312
#
# Poissons Ratio (x) = 0.47314 -0.00484
# Poissons Ratio (y) = 0.18561 0.08021
# Poissons Ratio (z) = -0.00549 0.23179
#
# Static dielectric constant tensor:
#      x y z
#    x 1.802220 0.000000 0.000000 
#    y 0.000000 1.782840 0.000000 
#    z 0.000000 0.000000 1.745130 
# 
# From -- ./inp_files/28706.got.cif
#   From: 2010.05.17/outbox.cif.g08.bks.cpg/sg70_15_cif.got.tgz:28706.got - 2010.06.03 15:57:51.
