data_PCOD9515742
_publ_section_title
;
Structure prediction by ZEFSAII (Michael W. Deem and Ramdas Pophale) SiO2 
 PCOD9515742
Probable space group: F D D D
;
_chemical_formula_sum "Si O2"
_cell_formula_units_Z 144
_cell_length_a 15.271379
_cell_length_b 29.783804
_cell_length_c 13.890906
_cell_angle_alpha 90.000000
_cell_angle_beta 90.000000
_cell_angle_gamma 90.000000
_cell_volume 6318.136337
_symmetry_space_group_name_H-M "F D D D"
_symmetry_group_IT_number 70
_space_group.IT_coordinate_system_code '2'
_symmetry_cell_setting 'orthorhombic'
loop_
_space_group_symop_operation_xyz
x,y,z
1/4-x,1/4-y,z
x,1/4-y,1/4-z
1/4-x,y,1/4-z
-x,-y,-z
3/4+x,3/4+y,-z
-x,3/4+y,3/4+z
3/4+x,-y,3/4+z
x,1/2+y,1/2+z
1/4-x,3/4-y,1/2+z
x,3/4-y,3/4-z
1/4-x,1/2+y,3/4-z
-x,1/2-y,1/2-z
3/4+x,1/4+y,1/2-z
-x,1/4+y,1/4+z
3/4+x,1/2-y,1/4+z
1/2+x,y,1/2+z
3/4-x,1/4-y,1/2+z
1/2+x,1/4-y,3/4-z
3/4-x,y,3/4-z
1/2-x,-y,1/2-z
1/4+x,3/4+y,1/2-z
1/2-x,3/4+y,1/4+z
1/4+x,-y,1/4+z
1/2+x,1/2+y,z
3/4-x,3/4-y,z
1/2+x,3/4-y,1/4-z
3/4-x,1/2+y,1/4-z
1/2-x,1/2-y,-z
1/4+x,1/4+y,-z
1/2-x,1/4+y,3/4+z
1/4+x,1/2-y,3/4+z
loop_
_atom_site_type_symbol
_atom_site_label
_atom_site_fract_x
_atom_site_fract_y
_atom_site_fract_z
Si Si1 0.279406 0.212531 0.390182
Si Si2 0.393258 0.030558 0.092052
Si Si3 0.021760 0.632409 0.913113
Si Si4 0.306892 0.125000 0.625000
Si Si5 0.726668 0.483732 0.142503
O O1 0.375000 0.233492 0.375000
O O2 0.197866 0.241483 0.355184
O O3 0.287478 0.209920 0.506080
O O4 0.273560 0.160423 0.360380
O O5 0.384509 0.080148 0.132859
O O6 0.297890 0.009865 0.076136
O O7 0.125000 0.625000 0.901181
O O8 0.992196 0.680587 0.873637
O O9 0.999822 0.629845 0.027304
O O10 0.625000 0.493579 0.125000
O O11 0.750000 0.500000 0.250000
#
# Coordination Sequence:
#
# PCOD9515742 Si02
#       5
#    32  32  32  16  32
#     4  10  22  38  67  96 132 174 225 305 361 429
#     4  10  23  41  62 102 135 179 236 291 372 432
#     4  11  22  42  69 104 137 178 240 301 375 433
#     4  10  23  40  71 106 140 172 234 321 379 430
#     4  12  27  46  71 102 150 205 246 301 364 454
#
# _framework density 22.791530999999999
#
# number of rings (size 3 to 8) (size 9 to 14) (size 15 to 20)
#    0.000    1.333    2.222    2.333    6.222    1.778 
#    0.000    0.556    0.000    0.000    0.000    0.000 
#    0.000    0.000    0.000    0.000    0.000    0.000 
#
# Total GULP energy -200593.850078 kJ/mol
# GULP energy per Si atom -5572.051391 kJ/mol
# Density = 2.273966 g / cm^3
# Si number density = 22.791531 Si / 1000 Ang^3
#
#
#
# Elastic Constant Matrix: (Units=GPa)
#
#
# Indices 1 2 3 4 5 6 
#
# 1 189.4910 82.0140 12.9061 0.0000 0.0000 0.0000
# 2 82.0140 160.8108 22.8231 0.0000 0.0000 0.0000
# 3 12.9061 22.8231 63.7561 0.0000 0.0000 0.0000
# 4 0.0000 0.0000 0.0000 20.4793 0.0000 0.0000
# 5 0.0000 0.0000 0.0000 0.0000 27.7062 0.0000
# 6 0.0000 0.0000 0.0000 0.0000 0.0000 26.4877
#
#
#
# Elastic Compliance Matrix: (Units=1/GPa)
#
#
# Indices 1 2 3 4 5 6 
#
# 1 0.006773 -0.003434 -0.000142 0.000000 0.000000 0.000000
# 2 -0.003434 0.008293 -0.002273 0.000000 0.000000 0.000000
# 3 -0.000142 -0.002273 0.016527 0.000000 0.000000 0.000000
# 4 0.000000 0.000000 0.000000 0.048830 0.000000 0.000000
# 5 0.000000 0.000000 0.000000 0.000000 0.036093 0.000000
# 6 0.000000 0.000000 0.000000 0.000000 0.000000 0.037753
#
#
# Mechanical properties :
#
#
# Convention : Reuss Voigt Hill
#
# Bulk Modulus (GPa) = 50.26522 72.17159 61.21841
# Shear Modulus (GPa) = 28.96876 34.68896 31.82886
#
# Velocity S-wave (km/s) = 3.56902 3.90553 3.74106
# Velocity P-wave (km/s) = 6.25189 7.21611 6.75123
#
# Compressibility (1/GPa) = 0.01989447
#
# Stress axis : x y z
#
# Youngs Moduli (GPa) = 147.63717 120.58875 60.50609
#
# Poissons Ratio (x) = 0.41414 0.00858
# Poissons Ratio (y) = 0.50703 0.13755
# Poissons Ratio (z) = 0.02092 0.27414
#
# Static dielectric constant tensor:
#      x y z
#    x 1.833420 0.000000 0.000000 
#    y 0.000000 1.936450 0.000000 
#    z 0.000000 0.000000 2.182130 
# 
# From -- ./inp_files/33931.got.cif
#   From: 2010.05.17/outbox.cif.g08.bks.cpg/sg70_17_cif.got.tgz:33931.got - 2010.06.03 15:57:51.
