data_PCOD9515587
_publ_section_title
;
Structure prediction by ZEFSAII (Michael W. Deem and Ramdas Pophale) SiO2 
 PCOD9515587
Probable space group: F D D D
;
_chemical_formula_sum "Si O2"
_cell_formula_units_Z 240
_cell_length_a 20.139173
_cell_length_b 24.223355
_cell_length_c 23.882222
_cell_angle_alpha 90.000000
_cell_angle_beta 90.000000
_cell_angle_gamma 90.000000
_cell_volume 11650.663464
_symmetry_space_group_name_H-M "F D D D"
_symmetry_group_IT_number 70
_space_group.IT_coordinate_system_code '2'
_symmetry_cell_setting 'orthorhombic'
loop_
_space_group_symop_operation_xyz
x,y,z
1/4-x,1/4-y,z
x,1/4-y,1/4-z
1/4-x,y,1/4-z
-x,-y,-z
3/4+x,3/4+y,-z
-x,3/4+y,3/4+z
3/4+x,-y,3/4+z
x,1/2+y,1/2+z
1/4-x,3/4-y,1/2+z
x,3/4-y,3/4-z
1/4-x,1/2+y,3/4-z
-x,1/2-y,1/2-z
3/4+x,1/4+y,1/2-z
-x,1/4+y,1/4+z
3/4+x,1/2-y,1/4+z
1/2+x,y,1/2+z
3/4-x,1/4-y,1/2+z
1/2+x,1/4-y,3/4-z
3/4-x,y,3/4-z
1/2-x,-y,1/2-z
1/4+x,3/4+y,1/2-z
1/2-x,3/4+y,1/4+z
1/4+x,-y,1/4+z
1/2+x,1/2+y,z
3/4-x,3/4-y,z
1/2+x,3/4-y,1/4-z
3/4-x,1/2+y,1/4-z
1/2-x,1/2-y,-z
1/4+x,1/4+y,-z
1/2-x,1/4+y,3/4+z
1/4+x,1/2-y,3/4+z
loop_
_atom_site_type_symbol
_atom_site_label
_atom_site_fract_x
_atom_site_fract_y
_atom_site_fract_z
Si Si1 0.212414 0.875000 0.375000
Si Si2 0.549745 0.701226 0.603773
Si Si3 0.745658 0.340985 0.959541
Si Si4 0.672663 0.800635 0.173905
Si Si5 0.074514 0.573609 0.699039
Si Si6 0.109226 0.882723 0.981457
Si Si7 0.244499 0.815696 0.193274
Si Si8 0.544951 0.121062 0.920144
O O1 0.259483 0.837526 0.337351
O O2 0.169868 0.904572 0.327014
O O3 0.625000 0.693487 0.625000
O O4 0.512854 0.704479 0.663503
O O5 0.522287 0.648538 0.568932
O O6 0.537933 0.755991 0.567622
O O7 0.666655 0.340109 0.965564
O O8 0.777277 0.340805 0.021167
O O9 0.625000 0.824651 0.125000
O O10 0.657702 0.736043 0.176326
O O11 0.647158 0.821962 0.233265
O O12 0.748780 0.822656 0.169232
O O13 0.125000 0.625000 0.692632
O O14 0.056078 0.565169 0.763881
O O15 0.056749 0.855111 0.023438
O O16 0.267435 0.839070 0.133856
O O17 0.625000 0.125000 0.916889
#
# Coordination Sequence:
#
# PCOD9515587 Si02
#       8
#    16  32  32  32  32  32  32  32
#     4  10  21  42  64  98 127 170 226 290 330 416
#     4  11  23  40  67  93 134 175 226 282 348 417
#     4  10  22  42  64  94 129 183 225 281 344 418
#     4  11  22  43  72  98 133 189 228 282 357 419
#     4  11  24  45  68  97 137 179 232 292 350 420
#     4  10  22  41  68  93 137 171 230 280 344 415
#     4  11  24  42  63 100 134 175 221 292 349 413
#     4  11  23  42  66  99 140 177 231 285 347 425
#
# _framework density 20.599685000000001
#
# number of rings (size 3 to 8) (size 9 to 14) (size 15 to 20)
#    0.000    1.333    1.333    5.400    3.733    0.533 
#   14.400    2.000    0.000    0.000    0.000    0.000 
#    0.000    0.000    0.000    0.000    0.000    0.000 
#
# Total GULP energy -334495.885070 kJ/mol
# GULP energy per Si atom -5574.931418 kJ/mol
# Density = 2.055280 g / cm^3
# Si number density = 20.599685 Si / 1000 Ang^3
#
#
#
# Elastic Constant Matrix: (Units=GPa)
#
#
# Indices 1 2 3 4 5 6 
#
# 1 104.6575 13.4758 42.4544 0.0000 0.0000 0.0000
# 2 13.4758 61.6009 22.0837 0.0000 0.0000 0.0000
# 3 42.4544 22.0837 166.3079 0.0000 0.0000 0.0000
# 4 0.0000 0.0000 0.0000 3.4414 0.0000 0.0000
# 5 0.0000 0.0000 0.0000 0.0000 36.7051 0.0000
# 6 0.0000 0.0000 0.0000 0.0000 0.0000 12.9133
#
#
#
# Elastic Compliance Matrix: (Units=1/GPa)
#
#
# Indices 1 2 3 4 5 6 
#
# 1 0.010779 -0.001440 -0.002560 0.000000 0.000000 0.000000
# 2 -0.001440 0.017237 -0.001921 0.000000 0.000000 0.000000
# 3 -0.002560 -0.001921 0.006922 0.000000 0.000000 0.000000
# 4 0.000000 0.000000 0.000000 0.290577 0.000000 0.000000
# 5 0.000000 0.000000 0.000000 0.000000 0.027244 0.000000
# 6 0.000000 0.000000 0.000000 0.000000 0.000000 0.077439
#
#
# Mechanical properties :
#
#
# Convention : Reuss Voigt Hill
#
# Bulk Modulus (GPa) = 43.30046 54.28823 48.79435
# Shear Modulus (GPa) = 11.11752 27.58212 19.34982
#
# Velocity S-wave (km/s) = 2.32565 3.66315 3.06817
# Velocity P-wave (km/s) = 5.31762 6.65602 6.02411
#
# Compressibility (1/GPa) = 0.02309444
#
# Stress axis : x y z
#
# Youngs Moduli (GPa) = 92.77266 58.01354 144.47373
#
# Poissons Ratio (x) = 0.08355 0.36991
# Poissons Ratio (y) = 0.13360 0.27758
# Poissons Ratio (z) = 0.23753 0.11146
#
# Static dielectric constant tensor:
#      x y z
#    x 1.786460 0.000000 0.000000 
#    y 0.000000 1.667780 0.000000 
#    z 0.000000 0.000000 1.744710 
# 
# From -- ./inp_files/53157.got.cif
#   From: 2010.05.17/outbox.cif.g08.bks.cpg/sg70_27_cif.got.tgz:53157.got - 2010.06.03 15:57:51.
