data_PCOD9515526
_publ_section_title
;
Structure prediction by ZEFSAII (Michael W. Deem and Ramdas Pophale) SiO2 
 PCOD9515526
Probable space group: F D D D
;
_chemical_formula_sum "Si O2"
_cell_formula_units_Z 136
_cell_length_a 17.093464
_cell_length_b 12.318372
_cell_length_c 24.590231
_cell_angle_alpha 90.000000
_cell_angle_beta 90.000000
_cell_angle_gamma 90.000000
_cell_volume 5177.808752
_symmetry_space_group_name_H-M "F D D D"
_symmetry_group_IT_number 70
_space_group.IT_coordinate_system_code '2'
_symmetry_cell_setting 'orthorhombic'
loop_
_space_group_symop_operation_xyz
x,y,z
1/4-x,1/4-y,z
x,1/4-y,1/4-z
1/4-x,y,1/4-z
-x,-y,-z
3/4+x,3/4+y,-z
-x,3/4+y,3/4+z
3/4+x,-y,3/4+z
x,1/2+y,1/2+z
1/4-x,3/4-y,1/2+z
x,3/4-y,3/4-z
1/4-x,1/2+y,3/4-z
-x,1/2-y,1/2-z
3/4+x,1/4+y,1/2-z
-x,1/4+y,1/4+z
3/4+x,1/2-y,1/4+z
1/2+x,y,1/2+z
3/4-x,1/4-y,1/2+z
1/2+x,1/4-y,3/4-z
3/4-x,y,3/4-z
1/2-x,-y,1/2-z
1/4+x,3/4+y,1/2-z
1/2-x,3/4+y,1/4+z
1/4+x,-y,1/4+z
1/2+x,1/2+y,z
3/4-x,3/4-y,z
1/2+x,3/4-y,1/4-z
3/4-x,1/2+y,1/4-z
1/2-x,1/2-y,-z
1/4+x,1/4+y,-z
1/2-x,1/4+y,3/4+z
1/4+x,1/2-y,3/4+z
loop_
_atom_site_type_symbol
_atom_site_label
_atom_site_fract_x
_atom_site_fract_y
_atom_site_fract_z
Si Si1 0.718147 0.463718 0.138448
Si Si2 0.998136 0.401538 0.280898
Si Si3 0.995477 0.982731 0.579737
Si Si4 0.169732 0.396179 0.488428
Si Si5 0.875000 0.875000 0.375000
O O1 0.625000 0.450747 0.125000
O O2 0.751901 0.532736 0.087994
O O3 0.727382 0.533897 0.193014
O O4 0.761018 0.347939 0.130991
O O5 0.080818 0.389556 0.250240
O O6 0.937964 0.475751 0.245490
O O7 0.014972 0.905386 0.528705
O O8 0.073709 0.049452 0.588075
O O9 0.934723 0.077557 0.566654
#
# Coordination Sequence:
#
# PCOD9515526 Si02
#       5
#    32  32  32  32   8
#     4  10  21  43  68  96 135 197 216 283 349 448
#     4  10  21  40  72  94 145 176 242 278 370 409
#     4  10  22  39  70  94 140 172 238 277 370 394
#     4  10  22  42  67 104 131 186 222 313 336 430
#     4  12  20  36  68 102 128 176 234 296 332 454
#
# _framework density 26.265937000000001
#
# number of rings (size 3 to 8) (size 9 to 14) (size 15 to 20)
#    0.000    1.882    1.176    2.824    0.000    9.412 
#    0.000   10.588   15.529    0.000    0.000    0.000 
#    0.000    0.000    0.000    0.000    0.000    0.000 
#
# Total GULP energy -189613.195930 kJ/mol
# GULP energy per Si atom -5576.858704 kJ/mol
# Density = 2.620615 g / cm^3
# Si number density = 26.265937 Si / 1000 Ang^3
#
#
#
# Elastic Constant Matrix: (Units=GPa)
#
#
# Indices 1 2 3 4 5 6 
#
# 1 76.0496 34.9839 16.5218 0.0000 0.0000 0.0000
# 2 34.9839 191.1128 65.3286 0.0000 0.0000 0.0000
# 3 16.5218 65.3286 89.0122 0.0000 0.0000 0.0000
# 4 0.0000 0.0000 0.0000 46.3185 0.0000 0.0000
# 5 0.0000 0.0000 0.0000 0.0000 21.2298 0.0000
# 6 0.0000 0.0000 0.0000 0.0000 0.0000 27.4911
#
#
#
# Elastic Compliance Matrix: (Units=1/GPa)
#
#
# Indices 1 2 3 4 5 6 
#
# 1 0.014423 -0.002303 -0.000987 0.000000 0.000000 0.000000
# 2 -0.002303 0.007353 -0.004969 0.000000 0.000000 0.000000
# 3 -0.000987 -0.004969 0.015064 0.000000 0.000000 0.000000
# 4 0.000000 0.000000 0.000000 0.021590 0.000000 0.000000
# 5 0.000000 0.000000 0.000000 0.000000 0.047104 0.000000
# 6 0.000000 0.000000 0.000000 0.000000 0.000000 0.036375
#
#
# Mechanical properties :
#
#
# Convention : Reuss Voigt Hill
#
# Bulk Modulus (GPa) = 49.20602 65.53815 57.37208
# Shear Modulus (GPa) = 30.26633 34.96391 32.61512
#
# Velocity S-wave (km/s) = 3.39824 3.65245 3.52764
# Velocity P-wave (km/s) = 5.84567 6.54165 6.20343
#
# Compressibility (1/GPa) = 0.02032272
#
# Stress axis : x y z
#
# Youngs Moduli (GPa) = 69.33342 136.00715 66.38173
#
# Poissons Ratio (x) = 0.31320 0.06552
# Poissons Ratio (y) = 0.15966 0.32984
# Poissons Ratio (z) = 0.06843 0.67580
#
# Static dielectric constant tensor:
#      x y z
#    x 2.125190 0.000000 0.000000 
#    y 0.000000 2.011510 0.000000 
#    z 0.000000 0.000000 1.553900 
# 
# From -- ./inp_files/60172.got.cif
#   From: 2010.05.17/outbox.cif.g08.bks.cpg/sg70_31_cif.got.tgz:60172.got - 2010.06.03 15:57:51.
