data_PCOD9515743
_publ_section_title
;
Structure prediction by ZEFSAII (Michael W. Deem and Ramdas Pophale) SiO2 
 PCOD9515743
Probable space group: F D D D
;
_chemical_formula_sum "Si O2"
_cell_formula_units_Z 168
_cell_length_a 15.623090
_cell_length_b 24.544032
_cell_length_c 20.223927
_cell_angle_alpha 90.000000
_cell_angle_beta 90.000000
_cell_angle_gamma 90.000000
_cell_volume 7754.938037
_symmetry_space_group_name_H-M "F D D D"
_symmetry_group_IT_number 70
_space_group.IT_coordinate_system_code '2'
_symmetry_cell_setting 'orthorhombic'
loop_
_space_group_symop_operation_xyz
x,y,z
1/4-x,1/4-y,z
x,1/4-y,1/4-z
1/4-x,y,1/4-z
-x,-y,-z
3/4+x,3/4+y,-z
-x,3/4+y,3/4+z
3/4+x,-y,3/4+z
x,1/2+y,1/2+z
1/4-x,3/4-y,1/2+z
x,3/4-y,3/4-z
1/4-x,1/2+y,3/4-z
-x,1/2-y,1/2-z
3/4+x,1/4+y,1/2-z
-x,1/4+y,1/4+z
3/4+x,1/2-y,1/4+z
1/2+x,y,1/2+z
3/4-x,1/4-y,1/2+z
1/2+x,1/4-y,3/4-z
3/4-x,y,3/4-z
1/2-x,-y,1/2-z
1/4+x,3/4+y,1/2-z
1/2-x,3/4+y,1/4+z
1/4+x,-y,1/4+z
1/2+x,1/2+y,z
3/4-x,3/4-y,z
1/2+x,3/4-y,1/4-z
3/4-x,1/2+y,1/4-z
1/2-x,1/2-y,-z
1/4+x,1/4+y,-z
1/2-x,1/4+y,3/4+z
1/4+x,1/2-y,3/4+z
loop_
_atom_site_type_symbol
_atom_site_label
_atom_site_fract_x
_atom_site_fract_y
_atom_site_fract_z
Si Si1 0.875000 0.875000 0.375000
Si Si2 0.000247 0.313545 0.771157
Si Si3 0.161677 0.743120 0.699871
Si Si4 0.692584 0.903186 0.944991
Si Si5 0.460877 0.646564 0.414883
Si Si6 0.449439 0.830122 0.213416
O O1 0.933135 0.913622 0.423776
O O2 0.000000 0.250000 0.750000
O O3 0.095694 0.328012 0.796341
O O4 0.992735 0.348629 0.703492
O O5 0.125000 0.740727 0.625000
O O6 0.243298 0.703920 0.703325
O O7 0.187128 0.804818 0.714406
O O8 0.089814 0.721329 0.749591
O O9 0.706558 0.875000 0.875000
O O10 0.723565 0.858223 0.997250
O O11 0.375000 0.628090 0.375000
O O12 0.520435 0.676198 0.361054
O O13 0.375000 0.875000 0.214621
#
# Coordination Sequence:
#
# PCOD9515743 Si02
#       6
#     8  32  32  32  32  32
#     4  12  32  56  76 108 146 200 258 308 370 444
#     4  12  30  52  77 103 144 196 255 307 359 437
#     4  10  22  38  71 111 151 190 231 298 365 443
#     4  11  21  43  70 104 145 193 242 293 370 430
#     4  11  25  45  68 107 146 185 248 295 364 430
#     4  10  22  40  69 106 149 190 232 296 361 431
#
# _framework density 21.663615
#
# number of rings (size 3 to 8) (size 9 to 14) (size 15 to 20)
#    0.000    1.143    4.762    0.000    5.333    4.571 
#    3.429    0.000    0.000    0.000    0.000    0.000 
#    0.000    0.000    0.000    0.000    0.000    0.000 
#
# Total GULP energy -234794.945552 kJ/mol
# GULP energy per Si atom -5590.355846 kJ/mol
# Density = 2.161431 g / cm^3
# Si number density = 21.663615 Si / 1000 Ang^3
#
#
#
# Elastic Constant Matrix: (Units=GPa)
#
#
# Indices 1 2 3 4 5 6 
#
# 1 134.4486 60.4699 46.3791 0.0000 0.0000 0.0000
# 2 60.4699 163.3047 64.0601 0.0000 0.0000 0.0000
# 3 46.3791 64.0601 95.8816 0.0000 0.0000 0.0000
# 4 0.0000 0.0000 0.0000 3128.2655 0.0000 0.0000
# 5 0.0000 0.0000 0.0000 0.0000 45.9589 0.0000
# 6 0.0000 0.0000 0.0000 0.0000 0.0000 43.1624
#
#
#
# Elastic Compliance Matrix: (Units=1/GPa)
#
#
# Indices 1 2 3 4 5 6 
#
# 1 0.009542 -0.002335 -0.003056 0.000000 0.000000 0.000000
# 2 -0.002335 0.008870 -0.004797 0.000000 0.000000 0.000000
# 3 -0.003056 -0.004797 0.015112 0.000000 0.000000 0.000000
# 4 0.000000 0.000000 0.000000 0.000320 0.000000 0.000000
# 5 0.000000 0.000000 0.000000 0.000000 0.021759 0.000000
# 6 0.000000 0.000000 0.000000 0.000000 0.000000 0.023168
#
#
# Mechanical properties :
#
#
# Convention : Reuss Voigt Hill
#
# Bulk Modulus (GPa) = 76.04642 81.71703 78.88172
# Shear Modulus (GPa) = 48.29625 658.32573 353.31099
#
# Velocity S-wave (km/s) = 4.72674 17.45122 12.78451
# Velocity P-wave (km/s) = 8.06033 21.06806 15.95042
#
# Compressibility (1/GPa) = 0.01314986
#
# Stress axis : x y z
#
# Youngs Moduli (GPa) = 104.80091 112.74478 66.17094
#
# Poissons Ratio (x) = 0.26321 0.20220
# Poissons Ratio (y) = 0.24466 0.31740
# Poissons Ratio (z) = 0.32025 0.54080
#
# Static dielectric constant tensor:
#      x y z
#    x 1.830030 0.000000 0.000000 
#    y 0.000000 1.774080 0.000000 
#    z 0.000000 0.000000 0.850460 
# 
# From -- ./inp_files/42840.got.cif
#   From: 2010.05.17/outbox.cif.g08.bks.cpg/sg70_22_cif.got.tgz:42840.got - 2010.06.03 15:57:51.
