data_PCOD9515357
_publ_section_title
;
Structure prediction by ZEFSAII (Michael W. Deem and Ramdas Pophale) SiO2 
 PCOD9515357
Probable space group: F D D D
;
_chemical_formula_sum "Si O2"
_cell_formula_units_Z 112
_cell_length_a 35.365474
_cell_length_b 11.119177
_cell_length_c 12.248500
_cell_angle_alpha 90.000000
_cell_angle_beta 90.000000
_cell_angle_gamma 90.000000
_cell_volume 4816.538470
_symmetry_space_group_name_H-M "F D D D"
_symmetry_group_IT_number 70
_space_group.IT_coordinate_system_code '2'
_symmetry_cell_setting 'orthorhombic'
loop_
_space_group_symop_operation_xyz
x,y,z
1/4-x,1/4-y,z
x,1/4-y,1/4-z
1/4-x,y,1/4-z
-x,-y,-z
3/4+x,3/4+y,-z
-x,3/4+y,3/4+z
3/4+x,-y,3/4+z
x,1/2+y,1/2+z
1/4-x,3/4-y,1/2+z
x,3/4-y,3/4-z
1/4-x,1/2+y,3/4-z
-x,1/2-y,1/2-z
3/4+x,1/4+y,1/2-z
-x,1/4+y,1/4+z
3/4+x,1/2-y,1/4+z
1/2+x,y,1/2+z
3/4-x,1/4-y,1/2+z
1/2+x,1/4-y,3/4-z
3/4-x,y,3/4-z
1/2-x,-y,1/2-z
1/4+x,3/4+y,1/2-z
1/2-x,3/4+y,1/4+z
1/4+x,-y,1/4+z
1/2+x,1/2+y,z
3/4-x,3/4-y,z
1/2+x,3/4-y,1/4-z
3/4-x,1/2+y,1/4-z
1/2-x,1/2-y,-z
1/4+x,1/4+y,-z
1/2-x,1/4+y,3/4+z
1/4+x,1/2-y,3/4+z
loop_
_atom_site_type_symbol
_atom_site_label
_atom_site_fract_x
_atom_site_fract_y
_atom_site_fract_z
Si Si1 0.603114 0.732156 0.903597
Si Si2 0.375000 0.567963 0.875000
Si Si3 0.532800 0.632105 0.433883
Si Si4 0.795020 0.193528 0.865751
O O1 0.625000 0.625000 0.836133
O O2 0.560798 0.678961 0.903508
O O3 0.601283 0.875000 0.875000
O O4 0.626128 0.742629 0.015194
O O5 0.413451 0.642979 0.866701
O O6 0.543967 0.755057 0.493108
O O7 0.490847 0.641778 0.386130
O O8 0.537114 0.541305 0.538167
#
# Coordination Sequence:
#
# PCOD9515357 Si02
#       4
#    32  16  32  32
#     4  12  25  44  68 101 141 188 240 298 358 428
#     4  12  23  41  66 100 143 188 243 294 365 426
#     4  10  21  38  65 101 142 184 240 296 354 420
#     4  10  21  37  67 104 140 188 237 299 350 427
#
# _framework density 23.253212999999999
#
# number of rings (size 3 to 8) (size 9 to 14) (size 15 to 20)
#    0.000    1.143    2.857    3.857    4.000    1.143 
#    0.000    1.429    0.000    0.000    0.000    0.000 
#    0.000    0.000    0.000    0.000    0.000    0.000 
#
# Total GULP energy -155941.071937 kJ/mol
# GULP energy per Si atom -5569.323998 kJ/mol
# Density = 2.320029 g / cm^3
# Si number density = 23.253213 Si / 1000 Ang^3
#
#
#
# Elastic Constant Matrix: (Units=GPa)
#
#
# Indices 1 2 3 4 5 6 
#
# 1 171.1246 66.5112 14.3058 0.0000 0.0000 0.0000
# 2 66.5112 95.8542 14.4485 0.0000 0.0000 0.0000
# 3 14.3058 14.4485 61.3949 0.0000 0.0000 0.0000
# 4 0.0000 0.0000 0.0000 51.6696 0.0000 0.0000
# 5 0.0000 0.0000 0.0000 0.0000 34.7487 0.0000
# 6 0.0000 0.0000 0.0000 0.0000 0.0000 -11.4092
#
#
#
# Elastic Compliance Matrix: (Units=1/GPa)
#
#
# Indices 1 2 3 4 5 6 
#
# 1 0.008022 -0.005479 -0.000580 0.000000 0.000000 0.000000
# 2 -0.005479 0.014558 -0.002149 0.000000 0.000000 0.000000
# 3 -0.000580 -0.002149 0.016929 0.000000 0.000000 0.000000
# 4 0.000000 0.000000 0.000000 0.019354 0.000000 0.000000
# 5 0.000000 0.000000 0.000000 0.000000 0.028778 0.000000
# 6 0.000000 0.000000 0.000000 0.000000 0.000000 -0.087648
#
#
# Mechanical properties :
#
#
# Convention : Reuss Voigt Hill
#
# Bulk Modulus (GPa) = 43.30358 57.65610 50.47984
# Shear Modulus (GPa) = 207.42490 30.54237 118.98363
#
# Velocity S-wave (km/s) = 9.45496 3.62811 7.16099
# Velocity P-wave (km/s) = 11.74130 6.51150 9.49362
#
# Compressibility (1/GPa) = 0.02309278
#
# Stress axis : x y z
#
# Youngs Moduli (GPa) = 124.66450 68.69090 59.07041
#
# Poissons Ratio (x) = 0.37633 0.03425
# Poissons Ratio (y) = 0.68298 0.12697
# Poissons Ratio (z) = 0.07228 0.14765
#
# Static dielectric constant tensor:
#      x y z
#    x 1.868500 0.000000 0.000000 
#    y 0.000000 2.031440 0.000000 
#    z 0.000000 0.000000 1.986390 
# 
# From -- ./inp_files/30530.got.cif
#   From: 2010.05.17/outbox.cif.g08.bks.cpg/sg70_16_cif.got.tgz:30530.got - 2010.06.03 15:57:51.
