data_PCOD9515146
_publ_section_title
;
Structure prediction by ZEFSAII (Michael W. Deem and Ramdas Pophale) SiO2 
 PCOD9515146
Probable space group: F D D D
;
_chemical_formula_sum "Si O2"
_cell_formula_units_Z 144
_cell_length_a 9.806987
_cell_length_b 28.469382
_cell_length_c 25.526131
_cell_angle_alpha 90.000000
_cell_angle_beta 90.000000
_cell_angle_gamma 90.000000
_cell_volume 7126.866654
_symmetry_space_group_name_H-M "F D D D"
_symmetry_group_IT_number 70
_space_group.IT_coordinate_system_code '2'
_symmetry_cell_setting 'orthorhombic'
loop_
_space_group_symop_operation_xyz
x,y,z
1/4-x,1/4-y,z
x,1/4-y,1/4-z
1/4-x,y,1/4-z
-x,-y,-z
3/4+x,3/4+y,-z
-x,3/4+y,3/4+z
3/4+x,-y,3/4+z
x,1/2+y,1/2+z
1/4-x,3/4-y,1/2+z
x,3/4-y,3/4-z
1/4-x,1/2+y,3/4-z
-x,1/2-y,1/2-z
3/4+x,1/4+y,1/2-z
-x,1/4+y,1/4+z
3/4+x,1/2-y,1/4+z
1/2+x,y,1/2+z
3/4-x,1/4-y,1/2+z
1/2+x,1/4-y,3/4-z
3/4-x,y,3/4-z
1/2-x,-y,1/2-z
1/4+x,3/4+y,1/2-z
1/2-x,3/4+y,1/4+z
1/4+x,-y,1/4+z
1/2+x,1/2+y,z
3/4-x,3/4-y,z
1/2+x,3/4-y,1/4-z
3/4-x,1/2+y,1/4-z
1/2-x,1/2-y,-z
1/4+x,1/4+y,-z
1/2-x,1/4+y,3/4+z
1/4+x,1/2-y,3/4+z
loop_
_atom_site_type_symbol
_atom_site_label
_atom_site_fract_x
_atom_site_fract_y
_atom_site_fract_z
Si Si1 0.210608 0.882460 0.433376
Si Si2 0.891008 0.716377 0.315540
Si Si3 0.783752 0.113573 0.793837
Si Si4 0.125000 0.461422 0.625000
Si Si5 0.931928 0.740909 0.540819
O O1 0.155391 0.875000 0.375000
O O2 0.375000 0.875000 0.429935
O O3 0.166378 0.852212 0.484441
O O4 0.170258 0.935447 0.448257
O O5 0.875000 0.732424 0.375000
O O6 0.861542 0.660608 0.312442
O O7 0.793990 0.741204 0.272089
O O8 0.044993 0.729285 0.299791
O O9 0.625000 0.125000 0.789005
O O10 0.793416 0.072967 0.836352
O O11 0.211741 0.491438 0.583902
#
# Coordination Sequence:
#
# PCOD9515146 Si02
#       5
#    32  32  32  16  32
#     4   9  18  37  57  78 119 155 194 248 313 370
#     4  10  20  41  60  80 125 163 202 256 319 377
#     4  10  21  35  57  85 114 160 201 248 313 372
#     4  12  22  34  59  92 122 150 219 258 308 384
#     4  10  23  36  59  93 117 162 208 262 317 379
#
# _framework density 20.205233
#
# number of rings (size 3 to 8) (size 9 to 14) (size 15 to 20)
#    0.000    2.000    1.111    2.667    0.000    1.778 
#    0.000   12.222    0.000    3.333    0.000    0.000 
#    0.000    0.000    0.000    0.000    0.000    0.000 
#
# Total GULP energy -200421.541755 kJ/mol
# GULP energy per Si atom -5567.265049 kJ/mol
# Density = 2.015925 g / cm^3
# Si number density = 20.205233 Si / 1000 Ang^3
#
#
#
# Elastic Constant Matrix: (Units=GPa)
#
#
# Indices 1 2 3 4 5 6 
#
# 1 17.6735 0.9616 8.4874 0.0000 0.0000 0.0000
# 2 0.9616 39.7398 23.2172 0.0000 0.0000 0.0000
# 3 8.4874 23.2172 240.4291 0.0000 0.0000 0.0000
# 4 0.0000 0.0000 0.0000 18.3200 0.0000 0.0000
# 5 0.0000 0.0000 0.0000 0.0000 30.3813 0.0000
# 6 0.0000 0.0000 0.0000 0.0000 0.0000 14.1622
#
#
#
# Elastic Compliance Matrix: (Units=1/GPa)
#
#
# Indices 1 2 3 4 5 6 
#
# 1 0.057559 -0.000218 -0.002011 0.000000 0.000000 0.000000
# 2 -0.000218 0.026669 -0.002568 0.000000 0.000000 0.000000
# 3 -0.002011 -0.002568 0.004478 0.000000 0.000000 0.000000
# 4 0.000000 0.000000 0.000000 0.054585 0.000000 0.000000
# 5 0.000000 0.000000 0.000000 0.000000 0.032915 0.000000
# 6 0.000000 0.000000 0.000000 0.000000 0.000000 0.070610
#
#
# Mechanical properties :
#
#
# Convention : Reuss Voigt Hill
#
# Bulk Modulus (GPa) = 12.64002 40.35274 26.49638
# Shear Modulus (GPa) = 17.68151 30.25112 23.96632
#
# Velocity S-wave (km/s) = 2.96141 3.87355 3.44778
# Velocity P-wave (km/s) = 4.23824 6.32619 5.38439
#
# Compressibility (1/GPa) = 0.07911382
#
# Stress axis : x y z
#
# Youngs Moduli (GPa) = 17.37335 37.49669 223.30597
#
# Poissons Ratio (x) = 0.00817 0.44904
# Poissons Ratio (y) = 0.00379 0.57337
# Poissons Ratio (z) = 0.03494 0.09628
#
# Static dielectric constant tensor:
#      x y z
#    x 1.709050 0.000000 0.000000 
#    y 0.000000 1.806090 0.000000 
#    z 0.000000 0.000000 1.802570 
# 
# From -- ./inp_files/20666.got.cif
#   From: 2010.05.17/outbox.cif.g08.bks.cpg/sg70_11_cif.got.tgz:20666.got - 2010.06.03 15:57:51.
