data_PCOD9515378
_publ_section_title
;
Structure prediction by ZEFSAII (Michael W. Deem and Ramdas Pophale) SiO2 
 PCOD9515378
Probable space group: F D D D
;
_chemical_formula_sum "Si O2"
_cell_formula_units_Z 128
_cell_length_a 28.402719
_cell_length_b 10.190183
_cell_length_c 25.543741
_cell_angle_alpha 90.000000
_cell_angle_beta 90.000000
_cell_angle_gamma 90.000000
_cell_volume 7393.096970
_symmetry_space_group_name_H-M "F D D D"
_symmetry_group_IT_number 70
_space_group.IT_coordinate_system_code '2'
_symmetry_cell_setting 'orthorhombic'
loop_
_space_group_symop_operation_xyz
x,y,z
1/4-x,1/4-y,z
x,1/4-y,1/4-z
1/4-x,y,1/4-z
-x,-y,-z
3/4+x,3/4+y,-z
-x,3/4+y,3/4+z
3/4+x,-y,3/4+z
x,1/2+y,1/2+z
1/4-x,3/4-y,1/2+z
x,3/4-y,3/4-z
1/4-x,1/2+y,3/4-z
-x,1/2-y,1/2-z
3/4+x,1/4+y,1/2-z
-x,1/4+y,1/4+z
3/4+x,1/2-y,1/4+z
1/2+x,y,1/2+z
3/4-x,1/4-y,1/2+z
1/2+x,1/4-y,3/4-z
3/4-x,y,3/4-z
1/2-x,-y,1/2-z
1/4+x,3/4+y,1/2-z
1/2-x,3/4+y,1/4+z
1/4+x,-y,1/4+z
1/2+x,1/2+y,z
3/4-x,3/4-y,z
1/2+x,3/4-y,1/4-z
3/4-x,1/2+y,1/4-z
1/2-x,1/2-y,-z
1/4+x,1/4+y,-z
1/2-x,1/4+y,3/4+z
1/4+x,1/2-y,3/4+z
loop_
_atom_site_type_symbol
_atom_site_label
_atom_site_fract_x
_atom_site_fract_y
_atom_site_fract_z
Si Si1 0.806055 0.782082 0.628728
Si Si2 0.375000 0.875000 0.531166
Si Si3 0.122464 0.364460 0.536954
Si Si4 0.805265 0.217674 0.878909
Si Si5 0.125000 0.625000 0.291298
O O1 0.814895 0.625000 0.625000
O O2 0.831287 0.841778 0.680064
O O3 0.750276 0.803191 0.626311
O O4 0.831078 0.847216 0.578997
O O5 0.369101 0.749880 0.493868
O O6 0.171562 0.338023 0.567881
O O7 0.082842 0.349705 0.581307
O O8 0.116447 0.249077 0.495229
O O9 0.814369 0.375000 0.875000
#
# Coordination Sequence:
#
# PCOD9515378 Si02
#       5
#    32  16  32  32  16
#     4  10  22  38  59  88 118 151 197 243 285 345
#     4  11  24  39  58  88 122 155 188 239 302 338
#     4  11  21  39  61  86 118 153 192 241 290 344
#     4  10  21  38  61  89 115 152 202 239 281 347
#     4  11  20  37  60  84 110 155 194 237 286 338
#
# _framework density 17.313447
#
# number of rings (size 3 to 8) (size 9 to 14) (size 15 to 20)
#    0.000    1.500    5.000    0.750    0.000    6.000 
#    0.000    2.500    0.000    0.000    0.000    0.000 
#    0.000    0.000    0.000    0.000    0.000    0.000 
#
# Total GULP energy -178632.614489 kJ/mol
# GULP energy per Si atom -5582.269203 kJ/mol
# Density = 1.727404 g / cm^3
# Si number density = 17.313447 Si / 1000 Ang^3
#
#
#
# Elastic Constant Matrix: (Units=GPa)
#
#
# Indices 1 2 3 4 5 6 
#
# 1 140.3400 59.6905 68.1742 0.0000 0.0000 0.0000
# 2 59.6905 150.7725 86.8075 0.0000 0.0000 0.0000
# 3 68.1742 86.8075 144.1366 0.0000 0.0000 0.0000
# 4 0.0000 0.0000 0.0000 49.0242 0.0000 0.0000
# 5 0.0000 0.0000 0.0000 0.0000 8.2114 0.0000
# 6 0.0000 0.0000 0.0000 0.0000 0.0000 2.6705
#
#
#
# Elastic Compliance Matrix: (Units=1/GPa)
#
#
# Indices 1 2 3 4 5 6 
#
# 1 0.009563 -0.001809 -0.003434 0.000000 0.000000 0.000000
# 2 -0.001809 0.010495 -0.005465 0.000000 0.000000 0.000000
# 3 -0.003434 -0.005465 0.011853 0.000000 0.000000 0.000000
# 4 0.000000 0.000000 0.000000 0.020398 0.000000 0.000000
# 5 0.000000 0.000000 0.000000 0.000000 0.121782 0.000000
# 6 0.000000 0.000000 0.000000 0.000000 0.000000 0.374462
#
#
# Mechanical properties :
#
#
# Convention : Reuss Voigt Hill
#
# Bulk Modulus (GPa) = 95.27552 96.06594 95.67073
# Shear Modulus (GPa) = 8.71887 26.68634 17.70261
#
# Velocity S-wave (km/s) = 2.24651 3.93028 3.20109
# Velocity P-wave (km/s) = 7.86628 8.72943 8.30907
#
# Compressibility (1/GPa) = 0.01049588
#
# Stress axis : x y z
#
# Youngs Moduli (GPa) = 104.57006 95.28030 84.36396
#
# Poissons Ratio (x) = 0.17237 0.28967
# Poissons Ratio (y) = 0.18917 0.46107
# Poissons Ratio (z) = 0.35905 0.52073
#
# Static dielectric constant tensor:
#      x y z
#    x 1.575350 0.000000 0.000000 
#    y 0.000000 1.431250 0.000000 
#    z 0.000000 0.000000 1.574410 
# 
# From -- ./inp_files/12019.got.cif
#   From: 2010.05.17/outbox.cif.g08.bks.cpg/sg70_7_cif.got.tgz:12019.got - 2010.06.03 15:57:51.
