data_PCOD9515285
_publ_section_title
;
Structure prediction by ZEFSAII (Michael W. Deem and Ramdas Pophale) SiO2 
 PCOD9515285
Probable space group: F D D D
;
_chemical_formula_sum "Si O2"
_cell_formula_units_Z 112
_cell_length_a 26.777659
_cell_length_b 35.166287
_cell_length_c 5.153087
_cell_angle_alpha 90.000000
_cell_angle_beta 90.000000
_cell_angle_gamma 90.000000
_cell_volume 4852.511772
_symmetry_space_group_name_H-M "F D D D"
_symmetry_group_IT_number 70
_space_group.IT_coordinate_system_code '2'
_symmetry_cell_setting 'orthorhombic'
loop_
_space_group_symop_operation_xyz
x,y,z
1/4-x,1/4-y,z
x,1/4-y,1/4-z
1/4-x,y,1/4-z
-x,-y,-z
3/4+x,3/4+y,-z
-x,3/4+y,3/4+z
3/4+x,-y,3/4+z
x,1/2+y,1/2+z
1/4-x,3/4-y,1/2+z
x,3/4-y,3/4-z
1/4-x,1/2+y,3/4-z
-x,1/2-y,1/2-z
3/4+x,1/4+y,1/2-z
-x,1/4+y,1/4+z
3/4+x,1/2-y,1/4+z
1/2+x,y,1/2+z
3/4-x,1/4-y,1/2+z
1/2+x,1/4-y,3/4-z
3/4-x,y,3/4-z
1/2-x,-y,1/2-z
1/4+x,3/4+y,1/2-z
1/2-x,3/4+y,1/4+z
1/4+x,-y,1/4+z
1/2+x,1/2+y,z
3/4-x,3/4-y,z
1/2+x,3/4-y,1/4-z
3/4-x,1/2+y,1/4-z
1/2-x,1/2-y,-z
1/4+x,1/4+y,-z
1/2-x,1/4+y,3/4+z
1/4+x,1/2-y,3/4+z
loop_
_atom_site_type_symbol
_atom_site_label
_atom_site_fract_x
_atom_site_fract_y
_atom_site_fract_z
Si Si1 0.909463 0.125000 0.625000
Si Si2 0.180181 0.141604 0.370605
Si Si3 0.212780 0.034108 0.049383
Si Si4 0.277604 0.548167 0.048066
O O1 0.875000 0.116175 0.375000
O O2 0.941631 0.162857 0.553034
O O3 0.125000 0.125000 0.373784
O O4 0.205220 0.125000 0.625000
O O5 0.174631 0.185868 0.321064
O O6 0.208864 0.125000 0.125000
O O7 0.232239 0.046030 0.335178
O O8 0.194562 0.990880 0.035885
O O9 0.257748 0.040355 0.840654
#
# Coordination Sequence:
#
# PCOD9515285 Si02
#       4
#    16  32  32  32
#     4  12  26  46  64  96 129 172 225 264 330 382
#     4  10  21  36  55  93 130 160 195 243 317 384
#     4  10  21  41  65  97 123 162 216 256 324 373
#     4  10  23  41  67  91 123 167 214 271 306 375
#
# _framework density 23.080832000000001
#
# number of rings (size 3 to 8) (size 9 to 14) (size 15 to 20)
#    0.000    1.714    0.000    3.429    6.000    0.000 
#   10.286    0.000    0.000    0.000    0.000    0.000 
#    0.000    0.000    0.000    0.000    0.000    0.000 
#
# Total GULP energy -156080.704178 kJ/mol
# GULP energy per Si atom -5574.310864 kJ/mol
# Density = 2.302830 g / cm^3
# Si number density = 23.080832 Si / 1000 Ang^3
#
#
#
# Elastic Constant Matrix: (Units=GPa)
#
#
# Indices 1 2 3 4 5 6 
#
# 1 54.0145 62.1610 12.6988 0.0390 -0.1027 -0.1014
# 2 62.1610 237.5054 26.8218 0.0452 -0.0384 -0.0185
# 3 12.6988 26.8218 175.4047 0.0568 -0.1054 -0.1592
# 4 0.0390 0.0452 0.0568 31.5760 0.0099 0.0132
# 5 -0.1027 -0.0384 -0.1054 0.0099 18.8767 0.1162
# 6 -0.1014 -0.0185 -0.1592 0.0132 0.1162 24.9609
#
#
#
# Elastic Compliance Matrix: (Units=1/GPa)
#
#
# Indices 1 2 3 4 5 6 
#
# 1 0.026626 -0.006870 -0.000877 -0.000022 0.000125 0.000097
# 2 -0.006870 0.006057 -0.000429 0.000001 -0.000027 -0.000026
# 3 -0.000877 -0.000429 0.005830 -0.000009 0.000027 0.000033
# 4 -0.000022 0.000001 -0.000009 0.031670 -0.000017 -0.000017
# 5 0.000125 -0.000027 0.000027 -0.000017 0.052978 -0.000246
# 6 0.000097 -0.000026 0.000033 -0.000017 -0.000246 0.040064
#
#
# Mechanical properties :
#
#
# Convention : Reuss Voigt Hill
#
# Bulk Modulus (GPa) = 45.12242 74.47644 59.79943
# Shear Modulus (GPa) = 26.74328 39.43224 33.08776
#
# Velocity S-wave (km/s) = 3.40763 4.13781 3.79035
# Velocity P-wave (km/s) = 5.92240 7.42741 6.71719
#
# Compressibility (1/GPa) = 0.02216193
#
# Stress axis : x y z
#
# Youngs Moduli (GPa) = 37.55757 165.10399 171.51999
#
# Poissons Ratio (x) = 1.13419 0.15043
# Poissons Ratio (y) = 0.25800 0.07356
# Poissons Ratio (z) = 0.03294 0.07081
#
# Static dielectric constant tensor:
#      x y z
#    x 1.825260 0.000190 0.000450 
#    y 0.000190 1.969790 -0.000550 
#    z 0.000450 -0.000550 2.188840 
# 
# From -- ./inp_files/4048.got.cif
#   From: 2010.05.17/outbox.cif.g08.bks.cpg/sg70_3_cif.got.tgz:4048.got - 2010.06.03 15:57:51.
