data_PCOD9515246
_publ_section_title
;
Structure prediction by ZEFSAII (Michael W. Deem and Ramdas Pophale) SiO2 
 PCOD9515246
Probable space group: F D D D
;
_chemical_formula_sum "Si O2"
_cell_formula_units_Z 168
_cell_length_a 20.074628
_cell_length_b 26.050231
_cell_length_c 14.731154
_cell_angle_alpha 90.000000
_cell_angle_beta 90.000000
_cell_angle_gamma 90.000000
_cell_volume 7703.637784
_symmetry_space_group_name_H-M "F D D D"
_symmetry_group_IT_number 70
_space_group.IT_coordinate_system_code '2'
_symmetry_cell_setting 'orthorhombic'
loop_
_space_group_symop_operation_xyz
x,y,z
1/4-x,1/4-y,z
x,1/4-y,1/4-z
1/4-x,y,1/4-z
-x,-y,-z
3/4+x,3/4+y,-z
-x,3/4+y,3/4+z
3/4+x,-y,3/4+z
x,1/2+y,1/2+z
1/4-x,3/4-y,1/2+z
x,3/4-y,3/4-z
1/4-x,1/2+y,3/4-z
-x,1/2-y,1/2-z
3/4+x,1/4+y,1/2-z
-x,1/4+y,1/4+z
3/4+x,1/2-y,1/4+z
1/2+x,y,1/2+z
3/4-x,1/4-y,1/2+z
1/2+x,1/4-y,3/4-z
3/4-x,y,3/4-z
1/2-x,-y,1/2-z
1/4+x,3/4+y,1/2-z
1/2-x,3/4+y,1/4+z
1/4+x,-y,1/4+z
1/2+x,1/2+y,z
3/4-x,3/4-y,z
1/2+x,3/4-y,1/4-z
3/4-x,1/2+y,1/4-z
1/2-x,1/2-y,-z
1/4+x,1/4+y,-z
1/2-x,1/4+y,3/4+z
1/4+x,1/2-y,3/4+z
loop_
_atom_site_type_symbol
_atom_site_label
_atom_site_fract_x
_atom_site_fract_y
_atom_site_fract_z
Si Si1 0.762178 0.163877 0.041860
Si Si2 0.690517 0.989586 0.818435
Si Si3 0.375000 0.375000 0.875000
Si Si4 0.068130 0.724260 0.346418
Si Si5 0.865808 0.640982 0.018372
Si Si6 0.506801 0.072435 0.732632
O O1 0.744129 0.125000 0.125000
O O2 0.801481 0.216744 0.069157
O O3 0.816370 0.132768 0.980702
O O4 0.700277 0.185762 0.984972
O O5 0.640251 0.951737 0.764291
O O6 0.722175 0.959279 0.902624
O O7 0.750000 0.000000 0.750000
O O8 0.642938 0.031274 0.864929
O O9 0.424873 0.406532 0.810330
O O10 0.020223 0.710946 0.429650
O O11 0.871339 0.625000 0.125000
O O12 0.795408 0.616996 0.990995
#
# Coordination Sequence:
#
# PCOD9515246 Si02
#       6
#    32  32   8  32  32  32
#     4  10  20  45  68  96 138 185 239 294 354 442
#     4  11  21  42  68  99 141 178 235 306 366 449
#     4  12  20  40  68  92 138 180 204 298 360 420
#     4  11  23  38  71 102 132 186 240 297 365 437
#     4   9  17  40  66  86 131 180 222 284 359 431
#     4  11  22  39  61  97 130 172 235 286 362 432
#
# _framework density 21.807879
#
# number of rings (size 3 to 8) (size 9 to 14) (size 15 to 20)
#    0.000    1.524    8.571    1.143    0.000    0.762 
#    3.429    1.905    0.000    1.143    0.000    0.000 
#    0.000    0.000    0.000    0.000    0.000    0.000 
#
# Total GULP energy -234168.749444 kJ/mol
# GULP energy per Si atom -5575.446415 kJ/mol
# Density = 2.175824 g / cm^3
# Si number density = 21.807879 Si / 1000 Ang^3
#
#
#
# Elastic Constant Matrix: (Units=GPa)
#
#
# Indices 1 2 3 4 5 6 
#
# 1 121.3978 40.7723 37.3198 0.0000 0.0000 0.0000
# 2 40.7723 67.9463 35.6199 0.0000 0.0000 0.0000
# 3 37.3198 35.6199 81.3054 0.0000 0.0000 0.0000
# 4 0.0000 0.0000 0.0000 21.5241 0.0000 0.0000
# 5 0.0000 0.0000 0.0000 0.0000 21.4718 0.0000
# 6 0.0000 0.0000 0.0000 0.0000 0.0000 49.1513
#
#
#
# Elastic Compliance Matrix: (Units=1/GPa)
#
#
# Indices 1 2 3 4 5 6 
#
# 1 0.010767 -0.005024 -0.002741 0.000000 0.000000 0.000000
# 2 -0.005024 0.021450 -0.007091 0.000000 0.000000 0.000000
# 3 -0.002741 -0.007091 0.016664 0.000000 0.000000 0.000000
# 4 0.000000 0.000000 0.000000 0.046460 0.000000 0.000000
# 5 0.000000 0.000000 0.000000 0.000000 0.046573 0.000000
# 6 0.000000 0.000000 0.000000 0.000000 0.000000 0.020345
#
#
# Mechanical properties :
#
#
# Convention : Reuss Voigt Hill
#
# Bulk Modulus (GPa) = 52.16893 55.34148 53.75521
# Shear Modulus (GPa) = 25.20655 28.89194 27.04924
#
# Velocity S-wave (km/s) = 3.40346 3.64378 3.52567
# Velocity P-wave (km/s) = 6.27843 6.56771 6.42470
#
# Compressibility (1/GPa) = 0.01916850
#
# Stress axis : x y z
#
# Youngs Moduli (GPa) = 92.87218 46.62075 60.00909
#
# Poissons Ratio (x) = 0.23423 0.16450
# Poissons Ratio (y) = 0.46660 0.42552
# Poissons Ratio (z) = 0.25459 0.33059
#
# Static dielectric constant tensor:
#      x y z
#    x 1.890730 0.000000 0.000000 
#    y 0.000000 1.859670 0.000000 
#    z 0.000000 0.000000 1.830790 
# 
# From -- ./inp_files/27789.got.cif
#   From: 2010.05.17/outbox.cif.g08.bks.cpg/sg70_14_cif.got.tgz:27789.got - 2010.06.03 15:57:51.
