data_PCOD9515565
_publ_section_title
;
Structure prediction by ZEFSAII (Michael W. Deem and Ramdas Pophale) SiO2 
 PCOD9515565
Probable space group: F D D D
;
_chemical_formula_sum "Si O2"
_cell_formula_units_Z 208
_cell_length_a 27.926852
_cell_length_b 19.776735
_cell_length_c 16.440724
_cell_angle_alpha 90.000000
_cell_angle_beta 90.000000
_cell_angle_gamma 90.000000
_cell_volume 9080.243947
_symmetry_space_group_name_H-M "F D D D"
_symmetry_group_IT_number 70
_space_group.IT_coordinate_system_code '2'
_symmetry_cell_setting 'orthorhombic'
loop_
_space_group_symop_operation_xyz
x,y,z
1/4-x,1/4-y,z
x,1/4-y,1/4-z
1/4-x,y,1/4-z
-x,-y,-z
3/4+x,3/4+y,-z
-x,3/4+y,3/4+z
3/4+x,-y,3/4+z
x,1/2+y,1/2+z
1/4-x,3/4-y,1/2+z
x,3/4-y,3/4-z
1/4-x,1/2+y,3/4-z
-x,1/2-y,1/2-z
3/4+x,1/4+y,1/2-z
-x,1/4+y,1/4+z
3/4+x,1/2-y,1/4+z
1/2+x,y,1/2+z
3/4-x,1/4-y,1/2+z
1/2+x,1/4-y,3/4-z
3/4-x,y,3/4-z
1/2-x,-y,1/2-z
1/4+x,3/4+y,1/2-z
1/2-x,3/4+y,1/4+z
1/4+x,-y,1/4+z
1/2+x,1/2+y,z
3/4-x,3/4-y,z
1/2+x,3/4-y,1/4-z
3/4-x,1/2+y,1/4-z
1/2-x,1/2-y,-z
1/4+x,1/4+y,-z
1/2-x,1/4+y,3/4+z
1/4+x,1/2-y,3/4+z
loop_
_atom_site_type_symbol
_atom_site_label
_atom_site_fract_x
_atom_site_fract_y
_atom_site_fract_z
Si Si1 0.230502 0.453724 0.596047
Si Si2 0.975991 0.255102 0.571954
Si Si3 0.181374 0.547749 0.138862
Si Si4 0.574503 0.643173 0.357871
Si Si5 0.833765 0.125000 0.125000
Si Si6 0.924141 0.441414 0.423449
Si Si7 0.338677 0.666827 0.952140
O O1 0.216259 0.502839 0.523140
O O2 0.287223 0.443621 0.600622
O O3 0.208021 0.492894 0.671939
O O4 0.203985 0.383956 0.573240
O O5 0.954975 0.323998 0.604112
O O6 0.949247 0.190653 0.610218
O O7 0.032560 0.244220 0.582337
O O8 0.198373 0.625000 0.125000
O O9 0.125000 0.552715 0.125000
O O10 0.180950 0.493972 0.213982
O O11 0.625000 0.625000 0.398996
O O12 0.584602 0.671022 0.267079
O O13 0.859334 0.109967 0.211549
O O14 0.943270 0.375000 0.375000
O O15 0.875000 0.458243 0.375000
O O16 0.375000 0.665166 0.875000
#
# Coordination Sequence:
#
# PCOD9515565 Si02
#       7
#    32  32  32  32  16  32  32
#     4  11  23  40  69  98 135 179 230 291 353 424
#     4  11  22  43  66  98 137 176 236 289 341 427
#     4  10  21  41  70  99 139 190 231 288 357 421
#     4  12  24  43  65  98 132 181 232 288 354 425
#     4  10  24  42  71 106 132 194 241 280 362 442
#     4  11  20  41  72  91 129 179 232 283 355 426
#     4  10  22  43  72 104 143 183 236 300 360 428
#
# _framework density 22.906872
#
# number of rings (size 3 to 8) (size 9 to 14) (size 15 to 20)
#    0.000    1.231    5.385    0.923    0.000    3.077 
#    8.308    0.000    3.385    0.000    0.000    0.000 
#    0.000    0.000    0.000    0.000    0.000    0.000 
#
# Total GULP energy -289708.626735 kJ/mol
# GULP energy per Si atom -5571.319745 kJ/mol
# Density = 2.285474 g / cm^3
# Si number density = 22.906872 Si / 1000 Ang^3
#
#
#
# Elastic Constant Matrix: (Units=GPa)
#
#
# Indices 1 2 3 4 5 6 
#
# 1 102.8710 34.4143 19.1528 0.0000 0.0000 0.0000
# 2 34.4143 100.2022 18.3061 0.0000 0.0000 0.0000
# 3 19.1528 18.3061 97.3734 0.0000 0.0000 0.0000
# 4 0.0000 0.0000 0.0000 59.2258 0.0000 0.0000
# 5 0.0000 0.0000 0.0000 0.0000 10.2049 0.0000
# 6 0.0000 0.0000 0.0000 0.0000 0.0000 22.8865
#
#
#
# Elastic Compliance Matrix: (Units=1/GPa)
#
#
# Indices 1 2 3 4 5 6 
#
# 1 0.011199 -0.003566 -0.001532 0.000000 0.000000 0.000000
# 2 -0.003566 0.011471 -0.001455 0.000000 0.000000 0.000000
# 3 -0.001532 -0.001455 0.010845 0.000000 0.000000 0.000000
# 4 0.000000 0.000000 0.000000 0.016885 0.000000 0.000000
# 5 0.000000 0.000000 0.000000 0.000000 0.097992 0.000000
# 6 0.000000 0.000000 0.000000 0.000000 0.000000 0.043694
#
#
# Mechanical properties :
#
#
# Convention : Reuss Voigt Hill
#
# Bulk Modulus (GPa) = 49.00273 49.35479 49.17876
# Shear Modulus (GPa) = 23.58544 33.70167 28.64355
#
# Velocity S-wave (km/s) = 3.21225 3.83985 3.53999
# Velocity P-wave (km/s) = 5.93268 6.42276 6.18258
#
# Compressibility (1/GPa) = 0.02040703
#
# Stress axis : x y z
#
# Youngs Moduli (GPa) = 89.29110 87.17995 92.21115
#
# Poissons Ratio (x) = 0.31092 0.14130
# Poissons Ratio (y) = 0.31845 0.13416
# Poissons Ratio (z) = 0.13683 0.12684
#
# Static dielectric constant tensor:
#      x y z
#    x 1.840540 0.000000 0.000000 
#    y 0.000000 1.894670 0.000000 
#    z 0.000000 0.000000 1.937230 
# 
# From -- ./inp_files/38747.got.cif
#   From: 2010.05.17/outbox.cif.g08.bks.cpg/sg70_20_cif.got.tgz:38747.got - 2010.06.03 15:57:51.
