data_PCOD9515470
_publ_section_title
;
Structure prediction by ZEFSAII (Michael W. Deem and Ramdas Pophale) SiO2 
 PCOD9515470
Probable space group: F D D D
;
_chemical_formula_sum "Si O2"
_cell_formula_units_Z 176
_cell_length_a 10.694187
_cell_length_b 32.712386
_cell_length_c 26.153036
_cell_angle_alpha 90.000000
_cell_angle_beta 90.000000
_cell_angle_gamma 90.000000
_cell_volume 9149.178648
_symmetry_space_group_name_H-M "F D D D"
_symmetry_group_IT_number 70
_space_group.IT_coordinate_system_code '2'
_symmetry_cell_setting 'orthorhombic'
loop_
_space_group_symop_operation_xyz
x,y,z
1/4-x,1/4-y,z
x,1/4-y,1/4-z
1/4-x,y,1/4-z
-x,-y,-z
3/4+x,3/4+y,-z
-x,3/4+y,3/4+z
3/4+x,-y,3/4+z
x,1/2+y,1/2+z
1/4-x,3/4-y,1/2+z
x,3/4-y,3/4-z
1/4-x,1/2+y,3/4-z
-x,1/2-y,1/2-z
3/4+x,1/4+y,1/2-z
-x,1/4+y,1/4+z
3/4+x,1/2-y,1/4+z
1/2+x,y,1/2+z
3/4-x,1/4-y,1/2+z
1/2+x,1/4-y,3/4-z
3/4-x,y,3/4-z
1/2-x,-y,1/2-z
1/4+x,3/4+y,1/2-z
1/2-x,3/4+y,1/4+z
1/4+x,-y,1/4+z
1/2+x,1/2+y,z
3/4-x,3/4-y,z
1/2+x,3/4-y,1/4-z
3/4-x,1/2+y,1/4-z
1/2-x,1/2-y,-z
1/4+x,1/4+y,-z
1/2-x,1/4+y,3/4+z
1/4+x,1/2-y,3/4+z
loop_
_atom_site_type_symbol
_atom_site_label
_atom_site_fract_x
_atom_site_fract_y
_atom_site_fract_z
Si Si1 0.643820 0.672844 0.563764
Si Si2 0.844616 0.085000 0.592222
Si Si3 0.125000 0.625000 0.723070
Si Si4 0.307634 0.798982 0.533541
Si Si5 0.472221 0.731162 0.494745
Si Si6 0.227371 0.501700 0.882667
O O1 0.625000 0.625000 0.551274
O O2 0.625000 0.679022 0.625000
O O3 0.792251 0.678320 0.555450
O O4 0.552617 0.702998 0.532778
O O5 0.884153 0.125000 0.625000
O O6 0.721055 0.100220 0.563006
O O7 0.821813 0.044432 0.626103
O O8 0.059421 0.656081 0.761356
O O9 0.432443 0.776447 0.512490
O O10 0.169880 0.784733 0.514613
O O11 0.314109 0.785950 0.592709
O O12 0.542706 0.734802 0.440790
O O13 0.375000 0.497618 0.875000
#
# Coordination Sequence:
#
# PCOD9515470 Si02
#       6
#    32  32  16  32  32  32
#     4  11  22  38  59  90 125 164 208 258 327 380
#     4  12  23  37  64  94 129 160 215 277 319 383
#     4  12  23  40  62 100 124 164 221 276 322 382
#     4  10  22  38  67  89 129 163 216 269 322 385
#     4  10  21  41  63  90 121 171 211 262 327 393
#     4  10  21  40  62  91 120 166 208 258 324 379
#
# _framework density 19.236699999999999
#
# number of rings (size 3 to 8) (size 9 to 14) (size 15 to 20)
#    0.000    1.273    3.636    3.545    5.091    0.727 
#    1.636    0.000    0.000    0.000    0.000    0.000 
#    0.000    0.000    0.000    0.000    0.000    0.000 
#
# Total GULP energy -245113.065832 kJ/mol
# GULP energy per Si atom -5570.751496 kJ/mol
# Density = 1.919292 g / cm^3
# Si number density = 19.236700 Si / 1000 Ang^3
#
#
#
# Elastic Constant Matrix: (Units=GPa)
#
#
# Indices 1 2 3 4 5 6 
#
# 1 74.6018 6.3432 24.5727 0.0000 0.0000 0.0000
# 2 6.3432 41.9713 19.9679 0.0000 0.0000 0.0000
# 3 24.5727 19.9679 88.5533 0.0000 0.0000 0.0000
# 4 0.0000 0.0000 0.0000 26.0110 0.0000 0.0000
# 5 0.0000 0.0000 0.0000 0.0000 5.5754 0.0000
# 6 0.0000 0.0000 0.0000 0.0000 0.0000 32.2301
#
#
#
# Elastic Compliance Matrix: (Units=1/GPa)
#
#
# Indices 1 2 3 4 5 6 
#
# 1 0.014757 -0.000316 -0.004024 0.000000 0.000000 0.000000
# 2 -0.000316 0.026696 -0.005932 0.000000 0.000000 0.000000
# 3 -0.004024 -0.005932 0.013747 0.000000 0.000000 0.000000
# 4 0.000000 0.000000 0.000000 0.038445 0.000000 0.000000
# 5 0.000000 0.000000 0.000000 0.000000 0.179359 0.000000
# 6 0.000000 0.000000 0.000000 0.000000 0.000000 0.031027
#
#
# Mechanical properties :
#
#
# Convention : Reuss Voigt Hill
#
# Bulk Modulus (GPa) = 28.85494 34.09932 31.47713
# Shear Modulus (GPa) = 14.87541 23.04615 18.96078
#
# Velocity S-wave (km/s) = 2.78381 3.46501 3.14292
# Velocity P-wave (km/s) = 5.03640 5.81146 5.43776
#
# Compressibility (1/GPa) = 0.03465611
#
# Stress axis : x y z
#
# Youngs Moduli (GPa) = 67.76593 37.45924 72.74453
#
# Poissons Ratio (x) = 0.01184 0.29269
# Poissons Ratio (y) = 0.02141 0.43152
# Poissons Ratio (z) = 0.27266 0.22221
#
# Static dielectric constant tensor:
#      x y z
#    x 1.717260 0.000000 0.000000 
#    y 0.000000 1.752880 0.000000 
#    z 0.000000 0.000000 1.713860 
# 
# From -- ./inp_files/22454.got.cif
#   From: 2010.05.17/outbox.cif.g08.bks.cpg/sg70_12_cif.got.tgz:22454.got - 2010.06.03 15:57:51.
