data_PCOD9515107
_publ_section_title
;
Structure prediction by ZEFSAII (Michael W. Deem and Ramdas Pophale) SiO2 
 PCOD9515107
Probable space group: F D D D
;
_chemical_formula_sum "Si O2"
_cell_formula_units_Z 112
_cell_length_a 7.776938
_cell_length_b 23.876249
_cell_length_c 31.458916
_cell_angle_alpha 90.000000
_cell_angle_beta 90.000000
_cell_angle_gamma 90.000000
_cell_volume 5841.420761
_symmetry_space_group_name_H-M "F D D D"
_symmetry_group_IT_number 70
_space_group.IT_coordinate_system_code '2'
_symmetry_cell_setting 'orthorhombic'
loop_
_space_group_symop_operation_xyz
x,y,z
1/4-x,1/4-y,z
x,1/4-y,1/4-z
1/4-x,y,1/4-z
-x,-y,-z
3/4+x,3/4+y,-z
-x,3/4+y,3/4+z
3/4+x,-y,3/4+z
x,1/2+y,1/2+z
1/4-x,3/4-y,1/2+z
x,3/4-y,3/4-z
1/4-x,1/2+y,3/4-z
-x,1/2-y,1/2-z
3/4+x,1/4+y,1/2-z
-x,1/4+y,1/4+z
3/4+x,1/2-y,1/4+z
1/2+x,y,1/2+z
3/4-x,1/4-y,1/2+z
1/2+x,1/4-y,3/4-z
3/4-x,y,3/4-z
1/2-x,-y,1/2-z
1/4+x,3/4+y,1/2-z
1/2-x,3/4+y,1/4+z
1/4+x,-y,1/4+z
1/2+x,1/2+y,z
3/4-x,3/4-y,z
1/2+x,3/4-y,1/4-z
3/4-x,1/2+y,1/4-z
1/2-x,1/2-y,-z
1/4+x,1/4+y,-z
1/2-x,1/4+y,3/4+z
1/4+x,1/2-y,3/4+z
loop_
_atom_site_type_symbol
_atom_site_label
_atom_site_fract_x
_atom_site_fract_y
_atom_site_fract_z
Si Si1 0.128674 0.457183 0.223545
Si Si2 0.125000 0.625000 0.723672
Si Si3 0.875000 0.375000 0.079515
Si Si4 0.375000 0.707069 0.375000
Si Si5 0.196681 0.480948 0.798076
O O1 0.250000 0.500000 0.250000
O O2 0.247813 0.413654 0.198190
O O3 0.999971 0.416467 0.249911
O O4 0.998290 0.497170 0.197073
O O5 0.257710 0.584511 0.699385
O O6 0.775099 0.417456 0.109171
O O7 0.312322 0.741087 0.415836
O O8 0.250000 0.500000 0.750000
#
# Coordination Sequence:
#
# PCOD9515107 Si02
#       5
#    32  16  16  16  32
#     4  11  21  38  65  96 125 166 210 256 319 392
#     4  10  20  40  64  87 124 164 202 261 318 372
#     4  12  22  37  60  93 130 162 206 263 312 373
#     4  12  24  39  62  92 126 169 214 268 320 376
#     4  10  22  40  61  88 121 160 208 257 315 380
#
# _framework density 19.173418000000002
#
# number of rings (size 3 to 8) (size 9 to 14) (size 15 to 20)
#    0.000    1.143    0.000   10.286    0.000    1.714 
#    0.000    0.000    0.000    3.429    0.000    0.000 
#    0.000    0.000    0.000    0.000    0.000    0.000 
#
# Total GULP energy -156079.842502 kJ/mol
# GULP energy per Si atom -5574.280089 kJ/mol
# Density = 1.912978 g / cm^3
# Si number density = 19.173418 Si / 1000 Ang^3
#
#
#
# Elastic Constant Matrix: (Units=GPa)
#
#
# Indices 1 2 3 4 5 6 
#
# 1 100.9514 59.8939 32.0942 0.0000 0.0000 0.0000
# 2 59.8939 150.7171 45.4500 0.0000 0.0000 0.0000
# 3 32.0942 45.4500 89.6344 0.0000 0.0000 0.0000
# 4 0.0000 0.0000 0.0000 23.2332 0.0000 0.0000
# 5 0.0000 0.0000 0.0000 0.0000 -35.0408 0.0000
# 6 0.0000 0.0000 0.0000 0.0000 0.0000 58.7010
#
#
#
# Elastic Compliance Matrix: (Units=1/GPa)
#
#
# Indices 1 2 3 4 5 6 
#
# 1 0.013413 -0.004583 -0.002479 0.000000 0.000000 0.000000
# 2 -0.004583 0.009398 -0.003125 0.000000 0.000000 0.000000
# 3 -0.002479 -0.003125 0.013628 0.000000 0.000000 0.000000
# 4 0.000000 0.000000 0.000000 0.043042 0.000000 0.000000
# 5 0.000000 0.000000 0.000000 0.000000 -0.028538 0.000000
# 6 0.000000 0.000000 0.000000 0.000000 0.000000 0.017035
#
#
# Mechanical properties :
#
#
# Convention : Reuss Voigt Hill
#
# Bulk Modulus (GPa) = 62.23881 68.46434 65.35158
# Shear Modulus (GPa) = 53.35812 22.96966 38.16389
#
# Velocity S-wave (km/s) = 5.28106 3.46496 4.46630
# Velocity P-wave (km/s) = 8.34971 7.19676 7.79458
#
# Compressibility (1/GPa) = 0.01606714
#
# Stress axis : x y z
#
# Youngs Moduli (GPa) = 74.55653 106.40217 73.37614
#
# Poissons Ratio (x) = 0.48760 0.18189
# Poissons Ratio (y) = 0.34166 0.22928
# Poissons Ratio (z) = 0.18481 0.33247
#
# Static dielectric constant tensor:
#      x y z
#    x 1.702160 0.000000 0.000000 
#    y 0.000000 2.052140 0.000000 
#    z 0.000000 0.000000 1.644530 
# 
# From -- ./inp_files/9786.got.cif
#   From: 2010.05.17/outbox.cif.g08.bks.cpg/sg70_5_cif.got.tgz:9786.got - 2010.06.03 15:57:51.
