data_PCOD9515099
_publ_section_title
;
Structure prediction by ZEFSAII (Michael W. Deem and Ramdas Pophale) SiO2 
 PCOD9515099
Probable space group: F D D D
;
_chemical_formula_sum "Si O2"
_cell_formula_units_Z 120
_cell_length_a 26.527954
_cell_length_b 11.177550
_cell_length_c 19.119705
_cell_angle_alpha 90.000000
_cell_angle_beta 90.000000
_cell_angle_gamma 90.000000
_cell_volume 5669.327744
_symmetry_space_group_name_H-M "F D D D"
_symmetry_group_IT_number 70
_space_group.IT_coordinate_system_code '2'
_symmetry_cell_setting 'orthorhombic'
loop_
_space_group_symop_operation_xyz
x,y,z
1/4-x,1/4-y,z
x,1/4-y,1/4-z
1/4-x,y,1/4-z
-x,-y,-z
3/4+x,3/4+y,-z
-x,3/4+y,3/4+z
3/4+x,-y,3/4+z
x,1/2+y,1/2+z
1/4-x,3/4-y,1/2+z
x,3/4-y,3/4-z
1/4-x,1/2+y,3/4-z
-x,1/2-y,1/2-z
3/4+x,1/4+y,1/2-z
-x,1/4+y,1/4+z
3/4+x,1/2-y,1/4+z
1/2+x,y,1/2+z
3/4-x,1/4-y,1/2+z
1/2+x,1/4-y,3/4-z
3/4-x,y,3/4-z
1/2-x,-y,1/2-z
1/4+x,3/4+y,1/2-z
1/2-x,3/4+y,1/4+z
1/4+x,-y,1/4+z
1/2+x,1/2+y,z
3/4-x,3/4-y,z
1/2+x,3/4-y,1/4-z
3/4-x,1/2+y,1/4-z
1/2-x,1/2-y,-z
1/4+x,1/4+y,-z
1/2-x,1/4+y,3/4+z
1/4+x,1/2-y,3/4+z
loop_
_atom_site_type_symbol
_atom_site_label
_atom_site_fract_x
_atom_site_fract_y
_atom_site_fract_z
Si Si1 0.125000 0.125000 0.125000
Si Si2 0.123633 0.482233 0.042524
Si Si3 0.625000 0.625000 0.896464
Si Si4 0.436472 0.225622 0.989201
Si Si5 0.204123 0.963656 0.438282
O O1 0.159003 0.208547 0.174290
O O2 0.125000 0.625000 0.033336
O O3 0.125000 0.461983 0.125000
O O4 0.075396 0.415298 0.011681
O O5 0.169595 0.417231 0.002268
O O6 0.665818 0.695252 0.850019
O O7 0.590671 0.712974 0.944256
O O8 0.495476 0.242607 0.975999
O O9 0.217884 0.875000 0.375000
#
# Coordination Sequence:
#
# PCOD9515099 Si02
#       5
#     8  32  16  32  32
#     4  10  20  40  62 108 134 168 230 294 342 434
#     4  11  25  46  67 100 147 189 236 291 355 444
#     4  11  26  45  71 110 141 184 248 302 355 438
#     4  11  24  41  75 102 139 185 237 296 368 413
#     4  12  25  46  73 106 145 189 240 307 362 425
#
# _framework density 21.166532
#
# number of rings (size 3 to 8) (size 9 to 14) (size 15 to 20)
#    0.000    0.800    6.667    0.000    3.733    2.133 
#    0.000    0.000    0.000    0.000    0.000    0.000 
#    0.000    0.000    0.000    0.000    0.000    0.000 
#
# Total GULP energy -167403.111755 kJ/mol
# GULP energy per Si atom -5580.103725 kJ/mol
# Density = 2.111836 g / cm^3
# Si number density = 21.166532 Si / 1000 Ang^3
#
#
#
# Elastic Constant Matrix: (Units=GPa)
#
#
# Indices 1 2 3 4 5 6 
#
# 1 160.1252 31.2027 44.0760 0.0000 0.0000 0.0000
# 2 31.2027 81.7144 21.7967 0.0000 0.0000 0.0000
# 3 44.0760 21.7967 120.5242 0.0000 0.0000 0.0000
# 4 0.0000 0.0000 0.0000 6.0920 0.0000 0.0000
# 5 0.0000 0.0000 0.0000 0.0000 33.3045 0.0000
# 6 0.0000 0.0000 0.0000 0.0000 0.0000 26.2122
#
#
#
# Elastic Compliance Matrix: (Units=1/GPa)
#
#
# Indices 1 2 3 4 5 6 
#
# 1 0.007296 -0.002179 -0.002274 0.000000 0.000000 0.000000
# 2 -0.002179 0.013509 -0.001646 0.000000 0.000000 0.000000
# 3 -0.002274 -0.001646 0.009426 0.000000 0.000000 0.000000
# 4 0.000000 0.000000 0.000000 0.164151 0.000000 0.000000
# 5 0.000000 0.000000 0.000000 0.000000 0.030026 0.000000
# 6 0.000000 0.000000 0.000000 0.000000 0.000000 0.038150
#
#
# Mechanical properties :
#
#
# Convention : Reuss Voigt Hill
#
# Bulk Modulus (GPa) = 55.45584 61.83495 58.64539
# Shear Modulus (GPa) = 17.80832 30.80762 24.30797
#
# Velocity S-wave (km/s) = 2.90374 3.81922 3.39250
# Velocity P-wave (km/s) = 6.12364 6.98037 6.56599
#
# Compressibility (1/GPa) = 0.01803237
#
# Stress axis : x y z
#
# Youngs Moduli (GPa) = 137.06693 74.02464 106.08542
#
# Poissons Ratio (x) = 0.16132 0.24123
# Poissons Ratio (y) = 0.29871 0.17463
# Poissons Ratio (z) = 0.31168 0.12185
#
# Static dielectric constant tensor:
#      x y z
#    x 1.717420 0.000000 0.000000 
#    y 0.000000 1.814160 0.000000 
#    z 0.000000 0.000000 1.798780 
# 
# From -- ./inp_files/17389.got.cif
#   From: 2010.05.17/outbox.cif.g08.bks.cpg/sg70_9_cif.got.tgz:17389.got - 2010.06.03 15:57:51.
