data_PCOD9515190
_publ_section_title
;
Structure prediction by ZEFSAII (Michael W. Deem and Ramdas Pophale) SiO2 
 PCOD9515190
Probable space group: F D D D
;
_chemical_formula_sum "Si O2"
_cell_formula_units_Z 160
_cell_length_a 16.131183
_cell_length_b 28.615971
_cell_length_c 18.339240
_cell_angle_alpha 90.000000
_cell_angle_beta 90.000000
_cell_angle_gamma 90.000000
_cell_volume 8465.566764
_symmetry_space_group_name_H-M "F D D D"
_symmetry_group_IT_number 70
_space_group.IT_coordinate_system_code '2'
_symmetry_cell_setting 'orthorhombic'
loop_
_space_group_symop_operation_xyz
x,y,z
1/4-x,1/4-y,z
x,1/4-y,1/4-z
1/4-x,y,1/4-z
-x,-y,-z
3/4+x,3/4+y,-z
-x,3/4+y,3/4+z
3/4+x,-y,3/4+z
x,1/2+y,1/2+z
1/4-x,3/4-y,1/2+z
x,3/4-y,3/4-z
1/4-x,1/2+y,3/4-z
-x,1/2-y,1/2-z
3/4+x,1/4+y,1/2-z
-x,1/4+y,1/4+z
3/4+x,1/2-y,1/4+z
1/2+x,y,1/2+z
3/4-x,1/4-y,1/2+z
1/2+x,1/4-y,3/4-z
3/4-x,y,3/4-z
1/2-x,-y,1/2-z
1/4+x,3/4+y,1/2-z
1/2-x,3/4+y,1/4+z
1/4+x,-y,1/4+z
1/2+x,1/2+y,z
3/4-x,3/4-y,z
1/2+x,3/4-y,1/4-z
3/4-x,1/2+y,1/4-z
1/2-x,1/2-y,-z
1/4+x,1/4+y,-z
1/2-x,1/4+y,3/4+z
1/4+x,1/2-y,3/4+z
loop_
_atom_site_type_symbol
_atom_site_label
_atom_site_fract_x
_atom_site_fract_y
_atom_site_fract_z
Si Si1 0.299054 0.618989 0.234519
Si Si2 0.875000 0.375000 0.694272
Si Si3 0.125000 0.921991 0.625000
Si Si4 0.794467 0.926317 0.912911
Si Si5 0.446962 0.449318 0.668937
Si Si6 0.388795 0.198878 0.120187
O O1 0.205499 0.632506 0.255243
O O2 0.348134 0.609917 0.308129
O O3 0.306326 0.571013 0.187717
O O4 0.345207 0.659167 0.189991
O O5 0.850748 0.417467 0.640325
O O6 0.206087 0.950386 0.602423
O O7 0.788218 0.875000 0.875000
O O8 0.875000 0.949027 0.875000
O O9 0.706410 0.949730 0.896082
O O10 0.808902 0.927503 0.999904
O O11 0.413498 0.501510 0.661907
#
# Coordination Sequence:
#
# PCOD9515190 Si02
#       6
#    32  16  16  32  32  32
#     4  10  22  41  63  93 132 168 209 268 318 388
#     4  10  24  39  63 100 130 170 214 268 320 389
#     4  10  20  42  66  89 126 175 214 258 322 396
#     4  11  22  43  69  89 129 174 216 265 334 387
#     4  11  24  40  68  96 129 168 221 267 328 393
#     4  11  23  41  65  97 128 168 217 267 335 383
#
# _framework density 18.900092999999998
#
# number of rings (size 3 to 8) (size 9 to 14) (size 15 to 20)
#    0.000    1.400    4.000    1.200    2.800    8.800 
#    1.800    0.000    0.000    0.000    0.000    0.000 
#    0.000    0.000    0.000    0.000    0.000    0.000 
#
# Total GULP energy -223177.952553 kJ/mol
# GULP energy per Si atom -5579.448814 kJ/mol
# Density = 1.885708 g / cm^3
# Si number density = 18.900093 Si / 1000 Ang^3
#
#
#
# Elastic Constant Matrix: (Units=GPa)
#
#
# Indices 1 2 3 4 5 6 
#
# 1 138.3309 21.2956 35.7125 0.0000 0.0000 0.0000
# 2 21.2956 69.7017 16.7973 0.0000 0.0000 0.0000
# 3 35.7125 16.7973 112.2769 0.0000 0.0000 0.0000
# 4 0.0000 0.0000 0.0000 -25.2655 0.0000 0.0000
# 5 0.0000 0.0000 0.0000 0.0000 30.5012 0.0000
# 6 0.0000 0.0000 0.0000 0.0000 0.0000 -84.9232
#
#
#
# Elastic Compliance Matrix: (Units=1/GPa)
#
#
# Indices 1 2 3 4 5 6 
#
# 1 0.008118 -0.001927 -0.002294 0.000000 0.000000 0.000000
# 2 -0.001927 0.015341 -0.001682 0.000000 0.000000 0.000000
# 3 -0.002294 -0.001682 0.009888 0.000000 0.000000 0.000000
# 4 0.000000 0.000000 0.000000 -0.039580 0.000000 0.000000
# 5 0.000000 0.000000 0.000000 0.000000 0.032786 0.000000
# 6 0.000000 0.000000 0.000000 0.000000 0.000000 -0.011775
#
#
# Mechanical properties :
#
#
# Convention : Reuss Voigt Hill
#
# Bulk Modulus (GPa) = 46.42460 51.99113 49.20787
# Shear Modulus (GPa) = 148.08643 0.49610 74.29127
#
# Velocity S-wave (km/s) = 8.86128 0.51289 6.27636
# Velocity P-wave (km/s) = 11.37158 5.28383 8.86656
#
# Compressibility (1/GPa) = 0.02154030
#
# Stress axis : x y z
#
# Youngs Moduli (GPa) = 123.18394 65.18439 101.13495
#
# Poissons Ratio (x) = 0.12564 0.23198
# Poissons Ratio (y) = 0.23743 0.17011
# Poissons Ratio (z) = 0.28255 0.10964
#
# Static dielectric constant tensor:
#      x y z
#    x 1.677860 0.000000 0.000000 
#    y 0.000000 1.633510 0.000000 
#    z 0.000000 0.000000 1.705130 
# 
# From -- ./inp_files/30940.got.cif
#   From: 2010.05.17/outbox.cif.g08.bks.cpg/sg70_16_cif.got.tgz:30940.got - 2010.06.03 15:57:51.
