data_PCOD9515642
_publ_section_title
;
Structure prediction by ZEFSAII (Michael W. Deem and Ramdas Pophale) SiO2 
 PCOD9515642
Probable space group: F D D D
;
_chemical_formula_sum "Si O2"
_cell_formula_units_Z 96
_cell_length_a 14.689385
_cell_length_b 15.195448
_cell_length_c 18.428258
_cell_angle_alpha 90.000000
_cell_angle_beta 90.000000
_cell_angle_gamma 90.000000
_cell_volume 4113.404380
_symmetry_space_group_name_H-M "F D D D"
_symmetry_group_IT_number 70
_space_group.IT_coordinate_system_code '2'
_symmetry_cell_setting 'orthorhombic'
loop_
_space_group_symop_operation_xyz
x,y,z
1/4-x,1/4-y,z
x,1/4-y,1/4-z
1/4-x,y,1/4-z
-x,-y,-z
3/4+x,3/4+y,-z
-x,3/4+y,3/4+z
3/4+x,-y,3/4+z
x,1/2+y,1/2+z
1/4-x,3/4-y,1/2+z
x,3/4-y,3/4-z
1/4-x,1/2+y,3/4-z
-x,1/2-y,1/2-z
3/4+x,1/4+y,1/2-z
-x,1/4+y,1/4+z
3/4+x,1/2-y,1/4+z
1/2+x,y,1/2+z
3/4-x,1/4-y,1/2+z
1/2+x,1/4-y,3/4-z
3/4-x,y,3/4-z
1/2-x,-y,1/2-z
1/4+x,3/4+y,1/2-z
1/2-x,3/4+y,1/4+z
1/4+x,-y,1/4+z
1/2+x,1/2+y,z
3/4-x,3/4-y,z
1/2+x,3/4-y,1/4-z
3/4-x,1/2+y,1/4-z
1/2-x,1/2-y,-z
1/4+x,1/4+y,-z
1/2-x,1/4+y,3/4+z
1/4+x,1/2-y,3/4+z
loop_
_atom_site_type_symbol
_atom_site_label
_atom_site_fract_x
_atom_site_fract_y
_atom_site_fract_z
Si Si1 0.242676 0.335485 0.574743
Si Si2 0.769642 0.900368 0.731796
Si Si3 0.093870 0.000861 0.773820
O O1 0.229491 0.381520 0.651448
O O2 0.162246 0.275896 0.542281
O O3 0.332160 0.274402 0.584706
O O4 0.278034 0.413276 0.519900
O O5 0.875000 0.875000 0.733383
O O6 0.717461 0.833607 0.784803
O O7 0.750000 0.000000 0.750000
#
# Coordination Sequence:
#
# PCOD9515642 Si02
#       3
#    32  32  32
#     4  10  22  46  69 103 138 179 239 292 351 420
#     4  12  25  44  68 103 146 187 231 290 360 432
#     4  10  21  43  73  99 136 182 233 290 351 416
#
# _framework density 23.338332000000001
#
# number of rings (size 3 to 8) (size 9 to 14) (size 15 to 20)
#    0.000    1.333    3.333    3.000    0.000    1.333 
#    6.000   28.333    0.000    0.000    0.000    0.000 
#    0.000    0.000    0.000    0.000    0.000    0.000 
#
# Total GULP energy -133923.475336 kJ/mol
# GULP energy per Si atom -5580.144806 kJ/mol
# Density = 2.328521 g / cm^3
# Si number density = 23.338332 Si / 1000 Ang^3
#
#
#
# Elastic Constant Matrix: (Units=GPa)
#
#
# Indices 1 2 3 4 5 6 
#
# 1 97.5692 63.8051 21.3612 0.0000 0.0000 0.0000
# 2 63.8051 184.6845 55.1913 0.0000 0.0000 0.0000
# 3 21.3612 55.1913 77.5428 0.0000 0.0000 0.0000
# 4 0.0000 0.0000 0.0000 43.6936 0.0000 0.0000
# 5 0.0000 0.0000 0.0000 0.0000 23.9001 0.0000
# 6 0.0000 0.0000 0.0000 0.0000 0.0000 40.0080
#
#
#
# Elastic Compliance Matrix: (Units=1/GPa)
#
#
# Indices 1 2 3 4 5 6 
#
# 1 0.013256 -0.004431 -0.000498 0.000000 0.000000 0.000000
# 2 -0.004431 0.008358 -0.004729 0.000000 0.000000 0.000000
# 3 -0.000498 -0.004729 0.016399 0.000000 0.000000 0.000000
# 4 0.000000 0.000000 0.000000 0.022887 0.000000 0.000000
# 5 0.000000 0.000000 0.000000 0.000000 0.041841 0.000000
# 6 0.000000 0.000000 0.000000 0.000000 0.000000 0.024995
#
#
# Mechanical properties :
#
#
# Convention : Reuss Voigt Hill
#
# Bulk Modulus (GPa) = 53.48087 71.16796 62.32441
# Shear Modulus (GPa) = 32.61939 36.14959 34.38449
#
# Velocity S-wave (km/s) = 3.74260 3.93992 3.84253
# Velocity P-wave (km/s) = 6.45301 7.15944 6.81538
#
# Compressibility (1/GPa) = 0.01869828
#
# Stress axis : x y z
#
# Youngs Moduli (GPa) = 75.43958 119.63887 60.97973
#
# Poissons Ratio (x) = 0.53009 0.03037
# Poissons Ratio (y) = 0.33425 0.28835
# Poissons Ratio (z) = 0.03757 0.56573
#
# Static dielectric constant tensor:
#      x y z
#    x 1.952630 0.000000 0.000000 
#    y 0.000000 1.870220 0.000000 
#    z 0.000000 0.000000 1.943730 
# 
# From -- ./inp_files/24989.got.cif
#   From: 2010.05.17/outbox.cif.g08.bks.cpg/sg70_13_cif.got.tgz:24989.got - 2010.06.03 15:57:51.
