data_PCOD9515678
_publ_section_title
;
Structure prediction by ZEFSAII (Michael W. Deem and Ramdas Pophale) SiO2 
 PCOD9515678
Probable space group: F D D D
;
_chemical_formula_sum "Si O2"
_cell_formula_units_Z 88
_cell_length_a 24.225714
_cell_length_b 22.398969
_cell_length_c 7.220287
_cell_angle_alpha 90.000000
_cell_angle_beta 90.000000
_cell_angle_gamma 90.000000
_cell_volume 3917.951677
_symmetry_space_group_name_H-M "F D D D"
_symmetry_group_IT_number 70
_space_group.IT_coordinate_system_code '2'
_symmetry_cell_setting 'orthorhombic'
loop_
_space_group_symop_operation_xyz
x,y,z
1/4-x,1/4-y,z
x,1/4-y,1/4-z
1/4-x,y,1/4-z
-x,-y,-z
3/4+x,3/4+y,-z
-x,3/4+y,3/4+z
3/4+x,-y,3/4+z
x,1/2+y,1/2+z
1/4-x,3/4-y,1/2+z
x,3/4-y,3/4-z
1/4-x,1/2+y,3/4-z
-x,1/2-y,1/2-z
3/4+x,1/4+y,1/2-z
-x,1/4+y,1/4+z
3/4+x,1/2-y,1/4+z
1/2+x,y,1/2+z
3/4-x,1/4-y,1/2+z
1/2+x,1/4-y,3/4-z
3/4-x,y,3/4-z
1/2-x,-y,1/2-z
1/4+x,3/4+y,1/2-z
1/2-x,3/4+y,1/4+z
1/4+x,-y,1/4+z
1/2+x,1/2+y,z
3/4-x,3/4-y,z
1/2+x,3/4-y,1/4-z
3/4-x,1/2+y,1/4-z
1/2-x,1/2-y,-z
1/4+x,1/4+y,-z
1/2-x,1/4+y,3/4+z
1/4+x,1/2-y,3/4+z
loop_
_atom_site_type_symbol
_atom_site_label
_atom_site_fract_x
_atom_site_fract_y
_atom_site_fract_z
Si Si1 0.293645 0.792163 0.607905
Si Si2 0.776933 0.625000 0.625000
Si Si3 0.617633 0.311284 0.849350
Si Si4 0.875000 0.375000 0.375000
O O1 0.250000 0.750000 0.500000
O O2 0.260987 0.838187 0.736280
O O3 0.335379 0.742832 0.688451
O O4 0.333914 0.832575 0.486573
O O5 0.822350 0.674696 0.563250
O O6 0.625000 0.301956 0.625000
O O7 0.586889 0.375000 0.875000
#
# Coordination Sequence:
#
# PCOD9515678 Si02
#       4
#    32  16  32   8
#     4  12  23  48  71 102 147 190 237 302 371 426
#     4  10  24  42  74 112 130 202 240 286 384 432
#     4  10  21  46  70 104 139 181 240 290 354 437
#     4  12  28  44  72 104 140 192 240 302 364 444
#
# _framework density 22.460715
#
# number of rings (size 3 to 8) (size 9 to 14) (size 15 to 20)
#    1.091    0.000    5.455    0.000    2.545    0.727 
#    6.545    5.455    0.000    0.000    0.000    0.000 
#    0.000    0.000    0.000    0.000    0.000    0.000 
#
# Total GULP energy -122618.381874 kJ/mol
# GULP energy per Si atom -5573.562812 kJ/mol
# Density = 2.240959 g / cm^3
# Si number density = 22.460715 Si / 1000 Ang^3
#
#
#
# Elastic Constant Matrix: (Units=GPa)
#
#
# Indices 1 2 3 4 5 6 
#
# 1 201.6807 133.8213 72.1037 -0.0006 0.0008 0.0002
# 2 133.8213 194.5661 89.7249 -0.0010 0.0020 0.0000
# 3 72.1037 89.7249 91.0951 -0.0022 0.0046 0.0001
# 4 -0.0006 -0.0010 -0.0022 48.7441 0.0019 0.0004
# 5 0.0008 0.0020 0.0046 0.0019 -10.0001 0.0033
# 6 0.0002 0.0000 0.0001 0.0004 0.0033 82.2182
#
#
#
# Elastic Compliance Matrix: (Units=1/GPa)
#
#
# Indices 1 2 3 4 5 6 
#
# 1 0.009305 -0.005503 -0.001945 0.000000 -0.000001 0.000000
# 2 -0.005503 0.012672 -0.008125 0.000000 -0.000002 0.000000
# 3 -0.001945 -0.008125 0.020520 0.000001 0.000008 0.000000
# 4 0.000000 0.000000 0.000001 0.020515 0.000004 0.000000
# 5 -0.000001 -0.000002 0.000008 0.000004 -0.099999 0.000004
# 6 0.000000 0.000000 0.000000 0.000000 0.000004 0.012163
#
#
# Mechanical properties :
#
#
# Convention : Reuss Voigt Hill
#
# Bulk Modulus (GPa) = 88.10320 119.84906 103.97613
# Shear Modulus (GPa) = 494.79567 36.97192 265.88380
#
# Velocity S-wave (km/s) = 14.85840 4.06158 10.89194
# Velocity P-wave (km/s) = 18.26673 8.68738 14.30286
#
# Compressibility (1/GPa) = 0.01135033
#
# Stress axis : x y z
#
# Youngs Moduli (GPa) = 107.46733 78.91655 48.73324
#
# Poissons Ratio (x) = 0.43429 0.09478
# Poissons Ratio (y) = 0.59141 0.39597
# Poissons Ratio (z) = 0.20901 0.64121
#
# Static dielectric constant tensor:
#      x y z
#    x 1.859530 0.000000 0.000000 
#    y 0.000000 1.846390 0.000000 
#    z 0.000000 0.000000 2.108130 
# 
# From -- ./inp_files/7828.got.cif
#   From: 2010.05.17/outbox.cif.g08.bks.cpg/sg70_4_cif.got.tgz:7828.got - 2010.06.03 15:57:51.
