data_PCOD9515199
_publ_section_title
;
Structure prediction by ZEFSAII (Michael W. Deem and Ramdas Pophale) SiO2 
 PCOD9515199
Probable space group: F D D D
;
_chemical_formula_sum "Si O2"
_cell_formula_units_Z 160
_cell_length_a 22.885531
_cell_length_b 28.350857
_cell_length_c 9.881432
_cell_angle_alpha 90.000000
_cell_angle_beta 90.000000
_cell_angle_gamma 90.000000
_cell_volume 6411.314354
_symmetry_space_group_name_H-M "F D D D"
_symmetry_group_IT_number 70
_space_group.IT_coordinate_system_code '2'
_symmetry_cell_setting 'orthorhombic'
loop_
_space_group_symop_operation_xyz
x,y,z
1/4-x,1/4-y,z
x,1/4-y,1/4-z
1/4-x,y,1/4-z
-x,-y,-z
3/4+x,3/4+y,-z
-x,3/4+y,3/4+z
3/4+x,-y,3/4+z
x,1/2+y,1/2+z
1/4-x,3/4-y,1/2+z
x,3/4-y,3/4-z
1/4-x,1/2+y,3/4-z
-x,1/2-y,1/2-z
3/4+x,1/4+y,1/2-z
-x,1/4+y,1/4+z
3/4+x,1/2-y,1/4+z
1/2+x,y,1/2+z
3/4-x,1/4-y,1/2+z
1/2+x,1/4-y,3/4-z
3/4-x,y,3/4-z
1/2-x,-y,1/2-z
1/4+x,3/4+y,1/2-z
1/2-x,3/4+y,1/4+z
1/4+x,-y,1/4+z
1/2+x,1/2+y,z
3/4-x,3/4-y,z
1/2+x,3/4-y,1/4-z
3/4-x,1/2+y,1/4-z
1/2-x,1/2-y,-z
1/4+x,1/4+y,-z
1/2-x,1/4+y,3/4+z
1/4+x,1/2-y,3/4+z
loop_
_atom_site_type_symbol
_atom_site_label
_atom_site_fract_x
_atom_site_fract_y
_atom_site_fract_z
Si Si1 0.804716 0.125000 0.125000
Si Si2 0.004659 0.545651 0.598855
Si Si3 0.118766 0.959320 0.832735
Si Si4 0.221948 0.606265 0.888385
Si Si5 0.625000 0.503327 0.125000
Si Si6 0.106232 0.189584 0.775428
O O1 0.845933 0.087393 0.198021
O O2 0.764938 0.151759 0.235580
O O3 0.000296 0.591928 0.503917
O O4 0.069391 0.536858 0.655398
O O5 0.000000 0.500000 0.500000
O O6 0.950090 0.543609 0.700484
O O7 0.151221 0.004743 0.773538
O O8 0.118491 0.969954 0.994454
O O9 0.164935 0.572563 0.891723
O O10 0.195942 0.658024 0.917481
O O11 0.125000 0.174714 0.625000
#
# Coordination Sequence:
#
# PCOD9515199 Si02
#       6
#    16  32  32  32  16  32
#     4  12  24  43  66  97 140 184 220 282 356 404
#     4  10  20  42  68  98 134 174 216 284 333 409
#     4  11  25  43  67 103 136 179 228 281 348 404
#     4  11  21  42  71  97 135 178 226 278 348 397
#     4  10  20  42  75  90 134 178 220 275 336 404
#     4  11  22  44  69 102 132 175 233 288 327 413
#
# _framework density 24.955880000000001
#
# number of rings (size 3 to 8) (size 9 to 14) (size 15 to 20)
#    0.000    1.200    6.000    3.000    0.000    0.800 
#    9.000    1.000    0.000    0.000    0.000    0.000 
#    0.000    0.000    0.000    0.000    0.000    0.000 
#
# Total GULP energy -223767.067869 kJ/mol
# GULP energy per Si atom -5594.176697 kJ/mol
# Density = 2.489908 g / cm^3
# Si number density = 24.955880 Si / 1000 Ang^3
#
#
#
# Elastic Constant Matrix: (Units=GPa)
#
#
# Indices 1 2 3 4 5 6 
#
# 1 129.1961 31.0877 -16.3767 0.0000 0.0000 0.0000
# 2 31.0877 127.3694 -3.4345 0.0000 0.0000 0.0000
# 3 -16.3767 -3.4345 52.3252 -0.0001 0.0003 0.0001
# 4 0.0000 0.0000 -0.0001 26.2357 0.0000 0.0000
# 5 0.0000 0.0000 0.0003 0.0000 15.2630 0.0000
# 6 0.0000 0.0000 0.0001 0.0000 0.0000 28.5740
#
#
#
# Elastic Compliance Matrix: (Units=1/GPa)
#
#
# Indices 1 2 3 4 5 6 
#
# 1 0.008548 -0.002018 0.002543 0.000000 0.000000 0.000000
# 2 -0.002018 0.008341 -0.000084 0.000000 0.000000 0.000000
# 3 0.002543 -0.000084 0.019902 0.000000 0.000000 0.000000
# 4 0.000000 0.000000 0.000000 0.038116 0.000000 0.000000
# 5 0.000000 0.000000 0.000000 0.000000 0.065518 0.000000
# 6 0.000000 0.000000 0.000000 0.000000 0.000000 0.034997
#
#
# Mechanical properties :
#
#
# Convention : Reuss Voigt Hill
#
# Bulk Modulus (GPa) = 26.54402 36.82708 31.68555
# Shear Modulus (GPa) = 26.72407 33.85550 30.28978
#
# Velocity S-wave (km/s) = 3.27594 3.68722 3.48765
# Velocity P-wave (km/s) = 4.99685 5.73728 5.37982
#
# Compressibility (1/GPa) = 0.03767327
#
# Stress axis : x y z
#
# Youngs Moduli (GPa) = 116.98586 119.88387 50.24717
#
# Poissons Ratio (x) = 0.24190 -0.12777
# Poissons Ratio (y) = 0.23605 0.00422
# Poissons Ratio (z) = -0.29749 0.01007
#
# Static dielectric constant tensor:
#      x y z
#    x 2.005550 0.000000 0.000000 
#    y 0.000000 1.964750 0.000000 
#    z 0.000000 0.000000 2.068090 
# 
# From -- ./inp_files/19549.got.cif
#   From: 2010.05.17/outbox.cif.g08.bks.cpg/sg70_10_cif.got.tgz:19549.got - 2010.06.03 15:57:51.
