data_PCOD9515848
_publ_section_title
;
Structure prediction by ZEFSAII (Michael W. Deem and Ramdas Pophale) SiO2 
 PCOD9515848
Probable space group: F D D D
;
_chemical_formula_sum "Si O2"
_cell_formula_units_Z 232
_cell_length_a 17.652519
_cell_length_b 27.264609
_cell_length_c 25.182040
_cell_angle_alpha 90.000000
_cell_angle_beta 90.000000
_cell_angle_gamma 90.000000
_cell_volume 12119.839565
_symmetry_space_group_name_H-M "F D D D"
_symmetry_group_IT_number 70
_space_group.IT_coordinate_system_code '2'
_symmetry_cell_setting 'orthorhombic'
loop_
_space_group_symop_operation_xyz
x,y,z
1/4-x,1/4-y,z
x,1/4-y,1/4-z
1/4-x,y,1/4-z
-x,-y,-z
3/4+x,3/4+y,-z
-x,3/4+y,3/4+z
3/4+x,-y,3/4+z
x,1/2+y,1/2+z
1/4-x,3/4-y,1/2+z
x,3/4-y,3/4-z
1/4-x,1/2+y,3/4-z
-x,1/2-y,1/2-z
3/4+x,1/4+y,1/2-z
-x,1/4+y,1/4+z
3/4+x,1/2-y,1/4+z
1/2+x,y,1/2+z
3/4-x,1/4-y,1/2+z
1/2+x,1/4-y,3/4-z
3/4-x,y,3/4-z
1/2-x,-y,1/2-z
1/4+x,3/4+y,1/2-z
1/2-x,3/4+y,1/4+z
1/4+x,-y,1/4+z
1/2+x,1/2+y,z
3/4-x,3/4-y,z
1/2+x,3/4-y,1/4-z
3/4-x,1/2+y,1/4-z
1/2-x,1/2-y,-z
1/4+x,1/4+y,-z
1/2-x,1/4+y,3/4+z
1/4+x,1/2-y,3/4+z
loop_
_atom_site_type_symbol
_atom_site_label
_atom_site_fract_x
_atom_site_fract_y
_atom_site_fract_z
Si Si1 0.974192 0.793396 0.536168
Si Si2 0.550783 0.790784 0.276821
Si Si3 0.198643 0.848263 0.251468
Si Si4 0.744034 0.446106 0.399584
Si Si5 0.913337 0.823732 0.142888
Si Si6 0.821720 0.633393 0.424931
Si Si7 0.625000 0.625000 0.125000
Si Si8 0.202661 0.514323 0.456820
O O1 0.891522 0.808563 0.558363
O O2 0.002257 0.749521 0.574903
O O3 0.031085 0.838178 0.545824
O O4 0.978370 0.771016 0.476649
O O5 0.500000 0.750000 0.250000
O O6 0.540004 0.843493 0.249478
O O7 0.528780 0.799215 0.338479
O O8 0.633473 0.767399 0.270728
O O9 0.184858 0.831629 0.312056
O O10 0.126980 0.838066 0.214560
O O11 0.269844 0.816538 0.230836
O O12 0.818658 0.412108 0.404804
O O13 0.875000 0.875000 0.122131
O O14 0.921219 0.779932 0.100622
O O15 0.999968 0.835318 0.156497
O O16 0.875000 0.618681 0.375000
#
# Coordination Sequence:
#
# PCOD9515848 Si02
#       8
#    32  32  32  32  32  32   8  32
#     4  10  23  39  62  91 125 169 217 261 326 408
#     4  12  26  38  63  92 129 183 218 260 334 402
#     4  11  24  42  61  93 129 173 218 275 331 400
#     4  11  25  41  57  89 134 170 216 262 329 392
#     4  10  22  41  65  94 131 167 215 281 334 391
#     4  11  22  39  66  93 124 166 216 278 335 386
#     4  12  24  36  56  84 132 176 206 256 300 400
#     4  11  23  39  62  92 130 166 218 267 324 400
#
# _framework density 19.142168000000002
#
# number of rings (size 3 to 8) (size 9 to 14) (size 15 to 20)
#    0.000    1.103    5.517    0.000    8.690    0.000 
#    1.241    2.759    3.034    0.000    0.000    0.000 
#    0.000    0.000    0.000    0.000    0.000    0.000 
#
# Total GULP energy -322964.086756 kJ/mol
# GULP energy per Si atom -5568.346323 kJ/mol
# Density = 1.909860 g / cm^3
# Si number density = 19.142168 Si / 1000 Ang^3
#
#
#
# Elastic Constant Matrix: (Units=GPa)
#
#
# Indices 1 2 3 4 5 6 
#
# 1 79.3057 28.7033 33.9462 0.0000 0.0000 0.0000
# 2 28.7033 86.2410 3.8603 0.0000 0.0000 0.0000
# 3 33.9462 3.8603 63.1544 0.0000 0.0000 0.0000
# 4 0.0000 0.0000 0.0000 26.6961 0.0000 0.0000
# 5 0.0000 0.0000 0.0000 0.0000 9.7851 0.0000
# 6 0.0000 0.0000 0.0000 0.0000 0.0000 26.0461
#
#
#
# Elastic Compliance Matrix: (Units=1/GPa)
#
#
# Indices 1 2 3 4 5 6 
#
# 1 0.018934 -0.005862 -0.009819 0.000000 0.000000 0.000000
# 2 -0.005862 0.013442 0.002329 0.000000 0.000000 0.000000
# 3 -0.009819 0.002329 0.020970 0.000000 0.000000 0.000000
# 4 0.000000 0.000000 0.000000 0.037459 0.000000 0.000000
# 5 0.000000 0.000000 0.000000 0.000000 0.102196 0.000000
# 6 0.000000 0.000000 0.000000 0.000000 0.000000 0.038394
#
#
# Mechanical properties :
#
#
# Convention : Reuss Voigt Hill
#
# Bulk Modulus (GPa) = 37.53429 40.19119 38.86274
# Shear Modulus (GPa) = 18.72807 23.31822 21.02315
#
# Velocity S-wave (km/s) = 3.13128 3.49400 3.31760
# Velocity P-wave (km/s) = 5.72049 6.10894 5.91790
#
# Compressibility (1/GPa) = 0.02664230
#
# Stress axis : x y z
#
# Youngs Moduli (GPa) = 52.81475 74.39221 47.68805
#
# Poissons Ratio (x) = 0.43611 0.46825
# Poissons Ratio (y) = 0.30961 -0.11108
# Poissons Ratio (z) = 0.51859 -0.17329
#
# Static dielectric constant tensor:
#      x y z
#    x 1.624650 0.000000 0.000000 
#    y 0.000000 1.688920 0.000000 
#    z 0.000000 0.000000 1.755250 
# 
# From -- ./inp_files/52455.got.cif
#   From: 2010.05.17/outbox.cif.g08.bks.cpg/sg70_27_cif.got.tgz:52455.got - 2010.06.03 15:57:51.
