data_PCOD9515164
_publ_section_title
;
Structure prediction by ZEFSAII (Michael W. Deem and Ramdas Pophale) SiO2 
 PCOD9515164
Probable space group: F D D D
;
_chemical_formula_sum "Si O2"
_cell_formula_units_Z 112
_cell_length_a 25.999427
_cell_length_b 7.747308
_cell_length_c 22.520000
_cell_angle_alpha 90.000000
_cell_angle_beta 90.000000
_cell_angle_gamma 90.000000
_cell_volume 4536.103809
_symmetry_space_group_name_H-M "F D D D"
_symmetry_group_IT_number 70
_space_group.IT_coordinate_system_code '2'
_symmetry_cell_setting 'orthorhombic'
loop_
_space_group_symop_operation_xyz
x,y,z
1/4-x,1/4-y,z
x,1/4-y,1/4-z
1/4-x,y,1/4-z
-x,-y,-z
3/4+x,3/4+y,-z
-x,3/4+y,3/4+z
3/4+x,-y,3/4+z
x,1/2+y,1/2+z
1/4-x,3/4-y,1/2+z
x,3/4-y,3/4-z
1/4-x,1/2+y,3/4-z
-x,1/2-y,1/2-z
3/4+x,1/4+y,1/2-z
-x,1/4+y,1/4+z
3/4+x,1/2-y,1/4+z
1/2+x,y,1/2+z
3/4-x,1/4-y,1/2+z
1/2+x,1/4-y,3/4-z
3/4-x,y,3/4-z
1/2-x,-y,1/2-z
1/4+x,3/4+y,1/2-z
1/2-x,3/4+y,1/4+z
1/4+x,-y,1/4+z
1/2+x,1/2+y,z
3/4-x,3/4-y,z
1/2+x,3/4-y,1/4-z
3/4-x,1/2+y,1/4-z
1/2-x,1/2-y,-z
1/4+x,1/4+y,-z
1/2-x,1/4+y,3/4+z
1/4+x,1/2-y,3/4+z
loop_
_atom_site_type_symbol
_atom_site_label
_atom_site_fract_x
_atom_site_fract_y
_atom_site_fract_z
Si Si1 0.037510 0.376362 0.673368
Si Si2 0.929551 0.274657 0.299787
Si Si3 0.884662 0.186652 0.724227
Si Si4 0.797956 0.625000 0.625000
O O1 0.030069 0.568408 0.701149
O O2 0.060602 0.413566 0.608282
O O3 0.078189 0.288641 0.718056
O O4 0.988207 0.261899 0.658885
O O5 0.875000 0.375000 0.305933
O O6 0.917929 0.150981 0.245284
O O7 0.875000 0.375000 0.697829
O O8 0.914566 0.066063 0.677846
#
# Coordination Sequence:
#
# PCOD9515164 Si02
#       4
#    32  32  32  16
#     4  10  20  41  68  94 124 166 220 269 317 386
#     4   9  19  40  69  93 117 168 226 261 310 391
#     4  11  23  41  64  91 128 176 220 263 327 401
#     4  12  26  40  59  98 136 164 210 282 337 368
#
# _framework density 24.690794
#
# number of rings (size 3 to 8) (size 9 to 14) (size 15 to 20)
#    0.000    1.714    0.000    8.571    0.000    4.571 
#    0.000   34.286    0.000    0.000    0.000    0.000 
#    0.000    0.000    0.000    0.000    0.000    0.000 
#
# Total GULP energy -156362.146511 kJ/mol
# GULP energy per Si atom -5584.362375 kJ/mol
# Density = 2.463460 g / cm^3
# Si number density = 24.690794 Si / 1000 Ang^3
#
#
#
# Elastic Constant Matrix: (Units=GPa)
#
#
# Indices 1 2 3 4 5 6 
#
# 1 107.5384 42.3998 52.9693 0.0000 0.0000 0.0000
# 2 42.3998 87.6932 37.0862 0.0000 0.0001 0.0000
# 3 52.9693 37.0862 70.8373 0.0000 0.0000 0.0000
# 4 0.0000 0.0000 0.0000 1.1207 0.0000 0.0000
# 5 0.0000 0.0001 0.0000 0.0000 -130.1083 0.0000
# 6 0.0000 0.0000 0.0000 0.0000 0.0000 1.8725
#
#
#
# Elastic Compliance Matrix: (Units=1/GPa)
#
#
# Indices 1 2 3 4 5 6 
#
# 1 0.015437 -0.003316 -0.009807 0.000000 0.000000 0.000000
# 2 -0.003316 0.015359 -0.005561 0.000000 0.000000 0.000000
# 3 -0.009807 -0.005561 0.024362 0.000000 0.000000 0.000000
# 4 0.000000 0.000000 0.000000 0.892266 0.000000 -0.000001
# 5 0.000000 0.000000 0.000000 0.000000 -0.007686 0.000000
# 6 0.000000 0.000000 0.000000 -0.000001 0.000000 0.534034
#
#
# Mechanical properties :
#
#
# Convention : Reuss Voigt Hill
#
# Bulk Modulus (GPa) = 56.21603 58.99773 57.60688
# Shear Modulus (GPa) = 3.29583 -16.51544 -6.60981
#
# Velocity S-wave (km/s) = 1.15661 -2.58910 -1.63794
# Velocity P-wave (km/s) = 4.95995 3.87409 4.45026
#
# Compressibility (1/GPa) = 0.01778852
#
# Stress axis : x y z
#
# Youngs Moduli (GPa) = 64.77878 65.10972 41.04828
#
# Poissons Ratio (x) = 0.21593 0.40256
# Poissons Ratio (y) = 0.21483 0.22827
# Poissons Ratio (z) = 0.63529 0.36208
#
# Static dielectric constant tensor:
#      x y z
#    x 1.969700 0.000000 0.000000 
#    y 0.000000 2.039690 0.000000 
#    z 0.000000 0.000000 1.959440 
# 
# From -- ./inp_files/54043.got.cif
#   From: 2010.05.17/outbox.cif.g08.bks.cpg/sg70_28_cif.got.tgz:54043.got - 2010.06.03 15:57:51.
