data_PCOD9515704
_publ_section_title
;
Structure prediction by ZEFSAII (Michael W. Deem and Ramdas Pophale) SiO2 
 PCOD9515704
Probable space group: F D D D
;
_chemical_formula_sum "Si O2"
_cell_formula_units_Z 112
_cell_length_a 28.359020
_cell_length_b 8.890545
_cell_length_c 18.199618
_cell_angle_alpha 90.000000
_cell_angle_beta 90.000000
_cell_angle_gamma 90.000000
_cell_volume 4588.617699
_symmetry_space_group_name_H-M "F D D D"
_symmetry_group_IT_number 70
_space_group.IT_coordinate_system_code '2'
_symmetry_cell_setting 'orthorhombic'
loop_
_space_group_symop_operation_xyz
x,y,z
1/4-x,1/4-y,z
x,1/4-y,1/4-z
1/4-x,y,1/4-z
-x,-y,-z
3/4+x,3/4+y,-z
-x,3/4+y,3/4+z
3/4+x,-y,3/4+z
x,1/2+y,1/2+z
1/4-x,3/4-y,1/2+z
x,3/4-y,3/4-z
1/4-x,1/2+y,3/4-z
-x,1/2-y,1/2-z
3/4+x,1/4+y,1/2-z
-x,1/4+y,1/4+z
3/4+x,1/2-y,1/4+z
1/2+x,y,1/2+z
3/4-x,1/4-y,1/2+z
1/2+x,1/4-y,3/4-z
3/4-x,y,3/4-z
1/2-x,-y,1/2-z
1/4+x,3/4+y,1/2-z
1/2-x,3/4+y,1/4+z
1/4+x,-y,1/4+z
1/2+x,1/2+y,z
3/4-x,3/4-y,z
1/2+x,3/4-y,1/4-z
3/4-x,1/2+y,1/4-z
1/2-x,1/2-y,-z
1/4+x,1/4+y,-z
1/2-x,1/4+y,3/4+z
1/4+x,1/2-y,3/4+z
loop_
_atom_site_type_symbol
_atom_site_label
_atom_site_fract_x
_atom_site_fract_y
_atom_site_fract_z
Si Si1 0.264435 0.587841 0.966325
Si Si2 0.125000 0.625000 0.374856
Si Si3 0.385206 0.116823 0.230434
Si Si4 0.803987 0.031077 0.422658
O O1 0.274288 0.609376 0.880402
O O2 0.250000 0.750000 0.000000
O O3 0.315488 0.543068 0.997997
O O4 0.224378 0.486078 0.001115
O O5 0.150357 0.512826 0.317846
O O6 0.105720 0.499394 0.430739
O O7 0.355028 0.166445 0.300000
O O8 0.807266 0.875000 0.375000
#
# Coordination Sequence:
#
# PCOD9515704 Si02
#       4
#    32  16  32  32
#     4  10  22  36  68  96 134 173 231 282 340 419
#     4  10  24  38  72  98 134 180 228 286 346 414
#     4  11  23  43  69  97 141 180 233 278 360 412
#     4  10  22  39  68 100 131 179 229 282 343 421
#
# _framework density 24.408223
#
# number of rings (size 3 to 8) (size 9 to 14) (size 15 to 20)
#    0.000    1.714    0.000    4.286   16.000    3.429 
#    0.000    4.286    6.286    0.000    0.000    0.000 
#    0.000    0.000    0.000    0.000    0.000    0.000 
#
# Total GULP energy -156108.498898 kJ/mol
# GULP energy per Si atom -5575.303532 kJ/mol
# Density = 2.435267 g / cm^3
# Si number density = 24.408223 Si / 1000 Ang^3
#
#
#
# Elastic Constant Matrix: (Units=GPa)
#
#
# Indices 1 2 3 4 5 6 
#
# 1 98.5936 21.9737 36.4139 0.0000 0.0000 0.0000
# 2 21.9737 62.7623 46.3370 0.0000 0.0000 0.0000
# 3 36.4139 46.3370 139.3502 0.0000 0.0000 0.0000
# 4 0.0000 0.0000 0.0000 27.1434 0.0000 0.0000
# 5 0.0000 0.0000 0.0000 0.0000 6.8765 0.0000
# 6 0.0000 0.0000 0.0000 0.0000 0.0000 8.7714
#
#
#
# Elastic Compliance Matrix: (Units=1/GPa)
#
#
# Indices 1 2 3 4 5 6 
#
# 1 0.011491 -0.002394 -0.002207 0.000000 0.000000 0.000000
# 2 -0.002394 0.021616 -0.006562 0.000000 0.000000 0.000000
# 3 -0.002207 -0.006562 0.009935 0.000000 0.000000 0.000000
# 4 0.000000 0.000000 0.000000 0.036841 0.000000 0.000000
# 5 0.000000 0.000000 0.000000 0.000000 0.145422 0.000000
# 6 0.000000 0.000000 0.000000 0.000000 0.000000 0.114007
#
#
# Mechanical properties :
#
#
# Convention : Reuss Voigt Hill
#
# Bulk Modulus (GPa) = 48.27110 56.68392 52.47751
# Shear Modulus (GPa) = 13.56692 21.62370 17.59531
#
# Velocity S-wave (km/s) = 2.36017 2.97967 2.68783
# Velocity P-wave (km/s) = 5.21984 5.92550 5.58383
#
# Compressibility (1/GPa) = 0.02071633
#
# Stress axis : x y z
#
# Youngs Moduli (GPa) = 87.02292 46.26168 100.65507
#
# Poissons Ratio (x) = 0.11075 0.22212
# Poissons Ratio (y) = 0.20833 0.66053
# Poissons Ratio (z) = 0.19204 0.30358
#
# Static dielectric constant tensor:
#      x y z
#    x 1.932490 0.000000 0.000000 
#    y 0.000000 1.973770 0.000000 
#    z 0.000000 0.000000 1.975820 
# 
# From -- ./inp_files/39340.got.cif
#   From: 2010.05.17/outbox.cif.g08.bks.cpg/sg70_20_cif.got.tgz:39340.got - 2010.06.03 15:57:51.
