data_PCOD9515729
_publ_section_title
;
Structure prediction by ZEFSAII (Michael W. Deem and Ramdas Pophale) SiO2 
 PCOD9515729
Probable space group: F D D D
;
_chemical_formula_sum "Si O2"
_cell_formula_units_Z 176
_cell_length_a 18.521197
_cell_length_b 17.979111
_cell_length_c 28.880918
_cell_angle_alpha 90.000000
_cell_angle_beta 90.000000
_cell_angle_gamma 90.000000
_cell_volume 9617.191375
_symmetry_space_group_name_H-M "F D D D"
_symmetry_group_IT_number 70
_space_group.IT_coordinate_system_code '2'
_symmetry_cell_setting 'orthorhombic'
loop_
_space_group_symop_operation_xyz
x,y,z
1/4-x,1/4-y,z
x,1/4-y,1/4-z
1/4-x,y,1/4-z
-x,-y,-z
3/4+x,3/4+y,-z
-x,3/4+y,3/4+z
3/4+x,-y,3/4+z
x,1/2+y,1/2+z
1/4-x,3/4-y,1/2+z
x,3/4-y,3/4-z
1/4-x,1/2+y,3/4-z
-x,1/2-y,1/2-z
3/4+x,1/4+y,1/2-z
-x,1/4+y,1/4+z
3/4+x,1/2-y,1/4+z
1/2+x,y,1/2+z
3/4-x,1/4-y,1/2+z
1/2+x,1/4-y,3/4-z
3/4-x,y,3/4-z
1/2-x,-y,1/2-z
1/4+x,3/4+y,1/2-z
1/2-x,3/4+y,1/4+z
1/4+x,-y,1/4+z
1/2+x,1/2+y,z
3/4-x,3/4-y,z
1/2+x,3/4-y,1/4-z
3/4-x,1/2+y,1/4-z
1/2-x,1/2-y,-z
1/4+x,1/4+y,-z
1/2-x,1/4+y,3/4+z
1/4+x,1/2-y,3/4+z
loop_
_atom_site_type_symbol
_atom_site_label
_atom_site_fract_x
_atom_site_fract_y
_atom_site_fract_z
Si Si1 0.907239 0.455244 0.237636
Si Si2 0.237468 0.375000 0.875000
Si Si3 0.380770 0.638967 0.552198
Si Si4 0.625000 0.749844 0.625000
Si Si5 0.917170 0.744067 0.830614
Si Si6 0.934838 0.659122 0.460827
Si Si7 0.255824 0.375000 0.375000
O O1 0.875000 0.375000 0.225809
O O2 0.873819 0.522467 0.207502
O O3 0.885312 0.472429 0.290967
O O4 0.992932 0.449909 0.228596
O O5 0.182890 0.395157 0.916436
O O6 0.284993 0.440375 0.852699
O O7 0.371886 0.601663 0.502411
O O8 0.454254 0.630260 0.580380
O O9 0.646202 0.798515 0.669241
O O10 0.693326 0.695950 0.618003
O O11 0.875000 0.713217 0.875000
O O12 0.956006 0.674282 0.806335
#
# Coordination Sequence:
#
# PCOD9515729 Si02
#       7
#    32  16  32  16  32  32  16
#     4  11  21  36  58  87 122 159 196 244 300 358
#     4  11  21  37  57  87 121 164 198 238 289 369
#     4  10  22  38  61  88 120 155 203 247 296 360
#     4  11  22  42  66  85 118 154 202 253 306 360
#     4  11  21  34  56  87 121 159 196 238 295 360
#     4  11  22  38  60  89 120 157 197 253 302 355
#     4  10  22  43  67  86 110 162 202 246 308 358
#
# _framework density 18.300560999999998
#
# number of rings (size 3 to 8) (size 9 to 14) (size 15 to 20)
#    0.000    1.273    2.727    4.636    0.000    3.636 
#    0.000    0.000    0.000    0.000    0.000    0.000 
#    0.000    0.000    0.000    0.000    0.000    0.000 
#
# Total GULP energy -245446.229766 kJ/mol
# GULP energy per Si atom -5578.323404 kJ/mol
# Density = 1.825891 g / cm^3
# Si number density = 18.300561 Si / 1000 Ang^3
#
#
#
# Elastic Constant Matrix: (Units=GPa)
#
#
# Indices 1 2 3 4 5 6 
#
# 1 100.2937 49.0832 70.2488 0.0000 0.0000 0.0000
# 2 49.0832 95.2903 70.5073 0.0000 0.0000 0.0000
# 3 70.2488 70.5073 139.5284 0.0000 0.0000 0.0000
# 4 0.0000 0.0000 0.0000 28.0600 0.0000 0.0000
# 5 0.0000 0.0000 0.0000 0.0000 22.2677 0.0000
# 6 0.0000 0.0000 0.0000 0.0000 0.0000 14.9521
#
#
#
# Elastic Compliance Matrix: (Units=1/GPa)
#
#
# Indices 1 2 3 4 5 6 
#
# 1 0.016173 -0.003682 -0.006282 0.000000 0.000000 0.000000
# 2 -0.003682 0.017600 -0.007040 0.000000 0.000000 0.000000
# 3 -0.006282 -0.007040 0.013887 0.000000 0.000000 0.000000
# 4 0.000000 0.000000 0.000000 0.035638 0.000000 0.000000
# 5 0.000000 0.000000 0.000000 0.000000 0.044908 0.000000
# 6 0.000000 0.000000 0.000000 0.000000 0.000000 0.066880
#
#
# Mechanical properties :
#
#
# Convention : Reuss Voigt Hill
#
# Bulk Modulus (GPa) = 73.24950 79.42123 76.33537
# Shear Modulus (GPa) = 21.40003 22.74081 22.07042
#
# Velocity S-wave (km/s) = 3.42331 3.52892 3.47651
# Velocity P-wave (km/s) = 7.46580 7.75221 7.61035
#
# Compressibility (1/GPa) = 0.01365197
#
# Stress axis : x y z
#
# Youngs Moduli (GPa) = 61.83206 56.81872 72.00984
#
# Poissons Ratio (x) = 0.20923 0.45235
# Poissons Ratio (y) = 0.22770 0.50692
# Poissons Ratio (z) = 0.38841 0.39998
#
# Static dielectric constant tensor:
#      x y z
#    x 1.636520 0.000000 0.000000 
#    y 0.000000 1.635090 0.000000 
#    z 0.000000 0.000000 1.627500 
# 
# From -- ./inp_files/35288.got.cif
#   From: 2010.05.17/outbox.cif.g08.bks.cpg/sg70_18_cif.got.tgz:35288.got - 2010.06.03 15:57:51.
