data_PCOD9515238
_publ_section_title
;
Structure prediction by ZEFSAII (Michael W. Deem and Ramdas Pophale) SiO2 
 PCOD9515238
Probable space group: F D D D
;
_chemical_formula_sum "Si O2"
_cell_formula_units_Z 168
_cell_length_a 14.930138
_cell_length_b 16.219349
_cell_length_c 26.418566
_cell_angle_alpha 90.000000
_cell_angle_beta 90.000000
_cell_angle_gamma 90.000000
_cell_volume 6397.443826
_symmetry_space_group_name_H-M "F D D D"
_symmetry_group_IT_number 70
_space_group.IT_coordinate_system_code '2'
_symmetry_cell_setting 'orthorhombic'
loop_
_space_group_symop_operation_xyz
x,y,z
1/4-x,1/4-y,z
x,1/4-y,1/4-z
1/4-x,y,1/4-z
-x,-y,-z
3/4+x,3/4+y,-z
-x,3/4+y,3/4+z
3/4+x,-y,3/4+z
x,1/2+y,1/2+z
1/4-x,3/4-y,1/2+z
x,3/4-y,3/4-z
1/4-x,1/2+y,3/4-z
-x,1/2-y,1/2-z
3/4+x,1/4+y,1/2-z
-x,1/4+y,1/4+z
3/4+x,1/2-y,1/4+z
1/2+x,y,1/2+z
3/4-x,1/4-y,1/2+z
1/2+x,1/4-y,3/4-z
3/4-x,y,3/4-z
1/2-x,-y,1/2-z
1/4+x,3/4+y,1/2-z
1/2-x,3/4+y,1/4+z
1/4+x,-y,1/4+z
1/2+x,1/2+y,z
3/4-x,3/4-y,z
1/2+x,3/4-y,1/4-z
3/4-x,1/2+y,1/4-z
1/2-x,1/2-y,-z
1/4+x,1/4+y,-z
1/2-x,1/4+y,3/4+z
1/4+x,1/2-y,3/4+z
loop_
_atom_site_type_symbol
_atom_site_label
_atom_site_fract_x
_atom_site_fract_y
_atom_site_fract_z
Si Si1 0.354340 0.220742 0.451058
Si Si2 0.830090 0.214624 0.602189
Si Si3 0.375000 0.875000 0.875000
Si Si4 0.415581 0.797309 0.695707
Si Si5 0.891239 0.276824 0.319499
Si Si6 0.195097 0.202515 0.282651
O O1 0.349441 0.304563 0.417789
O O2 0.265531 0.178008 0.429424
O O3 0.335247 0.228062 0.511485
O O4 0.453235 0.181183 0.452801
O O5 0.814938 0.125000 0.625000
O O6 0.851822 0.273538 0.649305
O O7 0.747901 0.234311 0.564675
O O8 0.919272 0.223442 0.569972
O O9 0.375000 0.875000 0.723359
O O10 0.875000 0.239702 0.375000
O O11 0.875000 0.375000 0.323929
O O12 0.826082 0.259478 0.272787
O O13 0.125000 0.125000 0.289076
#
# Coordination Sequence:
#
# PCOD9515238 Si02
#       6
#    32  32   8  32  32  32
#     4  11  26  47  78 112 156 202 266 321 394 473
#     4  12  25  43  74 108 149 201 254 322 392 473
#     4  12  24  48  76 116 148 214 266 320 382 472
#     4  11  26  50  74 113 155 203 261 328 396 467
#     4  10  20  44  66 102 150 188 243 308 392 466
#     4  11  26  46  72 113 152 199 262 324 396 472
#
# _framework density 26.260489
#
# number of rings (size 3 to 8) (size 9 to 14) (size 15 to 20)
#    0.000    0.952    2.857    3.429    8.000    0.000 
#    6.857    0.000    0.000    0.000    0.000    0.000 
#    0.000    0.000    0.000    0.000    0.000    0.000 
#
# Total GULP energy -234066.029459 kJ/mol
# GULP energy per Si atom -5573.000701 kJ/mol
# Density = 2.620072 g / cm^3
# Si number density = 26.260489 Si / 1000 Ang^3
#
#
#
# Elastic Constant Matrix: (Units=GPa)
#
#
# Indices 1 2 3 4 5 6 
#
# 1 186.7973 46.8113 5.6210 0.0000 0.0000 0.0000
# 2 46.8113 60.4053 14.0660 0.0000 0.0000 0.0000
# 3 5.6210 14.0660 133.6485 0.0000 0.0000 0.0000
# 4 0.0000 0.0000 0.0000 16.1481 0.0000 0.0000
# 5 0.0000 0.0000 0.0000 0.0000 27.7896 0.0000
# 6 0.0000 0.0000 0.0000 0.0000 0.0000 22.4202
#
#
#
# Elastic Compliance Matrix: (Units=1/GPa)
#
#
# Indices 1 2 3 4 5 6 
#
# 1 0.006653 -0.005219 0.000269 0.000000 0.000000 0.000000
# 2 -0.005219 0.021064 -0.001997 0.000000 0.000000 0.000000
# 3 0.000269 -0.001997 0.007681 0.000000 0.000000 0.000000
# 4 0.000000 0.000000 0.000000 0.061927 0.000000 0.000000
# 5 0.000000 0.000000 0.000000 0.000000 0.035985 0.000000
# 6 0.000000 0.000000 0.000000 0.000000 0.000000 0.044603
#
#
# Mechanical properties :
#
#
# Convention : Reuss Voigt Hill
#
# Bulk Modulus (GPa) = 46.50033 57.09419 51.79726
# Shear Modulus (GPa) = 25.12894 34.22845 29.67869
#
# Velocity S-wave (km/s) = 3.09675 3.61421 3.36544
# Velocity P-wave (km/s) = 5.52560 6.26142 5.90498
#
# Compressibility (1/GPa) = 0.02150522
#
# Stress axis : x y z
#
# Youngs Moduli (GPa) = 150.30697 47.47418 130.18792
#
# Poissons Ratio (x) = 0.24775 -0.03507
# Poissons Ratio (y) = 0.78438 0.26004
# Poissons Ratio (z) = -0.04050 0.09483
#
# Static dielectric constant tensor:
#      x y z
#    x 2.179280 0.000000 0.000000 
#    y 0.000000 2.046070 0.000000 
#    z 0.000000 0.000000 2.090910 
# 
# From -- ./inp_files/58450.got.cif
#   From: 2010.05.17/outbox.cif.g08.bks.cpg/sg70_30_cif.got.tgz:58450.got - 2010.06.03 15:57:51.
