data_PCOD9515180
_publ_section_title
;
Structure prediction by ZEFSAII (Michael W. Deem and Ramdas Pophale) SiO2 
 PCOD9515180
Probable space group: F D D D
;
_chemical_formula_sum "Si O2"
_cell_formula_units_Z 176
_cell_length_a 15.678033
_cell_length_b 21.555201
_cell_length_c 24.909931
_cell_angle_alpha 90.000000
_cell_angle_beta 90.000000
_cell_angle_gamma 90.000000
_cell_volume 8418.140613
_symmetry_space_group_name_H-M "F D D D"
_symmetry_group_IT_number 70
_space_group.IT_coordinate_system_code '2'
_symmetry_cell_setting 'orthorhombic'
loop_
_space_group_symop_operation_xyz
x,y,z
1/4-x,1/4-y,z
x,1/4-y,1/4-z
1/4-x,y,1/4-z
-x,-y,-z
3/4+x,3/4+y,-z
-x,3/4+y,3/4+z
3/4+x,-y,3/4+z
x,1/2+y,1/2+z
1/4-x,3/4-y,1/2+z
x,3/4-y,3/4-z
1/4-x,1/2+y,3/4-z
-x,1/2-y,1/2-z
3/4+x,1/4+y,1/2-z
-x,1/4+y,1/4+z
3/4+x,1/2-y,1/4+z
1/2+x,y,1/2+z
3/4-x,1/4-y,1/2+z
1/2+x,1/4-y,3/4-z
3/4-x,y,3/4-z
1/2-x,-y,1/2-z
1/4+x,3/4+y,1/2-z
1/2-x,3/4+y,1/4+z
1/4+x,-y,1/4+z
1/2+x,1/2+y,z
3/4-x,3/4-y,z
1/2+x,3/4-y,1/4-z
3/4-x,1/2+y,1/4-z
1/2-x,1/2-y,-z
1/4+x,1/4+y,-z
1/2-x,1/4+y,3/4+z
1/4+x,1/2-y,3/4+z
loop_
_atom_site_type_symbol
_atom_site_label
_atom_site_fract_x
_atom_site_fract_y
_atom_site_fract_z
Si Si1 0.120877 0.427975 0.006793
Si Si2 0.060808 0.960739 0.037834
Si Si3 0.717501 0.602048 0.378232
Si Si4 0.247462 0.977026 0.023154
Si Si5 0.875000 0.194159 0.875000
Si Si6 0.523047 0.630767 0.561186
O O1 0.189314 0.466049 0.973365
O O2 0.034084 0.417417 0.973541
O O3 0.160445 0.359253 0.019187
O O4 0.113814 0.466383 0.063278
O O5 0.152507 0.992958 0.042151
O O6 0.007418 0.951743 0.091915
O O7 0.000000 0.000000 0.000000
O O8 0.625000 0.625000 0.361067
O O9 0.717082 0.577527 0.438725
O O10 0.787470 0.655387 0.372505
O O11 0.244556 0.947145 0.963625
O O12 0.625000 0.625000 0.553743
O O13 0.506178 0.625000 0.625000
#
# Coordination Sequence:
#
# PCOD9515180 Si02
#       6
#    32  32  32  32  16  32
#     4  10  23  40  64  93 129 168 222 267 336 397
#     4  10  23  41  63  92 129 165 215 278 327 402
#     4  11  21  41  67  89 128 176 217 270 336 393
#     4  11  22  40  64  93 129 170 217 275 327 393
#     4  10  20  42  60  92 132 160 224 272 304 416
#     4  10  22  42  60  89 138 171 209 271 331 392
#
# _framework density 20.907229000000001
#
# number of rings (size 3 to 8) (size 9 to 14) (size 15 to 20)
#    0.000    1.636    5.455    0.545    5.091    5.091 
#    0.000    0.000    0.000    2.182    0.000    0.000 
#    0.000    0.000    0.000    0.000    0.000    0.000 
#
# Total GULP energy -245146.297515 kJ/mol
# GULP energy per Si atom -5571.506762 kJ/mol
# Density = 2.085964 g / cm^3
# Si number density = 20.907229 Si / 1000 Ang^3
#
#
#
# Elastic Constant Matrix: (Units=GPa)
#
#
# Indices 1 2 3 4 5 6 
#
# 1 174.8991 41.2957 55.1332 0.0000 0.0000 0.0000
# 2 41.2957 24.9249 21.5926 0.0000 0.0000 0.0000
# 3 55.1332 21.5926 125.3208 0.0000 0.0000 0.0000
# 4 0.0000 0.0000 0.0000 23.4242 0.0000 0.0000
# 5 0.0000 0.0000 0.0000 0.0000 30.0527 0.0000
# 6 0.0000 0.0000 0.0000 0.0000 0.0000 36.9807
#
#
#
# Elastic Compliance Matrix: (Units=1/GPa)
#
#
# Indices 1 2 3 4 5 6 
#
# 1 0.009712 -0.014563 -0.001763 0.000000 0.000000 0.000000
# 2 -0.014563 0.068998 -0.005481 0.000000 0.000000 0.000000
# 3 -0.001763 -0.005481 0.009700 0.000000 0.000000 0.000000
# 4 0.000000 0.000000 0.000000 0.042691 0.000000 0.000000
# 5 0.000000 0.000000 0.000000 0.000000 0.033275 0.000000
# 6 0.000000 0.000000 0.000000 0.000000 0.000000 0.027041
#
#
# Mechanical properties :
#
#
# Convention : Reuss Voigt Hill
#
# Bulk Modulus (GPa) = 22.32472 62.35421 42.33947
# Shear Modulus (GPa) = 20.00293 31.89974 25.95133
#
# Velocity S-wave (km/s) = 3.09649 3.91036 3.52698
# Velocity P-wave (km/s) = 4.84618 7.09061 6.07299
#
# Compressibility (1/GPa) = 0.04479340
#
# Stress axis : x y z
#
# Youngs Moduli (GPa) = 102.96500 14.49325 103.09556
#
# Poissons Ratio (x) = 0.21107 0.18180
# Poissons Ratio (y) = 1.49951 0.56509
# Poissons Ratio (z) = 0.18157 0.07944
#
# Static dielectric constant tensor:
#      x y z
#    x 1.723420 0.000000 0.000000 
#    y 0.000000 1.786490 0.000000 
#    z 0.000000 0.000000 1.889580 
# 
# From -- ./inp_files/28945.got.cif
#   From: 2010.05.17/outbox.cif.g08.bks.cpg/sg70_15_cif.got.tgz:28945.got - 2010.06.03 15:57:51.
