data_PCOD9515786
_publ_section_title
;
Structure prediction by ZEFSAII (Michael W. Deem and Ramdas Pophale) SiO2 
 PCOD9515786
Probable space group: F D D D
;
_chemical_formula_sum "Si O2"
_cell_formula_units_Z 144
_cell_length_a 37.674612
_cell_length_b 10.886591
_cell_length_c 16.290624
_cell_angle_alpha 90.000000
_cell_angle_beta 90.000000
_cell_angle_gamma 90.000000
_cell_volume 6681.568350
_symmetry_space_group_name_H-M "F D D D"
_symmetry_group_IT_number 70
_space_group.IT_coordinate_system_code '2'
_symmetry_cell_setting 'orthorhombic'
loop_
_space_group_symop_operation_xyz
x,y,z
1/4-x,1/4-y,z
x,1/4-y,1/4-z
1/4-x,y,1/4-z
-x,-y,-z
3/4+x,3/4+y,-z
-x,3/4+y,3/4+z
3/4+x,-y,3/4+z
x,1/2+y,1/2+z
1/4-x,3/4-y,1/2+z
x,3/4-y,3/4-z
1/4-x,1/2+y,3/4-z
-x,1/2-y,1/2-z
3/4+x,1/4+y,1/2-z
-x,1/4+y,1/4+z
3/4+x,1/2-y,1/4+z
1/2+x,y,1/2+z
3/4-x,1/4-y,1/2+z
1/2+x,1/4-y,3/4-z
3/4-x,y,3/4-z
1/2-x,-y,1/2-z
1/4+x,3/4+y,1/2-z
1/2-x,3/4+y,1/4+z
1/4+x,-y,1/4+z
1/2+x,1/2+y,z
3/4-x,3/4-y,z
1/2+x,3/4-y,1/4-z
3/4-x,1/2+y,1/4-z
1/2-x,1/2-y,-z
1/4+x,1/4+y,-z
1/2-x,1/4+y,3/4+z
1/4+x,1/2-y,3/4+z
loop_
_atom_site_type_symbol
_atom_site_label
_atom_site_fract_x
_atom_site_fract_y
_atom_site_fract_z
Si Si1 0.111203 0.390573 0.032922
Si Si2 0.920317 0.750403 0.580659
Si Si3 0.478219 0.266877 0.441895
Si Si4 0.375000 0.375000 0.040745
Si Si5 0.971257 0.099219 0.464567
O O1 0.125000 0.415209 0.125000
O O2 0.070056 0.424042 0.021614
O O3 0.134779 0.466942 0.969617
O O4 0.117392 0.247040 0.011547
O O5 0.932023 0.625000 0.625000
O O6 0.949630 0.780761 0.513336
O O7 0.908574 0.845943 0.650067
O O8 0.471561 0.375000 0.375000
O O9 0.475843 0.148041 0.383850
O O10 0.516145 0.282391 0.484892
O O11 0.000000 0.000000 0.500000
#
# Coordination Sequence:
#
# PCOD9515786 Si02
#       5
#    32  32  32  16  32
#     4  11  22  44  67  93 131 173 227 273 325 407
#     4  10  23  40  61  93 129 165 217 269 322 390
#     4  10  22  40  62  93 123 166 214 265 335 391
#     4  10  25  36  65  96 126 172 214 276 335 378
#     4  10  23  39  65  97 130 168 217 274 341 392
#
# _framework density 21.551825999999998
#
# number of rings (size 3 to 8) (size 9 to 14) (size 15 to 20)
#    0.000    1.778    2.222    0.333    9.333    6.222 
#    0.000    3.333    0.000    0.000    0.000    0.000 
#    0.000    0.000    0.000    0.000    0.000    0.000 
#
# Total GULP energy -200919.632236 kJ/mol
# GULP energy per Si atom -5581.100895 kJ/mol
# Density = 2.150277 g / cm^3
# Si number density = 21.551826 Si / 1000 Ang^3
#
#
#
# Elastic Constant Matrix: (Units=GPa)
#
#
# Indices 1 2 3 4 5 6 
#
# 1 149.8235 6.6686 39.3133 0.0000 0.0000 0.0000
# 2 6.6686 31.3555 11.3219 0.0000 0.0000 0.0000
# 3 39.3133 11.3219 90.2793 0.0000 0.0000 0.0000
# 4 0.0000 0.0000 0.0000 16.7316 0.0000 0.0000
# 5 0.0000 0.0000 0.0000 0.0000 18.9724 0.0000
# 6 0.0000 0.0000 0.0000 0.0000 0.0000 -1.0797
#
#
#
# Elastic Compliance Matrix: (Units=1/GPa)
#
#
# Indices 1 2 3 4 5 6 
#
# 1 0.007541 -0.000438 -0.003229 0.000000 0.000000 0.000000
# 2 -0.000438 0.033430 -0.004002 0.000000 0.000000 0.000000
# 3 -0.003229 -0.004002 0.012985 0.000000 0.000000 0.000000
# 4 0.000000 0.000000 0.000000 0.059767 0.000000 0.000000
# 5 0.000000 0.000000 0.000000 0.000000 0.052708 0.000000
# 6 0.000000 0.000000 0.000000 0.000000 0.000000 -0.926150
#
#
# Mechanical properties :
#
#
# Convention : Reuss Voigt Hill
#
# Bulk Modulus (GPa) = 25.89404 42.89621 34.39512
# Shear Modulus (GPa) = -6.83520 21.20181 7.18330
#
# Velocity S-wave (km/s) = -1.78281 3.13990 1.82764
# Velocity P-wave (km/s) = 2.79338 5.75258 4.52190
#
# Compressibility (1/GPa) = 0.03861893
#
# Stress axis : x y z
#
# Youngs Moduli (GPa) = 132.60312 29.91288 77.01350
#
# Poissons Ratio (x) = 0.01310 0.24868
# Poissons Ratio (y) = 0.05807 0.30819
# Poissons Ratio (z) = 0.42818 0.11971
#
# Static dielectric constant tensor:
#      x y z
#    x 1.787670 0.000000 0.000000 
#    y 0.000000 1.968660 0.000000 
#    z 0.000000 0.000000 1.797490 
# 
# From -- ./inp_files/39476.got.cif
#   From: 2010.05.17/outbox.cif.g08.bks.cpg/sg70_20_cif.got.tgz:39476.got - 2010.06.03 15:57:51.
