data_PCOD9515879
_publ_section_title
;
Structure prediction by ZEFSAII (Michael W. Deem and Ramdas Pophale) SiO2 
 PCOD9515879
Probable space group: F D D D
;
_chemical_formula_sum "Si O2"
_cell_formula_units_Z 96
_cell_length_a 16.390997
_cell_length_b 10.154462
_cell_length_c 22.876290
_cell_angle_alpha 90.000000
_cell_angle_beta 90.000000
_cell_angle_gamma 90.000000
_cell_volume 3807.569882
_symmetry_space_group_name_H-M "F D D D"
_symmetry_group_IT_number 70
_space_group.IT_coordinate_system_code '2'
_symmetry_cell_setting 'orthorhombic'
loop_
_space_group_symop_operation_xyz
x,y,z
1/4-x,1/4-y,z
x,1/4-y,1/4-z
1/4-x,y,1/4-z
-x,-y,-z
3/4+x,3/4+y,-z
-x,3/4+y,3/4+z
3/4+x,-y,3/4+z
x,1/2+y,1/2+z
1/4-x,3/4-y,1/2+z
x,3/4-y,3/4-z
1/4-x,1/2+y,3/4-z
-x,1/2-y,1/2-z
3/4+x,1/4+y,1/2-z
-x,1/4+y,1/4+z
3/4+x,1/2-y,1/4+z
1/2+x,y,1/2+z
3/4-x,1/4-y,1/2+z
1/2+x,1/4-y,3/4-z
3/4-x,y,3/4-z
1/2-x,-y,1/2-z
1/4+x,3/4+y,1/2-z
1/2-x,3/4+y,1/4+z
1/4+x,-y,1/4+z
1/2+x,1/2+y,z
3/4-x,3/4-y,z
1/2+x,3/4-y,1/4-z
3/4-x,1/2+y,1/4-z
1/2-x,1/2-y,-z
1/4+x,1/4+y,-z
1/2-x,1/4+y,3/4+z
1/4+x,1/2-y,3/4+z
loop_
_atom_site_type_symbol
_atom_site_label
_atom_site_fract_x
_atom_site_fract_y
_atom_site_fract_z
Si Si1 0.247513 0.237526 0.893470
Si Si2 0.384049 0.654428 0.462000
Si Si3 0.005142 0.966159 0.319040
O O1 0.207960 0.375000 0.875000
O O2 0.311465 0.259926 0.947537
O O3 0.301862 0.186093 0.839082
O O4 0.204937 0.104371 0.911764
O O5 0.332737 0.518861 0.454816
O O6 0.435289 0.656124 0.520789
O O7 0.994107 0.875000 0.375000
#
# Coordination Sequence:
#
# PCOD9515879 Si02
#       3
#    32  32  32
#     4   9  20  42  68 100 146 199 240 309 394 442
#     4   9  20  40  71 102 145 197 250 312 379 459
#     4  10  22  41  73 105 149 199 258 310 389 456
#
# _framework density 25.212931999999999
#
# number of rings (size 3 to 8) (size 9 to 14) (size 15 to 20)
#    2.000    0.667    0.000    2.000    0.000    5.333 
#    0.000    3.333    0.000    0.000    0.000    0.000 
#    0.000    0.000    0.000    0.000    0.000    0.000 
#
# Total GULP energy -133770.812653 kJ/mol
# GULP energy per Si atom -5573.783861 kJ/mol
# Density = 2.515555 g / cm^3
# Si number density = 25.212932 Si / 1000 Ang^3
#
#
#
# Elastic Constant Matrix: (Units=GPa)
#
#
# Indices 1 2 3 4 5 6 
#
# 1 96.6937 71.9527 83.8539 0.0000 0.0000 0.0000
# 2 71.9527 160.9571 75.2261 0.0000 0.0000 0.0000
# 3 83.8539 75.2261 182.5133 0.0000 0.0000 0.0000
# 4 0.0000 0.0000 0.0000 30.0878 0.0000 0.0000
# 5 0.0000 0.0000 0.0000 0.0000 -29.0191 0.0000
# 6 0.0000 0.0000 0.0000 0.0000 0.0000 -61.5048
#
#
#
# Elastic Compliance Matrix: (Units=1/GPa)
#
#
# Indices 1 2 3 4 5 6 
#
# 1 0.021093 -0.006069 -0.007189 0.000000 0.000000 0.000000
# 2 -0.006069 0.009441 -0.001103 0.000000 0.000000 0.000000
# 3 -0.007189 -0.001103 0.009237 0.000000 0.000000 0.000000
# 4 0.000000 0.000000 0.000000 0.033236 0.000000 0.000000
# 5 0.000000 0.000000 0.000000 0.000000 -0.034460 0.000000
# 6 0.000000 0.000000 0.000000 0.000000 0.000000 -0.016259
#
#
# Mechanical properties :
#
#
# Convention : Reuss Voigt Hill
#
# Bulk Modulus (GPa) = 90.51437 100.24772 95.38104
# Shear Modulus (GPa) = 91.41768 1.85486 46.63627
#
# Velocity S-wave (km/s) = 6.02802 0.85865 4.30548
# Velocity P-wave (km/s) = 9.18843 6.38982 7.91382
#
# Compressibility (1/GPa) = 0.01104797
#
# Stress axis : x y z
#
# Youngs Moduli (GPa) = 47.40949 105.91620 108.26233
#
# Poissons Ratio (x) = 0.64281 0.77834
# Poissons Ratio (y) = 0.28773 0.11942
# Poissons Ratio (z) = 0.34085 0.11684
#
# Static dielectric constant tensor:
#      x y z
#    x 2.045280 0.000000 0.000000 
#    y 0.000000 1.995960 0.000000 
#    z 0.000000 0.000000 2.035750 
# 
# From -- ./inp_files/59146.got.cif
#   From: 2010.05.17/outbox.cif.g08.bks.cpg/sg70_30_cif.got.tgz:59146.got - 2010.06.03 15:57:51.
