data_PCOD9515505
_publ_section_title
;
Structure prediction by ZEFSAII (Michael W. Deem and Ramdas Pophale) SiO2 
 PCOD9515505
Probable space group: F D D D
;
_chemical_formula_sum "Si O2"
_cell_formula_units_Z 176
_cell_length_a 13.652706
_cell_length_b 26.091681
_cell_length_c 23.597978
_cell_angle_alpha 90.000000
_cell_angle_beta 90.000000
_cell_angle_gamma 90.000000
_cell_volume 8406.120093
_symmetry_space_group_name_H-M "F D D D"
_symmetry_group_IT_number 70
_space_group.IT_coordinate_system_code '2'
_symmetry_cell_setting 'orthorhombic'
loop_
_space_group_symop_operation_xyz
x,y,z
1/4-x,1/4-y,z
x,1/4-y,1/4-z
1/4-x,y,1/4-z
-x,-y,-z
3/4+x,3/4+y,-z
-x,3/4+y,3/4+z
3/4+x,-y,3/4+z
x,1/2+y,1/2+z
1/4-x,3/4-y,1/2+z
x,3/4-y,3/4-z
1/4-x,1/2+y,3/4-z
-x,1/2-y,1/2-z
3/4+x,1/4+y,1/2-z
-x,1/4+y,1/4+z
3/4+x,1/2-y,1/4+z
1/2+x,y,1/2+z
3/4-x,1/4-y,1/2+z
1/2+x,1/4-y,3/4-z
3/4-x,y,3/4-z
1/2-x,-y,1/2-z
1/4+x,3/4+y,1/2-z
1/2-x,3/4+y,1/4+z
1/4+x,-y,1/4+z
1/2+x,1/2+y,z
3/4-x,3/4-y,z
1/2+x,3/4-y,1/4-z
3/4-x,1/2+y,1/4-z
1/2-x,1/2-y,-z
1/4+x,1/4+y,-z
1/2-x,1/4+y,3/4+z
1/4+x,1/2-y,3/4+z
loop_
_atom_site_type_symbol
_atom_site_label
_atom_site_fract_x
_atom_site_fract_y
_atom_site_fract_z
Si Si1 0.625000 0.625000 0.940475
Si Si2 0.125000 0.625000 0.125000
Si Si3 0.084684 0.037502 0.386618
Si Si4 0.804803 0.565303 0.567348
Si Si5 0.089373 0.241278 0.502489
Si Si6 0.219477 0.351657 0.786205
Si Si7 0.625000 0.125000 0.625000
Si Si8 0.125000 0.973500 0.625000
O O1 0.647040 0.674054 0.901035
O O2 0.717150 0.618121 0.982099
O O3 0.205448 0.594278 0.087567
O O4 0.974891 0.056702 0.373398
O O5 0.085422 0.979097 0.362249
O O6 0.106249 0.039083 0.453113
O O7 0.767598 0.533214 0.512957
O O8 0.890393 0.605758 0.555454
O O9 0.082087 0.298971 0.480138
O O10 0.134581 0.245491 0.565734
O O11 0.300969 0.343585 0.835149
#
# Coordination Sequence:
#
# PCOD9515505 Si02
#       8
#    16   8  32  32  32  32   8  16
#     4  11  24  46  66  95 148 176 232 290 340 411
#     4  12  24  42  68 104 138 162 234 284 318 442
#     4  11  23  43  66  99 139 181 229 281 344 414
#     4  11  24  44  69 103 133 183 225 280 348 397
#     4  11  23  43  66 102 138 177 229 281 347 406
#     4  11  23  45  69  98 139 179 232 285 334 414
#     4  10  22  40  72  98 122 186 226 280 332 384
#     4  10  21  40  66  92 130 184 216 278 345 394
#
# _framework density 20.937125999999999
#
# number of rings (size 3 to 8) (size 9 to 14) (size 15 to 20)
#    0.000    1.091    3.636    5.455    0.000    4.364 
#    3.273    0.000    0.000    0.000    0.000    0.000 
#    0.000    0.000    0.000    0.000    0.000    0.000 
#
# Total GULP energy -245277.862840 kJ/mol
# GULP energy per Si atom -5574.496883 kJ/mol
# Density = 2.088947 g / cm^3
# Si number density = 20.937126 Si / 1000 Ang^3
#
#
#
# Elastic Constant Matrix: (Units=GPa)
#
#
# Indices 1 2 3 4 5 6 
#
# 1 75.1698 29.3039 48.1546 0.0000 0.0000 0.0000
# 2 29.3039 81.4974 37.5442 0.0000 0.0000 0.0000
# 3 48.1546 37.5442 163.1124 0.0000 0.0000 0.0000
# 4 0.0000 0.0000 0.0000 10.8313 0.0000 0.0000
# 5 0.0000 0.0000 0.0000 0.0000 30.2571 0.0000
# 6 0.0000 0.0000 0.0000 0.0000 0.0000 16.1004
#
#
#
# Elastic Compliance Matrix: (Units=1/GPa)
#
#
# Indices 1 2 3 4 5 6 
#
# 1 0.017731 -0.004434 -0.004214 0.000000 0.000000 0.000000
# 2 -0.004434 0.014835 -0.002105 0.000000 0.000000 0.000000
# 3 -0.004214 -0.002105 0.007859 0.000000 0.000000 0.000000
# 4 0.000000 0.000000 0.000000 0.092325 0.000000 0.000000
# 5 0.000000 0.000000 0.000000 0.000000 0.033050 0.000000
# 6 0.000000 0.000000 0.000000 0.000000 0.000000 0.062110
#
#
# Mechanical properties :
#
#
# Convention : Reuss Voigt Hill
#
# Bulk Modulus (GPa) = 52.85994 61.08722 56.97358
# Shear Modulus (GPa) = 19.55226 25.08955 22.32091
#
# Velocity S-wave (km/s) = 3.05922 3.46544 3.26865
# Velocity P-wave (km/s) = 6.14656 6.72698 6.44331
#
# Compressibility (1/GPa) = 0.01891792
#
# Stress axis : x y z
#
# Youngs Moduli (GPa) = 56.39700 67.40952 127.23541
#
# Poissons Ratio (x) = 0.29892 0.53618
# Poissons Ratio (y) = 0.25008 0.26789
# Poissons Ratio (z) = 0.23766 0.14193
#
# Static dielectric constant tensor:
#      x y z
#    x 2.034720 0.000000 0.000000 
#    y 0.000000 1.827580 0.000000 
#    z 0.000000 0.000000 1.794120 
# 
# From -- ./inp_files/28819.got.cif
#   From: 2010.05.17/outbox.cif.g08.bks.cpg/sg70_15_cif.got.tgz:28819.got - 2010.06.03 15:57:51.
