data_PCOD9515230
_publ_section_title
;
Structure prediction by ZEFSAII (Michael W. Deem and Ramdas Pophale) SiO2 
 PCOD9515230
Probable space group: F D D D
;
_chemical_formula_sum "Si O2"
_cell_formula_units_Z 184
_cell_length_a 16.664449
_cell_length_b 20.545536
_cell_length_c 28.149544
_cell_angle_alpha 90.000000
_cell_angle_beta 90.000000
_cell_angle_gamma 90.000000
_cell_volume 9637.841912
_symmetry_space_group_name_H-M "F D D D"
_symmetry_group_IT_number 70
_space_group.IT_coordinate_system_code '2'
_symmetry_cell_setting 'orthorhombic'
loop_
_space_group_symop_operation_xyz
x,y,z
1/4-x,1/4-y,z
x,1/4-y,1/4-z
1/4-x,y,1/4-z
-x,-y,-z
3/4+x,3/4+y,-z
-x,3/4+y,3/4+z
3/4+x,-y,3/4+z
x,1/2+y,1/2+z
1/4-x,3/4-y,1/2+z
x,3/4-y,3/4-z
1/4-x,1/2+y,3/4-z
-x,1/2-y,1/2-z
3/4+x,1/4+y,1/2-z
-x,1/4+y,1/4+z
3/4+x,1/2-y,1/4+z
1/2+x,y,1/2+z
3/4-x,1/4-y,1/2+z
1/2+x,1/4-y,3/4-z
3/4-x,y,3/4-z
1/2-x,-y,1/2-z
1/4+x,3/4+y,1/2-z
1/2-x,3/4+y,1/4+z
1/4+x,-y,1/4+z
1/2+x,1/2+y,z
3/4-x,3/4-y,z
1/2+x,3/4-y,1/4-z
3/4-x,1/2+y,1/4-z
1/2-x,1/2-y,-z
1/4+x,1/4+y,-z
1/2-x,1/4+y,3/4+z
1/4+x,1/2-y,3/4+z
loop_
_atom_site_type_symbol
_atom_site_label
_atom_site_fract_x
_atom_site_fract_y
_atom_site_fract_z
Si Si1 0.625000 0.625000 0.625000
Si Si2 0.044435 0.287572 0.093181
Si Si3 0.782823 0.847562 0.536133
Si Si4 0.128446 0.203289 0.017331
Si Si5 0.242099 0.449046 0.316608
Si Si6 0.386324 0.125000 0.625000
Si Si7 0.205872 0.984429 0.319466
O O1 0.679162 0.576446 0.656234
O O2 0.125000 0.293712 0.125000
O O3 0.060352 0.233301 0.052058
O O4 0.020201 0.352523 0.066100
O O5 0.975250 0.270573 0.131122
O O6 0.875000 0.875000 0.535004
O O7 0.771272 0.775231 0.557297
O O8 0.747615 0.839356 0.483170
O O9 0.125000 0.125000 0.015869
O O10 0.210235 0.228208 0.041963
O O11 0.138574 0.232648 0.964063
O O12 0.169490 0.426609 0.349204
O O13 0.434990 0.088369 0.584779
#
# Coordination Sequence:
#
# PCOD9515230 Si02
#       7
#     8  32  32  32  32  16  32
#     4  10  20  44  60  92 118 160 212 256 310 384
#     4  10  22  39  60  88 123 160 199 254 309 374
#     4  11  22  40  59  88 121 160 207 258 310 367
#     4  10  21  38  59  86 120 157 195 251 308 364
#     4  10  23  37  62  84 120 160 203 255 307 370
#     4  11  20  37  59  86 115 158 198 248 307 366
#     4  10  21  36  59  88 118 152 205 246 298 384
#
# _framework density 19.091411000000001
#
# number of rings (size 3 to 8) (size 9 to 14) (size 15 to 20)
#    0.000    1.739    0.870    3.130    1.217    4.522 
#    0.000    3.478    0.000    0.000    0.000    0.000 
#    0.000    0.000    0.000    0.000    0.000    0.000 
#
# Total GULP energy -256409.497670 kJ/mol
# GULP energy per Si atom -5574.119515 kJ/mol
# Density = 1.904796 g / cm^3
# Si number density = 19.091411 Si / 1000 Ang^3
#
#
#
# Elastic Constant Matrix: (Units=GPa)
#
#
# Indices 1 2 3 4 5 6 
#
# 1 32.6929 9.6704 28.9364 0.0000 0.0000 0.0000
# 2 9.6704 72.8603 45.3757 0.0000 0.0000 0.0000
# 3 28.9364 45.3757 117.0386 0.0000 0.0000 0.0000
# 4 0.0000 0.0000 0.0000 24.1734 0.0000 0.0000
# 5 0.0000 0.0000 0.0000 0.0000 12.9295 0.0000
# 6 0.0000 0.0000 0.0000 0.0000 0.0000 -44.0846
#
#
#
# Elastic Compliance Matrix: (Units=1/GPa)
#
#
# Indices 1 2 3 4 5 6 
#
# 1 0.039223 0.001099 -0.010123 0.000000 0.000000 0.000000
# 2 0.001099 0.018124 -0.007298 0.000000 0.000000 0.000000
# 3 -0.010123 -0.007298 0.013877 0.000000 0.000000 0.000000
# 4 0.000000 0.000000 0.000000 0.041368 0.000000 0.000000
# 5 0.000000 0.000000 0.000000 0.000000 0.077343 0.000000
# 6 0.000000 0.000000 0.000000 0.000000 0.000000 -0.022684
#
#
# Mechanical properties :
#
#
# Convention : Reuss Voigt Hill
#
# Bulk Modulus (GPa) = 25.92169 43.39521 34.65845
# Shear Modulus (GPa) = 23.50109 7.84426 15.67268
#
# Velocity S-wave (km/s) = 3.51233 2.02921 2.86829
# Velocity P-wave (km/s) = 5.48232 5.31694 5.40026
#
# Compressibility (1/GPa) = 0.03857773
#
# Stress axis : x y z
#
# Youngs Moduli (GPa) = 25.49538 55.17430 72.06336
#
# Poissons Ratio (x) = -0.06062 0.72952
# Poissons Ratio (y) = -0.02801 0.52595
# Poissons Ratio (z) = 0.25810 0.40269
#
# Static dielectric constant tensor:
#      x y z
#    x 1.717990 0.000000 0.000000 
#    y 0.000000 1.635980 0.000000 
#    z 0.000000 0.000000 1.691470 
# 
# From -- ./inp_files/37603.got.cif
#   From: 2010.05.17/outbox.cif.g08.bks.cpg/sg70_19_cif.got.tgz:37603.got - 2010.06.03 15:57:51.
