data_PCOD9515011
_publ_section_title
;
Structure prediction by ZEFSAII (Michael W. Deem and Ramdas Pophale) SiO2 
 PCOD9515011
Probable space group: F D D D
;
_chemical_formula_sum "Si O2"
_cell_formula_units_Z 160
_cell_length_a 28.831855
_cell_length_b 23.750250
_cell_length_c 11.142153
_cell_angle_alpha 90.000000
_cell_angle_beta 90.000000
_cell_angle_gamma 90.000000
_cell_volume 7629.742630
_symmetry_space_group_name_H-M "F D D D"
_symmetry_group_IT_number 70
_space_group.IT_coordinate_system_code '2'
_symmetry_cell_setting 'orthorhombic'
loop_
_space_group_symop_operation_xyz
x,y,z
1/4-x,1/4-y,z
x,1/4-y,1/4-z
1/4-x,y,1/4-z
-x,-y,-z
3/4+x,3/4+y,-z
-x,3/4+y,3/4+z
3/4+x,-y,3/4+z
x,1/2+y,1/2+z
1/4-x,3/4-y,1/2+z
x,3/4-y,3/4-z
1/4-x,1/2+y,3/4-z
-x,1/2-y,1/2-z
3/4+x,1/4+y,1/2-z
-x,1/4+y,1/4+z
3/4+x,1/2-y,1/4+z
1/2+x,y,1/2+z
3/4-x,1/4-y,1/2+z
1/2+x,1/4-y,3/4-z
3/4-x,y,3/4-z
1/2-x,-y,1/2-z
1/4+x,3/4+y,1/2-z
1/2-x,3/4+y,1/4+z
1/4+x,-y,1/4+z
1/2+x,1/2+y,z
3/4-x,3/4-y,z
1/2+x,3/4-y,1/4-z
3/4-x,1/2+y,1/4-z
1/2-x,1/2-y,-z
1/4+x,1/4+y,-z
1/2-x,1/4+y,3/4+z
1/4+x,1/2-y,3/4+z
loop_
_atom_site_type_symbol
_atom_site_label
_atom_site_fract_x
_atom_site_fract_y
_atom_site_fract_z
Si Si1 0.973165 0.906929 0.756135
Si Si2 0.888447 0.480948 0.254679
Si Si3 0.560579 0.474892 0.693424
Si Si4 0.420416 0.335967 0.574028
Si Si5 0.654323 0.315664 0.939651
O O1 0.990054 0.875000 0.875000
O O2 0.923084 0.931651 0.790444
O O3 0.962076 0.871910 0.633605
O O4 0.010176 0.955424 0.732644
O O5 0.875000 0.513062 0.375000
O O6 0.845754 0.454014 0.184029
O O7 0.914280 0.519658 0.160940
O O8 0.568078 0.541846 0.717649
O O9 0.568357 0.452936 0.558381
O O10 0.600457 0.442717 0.770473
O O11 0.375000 0.375000 0.546095
O O12 0.662137 0.375000 0.875000
#
# Coordination Sequence:
#
# PCOD9515011 Si02
#       5
#    32  32  32  32  32
#     4  11  21  37  65  98 132 162 218 283 332 388
#     4  10  20  38  65  91 123 172 221 264 331 410
#     4  10  23  41  60  98 129 163 232 269 330 414
#     4   9  20  40  65  92 130 175 212 271 331 391
#     4  10  23  43  62  85 130 178 213 273 343 400
#
# _framework density 20.970562999999999
#
# number of rings (size 3 to 8) (size 9 to 14) (size 15 to 20)
#    0.000    2.000    2.000    0.600    2.800    3.200 
#    0.000   17.000    0.000    0.000    0.000    0.000 
#    0.000    0.000    0.000    0.000    0.000    0.000 
#
# Total GULP energy -222973.909803 kJ/mol
# GULP energy per Si atom -5574.347745 kJ/mol
# Density = 2.092283 g / cm^3
# Si number density = 20.970563 Si / 1000 Ang^3
#
#
#
# Elastic Constant Matrix: (Units=GPa)
#
#
# Indices 1 2 3 4 5 6 
#
# 1 45.6259 3.0383 15.7677 -0.0001 0.0000 -0.0002
# 2 3.0383 94.2965 51.9219 -0.0001 0.0000 0.0016
# 3 15.7677 51.9219 115.6724 -0.0001 0.0000 0.0024
# 4 -0.0001 -0.0001 -0.0001 36.3335 0.0000 0.0030
# 5 0.0000 0.0000 0.0000 0.0000 5.9113 -0.0012
# 6 -0.0002 0.0016 0.0024 0.0030 -0.0012 195.0426
#
#
#
# Elastic Compliance Matrix: (Units=1/GPa)
#
#
# Indices 1 2 3 4 5 6 
#
# 1 0.023123 0.001316 -0.003743 0.000000 0.000000 0.000000
# 2 0.001316 0.014161 -0.006536 0.000000 0.000000 0.000000
# 3 -0.003743 -0.006536 0.012089 0.000000 0.000000 0.000000
# 4 0.000000 0.000000 0.000000 0.027523 0.000000 0.000000
# 5 0.000000 0.000000 0.000000 0.000000 0.169168 0.000001
# 6 0.000000 0.000000 0.000000 0.000000 0.000001 0.005127
#
#
# Mechanical properties :
#
#
# Convention : Reuss Voigt Hill
#
# Bulk Modulus (GPa) = 31.79865 44.11673 37.95769
# Shear Modulus (GPa) = 17.88270 59.78193 38.83231
#
# Velocity S-wave (km/s) = 2.92336 5.34504 4.30787
# Velocity P-wave (km/s) = 5.15666 7.69257 6.54854
#
# Compressibility (1/GPa) = 0.03144787
#
# Stress axis : x y z
#
# Youngs Moduli (GPa) = 43.24674 70.61500 82.71943
#
# Poissons Ratio (x) = -0.09291 0.30958
# Poissons Ratio (y) = -0.05690 0.54065
# Poissons Ratio (z) = 0.16185 0.46153
#
# Static dielectric constant tensor:
#      x y z
#    x 1.728720 0.000000 0.000000 
#    y 0.000000 1.800320 0.000000 
#    z 0.000000 0.000000 1.779820 
# 
# From -- ./inp_files/22188.got.cif
#   From: 2010.05.17/outbox.cif.g08.bks.cpg/sg70_12_cif.got.tgz:22188.got - 2010.06.03 15:57:51.
