data_PCOD9515452
_publ_section_title
;
Structure prediction by ZEFSAII (Michael W. Deem and Ramdas Pophale) SiO2 
 PCOD9515452
Probable space group: F D D D
;
_chemical_formula_sum "Si O2"
_cell_formula_units_Z 160
_cell_length_a 15.271436
_cell_length_b 27.837006
_cell_length_c 17.862382
_cell_angle_alpha 90.000000
_cell_angle_beta 90.000000
_cell_angle_gamma 90.000000
_cell_volume 7593.496067
_symmetry_space_group_name_H-M "F D D D"
_symmetry_group_IT_number 70
_space_group.IT_coordinate_system_code '2'
_symmetry_cell_setting 'orthorhombic'
loop_
_space_group_symop_operation_xyz
x,y,z
1/4-x,1/4-y,z
x,1/4-y,1/4-z
1/4-x,y,1/4-z
-x,-y,-z
3/4+x,3/4+y,-z
-x,3/4+y,3/4+z
3/4+x,-y,3/4+z
x,1/2+y,1/2+z
1/4-x,3/4-y,1/2+z
x,3/4-y,3/4-z
1/4-x,1/2+y,3/4-z
-x,1/2-y,1/2-z
3/4+x,1/4+y,1/2-z
-x,1/4+y,1/4+z
3/4+x,1/2-y,1/4+z
1/2+x,y,1/2+z
3/4-x,1/4-y,1/2+z
1/2+x,1/4-y,3/4-z
3/4-x,y,3/4-z
1/2-x,-y,1/2-z
1/4+x,3/4+y,1/2-z
1/2-x,3/4+y,1/4+z
1/4+x,-y,1/4+z
1/2+x,1/2+y,z
3/4-x,3/4-y,z
1/2+x,3/4-y,1/4-z
3/4-x,1/2+y,1/4-z
1/2-x,1/2-y,-z
1/4+x,1/4+y,-z
1/2-x,1/4+y,3/4+z
1/4+x,1/2-y,3/4+z
loop_
_atom_site_type_symbol
_atom_site_label
_atom_site_fract_x
_atom_site_fract_y
_atom_site_fract_z
Si Si1 0.823072 0.473548 0.700744
Si Si2 0.307490 0.277326 0.936037
Si Si3 0.818788 0.420512 0.551674
Si Si4 0.972574 0.625000 0.125000
Si Si5 0.375000 0.375000 0.272538
Si Si6 0.931471 0.187253 0.061752
O O1 0.750000 0.500000 0.750000
O O2 0.804463 0.461905 0.613569
O O3 0.836233 0.420394 0.731294
O O4 0.907921 0.507504 0.706641
O O5 0.375000 0.252115 0.875000
O O6 0.242886 0.309087 0.884800
O O7 0.250000 0.250000 0.000000
O O8 0.370900 0.309484 0.985583
O O9 0.875000 0.375000 0.581279
O O10 0.727702 0.411245 0.508303
O O11 0.908564 0.587902 0.084868
O O12 0.042731 0.647161 0.068002
#
# Coordination Sequence:
#
# PCOD9515452 Si02
#       6
#    32  32  32  16  16  32
#     4  12  25  45  68 102 141 187 236 289 359 432
#     4  10  21  39  67 103 136 179 232 296 362 432
#     4  11  24  44  70 101 141 177 233 299 358 435
#     4  11  24  44  67  96 134 180 241 298 350 435
#     4  11  26  44  68  96 139 188 236 298 357 434
#     4  11  24  42  73 101 135 186 234 292 371 429
#
# _framework density 21.070663
#
# number of rings (size 3 to 8) (size 9 to 14) (size 15 to 20)
#    0.000    1.000    5.000    1.200    2.800    3.600 
#    0.000    0.000    0.000    0.000    0.000    0.000 
#    0.000    0.000    0.000    0.000    0.000    0.000 
#
# Total GULP energy -222816.486388 kJ/mol
# GULP energy per Si atom -5570.412160 kJ/mol
# Density = 2.102271 g / cm^3
# Si number density = 21.070663 Si / 1000 Ang^3
#
#
#
# Elastic Constant Matrix: (Units=GPa)
#
#
# Indices 1 2 3 4 5 6 
#
# 1 117.5821 23.4097 60.1601 0.0000 0.0000 0.0000
# 2 23.4097 73.5344 32.0320 0.0000 0.0000 0.0000
# 3 60.1601 32.0320 97.4509 0.0000 0.0000 0.0000
# 4 0.0000 0.0000 0.0000 32.0602 0.0000 0.0000
# 5 0.0000 0.0000 0.0000 0.0000 33.9753 0.0000
# 6 0.0000 0.0000 0.0000 0.0000 0.0000 39.1531
#
#
#
# Elastic Compliance Matrix: (Units=1/GPa)
#
#
# Indices 1 2 3 4 5 6 
#
# 1 0.012464 -0.000719 -0.007458 0.000000 0.000000 0.000000
# 2 -0.000719 0.015913 -0.004787 0.000000 0.000000 0.000000
# 3 -0.007458 -0.004787 0.016439 0.000000 0.000000 0.000000
# 4 0.000000 0.000000 0.000000 0.031191 0.000000 0.000000
# 5 0.000000 0.000000 0.000000 0.000000 0.029433 0.000000
# 6 0.000000 0.000000 0.000000 0.000000 0.000000 0.025541
#
#
# Mechanical properties :
#
#
# Convention : Reuss Voigt Hill
#
# Bulk Modulus (GPa) = 52.94266 57.75233 55.34749
# Shear Modulus (GPa) = 30.63640 32.56876 31.60258
#
# Velocity S-wave (km/s) = 3.81725 3.93579 3.87698
# Velocity P-wave (km/s) = 6.67902 6.93703 6.80925
#
# Compressibility (1/GPa) = 0.01888836
#
# Stress axis : x y z
#
# Youngs Moduli (GPa) = 80.23327 62.84127 60.83096
#
# Poissons Ratio (x) = 0.04519 0.45367
# Poissons Ratio (y) = 0.05770 0.29118
# Poissons Ratio (z) = 0.59837 0.30080
#
# Static dielectric constant tensor:
#      x y z
#    x 1.779830 0.000000 0.000000 
#    y 0.000000 1.766750 0.000000 
#    z 0.000000 0.000000 1.837330 
# 
# From -- ./inp_files/34015.got.cif
#   From: 2010.05.17/outbox.cif.g08.bks.cpg/sg70_18_cif.got.tgz:34015.got - 2010.06.03 15:57:51.
