data_PCOD9515737
_publ_section_title
;
Structure prediction by ZEFSAII (Michael W. Deem and Ramdas Pophale) SiO2 
 PCOD9515737
Probable space group: F D D D
;
_chemical_formula_sum "Si O2"
_cell_formula_units_Z 160
_cell_length_a 21.940896
_cell_length_b 17.876995
_cell_length_c 18.738983
_cell_angle_alpha 90.000000
_cell_angle_beta 90.000000
_cell_angle_gamma 90.000000
_cell_volume 7350.127873
_symmetry_space_group_name_H-M "F D D D"
_symmetry_group_IT_number 70
_space_group.IT_coordinate_system_code '2'
_symmetry_cell_setting 'orthorhombic'
loop_
_space_group_symop_operation_xyz
x,y,z
1/4-x,1/4-y,z
x,1/4-y,1/4-z
1/4-x,y,1/4-z
-x,-y,-z
3/4+x,3/4+y,-z
-x,3/4+y,3/4+z
3/4+x,-y,3/4+z
x,1/2+y,1/2+z
1/4-x,3/4-y,1/2+z
x,3/4-y,3/4-z
1/4-x,1/2+y,3/4-z
-x,1/2-y,1/2-z
3/4+x,1/4+y,1/2-z
-x,1/4+y,1/4+z
3/4+x,1/2-y,1/4+z
1/2+x,y,1/2+z
3/4-x,1/4-y,1/2+z
1/2+x,1/4-y,3/4-z
3/4-x,y,3/4-z
1/2-x,-y,1/2-z
1/4+x,3/4+y,1/2-z
1/2-x,3/4+y,1/4+z
1/4+x,-y,1/4+z
1/2+x,1/2+y,z
3/4-x,3/4-y,z
1/2+x,3/4-y,1/4-z
3/4-x,1/2+y,1/4-z
1/2-x,1/2-y,-z
1/4+x,1/4+y,-z
1/2-x,1/4+y,3/4+z
1/4+x,1/2-y,3/4+z
loop_
_atom_site_type_symbol
_atom_site_label
_atom_site_fract_x
_atom_site_fract_y
_atom_site_fract_z
Si Si1 0.400984 0.972784 0.952810
Si Si2 0.800694 0.585612 0.200263
Si Si3 0.457746 0.908454 0.715172
Si Si4 0.660953 0.393247 0.052298
Si Si5 0.940170 0.844085 0.697144
O O1 0.375000 0.954683 0.875000
O O2 0.427478 0.055420 0.944223
O O3 0.447768 0.910838 0.980902
O O4 0.343818 0.966510 0.008188
O O5 0.794950 0.625000 0.125000
O O6 0.864149 0.601473 0.238412
O O7 0.746257 0.613949 0.251589
O O8 0.802523 0.495783 0.192155
O O9 0.526880 0.937041 0.712889
O O10 0.446150 0.879905 0.634737
O O11 0.625000 0.414650 0.125000
O O12 0.875000 0.875000 0.723941
#
# Coordination Sequence:
#
# PCOD9515737 Si02
#       5
#    32  32  32  32  32
#     4  10  22  38  64  99 130 163 213 262 319 398
#     4  11  26  44  66  99 132 169 231 278 322 390
#     4  11  20  40  65  90 135 170 205 261 324 386
#     4  11  23  42  64  95 130 169 211 266 326 387
#     4  11  24  45  69  96 129 179 223 273 334 391
#
# _framework density 21.768329999999999
#
# number of rings (size 3 to 8) (size 9 to 14) (size 15 to 20)
#    0.000    1.200    4.000    3.000    0.000    5.200 
#    0.000    0.000    0.000    0.000    0.000    0.000 
#    0.000    0.000    0.000    0.000    0.000    0.000 
#
# Total GULP energy -223441.622436 kJ/mol
# GULP energy per Si atom -5586.040561 kJ/mol
# Density = 2.171878 g / cm^3
# Si number density = 21.768330 Si / 1000 Ang^3
#
#
#
# Elastic Constant Matrix: (Units=GPa)
#
#
# Indices 1 2 3 4 5 6 
#
# 1 158.3201 -8.0028 41.1314 0.0000 0.0000 0.0000
# 2 -8.0028 34.9016 1.5082 0.0000 0.0000 0.0000
# 3 41.1314 1.5082 126.0692 0.0000 0.0000 0.0000
# 4 0.0000 0.0000 0.0000 10.0860 0.0000 0.0000
# 5 0.0000 0.0000 0.0000 0.0000 34.2836 0.0000
# 6 0.0000 0.0000 0.0000 0.0000 0.0000 16.7764
#
#
#
# Elastic Compliance Matrix: (Units=1/GPa)
#
#
# Indices 1 2 3 4 5 6 
#
# 1 0.007001 0.001705 -0.002305 0.000000 0.000000 0.000000
# 2 0.001705 0.029082 -0.000904 0.000000 0.000000 0.000000
# 3 -0.002305 -0.000904 0.008695 0.000000 0.000000 0.000000
# 4 0.000000 0.000000 0.000000 0.099148 0.000000 0.000000
# 5 0.000000 0.000000 0.000000 0.000000 0.029168 0.000000
# 6 0.000000 0.000000 0.000000 0.000000 0.000000 0.059608
#
#
# Mechanical properties :
#
#
# Convention : Reuss Voigt Hill
#
# Bulk Modulus (GPa) = 23.94038 43.17383 33.55710
# Shear Modulus (GPa) = 20.02940 31.20612 25.61776
#
# Velocity S-wave (km/s) = 3.03663 3.79034 3.43423
# Velocity P-wave (km/s) = 4.82872 6.24756 5.58339
#
# Compressibility (1/GPa) = 0.04177044
#
# Stress axis : x y z
#
# Youngs Moduli (GPa) = 142.83186 34.38550 115.01025
#
# Poissons Ratio (x) = -0.05863 0.26506
# Poissons Ratio (y) = -0.24352 0.10399
# Poissons Ratio (z) = 0.32917 0.03109
#
# Static dielectric constant tensor:
#      x y z
#    x 1.809750 0.000000 0.000000 
#    y 0.000000 0.471960 0.000000 
#    z 0.000000 0.000000 1.759810 
# 
# From -- ./inp_files/36319.got.cif
#   From: 2010.05.17/outbox.cif.g08.bks.cpg/sg70_19_cif.got.tgz:36319.got - 2010.06.03 15:57:51.
