data_PCOD9515694
_publ_section_title
;
Structure prediction by ZEFSAII (Michael W. Deem and Ramdas Pophale) SiO2 
 PCOD9515694
Probable space group: F D D D
;
_chemical_formula_sum "Si O2"
_cell_formula_units_Z 176
_cell_length_a 18.149761
_cell_length_b 16.166175
_cell_length_c 29.722104
_cell_angle_alpha 90.000000
_cell_angle_beta 90.000000
_cell_angle_gamma 90.000000
_cell_volume 8720.828296
_symmetry_space_group_name_H-M "F D D D"
_symmetry_group_IT_number 70
_space_group.IT_coordinate_system_code '2'
_symmetry_cell_setting 'orthorhombic'
loop_
_space_group_symop_operation_xyz
x,y,z
1/4-x,1/4-y,z
x,1/4-y,1/4-z
1/4-x,y,1/4-z
-x,-y,-z
3/4+x,3/4+y,-z
-x,3/4+y,3/4+z
3/4+x,-y,3/4+z
x,1/2+y,1/2+z
1/4-x,3/4-y,1/2+z
x,3/4-y,3/4-z
1/4-x,1/2+y,3/4-z
-x,1/2-y,1/2-z
3/4+x,1/4+y,1/2-z
-x,1/4+y,1/4+z
3/4+x,1/2-y,1/4+z
1/2+x,y,1/2+z
3/4-x,1/4-y,1/2+z
1/2+x,1/4-y,3/4-z
3/4-x,y,3/4-z
1/2-x,-y,1/2-z
1/4+x,3/4+y,1/2-z
1/2-x,3/4+y,1/4+z
1/4+x,-y,1/4+z
1/2+x,1/2+y,z
3/4-x,3/4-y,z
1/2+x,3/4-y,1/4-z
3/4-x,1/2+y,1/4-z
1/2-x,1/2-y,-z
1/4+x,1/4+y,-z
1/2-x,1/4+y,3/4+z
1/4+x,1/2-y,3/4+z
loop_
_atom_site_type_symbol
_atom_site_label
_atom_site_fract_x
_atom_site_fract_y
_atom_site_fract_z
Si Si1 0.465435 0.795577 0.707956
Si Si2 0.721542 0.844506 0.705562
Si Si3 0.802637 0.482745 0.041150
Si Si4 0.875000 0.875000 0.747365
Si Si5 0.537380 0.719422 0.623558
Si Si6 0.357541 0.512022 0.925865
O O1 0.500000 0.750000 0.750000
O O2 0.457050 0.888817 0.725584
O O3 0.385424 0.765349 0.690931
O O4 0.516153 0.776738 0.665609
O O5 0.698971 0.801262 0.752415
O O6 0.801624 0.882787 0.717007
O O7 0.733765 0.770010 0.670658
O O8 0.658395 0.906800 0.686779
O O9 0.731879 0.486366 0.073251
O O10 0.873693 0.797927 0.781922
O O11 0.507449 0.625000 0.625000
O O12 0.625000 0.712448 0.625000
O O13 0.375000 0.484841 0.875000
#
# Coordination Sequence:
#
# PCOD9515694 Si02
#       6
#    32  32  32  16  32  32
#     4  11  21  37  58  86 123 159 197 252 308 373
#     4  11  22  40  62  88 123 162 204 258 318 376
#     4  10  22  36  58  88 117 156 204 246 306 380
#     4  10  25  42  64  92 122 162 216 266 315 382
#     4  11  23  38  60  91 124 163 207 254 315 385
#     4  11  22  41  64  88 121 164 208 260 317 376
#
# _framework density 20.181569
#
# number of rings (size 3 to 8) (size 9 to 14) (size 15 to 20)
#    0.000    1.273    0.000    6.818    0.000    7.273 
#    0.000    3.636    0.000    0.000    0.000    0.000 
#    0.000    0.000    0.000    0.000    0.000    0.000 
#
# Total GULP energy -245165.325032 kJ/mol
# GULP energy per Si atom -5571.939205 kJ/mol
# Density = 2.013563 g / cm^3
# Si number density = 20.181569 Si / 1000 Ang^3
#
#
#
# Elastic Constant Matrix: (Units=GPa)
#
#
# Indices 1 2 3 4 5 6 
#
# 1 125.7507 17.7991 27.4396 0.0000 0.0000 0.0000
# 2 17.7991 53.8256 -8.8746 0.0000 0.0000 0.0000
# 3 27.4396 -8.8746 43.3952 0.0000 0.0000 0.0000
# 4 0.0000 0.0000 0.0000 28.5683 0.0000 0.0000
# 5 0.0000 0.0000 0.0000 0.0000 -5.4261 0.0000
# 6 0.0000 0.0000 0.0000 0.0000 0.0000 23.8053
#
#
#
# Elastic Compliance Matrix: (Units=1/GPa)
#
#
# Indices 1 2 3 4 5 6 
#
# 1 0.010218 -0.004599 -0.007402 0.000000 0.000000 0.000000
# 2 -0.004599 0.021297 0.007264 0.000000 0.000000 0.000000
# 3 -0.007402 0.007264 0.029210 0.000000 0.000000 0.000000
# 4 0.000000 0.000000 0.000000 0.035004 0.000000 0.000000
# 5 0.000000 0.000000 0.000000 0.000000 -0.184295 0.000000
# 6 0.000000 0.000000 0.000000 0.000000 0.000000 0.042007
#
#
# Mechanical properties :
#
#
# Convention : Reuss Voigt Hill
#
# Bulk Modulus (GPa) = 19.51218 32.85555 26.18387
# Shear Modulus (GPa) = -250.00932 21.82999 -114.08966
#
# Velocity S-wave (km/s) = -11.14221 3.29246 -7.52691
# Velocity P-wave (km/s) = 12.48369 5.54698 7.90802
#
# Compressibility (1/GPa) = 0.05125003
#
# Stress axis : x y z
#
# Youngs Moduli (GPa) = 97.86259 46.95481 34.23501
#
# Poissons Ratio (x) = 0.21597 0.25340
# Poissons Ratio (y) = 0.45011 -0.24867
# Poissons Ratio (z) = 0.72437 -0.34107
#
# Static dielectric constant tensor:
#      x y z
#    x 1.767950 0.000000 0.000000 
#    y 0.000000 1.765130 0.000000 
#    z 0.000000 0.000000 1.627960 
# 
# From -- ./inp_files/35449.got.cif
#   From: 2010.05.17/outbox.cif.g08.bks.cpg/sg70_18_cif.got.tgz:35449.got - 2010.06.03 15:57:51.
