data_PCOD9515954
_publ_section_title
;
Structure prediction by ZEFSAII (Michael W. Deem and Ramdas Pophale) SiO2 
 PCOD9515954
Probable space group: F D D D
;
_chemical_formula_sum "Si O2"
_cell_formula_units_Z 160
_cell_length_a 16.047588
_cell_length_b 24.939060
_cell_length_c 17.529021
_cell_angle_alpha 90.000000
_cell_angle_beta 90.000000
_cell_angle_gamma 90.000000
_cell_volume 7015.320345
_symmetry_space_group_name_H-M "F D D D"
_symmetry_group_IT_number 70
_space_group.IT_coordinate_system_code '2'
_symmetry_cell_setting 'orthorhombic'
loop_
_space_group_symop_operation_xyz
x,y,z
1/4-x,1/4-y,z
x,1/4-y,1/4-z
1/4-x,y,1/4-z
-x,-y,-z
3/4+x,3/4+y,-z
-x,3/4+y,3/4+z
3/4+x,-y,3/4+z
x,1/2+y,1/2+z
1/4-x,3/4-y,1/2+z
x,3/4-y,3/4-z
1/4-x,1/2+y,3/4-z
-x,1/2-y,1/2-z
3/4+x,1/4+y,1/2-z
-x,1/4+y,1/4+z
3/4+x,1/2-y,1/4+z
1/2+x,y,1/2+z
3/4-x,1/4-y,1/2+z
1/2+x,1/4-y,3/4-z
3/4-x,y,3/4-z
1/2-x,-y,1/2-z
1/4+x,3/4+y,1/2-z
1/2-x,3/4+y,1/4+z
1/4+x,-y,1/4+z
1/2+x,1/2+y,z
3/4-x,3/4-y,z
1/2+x,3/4-y,1/4-z
3/4-x,1/2+y,1/4-z
1/2-x,1/2-y,-z
1/4+x,1/4+y,-z
1/2-x,1/4+y,3/4+z
1/4+x,1/2-y,3/4+z
loop_
_atom_site_type_symbol
_atom_site_label
_atom_site_fract_x
_atom_site_fract_y
_atom_site_fract_z
Si Si1 0.187979 0.336631 0.304948
Si Si2 0.923236 0.564994 0.954275
Si Si3 0.469165 0.731758 0.167096
Si Si4 0.493797 0.025357 0.743369
Si Si5 0.336715 0.818574 0.120730
O O1 0.218095 0.375000 0.375000
O O2 0.185499 0.374582 0.232030
O O3 0.094017 0.317609 0.321868
O O4 0.237990 0.282095 0.284392
O O5 0.875000 0.561898 0.875000
O O6 0.017403 0.546169 0.938143
O O7 0.855263 0.537398 0.008509
O O8 0.500000 0.750000 0.250000
O O9 0.526975 0.721929 0.093238
O O10 0.413673 0.780694 0.136410
O O11 0.537875 0.069090 0.797971
O O12 0.375000 0.875000 0.096700
#
# Coordination Sequence:
#
# PCOD9515954 Si02
#       5
#    32  32  32  32  32
#     4  11  23  42  69 103 140 188 248 294 363 434
#     4  10  22  43  70  94 139 188 229 297 364 421
#     4  11  25  41  68 100 142 183 238 296 364 439
#     4  10  23  43  66 103 139 184 236 303 365 425
#     4  10  23  42  67  98 132 184 238 287 362 431
#
# _framework density 22.807226
#
# number of rings (size 3 to 8) (size 9 to 14) (size 15 to 20)
#    0.000    1.600    2.000    1.200    8.400    3.200 
#    7.200    1.000    4.400    0.000    0.000    0.000 
#    0.000    0.000    0.000    0.000    0.000    0.000 
#
# Total GULP energy -223067.058277 kJ/mol
# GULP energy per Si atom -5576.676457 kJ/mol
# Density = 2.275532 g / cm^3
# Si number density = 22.807226 Si / 1000 Ang^3
#
#
#
# Elastic Constant Matrix: (Units=GPa)
#
#
# Indices 1 2 3 4 5 6 
#
# 1 74.5814 27.9238 19.2766 0.0000 0.0000 0.0000
# 2 27.9238 48.4638 -1.4037 0.0000 0.0000 0.0000
# 3 19.2766 -1.4037 96.7067 0.0000 0.0000 0.0000
# 4 0.0000 0.0000 0.0000 40.4222 0.0000 0.0000
# 5 0.0000 0.0000 0.0000 0.0000 38.8852 0.0000
# 6 0.0000 0.0000 0.0000 0.0000 0.0000 32.3757
#
#
#
# Elastic Compliance Matrix: (Units=1/GPa)
#
#
# Indices 1 2 3 4 5 6 
#
# 1 0.018410 -0.010718 -0.003825 0.000000 0.000000 0.000000
# 2 -0.010718 0.026883 0.002527 0.000000 0.000000 0.000000
# 3 -0.003825 0.002527 0.011140 0.000000 0.000000 0.000000
# 4 0.000000 0.000000 0.000000 0.024739 0.000000 0.000000
# 5 0.000000 0.000000 0.000000 0.000000 0.025717 0.000000
# 6 0.000000 0.000000 0.000000 0.000000 0.000000 0.030887
#
#
# Mechanical properties :
#
#
# Convention : Reuss Voigt Hill
#
# Bulk Modulus (GPa) = 30.86528 34.59392 32.72960
# Shear Modulus (GPa) = 28.96736 33.93365 31.45051
#
# Velocity S-wave (km/s) = 3.56771 3.86145 3.71748
# Velocity P-wave (km/s) = 5.52575 5.92300 5.72782
#
# Compressibility (1/GPa) = 0.03239886
#
# Stress axis : x y z
#
# Youngs Moduli (GPa) = 54.31896 37.19863 89.76898
#
# Poissons Ratio (x) = 0.39870 0.34339
# Poissons Ratio (y) = 0.58220 -0.22682
# Poissons Ratio (z) = 0.20778 -0.09399
#
# Static dielectric constant tensor:
#      x y z
#    x 1.918150 0.000000 0.000000 
#    y 0.000000 1.803830 0.000000 
#    z 0.000000 0.000000 1.967220 
# 
# From -- ./inp_files/35152.got.cif
#   From: 2010.05.17/outbox.cif.g08.bks.cpg/sg70_18_cif.got.tgz:35152.got - 2010.06.03 15:57:51.
