data_PCOD9515772
_publ_section_title
;
Structure prediction by ZEFSAII (Michael W. Deem and Ramdas Pophale) SiO2 
 PCOD9515772
Probable space group: F D D D
;
_chemical_formula_sum "Si O2"
_cell_formula_units_Z 144
_cell_length_a 21.600089
_cell_length_b 12.443790
_cell_length_c 24.750897
_cell_angle_alpha 90.000000
_cell_angle_beta 90.000000
_cell_angle_gamma 90.000000
_cell_volume 6652.718646
_symmetry_space_group_name_H-M "F D D D"
_symmetry_group_IT_number 70
_space_group.IT_coordinate_system_code '2'
_symmetry_cell_setting 'orthorhombic'
loop_
_space_group_symop_operation_xyz
x,y,z
1/4-x,1/4-y,z
x,1/4-y,1/4-z
1/4-x,y,1/4-z
-x,-y,-z
3/4+x,3/4+y,-z
-x,3/4+y,3/4+z
3/4+x,-y,3/4+z
x,1/2+y,1/2+z
1/4-x,3/4-y,1/2+z
x,3/4-y,3/4-z
1/4-x,1/2+y,3/4-z
-x,1/2-y,1/2-z
3/4+x,1/4+y,1/2-z
-x,1/4+y,1/4+z
3/4+x,1/2-y,1/4+z
1/2+x,y,1/2+z
3/4-x,1/4-y,1/2+z
1/2+x,1/4-y,3/4-z
3/4-x,y,3/4-z
1/2-x,-y,1/2-z
1/4+x,3/4+y,1/2-z
1/2-x,3/4+y,1/4+z
1/4+x,-y,1/4+z
1/2+x,1/2+y,z
3/4-x,3/4-y,z
1/2+x,3/4-y,1/4-z
3/4-x,1/2+y,1/4-z
1/2-x,1/2-y,-z
1/4+x,1/4+y,-z
1/2-x,1/4+y,3/4+z
1/4+x,1/2-y,3/4+z
loop_
_atom_site_type_symbol
_atom_site_label
_atom_site_fract_x
_atom_site_fract_y
_atom_site_fract_z
Si Si1 0.780626 0.072199 0.799488
Si Si2 0.625000 0.625000 0.407977
Si Si3 0.156672 0.012473 0.016514
Si Si4 0.773981 0.223907 0.657775
Si Si5 0.464089 0.222439 0.086647
O O1 0.853167 0.049983 0.797417
O O2 0.762969 0.197603 0.806805
O O3 0.750000 0.000000 0.750000
O O4 0.755333 0.029996 0.855841
O O5 0.575574 0.703059 0.436204
O O6 0.582240 0.546405 0.371931
O O7 0.125000 0.125000 0.997449
O O8 0.215316 0.044137 0.053447
O O9 0.175082 0.938655 0.965959
O O10 0.804377 0.125000 0.625000
O O11 0.485622 0.125000 0.125000
#
# Coordination Sequence:
#
# PCOD9515772 Si02
#       5
#    32  16  32  32  32
#     4  11  21  38  64 104 149 181 233 303 382 440
#     4  10  22  40  58  92 134 192 238 276 366 454
#     4  12  21  39  71 110 140 169 244 322 375 421
#     4  11  21  35  66 102 137 177 235 317 371 425
#     4  11  23  41  66  97 143 195 236 298 372 458
#
# _framework density 21.645285999999999
#
# number of rings (size 3 to 8) (size 9 to 14) (size 15 to 20)
#    0.000    0.889    5.556    2.667    0.000    1.778 
#    0.000    4.444    0.000   20.000    0.000    0.000 
#    0.000    0.000    0.000    0.000    0.000    0.000 
#
# Total GULP energy -200426.895530 kJ/mol
# GULP energy per Si atom -5567.413765 kJ/mol
# Density = 2.159602 g / cm^3
# Si number density = 21.645286 Si / 1000 Ang^3
#
#
#
# Elastic Constant Matrix: (Units=GPa)
#
#
# Indices 1 2 3 4 5 6 
#
# 1 106.7981 56.5762 16.5618 0.0000 0.0000 0.0000
# 2 56.5762 107.0859 44.6635 0.0000 0.0000 0.0000
# 3 16.5618 44.6635 89.9710 0.0000 0.0000 0.0000
# 4 0.0000 0.0000 0.0000 37.1970 0.0000 0.0000
# 5 0.0000 0.0000 0.0000 0.0000 14.6759 0.0000
# 6 0.0000 0.0000 0.0000 0.0000 0.0000 36.1838
#
#
#
# Elastic Compliance Matrix: (Units=1/GPa)
#
#
# Indices 1 2 3 4 5 6 
#
# 1 0.013121 -0.007472 0.001294 0.000000 0.000000 0.000000
# 2 -0.007472 0.016031 -0.006583 0.000000 0.000000 0.000000
# 3 0.001294 -0.006583 0.014144 0.000000 0.000000 0.000000
# 4 0.000000 0.000000 0.000000 0.026884 0.000000 0.000000
# 5 0.000000 0.000000 0.000000 0.000000 0.068139 0.000000
# 6 0.000000 0.000000 0.000000 0.000000 0.000000 0.027637
#
#
# Mechanical properties :
#
#
# Convention : Reuss Voigt Hill
#
# Bulk Modulus (GPa) = 56.25847 59.93977 58.09912
# Shear Modulus (GPa) = 25.32889 30.01491 27.67190
#
# Velocity S-wave (km/s) = 3.42450 3.72784 3.57939
# Velocity P-wave (km/s) = 6.45630 6.80302 6.63192
#
# Compressibility (1/GPa) = 0.01777510
#
# Stress axis : x y z
#
# Youngs Moduli (GPa) = 76.21372 62.37736 70.69920
#
# Poissons Ratio (x) = 0.46607 -0.09147
# Poissons Ratio (y) = 0.56945 0.46541
# Poissons Ratio (z) = -0.09861 0.41063
#
# Static dielectric constant tensor:
#      x y z
#    x 1.825360 0.000000 0.000000 
#    y 0.000000 1.922490 0.000000 
#    z 0.000000 0.000000 1.771090 
# 
# From -- ./inp_files/61001.got.cif
#   From: 2010.05.17/outbox.cif.g08.bks.cpg/sg70_31_cif.got.tgz:61001.got - 2010.06.03 15:57:51.
