data_PCOD9515964
_publ_section_title
;
Structure prediction by ZEFSAII (Michael W. Deem and Ramdas Pophale) SiO2 
 PCOD9515964
Probable space group: F D D D
;
_chemical_formula_sum "Si O2"
_cell_formula_units_Z 160
_cell_length_a 22.246871
_cell_length_b 27.681304
_cell_length_c 10.027137
_cell_angle_alpha 90.000000
_cell_angle_beta 90.000000
_cell_angle_gamma 90.000000
_cell_volume 6174.935564
_symmetry_space_group_name_H-M "F D D D"
_symmetry_group_IT_number 70
_space_group.IT_coordinate_system_code '2'
_symmetry_cell_setting 'orthorhombic'
loop_
_space_group_symop_operation_xyz
x,y,z
1/4-x,1/4-y,z
x,1/4-y,1/4-z
1/4-x,y,1/4-z
-x,-y,-z
3/4+x,3/4+y,-z
-x,3/4+y,3/4+z
3/4+x,-y,3/4+z
x,1/2+y,1/2+z
1/4-x,3/4-y,1/2+z
x,3/4-y,3/4-z
1/4-x,1/2+y,3/4-z
-x,1/2-y,1/2-z
3/4+x,1/4+y,1/2-z
-x,1/4+y,1/4+z
3/4+x,1/2-y,1/4+z
1/2+x,y,1/2+z
3/4-x,1/4-y,1/2+z
1/2+x,1/4-y,3/4-z
3/4-x,y,3/4-z
1/2-x,-y,1/2-z
1/4+x,3/4+y,1/2-z
1/2-x,3/4+y,1/4+z
1/4+x,-y,1/4+z
1/2+x,1/2+y,z
3/4-x,3/4-y,z
1/2+x,3/4-y,1/4-z
3/4-x,1/2+y,1/4-z
1/2-x,1/2-y,-z
1/4+x,1/4+y,-z
1/2-x,1/4+y,3/4+z
1/4+x,1/2-y,3/4+z
loop_
_atom_site_type_symbol
_atom_site_label
_atom_site_fract_x
_atom_site_fract_y
_atom_site_fract_z
Si Si1 0.003409 0.585895 0.009654
Si Si2 0.841306 0.714536 0.677281
Si Si3 0.875425 0.926998 0.117796
Si Si4 0.746948 0.526457 0.391213
Si Si5 0.180098 0.307985 0.720431
O O1 0.969470 0.594480 0.867720
O O2 0.073682 0.577515 0.980087
O O3 0.939275 0.702245 0.933329
O O4 0.964279 0.542181 0.073180
O O5 0.754472 0.625000 0.625000
O O6 0.861456 0.770350 0.692943
O O7 0.894664 0.683503 0.610155
O O8 0.875000 0.875000 0.044311
O O9 0.944647 0.934317 0.156703
O O10 0.750000 0.500000 0.250000
O O11 0.726088 0.483956 0.490777
O O12 0.125000 0.291793 0.625000
#
# Coordination Sequence:
#
# PCOD9515964 Si02
#       5
#    32  32  32  32  32
#     4  11  22  42  75 114 148 192 266 341 403 480
#     4  10  22  43  74 102 161 201 254 323 412 483
#     4  11  24  42  72 119 145 193 266 332 398 472
#     4  11  24  42  72 107 160 211 259 321 411 489
#     4   9  21  40  71 102 142 201 255 313 391 479
#
# _framework density 25.911200000000001
#
# number of rings (size 3 to 8) (size 9 to 14) (size 15 to 20)
#    0.000    1.600    2.000    1.800    5.600    5.200 
#    3.600    2.000   79.200    0.000    0.000    0.000 
#    0.000    0.000    0.000    0.000    0.000    0.000 
#
# Total GULP energy -223096.594940 kJ/mol
# GULP energy per Si atom -5577.414874 kJ/mol
# Density = 2.585223 g / cm^3
# Si number density = 25.911200 Si / 1000 Ang^3
#
#
#
# Elastic Constant Matrix: (Units=GPa)
#
#
# Indices 1 2 3 4 5 6 
#
# 1 195.6600 44.7617 76.7458 0.0000 0.0000 0.0000
# 2 44.7617 132.1036 38.1003 0.0000 0.0000 0.0000
# 3 76.7458 38.1003 126.0666 0.0002 -0.0002 -0.0001
# 4 0.0000 0.0000 0.0002 32.6229 -0.0001 0.0000
# 5 0.0000 0.0000 -0.0002 -0.0001 45.7608 0.0000
# 6 0.0000 0.0000 -0.0001 0.0000 0.0000 31.9638
#
#
#
# Elastic Compliance Matrix: (Units=1/GPa)
#
#
# Indices 1 2 3 4 5 6 
#
# 1 0.006893 -0.001233 -0.003823 0.000000 0.000000 0.000000
# 2 -0.001233 0.008513 -0.001822 0.000000 0.000000 0.000000
# 3 -0.003823 -0.001822 0.010811 0.000000 0.000000 0.000000
# 4 0.000000 0.000000 0.000000 0.030653 0.000000 0.000000
# 5 0.000000 0.000000 0.000000 0.000000 0.021853 0.000000
# 6 0.000000 0.000000 0.000000 0.000000 0.000000 0.031285
#
#
# Mechanical properties :
#
#
# Convention : Reuss Voigt Hill
#
# Bulk Modulus (GPa) = 80.26191 85.89400 83.07795
# Shear Modulus (GPa) = 39.08742 41.68432 40.38587
#
# Velocity S-wave (km/s) = 3.88817 4.01526 3.95223
# Velocity P-wave (km/s) = 7.15543 7.39714 7.27729
#
# Compressibility (1/GPa) = 0.01245921
#
# Stress axis : x y z
#
# Youngs Moduli (GPa) = 145.08202 117.46574 92.50074
#
# Poissons Ratio (x) = 0.14481 0.35368
# Poissons Ratio (y) = 0.17885 0.16857
# Poissons Ratio (z) = 0.55472 0.21407
#
# Static dielectric constant tensor:
#      x y z
#    x 2.092780 0.000000 0.000000 
#    y 0.000000 2.075210 0.000000 
#    z 0.000000 0.000000 2.104090 
# 
# From -- ./inp_files/28658.got.cif
#   From: 2010.05.17/outbox.cif.g08.bks.cpg/sg70_15_cif.got.tgz:28658.got - 2010.06.03 15:57:51.
