data_PCOD9515874
_publ_section_title
;
Structure prediction by ZEFSAII (Michael W. Deem and Ramdas Pophale) SiO2 
 PCOD9515874
Probable space group: F D D D
;
_chemical_formula_sum "Si O2"
_cell_formula_units_Z 216
_cell_length_a 21.618002
_cell_length_b 21.288348
_cell_length_c 18.796601
_cell_angle_alpha 90.000000
_cell_angle_beta 90.000000
_cell_angle_gamma 90.000000
_cell_volume 8650.412874
_symmetry_space_group_name_H-M "F D D D"
_symmetry_group_IT_number 70
_space_group.IT_coordinate_system_code '2'
_symmetry_cell_setting 'orthorhombic'
loop_
_space_group_symop_operation_xyz
x,y,z
1/4-x,1/4-y,z
x,1/4-y,1/4-z
1/4-x,y,1/4-z
-x,-y,-z
3/4+x,3/4+y,-z
-x,3/4+y,3/4+z
3/4+x,-y,3/4+z
x,1/2+y,1/2+z
1/4-x,3/4-y,1/2+z
x,3/4-y,3/4-z
1/4-x,1/2+y,3/4-z
-x,1/2-y,1/2-z
3/4+x,1/4+y,1/2-z
-x,1/4+y,1/4+z
3/4+x,1/2-y,1/4+z
1/2+x,y,1/2+z
3/4-x,1/4-y,1/2+z
1/2+x,1/4-y,3/4-z
3/4-x,y,3/4-z
1/2-x,-y,1/2-z
1/4+x,3/4+y,1/2-z
1/2-x,3/4+y,1/4+z
1/4+x,-y,1/4+z
1/2+x,1/2+y,z
3/4-x,3/4-y,z
1/2+x,3/4-y,1/4-z
3/4-x,1/2+y,1/4-z
1/2-x,1/2-y,-z
1/4+x,1/4+y,-z
1/2-x,1/4+y,3/4+z
1/4+x,1/2-y,3/4+z
loop_
_atom_site_type_symbol
_atom_site_label
_atom_site_fract_x
_atom_site_fract_y
_atom_site_fract_z
Si Si1 0.073516 0.303443 0.303215
Si Si2 0.754706 0.097618 0.332936
Si Si3 0.052088 0.926185 0.732089
Si Si4 0.952729 0.488162 0.404226
Si Si5 0.660403 0.509583 0.699341
Si Si6 0.048079 0.286103 0.000610
Si Si7 0.625000 0.125000 0.625000
Si Si8 0.875000 0.375000 0.052256
O O1 0.052598 0.375315 0.294147
O O2 0.057610 0.275938 0.225447
O O3 0.146895 0.292101 0.306685
O O4 0.026998 0.268811 0.355733
O O5 0.793679 0.106567 0.405070
O O6 0.773650 0.024974 0.315029
O O7 0.771690 0.144748 0.268206
O O8 0.685693 0.121736 0.351338
O O9 0.119933 0.954869 0.734086
O O10 0.002226 0.982777 0.732185
O O11 0.928941 0.514266 0.329082
O O12 0.920554 0.420793 0.417211
O O13 0.625000 0.523496 0.625000
O O14 0.647632 0.569047 0.749373
#
# Coordination Sequence:
#
# PCOD9515874 Si02
#       8
#    32  32  32  32  32  32   8  16
#     4  11  23  41  65  97 136 177 237 280 343 435
#     4  11  24  41  69  99 134 178 237 288 356 430
#     4  11  23  42  69  98 130 184 230 286 352 433
#     4  11  24  38  63  98 131 183 230 286 347 428
#     4  10  22  41  70  97 128 177 232 277 353 436
#     4  12  22  44  69  95 142 184 232 293 366 418
#     4  12  20  40  62  92 140 190 232 288 360 424
#     4  12  23  44  67  98 138 174 228 306 354 414
#
# _framework density 24.969906999999999
#
# number of rings (size 3 to 8) (size 9 to 14) (size 15 to 20)
#    0.000    0.889    5.926    1.556    0.000    1.185 
#    0.000    0.000    0.000    0.000    0.000    0.000 
#    0.000    0.000    0.000    0.000    0.000    0.000 
#
# Total GULP energy -301226.056393 kJ/mol
# GULP energy per Si atom -5578.260304 kJ/mol
# Density = 2.491307 g / cm^3
# Si number density = 24.969907 Si / 1000 Ang^3
#
#
#
# Elastic Constant Matrix: (Units=GPa)
#
#
# Indices 1 2 3 4 5 6 
#
# 1 127.7970 22.5805 -5.4700 0.0000 0.0000 0.0000
# 2 22.5805 90.4726 20.8042 0.0000 0.0000 0.0000
# 3 -5.4700 20.8042 41.5932 0.0000 0.0000 0.0000
# 4 0.0000 0.0000 0.0000 36.0211 0.0000 0.0000
# 5 0.0000 0.0000 0.0000 0.0000 11.1449 0.0000
# 6 0.0000 0.0000 0.0000 0.0000 0.0000 42.2205
#
#
#
# Elastic Compliance Matrix: (Units=1/GPa)
#
#
# Indices 1 2 3 4 5 6 
#
# 1 0.008398 -0.002655 0.002433 0.000000 0.000000 0.000000
# 2 -0.002655 0.013329 -0.007016 0.000000 0.000000 0.000000
# 3 0.002433 -0.007016 0.027872 0.000000 0.000000 0.000000
# 4 0.000000 0.000000 0.000000 0.027762 0.000000 0.000000
# 5 0.000000 0.000000 0.000000 0.000000 0.089727 0.000000
# 6 0.000000 0.000000 0.000000 0.000000 0.000000 0.023685
#
#
# Mechanical properties :
#
#
# Convention : Reuss Voigt Hill
#
# Bulk Modulus (GPa) = 28.47291 37.29914 32.88602
# Shear Modulus (GPa) = 23.04596 32.67384 27.85990
#
# Velocity S-wave (km/s) = 3.04130 3.62128 3.34389
# Velocity P-wave (km/s) = 4.87446 5.69693 5.30167
#
# Compressibility (1/GPa) = 0.03512110
#
# Stress axis : x y z
#
# Youngs Moduli (GPa) = 119.07275 75.02315 35.87863
#
# Poissons Ratio (x) = 0.19922 -0.08728
# Poissons Ratio (y) = 0.31619 0.25173
# Poissons Ratio (z) = -0.28967 0.52638
#
# Static dielectric constant tensor:
#      x y z
#    x 2.159420 0.000000 0.000000 
#    y 0.000000 2.040090 0.000000 
#    z 0.000000 0.000000 1.940950 
# 
# From -- ./inp_files/47103.got.cif
#   From: 2010.05.17/outbox.cif.g08.bks.cpg/sg70_24_cif.got.tgz:47103.got - 2010.06.03 15:57:51.
