data_PCOD9515048
_publ_section_title
;
Structure prediction by ZEFSAII (Michael W. Deem and Ramdas Pophale) SiO2 
 PCOD9515048
Probable space group: F D D D
;
_chemical_formula_sum "Si O2"
_cell_formula_units_Z 168
_cell_length_a 28.688043
_cell_length_b 13.301640
_cell_length_c 21.672719
_cell_angle_alpha 90.000000
_cell_angle_beta 90.000000
_cell_angle_gamma 90.000000
_cell_volume 8270.266665
_symmetry_space_group_name_H-M "F D D D"
_symmetry_group_IT_number 70
_space_group.IT_coordinate_system_code '2'
_symmetry_cell_setting 'orthorhombic'
loop_
_space_group_symop_operation_xyz
x,y,z
1/4-x,1/4-y,z
x,1/4-y,1/4-z
1/4-x,y,1/4-z
-x,-y,-z
3/4+x,3/4+y,-z
-x,3/4+y,3/4+z
3/4+x,-y,3/4+z
x,1/2+y,1/2+z
1/4-x,3/4-y,1/2+z
x,3/4-y,3/4-z
1/4-x,1/2+y,3/4-z
-x,1/2-y,1/2-z
3/4+x,1/4+y,1/2-z
-x,1/4+y,1/4+z
3/4+x,1/2-y,1/4+z
1/2+x,y,1/2+z
3/4-x,1/4-y,1/2+z
1/2+x,1/4-y,3/4-z
3/4-x,y,3/4-z
1/2-x,-y,1/2-z
1/4+x,3/4+y,1/2-z
1/2-x,3/4+y,1/4+z
1/4+x,-y,1/4+z
1/2+x,1/2+y,z
3/4-x,3/4-y,z
1/2+x,3/4-y,1/4-z
3/4-x,1/2+y,1/4-z
1/2-x,1/2-y,-z
1/4+x,1/4+y,-z
1/2-x,1/4+y,3/4+z
1/4+x,1/2-y,3/4+z
loop_
_atom_site_type_symbol
_atom_site_label
_atom_site_fract_x
_atom_site_fract_y
_atom_site_fract_z
Si Si1 0.625000 0.625000 0.625000
Si Si2 0.568644 0.128873 0.533811
Si Si3 0.294432 0.057748 0.683545
Si Si4 0.444934 0.525210 0.433291
Si Si5 0.225118 0.971581 0.133784
Si Si6 0.930967 0.872545 0.643271
O O1 0.595947 0.548607 0.583670
O O2 0.625000 0.125000 0.541662
O O3 0.545263 0.209173 0.579236
O O4 0.556965 0.155817 0.463282
O O5 0.546722 0.021765 0.554947
O O6 0.308048 0.125000 0.625000
O O7 0.313612 0.080153 0.751202
O O8 0.238891 0.049977 0.689891
O O9 0.308021 0.946508 0.662658
O O10 0.457095 0.608936 0.381736
O O11 0.281700 0.968027 0.134222
O O12 0.875000 0.875000 0.644154
#
# Coordination Sequence:
#
# PCOD9515048 Si02
#       6
#     8  32  32  32  32  32
#     4  12  24  40  60  94 120 156 220 258 296 370
#     4  10  21  38  65  92 127 159 205 259 317 380
#     4  10  20  42  60  85 120 167 204 251 317 368
#     4  10  23  37  64  87 123 160 209 258 304 363
#     4  10  20  39  62  89 121 165 205 251 315 369
#     4  10  22  39  60  89 126 160 206 256 310 370
#
# _framework density 20.313734
#
# number of rings (size 3 to 8) (size 9 to 14) (size 15 to 20)
#    0.000    1.905    0.952    2.857    4.000    0.000 
#    3.429    0.000    0.000    0.000    0.000    0.000 
#    0.000    0.000    0.000    0.000    0.000    0.000 
#
# Total GULP energy -233846.469636 kJ/mol
# GULP energy per Si atom -5567.773087 kJ/mol
# Density = 2.026750 g / cm^3
# Si number density = 20.313734 Si / 1000 Ang^3
#
#
#
# Elastic Constant Matrix: (Units=GPa)
#
#
# Indices 1 2 3 4 5 6 
#
# 1 112.2195 24.6748 25.0510 0.0000 0.0000 0.0000
# 2 24.6748 55.6468 4.1053 0.0000 0.0000 0.0000
# 3 25.0510 4.1053 78.1173 0.0000 0.0000 0.0000
# 4 0.0000 0.0000 0.0000 29.0537 0.0000 0.0000
# 5 0.0000 0.0000 0.0000 0.0000 53.2097 0.0000
# 6 0.0000 0.0000 0.0000 0.0000 0.0000 9.9468
#
#
#
# Elastic Compliance Matrix: (Units=1/GPa)
#
#
# Indices 1 2 3 4 5 6 
#
# 1 0.010600 -0.004467 -0.003164 0.000000 0.000000 0.000000
# 2 -0.004467 0.019923 0.000385 0.000000 0.000000 0.000000
# 3 -0.003164 0.000385 0.013796 0.000000 0.000000 0.000000
# 4 0.000000 0.000000 0.000000 0.034419 0.000000 0.000000
# 5 0.000000 0.000000 0.000000 0.000000 0.018794 0.000000
# 6 0.000000 0.000000 0.000000 0.000000 0.000000 0.100534
#
#
# Mechanical properties :
#
#
# Convention : Reuss Voigt Hill
#
# Bulk Modulus (GPa) = 33.52693 39.29398 36.41045
# Shear Modulus (GPa) = 22.47205 31.25220 26.86212
#
# Velocity S-wave (km/s) = 3.32964 3.92660 3.64038
# Velocity P-wave (km/s) = 5.59664 6.32006 5.96932
#
# Compressibility (1/GPa) = 0.02982677
#
# Stress axis : x y z
#
# Youngs Moduli (GPa) = 94.34293 50.19413 72.48593
#
# Poissons Ratio (x) = 0.22420 0.22937
# Poissons Ratio (y) = 0.42139 -0.02794
# Poissons Ratio (z) = 0.29854 -0.01934
#
# Static dielectric constant tensor:
#      x y z
#    x 1.786880 0.000000 0.000000 
#    y 0.000000 1.759170 0.000000 
#    z 0.000000 0.000000 1.739930 
# 
# From -- ./inp_files/29830.got.cif
#   From: 2010.05.17/outbox.cif.g08.bks.cpg/sg70_15_cif.got.tgz:29830.got - 2010.06.03 15:57:51.
