data_PCOD9515490
_publ_section_title
;
Structure prediction by ZEFSAII (Michael W. Deem and Ramdas Pophale) SiO2 
 PCOD9515490
Probable space group: F D D D
;
_chemical_formula_sum "Si O2"
_cell_formula_units_Z 216
_cell_length_a 31.940547
_cell_length_b 28.695682
_cell_length_c 11.065912
_cell_angle_alpha 90.000000
_cell_angle_beta 90.000000
_cell_angle_gamma 90.000000
_cell_volume 10142.525600
_symmetry_space_group_name_H-M "F D D D"
_symmetry_group_IT_number 70
_space_group.IT_coordinate_system_code '2'
_symmetry_cell_setting 'orthorhombic'
loop_
_space_group_symop_operation_xyz
x,y,z
1/4-x,1/4-y,z
x,1/4-y,1/4-z
1/4-x,y,1/4-z
-x,-y,-z
3/4+x,3/4+y,-z
-x,3/4+y,3/4+z
3/4+x,-y,3/4+z
x,1/2+y,1/2+z
1/4-x,3/4-y,1/2+z
x,3/4-y,3/4-z
1/4-x,1/2+y,3/4-z
-x,1/2-y,1/2-z
3/4+x,1/4+y,1/2-z
-x,1/4+y,1/4+z
3/4+x,1/2-y,1/4+z
1/2+x,y,1/2+z
3/4-x,1/4-y,1/2+z
1/2+x,1/4-y,3/4-z
3/4-x,y,3/4-z
1/2-x,-y,1/2-z
1/4+x,3/4+y,1/2-z
1/2-x,3/4+y,1/4+z
1/4+x,-y,1/4+z
1/2+x,1/2+y,z
3/4-x,3/4-y,z
1/2+x,3/4-y,1/4-z
3/4-x,1/2+y,1/4-z
1/2-x,1/2-y,-z
1/4+x,1/4+y,-z
1/2-x,1/4+y,3/4+z
1/4+x,1/2-y,3/4+z
loop_
_atom_site_type_symbol
_atom_site_label
_atom_site_fract_x
_atom_site_fract_y
_atom_site_fract_z
Si Si1 0.780444 0.907316 0.258181
Si Si2 0.955424 0.201948 0.651182
Si Si3 0.991209 0.175174 0.382968
Si Si4 0.396359 0.625000 0.625000
Si Si5 0.392649 0.968947 0.006258
Si Si6 0.842888 0.191343 0.478882
Si Si7 0.625000 0.125000 0.625000
Si Si8 0.828196 0.453086 0.213351
O O1 0.776025 0.875000 0.375000
O O2 0.748894 0.950083 0.277339
O O3 0.763607 0.874351 0.153927
O O4 0.827396 0.924369 0.253275
O O5 0.969847 0.195570 0.508872
O O6 0.930545 0.155659 0.698382
O O7 0.923449 0.243687 0.677981
O O8 0.952664 0.171468 0.293389
O O9 0.029332 0.203650 0.323456
O O10 0.365357 0.666701 0.589743
O O11 0.375000 0.983825 0.875000
O O12 0.353913 0.954877 0.088867
O O13 0.875000 0.176679 0.375000
O O14 0.838955 0.246976 0.477743
O O15 0.595755 0.159944 0.706113
#
# Coordination Sequence:
#
# PCOD9515490 Si02
#       8
#    32  32  32  16  32  32   8  32
#     4  10  21  40  64  94 136 180 228 284 353 416
#     4  11  21  43  67 102 140 188 229 293 367 428
#     4  11  23  43  70  96 140 186 239 297 361 432
#     4  12  22  43  72  96 137 177 236 281 370 430
#     4  12  25  42  70 108 145 187 242 293 359 443
#     4  12  23  46  70  98 139 185 233 302 367 438
#     4  12  28  50  78  96 152 200 256 300 380 454
#     4  12  26  46  69 105 140 196 243 304 367 443
#
# _framework density 21.296471
#
# number of rings (size 3 to 8) (size 9 to 14) (size 15 to 20)
#    0.000    0.593    5.926    3.556    0.000    3.852 
#    2.667    0.000    0.000    0.000    0.000    0.000 
#    0.000    0.000    0.000    0.000    0.000    0.000 
#
# Total GULP energy -300848.677094 kJ/mol
# GULP energy per Si atom -5571.271798 kJ/mol
# Density = 2.124800 g / cm^3
# Si number density = 21.296471 Si / 1000 Ang^3
#
#
#
# Elastic Constant Matrix: (Units=GPa)
#
#
# Indices 1 2 3 4 5 6 
#
# 1 145.7614 -0.3878 17.1159 0.0065 -0.0044 -0.0034
# 2 -0.3878 68.7462 -6.8190 0.0101 -0.0072 -0.0047
# 3 17.1159 -6.8190 34.9666 0.0199 -0.0140 -0.0076
# 4 0.0065 0.0101 0.0199 12.5630 -0.0069 -0.0033
# 5 -0.0044 -0.0072 -0.0140 -0.0069 32.4612 0.0031
# 6 -0.0034 -0.0047 -0.0076 -0.0033 0.0031 44.4605
#
#
#
# Elastic Compliance Matrix: (Units=1/GPa)
#
#
# Indices 1 2 3 4 5 6 
#
# 1 0.007286 -0.000319 -0.003629 0.000002 -0.000001 0.000000
# 2 -0.000319 0.014847 0.003052 -0.000017 0.000005 0.000002
# 3 -0.003629 0.003052 0.030970 -0.000050 0.000013 0.000005
# 4 0.000002 -0.000017 -0.000050 0.079599 0.000017 0.000006
# 5 -0.000001 0.000005 0.000013 0.000017 0.030806 -0.000002
# 6 0.000000 0.000002 0.000005 0.000006 -0.000002 0.022492
#
#
# Mechanical properties :
#
#
# Convention : Reuss Voigt Hill
#
# Bulk Modulus (GPa) = 19.48891 29.92138 24.70514
# Shear Modulus (GPa) = 24.40275 33.86796 29.13536
#
# Velocity S-wave (km/s) = 3.38873 3.99219 3.70277
# Velocity P-wave (km/s) = 4.94797 5.94395 5.46868
#
# Compressibility (1/GPa) = 0.05131124
#
# Stress axis : x y z
#
# Youngs Moduli (GPa) = 137.25414 67.35301 32.28932
#
# Poissons Ratio (x) = 0.02147 0.11716
# Poissons Ratio (y) = 0.04376 -0.09853
# Poissons Ratio (z) = 0.49803 -0.20553
#
# Static dielectric constant tensor:
#      x y z
#    x 1.785860 0.000000 0.000010 
#    y 0.000000 1.832040 0.000030 
#    z 0.000010 0.000030 1.535940 
# 
# From -- ./inp_files/22668.got.cif
#   From: 2010.05.17/outbox.cif.g08.bks.cpg/sg70_12_cif.got.tgz:22668.got - 2010.06.03 15:57:51.
