data_PCOD9515474
_publ_section_title
;
Structure prediction by ZEFSAII (Michael W. Deem and Ramdas Pophale) SiO2 
 PCOD9515474
Probable space group: F D D D
;
_chemical_formula_sum "Si O2"
_cell_formula_units_Z 176
_cell_length_a 22.844328
_cell_length_b 13.620600
_cell_length_c 23.794317
_cell_angle_alpha 90.000000
_cell_angle_beta 90.000000
_cell_angle_gamma 90.000000
_cell_volume 7403.683919
_symmetry_space_group_name_H-M "F D D D"
_symmetry_group_IT_number 70
_space_group.IT_coordinate_system_code '2'
_symmetry_cell_setting 'orthorhombic'
loop_
_space_group_symop_operation_xyz
x,y,z
1/4-x,1/4-y,z
x,1/4-y,1/4-z
1/4-x,y,1/4-z
-x,-y,-z
3/4+x,3/4+y,-z
-x,3/4+y,3/4+z
3/4+x,-y,3/4+z
x,1/2+y,1/2+z
1/4-x,3/4-y,1/2+z
x,3/4-y,3/4-z
1/4-x,1/2+y,3/4-z
-x,1/2-y,1/2-z
3/4+x,1/4+y,1/2-z
-x,1/4+y,1/4+z
3/4+x,1/2-y,1/4+z
1/2+x,y,1/2+z
3/4-x,1/4-y,1/2+z
1/2+x,1/4-y,3/4-z
3/4-x,y,3/4-z
1/2-x,-y,1/2-z
1/4+x,3/4+y,1/2-z
1/2-x,3/4+y,1/4+z
1/4+x,-y,1/4+z
1/2+x,1/2+y,z
3/4-x,3/4-y,z
1/2+x,3/4-y,1/4-z
3/4-x,1/2+y,1/4-z
1/2-x,1/2-y,-z
1/4+x,1/4+y,-z
1/2-x,1/4+y,3/4+z
1/4+x,1/2-y,3/4+z
loop_
_atom_site_type_symbol
_atom_site_label
_atom_site_fract_x
_atom_site_fract_y
_atom_site_fract_z
Si Si1 0.557886 0.652136 0.022560
Si Si2 0.951085 0.218414 0.664513
Si Si3 0.219662 0.375000 0.875000
Si Si4 0.085006 0.028370 0.538644
Si Si5 0.918822 0.172138 0.416140
Si Si6 0.959519 0.335835 0.147813
O O1 0.625000 0.625000 0.033008
O O2 0.511841 0.624112 0.070553
O O3 0.560951 0.770707 0.027889
O O4 0.540938 0.603142 0.964167
O O5 0.938322 0.125000 0.625000
O O6 0.921554 0.243259 0.724285
O O7 0.935008 0.315033 0.628569
O O8 0.020504 0.208193 0.683131
O O9 0.186384 0.478563 0.870598
O O10 0.125000 0.125000 0.544075
O O11 0.110059 0.930626 0.567746
O O12 0.875000 0.228926 0.375000
O O13 0.975823 0.162148 0.378383
#
# Coordination Sequence:
#
# PCOD9515474 Si02
#       6
#    32  32  16  32  32  32
#     4  11  21  39  64  93 128 172 217 271 340 396
#     4  10  22  42  65  93 137 176 213 282 343 399
#     4  10  21  40  62  94 128 168 222 278 317 406
#     4  10  23  40  64  98 127 175 227 272 334 410
#     4  10  22  40  63  95 128 169 222 279 322 396
#     4  10  22  39  64  90 130 171 219 267 344 393
#
# _framework density 23.771951000000001
#
# number of rings (size 3 to 8) (size 9 to 14) (size 15 to 20)
#    0.000    1.818    0.000    4.091    5.091    2.182 
#    3.273    0.000    2.000    0.000    0.000    0.000 
#    0.000    0.000    0.000    0.000    0.000    0.000 
#
# Total GULP energy -245632.850403 kJ/mol
# GULP energy per Si atom -5582.564782 kJ/mol
# Density = 2.371784 g / cm^3
# Si number density = 23.771951 Si / 1000 Ang^3
#
#
#
# Elastic Constant Matrix: (Units=GPa)
#
#
# Indices 1 2 3 4 5 6 
#
# 1 71.3738 51.4707 23.0702 0.0000 0.0000 0.0000
# 2 51.4707 223.4670 96.5620 0.0000 0.0000 0.0000
# 3 23.0702 96.5620 162.8110 0.0000 0.0000 0.0000
# 4 0.0000 0.0000 0.0000 469.4180 0.0000 0.0000
# 5 0.0000 0.0000 0.0000 0.0000 12.5451 0.0000
# 6 0.0000 0.0000 0.0000 0.0000 0.0000 28.4294
#
#
#
# Elastic Compliance Matrix: (Units=1/GPa)
#
#
# Indices 1 2 3 4 5 6 
#
# 1 0.016803 -0.003820 -0.000115 0.000000 0.000000 0.000000
# 2 -0.003820 0.006886 -0.003542 0.000000 0.000000 0.000000
# 3 -0.000115 -0.003542 0.008259 0.000000 0.000000 0.000000
# 4 0.000000 0.000000 0.000000 0.002130 0.000000 0.000000
# 5 0.000000 0.000000 0.000000 0.000000 0.079712 0.000000
# 6 0.000000 0.000000 0.000000 0.000000 0.000000 0.035175
#
#
# Mechanical properties :
#
#
# Convention : Reuss Voigt Hill
#
# Bulk Modulus (GPa) = 58.85105 88.87308 73.86206
# Shear Modulus (GPa) = 29.48366 121.18176 75.33271
#
# Velocity S-wave (km/s) = 3.52557 7.14755 5.63547
# Velocity P-wave (km/s) = 6.43297 10.27538 8.57224
#
# Compressibility (1/GPa) = 0.01699205
#
# Stress axis : x y z
#
# Youngs Moduli (GPa) = 59.51293 145.23006 121.07417
#
# Poissons Ratio (x) = 0.55485 0.01393
# Poissons Ratio (y) = 0.22737 0.42890
# Poissons Ratio (z) = 0.00685 0.51447
#
# Static dielectric constant tensor:
#      x y z
#    x 1.913900 0.000000 0.000000 
#    y 0.000000 2.006940 0.000000 
#    z 0.000000 0.000000 1.885930 
# 
# From -- ./inp_files/53634.got.cif
#   From: 2010.05.17/outbox.cif.g08.bks.cpg/sg70_27_cif.got.tgz:53634.got - 2010.06.03 15:57:51.
