data_PCOD9515685
_publ_section_title
;
Structure prediction by ZEFSAII (Michael W. Deem and Ramdas Pophale) SiO2 
 PCOD9515685
Probable space group: F D D D
;
_chemical_formula_sum "Si O2"
_cell_formula_units_Z 192
_cell_length_a 11.558377
_cell_length_b 23.790334
_cell_length_c 32.299352
_cell_angle_alpha 90.000000
_cell_angle_beta 90.000000
_cell_angle_gamma 90.000000
_cell_volume 8881.599888
_symmetry_space_group_name_H-M "F D D D"
_symmetry_group_IT_number 70
_space_group.IT_coordinate_system_code '2'
_symmetry_cell_setting 'orthorhombic'
loop_
_space_group_symop_operation_xyz
x,y,z
1/4-x,1/4-y,z
x,1/4-y,1/4-z
1/4-x,y,1/4-z
-x,-y,-z
3/4+x,3/4+y,-z
-x,3/4+y,3/4+z
3/4+x,-y,3/4+z
x,1/2+y,1/2+z
1/4-x,3/4-y,1/2+z
x,3/4-y,3/4-z
1/4-x,1/2+y,3/4-z
-x,1/2-y,1/2-z
3/4+x,1/4+y,1/2-z
-x,1/4+y,1/4+z
3/4+x,1/2-y,1/4+z
1/2+x,y,1/2+z
3/4-x,1/4-y,1/2+z
1/2+x,1/4-y,3/4-z
3/4-x,y,3/4-z
1/2-x,-y,1/2-z
1/4+x,3/4+y,1/2-z
1/2-x,3/4+y,1/4+z
1/4+x,-y,1/4+z
1/2+x,1/2+y,z
3/4-x,3/4-y,z
1/2+x,3/4-y,1/4-z
3/4-x,1/2+y,1/4-z
1/2-x,1/2-y,-z
1/4+x,1/4+y,-z
1/2-x,1/4+y,3/4+z
1/4+x,1/2-y,3/4+z
loop_
_atom_site_type_symbol
_atom_site_label
_atom_site_fract_x
_atom_site_fract_y
_atom_site_fract_z
Si Si1 0.375000 0.875000 0.875000
Si Si2 0.205676 0.922898 0.938628
Si Si3 0.973693 0.038918 0.780699
Si Si4 0.226989 0.228699 0.934950
Si Si5 0.625000 0.625000 0.264481
Si Si6 0.254877 0.602439 0.888260
Si Si7 0.125000 0.625000 0.625000
Si Si8 0.211910 0.826701 0.305237
O O1 0.302066 0.917305 0.904087
O O2 0.154281 0.860415 0.938466
O O3 0.100171 0.966112 0.929906
O O4 0.244919 0.941253 0.984366
O O5 0.843757 0.013537 0.788063
O O6 0.983216 0.088829 0.813461
O O7 0.054358 0.988174 0.795127
O O8 0.158761 0.178454 0.957971
O O9 0.258695 0.203388 0.890347
O O10 0.728128 0.643676 0.234385
O O11 0.125000 0.625000 0.881255
O O12 0.375000 0.633951 0.875000
O O13 0.204908 0.587837 0.594633
#
# Coordination Sequence:
#
# PCOD9515685 Si02
#       8
#     8  32  32  32  16  32   8  32
#     4  12  34  52  66  94 140 216 240 300 354 474
#     4  12  26  49  68  93 144 186 246 291 367 437
#     4  11  24  41  72 107 136 182 235 310 359 431
#     4  11  21  42  70 106 141 177 228 306 368 433
#     4  11  18  37  69 108 134 172 225 275 382 423
#     4  10  24  42  68 105 146 184 240 303 375 438
#     4  10  22  32  60 106 148 160 218 284 344 428
#     4  11  23  38  68 102 135 179 227 291 360 421
#
# _framework density 21.617726999999999
#
# number of rings (size 3 to 8) (size 9 to 14) (size 15 to 20)
#    0.000    1.000    4.167    3.000    9.333    0.000 
#    1.500    0.833    0.000    0.000    0.000    0.000 
#    0.000    0.000    0.000    0.000    0.000    0.000 
#
# Total GULP energy -268298.094725 kJ/mol
# GULP energy per Si atom -5589.543640 kJ/mol
# Density = 2.156852 g / cm^3
# Si number density = 21.617727 Si / 1000 Ang^3
#
#
#
# Elastic Constant Matrix: (Units=GPa)
#
#
# Indices 1 2 3 4 5 6 
#
# 1 105.0985 40.8527 50.4534 0.0000 0.0000 0.0000
# 2 40.8527 68.5435 30.9957 0.0000 0.0000 0.0000
# 3 50.4534 30.9957 158.0840 0.0000 0.0000 0.0000
# 4 0.0000 0.0000 0.0000 26.3735 0.0000 0.0000
# 5 0.0000 0.0000 0.0000 0.0000 35.4367 0.0000
# 6 0.0000 0.0000 0.0000 0.0000 0.0000 22.6981
#
#
#
# Elastic Compliance Matrix: (Units=1/GPa)
#
#
# Indices 1 2 3 4 5 6 
#
# 1 0.013578 -0.006729 -0.003014 0.000000 0.000000 0.000000
# 2 -0.006729 0.019344 -0.001645 0.000000 0.000000 0.000000
# 3 -0.003014 -0.001645 0.007610 0.000000 0.000000 0.000000
# 4 0.000000 0.000000 0.000000 0.037917 0.000000 0.000000
# 5 0.000000 0.000000 0.000000 0.000000 0.028219 0.000000
# 6 0.000000 0.000000 0.000000 0.000000 0.000000 0.044057
#
#
# Mechanical properties :
#
#
# Convention : Reuss Voigt Hill
#
# Bulk Modulus (GPa) = 56.32241 64.03660 60.17950
# Shear Modulus (GPa) = 27.86762 30.86326 29.36544
#
# Velocity S-wave (km/s) = 3.59431 3.78257 3.68964
# Velocity P-wave (km/s) = 6.58299 6.98310 6.78600
#
# Compressibility (1/GPa) = 0.01775492
#
# Stress axis : x y z
#
# Youngs Moduli (GPa) = 73.65105 51.69555 131.40262
#
# Poissons Ratio (x) = 0.34788 0.39603
# Poissons Ratio (y) = 0.49563 0.21616
# Poissons Ratio (z) = 0.22198 0.08504
#
# Static dielectric constant tensor:
#      x y z
#    x 1.869910 0.000000 0.000000 
#    y 0.000000 1.778430 0.000000 
#    z 0.000000 0.000000 1.817310 
# 
# From -- ./inp_files/65011.got.cif
#   From: 2010.05.17/outbox.cif.g08.bks.cpg/sg70_33_cif.got.tgz:65011.got - 2010.06.03 15:57:51.
