data_PCOD9515710
_publ_section_title
;
Structure prediction by ZEFSAII (Michael W. Deem and Ramdas Pophale) SiO2 
 PCOD9515710
Probable space group: F D D D
;
_chemical_formula_sum "Si O2"
_cell_formula_units_Z 144
_cell_length_a 18.693129
_cell_length_b 24.497285
_cell_length_c 14.991840
_cell_angle_alpha 90.000000
_cell_angle_beta 90.000000
_cell_angle_gamma 90.000000
_cell_volume 6865.226914
_symmetry_space_group_name_H-M "F D D D"
_symmetry_group_IT_number 70
_space_group.IT_coordinate_system_code '2'
_symmetry_cell_setting 'orthorhombic'
loop_
_space_group_symop_operation_xyz
x,y,z
1/4-x,1/4-y,z
x,1/4-y,1/4-z
1/4-x,y,1/4-z
-x,-y,-z
3/4+x,3/4+y,-z
-x,3/4+y,3/4+z
3/4+x,-y,3/4+z
x,1/2+y,1/2+z
1/4-x,3/4-y,1/2+z
x,3/4-y,3/4-z
1/4-x,1/2+y,3/4-z
-x,1/2-y,1/2-z
3/4+x,1/4+y,1/2-z
-x,1/4+y,1/4+z
3/4+x,1/2-y,1/4+z
1/2+x,y,1/2+z
3/4-x,1/4-y,1/2+z
1/2+x,1/4-y,3/4-z
3/4-x,y,3/4-z
1/2-x,-y,1/2-z
1/4+x,3/4+y,1/2-z
1/2-x,3/4+y,1/4+z
1/4+x,-y,1/4+z
1/2+x,1/2+y,z
3/4-x,3/4-y,z
1/2+x,3/4-y,1/4-z
3/4-x,1/2+y,1/4-z
1/2-x,1/2-y,-z
1/4+x,1/4+y,-z
1/2-x,1/4+y,3/4+z
1/4+x,1/2-y,3/4+z
loop_
_atom_site_type_symbol
_atom_site_label
_atom_site_fract_x
_atom_site_fract_y
_atom_site_fract_z
Si Si1 0.754875 0.754134 0.753598
Si Si2 0.866009 0.937057 0.267252
Si Si3 0.125000 0.455309 0.625000
Si Si4 0.339591 0.152573 0.284100
Si Si5 0.722427 0.932846 0.332641
O O1 0.678483 0.723969 0.773309
O O2 0.813792 0.740199 0.827240
O O3 0.733694 0.816874 0.737462
O O4 0.781252 0.725874 0.662191
O O5 0.875000 0.941987 0.375000
O O6 0.875000 0.875000 0.237212
O O7 0.781882 0.948666 0.258954
O O8 0.089520 0.412041 0.554613
O O9 0.375000 0.176558 0.375000
O O10 0.397161 0.167577 0.209660
O O11 0.748422 0.875000 0.375000
#
# Coordination Sequence:
#
# PCOD9515710 Si02
#       5
#    32  32  16  32  32
#     4  11  21  36  58  85 126 167 197 259 319 369
#     4   9  14  25  50  82 111 144 188 228 306 372
#     4  10  22  42  56  92 134 152 214 272 296 384
#     4  10  22  37  59  94 123 158 210 254 324 386
#     4  11  17  35  59  85 125 158 192 258 328 370
#
# _framework density 20.975270999999999
#
# number of rings (size 3 to 8) (size 9 to 14) (size 15 to 20)
#    0.667    1.111    6.667    2.000    0.000    3.556 
#    0.000    1.111    0.000    0.000    0.000    0.000 
#    0.000    0.000    0.000    0.000    0.000    0.000 
#
# Total GULP energy -200762.290637 kJ/mol
# GULP energy per Si atom -5576.730295 kJ/mol
# Density = 2.092753 g / cm^3
# Si number density = 20.975271 Si / 1000 Ang^3
#
#
#
# Elastic Constant Matrix: (Units=GPa)
#
#
# Indices 1 2 3 4 5 6 
#
# 1 95.4631 48.1383 57.9814 0.0000 0.0000 0.0000
# 2 48.1383 66.6710 14.2650 0.0000 0.0000 0.0000
# 3 57.9814 14.2650 49.9588 0.0000 0.0000 0.0000
# 4 0.0000 0.0000 0.0000 5.7334 0.0000 0.0000
# 5 0.0000 0.0000 0.0000 0.0000 44.2744 0.0000
# 6 0.0000 0.0000 0.0000 0.0000 0.0000 45.7280
#
#
#
# Elastic Compliance Matrix: (Units=1/GPa)
#
#
# Indices 1 2 3 4 5 6 
#
# 1 0.081723 -0.041232 -0.083073 0.000000 0.000000 0.000000
# 2 -0.041232 0.036778 0.037352 0.000000 0.000000 0.000000
# 3 -0.083073 0.037352 0.105765 0.000000 0.000000 0.000000
# 4 0.000000 0.000000 0.000000 0.174418 0.000000 0.000000
# 5 0.000000 0.000000 0.000000 0.000000 0.022586 0.000000
# 6 0.000000 0.000000 0.000000 0.000000 0.000000 0.021868
#
#
# Mechanical properties :
#
#
# Convention : Reuss Voigt Hill
#
# Bulk Modulus (GPa) = 19.85759 50.31803 35.08781
# Shear Modulus (GPa) = 7.88854 25.26103 16.57478
#
# Velocity S-wave (km/s) = 1.94140 3.47410 2.81411
# Velocity P-wave (km/s) = 3.80960 6.33513 5.22718
#
# Compressibility (1/GPa) = 0.05035858
#
# Stress axis : x y z
#
# Youngs Moduli (GPa) = 12.23647 27.19044 9.45494
#
# Poissons Ratio (x) = 1.12111 0.78545
# Poissons Ratio (y) = 0.50453 -0.35316
# Poissons Ratio (z) = 1.01652 -1.01560
#
# Static dielectric constant tensor:
#      x y z
#    x 1.823540 0.000000 0.000000 
#    y 0.000000 1.818340 0.000000 
#    z 0.000000 0.000000 1.812200 
# 
# From -- ./inp_files/33944.got.cif
#   From: 2010.05.17/outbox.cif.g08.bks.cpg/sg70_17_cif.got.tgz:33944.got - 2010.06.03 15:57:51.
