data_PCOD9515118
_publ_section_title
;
Structure prediction by ZEFSAII (Michael W. Deem and Ramdas Pophale) SiO2 
 PCOD9515118
Probable space group: F D D D
;
_chemical_formula_sum "Si O2"
_cell_formula_units_Z 208
_cell_length_a 18.007637
_cell_length_b 21.314515
_cell_length_c 25.942121
_cell_angle_alpha 90.000000
_cell_angle_beta 90.000000
_cell_angle_gamma 90.000000
_cell_volume 9957.209921
_symmetry_space_group_name_H-M "F D D D"
_symmetry_group_IT_number 70
_space_group.IT_coordinate_system_code '2'
_symmetry_cell_setting 'orthorhombic'
loop_
_space_group_symop_operation_xyz
x,y,z
1/4-x,1/4-y,z
x,1/4-y,1/4-z
1/4-x,y,1/4-z
-x,-y,-z
3/4+x,3/4+y,-z
-x,3/4+y,3/4+z
3/4+x,-y,3/4+z
x,1/2+y,1/2+z
1/4-x,3/4-y,1/2+z
x,3/4-y,3/4-z
1/4-x,1/2+y,3/4-z
-x,1/2-y,1/2-z
3/4+x,1/4+y,1/2-z
-x,1/4+y,1/4+z
3/4+x,1/2-y,1/4+z
1/2+x,y,1/2+z
3/4-x,1/4-y,1/2+z
1/2+x,1/4-y,3/4-z
3/4-x,y,3/4-z
1/2-x,-y,1/2-z
1/4+x,3/4+y,1/2-z
1/2-x,3/4+y,1/4+z
1/4+x,-y,1/4+z
1/2+x,1/2+y,z
3/4-x,3/4-y,z
1/2+x,3/4-y,1/4-z
3/4-x,1/2+y,1/4-z
1/2-x,1/2-y,-z
1/4+x,1/4+y,-z
1/2-x,1/4+y,3/4+z
1/4+x,1/2-y,3/4+z
loop_
_atom_site_type_symbol
_atom_site_label
_atom_site_fract_x
_atom_site_fract_y
_atom_site_fract_z
Si Si1 0.429879 0.513431 0.832222
Si Si2 0.674510 0.965112 0.766179
Si Si3 0.327995 0.435771 0.068086
Si Si4 0.669564 0.757736 0.525345
Si Si5 0.037902 0.822441 0.976893
Si Si6 0.247563 0.641116 0.918657
Si Si7 0.125000 0.625000 0.006550
O O1 0.375000 0.488243 0.875000
O O2 0.381396 0.534571 0.782698
O O3 0.487338 0.460840 0.815171
O O4 0.470799 0.575782 0.852423
O O5 0.695589 0.895031 0.781675
O O6 0.750000 0.000000 0.750000
O O7 0.629916 0.004308 0.809081
O O8 0.375000 0.375000 0.051062
O O9 0.256520 0.437174 0.030895
O O10 0.303145 0.424772 0.126388
O O11 0.750000 0.750000 0.500000
O O12 0.614445 0.785852 0.483163
O O13 0.685603 0.811358 0.567392
O O14 0.636511 0.689191 0.538494
O O15 0.196859 0.623258 0.968432
#
# Coordination Sequence:
#
# PCOD9515118 Si02
#       7
#    32  32  32  32  32  32  16
#     4  11  24  39  70 100 132 177 229 274 337 412
#     4  11  23  43  67  96 135 181 221 276 341 410
#     4  11  23  37  68  99 132 176 229 281 334 403
#     4  10  22  38  66  97 125 176 221 280 338 405
#     4  11  22  43  66  95 139 177 221 279 345 404
#     4  11  21  38  67 100 129 171 235 279 333 403
#     4  10  20  40  66  91 136 170 221 274 342 394
#
# _framework density 20.889385999999998
#
# number of rings (size 3 to 8) (size 9 to 14) (size 15 to 20)
#    0.000    1.231    5.385    0.923    0.000    0.000 
#    0.000    1.538    0.000    9.231    0.000    0.000 
#    0.000    0.000    0.000    0.000    0.000    0.000 
#
# Total GULP energy -290639.467865 kJ/mol
# GULP energy per Si atom -5589.220536 kJ/mol
# Density = 2.084184 g / cm^3
# Si number density = 20.889386 Si / 1000 Ang^3
#
#
#
# Elastic Constant Matrix: (Units=GPa)
#
#
# Indices 1 2 3 4 5 6 
#
# 1 122.1156 71.5463 32.1466 0.0000 0.0000 0.0000
# 2 71.5463 190.9366 32.0466 0.0000 0.0000 0.0000
# 3 32.1466 32.0466 48.9395 0.0000 0.0000 0.0000
# 4 0.0000 0.0000 0.0000 12.1344 0.0000 0.0000
# 5 0.0000 0.0000 0.0000 0.0000 27.1121 0.0000
# 6 0.0000 0.0000 0.0000 0.0000 0.0000 40.7146
#
#
#
# Elastic Compliance Matrix: (Units=1/GPa)
#
#
# Indices 1 2 3 4 5 6 
#
# 1 0.011628 -0.003455 -0.005376 0.000000 0.000000 0.000000
# 2 -0.003455 0.006911 -0.002256 0.000000 0.000000 0.000000
# 3 -0.005376 -0.002256 0.025442 0.000000 0.000000 0.000000
# 4 0.000000 0.000000 0.000000 0.082411 0.000000 0.000000
# 5 0.000000 0.000000 0.000000 0.000000 0.036884 0.000000
# 6 0.000000 0.000000 0.000000 0.000000 0.000000 0.024561
#
#
# Mechanical properties :
#
#
# Convention : Reuss Voigt Hill
#
# Bulk Modulus (GPa) = 45.85578 70.38561 58.12070
# Shear Modulus (GPa) = 23.01192 31.07569 27.04381
#
# Velocity S-wave (km/s) = 3.32265 3.86117 3.60199
# Velocity P-wave (km/s) = 6.05965 7.32432 6.72180
#
# Compressibility (1/GPa) = 0.02180750
#
# Stress axis : x y z
#
# Youngs Moduli (GPa) = 85.99631 144.70567 39.30555
#
# Poissons Ratio (x) = 0.49996 0.21130
# Poissons Ratio (y) = 0.29712 0.08866
# Poissons Ratio (z) = 0.46230 0.32641
#
# Static dielectric constant tensor:
#      x y z
#    x 1.752410 0.000000 0.000000 
#    y 0.000000 1.772860 0.000000 
#    z 0.000000 0.000000 1.755350 
# 
# From -- ./inp_files/66799.got.cif
#   From: 2010.05.17/outbox.cif.g08.bks.cpg/sg70_34_cif.got.tgz:66799.got - 2010.06.03 15:57:51.
