data_PCOD9515579
_publ_section_title
;
Structure prediction by ZEFSAII (Michael W. Deem and Ramdas Pophale) SiO2 
 PCOD9515579
Probable space group: F D D D
;
_chemical_formula_sum "Si O2"
_cell_formula_units_Z 208
_cell_length_a 25.516125
_cell_length_b 22.266624
_cell_length_c 16.780904
_cell_angle_alpha 90.000000
_cell_angle_beta 90.000000
_cell_angle_gamma 90.000000
_cell_volume 9534.204206
_symmetry_space_group_name_H-M "F D D D"
_symmetry_group_IT_number 70
_space_group.IT_coordinate_system_code '2'
_symmetry_cell_setting 'orthorhombic'
loop_
_space_group_symop_operation_xyz
x,y,z
1/4-x,1/4-y,z
x,1/4-y,1/4-z
1/4-x,y,1/4-z
-x,-y,-z
3/4+x,3/4+y,-z
-x,3/4+y,3/4+z
3/4+x,-y,3/4+z
x,1/2+y,1/2+z
1/4-x,3/4-y,1/2+z
x,3/4-y,3/4-z
1/4-x,1/2+y,3/4-z
-x,1/2-y,1/2-z
3/4+x,1/4+y,1/2-z
-x,1/4+y,1/4+z
3/4+x,1/2-y,1/4+z
1/2+x,y,1/2+z
3/4-x,1/4-y,1/2+z
1/2+x,1/4-y,3/4-z
3/4-x,y,3/4-z
1/2-x,-y,1/2-z
1/4+x,3/4+y,1/2-z
1/2-x,3/4+y,1/4+z
1/4+x,-y,1/4+z
1/2+x,1/2+y,z
3/4-x,3/4-y,z
1/2+x,3/4-y,1/4-z
3/4-x,1/2+y,1/4-z
1/2-x,1/2-y,-z
1/4+x,1/4+y,-z
1/2-x,1/4+y,3/4+z
1/4+x,1/2-y,3/4+z
loop_
_atom_site_type_symbol
_atom_site_label
_atom_site_fract_x
_atom_site_fract_y
_atom_site_fract_z
Si Si1 0.732256 0.375000 0.375000
Si Si2 0.322306 0.842320 0.266896
Si Si3 0.212220 0.625948 0.345509
Si Si4 0.543586 0.249662 0.822046
Si Si5 0.808709 0.491513 0.716856
Si Si6 0.167033 0.354461 0.556741
Si Si7 0.090103 0.475698 0.787095
O O1 0.771941 0.375893 0.448094
O O2 0.702723 0.313278 0.382701
O O3 0.375000 0.875000 0.294048
O O4 0.316927 0.852933 0.173819
O O5 0.314617 0.770965 0.278102
O O6 0.211499 0.697255 0.361645
O O7 0.184471 0.581236 0.281204
O O8 0.273756 0.609069 0.340826
O O9 0.500000 0.250000 0.750000
O O10 0.601361 0.246641 0.784839
O O11 0.750000 0.500000 0.750000
O O12 0.841854 0.538288 0.769541
O O13 0.815952 0.515133 0.625464
O O14 0.125000 0.366570 0.625000
O O15 0.162255 0.407337 0.491170
#
# Coordination Sequence:
#
# PCOD9515579 Si02
#       7
#    16  32  32  32  32  32  32
#     4  12  25  34  62  94 134 166 220 268 329 394
#     4  11  21  39  60  87 126 180 221 261 322 419
#     4  10  21  42  63  86 129 178 215 271 338 402
#     4  12  23  39  60  95 138 170 219 271 330 415
#     4   9  22  42  67  90 124 177 234 282 339 412
#     4  11  23  39  66 100 137 169 224 294 353 409
#     4  11  23  39  68  94 134 179 229 273 354 410
#
# _framework density 21.816189000000001
#
# number of rings (size 3 to 8) (size 9 to 14) (size 15 to 20)
#    0.000    1.231    3.077    2.538    2.154    1.231 
#    0.000    1.538    0.000    5.538    0.000    0.000 
#    0.000    0.000    0.000    0.000    0.000    0.000 
#
# Total GULP energy -289495.441181 kJ/mol
# GULP energy per Si atom -5567.220023 kJ/mol
# Density = 2.176653 g / cm^3
# Si number density = 21.816189 Si / 1000 Ang^3
#
#
#
# Elastic Constant Matrix: (Units=GPa)
#
#
# Indices 1 2 3 4 5 6 
#
# 1 62.9789 18.3379 25.2710 0.0000 0.0000 0.0000
# 2 18.3379 184.7168 30.6375 0.0000 0.0000 0.0000
# 3 25.2710 30.6375 60.1443 0.0000 0.0000 0.0000
# 4 0.0000 0.0000 0.0000 22.9486 0.0000 0.0000
# 5 0.0000 0.0000 0.0000 0.0000 31.7466 0.0000
# 6 0.0000 0.0000 0.0000 0.0000 0.0000 24.2668
#
#
#
# Elastic Compliance Matrix: (Units=1/GPa)
#
#
# Indices 1 2 3 4 5 6 
#
# 1 0.019163 -0.000619 -0.007736 0.000000 0.000000 0.000000
# 2 -0.000619 0.005933 -0.002762 0.000000 0.000000 0.000000
# 3 -0.007736 -0.002762 0.021284 0.000000 0.000000 0.000000
# 4 0.000000 0.000000 0.000000 0.043576 0.000000 0.000000
# 5 0.000000 0.000000 0.000000 0.000000 0.031499 0.000000
# 6 0.000000 0.000000 0.000000 0.000000 0.000000 0.041209
#
#
# Mechanical properties :
#
#
# Convention : Reuss Voigt Hill
#
# Bulk Modulus (GPa) = 41.41641 50.70365 46.06003
# Shear Modulus (GPa) = 25.91370 31.36531 28.63950
#
# Velocity S-wave (km/s) = 3.45022 3.79583 3.62714
# Velocity P-wave (km/s) = 5.90741 6.51942 6.22094
#
# Compressibility (1/GPa) = 0.02414502
#
# Stress axis : x y z
#
# Youngs Moduli (GPa) = 52.18411 168.53967 46.98287
#
# Poissons Ratio (x) = 0.10437 0.36347
# Poissons Ratio (y) = 0.03232 0.12978
# Poissons Ratio (z) = 0.40371 0.46555
#
# Static dielectric constant tensor:
#      x y z
#    x 1.727500 0.000000 0.000000 
#    y 0.000000 1.925870 0.000000 
#    z 0.000000 0.000000 1.923300 
# 
# From -- ./inp_files/38715.got.cif
#   From: 2010.05.17/outbox.cif.g08.bks.cpg/sg70_20_cif.got.tgz:38715.got - 2010.06.03 15:57:51.
