data_PCOD9515008
_publ_section_title
;
Structure prediction by ZEFSAII (Michael W. Deem and Ramdas Pophale) SiO2 
 PCOD9515008
Probable space group: F D D D
;
_chemical_formula_sum "Si O2"
_cell_formula_units_Z 128
_cell_length_a 21.329373
_cell_length_b 22.007985
_cell_length_c 12.546519
_cell_angle_alpha 90.000000
_cell_angle_beta 90.000000
_cell_angle_gamma 90.000000
_cell_volume 5889.543300
_symmetry_space_group_name_H-M "F D D D"
_symmetry_group_IT_number 70
_space_group.IT_coordinate_system_code '2'
_symmetry_cell_setting 'orthorhombic'
loop_
_space_group_symop_operation_xyz
x,y,z
1/4-x,1/4-y,z
x,1/4-y,1/4-z
1/4-x,y,1/4-z
-x,-y,-z
3/4+x,3/4+y,-z
-x,3/4+y,3/4+z
3/4+x,-y,3/4+z
x,1/2+y,1/2+z
1/4-x,3/4-y,1/2+z
x,3/4-y,3/4-z
1/4-x,1/2+y,3/4-z
-x,1/2-y,1/2-z
3/4+x,1/4+y,1/2-z
-x,1/4+y,1/4+z
3/4+x,1/2-y,1/4+z
1/2+x,y,1/2+z
3/4-x,1/4-y,1/2+z
1/2+x,1/4-y,3/4-z
3/4-x,y,3/4-z
1/2-x,-y,1/2-z
1/4+x,3/4+y,1/2-z
1/2-x,3/4+y,1/4+z
1/4+x,-y,1/4+z
1/2+x,1/2+y,z
3/4-x,3/4-y,z
1/2+x,3/4-y,1/4-z
3/4-x,1/2+y,1/4-z
1/2-x,1/2-y,-z
1/4+x,1/4+y,-z
1/2-x,1/4+y,3/4+z
1/4+x,1/2-y,3/4+z
loop_
_atom_site_type_symbol
_atom_site_label
_atom_site_fract_x
_atom_site_fract_y
_atom_site_fract_z
Si Si1 0.508592 0.821125 0.451420
Si Si2 0.632180 0.991282 0.856986
Si Si3 0.540457 0.375000 0.375000
Si Si4 0.727897 0.562571 0.809291
Si Si5 0.625000 0.528155 0.125000
O O1 0.531966 0.875000 0.375000
O O2 0.553682 0.766029 0.420370
O O3 0.511940 0.827323 0.578515
O O4 0.436610 0.811910 0.417825
O O5 0.585532 0.933586 0.868041
O O6 0.593060 0.047956 0.904412
O O7 0.646787 0.994440 0.731611
O O8 0.495965 0.364947 0.273104
O O9 0.750000 0.500000 0.750000
#
# Coordination Sequence:
#
# PCOD9515008 Si02
#       5
#    32  32  16  32  16
#     4  11  22  40  68  97 125 168 215 270 321 393
#     4  10  21  38  65  95 126 172 210 268 322 391
#     4  10  20  38  64  94 124 174 218 256 322 388
#     4   9  22  41  63  93 136 164 215 272 318 386
#     4  10  23  40  60  92 138 158 208 263 334 378
#
# _framework density 21.733433000000002
#
# number of rings (size 3 to 8) (size 9 to 14) (size 15 to 20)
#    0.000    2.000    1.250    1.125    3.500    4.000 
#    4.500    0.000   11.000    1.500    0.000    0.000 
#    0.000    0.000    0.000    0.000    0.000    0.000 
#
# Total GULP energy -178366.956128 kJ/mol
# GULP energy per Si atom -5573.967379 kJ/mol
# Density = 2.168397 g / cm^3
# Si number density = 21.733433 Si / 1000 Ang^3
#
#
#
# Elastic Constant Matrix: (Units=GPa)
#
#
# Indices 1 2 3 4 5 6 
#
# 1 86.5003 15.0042 54.9965 0.0000 0.0000 0.0000
# 2 15.0042 33.1766 28.8902 0.0000 0.0000 0.0000
# 3 54.9965 28.8902 214.3482 0.0000 0.0000 0.0000
# 4 0.0000 0.0000 0.0000 32.5902 0.0000 0.0000
# 5 0.0000 0.0000 0.0000 0.0000 29.7581 0.0000
# 6 0.0000 0.0000 0.0000 0.0000 0.0000 -21.1144
#
#
#
# Elastic Compliance Matrix: (Units=1/GPa)
#
#
# Indices 1 2 3 4 5 6 
#
# 1 0.014200 -0.003681 -0.003147 0.000000 0.000000 0.000000
# 2 -0.003681 0.035104 -0.003787 0.000000 0.000000 0.000000
# 3 -0.003147 -0.003787 0.005983 0.000000 0.000000 0.000000
# 4 0.000000 0.000000 0.000000 0.030684 0.000000 0.000000
# 5 0.000000 0.000000 0.000000 0.000000 0.033604 0.000000
# 6 0.000000 0.000000 0.000000 0.000000 0.000000 -0.047361
#
#
# Mechanical properties :
#
#
# Convention : Reuss Voigt Hill
#
# Bulk Modulus (GPa) = 29.36291 59.08966 44.22628
# Shear Modulus (GPa) = 47.71072 23.92240 35.81656
#
# Velocity S-wave (km/s) = 4.69045 3.32131 4.06395
# Velocity P-wave (km/s) = 6.54779 6.47731 6.51265
#
# Compressibility (1/GPa) = 0.03405657
#
# Stress axis : x y z
#
# Youngs Moduli (GPa) = 70.42137 28.48660 167.13457
#
# Poissons Ratio (x) = 0.10487 0.52601
# Poissons Ratio (y) = 0.25926 0.63291
# Poissons Ratio (z) = 0.22163 0.10787
#
# Static dielectric constant tensor:
#      x y z
#    x 1.798740 0.000000 0.000000 
#    y 0.000000 1.866950 0.000000 
#    z 0.000000 0.000000 1.831790 
# 
# From -- ./inp_files/18866.got.cif
#   From: 2010.05.17/outbox.cif.g08.bks.cpg/sg70_10_cif.got.tgz:18866.got - 2010.06.03 15:57:51.
