data_PCOD9515509
_publ_section_title
;
Structure prediction by ZEFSAII (Michael W. Deem and Ramdas Pophale) SiO2 
 PCOD9515509
Probable space group: F D D D
;
_chemical_formula_sum "Si O2"
_cell_formula_units_Z 176
_cell_length_a 27.391381
_cell_length_b 11.132400
_cell_length_c 28.116942
_cell_angle_alpha 90.000000
_cell_angle_beta 90.000000
_cell_angle_gamma 90.000000
_cell_volume 8573.750011
_symmetry_space_group_name_H-M "F D D D"
_symmetry_group_IT_number 70
_space_group.IT_coordinate_system_code '2'
_symmetry_cell_setting 'orthorhombic'
loop_
_space_group_symop_operation_xyz
x,y,z
1/4-x,1/4-y,z
x,1/4-y,1/4-z
1/4-x,y,1/4-z
-x,-y,-z
3/4+x,3/4+y,-z
-x,3/4+y,3/4+z
3/4+x,-y,3/4+z
x,1/2+y,1/2+z
1/4-x,3/4-y,1/2+z
x,3/4-y,3/4-z
1/4-x,1/2+y,3/4-z
-x,1/2-y,1/2-z
3/4+x,1/4+y,1/2-z
-x,1/4+y,1/4+z
3/4+x,1/2-y,1/4+z
1/2+x,y,1/2+z
3/4-x,1/4-y,1/2+z
1/2+x,1/4-y,3/4-z
3/4-x,y,3/4-z
1/2-x,-y,1/2-z
1/4+x,3/4+y,1/2-z
1/2-x,3/4+y,1/4+z
1/4+x,-y,1/4+z
1/2+x,1/2+y,z
3/4-x,3/4-y,z
1/2+x,3/4-y,1/4-z
3/4-x,1/2+y,1/4-z
1/2-x,1/2-y,-z
1/4+x,1/4+y,-z
1/2-x,1/4+y,3/4+z
1/4+x,1/2-y,3/4+z
loop_
_atom_site_type_symbol
_atom_site_label
_atom_site_fract_x
_atom_site_fract_y
_atom_site_fract_z
Si Si1 0.682420 0.494333 0.128060
Si Si2 0.125000 0.625000 0.461846
Si Si3 0.969617 0.914380 0.263836
Si Si4 0.772386 0.546291 0.821451
Si Si5 0.552174 0.310768 0.736069
Si Si6 0.797170 0.724822 0.657529
O O1 0.706469 0.625000 0.125000
O O2 0.625000 0.506567 0.125000
O O3 0.696193 0.410860 0.084468
O O4 0.695180 0.442257 0.179170
O O5 0.096274 0.521952 0.492597
O O6 0.165649 0.570829 0.427052
O O7 0.946388 0.813365 0.298983
O O8 0.982505 0.843450 0.216053
O O9 0.019381 0.933400 0.294603
O O10 0.947660 0.045564 0.252639
O O11 0.744771 0.513248 0.870224
O O12 0.500000 0.250000 0.750000
O O13 0.823898 0.625000 0.625000
#
# Coordination Sequence:
#
# PCOD9515509 Si02
#       6
#    32  16  32  32  32  32
#     4  11  23  37  61  95 130 161 217 273 330 395
#     4  12  24  38  67  98 136 168 227 288 334 418
#     4  10  21  40  67  91 125 177 221 269 337 409
#     4  10  21  41  67  90 128 178 220 268 338 408
#     4  12  23  41  65  96 130 176 219 275 350 408
#     4  10  22  41  64  90 129 173 218 272 336 401
#
# _framework density 20.527773
#
# number of rings (size 3 to 8) (size 9 to 14) (size 15 to 20)
#    0.000    1.273    3.636    2.182    2.545    1.455 
#    0.000    2.727    0.000    0.000    0.000    0.000 
#    0.000    0.000    0.000    0.000    0.000    0.000 
#
# Total GULP energy -245052.034784 kJ/mol
# GULP energy per Si atom -5569.364427 kJ/mol
# Density = 2.048105 g / cm^3
# Si number density = 20.527773 Si / 1000 Ang^3
#
#
#
# Elastic Constant Matrix: (Units=GPa)
#
#
# Indices 1 2 3 4 5 6 
#
# 1 32.2208 24.2500 14.3774 0.0000 0.0000 0.0000
# 2 24.2500 166.7794 32.8130 0.0000 0.0000 0.0000
# 3 14.3774 32.8130 79.9833 0.0000 0.0000 0.0000
# 4 0.0000 0.0000 0.0000 41.1457 0.0000 0.0000
# 5 0.0000 0.0000 0.0000 0.0000 -8.1081 0.0000
# 6 0.0000 0.0000 0.0000 0.0000 0.0000 26.9258
#
#
#
# Elastic Compliance Matrix: (Units=1/GPa)
#
#
# Indices 1 2 3 4 5 6 
#
# 1 0.036443 -0.004362 -0.004761 0.000000 0.000000 0.000000
# 2 -0.004362 0.007045 -0.002106 0.000000 0.000000 0.000000
# 3 -0.004761 -0.002106 0.014222 0.000000 0.000000 0.000000
# 4 0.000000 0.000000 0.000000 0.024304 0.000000 0.000000
# 5 0.000000 0.000000 0.000000 0.000000 -0.123333 0.000000
# 6 0.000000 0.000000 0.000000 0.000000 0.000000 0.037139
#
#
# Mechanical properties :
#
#
# Convention : Reuss Voigt Hill
#
# Bulk Modulus (GPa) = 28.36746 46.87382 37.62064
# Shear Modulus (GPa) = 166.50326 25.82889 96.16608
#
# Velocity S-wave (km/s) = 9.01595 3.55102 6.85190
# Velocity P-wave (km/s) = 11.05586 6.30055 8.99803
#
# Compressibility (1/GPa) = 0.03525166
#
# Stress axis : x y z
#
# Youngs Moduli (GPa) = 27.43976 141.95399 70.31156
#
# Poissons Ratio (x) = 0.61923 0.33478
# Poissons Ratio (y) = 0.11970 0.14807
# Poissons Ratio (z) = 0.13065 0.29894
#
# Static dielectric constant tensor:
#      x y z
#    x 1.722800 0.000000 0.000000 
#    y 0.000000 2.032310 0.000000 
#    z 0.000000 0.000000 1.729120 
# 
# From -- ./inp_files/67773.got.cif
#   From: 2010.05.17/outbox.cif.g08.bks.cpg/sg70_34_cif.got.tgz:67773.got - 2010.06.03 15:57:51.
