data_PCOD9515241
_publ_section_title
;
Structure prediction by ZEFSAII (Michael W. Deem and Ramdas Pophale) SiO2 
 PCOD9515241
Probable space group: F D D D
;
_chemical_formula_sum "Si O2"
_cell_formula_units_Z 144
_cell_length_a 14.073505
_cell_length_b 20.011569
_cell_length_c 23.974814
_cell_angle_alpha 90.000000
_cell_angle_beta 90.000000
_cell_angle_gamma 90.000000
_cell_volume 6752.096786
_symmetry_space_group_name_H-M "F D D D"
_symmetry_group_IT_number 70
_space_group.IT_coordinate_system_code '2'
_symmetry_cell_setting 'orthorhombic'
loop_
_space_group_symop_operation_xyz
x,y,z
1/4-x,1/4-y,z
x,1/4-y,1/4-z
1/4-x,y,1/4-z
-x,-y,-z
3/4+x,3/4+y,-z
-x,3/4+y,3/4+z
3/4+x,-y,3/4+z
x,1/2+y,1/2+z
1/4-x,3/4-y,1/2+z
x,3/4-y,3/4-z
1/4-x,1/2+y,3/4-z
-x,1/2-y,1/2-z
3/4+x,1/4+y,1/2-z
-x,1/4+y,1/4+z
3/4+x,1/2-y,1/4+z
1/2+x,y,1/2+z
3/4-x,1/4-y,1/2+z
1/2+x,1/4-y,3/4-z
3/4-x,y,3/4-z
1/2-x,-y,1/2-z
1/4+x,3/4+y,1/2-z
1/2-x,3/4+y,1/4+z
1/4+x,-y,1/4+z
1/2+x,1/2+y,z
3/4-x,3/4-y,z
1/2+x,3/4-y,1/4-z
3/4-x,1/2+y,1/4-z
1/2-x,1/2-y,-z
1/4+x,1/4+y,-z
1/2-x,1/4+y,3/4+z
1/4+x,1/2-y,3/4+z
loop_
_atom_site_type_symbol
_atom_site_label
_atom_site_fract_x
_atom_site_fract_y
_atom_site_fract_z
Si Si1 0.375000 0.375000 0.736299
Si Si2 0.078685 0.231947 0.897963
Si Si3 0.875000 0.725143 0.375000
Si Si4 0.125000 0.125000 0.804145
Si Si5 0.053869 0.821337 0.241230
Si Si6 0.544538 0.396709 0.935340
O O1 0.427538 0.427298 0.696563
O O2 0.456500 0.342654 0.773917
O O3 0.116371 0.189634 0.844625
O O4 0.147962 0.287007 0.921309
O O5 0.974696 0.261926 0.884859
O O6 0.895547 0.682848 0.319222
O O7 0.218766 0.124616 0.766268
O O8 0.130363 0.843963 0.287223
O O9 0.000000 0.750000 0.250000
O O10 0.507585 0.375000 0.875000
#
# Coordination Sequence:
#
# PCOD9515241 Si02
#       6
#    16  32  16  16  32  32
#     4  11  23  46  67  94 139 180 224 282 330 412
#     4  10  22  42  70  99 130 177 229 275 353 409
#     4  10  20  44  69  92 142 169 220 292 334 414
#     4   9  22  42  66  98 138 168 219 286 344 410
#     4  11  24  43  68  99 135 180 226 283 351 415
#     4  12  25  42  66 101 136 177 230 278 341 410
#
# _framework density 21.326708
#
# number of rings (size 3 to 8) (size 9 to 14) (size 15 to 20)
#    0.000    1.333    2.222    3.667    3.111    1.778 
#    0.000    2.222    0.000    0.000    0.000    0.000 
#    0.000    0.000    0.000    0.000    0.000    0.000 
#
# Total GULP energy -200950.253571 kJ/mol
# GULP energy per Si atom -5581.951488 kJ/mol
# Density = 2.127817 g / cm^3
# Si number density = 21.326708 Si / 1000 Ang^3
#
#
#
# Elastic Constant Matrix: (Units=GPa)
#
#
# Indices 1 2 3 4 5 6 
#
# 1 130.5568 18.7778 20.9491 0.0000 0.0000 0.0000
# 2 18.7778 50.5831 5.3616 0.0000 0.0000 0.0000
# 3 20.9491 5.3616 101.2527 0.0000 0.0000 0.0000
# 4 0.0000 0.0000 0.0000 32.6000 0.0000 0.0000
# 5 0.0000 0.0000 0.0000 0.0000 17.5536 0.0000
# 6 0.0000 0.0000 0.0000 0.0000 0.0000 14.1054
#
#
#
# Elastic Compliance Matrix: (Units=1/GPa)
#
#
# Indices 1 2 3 4 5 6 
#
# 1 0.008332 -0.002927 -0.001569 0.000000 0.000000 0.000000
# 2 -0.002927 0.020909 -0.000502 0.000000 0.000000 0.000000
# 3 -0.001569 -0.000502 0.010227 0.000000 0.000000 0.000000
# 4 0.000000 0.000000 0.000000 0.030675 0.000000 0.000000
# 5 0.000000 0.000000 0.000000 0.000000 0.056968 0.000000
# 6 0.000000 0.000000 0.000000 0.000000 0.000000 0.070895
#
#
# Mechanical properties :
#
#
# Convention : Reuss Voigt Hill
#
# Bulk Modulus (GPa) = 33.92823 41.39663 37.66243
# Shear Modulus (GPa) = 22.95405 28.67207 25.81306
#
# Velocity S-wave (km/s) = 3.28427 3.67061 3.48280
# Velocity P-wave (km/s) = 5.50683 6.11697 5.81991
#
# Compressibility (1/GPa) = 0.02947398
#
# Stress axis : x y z
#
# Youngs Moduli (GPa) = 120.01611 47.82593 97.77606
#
# Poissons Ratio (x) = 0.13998 0.15341
# Poissons Ratio (y) = 0.35127 0.04905
# Poissons Ratio (z) = 0.18830 0.02399
#
# Static dielectric constant tensor:
#      x y z
#    x 1.771210 0.000000 0.000000 
#    y 0.000000 1.778660 0.000000 
#    z 0.000000 0.000000 1.811440 
# 
# From -- ./inp_files/20709.got.cif
#   From: 2010.05.17/outbox.cif.g08.bks.cpg/sg70_11_cif.got.tgz:20709.got - 2010.06.03 15:57:51.
