data_PCOD9515645
_publ_section_title
;
Structure prediction by ZEFSAII (Michael W. Deem and Ramdas Pophale) SiO2 
 PCOD9515645
Probable space group: F D D D
;
_chemical_formula_sum "Si O2"
_cell_formula_units_Z 128
_cell_length_a 17.134481
_cell_length_b 26.446277
_cell_length_c 11.543543
_cell_angle_alpha 90.000000
_cell_angle_beta 90.000000
_cell_angle_gamma 90.000000
_cell_volume 5230.878370
_symmetry_space_group_name_H-M "F D D D"
_symmetry_group_IT_number 70
_space_group.IT_coordinate_system_code '2'
_symmetry_cell_setting 'orthorhombic'
loop_
_space_group_symop_operation_xyz
x,y,z
1/4-x,1/4-y,z
x,1/4-y,1/4-z
1/4-x,y,1/4-z
-x,-y,-z
3/4+x,3/4+y,-z
-x,3/4+y,3/4+z
3/4+x,-y,3/4+z
x,1/2+y,1/2+z
1/4-x,3/4-y,1/2+z
x,3/4-y,3/4-z
1/4-x,1/2+y,3/4-z
-x,1/2-y,1/2-z
3/4+x,1/4+y,1/2-z
-x,1/4+y,1/4+z
3/4+x,1/2-y,1/4+z
1/2+x,y,1/2+z
3/4-x,1/4-y,1/2+z
1/2+x,1/4-y,3/4-z
3/4-x,y,3/4-z
1/2-x,-y,1/2-z
1/4+x,3/4+y,1/2-z
1/2-x,3/4+y,1/4+z
1/4+x,-y,1/4+z
1/2+x,1/2+y,z
3/4-x,3/4-y,z
1/2+x,3/4-y,1/4-z
3/4-x,1/2+y,1/4-z
1/2-x,1/2-y,-z
1/4+x,1/4+y,-z
1/2-x,1/4+y,3/4+z
1/4+x,1/2-y,3/4+z
loop_
_atom_site_type_symbol
_atom_site_label
_atom_site_fract_x
_atom_site_fract_y
_atom_site_fract_z
Si Si1 0.216003 0.841214 0.514424
Si Si2 0.478264 0.941251 0.258654
Si Si3 0.875000 0.242763 0.375000
Si Si4 0.713527 0.027935 0.137415
Si Si5 0.823340 0.125000 0.125000
O O1 0.270032 0.887452 0.555319
O O2 0.248367 0.821094 0.391356
O O3 0.196442 0.794002 0.594130
O O4 0.133215 0.868454 0.482919
O O5 0.397040 0.971142 0.268200
O O6 0.534714 0.982344 0.205357
O O7 0.625000 0.046928 0.125000
O O8 0.771022 0.075271 0.121854
O O9 0.750000 0.000000 0.250000
#
# Coordination Sequence:
#
# PCOD9515645 Si02
#       5
#    32  32  16  32  16
#     4  10  23  43  68 101 141 183 244 292 364 437
#     4  10  24  42  67 102 137 182 240 297 357 434
#     4  12  22  43  74  96 140 189 234 298 366 428
#     4  12  25  42  70 100 142 186 240 293 362 436
#     4  10  21  44  62  99 136 180 232 290 348 439
#
# _framework density 24.470078000000001
#
# number of rings (size 3 to 8) (size 9 to 14) (size 15 to 20)
#    0.000    1.500    2.500    4.125    5.250    2.000 
#    0.000    0.000    5.500    0.000    0.000    0.000 
#    0.000    0.000    0.000    0.000    0.000    0.000 
#
# Total GULP energy -178690.732982 kJ/mol
# GULP energy per Si atom -5584.085406 kJ/mol
# Density = 2.441438 g / cm^3
# Si number density = 24.470078 Si / 1000 Ang^3
#
#
#
# Elastic Constant Matrix: (Units=GPa)
#
#
# Indices 1 2 3 4 5 6 
#
# 1 83.0974 39.5513 9.9186 0.0000 0.0000 0.0000
# 2 39.5513 196.1255 29.4549 0.0000 0.0000 0.0000
# 3 9.9186 29.4549 32.9094 0.0000 0.0000 0.0000
# 4 0.0000 0.0000 0.0000 28.0764 0.0000 0.0000
# 5 0.0000 0.0000 0.0000 0.0000 23.9046 0.0000
# 6 0.0000 0.0000 0.0000 0.0000 0.0000 27.5350
#
#
#
# Elastic Compliance Matrix: (Units=1/GPa)
#
#
# Indices 1 2 3 4 5 6 
#
# 1 0.013411 -0.002423 -0.001873 0.000000 0.000000 0.000000
# 2 -0.002423 0.006328 -0.004934 0.000000 0.000000 0.000000
# 3 -0.001873 -0.004934 0.035367 0.000000 0.000000 0.000000
# 4 0.000000 0.000000 0.000000 0.035617 0.000000 0.000000
# 5 0.000000 0.000000 0.000000 0.000000 0.041833 0.000000
# 6 0.000000 0.000000 0.000000 0.000000 0.000000 0.036317
#
#
# Mechanical properties :
#
#
# Convention : Reuss Voigt Hill
#
# Bulk Modulus (GPa) = 27.28805 52.22022 39.75413
# Shear Modulus (GPa) = 25.05645 31.45036 28.25340
#
# Velocity S-wave (km/s) = 3.20341 3.58894 3.40164
# Velocity P-wave (km/s) = 4.98581 6.20973 5.63112
#
# Compressibility (1/GPa) = 0.03664608
#
# Stress axis : x y z
#
# Youngs Moduli (GPa) = 74.56559 158.01732 28.27502
#
# Poissons Ratio (x) = 0.38291 0.05296
# Poissons Ratio (y) = 0.18069 0.13950
# Poissons Ratio (z) = 0.13967 0.77962
#
# Static dielectric constant tensor:
#      x y z
#    x 2.064290 0.000000 0.000000 
#    y 0.000000 1.959440 0.000000 
#    z 0.000000 0.000000 2.034880 
# 
# From -- ./inp_files/26394.got.cif
#   From: 2010.05.17/outbox.cif.g08.bks.cpg/sg70_14_cif.got.tgz:26394.got - 2010.06.03 15:57:51.
