data_PCOD9515881
_publ_section_title
;
Structure prediction by ZEFSAII (Michael W. Deem and Ramdas Pophale) SiO2 
 PCOD9515881
Probable space group: F D D D
;
_chemical_formula_sum "Si O2"
_cell_formula_units_Z 144
_cell_length_a 9.497323
_cell_length_b 26.577797
_cell_length_c 24.351079
_cell_angle_alpha 90.000000
_cell_angle_beta 90.000000
_cell_angle_gamma 90.000000
_cell_volume 6146.648778
_symmetry_space_group_name_H-M "F D D D"
_symmetry_group_IT_number 70
_space_group.IT_coordinate_system_code '2'
_symmetry_cell_setting 'orthorhombic'
loop_
_space_group_symop_operation_xyz
x,y,z
1/4-x,1/4-y,z
x,1/4-y,1/4-z
1/4-x,y,1/4-z
-x,-y,-z
3/4+x,3/4+y,-z
-x,3/4+y,3/4+z
3/4+x,-y,3/4+z
x,1/2+y,1/2+z
1/4-x,3/4-y,1/2+z
x,3/4-y,3/4-z
1/4-x,1/2+y,3/4-z
-x,1/2-y,1/2-z
3/4+x,1/4+y,1/2-z
-x,1/4+y,1/4+z
3/4+x,1/2-y,1/4+z
1/2+x,y,1/2+z
3/4-x,1/4-y,1/2+z
1/2+x,1/4-y,3/4-z
3/4-x,y,3/4-z
1/2-x,-y,1/2-z
1/4+x,3/4+y,1/2-z
1/2-x,3/4+y,1/4+z
1/4+x,-y,1/4+z
1/2+x,1/2+y,z
3/4-x,3/4-y,z
1/2+x,3/4-y,1/4-z
3/4-x,1/2+y,1/4-z
1/2-x,1/2-y,-z
1/4+x,1/4+y,-z
1/2-x,1/4+y,3/4+z
1/4+x,1/2-y,3/4+z
loop_
_atom_site_type_symbol
_atom_site_label
_atom_site_fract_x
_atom_site_fract_y
_atom_site_fract_z
Si Si1 0.688004 0.525779 0.345012
Si Si2 0.125000 0.625000 0.044617
Si Si3 0.496478 0.164647 0.471292
Si Si4 0.099829 0.422817 0.342992
Si Si5 0.703491 0.921285 0.550870
O O1 0.546980 0.538417 0.313119
O O2 0.679118 0.470600 0.369498
O O3 0.704066 0.563648 0.396873
O O4 0.823421 0.538836 0.306339
O O5 0.209317 0.585558 0.005097
O O6 0.239070 0.657189 0.078420
O O7 0.625000 0.125000 0.471191
O O8 0.466736 0.179688 0.533391
O O9 0.367982 0.133692 0.445494
O O10 0.040389 0.375000 0.375000
#
# Coordination Sequence:
#
# PCOD9515881 Si02
#       5
#    32  16  32  32  32
#     4  10  22  41  75 103 139 188 240 297 362 426
#     4  10  23  46  72 100 148 186 243 298 364 426
#     4   9  21  42  69 105 139 183 239 293 360 433
#     4  11  25  46  71  98 145 194 235 297 357 435
#     4   9  21  40  70 103 139 182 234 304 358 422
#
# _framework density 23.427399999999999
#
# number of rings (size 3 to 8) (size 9 to 14) (size 15 to 20)
#    0.000    2.222    0.000    0.333    7.778    8.444 
#    0.000   17.778    4.889    0.000    0.000    0.000 
#    0.000    0.000    0.000    0.000    0.000    0.000 
#
# Total GULP energy -201284.247733 kJ/mol
# GULP energy per Si atom -5591.229104 kJ/mol
# Density = 2.337408 g / cm^3
# Si number density = 23.427400 Si / 1000 Ang^3
#
#
#
# Elastic Constant Matrix: (Units=GPa)
#
#
# Indices 1 2 3 4 5 6 
#
# 1 77.5552 45.6624 41.2567 0.0000 0.0000 0.0000
# 2 45.6624 167.5733 97.8470 0.0000 0.0000 0.0000
# 3 41.2567 97.8470 105.3326 0.0000 0.0000 0.0000
# 4 0.0000 0.0000 0.0000 35.5398 0.0000 0.0000
# 5 0.0000 0.0000 0.0000 0.0000 67.3584 0.0000
# 6 0.0000 0.0000 0.0000 0.0000 0.0000 17.0922
#
#
#
# Elastic Compliance Matrix: (Units=1/GPa)
#
#
# Indices 1 2 3 4 5 6 
#
# 1 0.016476 -0.001577 -0.004989 0.000000 0.000000 0.000000
# 2 -0.001577 0.013192 -0.011637 0.000000 0.000000 0.000000
# 3 -0.004989 -0.011637 0.022258 0.000000 0.000000 0.000000
# 4 0.000000 0.000000 0.000000 0.028137 0.000000 0.000000
# 5 0.000000 0.000000 0.000000 0.000000 0.014846 0.000000
# 6 0.000000 0.000000 0.000000 0.000000 0.000000 0.058506
#
#
# Mechanical properties :
#
#
# Convention : Reuss Voigt Hill
#
# Bulk Modulus (GPa) = 64.42837 79.99925 72.21381
# Shear Modulus (GPa) = 25.64176 35.04441 30.34309
#
# Velocity S-wave (km/s) = 3.31194 3.87185 3.60279
# Velocity P-wave (km/s) = 6.49510 7.36275 6.94249
#
# Compressibility (1/GPa) = 0.01552111
#
# Stress axis : x y z
#
# Youngs Moduli (GPa) = 60.69360 75.80304 44.92812
#
# Poissons Ratio (x) = 0.11951 0.22414
# Poissons Ratio (y) = 0.09569 0.52283
# Poissons Ratio (z) = 0.30279 0.88212
#
# Static dielectric constant tensor:
#      x y z
#    x 1.960960 0.000000 0.000000 
#    y 0.000000 1.838820 0.000000 
#    z 0.000000 0.000000 1.876950 
# 
# From -- ./inp_files/57395.got.cif
#   From: 2010.05.17/outbox.cif.g08.bks.cpg/sg70_29_cif.got.tgz:57395.got - 2010.06.03 15:57:51.
