data_PCOD9515945
_publ_section_title
;
Structure prediction by ZEFSAII (Michael W. Deem and Ramdas Pophale) SiO2 
 PCOD9515945
Probable space group: F D D D
;
_chemical_formula_sum "Si O2"
_cell_formula_units_Z 200
_cell_length_a 24.950804
_cell_length_b 19.280766
_cell_length_c 19.490429
_cell_angle_alpha 90.000000
_cell_angle_beta 90.000000
_cell_angle_gamma 90.000000
_cell_volume 9376.272635
_symmetry_space_group_name_H-M "F D D D"
_symmetry_group_IT_number 70
_space_group.IT_coordinate_system_code '2'
_symmetry_cell_setting 'orthorhombic'
loop_
_space_group_symop_operation_xyz
x,y,z
1/4-x,1/4-y,z
x,1/4-y,1/4-z
1/4-x,y,1/4-z
-x,-y,-z
3/4+x,3/4+y,-z
-x,3/4+y,3/4+z
3/4+x,-y,3/4+z
x,1/2+y,1/2+z
1/4-x,3/4-y,1/2+z
x,3/4-y,3/4-z
1/4-x,1/2+y,3/4-z
-x,1/2-y,1/2-z
3/4+x,1/4+y,1/2-z
-x,1/4+y,1/4+z
3/4+x,1/2-y,1/4+z
1/2+x,y,1/2+z
3/4-x,1/4-y,1/2+z
1/2+x,1/4-y,3/4-z
3/4-x,y,3/4-z
1/2-x,-y,1/2-z
1/4+x,3/4+y,1/2-z
1/2-x,3/4+y,1/4+z
1/4+x,-y,1/4+z
1/2+x,1/2+y,z
3/4-x,3/4-y,z
1/2+x,3/4-y,1/4-z
3/4-x,1/2+y,1/4-z
1/2-x,1/2-y,-z
1/4+x,1/4+y,-z
1/2-x,1/4+y,3/4+z
1/4+x,1/2-y,3/4+z
loop_
_atom_site_type_symbol
_atom_site_label
_atom_site_fract_x
_atom_site_fract_y
_atom_site_fract_z
Si Si1 0.918217 0.510397 0.815307
Si Si2 0.213361 0.295832 0.350189
Si Si3 0.525002 0.984784 0.393814
Si Si4 0.771982 0.643343 0.976885
Si Si5 0.375000 0.875000 0.375000
Si Si6 0.122469 0.542656 0.921565
Si Si7 0.552907 0.038753 0.727624
O O1 0.875000 0.506198 0.875000
O O2 0.933184 0.590308 0.797996
O O3 0.892936 0.476950 0.747335
O O4 0.974022 0.473536 0.838327
O O5 0.207315 0.375000 0.375000
O O6 0.183657 0.244716 0.403853
O O7 0.186404 0.276890 0.275902
O O8 0.527653 0.919930 0.445120
O O9 0.498940 0.974999 0.319545
O O10 0.485620 0.039416 0.430656
O O11 0.584282 0.012275 0.381897
O O12 0.716380 0.600549 0.972562
O O13 0.405820 0.927292 0.324412
O O14 0.125000 0.625000 0.915216
#
# Coordination Sequence:
#
# PCOD9515945 Si02
#       7
#    32  32  32  32   8  32  32
#     4  11  27  49  75 101 146 193 253 312 370 441
#     4  11  28  48  74 109 149 194 256 310 368 456
#     4  11  22  43  74 101 149 188 232 304 383 452
#     4  10  22  43  68 109 140 186 235 295 370 460
#     4  12  24  40  72 116 152 196 232 312 386 464
#     4  12  27  46  75 104 144 198 246 308 376 440
#     4  11  23  44  70 106 150 185 242 300 373 452
#
# _framework density 21.330438000000001
#
# number of rings (size 3 to 8) (size 9 to 14) (size 15 to 20)
#    0.000    0.960    4.800    1.920    7.840    1.920 
#    1.440    0.000    0.000    0.000    0.000    0.000 
#    0.000    0.000    0.000    0.000    0.000    0.000 
#
# Total GULP energy -279237.932312 kJ/mol
# GULP energy per Si atom -5584.758646 kJ/mol
# Density = 2.128189 g / cm^3
# Si number density = 21.330438 Si / 1000 Ang^3
#
#
#
# Elastic Constant Matrix: (Units=GPa)
#
#
# Indices 1 2 3 4 5 6 
#
# 1 99.0262 45.3375 61.0598 0.0000 0.0000 0.0000
# 2 45.3375 150.2742 74.0265 0.0000 0.0000 0.0000
# 3 61.0598 74.0265 118.9577 0.0000 0.0000 0.0000
# 4 0.0000 0.0000 0.0000 40.9539 0.0000 0.0000
# 5 0.0000 0.0000 0.0000 0.0000 19.5610 0.0000
# 6 0.0000 0.0000 0.0000 0.0000 0.0000 24.5083
#
#
#
# Elastic Compliance Matrix: (Units=1/GPa)
#
#
# Indices 1 2 3 4 5 6 
#
# 1 0.014888 -0.001049 -0.006989 0.000000 0.000000 0.000000
# 2 -0.001049 0.009670 -0.005479 0.000000 0.000000 0.000000
# 3 -0.006989 -0.005479 0.015404 0.000000 0.000000 0.000000
# 4 0.000000 0.000000 0.000000 0.024418 0.000000 0.000000
# 5 0.000000 0.000000 0.000000 0.000000 0.051122 0.000000
# 6 0.000000 0.000000 0.000000 0.000000 0.000000 0.040803
#
#
# Mechanical properties :
#
#
# Convention : Reuss Voigt Hill
#
# Bulk Modulus (GPa) = 77.35675 81.01173 79.18424
# Shear Modulus (GPa) = 26.64567 29.52693 28.08630
#
# Velocity S-wave (km/s) = 3.53822 3.72460 3.63261
# Velocity P-wave (km/s) = 7.28262 7.52056 7.40255
#
# Compressibility (1/GPa) = 0.01292712
#
# Stress axis : x y z
#
# Youngs Moduli (GPa) = 67.16776 103.41201 64.91986
#
# Poissons Ratio (x) = 0.10845 0.45374
# Poissons Ratio (y) = 0.07044 0.35572
# Poissons Ratio (z) = 0.46945 0.56663
#
# Static dielectric constant tensor:
#      x y z
#    x 1.791190 0.000000 0.000000 
#    y 0.000000 1.794740 0.000000 
#    z 0.000000 0.000000 1.828120 
# 
# From -- ./inp_files/46949.got.cif
#   From: 2010.05.17/outbox.cif.g08.bks.cpg/sg70_24_cif.got.tgz:46949.got - 2010.06.03 15:57:51.
