data_PCOD9515253
_publ_section_title
;
Structure prediction by ZEFSAII (Michael W. Deem and Ramdas Pophale) SiO2 
 PCOD9515253
Probable space group: F D D D
;
_chemical_formula_sum "Si O2"
_cell_formula_units_Z 176
_cell_length_a 21.825828
_cell_length_b 14.237046
_cell_length_c 27.917241
_cell_angle_alpha 90.000000
_cell_angle_beta 90.000000
_cell_angle_gamma 90.000000
_cell_volume 8674.872738
_symmetry_space_group_name_H-M "F D D D"
_symmetry_group_IT_number 70
_space_group.IT_coordinate_system_code '2'
_symmetry_cell_setting 'orthorhombic'
loop_
_space_group_symop_operation_xyz
x,y,z
1/4-x,1/4-y,z
x,1/4-y,1/4-z
1/4-x,y,1/4-z
-x,-y,-z
3/4+x,3/4+y,-z
-x,3/4+y,3/4+z
3/4+x,-y,3/4+z
x,1/2+y,1/2+z
1/4-x,3/4-y,1/2+z
x,3/4-y,3/4-z
1/4-x,1/2+y,3/4-z
-x,1/2-y,1/2-z
3/4+x,1/4+y,1/2-z
-x,1/4+y,1/4+z
3/4+x,1/2-y,1/4+z
1/2+x,y,1/2+z
3/4-x,1/4-y,1/2+z
1/2+x,1/4-y,3/4-z
3/4-x,y,3/4-z
1/2-x,-y,1/2-z
1/4+x,3/4+y,1/2-z
1/2-x,3/4+y,1/4+z
1/4+x,-y,1/4+z
1/2+x,1/2+y,z
3/4-x,3/4-y,z
1/2+x,3/4-y,1/4-z
3/4-x,1/2+y,1/4-z
1/2-x,1/2-y,-z
1/4+x,1/4+y,-z
1/2-x,1/4+y,3/4+z
1/4+x,1/2-y,3/4+z
loop_
_atom_site_type_symbol
_atom_site_label
_atom_site_fract_x
_atom_site_fract_y
_atom_site_fract_z
Si Si1 0.375000 0.875000 0.956684
Si Si2 0.599156 0.332207 0.047890
Si Si3 0.721619 0.891790 0.143536
Si Si4 0.010453 0.834699 0.324685
Si Si5 0.587651 0.221941 0.883155
Si Si6 0.369087 0.103837 0.202114
O O1 0.386225 0.769970 0.976152
O O2 0.310665 0.860080 0.930018
O O3 0.548989 0.324295 0.090176
O O4 0.659593 0.367925 0.076001
O O5 0.585209 0.397507 0.002902
O O6 0.766134 0.804386 0.137418
O O7 0.759719 0.972854 0.171058
O O8 0.032816 0.875000 0.375000
O O9 0.057790 0.880295 0.287836
O O10 0.625000 0.125000 0.890396
O O11 0.605080 0.265453 0.831487
O O12 0.601802 0.303502 0.921373
#
# Coordination Sequence:
#
# PCOD9515253 Si02
#       6
#    16  32  32  32  32  32
#     4  10  21  30  62  90 126 154 188 246 324 373
#     4  10  23  37  60  97 121 161 204 255 309 377
#     4  10  21  39  62  83 131 162 197 246 319 367
#     4  11  17  35  57  89 119 157 189 242 306 383
#     4  11  22  42  61  85 123 168 199 255 309 356
#     4  11  24  38  63  94 122 157 216 252 303 370
#
# _framework density 20.288482999999999
#
# number of rings (size 3 to 8) (size 9 to 14) (size 15 to 20)
#    0.000    1.455    5.455    0.273    1.273    5.091 
#    0.000    0.000    0.000    4.364    0.000    0.000 
#    0.000    0.000    0.000    0.000    0.000    0.000 
#
# Total GULP energy -245074.051064 kJ/mol
# GULP energy per Si atom -5569.864797 kJ/mol
# Density = 2.024231 g / cm^3
# Si number density = 20.288483 Si / 1000 Ang^3
#
#
#
# Elastic Constant Matrix: (Units=GPa)
#
#
# Indices 1 2 3 4 5 6 
#
# 1 76.2697 30.7233 -5.1522 0.0000 0.0000 0.0000
# 2 30.7233 61.7884 3.1447 0.0000 0.0000 0.0000
# 3 -5.1522 3.1447 59.8982 0.0000 0.0000 0.0000
# 4 0.0000 0.0000 0.0000 18.7923 0.0000 0.0000
# 5 0.0000 0.0000 0.0000 0.0000 -4.2848 0.0000
# 6 0.0000 0.0000 0.0000 0.0000 0.0000 23.0205
#
#
#
# Elastic Compliance Matrix: (Units=1/GPa)
#
#
# Indices 1 2 3 4 5 6 
#
# 1 0.016601 -0.008349 0.001866 0.000000 0.000000 0.000000
# 2 -0.008349 0.020427 -0.001791 0.000000 0.000000 0.000000
# 3 0.001866 -0.001791 0.016950 0.000000 0.000000 0.000000
# 4 0.000000 0.000000 0.000000 0.053213 0.000000 0.000000
# 5 0.000000 0.000000 0.000000 0.000000 -0.233382 0.000000
# 6 0.000000 0.000000 0.000000 0.000000 0.000000 0.043440
#
#
# Mechanical properties :
#
#
# Convention : Reuss Voigt Hill
#
# Bulk Modulus (GPa) = 26.71670 28.37643 27.54657
# Shear Modulus (GPa) = -93.06295 18.78829 -37.13733
#
# Velocity S-wave (km/s) = -6.78008 3.04642 -4.28303
# Velocity P-wave (km/s) = 6.93510 5.13722 3.29428
#
# Compressibility (1/GPa) = 0.03742977
#
# Stress axis : x y z
#
# Youngs Moduli (GPa) = 60.23795 48.95466 58.99872
#
# Poissons Ratio (x) = 0.40875 -0.11011
# Poissons Ratio (y) = 0.50296 0.10564
# Poissons Ratio (z) = -0.11242 0.08766
#
# Static dielectric constant tensor:
#      x y z
#    x 1.771620 0.000000 0.000000 
#    y 0.000000 1.724180 0.000000 
#    z 0.000000 0.000000 1.736600 
# 
# From -- ./inp_files/67904.got.cif
#   From: 2010.05.17/outbox.cif.g08.bks.cpg/sg70_34_cif.got.tgz:67904.got - 2010.06.03 15:57:51.
