data_PCOD9515706
_publ_section_title
;
Structure prediction by ZEFSAII (Michael W. Deem and Ramdas Pophale) SiO2 
 PCOD9515706
Probable space group: F D D D
;
_chemical_formula_sum "Si O2"
_cell_formula_units_Z 120
_cell_length_a 26.912681
_cell_length_b 9.690977
_cell_length_c 17.002554
_cell_angle_alpha 90.000000
_cell_angle_beta 90.000000
_cell_angle_gamma 90.000000
_cell_volume 4434.439043
_symmetry_space_group_name_H-M "F D D D"
_symmetry_group_IT_number 70
_space_group.IT_coordinate_system_code '2'
_symmetry_cell_setting 'orthorhombic'
loop_
_space_group_symop_operation_xyz
x,y,z
1/4-x,1/4-y,z
x,1/4-y,1/4-z
1/4-x,y,1/4-z
-x,-y,-z
3/4+x,3/4+y,-z
-x,3/4+y,3/4+z
3/4+x,-y,3/4+z
x,1/2+y,1/2+z
1/4-x,3/4-y,1/2+z
x,3/4-y,3/4-z
1/4-x,1/2+y,3/4-z
-x,1/2-y,1/2-z
3/4+x,1/4+y,1/2-z
-x,1/4+y,1/4+z
3/4+x,1/2-y,1/4+z
1/2+x,y,1/2+z
3/4-x,1/4-y,1/2+z
1/2+x,1/4-y,3/4-z
3/4-x,y,3/4-z
1/2-x,-y,1/2-z
1/4+x,3/4+y,1/2-z
1/2-x,3/4+y,1/4+z
1/4+x,-y,1/4+z
1/2+x,1/2+y,z
3/4-x,3/4-y,z
1/2+x,3/4-y,1/4-z
3/4-x,1/2+y,1/4-z
1/2-x,1/2-y,-z
1/4+x,1/4+y,-z
1/2-x,1/4+y,3/4+z
1/4+x,1/2-y,3/4+z
loop_
_atom_site_type_symbol
_atom_site_label
_atom_site_fract_x
_atom_site_fract_y
_atom_site_fract_z
Si Si1 0.025801 0.792268 0.054250
Si Si2 0.305265 0.012309 0.177679
Si Si3 0.625000 0.125000 0.625000
Si Si4 0.051532 0.397411 0.711730
Si Si5 0.101595 0.375000 0.875000
O O1 0.048357 0.784208 0.141395
O O2 0.058693 0.907110 0.009801
O O3 0.973786 0.873190 0.067250
O O4 0.005360 0.681707 0.991851
O O5 0.275468 0.125000 0.125000
O O6 0.358454 0.005481 0.140405
O O7 0.587087 0.023714 0.676570
O O8 0.073955 0.348585 0.794293
#
# Coordination Sequence:
#
# PCOD9515706 Si02
#       5
#    32  32   8  32  16
#     4  11  20  35  60  82 114 152 192 226 288 342
#     4   9  18  36  54  84 116 143 177 246 288 318
#     4  12  24  34  64  96 104 140 196 248 292 322
#     4  12  23  37  58  86 116 151 190 234 280 345
#     4  10  22  37  52  80 124 152 184 232 290 329
#
# _framework density 27.060918999999998
#
# number of rings (size 3 to 8) (size 9 to 14) (size 15 to 20)
#    0.800    0.533    2.667    6.400    0.000    1.067 
#    0.000    0.000    0.000    0.000    0.000    0.000 
#    0.000    0.000    0.000    0.000    0.000    0.000 
#
# Total GULP energy -167165.759842 kJ/mol
# GULP energy per Si atom -5572.191995 kJ/mol
# Density = 2.699933 g / cm^3
# Si number density = 27.060919 Si / 1000 Ang^3
#
#
#
# Elastic Constant Matrix: (Units=GPa)
#
#
# Indices 1 2 3 4 5 6 
#
# 1 95.1556 26.5965 46.4956 0.0000 0.0000 0.0000
# 2 26.5965 68.0337 26.3465 0.0000 0.0000 0.0000
# 3 46.4956 26.3465 228.0798 0.0000 0.0000 0.0000
# 4 0.0000 0.0000 0.0000 26.4916 0.0000 0.0000
# 5 0.0000 0.0000 0.0000 0.0000 -8.2869 0.0000
# 6 0.0000 0.0000 0.0000 0.0000 0.0000 187.9481
#
#
#
# Elastic Compliance Matrix: (Units=1/GPa)
#
#
# Indices 1 2 3 4 5 6 
#
# 1 0.012699 -0.004148 -0.002110 0.000000 0.000000 0.000000
# 2 -0.004148 0.016741 -0.001088 0.000000 0.000000 0.000000
# 3 -0.002110 -0.001088 0.004940 0.000000 0.000000 0.000000
# 4 0.000000 0.000000 0.000000 0.037748 0.000000 0.000000
# 5 0.000000 0.000000 0.000000 0.000000 -0.120673 0.000000
# 6 0.000000 0.000000 0.000000 0.000000 0.000000 0.005321
#
#
# Mechanical properties :
#
#
# Convention : Reuss Voigt Hill
#
# Bulk Modulus (GPa) = 50.78802 65.57180 58.17991
# Shear Modulus (GPa) = -227.59733 60.68593 -83.45570
#
# Velocity S-wave (km/s) = -9.18086 4.74071 -5.55940
# Velocity P-wave (km/s) = 9.67344 7.36543 4.43429
#
# Compressibility (1/GPa) = 0.01968968
#
# Stress axis : x y z
#
# Youngs Moduli (GPa) = 78.74492 59.73191 202.41956
#
# Poissons Ratio (x) = 0.24774 0.42705
# Poissons Ratio (y) = 0.32660 0.22031
# Poissons Ratio (z) = 0.16613 0.06501
#
# Static dielectric constant tensor:
#      x y z
#    x 2.153020 0.000000 0.000000 
#    y 0.000000 2.508380 0.000000 
#    z 0.000000 0.000000 2.219030 
# 
# From -- ./inp_files/30686.got.cif
#   From: 2010.05.17/outbox.cif.g08.bks.cpg/sg70_16_cif.got.tgz:30686.got - 2010.06.03 15:57:51.
