data_PCOD9515534
_publ_section_title
;
Structure prediction by ZEFSAII (Michael W. Deem and Ramdas Pophale) SiO2 
 PCOD9515534
Probable space group: F D D D
;
_chemical_formula_sum "Si O2"
_cell_formula_units_Z 208
_cell_length_a 20.799257
_cell_length_b 28.576460
_cell_length_c 16.783634
_cell_angle_alpha 90.000000
_cell_angle_beta 90.000000
_cell_angle_gamma 90.000000
_cell_volume 9975.674034
_symmetry_space_group_name_H-M "F D D D"
_symmetry_group_IT_number 70
_space_group.IT_coordinate_system_code '2'
_symmetry_cell_setting 'orthorhombic'
loop_
_space_group_symop_operation_xyz
x,y,z
1/4-x,1/4-y,z
x,1/4-y,1/4-z
1/4-x,y,1/4-z
-x,-y,-z
3/4+x,3/4+y,-z
-x,3/4+y,3/4+z
3/4+x,-y,3/4+z
x,1/2+y,1/2+z
1/4-x,3/4-y,1/2+z
x,3/4-y,3/4-z
1/4-x,1/2+y,3/4-z
-x,1/2-y,1/2-z
3/4+x,1/4+y,1/2-z
-x,1/4+y,1/4+z
3/4+x,1/2-y,1/4+z
1/2+x,y,1/2+z
3/4-x,1/4-y,1/2+z
1/2+x,1/4-y,3/4-z
3/4-x,y,3/4-z
1/2-x,-y,1/2-z
1/4+x,3/4+y,1/2-z
1/2-x,3/4+y,1/4+z
1/4+x,-y,1/4+z
1/2+x,1/2+y,z
3/4-x,3/4-y,z
1/2+x,3/4-y,1/4-z
3/4-x,1/2+y,1/4-z
1/2-x,1/2-y,-z
1/4+x,1/4+y,-z
1/2-x,1/4+y,3/4+z
1/4+x,1/2-y,3/4+z
loop_
_atom_site_type_symbol
_atom_site_label
_atom_site_fract_x
_atom_site_fract_y
_atom_site_fract_z
Si Si1 0.625000 0.197841 0.625000
Si Si2 0.936561 0.266011 0.541156
Si Si3 0.981922 0.375000 0.375000
Si Si4 0.982930 0.678052 0.974575
Si Si5 0.371875 0.976702 0.042211
Si Si6 0.063436 0.321344 0.505807
Si Si7 0.625000 0.856024 0.125000
Si Si8 0.560868 0.148106 0.213242
O O1 0.653849 0.222787 0.704600
O O2 0.682989 0.164767 0.593169
O O3 0.949731 0.210175 0.541472
O O4 0.896293 0.279859 0.618095
O O5 0.004092 0.293723 0.547409
O O6 0.027477 0.349266 0.436609
O O7 0.934484 0.675765 0.901684
O O8 0.050530 0.704138 0.961653
O O9 0.999547 0.624491 0.995536
O O10 0.361807 0.031026 0.022728
O O11 0.421269 0.951864 0.979289
O O12 0.099624 0.359655 0.557145
O O13 0.625000 0.125000 0.251105
O O14 0.558433 0.125000 0.125000
#
# Coordination Sequence:
#
# PCOD9515534 Si02
#       8
#    16  32  16  32  32  32  16  32
#     4   9  19  38  65  92 120 170 212 265 324 392
#     4  10  21  41  63  92 124 162 218 267 319 390
#     4   9  20  40  60  92 126 166 209 264 330 376
#     4  10  23  39  58  95 122 163 213 255 317 394
#     4  10  22  41  67  93 124 168 216 268 326 383
#     4  10  24  40  60  93 129 166 215 264 325 391
#     4  12  25  40  59  88 131 169 204 265 326 383
#     4   9  19  39  65  91 119 162 212 265 317 380
#
# _framework density 20.850722000000001
#
# number of rings (size 3 to 8) (size 9 to 14) (size 15 to 20)
#    0.000    2.154    0.000    1.385    4.308    4.923 
#    5.538    6.923    0.000    0.000    0.000    0.000 
#    0.000    0.000    0.000    0.000    0.000    0.000 
#
# Total GULP energy -289637.253254 kJ/mol
# GULP energy per Si atom -5569.947178 kJ/mol
# Density = 2.080326 g / cm^3
# Si number density = 20.850722 Si / 1000 Ang^3
#
#
#
# Elastic Constant Matrix: (Units=GPa)
#
#
# Indices 1 2 3 4 5 6 
#
# 1 54.5818 31.9269 30.3743 0.0000 0.0000 0.0000
# 2 31.9269 98.3484 29.5253 0.0000 0.0000 0.0000
# 3 30.3743 29.5253 62.6787 0.0000 0.0000 0.0000
# 4 0.0000 0.0000 0.0000 19.0433 0.0000 0.0000
# 5 0.0000 0.0000 0.0000 0.0000 16.8614 0.0000
# 6 0.0000 0.0000 0.0000 0.0000 0.0000 16.0622
#
#
#
# Elastic Compliance Matrix: (Units=1/GPa)
#
#
# Indices 1 2 3 4 5 6 
#
# 1 0.027635 -0.005766 -0.010676 0.000000 0.000000 0.000000
# 2 -0.005766 0.013046 -0.003351 0.000000 0.000000 0.000000
# 3 -0.010676 -0.003351 0.022706 0.000000 0.000000 0.000000
# 4 0.000000 0.000000 0.000000 0.052512 0.000000 0.000000
# 5 0.000000 0.000000 0.000000 0.000000 0.059307 0.000000
# 6 0.000000 0.000000 0.000000 0.000000 0.000000 0.062258
#
#
# Mechanical properties :
#
#
# Convention : Reuss Voigt Hill
#
# Bulk Modulus (GPa) = 42.01464 44.36245 43.18854
# Shear Modulus (GPa) = 17.54485 18.64553 18.09519
#
# Velocity S-wave (km/s) = 2.90392 2.99363 2.94912
# Velocity P-wave (km/s) = 5.60693 5.76814 5.68811
#
# Compressibility (1/GPa) = 0.02380123
#
# Stress axis : x y z
#
# Youngs Moduli (GPa) = 36.18612 76.65287 44.04042
#
# Poissons Ratio (x) = 0.44199 0.47016
# Poissons Ratio (y) = 0.20865 0.14758
# Poissons Ratio (z) = 0.38631 0.25687
#
# Static dielectric constant tensor:
#      x y z
#    x 1.822290 0.000000 0.000000 
#    y 0.000000 1.813510 0.000000 
#    z 0.000000 0.000000 1.838500 
# 
# From -- ./inp_files/36767.got.cif
#   From: 2010.05.17/outbox.cif.g08.bks.cpg/sg70_19_cif.got.tgz:36767.got - 2010.06.03 15:57:51.
