data_PCOD9515340
_publ_section_title
;
Structure prediction by ZEFSAII (Michael W. Deem and Ramdas Pophale) SiO2 
 PCOD9515340
Probable space group: F D D D
;
_chemical_formula_sum "Si O2"
_cell_formula_units_Z 128
_cell_length_a 9.388098
_cell_length_b 25.450273
_cell_length_c 29.361908
_cell_angle_alpha 90.000000
_cell_angle_beta 90.000000
_cell_angle_gamma 90.000000
_cell_volume 7015.430609
_symmetry_space_group_name_H-M "F D D D"
_symmetry_group_IT_number 70
_space_group.IT_coordinate_system_code '2'
_symmetry_cell_setting 'orthorhombic'
loop_
_space_group_symop_operation_xyz
x,y,z
1/4-x,1/4-y,z
x,1/4-y,1/4-z
1/4-x,y,1/4-z
-x,-y,-z
3/4+x,3/4+y,-z
-x,3/4+y,3/4+z
3/4+x,-y,3/4+z
x,1/2+y,1/2+z
1/4-x,3/4-y,1/2+z
x,3/4-y,3/4-z
1/4-x,1/2+y,3/4-z
-x,1/2-y,1/2-z
3/4+x,1/4+y,1/2-z
-x,1/4+y,1/4+z
3/4+x,1/2-y,1/4+z
1/2+x,y,1/2+z
3/4-x,1/4-y,1/2+z
1/2+x,1/4-y,3/4-z
3/4-x,y,3/4-z
1/2-x,-y,1/2-z
1/4+x,3/4+y,1/2-z
1/2-x,3/4+y,1/4+z
1/4+x,-y,1/4+z
1/2+x,1/2+y,z
3/4-x,3/4-y,z
1/2+x,3/4-y,1/4-z
3/4-x,1/2+y,1/4-z
1/2-x,1/2-y,-z
1/4+x,1/4+y,-z
1/2-x,1/4+y,3/4+z
1/4+x,1/2-y,3/4+z
loop_
_atom_site_type_symbol
_atom_site_label
_atom_site_fract_x
_atom_site_fract_y
_atom_site_fract_z
Si Si1 0.891740 0.618311 0.468121
Si Si2 0.404174 0.801128 0.568148
Si Si3 0.871398 0.073295 0.067958
Si Si4 0.375000 0.375000 0.875000
Si Si5 0.625000 0.625000 0.625000
Si Si6 0.125000 0.125000 0.847415
O O1 0.862645 0.603715 0.520038
O O2 0.757682 0.612717 0.434981
O O3 0.013762 0.578225 0.452147
O O4 0.961910 0.675579 0.459838
O O5 0.385987 0.739381 0.564280
O O6 0.412777 0.826178 0.619026
O O7 0.732035 0.090079 0.095679
O O8 0.016736 0.090951 0.093751
#
# Coordination Sequence:
#
# PCOD9515340 Si02
#       6
#    32  32  32   8   8  16
#     4  10  21  39  60  95 121 154 209 259 290 370
#     4  10  21  38  64  87 125 160 204 247 315 358
#     4  11  23  42  62  88 124 165 203 254 308 363
#     4  10  24  40  64  84 130 162 212 244 312 368
#     4  10  26  42  56  84 130 158 204 246 302 372
#     4  10  21  37  62  95 124 157 206 253 303 366
#
# _framework density 18.245494999999998
#
# number of rings (size 3 to 8) (size 9 to 14) (size 15 to 20)
#    0.000    2.000    0.000    6.000    7.000    0.000 
#    4.500    2.500    0.000    0.000    0.000    0.000 
#    0.000    0.000    0.000    0.000    0.000    0.000 
#
# Total GULP energy -178558.078830 kJ/mol
# GULP energy per Si atom -5579.939963 kJ/mol
# Density = 1.820397 g / cm^3
# Si number density = 18.245495 Si / 1000 Ang^3
#
#
#
# Elastic Constant Matrix: (Units=GPa)
#
#
# Indices 1 2 3 4 5 6 
#
# 1 105.1941 40.3415 58.0542 0.0000 0.0000 0.0000
# 2 40.3415 135.5793 45.2529 0.0000 0.0000 0.0000
# 3 58.0542 45.2529 140.1237 0.0000 0.0000 0.0000
# 4 0.0000 0.0000 0.0000 7.7758 0.0000 0.0000
# 5 0.0000 0.0000 0.0000 0.0000 77.9195 0.0000
# 6 0.0000 0.0000 0.0000 0.0000 0.0000 10.7386
#
#
#
# Elastic Compliance Matrix: (Units=1/GPa)
#
#
# Indices 1 2 3 4 5 6 
#
# 1 0.012939 -0.002310 -0.004615 0.000000 0.000000 0.000000
# 2 -0.002310 0.008679 -0.001846 0.000000 0.000000 0.000000
# 3 -0.004615 -0.001846 0.009645 0.000000 0.000000 0.000000
# 4 0.000000 0.000000 0.000000 0.128604 0.000000 0.000000
# 5 0.000000 0.000000 0.000000 0.000000 0.012834 0.000000
# 6 0.000000 0.000000 0.000000 0.000000 0.000000 0.093122
#
#
# Mechanical properties :
#
#
# Convention : Reuss Voigt Hill
#
# Bulk Modulus (GPa) = 72.87697 74.24383 73.56040
# Shear Modulus (GPa) = 17.36491 35.10335 26.23413
#
# Velocity S-wave (km/s) = 3.08837 4.39104 3.79600
# Velocity P-wave (km/s) = 7.26268 8.15403 7.72123
#
# Compressibility (1/GPa) = 0.01372176
#
# Stress axis : x y z
#
# Youngs Moduli (GPa) = 77.28742 115.21879 103.68464
#
# Poissons Ratio (x) = 0.26611 0.47847
# Poissons Ratio (y) = 0.17851 0.19141
# Poissons Ratio (z) = 0.35666 0.21270
#
# Static dielectric constant tensor:
#      x y z
#    x 1.612910 0.000000 0.000000 
#    y 0.000000 1.645610 0.000000 
#    z 0.000000 0.000000 1.646580 
# 
# From -- ./inp_files/63706.got.cif
#   From: 2010.05.17/outbox.cif.g08.bks.cpg/sg70_32_cif.got.tgz:63706.got - 2010.06.03 15:57:51.
