data_PCOD9515686
_publ_section_title
;
Structure prediction by ZEFSAII (Michael W. Deem and Ramdas Pophale) SiO2 
 PCOD9515686
Probable space group: F D D D
;
_chemical_formula_sum "Si O2"
_cell_formula_units_Z 112
_cell_length_a 25.827121
_cell_length_b 5.321498
_cell_length_c 38.518632
_cell_angle_alpha 90.000000
_cell_angle_beta 90.000000
_cell_angle_gamma 90.000000
_cell_volume 5293.961214
_symmetry_space_group_name_H-M "F D D D"
_symmetry_group_IT_number 70
_space_group.IT_coordinate_system_code '2'
_symmetry_cell_setting 'orthorhombic'
loop_
_space_group_symop_operation_xyz
x,y,z
1/4-x,1/4-y,z
x,1/4-y,1/4-z
1/4-x,y,1/4-z
-x,-y,-z
3/4+x,3/4+y,-z
-x,3/4+y,3/4+z
3/4+x,-y,3/4+z
x,1/2+y,1/2+z
1/4-x,3/4-y,1/2+z
x,3/4-y,3/4-z
1/4-x,1/2+y,3/4-z
-x,1/2-y,1/2-z
3/4+x,1/4+y,1/2-z
-x,1/4+y,1/4+z
3/4+x,1/2-y,1/4+z
1/2+x,y,1/2+z
3/4-x,1/4-y,1/2+z
1/2+x,1/4-y,3/4-z
3/4-x,y,3/4-z
1/2-x,-y,1/2-z
1/4+x,3/4+y,1/2-z
1/2-x,3/4+y,1/4+z
1/4+x,-y,1/4+z
1/2+x,1/2+y,z
3/4-x,3/4-y,z
1/2+x,3/4-y,1/4-z
3/4-x,1/2+y,1/4-z
1/2-x,1/2-y,-z
1/4+x,1/4+y,-z
1/2-x,1/4+y,3/4+z
1/4+x,1/2-y,3/4+z
loop_
_atom_site_type_symbol
_atom_site_label
_atom_site_fract_x
_atom_site_fract_y
_atom_site_fract_z
Si Si1 0.375000 0.375000 0.059298
Si Si2 0.432192 0.032750 0.253196
Si Si3 0.022581 0.130145 0.352767
Si Si4 0.207784 0.776541 0.214284
O O1 0.423637 0.446554 0.082828
O O2 0.398061 0.176156 0.031551
O O3 0.425531 0.763690 0.271891
O O4 0.490407 0.002203 0.237800
O O5 0.430310 0.261878 0.279586
O O6 0.008887 0.375000 0.375000
O O7 0.978924 0.075485 0.324093
O O8 0.030505 0.875000 0.375000
#
# Coordination Sequence:
#
# PCOD9515686 Si02
#       4
#    16  32  32  32
#     4  10  22  34  54  84 115 140 174 228 294 334
#     4   9  18  32  51  73 102 137 177 225 263 309
#     4  11  22  35  53  79 114 150 179 216 272 345
#     4   9  18  33  50  71 101 142 184 213 254 313
#
# _framework density 21.156181
#
# number of rings (size 3 to 8) (size 9 to 14) (size 15 to 20)
#    0.000    2.286    0.000    2.571    0.000   10.286 
#    0.000    0.000    0.000    0.000    0.000   15.000 
#    0.000    0.000    0.000    0.000    0.000    0.000 
#
# Total GULP energy -156199.385530 kJ/mol
# GULP energy per Si atom -5578.549483 kJ/mol
# Density = 2.110803 g / cm^3
# Si number density = 21.156181 Si / 1000 Ang^3
#
#
#
# Elastic Constant Matrix: (Units=GPa)
#
#
# Indices 1 2 3 4 5 6 
#
# 1 51.6424 37.8897 36.0482 0.0053 -0.0010 0.0022
# 2 37.8897 190.3537 86.6177 0.0077 -0.0001 -0.0019
# 3 36.0482 86.6177 119.0427 -0.0004 -0.0021 0.0013
# 4 0.0053 0.0077 -0.0004 36.4536 -0.0014 0.0050
# 5 -0.0010 -0.0001 -0.0021 -0.0014 36.5616 0.0006
# 6 0.0022 -0.0019 0.0013 0.0050 0.0006 17.3579
#
#
#
# Elastic Compliance Matrix: (Units=1/GPa)
#
#
# Indices 1 2 3 4 5 6 
#
# 1 0.025215 -0.002309 -0.005955 -0.000003 0.000000 -0.000003
# 2 -0.002309 0.008065 -0.005169 -0.000001 0.000000 0.000002
# 3 -0.005955 -0.005169 0.013965 0.000002 0.000001 -0.000001
# 4 -0.000003 -0.000001 0.000002 0.027432 0.000001 -0.000008
# 5 0.000000 0.000000 0.000001 0.000001 0.027351 -0.000001
# 6 -0.000003 0.000002 -0.000001 -0.000008 -0.000001 0.057611
#
#
# Mechanical properties :
#
#
# Convention : Reuss Voigt Hill
#
# Bulk Modulus (GPa) = 49.07270 75.79442 62.43356
# Shear Modulus (GPa) = 25.86665 31.44017 28.65341
#
# Velocity S-wave (km/s) = 3.50044 3.85918 3.68418
# Velocity P-wave (km/s) = 6.29152 7.46737 6.90452
#
# Compressibility (1/GPa) = 0.02037793
#
# Stress axis : x y z
#
# Youngs Moduli (GPa) = 39.65856 123.99057 71.60810
#
# Poissons Ratio (x) = 0.28631 0.42646
# Poissons Ratio (y) = 0.09158 0.37015
# Poissons Ratio (z) = 0.23618 0.64092
#
# Static dielectric constant tensor:
#      x y z
#    x 1.865950 0.000010 0.000000 
#    y 0.000010 1.775880 0.000000 
#    z 0.000000 0.000000 1.737740 
# 
# From -- ./inp_files/4076.got.cif
#   From: 2010.05.17/outbox.cif.g08.bks.cpg/sg70_3_cif.got.tgz:4076.got - 2010.06.03 15:57:51.
