data_PCOD9515569
_publ_section_title
;
Structure prediction by ZEFSAII (Michael W. Deem and Ramdas Pophale) SiO2 
 PCOD9515569
Probable space group: F D D D
;
_chemical_formula_sum "Si O2"
_cell_formula_units_Z 160
_cell_length_a 9.983844
_cell_length_b 23.711968
_cell_length_c 27.025181
_cell_angle_alpha 90.000000
_cell_angle_beta 90.000000
_cell_angle_gamma 90.000000
_cell_volume 6397.849179
_symmetry_space_group_name_H-M "F D D D"
_symmetry_group_IT_number 70
_space_group.IT_coordinate_system_code '2'
_symmetry_cell_setting 'orthorhombic'
loop_
_space_group_symop_operation_xyz
x,y,z
1/4-x,1/4-y,z
x,1/4-y,1/4-z
1/4-x,y,1/4-z
-x,-y,-z
3/4+x,3/4+y,-z
-x,3/4+y,3/4+z
3/4+x,-y,3/4+z
x,1/2+y,1/2+z
1/4-x,3/4-y,1/2+z
x,3/4-y,3/4-z
1/4-x,1/2+y,3/4-z
-x,1/2-y,1/2-z
3/4+x,1/4+y,1/2-z
-x,1/4+y,1/4+z
3/4+x,1/2-y,1/4+z
1/2+x,y,1/2+z
3/4-x,1/4-y,1/2+z
1/2+x,1/4-y,3/4-z
3/4-x,y,3/4-z
1/2-x,-y,1/2-z
1/4+x,3/4+y,1/2-z
1/2-x,3/4+y,1/4+z
1/4+x,-y,1/4+z
1/2+x,1/2+y,z
3/4-x,3/4-y,z
1/2+x,3/4-y,1/4-z
3/4-x,1/2+y,1/4-z
1/2-x,1/2-y,-z
1/4+x,1/4+y,-z
1/2-x,1/4+y,3/4+z
1/4+x,1/2-y,3/4+z
loop_
_atom_site_type_symbol
_atom_site_label
_atom_site_fract_x
_atom_site_fract_y
_atom_site_fract_z
Si Si1 0.641773 0.217858 0.565076
Si Si2 0.913139 0.119036 0.185312
Si Si3 0.324373 0.087186 0.432105
Si Si4 0.230627 0.706286 0.953710
Si Si5 0.375000 0.375000 0.306827
Si Si6 0.375000 0.976248 0.875000
O O1 0.625000 0.219284 0.625000
O O2 0.508345 0.183232 0.550682
O O3 0.762222 0.176569 0.551377
O O4 0.653410 0.282133 0.547946
O O5 0.899866 0.125000 0.125000
O O6 0.770563 0.108919 0.210753
O O7 0.375000 0.089157 0.375000
O O8 0.330950 0.152469 0.447938
O O9 0.260994 0.739524 0.902383
O O10 0.250000 0.750000 0.000000
O O11 0.078677 0.682462 0.946905
O O12 0.327175 0.318159 0.334291
#
# Coordination Sequence:
#
# PCOD9515569 Si02
#       6
#    32  32  32  32  16  16
#     4   8  16  27  54  83 131 174 245 297 372 457
#     4   9  14  27  43  88 133 172 222 315 365 449
#     4  10  21  41  72 109 143 213 269 326 411 511
#     4  11  25  44  70 110 157 198 267 348 415 493
#     4  11  20  26  54  92 138 172 242 304 382 472
#     4  11  22  38  62 102 140 201 248 322 400 495
#
# _framework density 25.008403999999999
#
# number of rings (size 3 to 8) (size 9 to 14) (size 15 to 20)
#    0.000    2.200    3.000    2.400    5.600    3.200 
#    0.000    0.000    0.000    1.200   20.800    0.000 
#    0.000    0.000    0.000    0.000    0.000    0.000 
#
# Total GULP energy -222691.190828 kJ/mol
# GULP energy per Si atom -5567.279771 kJ/mol
# Density = 2.495148 g / cm^3
# Si number density = 25.008404 Si / 1000 Ang^3
#
#
#
# Elastic Constant Matrix: (Units=GPa)
#
#
# Indices 1 2 3 4 5 6 
#
# 1 129.2773 48.6554 40.8061 0.0000 0.0000 0.0000
# 2 48.6554 220.4326 48.6488 0.0000 0.0000 0.0000
# 3 40.8061 48.6488 111.0605 0.0000 0.0000 0.0000
# 4 0.0000 0.0000 0.0000 770.1981 0.0000 0.0000
# 5 0.0000 0.0000 0.0000 0.0000 -82.1691 0.0000
# 6 0.0000 0.0000 0.0000 0.0000 0.0000 33.0943
#
#
#
# Elastic Compliance Matrix: (Units=1/GPa)
#
#
# Indices 1 2 3 4 5 6 
#
# 1 0.009130 -0.001411 -0.002736 0.000000 0.000000 0.000000
# 2 -0.001411 0.005240 -0.001777 0.000000 0.000000 0.000000
# 3 -0.002736 -0.001777 0.010788 0.000000 0.000000 0.000000
# 4 0.000000 0.000000 0.000000 0.001298 0.000000 0.000000
# 5 0.000000 0.000000 0.000000 0.000000 -0.012170 0.000000
# 6 0.000000 0.000000 0.000000 0.000000 0.000000 0.030217
#
#
# Mechanical properties :
#
#
# Convention : Reuss Voigt Hill
#
# Bulk Modulus (GPa) = 75.13694 81.88788 78.51241
# Shear Modulus (GPa) = 82.25184 165.73535 123.99359
#
# Velocity S-wave (km/s) = 5.74117 8.14958 7.04900
# Velocity P-wave (km/s) = 8.60570 11.01678 9.88503
#
# Compressibility (1/GPa) = 0.01330903
#
# Stress axis : x y z
#
# Youngs Moduli (GPa) = 109.52605 190.83215 92.69686
#
# Poissons Ratio (x) = 0.26934 0.25366
# Poissons Ratio (y) = 0.15458 0.16471
# Poissons Ratio (z) = 0.29971 0.33908
#
# Static dielectric constant tensor:
#      x y z
#    x 1.937070 0.000000 0.000000 
#    y 0.000000 2.031950 0.000000 
#    z 0.000000 0.000000 2.107510 
# 
# From -- ./inp_files/51151.got.cif
#   From: 2010.05.17/outbox.cif.g08.bks.cpg/sg70_26_cif.got.tgz:51151.got - 2010.06.03 15:57:51.
