data_PCOD9515586
_publ_section_title
;
Structure prediction by ZEFSAII (Michael W. Deem and Ramdas Pophale) SiO2 
 PCOD9515586
Probable space group: F D D D
;
_chemical_formula_sum "Si O2"
_cell_formula_units_Z 152
_cell_length_a 14.548028
_cell_length_b 24.516550
_cell_length_c 19.316445
_cell_angle_alpha 90.000000
_cell_angle_beta 90.000000
_cell_angle_gamma 90.000000
_cell_volume 6889.547294
_symmetry_space_group_name_H-M "F D D D"
_symmetry_group_IT_number 70
_space_group.IT_coordinate_system_code '2'
_symmetry_cell_setting 'orthorhombic'
loop_
_space_group_symop_operation_xyz
x,y,z
1/4-x,1/4-y,z
x,1/4-y,1/4-z
1/4-x,y,1/4-z
-x,-y,-z
3/4+x,3/4+y,-z
-x,3/4+y,3/4+z
3/4+x,-y,3/4+z
x,1/2+y,1/2+z
1/4-x,3/4-y,1/2+z
x,3/4-y,3/4-z
1/4-x,1/2+y,3/4-z
-x,1/2-y,1/2-z
3/4+x,1/4+y,1/2-z
-x,1/4+y,1/4+z
3/4+x,1/2-y,1/4+z
1/2+x,y,1/2+z
3/4-x,1/4-y,1/2+z
1/2+x,1/4-y,3/4-z
3/4-x,y,3/4-z
1/2-x,-y,1/2-z
1/4+x,3/4+y,1/2-z
1/2-x,3/4+y,1/4+z
1/4+x,-y,1/4+z
1/2+x,1/2+y,z
3/4-x,3/4-y,z
1/2+x,3/4-y,1/4-z
3/4-x,1/2+y,1/4-z
1/2-x,1/2-y,-z
1/4+x,1/4+y,-z
1/2-x,1/4+y,3/4+z
1/4+x,1/2-y,3/4+z
loop_
_atom_site_type_symbol
_atom_site_label
_atom_site_fract_x
_atom_site_fract_y
_atom_site_fract_z
Si Si1 0.625000 0.125000 0.125000
Si Si2 0.274488 0.313838 0.496158
Si Si3 0.656359 0.421857 0.433103
Si Si4 0.667032 0.043885 0.886210
Si Si5 0.354868 0.934265 0.483147
Si Si6 0.625000 0.475376 0.125000
O O1 0.680355 0.084919 0.175332
O O2 0.250000 0.250000 0.500000
O O3 0.174603 0.341716 0.487625
O O4 0.349061 0.320371 0.556975
O O5 0.666250 0.375000 0.375000
O O6 0.644242 0.479080 0.392263
O O7 0.745464 0.435927 0.478217
O O8 0.777672 0.052926 0.893902
O O9 0.640955 0.063023 0.810265
O O10 0.375000 0.875000 0.452528
O O11 0.396136 0.983412 0.438493
#
# Coordination Sequence:
#
# PCOD9515586 Si02
#       6
#     8  32  32  32  32  16
#     4  12  24  48  76  98 162 192 248 316 376 454
#     4  10  24  43  70 103 135 189 243 299 374 445
#     4  10  21  43  68  94 130 184 228 281 364 428
#     4  10  23  40  64  99 135 171 241 291 350 428
#     4  11  22  39  63  95 133 175 230 286 344 429
#     4  10  21  42  64  91 130 191 222 290 357 422
#
# _framework density 22.062407
#
# number of rings (size 3 to 8) (size 9 to 14) (size 15 to 20)
#    0.000    1.684    1.053    3.474    1.474   10.947 
#    3.789    0.000    0.000    0.000    0.000    0.000 
#    0.000    0.000    0.000    0.000    0.000    0.000 
#
# Total GULP energy -211882.205883 kJ/mol
# GULP energy per Si atom -5575.847523 kJ/mol
# Density = 2.201219 g / cm^3
# Si number density = 22.062407 Si / 1000 Ang^3
#
#
#
# Elastic Constant Matrix: (Units=GPa)
#
#
# Indices 1 2 3 4 5 6 
#
# 1 121.8716 10.6922 40.5104 0.0000 0.0000 0.0000
# 2 10.6922 80.1423 21.9211 0.0000 0.0000 0.0000
# 3 40.5104 21.9211 114.0798 0.0000 0.0000 0.0000
# 4 0.0000 0.0000 0.0000 69.2638 0.0000 0.0000
# 5 0.0000 0.0000 0.0000 0.0000 -59.7695 0.0000
# 6 0.0000 0.0000 0.0000 0.0000 0.0000 3.9010
#
#
#
# Elastic Compliance Matrix: (Units=1/GPa)
#
#
# Indices 1 2 3 4 5 6 
#
# 1 0.009313 -0.000357 -0.003239 0.000000 0.000000 0.000000
# 2 -0.000357 0.013184 -0.002407 0.000000 0.000000 0.000000
# 3 -0.003239 -0.002407 0.010378 0.000000 0.000000 0.000000
# 4 0.000000 0.000000 0.000000 0.014438 0.000000 0.000000
# 5 0.000000 0.000000 0.000000 0.000000 -0.016731 0.000000
# 6 0.000000 0.000000 0.000000 0.000000 0.000000 0.256345
#
#
# Mechanical properties :
#
#
# Convention : Reuss Voigt Hill
#
# Bulk Modulus (GPa) = 47.91284 51.37125 49.64204
# Shear Modulus (GPa) = 16.34588 18.87706 17.61147
#
# Velocity S-wave (km/s) = 2.72489 2.92827 2.82841
# Velocity P-wave (km/s) = 5.62709 5.89645 5.76334
#
# Compressibility (1/GPa) = 0.02087123
#
# Stress axis : x y z
#
# Youngs Moduli (GPa) = 107.37476 75.85130 96.35480
#
# Poissons Ratio (x) = 0.02705 0.31206
# Poissons Ratio (y) = 0.03830 0.23189
# Poissons Ratio (z) = 0.34775 0.18255
#
# Static dielectric constant tensor:
#      x y z
#    x 1.972100 0.000000 0.000000 
#    y 0.000000 1.918800 0.000000 
#    z 0.000000 0.000000 1.926310 
# 
# From -- ./inp_files/42940.got.cif
#   From: 2010.05.17/outbox.cif.g08.bks.cpg/sg70_22_cif.got.tgz:42940.got - 2010.06.03 15:57:51.
