data_PCOD9515886
_publ_section_title
;
Structure prediction by ZEFSAII (Michael W. Deem and Ramdas Pophale) SiO2 
 PCOD9515886
Probable space group: F D D D
;
_chemical_formula_sum "Si O2"
_cell_formula_units_Z 144
_cell_length_a 13.536212
_cell_length_b 17.416878
_cell_length_c 29.885440
_cell_angle_alpha 90.000000
_cell_angle_beta 90.000000
_cell_angle_gamma 90.000000
_cell_volume 7045.748090
_symmetry_space_group_name_H-M "F D D D"
_symmetry_group_IT_number 70
_space_group.IT_coordinate_system_code '2'
_symmetry_cell_setting 'orthorhombic'
loop_
_space_group_symop_operation_xyz
x,y,z
1/4-x,1/4-y,z
x,1/4-y,1/4-z
1/4-x,y,1/4-z
-x,-y,-z
3/4+x,3/4+y,-z
-x,3/4+y,3/4+z
3/4+x,-y,3/4+z
x,1/2+y,1/2+z
1/4-x,3/4-y,1/2+z
x,3/4-y,3/4-z
1/4-x,1/2+y,3/4-z
-x,1/2-y,1/2-z
3/4+x,1/4+y,1/2-z
-x,1/4+y,1/4+z
3/4+x,1/2-y,1/4+z
1/2+x,y,1/2+z
3/4-x,1/4-y,1/2+z
1/2+x,1/4-y,3/4-z
3/4-x,y,3/4-z
1/2-x,-y,1/2-z
1/4+x,3/4+y,1/2-z
1/2-x,3/4+y,1/4+z
1/4+x,-y,1/4+z
1/2+x,1/2+y,z
3/4-x,3/4-y,z
1/2+x,3/4-y,1/4-z
3/4-x,1/2+y,1/4-z
1/2-x,1/2-y,-z
1/4+x,1/4+y,-z
1/2-x,1/4+y,3/4+z
1/4+x,1/2-y,3/4+z
loop_
_atom_site_type_symbol
_atom_site_label
_atom_site_fract_x
_atom_site_fract_y
_atom_site_fract_z
Si Si1 0.945190 0.753938 0.053885
Si Si2 0.908494 0.531078 0.970457
Si Si3 0.164256 0.396516 0.946592
Si Si4 0.125000 0.125000 0.018259
Si Si5 0.930647 0.451289 0.097483
O O1 0.893607 0.676594 0.070322
O O2 0.945324 0.802529 0.099382
O O3 0.056914 0.734961 0.037470
O O4 0.888085 0.801223 0.015023
O O5 0.960890 0.547360 0.924138
O O6 0.868955 0.599683 0.001045
O O7 0.000000 0.500000 0.000000
O O8 0.279629 0.379545 0.950007
O O9 0.130192 0.474288 0.921422
O O10 0.875000 0.375000 0.081514
#
# Coordination Sequence:
#
# PCOD9515886 Si02
#       5
#    32  32  32  16  32
#     4  11  21  42  62  92 127 163 212 261 321 370
#     4   9  22  37  63  92 121 163 205 262 309 374
#     4  10  23  40  68  89 123 169 214 254 312 382
#     4  10  22  42  63  96 120 166 210 264 307 376
#     4  11  23  40  60  94 131 162 208 262 317 370
#
# _framework density 20.437857999999999
#
# number of rings (size 3 to 8) (size 9 to 14) (size 15 to 20)
#    0.000    1.778    1.111    2.000    9.333    2.667 
#    0.000    6.667    0.000    0.000    0.000    0.000 
#    0.000    0.000    0.000    0.000    0.000    0.000 
#
# Total GULP energy -200430.831887 kJ/mol
# GULP energy per Si atom -5567.523108 kJ/mol
# Density = 2.039134 g / cm^3
# Si number density = 20.437858 Si / 1000 Ang^3
#
#
#
# Elastic Constant Matrix: (Units=GPa)
#
#
# Indices 1 2 3 4 5 6 
#
# 1 143.8042 36.8770 17.9194 0.0000 0.0000 0.0000
# 2 36.8770 84.0434 -3.9011 0.0000 0.0000 0.0000
# 3 17.9194 -3.9011 56.0244 0.0000 0.0000 0.0000
# 4 0.0000 0.0000 0.0000 16.1944 0.0000 0.0000
# 5 0.0000 0.0000 0.0000 0.0000 2.0372 0.0000
# 6 0.0000 0.0000 0.0000 0.0000 0.0000 14.9812
#
#
#
# Elastic Compliance Matrix: (Units=1/GPa)
#
#
# Indices 1 2 3 4 5 6 
#
# 1 0.008283 -0.003770 -0.002912 0.000000 0.000000 0.000000
# 2 -0.003770 0.013653 0.002156 0.000000 0.000000 0.000000
# 3 -0.002912 0.002156 0.018931 0.000000 0.000000 0.000000
# 4 0.000000 0.000000 0.000000 0.061750 0.000000 0.000000
# 5 0.000000 0.000000 0.000000 0.000000 0.490869 0.000000
# 6 0.000000 0.000000 0.000000 0.000000 0.000000 0.066750
#
#
# Mechanical properties :
#
#
# Convention : Reuss Voigt Hill
#
# Bulk Modulus (GPa) = 31.43013 42.85137 37.14075
# Shear Modulus (GPa) = 7.35410 22.17434 14.76422
#
# Velocity S-wave (km/s) = 1.89897 3.29745 2.69066
# Velocity P-wave (km/s) = 4.49665 5.95901 5.27871
#
# Compressibility (1/GPa) = 0.03181660
#
# Stress axis : x y z
#
# Youngs Moduli (GPa) = 120.72194 73.24467 52.82358
#
# Poissons Ratio (x) = 0.27612 0.15382
# Poissons Ratio (y) = 0.45510 -0.11391
# Poissons Ratio (z) = 0.35154 -0.15795
#
# Static dielectric constant tensor:
#      x y z
#    x 1.793860 0.000000 0.000000 
#    y 0.000000 1.757730 0.000000 
#    z 0.000000 0.000000 1.807100 
# 
# From -- ./inp_files/65639.got.cif
#   From: 2010.05.17/outbox.cif.g08.bks.cpg/sg70_33_cif.got.tgz:65639.got - 2010.06.03 15:57:51.
