data_PCOD9515072
_publ_section_title
;
Structure prediction by ZEFSAII (Michael W. Deem and Ramdas Pophale) SiO2 
 PCOD9515072
Probable space group: F D D D
;
_chemical_formula_sum "Si O2"
_cell_formula_units_Z 192
_cell_length_a 10.924294
_cell_length_b 33.141065
_cell_length_c 24.281494
_cell_angle_alpha 90.000000
_cell_angle_beta 90.000000
_cell_angle_gamma 90.000000
_cell_volume 8790.938559
_symmetry_space_group_name_H-M "F D D D"
_symmetry_group_IT_number 70
_space_group.IT_coordinate_system_code '2'
_symmetry_cell_setting 'orthorhombic'
loop_
_space_group_symop_operation_xyz
x,y,z
1/4-x,1/4-y,z
x,1/4-y,1/4-z
1/4-x,y,1/4-z
-x,-y,-z
3/4+x,3/4+y,-z
-x,3/4+y,3/4+z
3/4+x,-y,3/4+z
x,1/2+y,1/2+z
1/4-x,3/4-y,1/2+z
x,3/4-y,3/4-z
1/4-x,1/2+y,3/4-z
-x,1/2-y,1/2-z
3/4+x,1/4+y,1/2-z
-x,1/4+y,1/4+z
3/4+x,1/2-y,1/4+z
1/2+x,y,1/2+z
3/4-x,1/4-y,1/2+z
1/2+x,1/4-y,3/4-z
3/4-x,y,3/4-z
1/2-x,-y,1/2-z
1/4+x,3/4+y,1/2-z
1/2-x,3/4+y,1/4+z
1/4+x,-y,1/4+z
1/2+x,1/2+y,z
3/4-x,3/4-y,z
1/2+x,3/4-y,1/4-z
3/4-x,1/2+y,1/4-z
1/2-x,1/2-y,-z
1/4+x,1/4+y,-z
1/2-x,1/4+y,3/4+z
1/4+x,1/2-y,3/4+z
loop_
_atom_site_type_symbol
_atom_site_label
_atom_site_fract_x
_atom_site_fract_y
_atom_site_fract_z
Si Si1 0.436282 0.985606 0.278474
Si Si2 0.875000 0.875000 0.617878
Si Si3 0.009993 0.921039 0.395209
Si Si4 0.174224 0.772263 0.429858
Si Si5 0.818308 0.206501 0.989740
Si Si6 0.625000 0.916328 0.125000
Si Si7 0.484871 0.296923 0.612382
O O1 0.315654 0.967522 0.307026
O O2 0.535859 0.957979 0.250883
O O3 0.394595 0.021358 0.237785
O O4 0.512958 0.008500 0.324320
O O5 0.745627 0.859667 0.645121
O O6 0.827476 0.914374 0.587216
O O7 0.028216 0.875000 0.375000
O O8 0.875000 0.933691 0.375000
O O9 0.107018 0.949232 0.363132
O O10 0.018467 0.927613 0.461219
O O11 0.172906 0.723845 0.415337
O O12 0.750000 0.250000 0.000000
O O13 0.820307 0.192237 0.926009
O O14 0.625000 0.306494 0.625000
#
# Coordination Sequence:
#
# PCOD9515072 Si02
#       7
#    32  16  32  32  32  16  32
#     4  10  21  39  71 101 131 180 244 298 363 453
#     4  12  24  46  66 104 150 188 246 312 382 450
#     4  11  26  47  72 107 151 195 254 314 393 469
#     4  10  21  42  70  97 135 184 236 298 377 442
#     4  12  26  46  76 111 147 200 263 318 385 473
#     4  12  30  46  76 112 155 208 255 328 396 460
#     4  10  20  39  66  96 136 178 230 296 363 447
#
# _framework density 21.840672000000001
#
# number of rings (size 3 to 8) (size 9 to 14) (size 15 to 20)
#    0.000    1.167    2.500    3.000    3.500    2.667 
#    6.000    0.833    0.000    0.000    0.000    0.000 
#    0.000    0.000    0.000    0.000    0.000    0.000 
#
# Total GULP energy -267212.805450 kJ/mol
# GULP energy per Si atom -5566.933447 kJ/mol
# Density = 2.179096 g / cm^3
# Si number density = 21.840672 Si / 1000 Ang^3
#
#
#
# Elastic Constant Matrix: (Units=GPa)
#
#
# Indices 1 2 3 4 5 6 
#
# 1 126.4413 59.9259 47.3294 0.0000 0.0000 0.0000
# 2 59.9259 84.1770 37.1658 0.0000 0.0000 0.0000
# 3 47.3294 37.1658 111.5836 0.0000 0.0000 0.0000
# 4 0.0000 0.0000 0.0000 16.5573 0.0000 0.0000
# 5 0.0000 0.0000 0.0000 0.0000 12.8271 0.0000
# 6 0.0000 0.0000 0.0000 0.0000 0.0000 31.6293
#
#
#
# Elastic Compliance Matrix: (Units=1/GPa)
#
#
# Indices 1 2 3 4 5 6 
#
# 1 0.012626 -0.007766 -0.002769 0.000000 0.000000 0.000000
# 2 -0.007766 0.018705 -0.002936 0.000000 0.000000 0.000000
# 3 -0.002769 -0.002936 0.011114 0.000000 0.000000 0.000000
# 4 0.000000 0.000000 0.000000 0.060396 0.000000 0.000000
# 5 0.000000 0.000000 0.000000 0.000000 0.077960 0.000000
# 6 0.000000 0.000000 0.000000 0.000000 0.000000 0.031616
#
#
# Mechanical properties :
#
#
# Convention : Reuss Voigt Hill
#
# Bulk Modulus (GPa) = 64.50267 67.89379 66.19823
# Shear Modulus (GPa) = 20.44771 24.05481 22.25126
#
# Velocity S-wave (km/s) = 3.06309 3.32230 3.19533
# Velocity P-wave (km/s) = 6.48903 6.77276 6.63241
#
# Compressibility (1/GPa) = 0.01550323
#
# Stress axis : x y z
#
# Youngs Moduli (GPa) = 79.20307 53.46278 89.97488
#
# Poissons Ratio (x) = 0.41519 0.24912
# Poissons Ratio (y) = 0.61508 0.26417
# Poissons Ratio (z) = 0.21929 0.15697
#
# Static dielectric constant tensor:
#      x y z
#    x 1.853460 0.000000 0.000000 
#    y 0.000000 1.796280 0.000000 
#    z 0.000000 0.000000 1.923860 
# 
# From -- ./inp_files/57833.got.cif
#   From: 2010.05.17/outbox.cif.g08.bks.cpg/sg70_29_cif.got.tgz:57833.got - 2010.06.03 15:57:51.
