data_PCOD9515035
_publ_section_title
;
Structure prediction by ZEFSAII (Michael W. Deem and Ramdas Pophale) SiO2 
 PCOD9515035
Probable space group: F D D D
;
_chemical_formula_sum "Si O2"
_cell_formula_units_Z 208
_cell_length_a 18.612826
_cell_length_b 32.505098
_cell_length_c 17.606275
_cell_angle_alpha 90.000000
_cell_angle_beta 90.000000
_cell_angle_gamma 90.000000
_cell_volume 10652.002953
_symmetry_space_group_name_H-M "F D D D"
_symmetry_group_IT_number 70
_space_group.IT_coordinate_system_code '2'
_symmetry_cell_setting 'orthorhombic'
loop_
_space_group_symop_operation_xyz
x,y,z
1/4-x,1/4-y,z
x,1/4-y,1/4-z
1/4-x,y,1/4-z
-x,-y,-z
3/4+x,3/4+y,-z
-x,3/4+y,3/4+z
3/4+x,-y,3/4+z
x,1/2+y,1/2+z
1/4-x,3/4-y,1/2+z
x,3/4-y,3/4-z
1/4-x,1/2+y,3/4-z
-x,1/2-y,1/2-z
3/4+x,1/4+y,1/2-z
-x,1/4+y,1/4+z
3/4+x,1/2-y,1/4+z
1/2+x,y,1/2+z
3/4-x,1/4-y,1/2+z
1/2+x,1/4-y,3/4-z
3/4-x,y,3/4-z
1/2-x,-y,1/2-z
1/4+x,3/4+y,1/2-z
1/2-x,3/4+y,1/4+z
1/4+x,-y,1/4+z
1/2+x,1/2+y,z
3/4-x,3/4-y,z
1/2+x,3/4-y,1/4-z
3/4-x,1/2+y,1/4-z
1/2-x,1/2-y,-z
1/4+x,1/4+y,-z
1/2-x,1/4+y,3/4+z
1/4+x,1/2-y,3/4+z
loop_
_atom_site_type_symbol
_atom_site_label
_atom_site_fract_x
_atom_site_fract_y
_atom_site_fract_z
Si Si1 0.359976 0.462734 0.729979
Si Si2 0.706755 0.080102 0.153765
Si Si3 0.375000 0.875000 0.198164
Si Si4 0.477341 0.295932 0.576211
Si Si5 0.734267 0.997275 0.065967
Si Si6 0.625000 0.428223 0.625000
Si Si7 0.125000 0.485607 0.625000
Si Si8 0.014108 0.139212 0.814791
O O1 0.357558 0.414323 0.748028
O O2 0.310208 0.463962 0.655591
O O3 0.437365 0.479493 0.702965
O O4 0.342395 0.487411 0.806277
O O5 0.737194 0.125000 0.125000
O O6 0.625000 0.079107 0.125000
O O7 0.710396 0.082491 0.245313
O O8 0.739306 0.037122 0.121898
O O9 0.438719 0.891266 0.142188
O O10 0.452365 0.265000 0.512074
O O11 0.561808 0.290853 0.589758
O O12 0.468644 0.341892 0.545095
O O13 0.682667 0.960285 0.090303
O O14 0.679972 0.399141 0.671991
#
# Coordination Sequence:
#
# PCOD9515035 Si02
#       8
#    32  32  16  32  32  16  16  32
#     4  10  22  38  64  88 120 161 203 260 311 371
#     4  11  22  37  60  90 126 169 209 245 306 378
#     4  10  20  39  59  88 118 160 214 248 306 374
#     4  10  22  41  64  88 120 163 209 259 311 380
#     4  11  23  38  57  94 128 159 208 252 309 375
#     4  12  25  38  59  96 131 167 202 265 312 365
#     4  10  21  41  64  92 115 153 214 264 319 369
#     4  11  23  39  63  87 128 170 210 253 312 377
#
# _framework density 19.526844000000001
#
# number of rings (size 3 to 8) (size 9 to 14) (size 15 to 20)
#    0.000    1.385    3.846    1.846    4.308    0.923 
#    0.000    0.000    0.000    0.000    0.000    0.000 
#    0.000    0.000    0.000    0.000    0.000    0.000 
#
# Total GULP energy -289688.442064 kJ/mol
# GULP energy per Si atom -5570.931578 kJ/mol
# Density = 1.948240 g / cm^3
# Si number density = 19.526844 Si / 1000 Ang^3
#
#
#
# Elastic Constant Matrix: (Units=GPa)
#
#
# Indices 1 2 3 4 5 6 
#
# 1 56.9769 8.7825 6.6456 0.0000 0.0000 0.0000
# 2 8.7825 79.6044 17.5692 0.0000 0.0000 0.0000
# 3 6.6456 17.5692 48.5042 0.0000 0.0000 0.0000
# 4 0.0000 0.0000 0.0000 122.6527 0.0000 0.0000
# 5 0.0000 0.0000 0.0000 0.0000 27.3447 0.0000
# 6 0.0000 0.0000 0.0000 0.0000 0.0000 22.3103
#
#
#
# Elastic Compliance Matrix: (Units=1/GPa)
#
#
# Indices 1 2 3 4 5 6 
#
# 1 0.018014 -0.001568 -0.001900 0.000000 0.000000 0.000000
# 2 -0.001568 0.013790 -0.004780 0.000000 0.000000 0.000000
# 3 -0.001900 -0.004780 0.022609 0.000000 0.000000 0.000000
# 4 0.000000 0.000000 0.000000 0.008153 0.000000 0.000000
# 5 0.000000 0.000000 0.000000 0.000000 0.036570 0.000000
# 6 0.000000 0.000000 0.000000 0.000000 0.000000 0.044822
#
#
# Mechanical properties :
#
#
# Convention : Reuss Voigt Hill
#
# Bulk Modulus (GPa) = 26.37399 27.89777 27.13588
# Shear Modulus (GPa) = 28.88597 44.60075 36.74336
#
# Velocity S-wave (km/s) = 3.85033 4.78438 4.34254
# Velocity P-wave (km/s) = 5.77084 6.69614 6.25064
#
# Compressibility (1/GPa) = 0.03791614
#
# Stress axis : x y z
#
# Youngs Moduli (GPa) = 55.51145 72.51550 44.23091
#
# Poissons Ratio (x) = 0.11371 0.08405
# Poissons Ratio (y) = 0.08705 0.21143
# Poissons Ratio (z) = 0.10548 0.34664
#
# Static dielectric constant tensor:
#      x y z
#    x 1.681690 0.000000 0.000000 
#    y 0.000000 1.716460 0.000000 
#    z 0.000000 0.000000 1.701640 
# 
# From -- ./inp_files/36917.got.cif
#   From: 2010.05.17/outbox.cif.g08.bks.cpg/sg70_19_cif.got.tgz:36917.got - 2010.06.03 15:57:51.
