data_PCOD9515320
_publ_section_title
;
Structure prediction by ZEFSAII (Michael W. Deem and Ramdas Pophale) SiO2 
 PCOD9515320
Probable space group: F D D D
;
_chemical_formula_sum "Si O2"
_cell_formula_units_Z 120
_cell_length_a 24.631342
_cell_length_b 24.918110
_cell_length_c 9.023873
_cell_angle_alpha 90.000000
_cell_angle_beta 90.000000
_cell_angle_gamma 90.000000
_cell_volume 5538.550852
_symmetry_space_group_name_H-M "F D D D"
_symmetry_group_IT_number 70
_space_group.IT_coordinate_system_code '2'
_symmetry_cell_setting 'orthorhombic'
loop_
_space_group_symop_operation_xyz
x,y,z
1/4-x,1/4-y,z
x,1/4-y,1/4-z
1/4-x,y,1/4-z
-x,-y,-z
3/4+x,3/4+y,-z
-x,3/4+y,3/4+z
3/4+x,-y,3/4+z
x,1/2+y,1/2+z
1/4-x,3/4-y,1/2+z
x,3/4-y,3/4-z
1/4-x,1/2+y,3/4-z
-x,1/2-y,1/2-z
3/4+x,1/4+y,1/2-z
-x,1/4+y,1/4+z
3/4+x,1/2-y,1/4+z
1/2+x,y,1/2+z
3/4-x,1/4-y,1/2+z
1/2+x,1/4-y,3/4-z
3/4-x,y,3/4-z
1/2-x,-y,1/2-z
1/4+x,3/4+y,1/2-z
1/2-x,3/4+y,1/4+z
1/4+x,-y,1/4+z
1/2+x,1/2+y,z
3/4-x,3/4-y,z
1/2+x,3/4-y,1/4-z
3/4-x,1/2+y,1/4-z
1/2-x,1/2-y,-z
1/4+x,1/4+y,-z
1/2-x,1/4+y,3/4+z
1/4+x,1/2-y,3/4+z
loop_
_atom_site_type_symbol
_atom_site_label
_atom_site_fract_x
_atom_site_fract_y
_atom_site_fract_z
Si Si1 0.685262 0.797886 0.472236
Si Si2 0.155531 0.754271 0.483478
Si Si3 0.210767 0.712083 0.223326
Si Si4 0.125000 0.357392 0.125000
Si Si5 0.875000 0.875000 0.375000
O O1 0.641252 0.761149 0.389553
O O2 0.733582 0.806162 0.354755
O O3 0.699890 0.764882 0.620949
O O4 0.658998 0.853116 0.523270
O O5 0.125000 0.727275 0.625000
O O6 0.205499 0.728952 0.395190
O O7 0.163865 0.815587 0.538711
O O8 0.166007 0.665335 0.207796
#
# Coordination Sequence:
#
# PCOD9515320 Si02
#       5
#    32  32  32  16   8
#     4  11  21  42  64  97 124 174 220 278 325 413
#     4  10  22  38  63  96 135 164 213 291 329 397
#     4  11  24  40  65  92 132 172 230 267 342 398
#     4  10  21  36  72  94 130 168 227 276 340 390
#     4  12  22  40  66  84 132 184 232 264 328 428
#
# _framework density 21.666318
#
# number of rings (size 3 to 8) (size 9 to 14) (size 15 to 20)
#    0.800    0.533    5.333    0.800    3.733    1.067 
#    0.000    0.667    0.000    0.000    0.000    0.000 
#    0.000    0.000    0.000    0.000    0.000    0.000 
#
# Total GULP energy -167126.129361 kJ/mol
# GULP energy per Si atom -5570.870979 kJ/mol
# Density = 2.161700 g / cm^3
# Si number density = 21.666318 Si / 1000 Ang^3
#
#
#
# Elastic Constant Matrix: (Units=GPa)
#
#
# Indices 1 2 3 4 5 6 
#
# 1 102.9145 44.0001 61.5158 0.0014 -0.0004 -0.0003
# 2 44.0001 107.2508 52.9297 0.0021 -0.0011 -0.0008
# 3 61.5158 52.9297 149.2254 0.0041 -0.0018 -0.0017
# 4 0.0014 0.0021 0.0041 15.5624 -0.0015 -0.0015
# 5 -0.0004 -0.0011 -0.0018 -0.0015 30.3610 0.0005
# 6 -0.0003 -0.0008 -0.0017 -0.0015 0.0005 23.0616
#
#
#
# Elastic Compliance Matrix: (Units=1/GPa)
#
#
# Indices 1 2 3 4 5 6 
#
# 1 0.013890 -0.003482 -0.004491 0.000000 0.000000 0.000000
# 2 -0.003482 0.012175 -0.002883 -0.000001 0.000000 0.000000
# 3 -0.004491 -0.002883 0.009575 -0.000002 0.000000 0.000001
# 4 0.000000 -0.000001 -0.000002 0.064257 0.000003 0.000004
# 5 0.000000 0.000000 0.000000 0.000003 0.032937 -0.000001
# 6 0.000000 0.000000 0.000001 0.000004 -0.000001 0.043362
#
#
# Mechanical properties :
#
#
# Convention : Reuss Voigt Hill
#
# Bulk Modulus (GPa) = 71.79600 75.14245 73.46922
# Shear Modulus (GPa) = 24.68506 27.19334 25.93920
#
# Velocity S-wave (km/s) = 3.37906 3.54658 3.46383
# Velocity P-wave (km/s) = 6.95939 7.17830 7.06969
#
# Compressibility (1/GPa) = 0.01392835
#
# Stress axis : x y z
#
# Youngs Moduli (GPa) = 71.99496 82.13327 104.43705
#
# Poissons Ratio (x) = 0.28600 0.46900
# Poissons Ratio (y) = 0.25069 0.30110
# Poissons Ratio (z) = 0.32331 0.23680
#
# Static dielectric constant tensor:
#      x y z
#    x 1.886370 0.000000 0.000000 
#    y 0.000000 1.773210 0.000000 
#    z 0.000000 0.000000 1.865750 
# 
# From -- ./inp_files/10837.got.cif
#   From: 2010.05.17/outbox.cif.g08.bks.cpg/sg70_6_cif.got.tgz:10837.got - 2010.06.03 15:57:51.
