data_PCOD9515498
_publ_section_title
;
Structure prediction by ZEFSAII (Michael W. Deem and Ramdas Pophale) SiO2 
 PCOD9515498
Probable space group: F D D D
;
_chemical_formula_sum "Si O2"
_cell_formula_units_Z 192
_cell_length_a 27.476955
_cell_length_b 11.692692
_cell_length_c 24.199101
_cell_angle_alpha 90.000000
_cell_angle_beta 90.000000
_cell_angle_gamma 90.000000
_cell_volume 7774.676810
_symmetry_space_group_name_H-M "F D D D"
_symmetry_group_IT_number 70
_space_group.IT_coordinate_system_code '2'
_symmetry_cell_setting 'orthorhombic'
loop_
_space_group_symop_operation_xyz
x,y,z
1/4-x,1/4-y,z
x,1/4-y,1/4-z
1/4-x,y,1/4-z
-x,-y,-z
3/4+x,3/4+y,-z
-x,3/4+y,3/4+z
3/4+x,-y,3/4+z
x,1/2+y,1/2+z
1/4-x,3/4-y,1/2+z
x,3/4-y,3/4-z
1/4-x,1/2+y,3/4-z
-x,1/2-y,1/2-z
3/4+x,1/4+y,1/2-z
-x,1/4+y,1/4+z
3/4+x,1/2-y,1/4+z
1/2+x,y,1/2+z
3/4-x,1/4-y,1/2+z
1/2+x,1/4-y,3/4-z
3/4-x,y,3/4-z
1/2-x,-y,1/2-z
1/4+x,3/4+y,1/2-z
1/2-x,3/4+y,1/4+z
1/4+x,-y,1/4+z
1/2+x,1/2+y,z
3/4-x,3/4-y,z
1/2+x,3/4-y,1/4-z
3/4-x,1/2+y,1/4-z
1/2-x,1/2-y,-z
1/4+x,1/4+y,-z
1/2-x,1/4+y,3/4+z
1/4+x,1/2-y,3/4+z
loop_
_atom_site_type_symbol
_atom_site_label
_atom_site_fract_x
_atom_site_fract_y
_atom_site_fract_z
Si Si1 0.242567 0.875000 0.375000
Si Si2 0.936381 0.459781 0.778084
Si Si3 0.875000 0.375000 0.510657
Si Si4 0.387693 0.095765 0.314332
Si Si5 0.978366 0.875356 0.996770
Si Si6 0.430888 0.351717 0.600992
Si Si7 0.232024 0.488291 0.187232
O O1 0.275185 0.862066 0.319888
O O2 0.207152 0.763332 0.374221
O O3 0.894365 0.542089 0.800535
O O4 0.924605 0.422371 0.715396
O O5 0.951065 0.354783 0.817186
O O6 0.984056 0.536414 0.770843
O O7 0.875709 0.494418 0.476899
O O8 0.929551 0.368521 0.532472
O O9 0.375000 0.055358 0.375000
O O10 0.443541 0.135182 0.313924
O O11 0.000000 0.000000 0.000000
O O12 0.375000 0.375000 0.620493
O O13 0.471314 0.454597 0.600081
O O14 0.250000 0.500000 0.250000
#
# Coordination Sequence:
#
# PCOD9515498 Si02
#       7
#    16  32  16  32  32  32  32
#     4  10  24  43  66  92 138 174 229 290 342 418
#     4  10  21  42  66  93 138 166 221 283 339 415
#     4  12  25  40  68  94 134 184 222 276 362 408
#     4  12  25  39  65 103 134 176 224 285 348 419
#     4  11  24  44  66  99 135 179 228 290 345 426
#     4  10  21  41  67  92 128 182 225 278 346 409
#     4  10  21  40  65  95 125 173 223 268 343 413
#
# _framework density 24.695561999999999
#
# number of rings (size 3 to 8) (size 9 to 14) (size 15 to 20)
#    0.000    1.333    1.667    5.750    4.667    1.333 
#    1.500    1.667    0.000    0.000    0.000    0.000 
#    0.000    0.000    0.000    0.000    0.000    0.000 
#
# Total GULP energy -268441.788192 kJ/mol
# GULP energy per Si atom -5592.537254 kJ/mol
# Density = 2.463935 g / cm^3
# Si number density = 24.695562 Si / 1000 Ang^3
#
#
#
# Elastic Constant Matrix: (Units=GPa)
#
#
# Indices 1 2 3 4 5 6 
#
# 1 196.7146 43.4034 11.0432 0.0000 0.0000 0.0000
# 2 43.4034 147.0298 -4.4682 0.0000 0.0000 0.0000
# 3 11.0432 -4.4682 49.4019 0.0000 0.0000 0.0000
# 4 0.0000 0.0000 0.0000 23.3864 0.0000 0.0000
# 5 0.0000 0.0000 0.0000 0.0000 42.4203 0.0000
# 6 0.0000 0.0000 0.0000 0.0000 0.0000 45.8535
#
#
#
# Elastic Compliance Matrix: (Units=1/GPa)
#
#
# Indices 1 2 3 4 5 6 
#
# 1 0.005531 -0.001675 -0.001388 0.000000 0.000000 0.000000
# 2 -0.001675 0.007327 0.001037 0.000000 0.000000 0.000000
# 3 -0.001388 0.001037 0.020646 0.000000 0.000000 0.000000
# 4 0.000000 0.000000 0.000000 0.042760 0.000000 0.000000
# 5 0.000000 0.000000 0.000000 0.000000 0.023574 0.000000
# 6 0.000000 0.000000 0.000000 0.000000 0.000000 0.021809
#
#
# Mechanical properties :
#
#
# Convention : Reuss Voigt Hill
#
# Bulk Modulus (GPa) = 33.95226 54.78923 44.37074
# Shear Modulus (GPa) = 36.89613 45.20991 41.05302
#
# Velocity S-wave (km/s) = 3.86947 4.28330 4.08163
# Velocity P-wave (km/s) = 5.80878 6.83346 6.34185
#
# Compressibility (1/GPa) = 0.02945312
#
# Stress axis : x y z
#
# Youngs Moduli (GPa) = 180.79986 136.47584 48.43513
#
# Poissons Ratio (x) = 0.22859 0.06722
# Poissons Ratio (y) = 0.30283 -0.05023
# Poissons Ratio (z) = 0.25093 -0.14154
#
# Static dielectric constant tensor:
#      x y z
#    x 1.938300 0.000000 0.000000 
#    y 0.000000 1.952180 0.000000 
#    z 0.000000 0.000000 2.060290 
# 
# From -- ./inp_files/68423.got.cif
#   From: 2010.05.17/outbox.cif.g08.bks.cpg/sg70_35_cif.got.tgz:68423.got - 2010.06.03 15:57:51.
