data_PCOD9515091
_publ_section_title
;
Structure prediction by ZEFSAII (Michael W. Deem and Ramdas Pophale) SiO2 
 PCOD9515091
Probable space group: F D D D
;
_chemical_formula_sum "Si O2"
_cell_formula_units_Z 168
_cell_length_a 12.427368
_cell_length_b 30.695954
_cell_length_c 21.817283
_cell_angle_alpha 90.000000
_cell_angle_beta 90.000000
_cell_angle_gamma 90.000000
_cell_volume 8322.637124
_symmetry_space_group_name_H-M "F D D D"
_symmetry_group_IT_number 70
_space_group.IT_coordinate_system_code '2'
_symmetry_cell_setting 'orthorhombic'
loop_
_space_group_symop_operation_xyz
x,y,z
1/4-x,1/4-y,z
x,1/4-y,1/4-z
1/4-x,y,1/4-z
-x,-y,-z
3/4+x,3/4+y,-z
-x,3/4+y,3/4+z
3/4+x,-y,3/4+z
x,1/2+y,1/2+z
1/4-x,3/4-y,1/2+z
x,3/4-y,3/4-z
1/4-x,1/2+y,3/4-z
-x,1/2-y,1/2-z
3/4+x,1/4+y,1/2-z
-x,1/4+y,1/4+z
3/4+x,1/2-y,1/4+z
1/2+x,y,1/2+z
3/4-x,1/4-y,1/2+z
1/2+x,1/4-y,3/4-z
3/4-x,y,3/4-z
1/2-x,-y,1/2-z
1/4+x,3/4+y,1/2-z
1/2-x,3/4+y,1/4+z
1/4+x,-y,1/4+z
1/2+x,1/2+y,z
3/4-x,3/4-y,z
1/2+x,3/4-y,1/4-z
3/4-x,1/2+y,1/4-z
1/2-x,1/2-y,-z
1/4+x,1/4+y,-z
1/2-x,1/4+y,3/4+z
1/4+x,1/2-y,3/4+z
loop_
_atom_site_type_symbol
_atom_site_label
_atom_site_fract_x
_atom_site_fract_y
_atom_site_fract_z
Si Si1 0.019757 0.344263 0.584101
Si Si2 0.375000 0.375000 0.375000
Si Si3 0.986605 0.073128 0.723705
Si Si4 0.625000 0.997523 0.625000
Si Si5 0.764360 0.063372 0.773703
Si Si6 0.375000 0.375000 0.571243
Si Si7 0.031880 0.025233 0.239018
O O1 0.125000 0.347757 0.625000
O O2 0.993071 0.389823 0.552331
O O3 0.927171 0.338010 0.635318
O O4 0.031953 0.309768 0.529803
O O5 0.451458 0.406098 0.333749
O O6 0.856460 0.072931 0.722994
O O7 0.033453 0.102286 0.779879
O O8 0.006660 0.022135 0.737833
O O9 0.569147 0.966196 0.575740
O O10 0.537587 0.024198 0.664965
O O11 0.655909 0.039307 0.753938
#
# Coordination Sequence:
#
# PCOD9515091 Si02
#       7
#    32   8  32  16  32  16  32
#     4  12  22  39  64  98 125 165 223 277 325 401
#     4  10  24  44  62  96 142 182 216 268 348 404
#     4  10  22  42  63  92 127 177 215 263 337 403
#     4  10  20  40  60  88 126 162 212 258 328 376
#     4  11  20  42  65  90 125 174 219 261 330 397
#     4  11  20  41  68  85 126 177 212 258 336 413
#     4  11  24  38  66  98 125 167 223 277 323 396
#
# _framework density 20.185908999999999
#
# number of rings (size 3 to 8) (size 9 to 14) (size 15 to 20)
#    0.000    1.143    4.762    3.429    1.333    0.000 
#    6.857    1.905    0.000    0.000    0.000    0.000 
#    0.000    0.000    0.000    0.000    0.000    0.000 
#
# Total GULP energy -233995.690052 kJ/mol
# GULP energy per Si atom -5571.325954 kJ/mol
# Density = 2.013997 g / cm^3
# Si number density = 20.185909 Si / 1000 Ang^3
#
#
#
# Elastic Constant Matrix: (Units=GPa)
#
#
# Indices 1 2 3 4 5 6 
#
# 1 63.8192 17.8547 24.1661 0.0000 0.0000 0.0000
# 2 17.8547 122.9492 56.5269 0.0000 0.0000 0.0000
# 3 24.1661 56.5269 109.5477 0.0000 0.0000 0.0000
# 4 0.0000 0.0000 0.0000 27.6969 0.0000 0.0000
# 5 0.0000 0.0000 0.0000 0.0000 90.7367 0.0000
# 6 0.0000 0.0000 0.0000 0.0000 0.0000 27.7333
#
#
#
# Elastic Compliance Matrix: (Units=1/GPa)
#
#
# Indices 1 2 3 4 5 6 
#
# 1 0.017188 -0.000987 -0.003282 0.000000 0.000000 0.000000
# 2 -0.000987 0.010720 -0.005314 0.000000 0.000000 0.000000
# 3 -0.003282 -0.005314 0.012594 0.000000 0.000000 0.000000
# 4 0.000000 0.000000 0.000000 0.036105 0.000000 0.000000
# 5 0.000000 0.000000 0.000000 0.000000 0.011021 0.000000
# 6 0.000000 0.000000 0.000000 0.000000 0.000000 0.036058
#
#
# Mechanical properties :
#
#
# Convention : Reuss Voigt Hill
#
# Bulk Modulus (GPa) = 46.86847 54.82350 50.84599
# Shear Modulus (GPa) = 33.34117 42.41793 37.87955
#
# Velocity S-wave (km/s) = 4.06853 4.58904 4.33660
# Velocity P-wave (km/s) = 6.73345 7.43621 7.09354
#
# Compressibility (1/GPa) = 0.02133631
#
# Stress axis : x y z
#
# Youngs Moduli (GPa) = 58.17904 93.28534 79.40006
#
# Poissons Ratio (x) = 0.09207 0.26063
# Poissons Ratio (y) = 0.05742 0.42191
# Poissons Ratio (z) = 0.19097 0.49569
#
# Static dielectric constant tensor:
#      x y z
#    x 1.795010 0.000000 0.000000 
#    y 0.000000 1.717800 0.000000 
#    z 0.000000 0.000000 1.767210 
# 
# From -- ./inp_files/43001.got.cif
#   From: 2010.05.17/outbox.cif.g08.bks.cpg/sg70_22_cif.got.tgz:43001.got - 2010.06.03 15:57:51.
