data_PCOD9515346
_publ_section_title
;
Structure prediction by ZEFSAII (Michael W. Deem and Ramdas Pophale) SiO2 
 PCOD9515346
Probable space group: F D D D
;
_chemical_formula_sum "Si O2"
_cell_formula_units_Z 168
_cell_length_a 19.885534
_cell_length_b 24.060824
_cell_length_c 16.160768
_cell_angle_alpha 90.000000
_cell_angle_beta 90.000000
_cell_angle_gamma 90.000000
_cell_volume 7732.318772
_symmetry_space_group_name_H-M "F D D D"
_symmetry_group_IT_number 70
_space_group.IT_coordinate_system_code '2'
_symmetry_cell_setting 'orthorhombic'
loop_
_space_group_symop_operation_xyz
x,y,z
1/4-x,1/4-y,z
x,1/4-y,1/4-z
1/4-x,y,1/4-z
-x,-y,-z
3/4+x,3/4+y,-z
-x,3/4+y,3/4+z
3/4+x,-y,3/4+z
x,1/2+y,1/2+z
1/4-x,3/4-y,1/2+z
x,3/4-y,3/4-z
1/4-x,1/2+y,3/4-z
-x,1/2-y,1/2-z
3/4+x,1/4+y,1/2-z
-x,1/4+y,1/4+z
3/4+x,1/2-y,1/4+z
1/2+x,y,1/2+z
3/4-x,1/4-y,1/2+z
1/2+x,1/4-y,3/4-z
3/4-x,y,3/4-z
1/2-x,-y,1/2-z
1/4+x,3/4+y,1/2-z
1/2-x,3/4+y,1/4+z
1/4+x,-y,1/4+z
1/2+x,1/2+y,z
3/4-x,3/4-y,z
1/2+x,3/4-y,1/4-z
3/4-x,1/2+y,1/4-z
1/2-x,1/2-y,-z
1/4+x,1/4+y,-z
1/2-x,1/4+y,3/4+z
1/4+x,1/2-y,3/4+z
loop_
_atom_site_type_symbol
_atom_site_label
_atom_site_fract_x
_atom_site_fract_y
_atom_site_fract_z
Si Si1 0.986749 0.174720 0.789411
Si Si2 0.199320 0.218945 0.620393
Si Si3 0.241877 0.297435 0.199766
Si Si4 0.130148 0.560914 0.399163
Si Si5 0.125000 0.625000 0.625000
Si Si6 0.933487 0.481589 0.450526
O O1 0.004881 0.185478 0.694288
O O2 0.966359 0.111089 0.798601
O O3 0.054018 0.188657 0.842636
O O4 0.937965 0.221470 0.825296
O O5 0.125000 0.192827 0.625000
O O6 0.237388 0.222209 0.708006
O O7 0.315129 0.299570 0.156282
O O8 0.193740 0.264338 0.136090
O O9 0.125000 0.625000 0.428414
O O10 0.123227 0.518631 0.476241
O O11 0.074876 0.582082 0.579083
O O12 0.000000 0.500000 0.500000
#
# Coordination Sequence:
#
# PCOD9515346 Si02
#       6
#    32  32  32  32   8  32
#     4  10  22  38  63  91 127 168 214 285 338 405
#     4  11  22  39  62  92 125 168 227 276 349 405
#     4  10  21  37  63  92 125 165 222 274 331 411
#     4   9  17  36  61  90 122 158 209 263 323 400
#     4  12  24  44  76  96 136 190 228 280 344 428
#     4  10  23  39  64 101 131 174 228 279 343 414
#
# _framework density 21.726989
#
# number of rings (size 3 to 8) (size 9 to 14) (size 15 to 20)
#    0.000    1.905    2.857    0.571    2.667    0.762 
#    1.714    0.000    0.000    0.000    0.000    0.000 
#    0.000    0.000    0.000    0.000    0.000    0.000 
#
# Total GULP energy -233875.990714 kJ/mol
# GULP energy per Si atom -5568.475969 kJ/mol
# Density = 2.167754 g / cm^3
# Si number density = 21.726989 Si / 1000 Ang^3
#
#
#
# Elastic Constant Matrix: (Units=GPa)
#
#
# Indices 1 2 3 4 5 6 
#
# 1 71.9798 13.9076 42.5415 0.0000 0.0000 0.0000
# 2 13.9076 102.6223 68.5190 0.0000 0.0000 0.0000
# 3 42.5415 68.5190 202.1855 0.0000 0.0000 0.0000
# 4 0.0000 0.0000 0.0000 10.3484 0.0000 0.0000
# 5 0.0000 0.0000 0.0000 0.0000 14.3737 0.0000
# 6 0.0000 0.0000 0.0000 0.0000 0.0000 14.2802
#
#
#
# Elastic Compliance Matrix: (Units=1/GPa)
#
#
# Indices 1 2 3 4 5 6 
#
# 1 0.015867 0.000102 -0.003373 0.000000 0.000000 0.000000
# 2 0.000102 0.012595 -0.004290 0.000000 0.000000 0.000000
# 3 -0.003373 -0.004290 0.007109 0.000000 0.000000 0.000000
# 4 0.000000 0.000000 0.000000 0.096633 0.000000 0.000000
# 5 0.000000 0.000000 0.000000 0.000000 0.069572 0.000000
# 6 0.000000 0.000000 0.000000 0.000000 0.000000 0.070027
#
#
# Mechanical properties :
#
#
# Convention : Reuss Voigt Hill
#
# Bulk Modulus (GPa) = 48.90196 69.63598 59.26897
# Shear Modulus (GPa) = 17.02183 24.58843 20.80513
#
# Velocity S-wave (km/s) = 2.80204 3.36772 3.09782
# Velocity P-wave (km/s) = 5.74673 6.87329 6.33510
#
# Compressibility (1/GPa) = 0.02044908
#
# Stress axis : x y z
#
# Youngs Moduli (GPa) = 63.02545 79.39765 140.65898
#
# Poissons Ratio (x) = -0.00808 0.47444
# Poissons Ratio (y) = -0.00641 0.60338
# Poissons Ratio (z) = 0.21258 0.34059
#
# Static dielectric constant tensor:
#      x y z
#    x 1.811150 0.000000 0.000000 
#    y 0.000000 1.782100 0.000000 
#    z 0.000000 0.000000 1.854680 
# 
# From -- ./inp_files/28748.got.cif
#   From: 2010.05.17/outbox.cif.g08.bks.cpg/sg70_15_cif.got.tgz:28748.got - 2010.06.03 15:57:51.
