data_PCOD9515379
_publ_section_title
;
Structure prediction by ZEFSAII (Michael W. Deem and Ramdas Pophale) SiO2 
 PCOD9515379
Probable space group: F D D D
;
_chemical_formula_sum "Si O2"
_cell_formula_units_Z 112
_cell_length_a 13.771662
_cell_length_b 22.736898
_cell_length_c 14.812973
_cell_angle_alpha 90.000000
_cell_angle_beta 90.000000
_cell_angle_gamma 90.000000
_cell_volume 4638.310307
_symmetry_space_group_name_H-M "F D D D"
_symmetry_group_IT_number 70
_space_group.IT_coordinate_system_code '2'
_symmetry_cell_setting 'orthorhombic'
loop_
_space_group_symop_operation_xyz
x,y,z
1/4-x,1/4-y,z
x,1/4-y,1/4-z
1/4-x,y,1/4-z
-x,-y,-z
3/4+x,3/4+y,-z
-x,3/4+y,3/4+z
3/4+x,-y,3/4+z
x,1/2+y,1/2+z
1/4-x,3/4-y,1/2+z
x,3/4-y,3/4-z
1/4-x,1/2+y,3/4-z
-x,1/2-y,1/2-z
3/4+x,1/4+y,1/2-z
-x,1/4+y,1/4+z
3/4+x,1/2-y,1/4+z
1/2+x,y,1/2+z
3/4-x,1/4-y,1/2+z
1/2+x,1/4-y,3/4-z
3/4-x,y,3/4-z
1/2-x,-y,1/2-z
1/4+x,3/4+y,1/2-z
1/2-x,3/4+y,1/4+z
1/4+x,-y,1/4+z
1/2+x,1/2+y,z
3/4-x,3/4-y,z
1/2+x,3/4-y,1/4-z
3/4-x,1/2+y,1/4-z
1/2-x,1/2-y,-z
1/4+x,1/4+y,-z
1/2-x,1/4+y,3/4+z
1/4+x,1/2-y,3/4+z
loop_
_atom_site_type_symbol
_atom_site_label
_atom_site_fract_x
_atom_site_fract_y
_atom_site_fract_z
Si Si1 0.375000 0.875000 0.098338
Si Si2 0.036644 0.454222 0.582305
Si Si3 0.534617 0.686428 0.679235
Si Si4 0.678109 0.304979 0.375896
O O1 0.306808 0.913926 0.160275
O O2 0.434675 0.916650 0.029100
O O3 0.125000 0.418450 0.625000
O O4 0.072680 0.463998 0.480968
O O5 0.015248 0.510315 0.648535
O O6 0.523998 0.625000 0.625000
O O7 0.625000 0.716840 0.625000
O O8 0.424294 0.709445 0.671936
O O9 0.697369 0.375000 0.375000
#
# Coordination Sequence:
#
# PCOD9515379 Si02
#       4
#    16  32  32  32
#     4  10  21  38  61  90 120 154 208 264 307 358
#     4  11  23  39  60  89 124 160 207 265 310 367
#     4   8  15  34  60  81 111 151 193 245 301 356
#     4  10  22  39  60  86 121 166 205 246 316 382
#
# _framework density 24.146725
#
# number of rings (size 3 to 8) (size 9 to 14) (size 15 to 20)
#    0.000    2.571    0.000    5.143    0.000    6.286 
#    0.000    1.429    0.000    1.714    0.000    0.000 
#    0.000    0.000    0.000    0.000    0.000    0.000 
#
# Total GULP energy -155929.881097 kJ/mol
# GULP energy per Si atom -5568.924325 kJ/mol
# Density = 2.409177 g / cm^3
# Si number density = 24.146725 Si / 1000 Ang^3
#
#
#
# Elastic Constant Matrix: (Units=GPa)
#
#
# Indices 1 2 3 4 5 6 
#
# 1 124.6787 45.5328 37.0967 0.0000 0.0000 0.0000
# 2 45.5328 127.2527 6.4532 0.0000 0.0000 0.0000
# 3 37.0967 6.4532 62.7328 0.0000 0.0000 0.0000
# 4 0.0000 0.0000 0.0000 17.8688 0.0000 0.0000
# 5 0.0000 0.0000 0.0000 0.0000 -11.7871 0.0000
# 6 0.0000 0.0000 0.0000 0.0000 0.0000 32.9019
#
#
#
# Elastic Compliance Matrix: (Units=1/GPa)
#
#
# Indices 1 2 3 4 5 6 
#
# 1 0.011237 -0.003703 -0.006264 0.000000 0.000000 0.000000
# 2 -0.003703 0.009120 0.001252 0.000000 0.000000 0.000000
# 3 -0.006264 0.001252 0.019516 0.000000 0.000000 0.000000
# 4 0.000000 0.000000 0.000000 0.055964 0.000000 0.000000
# 5 0.000000 0.000000 0.000000 0.000000 -0.084839 0.000000
# 6 0.000000 0.000000 0.000000 0.000000 0.000000 0.030393
#
#
# Mechanical properties :
#
#
# Convention : Reuss Voigt Hill
#
# Bulk Modulus (GPa) = 44.55914 54.75885 49.65899
# Shear Modulus (GPa) = 75.41261 22.83549 49.12405
#
# Velocity S-wave (km/s) = 5.59453 3.07856 4.51532
# Velocity P-wave (km/s) = 7.76049 5.94672 6.91335
#
# Compressibility (1/GPa) = 0.02244208
#
# Stress axis : x y z
#
# Youngs Moduli (GPa) = 88.99428 109.65044 51.24016
#
# Poissons Ratio (x) = 0.40603 0.32096
# Poissons Ratio (y) = 0.32955 -0.06413
# Poissons Ratio (z) = 0.55744 -0.13724
#
# Static dielectric constant tensor:
#      x y z
#    x 2.268730 0.000000 0.000000 
#    y 0.000000 2.322610 0.000000 
#    z 0.000000 0.000000 2.296920 
# 
# From -- ./inp_files/33059.got.cif
#   From: 2010.05.17/outbox.cif.g08.bks.cpg/sg70_17_cif.got.tgz:33059.got - 2010.06.03 15:57:51.
