data_PCOD9515984
_publ_section_title
;
Structure prediction by ZEFSAII (Michael W. Deem and Ramdas Pophale) SiO2 
 PCOD9515984
Probable space group: F D D D
;
_chemical_formula_sum "Si O2"
_cell_formula_units_Z 208
_cell_length_a 17.323937
_cell_length_b 17.296160
_cell_length_c 29.117707
_cell_angle_alpha 90.000000
_cell_angle_beta 90.000000
_cell_angle_gamma 90.000000
_cell_volume 8724.759441
_symmetry_space_group_name_H-M "F D D D"
_symmetry_group_IT_number 70
_space_group.IT_coordinate_system_code '2'
_symmetry_cell_setting 'orthorhombic'
loop_
_space_group_symop_operation_xyz
x,y,z
1/4-x,1/4-y,z
x,1/4-y,1/4-z
1/4-x,y,1/4-z
-x,-y,-z
3/4+x,3/4+y,-z
-x,3/4+y,3/4+z
3/4+x,-y,3/4+z
x,1/2+y,1/2+z
1/4-x,3/4-y,1/2+z
x,3/4-y,3/4-z
1/4-x,1/2+y,3/4-z
-x,1/2-y,1/2-z
3/4+x,1/4+y,1/2-z
-x,1/4+y,1/4+z
3/4+x,1/2-y,1/4+z
1/2+x,y,1/2+z
3/4-x,1/4-y,1/2+z
1/2+x,1/4-y,3/4-z
3/4-x,y,3/4-z
1/2-x,-y,1/2-z
1/4+x,3/4+y,1/2-z
1/2-x,3/4+y,1/4+z
1/4+x,-y,1/4+z
1/2+x,1/2+y,z
3/4-x,3/4-y,z
1/2+x,3/4-y,1/4-z
3/4-x,1/2+y,1/4-z
1/2-x,1/2-y,-z
1/4+x,1/4+y,-z
1/2-x,1/4+y,3/4+z
1/4+x,1/2-y,3/4+z
loop_
_atom_site_type_symbol
_atom_site_label
_atom_site_fract_x
_atom_site_fract_y
_atom_site_fract_z
Si Si1 0.217257 0.854505 0.131256
Si Si2 0.457773 0.625000 0.125000
Si Si3 0.558446 0.954920 0.533673
Si Si4 0.642888 0.036385 0.996757
Si Si5 0.962012 0.941087 0.337047
Si Si6 0.780596 0.242496 0.318319
Si Si7 0.652724 0.361435 0.960919
O O1 0.125000 0.847535 0.125000
O O2 0.233375 0.906525 0.176431
O O3 0.246154 0.767766 0.139124
O O4 0.238855 0.907636 0.088456
O O5 0.508291 0.696954 0.108091
O O6 0.401083 0.615345 0.081955
O O7 0.629390 0.003569 0.555809
O O8 0.608263 0.894504 0.504392
O O9 0.500000 0.000000 0.500000
O O10 0.625000 0.125000 0.985529
O O11 0.723000 0.002081 0.974931
O O12 0.584478 0.978516 0.971201
O O13 0.643828 0.031479 0.052532
O O14 0.950686 0.875000 0.375000
O O15 0.018396 0.903109 0.300056
#
# Coordination Sequence:
#
# PCOD9515984 Si02
#       7
#    32  16  32  32  32  32  32
#     4  10  24  44  66 103 142 187 242 301 359 436
#     4  10  22  44  69 100 145 188 230 298 361 434
#     4  11  22  44  73 101 140 191 236 301 360 432
#     4  11  26  43  71 101 137 187 236 301 367 431
#     4  12  26  43  71 102 141 192 238 299 371 432
#     4  10  23  45  71 102 146 185 244 295 361 438
#     4  11  23  45  65 104 144 176 241 302 350 437
#
# _framework density 23.840198000000001
#
# number of rings (size 3 to 8) (size 9 to 14) (size 15 to 20)
#    0.000    1.231    3.846    0.923    4.308    0.615 
#    0.000   23.462    0.000    0.000    0.000    0.000 
#    0.000    0.000    0.000    0.000    0.000    0.000 
#
# Total GULP energy -290490.717003 kJ/mol
# GULP energy per Si atom -5586.359942 kJ/mol
# Density = 2.378594 g / cm^3
# Si number density = 23.840198 Si / 1000 Ang^3
#
#
#
# Elastic Constant Matrix: (Units=GPa)
#
#
# Indices 1 2 3 4 5 6 
#
# 1 50.8865 30.3543 15.6902 0.0000 0.0000 0.0000
# 2 30.3543 145.1320 40.6633 0.0000 0.0000 0.0000
# 3 15.6902 40.6633 123.3786 0.0000 0.0000 0.0000
# 4 0.0000 0.0000 0.0000 54.2652 0.0000 0.0000
# 5 0.0000 0.0000 0.0000 0.0000 35.9503 0.0000
# 6 0.0000 0.0000 0.0000 0.0000 0.0000 23.5779
#
#
#
# Elastic Compliance Matrix: (Units=1/GPa)
#
#
# Indices 1 2 3 4 5 6 
#
# 1 0.022688 -0.004337 -0.001456 0.000000 0.000000 0.000000
# 2 -0.004337 0.008420 -0.002224 0.000000 0.000000 0.000000
# 3 -0.001456 -0.002224 0.009023 0.000000 0.000000 0.000000
# 4 0.000000 0.000000 0.000000 0.018428 0.000000 0.000000
# 5 0.000000 0.000000 0.000000 0.000000 0.027816 0.000000
# 6 0.000000 0.000000 0.000000 0.000000 0.000000 0.042413
#
#
# Mechanical properties :
#
#
# Convention : Reuss Voigt Hill
#
# Bulk Modulus (GPa) = 41.49729 54.75694 48.12712
# Shear Modulus (GPa) = 32.71099 38.27132 35.49116
#
# Velocity S-wave (km/s) = 3.70820 4.01100 3.86257
# Velocity P-wave (km/s) = 5.98152 6.66851 6.33433
#
# Compressibility (1/GPa) = 0.02409796
#
# Stress axis : x y z
#
# Youngs Moduli (GPa) = 44.07691 118.75877 110.82624
#
# Poissons Ratio (x) = 0.51508 0.16133
# Poissons Ratio (y) = 0.19117 0.24644
# Poissons Ratio (z) = 0.06416 0.26408
#
# Static dielectric constant tensor:
#      x y z
#    x 1.970140 0.000000 0.000000 
#    y 0.000000 1.943600 0.000000 
#    z 0.000000 0.000000 1.973990 
# 
# From -- ./inp_files/60451.got.cif
#   From: 2010.05.17/outbox.cif.g08.bks.cpg/sg70_31_cif.got.tgz:60451.got - 2010.06.03 15:57:51.
