data_PCOD9515021
_publ_section_title
;
Structure prediction by ZEFSAII (Michael W. Deem and Ramdas Pophale) SiO2 
 PCOD9515021
Probable space group: F D D D
;
_chemical_formula_sum "Si O2"
_cell_formula_units_Z 112
_cell_length_a 8.910798
_cell_length_b 34.348664
_cell_length_c 14.854370
_cell_angle_alpha 90.000000
_cell_angle_beta 90.000000
_cell_angle_gamma 90.000000
_cell_volume 4546.536540
_symmetry_space_group_name_H-M "F D D D"
_symmetry_group_IT_number 70
_space_group.IT_coordinate_system_code '2'
_symmetry_cell_setting 'orthorhombic'
loop_
_space_group_symop_operation_xyz
x,y,z
1/4-x,1/4-y,z
x,1/4-y,1/4-z
1/4-x,y,1/4-z
-x,-y,-z
3/4+x,3/4+y,-z
-x,3/4+y,3/4+z
3/4+x,-y,3/4+z
x,1/2+y,1/2+z
1/4-x,3/4-y,1/2+z
x,3/4-y,3/4-z
1/4-x,1/2+y,3/4-z
-x,1/2-y,1/2-z
3/4+x,1/4+y,1/2-z
-x,1/4+y,1/4+z
3/4+x,1/2-y,1/4+z
1/2+x,y,1/2+z
3/4-x,1/4-y,1/2+z
1/2+x,1/4-y,3/4-z
3/4-x,y,3/4-z
1/2-x,-y,1/2-z
1/4+x,3/4+y,1/2-z
1/2-x,3/4+y,1/4+z
1/4+x,-y,1/4+z
1/2+x,1/2+y,z
3/4-x,3/4-y,z
1/2+x,3/4-y,1/4-z
3/4-x,1/2+y,1/4-z
1/2-x,1/2-y,-z
1/4+x,1/4+y,-z
1/2-x,1/4+y,3/4+z
1/4+x,1/2-y,3/4+z
loop_
_atom_site_type_symbol
_atom_site_label
_atom_site_fract_x
_atom_site_fract_y
_atom_site_fract_z
Si Si1 0.846339 0.089953 0.191792
Si Si2 0.125000 0.125000 0.295124
Si Si3 0.652474 0.557112 0.415983
Si Si4 0.960102 0.019099 0.670527
O O1 0.792864 0.125000 0.125000
O O2 0.726262 0.075282 0.267010
O O3 0.881224 0.051861 0.132610
O O4 0.996179 0.105034 0.237729
O O5 0.203607 0.093278 0.358264
O O6 0.768942 0.534486 0.479104
O O7 0.592614 0.524263 0.347874
O O8 0.125000 0.020453 0.625000
#
# Coordination Sequence:
#
# PCOD9515021 Si02
#       4
#    32  16  32  32
#     4  11  23  40  61  92 130 171 218 268 325 385
#     4  12  23  38  61  94 132 176 214 266 323 386
#     4  11  22  40  68  98 128 169 219 269 322 387
#     4  10  20  38  66  98 127 165 216 272 321 384
#
# _framework density 24.634136000000002
#
# number of rings (size 3 to 8) (size 9 to 14) (size 15 to 20)
#    0.000    1.143    0.000    9.857    0.000    4.000 
#    0.000    1.429    0.000   13.714    0.000    0.000 
#    0.000    0.000    0.000    0.000    0.000    0.000 
#
# Total GULP energy -156885.990390 kJ/mol
# GULP energy per Si atom -5603.071085 kJ/mol
# Density = 2.457807 g / cm^3
# Si number density = 24.634136 Si / 1000 Ang^3
#
#
#
# Elastic Constant Matrix: (Units=GPa)
#
#
# Indices 1 2 3 4 5 6 
#
# 1 81.2251 51.9379 55.9942 0.0000 0.0000 0.0000
# 2 51.9379 211.3577 77.5716 0.0000 0.0000 0.0000
# 3 55.9942 77.5716 107.8264 0.0000 0.0000 0.0000
# 4 0.0000 0.0000 0.0000 2.6607 0.0000 0.0000
# 5 0.0000 0.0000 0.0000 0.0000 0.7118 0.0000
# 6 0.0000 0.0000 0.0000 0.0000 0.0000 36.4128
#
#
#
# Elastic Compliance Matrix: (Units=1/GPa)
#
#
# Indices 1 2 3 4 5 6 
#
# 1 0.019503 -0.001461 -0.009077 0.000000 0.000000 0.000000
# 2 -0.001461 0.006538 -0.003945 0.000000 0.000000 0.000000
# 3 -0.009077 -0.003945 0.016826 0.000000 0.000000 0.000000
# 4 0.000000 0.000000 0.000000 0.375848 0.000000 0.000000
# 5 0.000000 0.000000 0.000000 0.000000 1.404829 0.000000
# 6 0.000000 0.000000 0.000000 0.000000 0.000000 0.027463
#
#
# Mechanical properties :
#
#
# Convention : Reuss Voigt Hill
#
# Bulk Modulus (GPa) = 71.93548 85.71296 78.82422
# Shear Modulus (GPa) = 2.65307 22.28410 12.46859
#
# Velocity S-wave (km/s) = 1.03891 3.01092 2.25222
# Velocity P-wave (km/s) = 5.54112 6.85255 6.23143
#
# Compressibility (1/GPa) = 0.01390135
#
# Stress axis : x y z
#
# Youngs Moduli (GPa) = 51.27410 152.94686 59.43319
#
# Poissons Ratio (x) = 0.22350 0.53945
# Poissons Ratio (y) = 0.07493 0.23445
# Poissons Ratio (z) = 0.46540 0.60335
#
# Static dielectric constant tensor:
#      x y z
#    x 1.971480 0.000000 0.000000 
#    y 0.000000 1.931310 0.000000 
#    z 0.000000 0.000000 1.979840 
# 
# From -- ./inp_files/24441.got.cif
#   From: 2010.05.17/outbox.cif.g08.bks.cpg/sg70_13_cif.got.tgz:24441.got - 2010.06.03 15:57:51.
