data_PCOD9515030
_publ_section_title
;
Structure prediction by ZEFSAII (Michael W. Deem and Ramdas Pophale) SiO2 
 PCOD9515030
Probable space group: F D D D
;
_chemical_formula_sum "Si O2"
_cell_formula_units_Z 160
_cell_length_a 9.011774
_cell_length_b 27.433790
_cell_length_c 29.208800
_cell_angle_alpha 90.000000
_cell_angle_beta 90.000000
_cell_angle_gamma 90.000000
_cell_volume 7221.207370
_symmetry_space_group_name_H-M "F D D D"
_symmetry_group_IT_number 70
_space_group.IT_coordinate_system_code '2'
_symmetry_cell_setting 'orthorhombic'
loop_
_space_group_symop_operation_xyz
x,y,z
1/4-x,1/4-y,z
x,1/4-y,1/4-z
1/4-x,y,1/4-z
-x,-y,-z
3/4+x,3/4+y,-z
-x,3/4+y,3/4+z
3/4+x,-y,3/4+z
x,1/2+y,1/2+z
1/4-x,3/4-y,1/2+z
x,3/4-y,3/4-z
1/4-x,1/2+y,3/4-z
-x,1/2-y,1/2-z
3/4+x,1/4+y,1/2-z
-x,1/4+y,1/4+z
3/4+x,1/2-y,1/4+z
1/2+x,y,1/2+z
3/4-x,1/4-y,1/2+z
1/2+x,1/4-y,3/4-z
3/4-x,y,3/4-z
1/2-x,-y,1/2-z
1/4+x,3/4+y,1/2-z
1/2-x,3/4+y,1/4+z
1/4+x,-y,1/4+z
1/2+x,1/2+y,z
3/4-x,3/4-y,z
1/2+x,3/4-y,1/4-z
3/4-x,1/2+y,1/4-z
1/2-x,1/2-y,-z
1/4+x,1/4+y,-z
1/2-x,1/4+y,3/4+z
1/4+x,1/2-y,3/4+z
loop_
_atom_site_type_symbol
_atom_site_label
_atom_site_fract_x
_atom_site_fract_y
_atom_site_fract_z
Si Si1 0.625000 0.125000 0.125000
Si Si2 0.370821 0.149675 0.741844
Si Si3 0.125000 0.625000 0.625000
Si Si4 0.291640 0.789154 0.120785
Si Si5 0.375000 0.875000 0.187560
Si Si6 0.937443 0.946860 0.513453
Si Si7 0.148171 0.938231 0.351791
O O1 0.737882 0.088109 0.100719
O O2 0.492111 0.146043 0.781675
O O3 0.232834 0.186551 0.749590
O O4 0.290156 0.096157 0.741692
O O5 0.457236 0.170215 0.697279
O O6 0.249202 0.664190 0.640901
O O7 0.310502 0.833547 0.154978
O O8 0.313042 0.805605 0.068644
O O9 0.391691 0.744638 0.137816
O O10 0.125000 0.769926 0.125000
O O11 0.000000 0.000000 0.500000
#
# Coordination Sequence:
#
# PCOD9515030 Si02
#       7
#     8  32   8  32  16  32  32
#     4  10  20  38  70  96 136 184 228 292 348 420
#     4  11  25  45  70 104 143 186 237 299 358 423
#     4  10  26  42  64 108 156 180 224 298 372 422
#     4  12  25  46  74 103 137 195 245 289 360 433
#     4  12  27  46  71 101 152 190 237 299 364 433
#     4  11  25  44  73 104 139 183 246 299 357 432
#     4  11  24  44  71 103 141 186 236 291 356 427
#
# _framework density 22.156957999999999
#
# number of rings (size 3 to 8) (size 9 to 14) (size 15 to 20)
#    0.000    0.800    3.000    4.200    5.600    2.400 
#    0.000    0.000    0.000    0.000    0.000    0.000 
#    0.000    0.000    0.000    0.000    0.000    0.000 
#
# Total GULP energy -223080.121255 kJ/mol
# GULP energy per Si atom -5577.003031 kJ/mol
# Density = 2.210653 g / cm^3
# Si number density = 22.156958 Si / 1000 Ang^3
#
#
#
# Elastic Constant Matrix: (Units=GPa)
#
#
# Indices 1 2 3 4 5 6 
#
# 1 88.5381 24.8007 38.6941 0.0000 0.0000 0.0000
# 2 24.8007 120.5424 28.3143 0.0000 0.0000 0.0000
# 3 38.6941 28.3143 99.8275 0.0000 0.0000 0.0000
# 4 0.0000 0.0000 0.0000 7.9966 0.0000 0.0000
# 5 0.0000 0.0000 0.0000 0.0000 14.9057 0.0000
# 6 0.0000 0.0000 0.0000 0.0000 0.0000 26.4492
#
#
#
# Elastic Compliance Matrix: (Units=1/GPa)
#
#
# Indices 1 2 3 4 5 6 
#
# 1 0.013920 -0.001711 -0.004910 0.000000 0.000000 0.000000
# 2 -0.001711 0.009098 -0.001918 0.000000 0.000000 0.000000
# 3 -0.004910 -0.001918 0.012464 0.000000 0.000000 0.000000
# 4 0.000000 0.000000 0.000000 0.125052 0.000000 0.000000
# 5 0.000000 0.000000 0.000000 0.000000 0.067089 0.000000
# 6 0.000000 0.000000 0.000000 0.000000 0.000000 0.037808
#
#
# Mechanical properties :
#
#
# Convention : Reuss Voigt Hill
#
# Bulk Modulus (GPa) = 54.33100 54.72512 54.52806
# Shear Modulus (GPa) = 17.32242 24.34356 20.83299
#
# Velocity S-wave (km/s) = 2.79911 3.31824 3.06967
# Velocity P-wave (km/s) = 5.91785 6.27960 6.10141
#
# Compressibility (1/GPa) = 0.01840570
#
# Stress axis : x y z
#
# Youngs Moduli (GPa) = 71.84099 109.91221 80.22847
#
# Poissons Ratio (x) = 0.18800 0.39394
# Poissons Ratio (y) = 0.12288 0.15384
# Poissons Ratio (z) = 0.35276 0.21076
#
# Static dielectric constant tensor:
#      x y z
#    x 1.830600 0.000000 0.000000 
#    y 0.000000 1.803490 0.000000 
#    z 0.000000 0.000000 2.079890 
# 
# From -- ./inp_files/12414.got.cif
#   From: 2010.05.17/outbox.cif.g08.bks.cpg/sg70_7_cif.got.tgz:12414.got - 2010.06.03 15:57:51.
