data_PCOD9515175
_publ_section_title
;
Structure prediction by ZEFSAII (Michael W. Deem and Ramdas Pophale) SiO2 
 PCOD9515175
Probable space group: F D D D
;
_chemical_formula_sum "Si O2"
_cell_formula_units_Z 128
_cell_length_a 13.910265
_cell_length_b 17.602898
_cell_length_c 23.357859
_cell_angle_alpha 90.000000
_cell_angle_beta 90.000000
_cell_angle_gamma 90.000000
_cell_volume 5719.428151
_symmetry_space_group_name_H-M "F D D D"
_symmetry_group_IT_number 70
_space_group.IT_coordinate_system_code '2'
_symmetry_cell_setting 'orthorhombic'
loop_
_space_group_symop_operation_xyz
x,y,z
1/4-x,1/4-y,z
x,1/4-y,1/4-z
1/4-x,y,1/4-z
-x,-y,-z
3/4+x,3/4+y,-z
-x,3/4+y,3/4+z
3/4+x,-y,3/4+z
x,1/2+y,1/2+z
1/4-x,3/4-y,1/2+z
x,3/4-y,3/4-z
1/4-x,1/2+y,3/4-z
-x,1/2-y,1/2-z
3/4+x,1/4+y,1/2-z
-x,1/4+y,1/4+z
3/4+x,1/2-y,1/4+z
1/2+x,y,1/2+z
3/4-x,1/4-y,1/2+z
1/2+x,1/4-y,3/4-z
3/4-x,y,3/4-z
1/2-x,-y,1/2-z
1/4+x,3/4+y,1/2-z
1/2-x,3/4+y,1/4+z
1/4+x,-y,1/4+z
1/2+x,1/2+y,z
3/4-x,3/4-y,z
1/2+x,3/4-y,1/4-z
3/4-x,1/2+y,1/4-z
1/2-x,1/2-y,-z
1/4+x,1/4+y,-z
1/2-x,1/4+y,3/4+z
1/4+x,1/2-y,3/4+z
loop_
_atom_site_type_symbol
_atom_site_label
_atom_site_fract_x
_atom_site_fract_y
_atom_site_fract_z
Si Si1 0.546333 0.229461 0.689831
Si Si2 0.765132 0.681017 0.209193
Si Si3 0.682769 0.704735 0.454412
Si Si4 0.238266 0.137932 0.338319
O O1 0.500000 0.250000 0.750000
O O2 0.489696 0.151441 0.679724
O O3 0.591586 0.212461 0.552535
O O4 0.530308 0.304233 0.653295
O O5 0.848899 0.735859 0.189184
O O6 0.776801 0.672160 0.278612
O O7 0.625000 0.625000 0.471179
O O8 0.750000 0.750000 0.500000
O O9 0.743628 0.684423 0.397256
O O10 0.125000 0.125000 0.327679
#
# Coordination Sequence:
#
# PCOD9515175 Si02
#       4
#    32  32  32  32
#     4   9  17  37  73 107 135 176 232 311 376 420
#     4  10  20  41  74 105 142 181 245 310 371 437
#     4  11  28  47  66 105 154 204 251 300 364 459
#     4  10  20  42  70 105 141 191 235 305 378 429
#
# _framework density 22.379860999999998
#
# number of rings (size 3 to 8) (size 9 to 14) (size 15 to 20)
#    0.000    2.000    5.000    0.000    7.000    1.000 
#    4.500   12.500    0.000   12.000    0.000    0.000 
#    0.000    0.000    0.000    0.000    0.000    0.000 
#
# Total GULP energy -178608.876301 kJ/mol
# GULP energy per Si atom -5581.527384 kJ/mol
# Density = 2.232892 g / cm^3
# Si number density = 22.379861 Si / 1000 Ang^3
#
#
#
# Elastic Constant Matrix: (Units=GPa)
#
#
# Indices 1 2 3 4 5 6 
#
# 1 73.2971 85.4337 13.2239 0.0000 0.0000 0.0000
# 2 85.4337 197.4995 83.2528 0.0000 0.0000 0.0000
# 3 13.2239 83.2528 159.9973 0.0000 0.0000 0.0000
# 4 0.0000 0.0000 0.0000 44.6336 0.0000 0.0000
# 5 0.0000 0.0000 0.0000 0.0000 32.2759 0.0000
# 6 0.0000 0.0000 0.0000 0.0000 0.0000 48.2566
#
#
#
# Elastic Compliance Matrix: (Units=1/GPa)
#
#
# Indices 1 2 3 4 5 6 
#
# 1 0.031073 -0.015831 0.005669 0.000000 0.000000 0.000000
# 2 -0.015831 0.014552 -0.006263 0.000000 0.000000 0.000000
# 3 0.005669 -0.006263 0.009041 0.000000 0.000000 0.000000
# 4 0.000000 0.000000 0.000000 0.022405 0.000000 0.000000
# 5 0.000000 0.000000 0.000000 0.000000 0.030983 0.000000
# 6 0.000000 0.000000 0.000000 0.000000 0.000000 0.020723
#
#
# Mechanical properties :
#
#
# Convention : Reuss Voigt Hill
#
# Bulk Modulus (GPa) = 45.84044 88.29052 67.06548
# Shear Modulus (GPa) = 29.60377 41.62544 35.61460
#
# Velocity S-wave (km/s) = 3.64096 4.31739 3.99352
# Velocity P-wave (km/s) = 6.18084 8.02432 7.16214
#
# Compressibility (1/GPa) = 0.02181480
#
# Stress axis : x y z
#
# Youngs Moduli (GPa) = 32.18242 68.72013 110.61203
#
# Poissons Ratio (x) = 1.08793 -0.62711
# Poissons Ratio (y) = 0.50949 0.69281
# Poissons Ratio (z) = -0.18246 0.43042
#
# Static dielectric constant tensor:
#      x y z
#    x 1.884170 0.000000 0.000000 
#    y 0.000000 2.044640 0.000000 
#    z 0.000000 0.000000 1.952060 
# 
# From -- ./inp_files/44599.got.cif
#   From: 2010.05.17/outbox.cif.g08.bks.cpg/sg70_23_cif.got.tgz:44599.got - 2010.06.03 15:57:51.
