data_PCOD9515731
_publ_section_title
;
Structure prediction by ZEFSAII (Michael W. Deem and Ramdas Pophale) SiO2 
 PCOD9515731
Probable space group: F D D D
;
_chemical_formula_sum "Si O2"
_cell_formula_units_Z 152
_cell_length_a 20.749295
_cell_length_b 15.973866
_cell_length_c 23.295182
_cell_angle_alpha 90.000000
_cell_angle_beta 90.000000
_cell_angle_gamma 90.000000
_cell_volume 7721.105561
_symmetry_space_group_name_H-M "F D D D"
_symmetry_group_IT_number 70
_space_group.IT_coordinate_system_code '2'
_symmetry_cell_setting 'orthorhombic'
loop_
_space_group_symop_operation_xyz
x,y,z
1/4-x,1/4-y,z
x,1/4-y,1/4-z
1/4-x,y,1/4-z
-x,-y,-z
3/4+x,3/4+y,-z
-x,3/4+y,3/4+z
3/4+x,-y,3/4+z
x,1/2+y,1/2+z
1/4-x,3/4-y,1/2+z
x,3/4-y,3/4-z
1/4-x,1/2+y,3/4-z
-x,1/2-y,1/2-z
3/4+x,1/4+y,1/2-z
-x,1/4+y,1/4+z
3/4+x,1/2-y,1/4+z
1/2+x,y,1/2+z
3/4-x,1/4-y,1/2+z
1/2+x,1/4-y,3/4-z
3/4-x,y,3/4-z
1/2-x,-y,1/2-z
1/4+x,3/4+y,1/2-z
1/2-x,3/4+y,1/4+z
1/4+x,-y,1/4+z
1/2+x,1/2+y,z
3/4-x,3/4-y,z
1/2+x,3/4-y,1/4-z
3/4-x,1/2+y,1/4-z
1/2-x,1/2-y,-z
1/4+x,1/4+y,-z
1/2-x,1/4+y,3/4+z
1/4+x,1/2-y,3/4+z
loop_
_atom_site_type_symbol
_atom_site_label
_atom_site_fract_x
_atom_site_fract_y
_atom_site_fract_z
Si Si1 0.340418 0.125000 0.625000
Si Si2 0.458397 0.044685 0.688080
Si Si3 0.125000 0.125000 0.625000
Si Si4 0.481083 0.762029 0.931918
Si Si5 0.937451 0.428728 0.467305
Si Si6 0.503571 0.926786 0.587009
O O1 0.387551 0.074592 0.668440
O O2 0.294729 0.187306 0.661840
O O3 0.502652 0.128179 0.689993
O O4 0.471011 0.006461 0.750870
O O5 0.481147 0.975779 0.642672
O O6 0.171058 0.183529 0.661998
O O7 0.482599 0.670119 0.903327
O O8 0.875000 0.375000 0.455349
O O9 0.950925 0.433108 0.535420
O O10 0.937018 0.520750 0.440198
#
# Coordination Sequence:
#
# PCOD9515731 Si02
#       6
#    16  32   8  32  32  32
#     4  11  24  47  63  96 141 168 214 284 327 384
#     4  11  23  41  65 100 130 172 217 268 331 401
#     4  10  24  52  56  92 128 172 234 284 300 392
#     4  10  26  42  70  90 130 177 221 273 330 377
#     4  10  22  38  61  94 139 167 207 274 331 387
#     4  10  22  38  62  97 125 174 215 261 324 407
#
# _framework density 19.686299999999999
#
# number of rings (size 3 to 8) (size 9 to 14) (size 15 to 20)
#    0.000    1.684    2.105    0.000    5.895    6.737 
#    0.000    4.211    0.000    0.000    0.000    0.000 
#    0.000    0.000    0.000    0.000    0.000    0.000 
#
# Total GULP energy -212210.650056 kJ/mol
# GULP energy per Si atom -5584.490791 kJ/mol
# Density = 1.964149 g / cm^3
# Si number density = 19.686300 Si / 1000 Ang^3
#
#
#
# Elastic Constant Matrix: (Units=GPa)
#
#
# Indices 1 2 3 4 5 6 
#
# 1 102.9247 48.0377 34.1581 0.0000 0.0000 0.0000
# 2 48.0377 156.2823 59.5213 0.0000 0.0000 0.0000
# 3 34.1581 59.5213 114.0775 0.0000 0.0000 0.0000
# 4 0.0000 0.0000 0.0000 41.0920 0.0000 0.0000
# 5 0.0000 0.0000 0.0000 0.0000 3.7842 0.0000
# 6 0.0000 0.0000 0.0000 0.0000 0.0000 16.5232
#
#
#
# Elastic Compliance Matrix: (Units=1/GPa)
#
#
# Indices 1 2 3 4 5 6 
#
# 1 0.011709 -0.002825 -0.002032 0.000000 0.000000 0.000000
# 2 -0.002825 0.008667 -0.003676 0.000000 0.000000 0.000000
# 3 -0.002032 -0.003676 0.011293 0.000000 0.000000 0.000000
# 4 0.000000 0.000000 0.000000 0.024336 0.000000 0.000000
# 5 0.000000 0.000000 0.000000 0.000000 0.264254 0.000000
# 6 0.000000 0.000000 0.000000 0.000000 0.000000 0.060521
#
#
# Mechanical properties :
#
#
# Convention : Reuss Voigt Hill
#
# Bulk Modulus (GPa) = 68.48453 72.96873 70.72663
# Shear Modulus (GPa) = 12.41579 27.71773 20.06676
#
# Velocity S-wave (km/s) = 2.51406 3.75636 3.19615
# Velocity P-wave (km/s) = 6.57957 7.48063 7.04453
#
# Compressibility (1/GPa) = 0.01460184
#
# Stress axis : x y z
#
# Youngs Moduli (GPa) = 85.40629 115.37739 88.55422
#
# Poissons Ratio (x) = 0.32596 0.17993
# Poissons Ratio (y) = 0.24129 0.32555
# Poissons Ratio (z) = 0.17354 0.42416
#
# Static dielectric constant tensor:
#      x y z
#    x 1.695080 0.000000 0.000000 
#    y 0.000000 1.711690 0.000000 
#    z 0.000000 0.000000 1.760650 
# 
# From -- ./inp_files/27652.got.cif
#   From: 2010.05.17/outbox.cif.g08.bks.cpg/sg70_14_cif.got.tgz:27652.got - 2010.06.03 15:57:51.
