data_PCOD9515179
_publ_section_title
;
Structure prediction by ZEFSAII (Michael W. Deem and Ramdas Pophale) SiO2 
 PCOD9515179
Probable space group: F D D D
;
_chemical_formula_sum "Si O2"
_cell_formula_units_Z 200
_cell_length_a 27.523460
_cell_length_b 12.396503
_cell_length_c 27.041954
_cell_angle_alpha 90.000000
_cell_angle_beta 90.000000
_cell_angle_gamma 90.000000
_cell_volume 9226.570151
_symmetry_space_group_name_H-M "F D D D"
_symmetry_group_IT_number 70
_space_group.IT_coordinate_system_code '2'
_symmetry_cell_setting 'orthorhombic'
loop_
_space_group_symop_operation_xyz
x,y,z
1/4-x,1/4-y,z
x,1/4-y,1/4-z
1/4-x,y,1/4-z
-x,-y,-z
3/4+x,3/4+y,-z
-x,3/4+y,3/4+z
3/4+x,-y,3/4+z
x,1/2+y,1/2+z
1/4-x,3/4-y,1/2+z
x,3/4-y,3/4-z
1/4-x,1/2+y,3/4-z
-x,1/2-y,1/2-z
3/4+x,1/4+y,1/2-z
-x,1/4+y,1/4+z
3/4+x,1/2-y,1/4+z
1/2+x,y,1/2+z
3/4-x,1/4-y,1/2+z
1/2+x,1/4-y,3/4-z
3/4-x,y,3/4-z
1/2-x,-y,1/2-z
1/4+x,3/4+y,1/2-z
1/2-x,3/4+y,1/4+z
1/4+x,-y,1/4+z
1/2+x,1/2+y,z
3/4-x,3/4-y,z
1/2+x,3/4-y,1/4-z
3/4-x,1/2+y,1/4-z
1/2-x,1/2-y,-z
1/4+x,1/4+y,-z
1/2-x,1/4+y,3/4+z
1/4+x,1/2-y,3/4+z
loop_
_atom_site_type_symbol
_atom_site_label
_atom_site_fract_x
_atom_site_fract_y
_atom_site_fract_z
Si Si1 0.910507 0.230210 0.789251
Si Si2 0.691242 0.395806 0.207394
Si Si3 0.323065 0.999512 0.121158
Si Si4 0.537725 0.604871 0.232290
Si Si5 0.279557 0.070463 0.403970
Si Si6 0.125000 0.125000 0.955910
Si Si7 0.125000 0.625000 0.125000
Si Si8 0.875000 0.875000 0.210284
O O1 0.859487 0.164744 0.781397
O O2 0.953525 0.149117 0.802173
O O3 0.905641 0.300598 0.838858
O O4 0.914197 0.317520 0.745665
O O5 0.698225 0.519628 0.224502
O O6 0.737719 0.342357 0.236153
O O7 0.693319 0.403685 0.147415
O O8 0.311441 0.125000 0.125000
O O9 0.275956 0.926871 0.112493
O O10 0.348372 0.960269 0.170844
O O11 0.356453 0.969683 0.075052
O O12 0.535738 0.546495 0.179491
O O13 0.584178 0.564266 0.262622
#
# Coordination Sequence:
#
# PCOD9515179 Si02
#       8
#    32  32  32  32  32  16   8  16
#     4  11  23  41  70  94 138 176 236 280 350 417
#     4  11  22  42  65 103 141 184 225 289 359 419
#     4  11  25  46  72  95 142 185 233 293 355 419
#     4  11  24  37  69 103 143 181 234 288 356 423
#     4  12  23  41  70 106 137 181 232 292 354 420
#     4  11  24  43  65  99 135 181 233 280 355 424
#     4  10  20  42  60  90 120 188 202 284 338 414
#     4  10  26  45  70  99 131 196 239 284 348 424
#
# _framework density 21.676527
#
# number of rings (size 3 to 8) (size 9 to 14) (size 15 to 20)
#    0.000    0.960    3.200    3.360    6.720    0.640 
#    0.000    4.000    8.800    0.000    0.000    0.000 
#    0.000    0.000    0.000    0.000    0.000    0.000 
#
# Total GULP energy -279167.764564 kJ/mol
# GULP energy per Si atom -5583.355291 kJ/mol
# Density = 2.162719 g / cm^3
# Si number density = 21.676527 Si / 1000 Ang^3
#
#
#
# Elastic Constant Matrix: (Units=GPa)
#
#
# Indices 1 2 3 4 5 6 
#
# 1 66.1258 13.1726 11.5468 0.0000 0.0000 0.0000
# 2 13.1726 66.1958 16.4312 0.0000 0.0000 0.0000
# 3 11.5468 16.4312 112.9305 0.0000 0.0000 0.0000
# 4 0.0000 0.0000 0.0000 55.6766 0.0000 0.0000
# 5 0.0000 0.0000 0.0000 0.0000 23.6966 0.0000
# 6 0.0000 0.0000 0.0000 0.0000 0.0000 21.4630
#
#
#
# Elastic Compliance Matrix: (Units=1/GPa)
#
#
# Indices 1 2 3 4 5 6 
#
# 1 0.015905 -0.002865 -0.001209 0.000000 0.000000 0.000000
# 2 -0.002865 0.016189 -0.002063 0.000000 0.000000 0.000000
# 3 -0.001209 -0.002063 0.009279 0.000000 0.000000 0.000000
# 4 0.000000 0.000000 0.000000 0.017961 0.000000 0.000000
# 5 0.000000 0.000000 0.000000 0.000000 0.042200 0.000000
# 6 0.000000 0.000000 0.000000 0.000000 0.000000 0.046592
#
#
# Mechanical properties :
#
#
# Convention : Reuss Voigt Hill
#
# Bulk Modulus (GPa) = 34.36574 36.39483 35.38028
# Shear Modulus (GPa) = 29.39490 33.77404 31.58447
#
# Velocity S-wave (km/s) = 3.68648 3.95155 3.82132
# Velocity P-wave (km/s) = 5.83168 6.13564 5.98559
#
# Compressibility (1/GPa) = 0.02909875
#
# Stress axis : x y z
#
# Youngs Moduli (GPa) = 62.87517 61.77143 107.77317
#
# Poissons Ratio (x) = 0.17696 0.13034
# Poissons Ratio (y) = 0.18012 0.22228
# Poissons Ratio (z) = 0.07604 0.12740
#
# Static dielectric constant tensor:
#      x y z
#    x 1.839550 0.000000 0.000000 
#    y 0.000000 1.828630 0.000000 
#    z 0.000000 0.000000 1.870040 
# 
# From -- ./inp_files/61788.got.cif
#   From: 2010.05.17/outbox.cif.g08.bks.cpg/sg70_31_cif.got.tgz:61788.got - 2010.06.03 15:57:51.
