data_PCOD9515589
_publ_section_title
;
Structure prediction by ZEFSAII (Michael W. Deem and Ramdas Pophale) SiO2 
 PCOD9515589
Probable space group: F D D D
;
_chemical_formula_sum "Si O2"
_cell_formula_units_Z 160
_cell_length_a 17.500201
_cell_length_b 14.885802
_cell_length_c 27.943239
_cell_angle_alpha 90.000000
_cell_angle_beta 90.000000
_cell_angle_gamma 90.000000
_cell_volume 7279.340260
_symmetry_space_group_name_H-M "F D D D"
_symmetry_group_IT_number 70
_space_group.IT_coordinate_system_code '2'
_symmetry_cell_setting 'orthorhombic'
loop_
_space_group_symop_operation_xyz
x,y,z
1/4-x,1/4-y,z
x,1/4-y,1/4-z
1/4-x,y,1/4-z
-x,-y,-z
3/4+x,3/4+y,-z
-x,3/4+y,3/4+z
3/4+x,-y,3/4+z
x,1/2+y,1/2+z
1/4-x,3/4-y,1/2+z
x,3/4-y,3/4-z
1/4-x,1/2+y,3/4-z
-x,1/2-y,1/2-z
3/4+x,1/4+y,1/2-z
-x,1/4+y,1/4+z
3/4+x,1/2-y,1/4+z
1/2+x,y,1/2+z
3/4-x,1/4-y,1/2+z
1/2+x,1/4-y,3/4-z
3/4-x,y,3/4-z
1/2-x,-y,1/2-z
1/4+x,3/4+y,1/2-z
1/2-x,3/4+y,1/4+z
1/4+x,-y,1/4+z
1/2+x,1/2+y,z
3/4-x,3/4-y,z
1/2+x,3/4-y,1/4-z
3/4-x,1/2+y,1/4-z
1/2-x,1/2-y,-z
1/4+x,1/4+y,-z
1/2-x,1/4+y,3/4+z
1/4+x,1/2-y,3/4+z
loop_
_atom_site_type_symbol
_atom_site_label
_atom_site_fract_x
_atom_site_fract_y
_atom_site_fract_z
Si Si1 0.035889 0.375000 0.875000
Si Si2 0.907728 0.050412 0.268804
Si Si3 0.498819 0.547272 0.430310
Si Si4 0.375000 0.875000 0.738253
Si Si5 0.044560 0.931474 0.101648
Si Si6 0.814429 0.165581 0.575030
O O1 0.991213 0.453629 0.902160
O O2 0.095767 0.324448 0.911180
O O3 0.816947 0.056045 0.280269
O O4 0.938433 0.101049 0.315165
O O5 0.936490 0.102425 0.221510
O O6 0.926946 0.944172 0.267574
O O7 0.580336 0.555992 0.454820
O O8 0.495834 0.633594 0.396113
O O9 0.125000 0.967025 0.125000
O O10 0.989182 0.997773 0.072514
O O11 0.783026 0.125000 0.625000
#
# Coordination Sequence:
#
# PCOD9515589 Si02
#       6
#    16  32  32  16  32  32
#     4  10  22  38  64  90 126 178 216 272 338 400
#     4  11  24  39  66  98 131 170 222 282 335 408
#     4  11  23  41  62  95 132 171 224 274 340 409
#     4  12  22  40  63  92 132 174 215 278 336 410
#     4  10  23  41  63  97 133 172 223 277 337 402
#     4  10  21  42  65  94 129 178 222 271 342 400
#
# _framework density 21.980014000000001
#
# number of rings (size 3 to 8) (size 9 to 14) (size 15 to 20)
#    0.600    0.800    2.000    3.600    2.800    0.400 
#    0.000    0.000    0.000    7.200    0.000    0.000 
#    0.000    0.000    0.000    0.000    0.000    0.000 
#
# Total GULP energy -222871.167454 kJ/mol
# GULP energy per Si atom -5571.779186 kJ/mol
# Density = 2.192999 g / cm^3
# Si number density = 21.980014 Si / 1000 Ang^3
#
#
#
# Elastic Constant Matrix: (Units=GPa)
#
#
# Indices 1 2 3 4 5 6 
#
# 1 46.0799 36.1418 11.1352 0.0000 0.0000 0.0000
# 2 36.1418 113.6735 36.2905 0.0000 0.0000 0.0000
# 3 11.1352 36.2905 84.1360 0.0000 0.0000 0.0000
# 4 0.0000 0.0000 0.0000 48.6397 0.0000 0.0000
# 5 0.0000 0.0000 0.0000 0.0000 2.7505 0.0000
# 6 0.0000 0.0000 0.0000 0.0000 0.0000 25.3571
#
#
#
# Elastic Compliance Matrix: (Units=1/GPa)
#
#
# Indices 1 2 3 4 5 6 
#
# 1 0.028913 -0.009244 0.000161 0.000000 0.000000 0.000000
# 2 -0.009244 0.013157 -0.004452 0.000000 0.000000 0.000000
# 3 0.000161 -0.004452 0.013784 0.000000 0.000000 0.000000
# 4 0.000000 0.000000 0.000000 0.020559 0.000000 0.000000
# 5 0.000000 0.000000 0.000000 0.000000 0.363576 0.000000
# 6 0.000000 0.000000 0.000000 0.000000 0.000000 0.039437
#
#
# Mechanical properties :
#
#
# Convention : Reuss Voigt Hill
#
# Bulk Modulus (GPa) = 34.74079 45.66936 40.20507
# Shear Modulus (GPa) = 9.68820 26.03757 17.86288
#
# Velocity S-wave (km/s) = 2.10174 3.44554 2.85386
# Velocity P-wave (km/s) = 4.66151 6.05407 5.40284
#
# Compressibility (1/GPa) = 0.02878461
#
# Stress axis : x y z
#
# Youngs Moduli (GPa) = 34.58658 76.00266 72.54550
#
# Poissons Ratio (x) = 0.70257 -0.01166
# Poissons Ratio (y) = 0.31972 0.32296
# Poissons Ratio (z) = -0.00556 0.33835
#
# Static dielectric constant tensor:
#      x y z
#    x 1.842330 0.000000 0.000000 
#    y 0.000000 1.926280 0.000000 
#    z 0.000000 0.000000 1.834610 
# 
# From -- ./inp_files/66533.got.cif
#   From: 2010.05.17/outbox.cif.g08.bks.cpg/sg70_34_cif.got.tgz:66533.got - 2010.06.03 15:57:51.
