data_PCOD9515603
_publ_section_title
;
Structure prediction by ZEFSAII (Michael W. Deem and Ramdas Pophale) SiO2 
 PCOD9515603
Probable space group: F D D D
;
_chemical_formula_sum "Si O2"
_cell_formula_units_Z 120
_cell_length_a 23.838263
_cell_length_b 15.721995
_cell_length_c 14.282304
_cell_angle_alpha 90.000000
_cell_angle_beta 90.000000
_cell_angle_gamma 90.000000
_cell_volume 5352.794043
_symmetry_space_group_name_H-M "F D D D"
_symmetry_group_IT_number 70
_space_group.IT_coordinate_system_code '2'
_symmetry_cell_setting 'orthorhombic'
loop_
_space_group_symop_operation_xyz
x,y,z
1/4-x,1/4-y,z
x,1/4-y,1/4-z
1/4-x,y,1/4-z
-x,-y,-z
3/4+x,3/4+y,-z
-x,3/4+y,3/4+z
3/4+x,-y,3/4+z
x,1/2+y,1/2+z
1/4-x,3/4-y,1/2+z
x,3/4-y,3/4-z
1/4-x,1/2+y,3/4-z
-x,1/2-y,1/2-z
3/4+x,1/4+y,1/2-z
-x,1/4+y,1/4+z
3/4+x,1/2-y,1/4+z
1/2+x,y,1/2+z
3/4-x,1/4-y,1/2+z
1/2+x,1/4-y,3/4-z
3/4-x,y,3/4-z
1/2-x,-y,1/2-z
1/4+x,3/4+y,1/2-z
1/2-x,3/4+y,1/4+z
1/4+x,-y,1/4+z
1/2+x,1/2+y,z
3/4-x,3/4-y,z
1/2+x,3/4-y,1/4-z
3/4-x,1/2+y,1/4-z
1/2-x,1/2-y,-z
1/4+x,1/4+y,-z
1/2-x,1/4+y,3/4+z
1/4+x,1/2-y,3/4+z
loop_
_atom_site_type_symbol
_atom_site_label
_atom_site_fract_x
_atom_site_fract_y
_atom_site_fract_z
Si Si1 0.625000 0.125000 0.125000
Si Si2 0.669864 0.461290 0.824991
Si Si3 0.544710 0.982717 0.135303
Si Si4 0.743335 0.099532 0.732162
Si Si5 0.875000 0.375000 0.578798
O O1 0.668712 0.188846 0.174189
O O2 0.650868 0.375000 0.875000
O O3 0.676984 0.454548 0.712887
O O4 0.733005 0.481924 0.861106
O O5 0.632728 0.540579 0.858748
O O6 0.535977 0.905105 0.205240
O O7 0.750625 0.125000 0.625000
O O8 0.680495 0.120878 0.766120
O O9 0.750000 0.000000 0.750000
#
# Coordination Sequence:
#
# PCOD9515603 Si02
#       5
#     8  32  32  32  16
#     4  12  22  44  68 110 142 178 246 308 400 416
#     4  10  21  42  69 103 143 182 240 304 383 434
#     4  10  24  39  70 105 144 184 239 314 366 458
#     4  11  27  48  73 104 154 204 260 305 383 464
#     4  10  24  44  74 106 146 194 248 314 377 457
#
# _framework density 22.418198
#
# number of rings (size 3 to 8) (size 9 to 14) (size 15 to 20)
#    0.000    1.600    1.333    1.200    7.467    7.467 
#    0.000    0.000    0.000    0.000    0.000    0.000 
#    0.000    0.000    0.000    0.000    0.000    0.000 
#
# Total GULP energy -167855.373947 kJ/mol
# GULP energy per Si atom -5595.179132 kJ/mol
# Density = 2.236717 g / cm^3
# Si number density = 22.418198 Si / 1000 Ang^3
#
#
#
# Elastic Constant Matrix: (Units=GPa)
#
#
# Indices 1 2 3 4 5 6 
#
# 1 71.3331 42.3112 35.3141 0.0000 0.0000 0.0000
# 2 42.3112 228.4607 110.8231 0.0000 0.0000 0.0000
# 3 35.3141 110.8231 184.8805 0.0000 0.0000 0.0000
# 4 0.0000 0.0000 0.0000 29.6422 0.0000 0.0000
# 5 0.0000 0.0000 0.0000 0.0000 34.3097 0.0000
# 6 0.0000 0.0000 0.0000 0.0000 0.0000 54.6338
#
#
#
# Elastic Compliance Matrix: (Units=1/GPa)
#
#
# Indices 1 2 3 4 5 6 
#
# 1 0.016174 -0.002110 -0.001824 0.000000 0.000000 0.000000
# 2 -0.002110 0.006447 -0.003461 0.000000 0.000000 0.000000
# 3 -0.001824 -0.003461 0.007832 0.000000 0.000000 0.000000
# 4 0.000000 0.000000 0.000000 0.033736 0.000000 0.000000
# 5 0.000000 0.000000 0.000000 0.000000 0.029146 0.000000
# 6 0.000000 0.000000 0.000000 0.000000 0.000000 0.018304
#
#
# Mechanical properties :
#
#
# Convention : Reuss Voigt Hill
#
# Bulk Modulus (GPa) = 63.85433 95.73012 79.79222
# Shear Modulus (GPa) = 37.97913 43.46555 40.72234
#
# Velocity S-wave (km/s) = 4.12043 4.40802 4.26665
# Velocity P-wave (km/s) = 7.15419 8.28868 7.74224
#
# Compressibility (1/GPa) = 0.01566065
#
# Stress axis : x y z
#
# Youngs Moduli (GPa) = 61.82887 155.10887 127.67705
#
# Poissons Ratio (x) = 0.32735 0.23292
# Poissons Ratio (y) = 0.13049 0.44195
# Poissons Ratio (z) = 0.11279 0.53690
#
# Static dielectric constant tensor:
#      x y z
#    x 1.845260 0.000000 0.000000 
#    y 0.000000 1.789320 0.000000 
#    z 0.000000 0.000000 1.829240 
# 
# From -- ./inp_files/30687.got.cif
#   From: 2010.05.17/outbox.cif.g08.bks.cpg/sg70_16_cif.got.tgz:30687.got - 2010.06.03 15:57:51.
