data_PCOD9515306
_publ_section_title
;
Structure prediction by ZEFSAII (Michael W. Deem and Ramdas Pophale) SiO2 
 PCOD9515306
Probable space group: F D D D
;
_chemical_formula_sum "Si O2"
_cell_formula_units_Z 208
_cell_length_a 16.883472
_cell_length_b 23.460156
_cell_length_c 26.855565
_cell_angle_alpha 90.000000
_cell_angle_beta 90.000000
_cell_angle_gamma 90.000000
_cell_volume 10637.190849
_symmetry_space_group_name_H-M "F D D D"
_symmetry_group_IT_number 70
_space_group.IT_coordinate_system_code '2'
_symmetry_cell_setting 'orthorhombic'
loop_
_space_group_symop_operation_xyz
x,y,z
1/4-x,1/4-y,z
x,1/4-y,1/4-z
1/4-x,y,1/4-z
-x,-y,-z
3/4+x,3/4+y,-z
-x,3/4+y,3/4+z
3/4+x,-y,3/4+z
x,1/2+y,1/2+z
1/4-x,3/4-y,1/2+z
x,3/4-y,3/4-z
1/4-x,1/2+y,3/4-z
-x,1/2-y,1/2-z
3/4+x,1/4+y,1/2-z
-x,1/4+y,1/4+z
3/4+x,1/2-y,1/4+z
1/2+x,y,1/2+z
3/4-x,1/4-y,1/2+z
1/2+x,1/4-y,3/4-z
3/4-x,y,3/4-z
1/2-x,-y,1/2-z
1/4+x,3/4+y,1/2-z
1/2-x,3/4+y,1/4+z
1/4+x,-y,1/4+z
1/2+x,1/2+y,z
3/4-x,3/4-y,z
1/2+x,3/4-y,1/4-z
3/4-x,1/2+y,1/4-z
1/2-x,1/2-y,-z
1/4+x,1/4+y,-z
1/2-x,1/4+y,3/4+z
1/4+x,1/2-y,3/4+z
loop_
_atom_site_type_symbol
_atom_site_label
_atom_site_fract_x
_atom_site_fract_y
_atom_site_fract_z
Si Si1 0.287981 0.675238 0.574153
Si Si2 0.201538 0.207239 0.395844
Si Si3 0.625000 0.125000 0.275882
Si Si4 0.364385 0.274653 0.706139
Si Si5 0.194160 0.728661 0.225108
Si Si6 0.875000 0.728818 0.375000
Si Si7 0.125000 0.125000 0.215141
Si Si8 0.105128 0.442704 0.318989
O O1 0.311682 0.731527 0.543332
O O2 0.202740 0.646485 0.564423
O O3 0.352045 0.625298 0.560999
O O4 0.298992 0.694793 0.631609
O O5 0.176205 0.166542 0.439932
O O6 0.144859 0.197164 0.348359
O O7 0.292205 0.196363 0.381870
O O8 0.183347 0.272687 0.413310
O O9 0.680369 0.165580 0.244207
O O10 0.284276 0.238233 0.709962
O O11 0.359465 0.321497 0.748744
O O12 0.139572 0.738373 0.176748
O O13 0.173932 0.773333 0.269991
#
# Coordination Sequence:
#
# PCOD9515306 Si02
#       8
#    32  32  16  32  32  16  16  32
#     4  10  21  36  61  88 121 166 213 261 321 372
#     4   9  20  39  61  84 124 165 207 254 319 389
#     4  10  21  37  64  85 123 166 207 253 328 378
#     4  10  21  38  58  88 126 164 207 259 327 378
#     4  10  21  39  58  91 124 159 206 264 309 388
#     4  10  22  37  62  90 120 164 212 259 314 376
#     4  12  21  37  62  89 125 166 218 270 310 378
#     4   9  19  38  59  84 121 165 201 256 322 369
#
# _framework density 19.554034999999999
#
# number of rings (size 3 to 8) (size 9 to 14) (size 15 to 20)
#    0.000    2.154    1.538    0.923    0.000    6.462 
#    0.000    3.077    0.000    0.000    0.000    0.000 
#    0.000    0.000    0.000    0.000    0.000    0.000 
#
# Total GULP energy -289555.435805 kJ/mol
# GULP energy per Si atom -5568.373765 kJ/mol
# Density = 1.950953 g / cm^3
# Si number density = 19.554035 Si / 1000 Ang^3
#
#
#
# Elastic Constant Matrix: (Units=GPa)
#
#
# Indices 1 2 3 4 5 6 
#
# 1 68.8715 35.3134 16.6576 0.0000 0.0000 0.0000
# 2 35.3134 91.2711 47.9490 0.0000 0.0000 0.0000
# 3 16.6576 47.9490 97.6201 0.0000 0.0000 0.0000
# 4 0.0000 0.0000 0.0000 13.0733 0.0000 0.0000
# 5 0.0000 0.0000 0.0000 0.0000 16.2207 0.0000
# 6 0.0000 0.0000 0.0000 0.0000 0.0000 20.9642
#
#
#
# Elastic Compliance Matrix: (Units=1/GPa)
#
#
# Indices 1 2 3 4 5 6 
#
# 1 0.018129 -0.007263 0.000474 0.000000 0.000000 0.000000
# 2 -0.007263 0.017677 -0.007443 0.000000 0.000000 0.000000
# 3 0.000474 -0.007443 0.013819 0.000000 0.000000 0.000000
# 4 0.000000 0.000000 0.000000 0.076492 0.000000 0.000000
# 5 0.000000 0.000000 0.000000 0.000000 0.061650 0.000000
# 6 0.000000 0.000000 0.000000 0.000000 0.000000 0.047700
#
#
# Mechanical properties :
#
#
# Convention : Reuss Voigt Hill
#
# Bulk Modulus (GPa) = 47.25860 50.84474 49.05167
# Shear Modulus (GPa) = 18.45121 20.57449 19.51285
#
# Velocity S-wave (km/s) = 3.07514 3.24726 3.16237
# Velocity P-wave (km/s) = 6.06872 6.33390 6.20272
#
# Compressibility (1/GPa) = 0.02116017
#
# Stress axis : x y z
#
# Youngs Moduli (GPa) = 55.15898 56.57118 72.36525
#
# Poissons Ratio (x) = 0.41090 -0.03431
# Poissons Ratio (y) = 0.40064 0.53862
# Poissons Ratio (z) = -0.02615 0.42106
#
# Static dielectric constant tensor:
#      x y z
#    x 1.704910 0.000000 0.000000 
#    y 0.000000 1.690100 0.000000 
#    z 0.000000 0.000000 1.724250 
# 
# From -- ./inp_files/59657.got.cif
#   From: 2010.05.17/outbox.cif.g08.bks.cpg/sg70_30_cif.got.tgz:59657.got - 2010.06.03 15:57:51.
