data_PCOD9515741
_publ_section_title
;
Structure prediction by ZEFSAII (Michael W. Deem and Ramdas Pophale) SiO2 
 PCOD9515741
Probable space group: F D D D
;
_chemical_formula_sum "Si O2"
_cell_formula_units_Z 192
_cell_length_a 16.017815
_cell_length_b 23.800418
_cell_length_c 28.041450
_cell_angle_alpha 90.000000
_cell_angle_beta 90.000000
_cell_angle_gamma 90.000000
_cell_volume 10690.261401
_symmetry_space_group_name_H-M "F D D D"
_symmetry_group_IT_number 70
_space_group.IT_coordinate_system_code '2'
_symmetry_cell_setting 'orthorhombic'
loop_
_space_group_symop_operation_xyz
x,y,z
1/4-x,1/4-y,z
x,1/4-y,1/4-z
1/4-x,y,1/4-z
-x,-y,-z
3/4+x,3/4+y,-z
-x,3/4+y,3/4+z
3/4+x,-y,3/4+z
x,1/2+y,1/2+z
1/4-x,3/4-y,1/2+z
x,3/4-y,3/4-z
1/4-x,1/2+y,3/4-z
-x,1/2-y,1/2-z
3/4+x,1/4+y,1/2-z
-x,1/4+y,1/4+z
3/4+x,1/2-y,1/4+z
1/2+x,y,1/2+z
3/4-x,1/4-y,1/2+z
1/2+x,1/4-y,3/4-z
3/4-x,y,3/4-z
1/2-x,-y,1/2-z
1/4+x,3/4+y,1/2-z
1/2-x,3/4+y,1/4+z
1/4+x,-y,1/4+z
1/2+x,1/2+y,z
3/4-x,3/4-y,z
1/2+x,3/4-y,1/4-z
3/4-x,1/2+y,1/4-z
1/2-x,1/2-y,-z
1/4+x,1/4+y,-z
1/2-x,1/4+y,3/4+z
1/4+x,1/2-y,3/4+z
loop_
_atom_site_type_symbol
_atom_site_label
_atom_site_fract_x
_atom_site_fract_y
_atom_site_fract_z
Si Si1 0.592142 0.926800 0.339366
Si Si2 0.544719 0.731925 0.152513
Si Si3 0.737245 0.895066 0.665305
Si Si4 0.875000 0.375000 0.086569
Si Si5 0.781545 0.391121 0.273734
Si Si6 0.773340 0.764448 0.554649
Si Si7 0.625000 0.950405 0.125000
O O1 0.612389 0.875000 0.375000
O O2 0.532172 0.969316 0.367831
O O3 0.537357 0.900073 0.296589
O O4 0.670486 0.962530 0.322550
O O5 0.625000 0.707796 0.125000
O O6 0.561631 0.796577 0.163149
O O7 0.521010 0.701134 0.201308
O O8 0.803793 0.897364 0.622526
O O9 0.776888 0.891833 0.717224
O O10 0.680187 0.841010 0.657582
O O11 0.828847 0.322776 0.059209
O O12 0.875000 0.375000 0.287951
O O13 0.750000 0.750000 0.500000
O O14 0.691942 0.769575 0.589676
#
# Coordination Sequence:
#
# PCOD9515741 Si02
#       7
#    32  32  32  16  32  32  16
#     4  10  22  39  62  90 130 165 200 256 320 383
#     4  11  20  35  57  87 125 158 189 240 309 378
#     4  11  20  38  57  87 121 152 207 252 304 373
#     4  10  22  38  66  85 115 168 202 268 322 354
#     4  11  21  33  58  93 119 157 196 245 313 378
#     4  11  23  46  65  93 127 169 223 270 320 384
#     4  10  24  40  67  88 123 172 214 268 320 362
#
# _framework density 17.960272
#
# number of rings (size 3 to 8) (size 9 to 14) (size 15 to 20)
#    0.000    1.333    5.000    1.500    0.000    0.000 
#    3.000    0.000    0.000    0.000    0.000    0.000 
#    0.000    0.000    0.000    0.000    0.000    0.000 
#
# Total GULP energy -267459.768312 kJ/mol
# GULP energy per Si atom -5572.078507 kJ/mol
# Density = 1.791939 g / cm^3
# Si number density = 17.960272 Si / 1000 Ang^3
#
#
#
# Elastic Constant Matrix: (Units=GPa)
#
#
# Indices 1 2 3 4 5 6 
#
# 1 118.3640 52.2486 59.4781 0.0000 0.0000 0.0000
# 2 52.2486 95.8776 60.6135 0.0000 0.0000 0.0000
# 3 59.4781 60.6135 126.6107 0.0000 0.0000 0.0000
# 4 0.0000 0.0000 0.0000 13.1703 0.0000 0.0000
# 5 0.0000 0.0000 0.0000 0.0000 47.9155 0.0000
# 6 0.0000 0.0000 0.0000 0.0000 0.0000 -134.1360
#
#
#
# Elastic Compliance Matrix: (Units=1/GPa)
#
#
# Indices 1 2 3 4 5 6 
#
# 1 0.012200 -0.004338 -0.003654 0.000000 0.000000 0.000000
# 2 -0.004338 0.016499 -0.005861 0.000000 0.000000 0.000000
# 3 -0.003654 -0.005861 0.012421 0.000000 0.000000 0.000000
# 4 0.000000 0.000000 0.000000 0.075928 0.000000 0.000000
# 5 0.000000 0.000000 0.000000 0.000000 0.020870 0.000000
# 6 0.000000 0.000000 0.000000 0.000000 0.000000 -0.007455
#
#
# Mechanical properties :
#
#
# Convention : Reuss Voigt Hill
#
# Bulk Modulus (GPa) = 74.55343 76.17029 75.36186
# Shear Modulus (GPa) = 30.74261 -3.37590 13.68335
#
# Velocity S-wave (km/s) = 4.14176 -1.37249 2.76319
# Velocity P-wave (km/s) = 8.02948 6.32383 7.22715
#
# Compressibility (1/GPa) = 0.01341320
#
# Stress axis : x y z
#
# Youngs Moduli (GPa) = 81.96920 60.60885 80.51015
#
# Poissons Ratio (x) = 0.26292 0.29421
# Poissons Ratio (y) = 0.35558 0.47187
# Poissons Ratio (z) = 0.29954 0.35523
#
# Static dielectric constant tensor:
#      x y z
#    x 1.637560 0.000000 0.000000 
#    y 0.000000 1.634870 0.000000 
#    z 0.000000 0.000000 1.607010 
# 
# From -- ./inp_files/58751.got.cif
#   From: 2010.05.17/outbox.cif.g08.bks.cpg/sg70_30_cif.got.tgz:58751.got - 2010.06.03 15:57:51.
