data_PCOD9515801
_publ_section_title
;
Structure prediction by ZEFSAII (Michael W. Deem and Ramdas Pophale) SiO2 
 PCOD9515801
Probable space group: F D D D
;
_chemical_formula_sum "Si O2"
_cell_formula_units_Z 160
_cell_length_a 16.934400
_cell_length_b 20.295287
_cell_length_c 19.630785
_cell_angle_alpha 90.000000
_cell_angle_beta 90.000000
_cell_angle_gamma 90.000000
_cell_volume 6746.875211
_symmetry_space_group_name_H-M "F D D D"
_symmetry_group_IT_number 70
_space_group.IT_coordinate_system_code '2'
_symmetry_cell_setting 'orthorhombic'
loop_
_space_group_symop_operation_xyz
x,y,z
1/4-x,1/4-y,z
x,1/4-y,1/4-z
1/4-x,y,1/4-z
-x,-y,-z
3/4+x,3/4+y,-z
-x,3/4+y,3/4+z
3/4+x,-y,3/4+z
x,1/2+y,1/2+z
1/4-x,3/4-y,1/2+z
x,3/4-y,3/4-z
1/4-x,1/2+y,3/4-z
-x,1/2-y,1/2-z
3/4+x,1/4+y,1/2-z
-x,1/4+y,1/4+z
3/4+x,1/2-y,1/4+z
1/2+x,y,1/2+z
3/4-x,1/4-y,1/2+z
1/2+x,1/4-y,3/4-z
3/4-x,y,3/4-z
1/2-x,-y,1/2-z
1/4+x,3/4+y,1/2-z
1/2-x,3/4+y,1/4+z
1/4+x,-y,1/4+z
1/2+x,1/2+y,z
3/4-x,3/4-y,z
1/2+x,3/4-y,1/4-z
3/4-x,1/2+y,1/4-z
1/2-x,1/2-y,-z
1/4+x,1/4+y,-z
1/2-x,1/4+y,3/4+z
1/4+x,1/2-y,3/4+z
loop_
_atom_site_type_symbol
_atom_site_label
_atom_site_fract_x
_atom_site_fract_y
_atom_site_fract_z
Si Si1 0.875000 0.977506 0.375000
Si Si2 0.712487 0.815827 0.149636
Si Si3 0.274477 0.316705 0.928174
Si Si4 0.875000 0.875000 0.483348
Si Si5 0.117837 0.767514 0.475031
Si Si6 0.216585 0.695959 0.897674
O O1 0.838769 0.928583 0.431628
O O2 0.802734 0.020633 0.345741
O O3 0.625000 0.831572 0.125000
O O4 0.737031 0.747229 0.118600
O O5 0.699465 0.802794 0.229668
O O6 0.767482 0.872338 0.120433
O O7 0.289189 0.375000 0.875000
O O8 0.189939 0.319439 0.965630
O O9 0.343505 0.292654 0.979890
O O10 0.824373 0.826322 0.531975
O O11 0.083836 0.739187 0.404708
#
# Coordination Sequence:
#
# PCOD9515801 Si02
#       6
#    16  32  32  16  32  32
#     4  11  26  50  76 100 145 190 224 308 351 412
#     4  10  22  40  64  99 138 180 238 284 345 431
#     4  10  23  44  66 103 143 186 233 295 360 415
#     4  11  26  46  72 112 137 178 250 282 359 432
#     4  10  24  43  70 102 141 184 235 297 349 425
#     4  12  23  47  73 104 140 191 233 294 358 419
#
# _framework density 23.714682
#
# number of rings (size 3 to 8) (size 9 to 14) (size 15 to 20)
#    0.000    1.400    1.000    3.000    0.000   11.600 
#   14.400    0.000    0.000    0.000    0.000    0.000 
#    0.000    0.000    0.000    0.000    0.000    0.000 
#
# Total GULP energy -223161.324462 kJ/mol
# GULP energy per Si atom -5579.033112 kJ/mol
# Density = 2.366071 g / cm^3
# Si number density = 23.714682 Si / 1000 Ang^3
#
#
#
# Elastic Constant Matrix: (Units=GPa)
#
#
# Indices 1 2 3 4 5 6 
#
# 1 86.5209 14.1500 48.5126 0.0000 0.0000 0.0000
# 2 14.1500 89.1040 33.7079 0.0000 0.0000 0.0000
# 3 48.5126 33.7079 113.6473 0.0000 0.0000 0.0000
# 4 0.0000 0.0000 0.0000 48.2882 0.0000 0.0000
# 5 0.0000 0.0000 0.0000 0.0000 33.4280 0.0000
# 6 0.0000 0.0000 0.0000 0.0000 0.0000 21.7991
#
#
#
# Elastic Compliance Matrix: (Units=1/GPa)
#
#
# Indices 1 2 3 4 5 6 
#
# 1 0.015195 0.000046 -0.006500 0.000000 0.000000 0.000000
# 2 0.000046 0.012641 -0.003769 0.000000 0.000000 0.000000
# 3 -0.006500 -0.003769 0.012692 0.000000 0.000000 0.000000
# 4 0.000000 0.000000 0.000000 0.020709 0.000000 0.000000
# 5 0.000000 0.000000 0.000000 0.000000 0.029915 0.000000
# 6 0.000000 0.000000 0.000000 0.000000 0.000000 0.045873
#
#
# Mechanical properties :
#
#
# Convention : Reuss Voigt Hill
#
# Bulk Modulus (GPa) = 49.79603 53.55700 51.67651
# Shear Modulus (GPa) = 30.45710 33.56318 32.01014
#
# Velocity S-wave (km/s) = 3.58762 3.76612 3.67795
# Velocity P-wave (km/s) = 6.18101 6.44550 6.31464
#
# Compressibility (1/GPa) = 0.02008192
#
# Stress axis : x y z
#
# Youngs Moduli (GPa) = 65.81162 79.10533 78.79205
#
# Poissons Ratio (x) = -0.00363 0.51214
# Poissons Ratio (y) = -0.00302 0.29697
# Poissons Ratio (z) = 0.42777 0.29815
#
# Static dielectric constant tensor:
#      x y z
#    x 1.982950 0.000000 0.000000 
#    y 0.000000 1.907780 0.000000 
#    z 0.000000 0.000000 1.998980 
# 
# From -- ./inp_files/43683.got.cif
#   From: 2010.05.17/outbox.cif.g08.bks.cpg/sg70_22_cif.got.tgz:43683.got - 2010.06.03 15:57:51.
