data_PCOD9515558
_publ_section_title
;
Structure prediction by ZEFSAII (Michael W. Deem and Ramdas Pophale) SiO2 
 PCOD9515558
Probable space group: F D D D
;
_chemical_formula_sum "Si O2"
_cell_formula_units_Z 144
_cell_length_a 15.802800
_cell_length_b 23.597243
_cell_length_c 18.168005
_cell_angle_alpha 90.000000
_cell_angle_beta 90.000000
_cell_angle_gamma 90.000000
_cell_volume 6774.894697
_symmetry_space_group_name_H-M "F D D D"
_symmetry_group_IT_number 70
_space_group.IT_coordinate_system_code '2'
_symmetry_cell_setting 'orthorhombic'
loop_
_space_group_symop_operation_xyz
x,y,z
1/4-x,1/4-y,z
x,1/4-y,1/4-z
1/4-x,y,1/4-z
-x,-y,-z
3/4+x,3/4+y,-z
-x,3/4+y,3/4+z
3/4+x,-y,3/4+z
x,1/2+y,1/2+z
1/4-x,3/4-y,1/2+z
x,3/4-y,3/4-z
1/4-x,1/2+y,3/4-z
-x,1/2-y,1/2-z
3/4+x,1/4+y,1/2-z
-x,1/4+y,1/4+z
3/4+x,1/2-y,1/4+z
1/2+x,y,1/2+z
3/4-x,1/4-y,1/2+z
1/2+x,1/4-y,3/4-z
3/4-x,y,3/4-z
1/2-x,-y,1/2-z
1/4+x,3/4+y,1/2-z
1/2-x,3/4+y,1/4+z
1/4+x,-y,1/4+z
1/2+x,1/2+y,z
3/4-x,3/4-y,z
1/2+x,3/4-y,1/4-z
3/4-x,1/2+y,1/4-z
1/2-x,1/2-y,-z
1/4+x,1/4+y,-z
1/2-x,1/4+y,3/4+z
1/4+x,1/2-y,3/4+z
loop_
_atom_site_type_symbol
_atom_site_label
_atom_site_fract_x
_atom_site_fract_y
_atom_site_fract_z
Si Si1 0.725866 0.052568 0.004444
Si Si2 0.289752 0.928495 0.509353
Si Si3 0.057586 0.727273 0.844451
Si Si4 0.663651 0.924409 0.738439
Si Si5 0.125000 0.625000 0.625000
Si Si6 0.625000 0.125000 0.125000
O O1 0.813712 0.083149 0.981368
O O2 0.680009 0.086348 0.069127
O O3 0.676986 0.039636 0.928501
O O4 0.750987 0.989355 0.027810
O O5 0.380597 0.935078 0.549552
O O6 0.318320 0.915020 0.426286
O O7 0.216739 0.882550 0.521770
O O8 0.075682 0.791069 0.815813
O O9 0.960845 0.715562 0.819720
#
# Coordination Sequence:
#
# PCOD9515558 Si02
#       6
#    32  32  32  32   8   8
#     4  11  27  47  70  91 141 193 244 291 341 414
#     4  11  23  40  70 109 138 176 221 290 371 423
#     4  10  21  41  68 109 142 173 219 291 364 428
#     4  10  21  41  70 106 137 170 227 284 364 426
#     4  12  20  36  68 114 156 152 200 304 378 440
#     4  12  32  56  60  90 142 214 260 292 320 394
#
# _framework density 21.254943000000001
#
# number of rings (size 3 to 8) (size 9 to 14) (size 15 to 20)
#    0.000    1.333    2.222    2.000    9.333    4.444 
#    4.000    5.556    0.000    0.000    0.000    0.000 
#    0.000    0.000    0.000    0.000    0.000    0.000 
#
# Total GULP energy -200674.238366 kJ/mol
# GULP energy per Si atom -5574.284399 kJ/mol
# Density = 2.120657 g / cm^3
# Si number density = 21.254943 Si / 1000 Ang^3
#
#
#
# Elastic Constant Matrix: (Units=GPa)
#
#
# Indices 1 2 3 4 5 6 
#
# 1 88.0757 48.7722 30.0945 0.0000 0.0000 0.0000
# 2 48.7722 102.9353 13.4834 0.0000 0.0000 0.0000
# 3 30.0945 13.4834 111.6646 0.0000 0.0000 0.0000
# 4 0.0000 0.0000 0.0000 24.5423 0.0000 0.0000
# 5 0.0000 0.0000 0.0000 0.0000 16.4549 0.0000
# 6 0.0000 0.0000 0.0000 0.0000 0.0000 39.0202
#
#
#
# Elastic Compliance Matrix: (Units=1/GPa)
#
#
# Indices 1 2 3 4 5 6 
#
# 1 0.016708 -0.007444 -0.003604 0.000000 0.000000 0.000000
# 2 -0.007444 0.013188 0.000414 0.000000 0.000000 0.000000
# 3 -0.003604 0.000414 0.009877 0.000000 0.000000 0.000000
# 4 0.000000 0.000000 0.000000 0.040746 0.000000 0.000000
# 5 0.000000 0.000000 0.000000 0.000000 0.060772 0.000000
# 6 0.000000 0.000000 0.000000 0.000000 0.000000 0.025628
#
#
# Mechanical properties :
#
#
# Convention : Reuss Voigt Hill
#
# Bulk Modulus (GPa) = 54.04383 54.15285 54.09834
# Shear Modulus (GPa) = 25.72622 30.02518 27.87570
#
# Velocity S-wave (km/s) = 3.48280 3.76256 3.62538
# Velocity P-wave (km/s) = 6.45406 6.66400 6.55987
#
# Compressibility (1/GPa) = 0.01850350
#
# Stress axis : x y z
#
# Youngs Moduli (GPa) = 59.85327 75.82771 101.24834
#
# Poissons Ratio (x) = 0.56448 0.36489
# Poissons Ratio (y) = 0.44556 -0.04190
# Poissons Ratio (z) = 0.21571 -0.03138
#
# Static dielectric constant tensor:
#      x y z
#    x 1.820460 0.000000 0.000000 
#    y 0.000000 1.830590 0.000000 
#    z 0.000000 0.000000 1.807440 
# 
# From -- ./inp_files/26632.got.cif
#   From: 2010.05.17/outbox.cif.g08.bks.cpg/sg70_14_cif.got.tgz:26632.got - 2010.06.03 15:57:51.
