data_PCOD9515385
_publ_section_title
;
Structure prediction by ZEFSAII (Michael W. Deem and Ramdas Pophale) SiO2 
 PCOD9515385
Probable space group: F D D D
;
_chemical_formula_sum "Si O2"
_cell_formula_units_Z 168
_cell_length_a 27.007554
_cell_length_b 14.520279
_cell_length_c 19.707544
_cell_angle_alpha 90.000000
_cell_angle_beta 90.000000
_cell_angle_gamma 90.000000
_cell_volume 7728.455652
_symmetry_space_group_name_H-M "F D D D"
_symmetry_group_IT_number 70
_space_group.IT_coordinate_system_code '2'
_symmetry_cell_setting 'orthorhombic'
loop_
_space_group_symop_operation_xyz
x,y,z
1/4-x,1/4-y,z
x,1/4-y,1/4-z
1/4-x,y,1/4-z
-x,-y,-z
3/4+x,3/4+y,-z
-x,3/4+y,3/4+z
3/4+x,-y,3/4+z
x,1/2+y,1/2+z
1/4-x,3/4-y,1/2+z
x,3/4-y,3/4-z
1/4-x,1/2+y,3/4-z
-x,1/2-y,1/2-z
3/4+x,1/4+y,1/2-z
-x,1/4+y,1/4+z
3/4+x,1/2-y,1/4+z
1/2+x,y,1/2+z
3/4-x,1/4-y,1/2+z
1/2+x,1/4-y,3/4-z
3/4-x,y,3/4-z
1/2-x,-y,1/2-z
1/4+x,3/4+y,1/2-z
1/2-x,3/4+y,1/4+z
1/4+x,-y,1/4+z
1/2+x,1/2+y,z
3/4-x,3/4-y,z
1/2+x,3/4-y,1/4-z
3/4-x,1/2+y,1/4-z
1/2-x,1/2-y,-z
1/4+x,1/4+y,-z
1/2-x,1/4+y,3/4+z
1/4+x,1/2-y,3/4+z
loop_
_atom_site_type_symbol
_atom_site_label
_atom_site_fract_x
_atom_site_fract_y
_atom_site_fract_z
Si Si1 0.887718 0.271928 0.110963
Si Si2 0.875000 0.375000 0.769020
Si Si3 0.207299 0.125000 0.625000
Si Si4 0.826541 0.195603 0.336159
Si Si5 0.955153 0.517517 0.191407
Si Si6 0.483459 0.806613 0.184819
Si Si7 0.875000 0.875000 0.875000
O O1 0.875000 0.375000 0.135722
O O2 0.839832 0.220837 0.138268
O O3 0.939592 0.251100 0.146065
O O4 0.890858 0.290674 0.030496
O O5 0.829688 0.407034 0.815591
O O6 0.244168 0.197672 0.658329
O O7 0.875000 0.153223 0.375000
O O8 0.810748 0.176544 0.259037
O O9 0.779550 0.183513 0.384002
O O10 0.841955 0.304032 0.333165
O O11 0.965393 0.409035 0.204249
O O12 0.500000 0.750000 0.250000
#
# Coordination Sequence:
#
# PCOD9515385 Si02
#       7
#    32  16  16  32  32  32   8
#     4   8  19  38  63  86 127 171 212 269 336 401
#     4   9  20  45  64  87 133 180 226 254 347 404
#     4  11  24  42  67  98 129 184 221 276 328 406
#     4  10  21  38  62  93 129 173 212 269 336 408
#     4  11  23  40  65  99 129 173 224 276 338 400
#     4  11  21  38  66  99 129 170 219 280 339 400
#     4   8  20  34  62  86 130 178 192 258 352 398
#
# _framework density 21.737850000000002
#
# number of rings (size 3 to 8) (size 9 to 14) (size 15 to 20)
#    1.143    0.952    0.000    3.429    4.000    0.762 
#    3.429    6.667    0.000    0.000    0.000    0.000 
#    0.000    0.000    0.000    0.000    0.000    0.000 
#
# Total GULP energy -233907.966305 kJ/mol
# GULP energy per Si atom -5569.237293 kJ/mol
# Density = 2.168837 g / cm^3
# Si number density = 21.737850 Si / 1000 Ang^3
#
#
#
# Elastic Constant Matrix: (Units=GPa)
#
#
# Indices 1 2 3 4 5 6 
#
# 1 166.5797 6.5280 80.9711 0.0000 0.0000 0.0000
# 2 6.5280 50.6860 17.8997 0.0000 0.0000 0.0000
# 3 80.9711 17.8997 162.0507 0.0000 0.0000 0.0000
# 4 0.0000 0.0000 0.0000 18.7973 0.0000 0.0000
# 5 0.0000 0.0000 0.0000 0.0000 69.7068 0.0000
# 6 0.0000 0.0000 0.0000 0.0000 0.0000 11.2617
#
#
#
# Elastic Compliance Matrix: (Units=1/GPa)
#
#
# Indices 1 2 3 4 5 6 
#
# 1 0.007936 0.000394 -0.004009 0.000000 0.000000 0.000000
# 2 0.000394 0.020550 -0.002467 0.000000 0.000000 0.000000
# 3 -0.004009 -0.002467 0.008447 0.000000 0.000000 0.000000
# 4 0.000000 0.000000 0.000000 0.053199 0.000000 0.000000
# 5 0.000000 0.000000 0.000000 0.000000 0.014346 0.000000
# 6 0.000000 0.000000 0.000000 0.000000 0.000000 0.088797
#
#
# Mechanical properties :
#
#
# Convention : Reuss Voigt Hill
#
# Bulk Modulus (GPa) = 40.37348 65.56823 52.97085
# Shear Modulus (GPa) = 23.39792 38.21433 30.80613
#
# Velocity S-wave (km/s) = 3.28436 4.19736 3.76861
# Velocity P-wave (km/s) = 5.74421 7.32933 6.58464
#
# Compressibility (1/GPa) = 0.02476873
#
# Stress axis : x y z
#
# Youngs Moduli (GPa) = 126.00139 48.66255 118.39175
#
# Poissons Ratio (x) = -0.01916 0.47464
# Poissons Ratio (y) = -0.04960 0.29202
# Poissons Ratio (z) = 0.50514 0.12003
#
# Static dielectric constant tensor:
#      x y z
#    x 1.786890 0.000000 0.000000 
#    y 0.000000 1.825930 0.000000 
#    z 0.000000 0.000000 1.805490 
# 
# From -- ./inp_files/46877.got.cif
#   From: 2010.05.17/outbox.cif.g08.bks.cpg/sg70_24_cif.got.tgz:46877.got - 2010.06.03 15:57:51.
