data_PCOD9515925
_publ_section_title
;
Structure prediction by ZEFSAII (Michael W. Deem and Ramdas Pophale) SiO2 
 PCOD9515925
Probable space group: F D D D
;
_chemical_formula_sum "Si O2"
_cell_formula_units_Z 160
_cell_length_a 30.333622
_cell_length_b 11.554467
_cell_length_c 19.985546
_cell_angle_alpha 90.000000
_cell_angle_beta 90.000000
_cell_angle_gamma 90.000000
_cell_volume 7004.710722
_symmetry_space_group_name_H-M "F D D D"
_symmetry_group_IT_number 70
_space_group.IT_coordinate_system_code '2'
_symmetry_cell_setting 'orthorhombic'
loop_
_space_group_symop_operation_xyz
x,y,z
1/4-x,1/4-y,z
x,1/4-y,1/4-z
1/4-x,y,1/4-z
-x,-y,-z
3/4+x,3/4+y,-z
-x,3/4+y,3/4+z
3/4+x,-y,3/4+z
x,1/2+y,1/2+z
1/4-x,3/4-y,1/2+z
x,3/4-y,3/4-z
1/4-x,1/2+y,3/4-z
-x,1/2-y,1/2-z
3/4+x,1/4+y,1/2-z
-x,1/4+y,1/4+z
3/4+x,1/2-y,1/4+z
1/2+x,y,1/2+z
3/4-x,1/4-y,1/2+z
1/2+x,1/4-y,3/4-z
3/4-x,y,3/4-z
1/2-x,-y,1/2-z
1/4+x,3/4+y,1/2-z
1/2-x,3/4+y,1/4+z
1/4+x,-y,1/4+z
1/2+x,1/2+y,z
3/4-x,3/4-y,z
1/2+x,3/4-y,1/4-z
3/4-x,1/2+y,1/4-z
1/2-x,1/2-y,-z
1/4+x,1/4+y,-z
1/2-x,1/4+y,3/4+z
1/4+x,1/2-y,3/4+z
loop_
_atom_site_type_symbol
_atom_site_label
_atom_site_fract_x
_atom_site_fract_y
_atom_site_fract_z
Si Si1 0.549779 0.224026 0.271547
Si Si2 0.368959 0.121214 0.979656
Si Si3 0.704259 0.727932 0.679419
Si Si4 0.375000 0.875000 0.258017
Si Si5 0.317854 0.125000 0.125000
Si Si6 0.708335 0.620992 0.910541
O O1 0.500000 0.250000 0.250000
O O2 0.583995 0.310830 0.238917
O O3 0.556413 0.095198 0.245292
O O4 0.555140 0.214688 0.350317
O O5 0.372370 0.252862 0.956784
O O6 0.346715 0.118517 0.055613
O O7 0.338639 0.056010 0.926190
O O8 0.710075 0.625000 0.625000
O O9 0.745832 0.813815 0.684418
O O10 0.330763 0.866352 0.213475
O O11 0.290097 0.244717 0.114311
#
# Coordination Sequence:
#
# PCOD9515925 Si02
#       6
#    32  32  32  16  16  32
#     4  12  23  42  69  96 136 186 235 289 340 416
#     4  11  24  43  69 103 138 179 242 293 359 409
#     4  12  26  43  68 102 142 185 228 288 349 431
#     4  10  24  42  74 101 133 174 230 312 340 418
#     4  10  22  42  74 100 133 184 227 312 340 416
#     4  11  23  44  66 107 133 179 238 286 359 407
#
# _framework density 22.84177
#
# number of rings (size 3 to 8) (size 9 to 14) (size 15 to 20)
#    0.000    0.800    4.000    4.200    0.000    4.800 
#    3.600    0.000    0.000    1.200    0.000    0.000 
#    0.000    0.000    0.000    0.000    0.000    0.000 
#
# Total GULP energy -223434.016422 kJ/mol
# GULP energy per Si atom -5585.850411 kJ/mol
# Density = 2.278978 g / cm^3
# Si number density = 22.841770 Si / 1000 Ang^3
#
#
#
# Elastic Constant Matrix: (Units=GPa)
#
#
# Indices 1 2 3 4 5 6 
#
# 1 155.5338 90.6085 17.9356 0.0000 0.0000 0.0000
# 2 90.6085 189.8387 13.8987 0.0000 0.0000 0.0000
# 3 17.9356 13.8987 49.5461 0.0000 0.0000 0.0000
# 4 0.0000 0.0000 0.0000 26.4604 0.0000 0.0000
# 5 0.0000 0.0000 0.0000 0.0000 19.7869 0.0000
# 6 0.0000 0.0000 0.0000 0.0000 0.0000 53.4500
#
#
#
# Elastic Compliance Matrix: (Units=1/GPa)
#
#
# Indices 1 2 3 4 5 6 
#
# 1 0.009120 -0.004197 -0.002124 0.000000 0.000000 0.000000
# 2 -0.004197 0.007310 -0.000531 0.000000 0.000000 0.000000
# 3 -0.002124 -0.000531 0.021101 0.000000 0.000000 0.000000
# 4 0.000000 0.000000 0.000000 0.037792 0.000000 0.000000
# 5 0.000000 0.000000 0.000000 0.000000 0.050539 0.000000
# 6 0.000000 0.000000 0.000000 0.000000 0.000000 0.018709
#
#
# Mechanical properties :
#
#
# Convention : Reuss Voigt Hill
#
# Bulk Modulus (GPa) = 41.97100 71.08933 56.53017
# Shear Modulus (GPa) = 30.08119 38.10450 34.09284
#
# Velocity S-wave (km/s) = 3.63290 4.08878 3.86757
# Velocity P-wave (km/s) = 6.00099 7.31307 6.68928
#
# Compressibility (1/GPa) = 0.02382597
#
# Stress axis : x y z
#
# Youngs Moduli (GPa) = 109.65505 136.80271 47.39095
#
# Poissons Ratio (x) = 0.57418 0.10065
# Poissons Ratio (y) = 0.46024 0.02517
# Poissons Ratio (z) = 0.23289 0.07267
#
# Static dielectric constant tensor:
#      x y z
#    x 1.837620 0.000000 0.000000 
#    y 0.000000 2.016350 0.000000 
#    z 0.000000 0.000000 2.173170 
# 
# From -- ./inp_files/54908.got.cif
#   From: 2010.05.17/outbox.cif.g08.bks.cpg/sg70_28_cif.got.tgz:54908.got - 2010.06.03 15:57:51.
