data_PCOD9515584
_publ_section_title
;
Structure prediction by ZEFSAII (Michael W. Deem and Ramdas Pophale) SiO2 
 PCOD9515584
Probable space group: F D D D
;
_chemical_formula_sum "Si O2"
_cell_formula_units_Z 160
_cell_length_a 28.458397
_cell_length_b 12.662968
_cell_length_c 22.466373
_cell_angle_alpha 90.000000
_cell_angle_beta 90.000000
_cell_angle_gamma 90.000000
_cell_volume 8096.156750
_symmetry_space_group_name_H-M "F D D D"
_symmetry_group_IT_number 70
_space_group.IT_coordinate_system_code '2'
_symmetry_cell_setting 'orthorhombic'
loop_
_space_group_symop_operation_xyz
x,y,z
1/4-x,1/4-y,z
x,1/4-y,1/4-z
1/4-x,y,1/4-z
-x,-y,-z
3/4+x,3/4+y,-z
-x,3/4+y,3/4+z
3/4+x,-y,3/4+z
x,1/2+y,1/2+z
1/4-x,3/4-y,1/2+z
x,3/4-y,3/4-z
1/4-x,1/2+y,3/4-z
-x,1/2-y,1/2-z
3/4+x,1/4+y,1/2-z
-x,1/4+y,1/4+z
3/4+x,1/2-y,1/4+z
1/2+x,y,1/2+z
3/4-x,1/4-y,1/2+z
1/2+x,1/4-y,3/4-z
3/4-x,y,3/4-z
1/2-x,-y,1/2-z
1/4+x,3/4+y,1/2-z
1/2-x,3/4+y,1/4+z
1/4+x,-y,1/4+z
1/2+x,1/2+y,z
3/4-x,3/4-y,z
1/2+x,3/4-y,1/4-z
3/4-x,1/2+y,1/4-z
1/2-x,1/2-y,-z
1/4+x,1/4+y,-z
1/2-x,1/4+y,3/4+z
1/4+x,1/2-y,3/4+z
loop_
_atom_site_type_symbol
_atom_site_label
_atom_site_fract_x
_atom_site_fract_y
_atom_site_fract_z
Si Si1 0.245416 0.302073 0.193372
Si Si2 0.460414 0.671290 0.226119
Si Si3 0.265291 0.546972 0.074142
Si Si4 0.821834 0.898382 0.644020
Si Si5 0.572775 0.404905 0.649497
O O1 0.262264 0.181022 0.201484
O O2 0.236046 0.346487 0.258841
O O3 0.290839 0.355645 0.164874
O O4 0.203510 0.324885 0.146711
O O5 0.500000 0.750000 0.250000
O O6 0.434018 0.738812 0.176066
O O7 0.428304 0.640975 0.283046
O O8 0.282705 0.625000 0.125000
O O9 0.298662 0.444797 0.067221
O O10 0.213878 0.502911 0.094163
O O11 0.875000 0.875000 0.632090
O O12 0.625000 0.427282 0.625000
#
# Coordination Sequence:
#
# PCOD9515584 Si02
#       5
#    32  32  32  32  32
#     4  10  21  42  64  87 129 162 199 255 322 356
#     4  11  20  39  64  87 127 159 200 263 310 364
#     4  10  23  44  64  86 126 170 204 259 300 368
#     4  11  24  39  62  96 123 161 211 252 312 374
#     4  10  23  39  63  97 120 163 212 250 310 367
#
# _framework density 19.762463
#
# number of rings (size 3 to 8) (size 9 to 14) (size 15 to 20)
#    0.000    1.600    6.000    0.600    2.800    5.200 
#   10.800    1.000    0.000    0.000    0.000    0.000 
#    0.000    0.000    0.000    0.000    0.000    0.000 
#
# Total GULP energy -223047.180607 kJ/mol
# GULP energy per Si atom -5576.179515 kJ/mol
# Density = 1.971748 g / cm^3
# Si number density = 19.762463 Si / 1000 Ang^3
#
#
#
# Elastic Constant Matrix: (Units=GPa)
#
#
# Indices 1 2 3 4 5 6 
#
# 1 91.9283 -5.4402 -1.7278 0.0000 0.0000 0.0000
# 2 -5.4402 32.2446 14.8562 0.0000 0.0000 0.0000
# 3 -1.7278 14.8562 112.7245 0.0000 0.0000 0.0000
# 4 0.0000 0.0000 0.0000 33.8977 0.0000 0.0000
# 5 0.0000 0.0000 0.0000 0.0000 17.2212 0.0000
# 6 0.0000 0.0000 0.0000 0.0000 0.0000 6.4477
#
#
#
# Elastic Compliance Matrix: (Units=1/GPa)
#
#
# Indices 1 2 3 4 5 6 
#
# 1 0.010988 0.001891 -0.000081 0.000000 0.000000 0.000000
# 2 0.001891 0.033343 -0.004365 0.000000 0.000000 0.000000
# 3 -0.000081 -0.004365 0.009445 0.000000 0.000000 0.000000
# 4 0.000000 0.000000 0.000000 0.029501 0.000000 0.000000
# 5 0.000000 0.000000 0.000000 0.000000 0.058068 0.000000
# 6 0.000000 0.000000 0.000000 0.000000 0.000000 0.155094
#
#
# Mechanical properties :
#
#
# Convention : Reuss Voigt Hill
#
# Bulk Modulus (GPa) = 20.54782 28.03041 24.28911
# Shear Modulus (GPa) = 15.73457 26.79393 21.26425
#
# Velocity S-wave (km/s) = 2.82474 3.68611 3.28379
# Velocity P-wave (km/s) = 4.58899 5.68604 5.16671
#
# Compressibility (1/GPa) = 0.04866697
#
# Stress axis : x y z
#
# Youngs Moduli (GPa) = 91.00474 29.99100 105.87306
#
# Poissons Ratio (x) = -0.05672 0.00856
# Poissons Ratio (y) = -0.17210 0.46218
# Poissons Ratio (z) = 0.00735 0.13092
#
# Static dielectric constant tensor:
#      x y z
#    x 1.667040 0.000000 0.000000 
#    y 0.000000 1.764850 0.000000 
#    z 0.000000 0.000000 1.375320 
# 
# From -- ./inp_files/19505.got.cif
#   From: 2010.05.17/outbox.cif.g08.bks.cpg/sg70_10_cif.got.tgz:19505.got - 2010.06.03 15:57:51.
