data_PCOD9515902
_publ_section_title
;
Structure prediction by ZEFSAII (Michael W. Deem and Ramdas Pophale) SiO2 
 PCOD9515902
Probable space group: F D D D
;
_chemical_formula_sum "Si O2"
_cell_formula_units_Z 192
_cell_length_a 18.042901
_cell_length_b 20.232172
_cell_length_c 21.913948
_cell_angle_alpha 90.000000
_cell_angle_beta 90.000000
_cell_angle_gamma 90.000000
_cell_volume 7999.622650
_symmetry_space_group_name_H-M "F D D D"
_symmetry_group_IT_number 70
_space_group.IT_coordinate_system_code '2'
_symmetry_cell_setting 'orthorhombic'
loop_
_space_group_symop_operation_xyz
x,y,z
1/4-x,1/4-y,z
x,1/4-y,1/4-z
1/4-x,y,1/4-z
-x,-y,-z
3/4+x,3/4+y,-z
-x,3/4+y,3/4+z
3/4+x,-y,3/4+z
x,1/2+y,1/2+z
1/4-x,3/4-y,1/2+z
x,3/4-y,3/4-z
1/4-x,1/2+y,3/4-z
-x,1/2-y,1/2-z
3/4+x,1/4+y,1/2-z
-x,1/4+y,1/4+z
3/4+x,1/2-y,1/4+z
1/2+x,y,1/2+z
3/4-x,1/4-y,1/2+z
1/2+x,1/4-y,3/4-z
3/4-x,y,3/4-z
1/2-x,-y,1/2-z
1/4+x,3/4+y,1/2-z
1/2-x,3/4+y,1/4+z
1/4+x,-y,1/4+z
1/2+x,1/2+y,z
3/4-x,3/4-y,z
1/2+x,3/4-y,1/4-z
3/4-x,1/2+y,1/4-z
1/2-x,1/2-y,-z
1/4+x,1/4+y,-z
1/2-x,1/4+y,3/4+z
1/4+x,1/2-y,3/4+z
loop_
_atom_site_type_symbol
_atom_site_label
_atom_site_fract_x
_atom_site_fract_y
_atom_site_fract_z
Si Si1 0.125000 0.430039 0.625000
Si Si2 0.618096 0.371563 0.306923
Si Si3 0.502183 0.320086 0.141406
Si Si4 0.125000 0.125000 0.941472
Si Si5 0.966855 0.517581 0.764243
Si Si6 0.707067 0.632354 0.515731
Si Si7 0.382878 0.259091 0.760406
O O1 0.060912 0.380156 0.646742
O O2 0.156281 0.479285 0.675854
O O3 0.647620 0.375000 0.375000
O O4 0.657899 0.317899 0.264075
O O5 0.529557 0.358045 0.306949
O O6 0.630145 0.444853 0.281529
O O7 0.429874 0.338450 0.103677
O O8 0.536998 0.270482 0.089287
O O9 0.470701 0.314933 0.210606
O O10 0.171873 0.178312 0.980674
O O11 0.960366 0.442929 0.740714
O O12 0.048250 0.536288 0.738988
O O13 0.625000 0.625000 0.544125
#
# Coordination Sequence:
#
# PCOD9515902 Si02
#       7
#    16  32  32  16  32  32  32
#     4  12  20  41  70  92 135 178 220 282 334 414
#     4  11  24  42  66  93 137 178 224 286 345 404
#     4  11  20  41  68  95 133 177 220 277 346 414
#     4  10  24  39  62 100 131 174 212 278 342 412
#     4  10  22  42  66  98 130 177 227 271 346 422
#     4  11  24  43  68 100 133 175 238 289 338 415
#     4  10  23  42  63 101 135 168 229 273 336 421
#
# _framework density 24.001131999999998
#
# number of rings (size 3 to 8) (size 9 to 14) (size 15 to 20)
#    0.000    1.333    5.833    0.000    2.333    3.333 
#    6.000    8.333    0.000    0.000    0.000    0.000 
#    0.000    0.000    0.000    0.000    0.000    0.000 
#
# Total GULP energy -267469.353525 kJ/mol
# GULP energy per Si atom -5572.278198 kJ/mol
# Density = 2.394650 g / cm^3
# Si number density = 24.001132 Si / 1000 Ang^3
#
#
#
# Elastic Constant Matrix: (Units=GPa)
#
#
# Indices 1 2 3 4 5 6 
#
# 1 59.9655 19.0638 -1.6169 0.0000 0.0000 0.0000
# 2 19.0638 78.0396 18.9344 0.0000 0.0000 0.0000
# 3 -1.6169 18.9344 65.8890 0.0000 0.0000 0.0000
# 4 0.0000 0.0000 0.0000 50.2461 0.0000 0.0000
# 5 0.0000 0.0000 0.0000 0.0000 -0.1607 0.0000
# 6 0.0000 0.0000 0.0000 0.0000 0.0000 -3.4650
#
#
#
# Elastic Compliance Matrix: (Units=1/GPa)
#
#
# Indices 1 2 3 4 5 6 
#
# 1 0.018291 -0.004920 0.001863 0.000000 0.000000 0.000000
# 2 -0.004920 0.015098 -0.004459 0.000000 0.000000 0.000000
# 3 0.001863 -0.004459 0.016504 0.000000 0.000000 0.000000
# 4 0.000000 0.000000 0.000000 0.019902 0.000000 0.000000
# 5 0.000000 0.000000 0.000000 0.000000 -6.222033 0.000000
# 6 0.000000 0.000000 0.000000 0.000000 0.000000 -0.288601
#
#
# Mechanical properties :
#
#
# Convention : Reuss Voigt Hill
#
# Bulk Modulus (GPa) = 28.68676 30.73963 29.71319
# Shear Modulus (GPa) = -0.77952 20.49161 9.85604
#
# Velocity S-wave (km/s) = -0.57052 2.92512 2.02865
# Velocity P-wave (km/s) = 3.39768 4.92380 4.23013
#
# Compressibility (1/GPa) = 0.03485929
#
# Stress axis : x y z
#
# Youngs Moduli (GPa) = 54.67281 66.23465 60.59055
#
# Poissons Ratio (x) = 0.32588 -0.11286
# Poissons Ratio (y) = 0.26899 0.27020
# Poissons Ratio (z) = -0.10184 0.29536
#
# Static dielectric constant tensor:
#      x y z
#    x 2.114540 0.000000 0.000000 
#    y 0.000000 1.987090 0.000000 
#    z 0.000000 0.000000 2.095310 
# 
# From -- ./inp_files/45037.got.cif
#   From: 2010.05.17/outbox.cif.g08.bks.cpg/sg70_23_cif.got.tgz:45037.got - 2010.06.03 15:57:51.
