data_PCOD9515834
_publ_section_title
;
Structure prediction by ZEFSAII (Michael W. Deem and Ramdas Pophale) SiO2 
 PCOD9515834
Probable space group: F D D D
;
_chemical_formula_sum "Si O2"
_cell_formula_units_Z 128
_cell_length_a 20.713695
_cell_length_b 17.950243
_cell_length_c 14.468663
_cell_angle_alpha 90.000000
_cell_angle_beta 90.000000
_cell_angle_gamma 90.000000
_cell_volume 5379.678357
_symmetry_space_group_name_H-M "F D D D"
_symmetry_group_IT_number 70
_space_group.IT_coordinate_system_code '2'
_symmetry_cell_setting 'orthorhombic'
loop_
_space_group_symop_operation_xyz
x,y,z
1/4-x,1/4-y,z
x,1/4-y,1/4-z
1/4-x,y,1/4-z
-x,-y,-z
3/4+x,3/4+y,-z
-x,3/4+y,3/4+z
3/4+x,-y,3/4+z
x,1/2+y,1/2+z
1/4-x,3/4-y,1/2+z
x,3/4-y,3/4-z
1/4-x,1/2+y,3/4-z
-x,1/2-y,1/2-z
3/4+x,1/4+y,1/2-z
-x,1/4+y,1/4+z
3/4+x,1/2-y,1/4+z
1/2+x,y,1/2+z
3/4-x,1/4-y,1/2+z
1/2+x,1/4-y,3/4-z
3/4-x,y,3/4-z
1/2-x,-y,1/2-z
1/4+x,3/4+y,1/2-z
1/2-x,3/4+y,1/4+z
1/4+x,-y,1/4+z
1/2+x,1/2+y,z
3/4-x,3/4-y,z
1/2+x,3/4-y,1/4-z
3/4-x,1/2+y,1/4-z
1/2-x,1/2-y,-z
1/4+x,1/4+y,-z
1/2-x,1/4+y,3/4+z
1/4+x,1/2-y,3/4+z
loop_
_atom_site_type_symbol
_atom_site_label
_atom_site_fract_x
_atom_site_fract_y
_atom_site_fract_z
Si Si1 0.560068 0.327660 0.183365
Si Si2 0.820879 0.551947 0.173043
Si Si3 0.305288 0.517453 0.881198
Si Si4 0.665591 0.551906 0.833154
O O1 0.625000 0.322067 0.125000
O O2 0.556639 0.416297 0.206850
O O3 0.489265 0.317744 0.137918
O O4 0.572266 0.263168 0.257956
O O5 0.849080 0.625000 0.125000
O O6 0.756712 0.533383 0.113582
O O7 0.800608 0.557387 0.279693
O O8 0.869475 0.483429 0.159892
O O9 0.375000 0.479364 0.875000
O O10 0.625000 0.625000 0.799341
#
# Coordination Sequence:
#
# PCOD9515834 Si02
#       4
#    32  32  32  32
#     4  10  22  44  67  96 133 172 221 277 334 402
#     4  11  23  40  64  94 130 172 220 273 330 398
#     4  10  22  41  63  93 128 167 218 271 330 395
#     4  11  23  44  70  99 132 174 225 279 341 401
#
# _framework density 23.793244999999999
#
# number of rings (size 3 to 8) (size 9 to 14) (size 15 to 20)
#    0.000    1.500    2.500    3.000    0.000    5.000 
#    9.000    0.000    0.000    0.000    0.000    0.000 
#    0.000    0.000    0.000    0.000    0.000    0.000 
#
# Total GULP energy -178437.161942 kJ/mol
# GULP energy per Si atom -5576.161311 kJ/mol
# Density = 2.373909 g / cm^3
# Si number density = 23.793245 Si / 1000 Ang^3
#
#
#
# Elastic Constant Matrix: (Units=GPa)
#
#
# Indices 1 2 3 4 5 6 
#
# 1 204.7146 43.0169 12.1276 0.0000 0.0000 0.0000
# 2 43.0169 91.4251 25.9844 0.0000 0.0000 0.0000
# 3 12.1276 25.9844 40.9472 0.0000 0.0000 0.0000
# 4 0.0000 0.0000 0.0000 29.3694 0.0000 0.0000
# 5 0.0000 0.0000 0.0000 0.0000 20.3075 0.0000
# 6 0.0000 0.0000 0.0000 0.0000 0.0000 41.6166
#
#
#
# Elastic Compliance Matrix: (Units=1/GPa)
#
#
# Indices 1 2 3 4 5 6 
#
# 1 0.005421 -0.002555 0.000016 0.000000 0.000000 0.000000
# 2 -0.002555 0.014549 -0.008476 0.000000 0.000000 0.000000
# 3 0.000016 -0.008476 0.029796 0.000000 0.000000 0.000000
# 4 0.000000 0.000000 0.000000 0.034049 0.000000 0.000000
# 5 0.000000 0.000000 0.000000 0.000000 0.049243 0.000000
# 6 0.000000 0.000000 0.000000 0.000000 0.000000 0.024029
#
#
# Mechanical properties :
#
#
# Convention : Reuss Voigt Hill
#
# Bulk Modulus (GPa) = 36.05497 55.48272 45.76885
# Shear Modulus (GPa) = 26.54471 35.32258 30.93364
#
# Velocity S-wave (km/s) = 3.34374 3.85718 3.60960
# Velocity P-wave (km/s) = 5.48579 6.57316 6.05394
#
# Compressibility (1/GPa) = 0.02773543
#
# Stress axis : x y z
#
# Youngs Moduli (GPa) = 184.47418 68.73283 33.56204
#
# Poissons Ratio (x) = 0.17562 -0.00053
# Poissons Ratio (y) = 0.47135 0.28447
# Poissons Ratio (z) = -0.00293 0.58257
#
# Static dielectric constant tensor:
#      x y z
#    x 1.938010 0.000000 0.000000 
#    y 0.000000 1.948760 0.000000 
#    z 0.000000 0.000000 1.974680 
# 
# From -- ./inp_files/44595.got.cif
#   From: 2010.05.17/outbox.cif.g08.bks.cpg/sg70_23_cif.got.tgz:44595.got - 2010.06.03 15:57:51.
