data_PCOD9515026
_publ_section_title
;
Structure prediction by ZEFSAII (Michael W. Deem and Ramdas Pophale) SiO2 
 PCOD9515026
Probable space group: F D D D
;
_chemical_formula_sum "Si O2"
_cell_formula_units_Z 176
_cell_length_a 21.693468
_cell_length_b 23.204735
_cell_length_c 16.460457
_cell_angle_alpha 90.000000
_cell_angle_beta 90.000000
_cell_angle_gamma 90.000000
_cell_volume 8286.048810
_symmetry_space_group_name_H-M "F D D D"
_symmetry_group_IT_number 70
_space_group.IT_coordinate_system_code '2'
_symmetry_cell_setting 'orthorhombic'
loop_
_space_group_symop_operation_xyz
x,y,z
1/4-x,1/4-y,z
x,1/4-y,1/4-z
1/4-x,y,1/4-z
-x,-y,-z
3/4+x,3/4+y,-z
-x,3/4+y,3/4+z
3/4+x,-y,3/4+z
x,1/2+y,1/2+z
1/4-x,3/4-y,1/2+z
x,3/4-y,3/4-z
1/4-x,1/2+y,3/4-z
-x,1/2-y,1/2-z
3/4+x,1/4+y,1/2-z
-x,1/4+y,1/4+z
3/4+x,1/2-y,1/4+z
1/2+x,y,1/2+z
3/4-x,1/4-y,1/2+z
1/2+x,1/4-y,3/4-z
3/4-x,y,3/4-z
1/2-x,-y,1/2-z
1/4+x,3/4+y,1/2-z
1/2-x,3/4+y,1/4+z
1/4+x,-y,1/4+z
1/2+x,1/2+y,z
3/4-x,3/4-y,z
1/2+x,3/4-y,1/4-z
3/4-x,1/2+y,1/4-z
1/2-x,1/2-y,-z
1/4+x,1/4+y,-z
1/2-x,1/4+y,3/4+z
1/4+x,1/2-y,3/4+z
loop_
_atom_site_type_symbol
_atom_site_label
_atom_site_fract_x
_atom_site_fract_y
_atom_site_fract_z
Si Si1 0.840582 0.500230 0.950852
Si Si2 0.375000 0.773319 0.375000
Si Si3 0.712280 0.805518 0.242082
Si Si4 0.703090 0.551224 0.270704
Si Si5 0.846654 0.496379 0.634795
Si Si6 0.989375 0.652541 0.378783
O O1 0.875000 0.469923 0.875000
O O2 0.781057 0.467498 0.987799
O O3 0.814490 0.559445 0.915509
O O4 0.886803 0.511787 0.024086
O O5 0.326822 0.734013 0.322369
O O6 0.413179 0.809959 0.310176
O O7 0.676557 0.797852 0.326963
O O8 0.719416 0.867082 0.200310
O O9 0.750000 0.500000 0.250000
O O10 0.656299 0.530070 0.340198
O O11 0.738071 0.606330 0.304656
O O12 0.794878 0.446876 0.636749
#
# Coordination Sequence:
#
# PCOD9515026 Si02
#       6
#    32  16  32  32  32  32
#     4  11  25  45  68  98 141 181 237 297 344 427
#     4  10  20  38  69 102 144 176 224 305 350 410
#     4  10  22  42  69  99 137 182 234 289 351 423
#     4  11  20  38  68 100 142 175 233 295 351 430
#     4  10  23  44  67  98 141 180 228 295 348 421
#     4  11  23  42  72  97 134 198 228 282 367 416
#
# _framework density 21.240521000000001
#
# number of rings (size 3 to 8) (size 9 to 14) (size 15 to 20)
#    0.000    1.455    3.636    0.545    1.273    2.909 
#    0.000   32.727    0.000    0.000    0.000    0.000 
#    0.000    0.000    0.000    0.000    0.000    0.000 
#
# Total GULP energy -245996.341086 kJ/mol
# GULP energy per Si atom -5590.825934 kJ/mol
# Density = 2.119218 g / cm^3
# Si number density = 21.240521 Si / 1000 Ang^3
#
#
#
# Elastic Constant Matrix: (Units=GPa)
#
#
# Indices 1 2 3 4 5 6 
#
# 1 80.9117 25.6788 29.9161 0.0000 0.0000 0.0000
# 2 25.6788 74.5475 15.7259 0.0000 0.0000 0.0000
# 3 29.9161 15.7259 125.7994 0.0000 0.0000 0.0000
# 4 0.0000 0.0000 0.0000 37.6492 0.0000 0.0000
# 5 0.0000 0.0000 0.0000 0.0000 45.5801 0.0000
# 6 0.0000 0.0000 0.0000 0.0000 0.0000 1.9110
#
#
#
# Elastic Compliance Matrix: (Units=1/GPa)
#
#
# Indices 1 2 3 4 5 6 
#
# 1 0.014888 -0.004500 -0.002978 0.000000 0.000000 0.000000
# 2 -0.004500 0.015138 -0.000822 0.000000 0.000000 0.000000
# 3 -0.002978 -0.000822 0.008760 0.000000 0.000000 0.000000
# 4 0.000000 0.000000 0.000000 0.026561 0.000000 0.000000
# 5 0.000000 0.000000 0.000000 0.000000 0.021939 0.000000
# 6 0.000000 0.000000 0.000000 0.000000 0.000000 0.523288
#
#
# Mechanical properties :
#
#
# Convention : Reuss Voigt Hill
#
# Bulk Modulus (GPa) = 45.07437 47.10002 46.08719
# Shear Modulus (GPa) = 7.87934 31.02390 19.45162
#
# Velocity S-wave (km/s) = 1.92812 3.82593 3.02947
# Velocity P-wave (km/s) = 5.12092 6.46063 5.82939
#
# Compressibility (1/GPa) = 0.02218556
#
# Stress axis : x y z
#
# Youngs Moduli (GPa) = 67.16594 66.05938 114.15346
#
# Poissons Ratio (x) = 0.29729 0.33995
# Poissons Ratio (y) = 0.30227 0.09385
# Poissons Ratio (z) = 0.20002 0.05431
#
# Static dielectric constant tensor:
#      x y z
#    x 1.803800 0.000000 0.000000 
#    y 0.000000 1.722020 0.000000 
#    z 0.000000 0.000000 1.776690 
# 
# From -- ./inp_files/28787.got.cif
#   From: 2010.05.17/outbox.cif.g08.bks.cpg/sg70_15_cif.got.tgz:28787.got - 2010.06.03 15:57:51.
