data_PCOD9515836
_publ_section_title
;
Structure prediction by ZEFSAII (Michael W. Deem and Ramdas Pophale) SiO2 
 PCOD9515836
Probable space group: F D D D
;
_chemical_formula_sum "Si O2"
_cell_formula_units_Z 160
_cell_length_a 19.452297
_cell_length_b 16.920965
_cell_length_c 20.587521
_cell_angle_alpha 90.000000
_cell_angle_beta 90.000000
_cell_angle_gamma 90.000000
_cell_volume 6776.416233
_symmetry_space_group_name_H-M "F D D D"
_symmetry_group_IT_number 70
_space_group.IT_coordinate_system_code '2'
_symmetry_cell_setting 'orthorhombic'
loop_
_space_group_symop_operation_xyz
x,y,z
1/4-x,1/4-y,z
x,1/4-y,1/4-z
1/4-x,y,1/4-z
-x,-y,-z
3/4+x,3/4+y,-z
-x,3/4+y,3/4+z
3/4+x,-y,3/4+z
x,1/2+y,1/2+z
1/4-x,3/4-y,1/2+z
x,3/4-y,3/4-z
1/4-x,1/2+y,3/4-z
-x,1/2-y,1/2-z
3/4+x,1/4+y,1/2-z
-x,1/4+y,1/4+z
3/4+x,1/2-y,1/4+z
1/2+x,y,1/2+z
3/4-x,1/4-y,1/2+z
1/2+x,1/4-y,3/4-z
3/4-x,y,3/4-z
1/2-x,-y,1/2-z
1/4+x,3/4+y,1/2-z
1/2-x,3/4+y,1/4+z
1/4+x,-y,1/4+z
1/2+x,1/2+y,z
3/4-x,3/4-y,z
1/2+x,3/4-y,1/4-z
3/4-x,1/2+y,1/4-z
1/2-x,1/2-y,-z
1/4+x,1/4+y,-z
1/2-x,1/4+y,3/4+z
1/4+x,1/2-y,3/4+z
loop_
_atom_site_type_symbol
_atom_site_label
_atom_site_fract_x
_atom_site_fract_y
_atom_site_fract_z
Si Si1 0.875000 0.875000 0.038065
Si Si2 0.332389 0.570357 0.530963
Si Si3 0.243543 0.959553 0.598469
Si Si4 0.048951 0.375000 0.875000
Si Si5 0.022397 0.809746 0.583705
Si Si6 0.419037 0.724080 0.275483
O O1 0.932151 0.824400 0.075281
O O2 0.831962 0.813422 0.996612
O O3 0.318223 0.555619 0.453587
O O4 0.403004 0.581911 0.570510
O O5 0.288560 0.498805 0.562170
O O6 0.308979 0.662880 0.530619
O O7 0.234627 0.904948 0.662349
O O8 0.252181 0.052876 0.601799
O O9 0.088935 0.792582 0.540866
O O10 0.040862 0.787912 0.657839
#
# Coordination Sequence:
#
# PCOD9515836 Si02
#       6
#    16  32  32  16  32  32
#     4  12  20  41  58  92 126 158 206 265 304 378
#     4  11  22  41  66  90 131 171 205 269 324 370
#     4  11  25  42  65  96 131 166 219 267 317 393
#     4  12  24  44  66  96 132 172 214 270 322 386
#     4  10  22  41  63  95 126 173 202 260 331 374
#     4  10  23  39  62  94 135 157 216 261 311 396
#
# _framework density 23.611301000000001
#
# number of rings (size 3 to 8) (size 9 to 14) (size 15 to 20)
#    0.000    1.200    4.000    1.200    2.800    3.200 
#    0.000    6.000    0.000    8.400    0.000    0.000 
#    0.000    0.000    0.000    0.000    0.000    0.000 
#
# Total GULP energy -223039.495640 kJ/mol
# GULP energy per Si atom -5575.987391 kJ/mol
# Density = 2.355756 g / cm^3
# Si number density = 23.611301 Si / 1000 Ang^3
#
#
#
# Elastic Constant Matrix: (Units=GPa)
#
#
# Indices 1 2 3 4 5 6 
#
# 1 57.7553 28.3875 7.2224 0.0000 0.0000 0.0000
# 2 28.3875 182.4491 29.3252 0.0000 0.0000 0.0000
# 3 7.2224 29.3252 42.7306 0.0000 0.0000 0.0000
# 4 0.0000 0.0000 0.0000 55.0213 0.0000 0.0000
# 5 0.0000 0.0000 0.0000 0.0000 188.5840 0.0000
# 6 0.0000 0.0000 0.0000 0.0000 0.0000 33.6121
#
#
#
# Elastic Compliance Matrix: (Units=1/GPa)
#
#
# Indices 1 2 3 4 5 6 
#
# 1 0.018814 -0.002716 -0.001316 0.000000 0.000000 0.000000
# 2 -0.002716 0.006553 -0.004038 0.000000 0.000000 0.000000
# 3 -0.001316 -0.004038 0.026396 0.000000 0.000000 0.000000
# 4 0.000000 0.000000 0.000000 0.018175 0.000000 0.000000
# 5 0.000000 0.000000 0.000000 0.000000 0.005303 0.000000
# 6 0.000000 0.000000 0.000000 0.000000 0.000000 0.029751
#
#
# Mechanical properties :
#
#
# Convention : Reuss Voigt Hill
#
# Bulk Modulus (GPa) = 28.07191 45.86725 36.96958
# Shear Modulus (GPa) = 37.59262 69.97682 53.78472
#
# Velocity S-wave (km/s) = 3.99450 5.44989 4.77794
# Velocity P-wave (km/s) = 5.76105 7.68570 6.79189
#
# Compressibility (1/GPa) = 0.03562280
#
# Stress axis : x y z
#
# Youngs Moduli (GPa) = 53.15232 152.61274 37.88454
#
# Poissons Ratio (x) = 0.41445 0.04986
# Poissons Ratio (y) = 0.14435 0.15297
# Poissons Ratio (z) = 0.06996 0.61623
#
# Static dielectric constant tensor:
#      x y z
#    x 1.941640 0.000000 0.000000 
#    y 0.000000 1.960230 0.000000 
#    z 0.000000 0.000000 1.963890 
# 
# From -- ./inp_files/61065.got.cif
#   From: 2010.05.17/outbox.cif.g08.bks.cpg/sg70_31_cif.got.tgz:61065.got - 2010.06.03 15:57:51.
