data_PCOD9515552
_publ_section_title
;
Structure prediction by ZEFSAII (Michael W. Deem and Ramdas Pophale) SiO2 
 PCOD9515552
Probable space group: F D D D
;
_chemical_formula_sum "Si O2"
_cell_formula_units_Z 168
_cell_length_a 21.056680
_cell_length_b 22.249754
_cell_length_c 16.312991
_cell_angle_alpha 90.000000
_cell_angle_beta 90.000000
_cell_angle_gamma 90.000000
_cell_volume 7642.733347
_symmetry_space_group_name_H-M "F D D D"
_symmetry_group_IT_number 70
_space_group.IT_coordinate_system_code '2'
_symmetry_cell_setting 'orthorhombic'
loop_
_space_group_symop_operation_xyz
x,y,z
1/4-x,1/4-y,z
x,1/4-y,1/4-z
1/4-x,y,1/4-z
-x,-y,-z
3/4+x,3/4+y,-z
-x,3/4+y,3/4+z
3/4+x,-y,3/4+z
x,1/2+y,1/2+z
1/4-x,3/4-y,1/2+z
x,3/4-y,3/4-z
1/4-x,1/2+y,3/4-z
-x,1/2-y,1/2-z
3/4+x,1/4+y,1/2-z
-x,1/4+y,1/4+z
3/4+x,1/2-y,1/4+z
1/2+x,y,1/2+z
3/4-x,1/4-y,1/2+z
1/2+x,1/4-y,3/4-z
3/4-x,y,3/4-z
1/2-x,-y,1/2-z
1/4+x,3/4+y,1/2-z
1/2-x,3/4+y,1/4+z
1/4+x,-y,1/4+z
1/2+x,1/2+y,z
3/4-x,3/4-y,z
1/2+x,3/4-y,1/4-z
3/4-x,1/2+y,1/4-z
1/2-x,1/2-y,-z
1/4+x,1/4+y,-z
1/2-x,1/4+y,3/4+z
1/4+x,1/2-y,3/4+z
loop_
_atom_site_type_symbol
_atom_site_label
_atom_site_fract_x
_atom_site_fract_y
_atom_site_fract_z
Si Si1 0.455062 0.191985 0.477718
Si Si2 0.024810 0.721619 0.166344
Si Si3 0.926001 0.553157 0.448944
Si Si4 0.625000 0.625000 0.625000
Si Si5 0.616782 0.804847 0.878228
Si Si6 0.549867 0.557444 0.141027
O O1 0.447858 0.227632 0.393843
O O2 0.452366 0.120359 0.461450
O O3 0.403734 0.215519 0.545454
O O4 0.523148 0.205548 0.519337
O O5 0.076743 0.668694 0.174340
O O6 0.000000 0.750000 0.250000
O O7 0.958753 0.700386 0.125883
O O8 0.875000 0.560511 0.375000
O O9 0.893729 0.533510 0.534514
O O10 0.969907 0.498485 0.416260
O O11 0.631134 0.875000 0.875000
O O12 0.525144 0.625000 0.125000
O O13 0.625000 0.560981 0.125000
#
# Coordination Sequence:
#
# PCOD9515552 Si02
#       6
#    32  32  32   8  32  32
#     4  11  25  41  69 103 135 187 244 294 366 452
#     4  12  26  45  70 101 144 192 236 306 372 441
#     4  10  22  40  70  96 133 185 237 294 363 451
#     4  12  28  48  72 108 152 188 246 324 372 436
#     4  10  22  43  68  97 134 181 239 290 353 434
#     4  10  21  41  66  99 140 177 228 304 374 438
#
# _framework density 21.981663999999999
#
# number of rings (size 3 to 8) (size 9 to 14) (size 15 to 20)
#    0.000    1.333    0.952    5.143    6.667    4.571 
#    0.000    3.810    0.000    0.000    0.000    0.000 
#    0.000    0.000    0.000    0.000    0.000    0.000 
#
# Total GULP energy -234219.531962 kJ/mol
# GULP energy per Si atom -5576.655523 kJ/mol
# Density = 2.193163 g / cm^3
# Si number density = 21.981664 Si / 1000 Ang^3
#
#
#
# Elastic Constant Matrix: (Units=GPa)
#
#
# Indices 1 2 3 4 5 6 
#
# 1 141.1938 50.6421 48.7257 0.0000 0.0000 0.0000
# 2 50.6421 138.6466 69.6500 0.0000 0.0000 0.0000
# 3 48.7257 69.6500 163.0693 0.0000 0.0000 0.0000
# 4 0.0000 0.0000 0.0000 32.7528 0.0000 0.0000
# 5 0.0000 0.0000 0.0000 0.0000 40.2605 0.0000
# 6 0.0000 0.0000 0.0000 0.0000 0.0000 1268.9590
#
#
#
# Elastic Compliance Matrix: (Units=1/GPa)
#
#
# Indices 1 2 3 4 5 6 
#
# 1 0.008441 -0.002312 -0.001535 0.000000 0.000000 0.000000
# 2 -0.002312 0.009816 -0.003502 0.000000 0.000000 0.000000
# 3 -0.001535 -0.003502 0.008087 0.000000 0.000000 0.000000
# 4 0.000000 0.000000 0.000000 0.030532 0.000000 0.000000
# 5 0.000000 0.000000 0.000000 0.000000 0.024838 0.000000
# 6 0.000000 0.000000 0.000000 0.000000 0.000000 0.000788
#
#
# Mechanical properties :
#
#
# Convention : Reuss Voigt Hill
#
# Bulk Modulus (GPa) = 85.86113 86.77170 86.31641
# Shear Modulus (GPa) = 49.46458 286.65392 168.05925
#
# Velocity S-wave (km/s) = 4.74884 11.43193 8.75330
# Velocity P-wave (km/s) = 8.31948 14.62232 11.89593
#
# Compressibility (1/GPa) = 0.01164671
#
# Stress axis : x y z
#
# Youngs Moduli (GPa) = 118.46290 101.87083 123.66116
#
# Poissons Ratio (x) = 0.23556 0.18978
# Poissons Ratio (y) = 0.27393 0.43304
# Poissons Ratio (z) = 0.18180 0.35673
#
# Static dielectric constant tensor:
#      x y z
#    x 1.873400 0.000000 0.000000 
#    y 0.000000 1.835410 0.000000 
#    z 0.000000 0.000000 1.847450 
# 
# From -- ./inp_files/28781.got.cif
#   From: 2010.05.17/outbox.cif.g08.bks.cpg/sg70_15_cif.got.tgz:28781.got - 2010.06.03 15:57:51.
