data_PCOD9515111
_publ_section_title
;
Structure prediction by ZEFSAII (Michael W. Deem and Ramdas Pophale) SiO2 
 PCOD9515111
Probable space group: F D D D
;
_chemical_formula_sum "Si O2"
_cell_formula_units_Z 136
_cell_length_a 19.896191
_cell_length_b 26.219761
_cell_length_c 9.117201
_cell_angle_alpha 90.000000
_cell_angle_beta 90.000000
_cell_angle_gamma 90.000000
_cell_volume 4756.200996
_symmetry_space_group_name_H-M "F D D D"
_symmetry_group_IT_number 70
_space_group.IT_coordinate_system_code '2'
_symmetry_cell_setting 'orthorhombic'
loop_
_space_group_symop_operation_xyz
x,y,z
1/4-x,1/4-y,z
x,1/4-y,1/4-z
1/4-x,y,1/4-z
-x,-y,-z
3/4+x,3/4+y,-z
-x,3/4+y,3/4+z
3/4+x,-y,3/4+z
x,1/2+y,1/2+z
1/4-x,3/4-y,1/2+z
x,3/4-y,3/4-z
1/4-x,1/2+y,3/4-z
-x,1/2-y,1/2-z
3/4+x,1/4+y,1/2-z
-x,1/4+y,1/4+z
3/4+x,1/2-y,1/4+z
1/2+x,y,1/2+z
3/4-x,1/4-y,1/2+z
1/2+x,1/4-y,3/4-z
3/4-x,y,3/4-z
1/2-x,-y,1/2-z
1/4+x,3/4+y,1/2-z
1/2-x,3/4+y,1/4+z
1/4+x,-y,1/4+z
1/2+x,1/2+y,z
3/4-x,3/4-y,z
1/2+x,3/4-y,1/4-z
3/4-x,1/2+y,1/4-z
1/2-x,1/2-y,-z
1/4+x,1/4+y,-z
1/2-x,1/4+y,3/4+z
1/4+x,1/2-y,3/4+z
loop_
_atom_site_type_symbol
_atom_site_label
_atom_site_fract_x
_atom_site_fract_y
_atom_site_fract_z
Si Si1 0.277961 0.082722 0.266378
Si Si2 0.125000 0.125000 0.625000
Si Si3 0.295354 0.189753 0.355993
Si Si4 0.329086 0.463277 0.586170
Si Si5 0.577633 0.453947 0.333458
O O1 0.261508 0.142693 0.273106
O O2 0.210450 0.049224 0.262865
O O3 0.346107 0.070240 0.178606
O O4 0.298189 0.065362 0.432183
O O5 0.088944 0.163652 0.512222
O O6 0.375000 0.177014 0.375000
O O7 0.295270 0.243416 0.270624
O O8 0.280676 0.189467 0.529326
O O9 0.400646 0.487713 0.634163
#
# Coordination Sequence:
#
# PCOD9515111 Si02
#       5
#    32   8  32  32  32
#     4  11  23  37  72  95 128 179 213 276 338 388
#     4  12  24  44  60  98 140 176 208 284 342 384
#     4  10  20  40  64  96 127 167 219 276 318 388
#     4  11  25  41  64  97 134 174 216 275 339 397
#     4  10  21  41  61  97 133 158 226 271 317 396
#
# _framework density 28.594249000000001
#
# number of rings (size 3 to 8) (size 9 to 14) (size 15 to 20)
#    0.000    1.412    5.882    1.412    6.588    2.824 
#    0.000    0.000    0.000    8.471    0.000    0.000 
#    0.000    0.000    0.000    0.000    0.000    0.000 
#
# Total GULP energy -190088.274640 kJ/mol
# GULP energy per Si atom -5590.831607 kJ/mol
# Density = 2.852917 g / cm^3
# Si number density = 28.594249 Si / 1000 Ang^3
#
#
#
# Elastic Constant Matrix: (Units=GPa)
#
#
# Indices 1 2 3 4 5 6 
#
# 1 48.8027 22.9378 5.1791 0.0000 0.0000 0.0000
# 2 22.9378 192.3653 48.8978 0.0000 0.0000 0.0000
# 3 5.1791 48.8978 90.1853 0.0001 -0.0001 -0.0001
# 4 0.0000 0.0000 0.0001 56.4537 0.0000 0.0000
# 5 0.0000 0.0000 -0.0001 0.0000 59.1481 0.0000
# 6 0.0000 0.0000 -0.0001 0.0000 0.0000 38.8449
#
#
#
# Elastic Compliance Matrix: (Units=1/GPa)
#
#
# Indices 1 2 3 4 5 6 
#
# 1 0.021710 -0.002635 0.000182 0.000000 0.000000 0.000000
# 2 -0.002635 0.006349 -0.003291 0.000000 0.000000 0.000000
# 3 0.000182 -0.003291 0.012862 0.000000 0.000000 0.000000
# 4 0.000000 0.000000 0.000000 0.017714 0.000000 0.000000
# 5 0.000000 0.000000 0.000000 0.000000 0.016907 0.000000
# 6 0.000000 0.000000 0.000000 0.000000 0.000000 0.025743
#
#
# Mechanical properties :
#
#
# Convention : Reuss Voigt Hill
#
# Bulk Modulus (GPa) = 33.97557 53.93141 43.95349
# Shear Modulus (GPa) = 40.78819 47.84524 44.31671
#
# Velocity S-wave (km/s) = 3.78093 4.09497 3.94108
# Velocity P-wave (km/s) = 5.56492 6.42342 6.00952
#
# Compressibility (1/GPa) = 0.02943291
#
# Stress axis : x y z
#
# Youngs Moduli (GPa) = 46.06208 157.49937 77.74668
#
# Poissons Ratio (x) = 0.41500 -0.01414
# Poissons Ratio (y) = 0.12137 0.25588
# Poissons Ratio (z) = -0.00838 0.51836
#
# Static dielectric constant tensor:
#      x y z
#    x 2.400160 0.000000 0.000000 
#    y 0.000000 2.305910 0.000000 
#    z 0.000000 0.000000 2.431550 
# 
# From -- ./inp_files/20442.got.cif
#   From: 2010.05.17/outbox.cif.g08.bks.cpg/sg70_11_cif.got.tgz:20442.got - 2010.06.03 15:57:51.
