data_PCOD9515576
_publ_section_title
;
Structure prediction by ZEFSAII (Michael W. Deem and Ramdas Pophale) SiO2 
 PCOD9515576
Probable space group: F D D D
;
_chemical_formula_sum "Si O2"
_cell_formula_units_Z 128
_cell_length_a 25.136087
_cell_length_b 27.456888
_cell_length_c 9.107677
_cell_angle_alpha 90.000000
_cell_angle_beta 90.000000
_cell_angle_gamma 90.000000
_cell_volume 6285.742751
_symmetry_space_group_name_H-M "F D D D"
_symmetry_group_IT_number 70
_space_group.IT_coordinate_system_code '2'
_symmetry_cell_setting 'orthorhombic'
loop_
_space_group_symop_operation_xyz
x,y,z
1/4-x,1/4-y,z
x,1/4-y,1/4-z
1/4-x,y,1/4-z
-x,-y,-z
3/4+x,3/4+y,-z
-x,3/4+y,3/4+z
3/4+x,-y,3/4+z
x,1/2+y,1/2+z
1/4-x,3/4-y,1/2+z
x,3/4-y,3/4-z
1/4-x,1/2+y,3/4-z
-x,1/2-y,1/2-z
3/4+x,1/4+y,1/2-z
-x,1/4+y,1/4+z
3/4+x,1/2-y,1/4+z
1/2+x,y,1/2+z
3/4-x,1/4-y,1/2+z
1/2+x,1/4-y,3/4-z
3/4-x,y,3/4-z
1/2-x,-y,1/2-z
1/4+x,3/4+y,1/2-z
1/2-x,3/4+y,1/4+z
1/4+x,-y,1/4+z
1/2+x,1/2+y,z
3/4-x,3/4-y,z
1/2+x,3/4-y,1/4-z
3/4-x,1/2+y,1/4-z
1/2-x,1/2-y,-z
1/4+x,1/4+y,-z
1/2-x,1/4+y,3/4+z
1/4+x,1/2-y,3/4+z
loop_
_atom_site_type_symbol
_atom_site_label
_atom_site_fract_x
_atom_site_fract_y
_atom_site_fract_z
Si Si1 0.069948 0.153665 0.419868
Si Si2 0.340262 0.028017 0.588465
Si Si3 0.375000 0.272133 0.375000
Si Si4 0.557315 0.735393 0.198598
Si Si5 0.020678 0.875000 0.375000
O O1 0.125000 0.125000 0.418881
O O2 0.081382 0.195430 0.541198
O O3 0.065915 0.181902 0.265812
O O4 0.019420 0.124337 0.483239
O O5 0.308850 0.078673 0.595222
O O6 0.345542 0.008781 0.752177
O O7 0.311354 0.991037 0.475983
O O8 0.400078 0.023372 0.520355
O O9 0.500000 0.750000 0.250000
#
# Coordination Sequence:
#
# PCOD9515576 Si02
#       5
#    32  32  16  32  16
#     4  11  21  41  69  98 130 171 227 291 343 419
#     4  10  24  40  68  97 133 181 228 283 354 422
#     4  10  21  42  62  94 134 170 228 272 353 418
#     4  10  21  45  68  90 140 187 227 282 356 427
#     4  12  21  40  70 100 138 167 232 298 348 412
#
# _framework density 20.363543
#
# number of rings (size 3 to 8) (size 9 to 14) (size 15 to 20)
#    0.000    1.500    5.000    0.000    0.000    3.000 
#    0.000   11.250    0.000    0.000    0.000    0.000 
#    0.000    0.000    0.000    0.000    0.000    0.000 
#
# Total GULP energy -178393.852947 kJ/mol
# GULP energy per Si atom -5574.807905 kJ/mol
# Density = 2.031719 g / cm^3
# Si number density = 20.363543 Si / 1000 Ang^3
#
#
#
# Elastic Constant Matrix: (Units=GPa)
#
#
# Indices 1 2 3 4 5 6 
#
# 1 133.4224 46.5898 31.8308 -0.0013 0.0024 0.0008
# 2 46.5898 79.2478 55.7483 0.0016 0.0008 -0.0005
# 3 31.8308 55.7483 142.9383 -0.0008 0.0063 0.0014
# 4 -0.0013 0.0016 -0.0008 21.4670 0.0022 -0.0003
# 5 0.0024 0.0008 0.0063 0.0022 14.9737 -0.0014
# 6 0.0008 -0.0005 0.0014 -0.0003 -0.0014 33.5195
#
#
#
# Elastic Compliance Matrix: (Units=1/GPa)
#
#
# Indices 1 2 3 4 5 6 
#
# 1 0.009432 -0.005605 0.000086 0.000001 -0.000001 0.000000
# 2 -0.005605 0.020721 -0.006833 -0.000002 0.000003 0.000001
# 3 0.000086 -0.006833 0.009642 0.000001 -0.000004 -0.000001
# 4 0.000001 -0.000002 0.000001 0.046583 -0.000007 0.000000
# 5 -0.000001 0.000003 -0.000004 -0.000007 0.066784 0.000003
# 6 0.000000 0.000001 -0.000001 0.000000 0.000003 0.029833
#
#
# Mechanical properties :
#
#
# Convention : Reuss Voigt Hill
#
# Bulk Modulus (GPa) = 66.27245 69.32738 67.79991
# Shear Modulus (GPa) = 23.50390 28.75467 26.12928
#
# Velocity S-wave (km/s) = 3.40106 3.76182 3.58598
# Velocity P-wave (km/s) = 6.93096 7.27923 7.10723
#
# Compressibility (1/GPa) = 0.01508923
#
# Stress axis : x y z
#
# Youngs Moduli (GPa) = 106.02363 48.26007 103.71273
#
# Poissons Ratio (x) = 0.27052 -0.00890
# Poissons Ratio (y) = 0.59430 0.70870
# Poissons Ratio (z) = -0.00910 0.32978
#
# Static dielectric constant tensor:
#      x y z
#    x 1.766090 0.000000 0.000000 
#    y 0.000000 1.714210 0.000000 
#    z 0.000000 0.000000 1.778750 
# 
# From -- ./inp_files/11026.got.cif
#   From: 2010.05.17/outbox.cif.g08.bks.cpg/sg70_6_cif.got.tgz:11026.got - 2010.06.03 15:57:51.
