data_PCOD9515266
_publ_section_title
;
Structure prediction by ZEFSAII (Michael W. Deem and Ramdas Pophale) SiO2 
 PCOD9515266
Probable space group: F D D D
;
_chemical_formula_sum "Si O2"
_cell_formula_units_Z 208
_cell_length_a 21.490981
_cell_length_b 14.007482
_cell_length_c 31.335619
_cell_angle_alpha 90.000000
_cell_angle_beta 90.000000
_cell_angle_gamma 90.000000
_cell_volume 9433.103323
_symmetry_space_group_name_H-M "F D D D"
_symmetry_group_IT_number 70
_space_group.IT_coordinate_system_code '2'
_symmetry_cell_setting 'orthorhombic'
loop_
_space_group_symop_operation_xyz
x,y,z
1/4-x,1/4-y,z
x,1/4-y,1/4-z
1/4-x,y,1/4-z
-x,-y,-z
3/4+x,3/4+y,-z
-x,3/4+y,3/4+z
3/4+x,-y,3/4+z
x,1/2+y,1/2+z
1/4-x,3/4-y,1/2+z
x,3/4-y,3/4-z
1/4-x,1/2+y,3/4-z
-x,1/2-y,1/2-z
3/4+x,1/4+y,1/2-z
-x,1/4+y,1/4+z
3/4+x,1/2-y,1/4+z
1/2+x,y,1/2+z
3/4-x,1/4-y,1/2+z
1/2+x,1/4-y,3/4-z
3/4-x,y,3/4-z
1/2-x,-y,1/2-z
1/4+x,3/4+y,1/2-z
1/2-x,3/4+y,1/4+z
1/4+x,-y,1/4+z
1/2+x,1/2+y,z
3/4-x,3/4-y,z
1/2+x,3/4-y,1/4-z
3/4-x,1/2+y,1/4-z
1/2-x,1/2-y,-z
1/4+x,1/4+y,-z
1/2-x,1/4+y,3/4+z
1/4+x,1/2-y,3/4+z
loop_
_atom_site_type_symbol
_atom_site_label
_atom_site_fract_x
_atom_site_fract_y
_atom_site_fract_z
Si Si1 0.658540 0.229067 0.585294
Si Si2 0.969029 0.994042 0.277884
Si Si3 0.362598 0.486055 0.005647
Si Si4 0.499044 0.538158 0.547237
Si Si5 0.448711 0.763166 0.879006
Si Si6 0.605423 0.416906 0.799928
Si Si7 0.478613 0.125000 0.625000
O O1 0.625000 0.125000 0.581789
O O2 0.625000 0.280467 0.625000
O O3 0.643412 0.269818 0.539065
O O4 0.727443 0.198943 0.599008
O O5 0.967197 0.036266 0.326308
O O6 0.959473 0.883589 0.290494
O O7 0.921606 0.032156 0.242499
O O8 0.038095 0.001228 0.257800
O O9 0.375000 0.375000 0.012304
O O10 0.392893 0.553610 0.040768
O O11 0.500000 0.500000 0.500000
O O12 0.525388 0.471773 0.584676
O O13 0.426964 0.557322 0.557798
O O14 0.472478 0.875000 0.875000
O O15 0.375000 0.766208 0.875000
O O16 0.562585 0.431641 0.840822
#
# Coordination Sequence:
#
# PCOD9515266 Si02
#       7
#    32  32  32  32  32  32  16
#     4   8  15  32  55  79 112 154 198 240 293 359
#     4  10  21  38  61  90 118 160 210 256 312 381
#     4  10  21  37  60  87 123 161 209 254 306 375
#     4  10  22  39  63  88 122 159 203 262 322 372
#     4   9  18  35  62  86 116 159 202 245 307 375
#     4  11  23  37  62  89 124 162 208 260 318 379
#     4  10  21  34  58  86 119 166 202 246 320 374
#
# _framework density 22.050008999999999
#
# number of rings (size 3 to 8) (size 9 to 14) (size 15 to 20)
#    0.000    2.462    0.000    3.692    5.385    4.308 
#    0.000    6.923    0.000    1.846    0.000    0.000 
#    0.000    0.000    0.000    0.000    0.000    0.000 
#
# Total GULP energy -289927.820929 kJ/mol
# GULP energy per Si atom -5575.535018 kJ/mol
# Density = 2.199982 g / cm^3
# Si number density = 22.050009 Si / 1000 Ang^3
#
#
#
# Elastic Constant Matrix: (Units=GPa)
#
#
# Indices 1 2 3 4 5 6 
#
# 1 121.5339 7.6242 70.2035 0.0000 0.0000 0.0000
# 2 7.6242 24.8365 12.3170 0.0000 0.0000 0.0000
# 3 70.2035 12.3170 159.1199 0.0000 0.0000 0.0000
# 4 0.0000 0.0000 0.0000 23.0431 0.0000 0.0000
# 5 0.0000 0.0000 0.0000 0.0000 30.1906 0.0000
# 6 0.0000 0.0000 0.0000 0.0000 0.0000 12.0084
#
#
#
# Elastic Compliance Matrix: (Units=1/GPa)
#
#
# Indices 1 2 3 4 5 6 
#
# 1 0.011067 -0.001015 -0.004804 0.000000 0.000000 0.000000
# 2 -0.001015 0.041964 -0.002801 0.000000 0.000000 0.000000
# 3 -0.004804 -0.002801 0.008621 0.000000 0.000000 0.000000
# 4 0.000000 0.000000 0.000000 0.043397 0.000000 0.000000
# 5 0.000000 0.000000 0.000000 0.000000 0.033123 0.000000
# 6 0.000000 0.000000 0.000000 0.000000 0.000000 0.083275
#
#
# Mechanical properties :
#
#
# Convention : Reuss Voigt Hill
#
# Bulk Modulus (GPa) = 22.51615 53.97550 38.24582
# Shear Modulus (GPa) = 19.72467 27.40480 23.56473
#
# Velocity S-wave (km/s) = 2.99414 3.52923 3.27264
# Velocity P-wave (km/s) = 4.71028 6.41398 5.62698
#
# Compressibility (1/GPa) = 0.04441257
#
# Stress axis : x y z
#
# Youngs Moduli (GPa) = 90.35938 23.83011 115.99661
#
# Poissons Ratio (x) = 0.02418 0.55727
# Poissons Ratio (y) = 0.09169 0.32486
# Poissons Ratio (z) = 0.43410 0.06674
#
# Static dielectric constant tensor:
#      x y z
#    x 1.808210 0.000000 0.000000 
#    y 0.000000 1.925460 0.000000 
#    z 0.000000 0.000000 2.022650 
# 
# From -- ./inp_files/60428.got.cif
#   From: 2010.05.17/outbox.cif.g08.bks.cpg/sg70_31_cif.got.tgz:60428.got - 2010.06.03 15:57:51.
