data_PCOD9515224
_publ_section_title
;
Structure prediction by ZEFSAII (Michael W. Deem and Ramdas Pophale) SiO2 
 PCOD9515224
Probable space group: F D D D
;
_chemical_formula_sum "Si O2"
_cell_formula_units_Z 112
_cell_length_a 17.118231
_cell_length_b 11.162143
_cell_length_c 23.507008
_cell_angle_alpha 90.000000
_cell_angle_beta 90.000000
_cell_angle_gamma 90.000000
_cell_volume 4491.628406
_symmetry_space_group_name_H-M "F D D D"
_symmetry_group_IT_number 70
_space_group.IT_coordinate_system_code '2'
_symmetry_cell_setting 'orthorhombic'
loop_
_space_group_symop_operation_xyz
x,y,z
1/4-x,1/4-y,z
x,1/4-y,1/4-z
1/4-x,y,1/4-z
-x,-y,-z
3/4+x,3/4+y,-z
-x,3/4+y,3/4+z
3/4+x,-y,3/4+z
x,1/2+y,1/2+z
1/4-x,3/4-y,1/2+z
x,3/4-y,3/4-z
1/4-x,1/2+y,3/4-z
-x,1/2-y,1/2-z
3/4+x,1/4+y,1/2-z
-x,1/4+y,1/4+z
3/4+x,1/2-y,1/4+z
1/2+x,y,1/2+z
3/4-x,1/4-y,1/2+z
1/2+x,1/4-y,3/4-z
3/4-x,y,3/4-z
1/2-x,-y,1/2-z
1/4+x,3/4+y,1/2-z
1/2-x,3/4+y,1/4+z
1/4+x,-y,1/4+z
1/2+x,1/2+y,z
3/4-x,3/4-y,z
1/2+x,3/4-y,1/4-z
3/4-x,1/2+y,1/4-z
1/2-x,1/2-y,-z
1/4+x,1/4+y,-z
1/2-x,1/4+y,3/4+z
1/4+x,1/2-y,3/4+z
loop_
_atom_site_type_symbol
_atom_site_label
_atom_site_fract_x
_atom_site_fract_y
_atom_site_fract_z
Si Si1 0.625000 0.125000 0.880966
Si Si2 0.227620 0.991805 0.150932
Si Si3 0.241920 0.931244 0.815533
Si Si4 0.158516 0.885213 0.036070
O O1 0.683966 0.047965 0.842938
O O2 0.673018 0.222962 0.918101
O O3 0.198686 0.922116 0.094964
O O4 0.175485 0.945771 0.203902
O O5 0.220295 0.125000 0.125000
O O6 0.264958 0.875000 0.875000
O O7 0.204834 0.834985 0.771642
O O8 0.318569 0.994145 0.788592
#
# Coordination Sequence:
#
# PCOD9515224 Si02
#       4
#    16  32  32  32
#     4  10  22  42  62  97 139 174 222 276 340 400
#     4  10  20  43  70  99 136 170 228 285 330 410
#     4  10  21  43  65  96 139 172 220 286 339 407
#     4   9  20  41  68  99 128 177 225 273 346 405
#
# _framework density 24.935276000000002
#
# number of rings (size 3 to 8) (size 9 to 14) (size 15 to 20)
#    0.000    2.286    0.000    2.571    0.000    0.000 
#   51.429    5.714    0.000    1.714    0.000    0.000 
#    0.000    0.000    0.000    0.000    0.000    0.000 
#
# Total GULP energy -155898.999791 kJ/mol
# GULP energy per Si atom -5567.821421 kJ/mol
# Density = 2.487852 g / cm^3
# Si number density = 24.935276 Si / 1000 Ang^3
#
#
#
# Elastic Constant Matrix: (Units=GPa)
#
#
# Indices 1 2 3 4 5 6 
#
# 1 123.4830 60.4781 34.7744 0.0000 0.0000 0.0000
# 2 60.4781 73.7579 15.2091 0.0000 0.0000 0.0000
# 3 34.7744 15.2091 115.9369 0.0000 0.0000 0.0000
# 4 0.0000 0.0000 0.0000 -11.4570 0.0000 0.0000
# 5 0.0000 0.0000 0.0000 0.0000 -13.3130 0.0000
# 6 0.0000 0.0000 0.0000 0.0000 0.0000 56.3651
#
#
#
# Elastic Compliance Matrix: (Units=1/GPa)
#
#
# Indices 1 2 3 4 5 6 
#
# 1 0.014392 -0.011214 -0.002846 0.000000 0.000000 0.000000
# 2 -0.011214 0.022672 0.000389 0.000000 0.000000 0.000000
# 3 -0.002846 0.000389 0.009428 0.000000 0.000000 0.000000
# 4 0.000000 0.000000 0.000000 -0.087283 0.000000 0.000000
# 5 0.000000 0.000000 0.000000 0.000000 -0.075114 0.000000
# 6 0.000000 0.000000 0.000000 0.000000 0.000000 0.017741
#
#
# Mechanical properties :
#
#
# Convention : Reuss Voigt Hill
#
# Bulk Modulus (GPa) = 52.21488 59.34454 55.77971
# Shear Modulus (GPa) = -77.59226 19.83343 -28.87941
#
# Velocity S-wave (km/s) = -5.58435 2.82334 -3.40689
# Velocity P-wave (km/s) = 4.53811 5.87192 2.63486
#
# Compressibility (1/GPa) = 0.01915163
#
# Stress axis : x y z
#
# Youngs Moduli (GPa) = 69.48371 44.10636 106.06872
#
# Poissons Ratio (x) = 0.49460 0.30183
# Poissons Ratio (y) = 0.77918 -0.04129
# Poissons Ratio (z) = 0.19773 -0.01717
#
# Static dielectric constant tensor:
#      x y z
#    x 2.269260 0.000000 0.000000 
#    y 0.000000 2.446980 0.000000 
#    z 0.000000 0.000000 1.884490 
# 
# From -- ./inp_files/59211.got.cif
#   From: 2010.05.17/outbox.cif.g08.bks.cpg/sg70_30_cif.got.tgz:59211.got - 2010.06.03 15:57:51.
