data_PCOD9515649
_publ_section_title
;
Structure prediction by ZEFSAII (Michael W. Deem and Ramdas Pophale) SiO2 
 PCOD9515649
Probable space group: F D D D
;
_chemical_formula_sum "Si O2"
_cell_formula_units_Z 168
_cell_length_a 13.000753
_cell_length_b 21.967328
_cell_length_c 27.330580
_cell_angle_alpha 90.000000
_cell_angle_beta 90.000000
_cell_angle_gamma 90.000000
_cell_volume 7805.389685
_symmetry_space_group_name_H-M "F D D D"
_symmetry_group_IT_number 70
_space_group.IT_coordinate_system_code '2'
_symmetry_cell_setting 'orthorhombic'
loop_
_space_group_symop_operation_xyz
x,y,z
1/4-x,1/4-y,z
x,1/4-y,1/4-z
1/4-x,y,1/4-z
-x,-y,-z
3/4+x,3/4+y,-z
-x,3/4+y,3/4+z
3/4+x,-y,3/4+z
x,1/2+y,1/2+z
1/4-x,3/4-y,1/2+z
x,3/4-y,3/4-z
1/4-x,1/2+y,3/4-z
-x,1/2-y,1/2-z
3/4+x,1/4+y,1/2-z
-x,1/4+y,1/4+z
3/4+x,1/2-y,1/4+z
1/2+x,y,1/2+z
3/4-x,1/4-y,1/2+z
1/2+x,1/4-y,3/4-z
3/4-x,y,3/4-z
1/2-x,-y,1/2-z
1/4+x,3/4+y,1/2-z
1/2-x,3/4+y,1/4+z
1/4+x,-y,1/4+z
1/2+x,1/2+y,z
3/4-x,3/4-y,z
1/2+x,3/4-y,1/4-z
3/4-x,1/2+y,1/4-z
1/2-x,1/2-y,-z
1/4+x,1/4+y,-z
1/2-x,1/4+y,3/4+z
1/4+x,1/2-y,3/4+z
loop_
_atom_site_type_symbol
_atom_site_label
_atom_site_fract_x
_atom_site_fract_y
_atom_site_fract_z
Si Si1 0.305324 0.990396 0.330151
Si Si2 0.532368 0.771739 0.001865
Si Si3 0.875000 0.875000 0.875000
Si Si4 0.571248 0.523532 0.437760
Si Si5 0.590543 0.057767 0.829465
Si Si6 0.760668 0.349757 0.969465
O O1 0.375000 0.016881 0.375000
O O2 0.306051 0.918922 0.342221
O O3 0.367376 0.002251 0.281182
O O4 0.193426 0.017359 0.329408
O O5 0.437850 0.773031 0.040532
O O6 0.549458 0.837829 0.977930
O O7 0.512995 0.723117 0.958797
O O8 0.556091 0.555164 0.385705
O O9 0.531887 0.453637 0.434954
O O10 0.514917 0.564142 0.478683
O O11 0.625000 0.125000 0.814935
O O12 0.875000 0.375000 0.956619
#
# Coordination Sequence:
#
# PCOD9515649 Si02
#       6
#    32  32   8  32  32  32
#     4  10  22  41  62  94 129 176 215 275 332 394
#     4  11  23  39  65  95 129 175 215 277 332 397
#     4   8  20  36  68  80 120 188 210 262 348 380
#     4  10  21  44  65  94 134 172 213 280 332 394
#     4  12  26  40  64  99 132 171 226 275 334 410
#     4   9  21  42  69  91 128 174 217 266 337 393
#
# _framework density 21.523589000000001
#
# number of rings (size 3 to 8) (size 9 to 14) (size 15 to 20)
#    0.571    1.143    1.905    2.286    4.000    3.810 
#    0.000   11.429    0.000    0.000    0.000    0.000 
#    0.000    0.000    0.000    0.000    0.000    0.000 
#
# Total GULP energy -234443.661388 kJ/mol
# GULP energy per Si atom -5581.991938 kJ/mol
# Density = 2.147460 g / cm^3
# Si number density = 21.523589 Si / 1000 Ang^3
#
#
#
# Elastic Constant Matrix: (Units=GPa)
#
#
# Indices 1 2 3 4 5 6 
#
# 1 18.2269 2.4351 -14.9122 0.0000 0.0000 0.0000
# 2 2.4351 145.4997 -17.9995 0.0000 0.0000 0.0000
# 3 -14.9122 -17.9995 39.0616 0.0000 0.0000 0.0000
# 4 0.0000 0.0000 0.0000 12.8500 0.0000 0.0000
# 5 0.0000 0.0000 0.0000 0.0000 16.1714 0.0000
# 6 0.0000 0.0000 0.0000 0.0000 0.0000 35.1610
#
#
#
# Elastic Compliance Matrix: (Units=1/GPa)
#
#
# Indices 1 2 3 4 5 6 
#
# 1 0.080706 0.002610 0.032013 0.000000 0.000000 0.000000
# 2 0.002610 0.007373 0.004394 0.000000 0.000000 0.000000
# 3 0.032013 0.004394 0.039846 0.000000 0.000000 0.000000
# 4 0.000000 0.000000 0.000000 0.077821 0.000000 0.000000
# 5 0.000000 0.000000 0.000000 0.000000 0.061838 0.000000
# 6 0.000000 0.000000 0.000000 0.000000 0.000000 0.028441
#
#
# Mechanical properties :
#
#
# Convention : Reuss Voigt Hill
#
# Bulk Modulus (GPa) = 4.85537 15.75945 10.30741
# Shear Modulus (GPa) = 17.44317 28.38745 22.91531
#
# Velocity S-wave (km/s) = 2.84988 3.63561 3.26645
# Velocity P-wave (km/s) = 3.61798 4.99613 4.36183
#
# Compressibility (1/GPa) = 0.20595759
#
# Stress axis : x y z
#
# Youngs Moduli (GPa) = 12.39060 135.63530 25.09637
#
# Poissons Ratio (x) = -0.35395 -0.80341
# Poissons Ratio (y) = -0.03233 -0.11026
# Poissons Ratio (z) = -0.39666 -0.59592
#
# Static dielectric constant tensor:
#      x y z
#    x 1.787400 0.000000 0.000000 
#    y 0.000000 1.803350 0.000000 
#    z 0.000000 0.000000 1.841340 
# 
# From -- ./inp_files/53638.got.cif
#   From: 2010.05.17/outbox.cif.g08.bks.cpg/sg70_27_cif.got.tgz:53638.got - 2010.06.03 15:57:51.
