data_PCOD9515217
_publ_section_title
;
Structure prediction by ZEFSAII (Michael W. Deem and Ramdas Pophale) SiO2 
 PCOD9515217
Probable space group: F D D D
;
_chemical_formula_sum "Si O2"
_cell_formula_units_Z 216
_cell_length_a 29.677917
_cell_length_b 14.112119
_cell_length_c 24.696887
_cell_angle_alpha 90.000000
_cell_angle_beta 90.000000
_cell_angle_gamma 90.000000
_cell_volume 10343.508139
_symmetry_space_group_name_H-M "F D D D"
_symmetry_group_IT_number 70
_space_group.IT_coordinate_system_code '2'
_symmetry_cell_setting 'orthorhombic'
loop_
_space_group_symop_operation_xyz
x,y,z
1/4-x,1/4-y,z
x,1/4-y,1/4-z
1/4-x,y,1/4-z
-x,-y,-z
3/4+x,3/4+y,-z
-x,3/4+y,3/4+z
3/4+x,-y,3/4+z
x,1/2+y,1/2+z
1/4-x,3/4-y,1/2+z
x,3/4-y,3/4-z
1/4-x,1/2+y,3/4-z
-x,1/2-y,1/2-z
3/4+x,1/4+y,1/2-z
-x,1/4+y,1/4+z
3/4+x,1/2-y,1/4+z
1/2+x,y,1/2+z
3/4-x,1/4-y,1/2+z
1/2+x,1/4-y,3/4-z
3/4-x,y,3/4-z
1/2-x,-y,1/2-z
1/4+x,3/4+y,1/2-z
1/2-x,3/4+y,1/4+z
1/4+x,-y,1/4+z
1/2+x,1/2+y,z
3/4-x,3/4-y,z
1/2+x,3/4-y,1/4-z
3/4-x,1/2+y,1/4-z
1/2-x,1/2-y,-z
1/4+x,1/4+y,-z
1/2-x,1/4+y,3/4+z
1/4+x,1/2-y,3/4+z
loop_
_atom_site_type_symbol
_atom_site_label
_atom_site_fract_x
_atom_site_fract_y
_atom_site_fract_z
Si Si1 0.045436 0.721643 0.782533
Si Si2 0.733507 0.744635 0.562794
Si Si3 0.886363 0.593073 0.216883
Si Si4 0.482444 0.325099 0.594584
Si Si5 0.415715 0.442045 0.513317
Si Si6 0.942308 0.962802 0.790365
Si Si7 0.625000 0.125000 0.625000
Si Si8 0.307060 0.125000 0.625000
O O1 0.086539 0.798090 0.777598
O O2 0.034885 0.705222 0.846428
O O3 0.058626 0.623307 0.752753
O O4 0.000000 0.750000 0.750000
O O5 0.750000 0.750000 0.500000
O O6 0.730533 0.840339 0.597301
O O7 0.686317 0.701079 0.547197
O O8 0.771812 0.681449 0.588835
O O9 0.895028 0.543821 0.032253
O O10 0.919717 0.552192 0.261821
O O11 0.909580 0.561001 0.160522
O O12 0.446621 0.382501 0.557104
O O13 0.508139 0.240249 0.563045
O O14 0.375000 0.375000 0.507078
O O15 0.908793 0.935168 0.838360
#
# Coordination Sequence:
#
# PCOD9515217 Si02
#       8
#    32  32  32  32  32  32   8  16
#     4  12  29  47  70 114 145 189 248 311 368 436
#     4  10  20  43  67 104 140 187 238 292 370 430
#     4  12  25  47  74 107 144 192 245 301 367 449
#     4  11  24  45  75 102 145 193 243 304 373 431
#     4  11  25  46  71 110 150 189 243 307 370 448
#     4  12  25  47  76 101 147 194 250 297 365 451
#     4  12  24  48  70 108 142 208 244 306 376 442
#     4  12  22  40  78 102 142 188 239 305 364 430
#
# _framework density 20.882663999999998
#
# number of rings (size 3 to 8) (size 9 to 14) (size 15 to 20)
#    0.000    0.593    5.926    2.667    4.148    0.000 
#    0.000    0.370    0.000    0.000    0.000    0.000 
#    0.000    0.000    0.000    0.000    0.000    0.000 
#
# Total GULP energy -300667.164386 kJ/mol
# GULP energy per Si atom -5567.910452 kJ/mol
# Density = 2.083513 g / cm^3
# Si number density = 20.882664 Si / 1000 Ang^3
#
#
#
# Elastic Constant Matrix: (Units=GPa)
#
#
# Indices 1 2 3 4 5 6 
#
# 1 124.7968 63.1222 42.0388 0.0000 0.0000 0.0000
# 2 63.1222 94.4086 14.4332 0.0000 0.0000 0.0000
# 3 42.0388 14.4332 31.5391 0.0000 0.0000 0.0000
# 4 0.0000 0.0000 0.0000 28.3981 0.0000 0.0000
# 5 0.0000 0.0000 0.0000 0.0000 139.1302 0.0000
# 6 0.0000 0.0000 0.0000 0.0000 0.0000 27.1908
#
#
#
# Elastic Compliance Matrix: (Units=1/GPa)
#
#
# Indices 1 2 3 4 5 6 
#
# 1 0.021354 -0.010673 -0.023579 0.000000 0.000000 0.000000
# 2 -0.010673 0.016723 0.006573 0.000000 0.000000 0.000000
# 3 -0.023579 0.006573 0.060127 0.000000 0.000000 0.000000
# 4 0.000000 0.000000 0.000000 0.035214 0.000000 0.000000
# 5 0.000000 0.000000 0.000000 0.000000 0.007188 0.000000
# 6 0.000000 0.000000 0.000000 0.000000 0.000000 0.036777
#
#
# Mechanical properties :
#
#
# Convention : Reuss Voigt Hill
#
# Bulk Modulus (GPa) = 23.33886 54.43697 38.88792
# Shear Modulus (GPa) = 20.24102 47.68717 33.96409
#
# Velocity S-wave (km/s) = 3.11669 4.78386 4.03727
# Velocity P-wave (km/s) = 4.91448 7.52585 6.35573
#
# Compressibility (1/GPa) = 0.04284699
#
# Stress axis : x y z
#
# Youngs Moduli (GPa) = 46.82958 59.79701 16.63133
#
# Poissons Ratio (x) = 0.63819 0.39215
# Poissons Ratio (y) = 0.49980 -0.10931
# Poissons Ratio (z) = 1.10419 -0.39303
#
# Static dielectric constant tensor:
#      x y z
#    x -6.076310 0.000000 0.000000 
#    y 0.000000 1.538800 0.000000 
#    z 0.000000 0.000000 1.849330 
# 
# From -- ./inp_files/55150.got.cif
#   From: 2010.05.17/outbox.cif.g08.bks.cpg/sg70_28_cif.got.tgz:55150.got - 2010.06.03 15:57:51.
