data_PCOD9515698
_publ_section_title
;
Structure prediction by ZEFSAII (Michael W. Deem and Ramdas Pophale) SiO2 
 PCOD9515698
Probable space group: F D D D
;
_chemical_formula_sum "Si O2"
_cell_formula_units_Z 128
_cell_length_a 16.055320
_cell_length_b 18.165188
_cell_length_c 20.391655
_cell_angle_alpha 90.000000
_cell_angle_beta 90.000000
_cell_angle_gamma 90.000000
_cell_volume 5947.183485
_symmetry_space_group_name_H-M "F D D D"
_symmetry_group_IT_number 70
_space_group.IT_coordinate_system_code '2'
_symmetry_cell_setting 'orthorhombic'
loop_
_space_group_symop_operation_xyz
x,y,z
1/4-x,1/4-y,z
x,1/4-y,1/4-z
1/4-x,y,1/4-z
-x,-y,-z
3/4+x,3/4+y,-z
-x,3/4+y,3/4+z
3/4+x,-y,3/4+z
x,1/2+y,1/2+z
1/4-x,3/4-y,1/2+z
x,3/4-y,3/4-z
1/4-x,1/2+y,3/4-z
-x,1/2-y,1/2-z
3/4+x,1/4+y,1/2-z
-x,1/4+y,1/4+z
3/4+x,1/2-y,1/4+z
1/2+x,y,1/2+z
3/4-x,1/4-y,1/2+z
1/2+x,1/4-y,3/4-z
3/4-x,y,3/4-z
1/2-x,-y,1/2-z
1/4+x,3/4+y,1/2-z
1/2-x,3/4+y,1/4+z
1/4+x,-y,1/4+z
1/2+x,1/2+y,z
3/4-x,3/4-y,z
1/2+x,3/4-y,1/4-z
3/4-x,1/2+y,1/4-z
1/2-x,1/2-y,-z
1/4+x,1/4+y,-z
1/2-x,1/4+y,3/4+z
1/4+x,1/2-y,3/4+z
loop_
_atom_site_type_symbol
_atom_site_label
_atom_site_fract_x
_atom_site_fract_y
_atom_site_fract_z
Si Si1 0.199890 0.762671 0.673247
Si Si2 0.364925 0.206148 0.592561
Si Si3 0.198915 0.568813 0.440716
Si Si4 0.365935 0.670011 0.944951
O O1 0.125000 0.741510 0.625000
O O2 0.289968 0.735142 0.649706
O O3 0.183119 0.727319 0.743632
O O4 0.193868 0.850673 0.683187
O O5 0.358470 0.125000 0.625000
O O6 0.305131 0.261806 0.630731
O O7 0.346227 0.206240 0.514532
O O8 0.125000 0.625000 0.430670
O O9 0.287947 0.607114 0.453001
O O10 0.375000 0.712023 0.875000
#
# Coordination Sequence:
#
# PCOD9515698 Si02
#       4
#    32  32  32  32
#     4  10  22  36  59  92 129 157 195 247 311 370
#     4  11  23  40  63  92 124 159 204 249 305 361
#     4  11  23  37  61  91 123 164 203 248 306 363
#     4  10  22  42  62  87 121 162 207 250 300 357
#
# _framework density 21.522794000000001
#
# number of rings (size 3 to 8) (size 9 to 14) (size 15 to 20)
#    0.000    1.500    2.500    3.000    7.000    3.000 
#    0.000    0.000    0.000    0.000    0.000    0.000 
#    0.000    0.000    0.000    0.000    0.000    0.000 
#
# Total GULP energy -178629.358995 kJ/mol
# GULP energy per Si atom -5582.167469 kJ/mol
# Density = 2.147381 g / cm^3
# Si number density = 21.522794 Si / 1000 Ang^3
#
#
#
# Elastic Constant Matrix: (Units=GPa)
#
#
# Indices 1 2 3 4 5 6 
#
# 1 60.1574 21.0931 1.3208 0.0000 0.0000 0.0000
# 2 21.0931 68.8891 12.1319 0.0000 0.0000 0.0000
# 3 1.3208 12.1319 138.9944 0.0000 0.0000 0.0000
# 4 0.0000 0.0000 0.0000 12.7772 0.0000 0.0000
# 5 0.0000 0.0000 0.0000 0.0000 27.7635 0.0000
# 6 0.0000 0.0000 0.0000 0.0000 0.0000 175.6422
#
#
#
# Elastic Compliance Matrix: (Units=1/GPa)
#
#
# Indices 1 2 3 4 5 6 
#
# 1 0.018637 -0.005764 0.000326 0.000000 0.000000 0.000000
# 2 -0.005764 0.016525 -0.001388 0.000000 0.000000 0.000000
# 3 0.000326 -0.001388 0.007313 0.000000 0.000000 0.000000
# 4 0.000000 0.000000 0.000000 0.078264 0.000000 0.000000
# 5 0.000000 0.000000 0.000000 0.000000 0.036018 0.000000
# 6 0.000000 0.000000 0.000000 0.000000 0.000000 0.005693
#
#
# Mechanical properties :
#
#
# Convention : Reuss Voigt Hill
#
# Bulk Modulus (GPa) = 34.69351 37.45915 36.07633
# Shear Modulus (GPa) = 26.92377 58.80293 42.86335
#
# Velocity S-wave (km/s) = 3.54070 5.23264 4.46750
# Velocity P-wave (km/s) = 5.73322 7.34504 6.58861
#
# Compressibility (1/GPa) = 0.02882384
#
# Stress axis : x y z
#
# Youngs Moduli (GPa) = 53.65705 60.51339 136.75114
#
# Poissons Ratio (x) = 0.34879 -0.04458
# Poissons Ratio (y) = 0.30927 0.18976
# Poissons Ratio (z) = -0.01749 0.08397
#
# Static dielectric constant tensor:
#      x y z
#    x 1.768910 0.000000 0.000000 
#    y 0.000000 1.769930 0.000000 
#    z 0.000000 0.000000 1.896940 
# 
# From -- ./inp_files/34831.got.cif
#   From: 2010.05.17/outbox.cif.g08.bks.cpg/sg70_18_cif.got.tgz:34831.got - 2010.06.03 15:57:51.
