data_PCOD9515933
_publ_section_title
;
Structure prediction by ZEFSAII (Michael W. Deem and Ramdas Pophale) SiO2 
 PCOD9515933
Probable space group: F D D D
;
_chemical_formula_sum "Si O2"
_cell_formula_units_Z 136
_cell_length_a 24.854111
_cell_length_b 11.183122
_cell_length_c 22.188733
_cell_angle_alpha 90.000000
_cell_angle_beta 90.000000
_cell_angle_gamma 90.000000
_cell_volume 6167.281909
_symmetry_space_group_name_H-M "F D D D"
_symmetry_group_IT_number 70
_space_group.IT_coordinate_system_code '2'
_symmetry_cell_setting 'orthorhombic'
loop_
_space_group_symop_operation_xyz
x,y,z
1/4-x,1/4-y,z
x,1/4-y,1/4-z
1/4-x,y,1/4-z
-x,-y,-z
3/4+x,3/4+y,-z
-x,3/4+y,3/4+z
3/4+x,-y,3/4+z
x,1/2+y,1/2+z
1/4-x,3/4-y,1/2+z
x,3/4-y,3/4-z
1/4-x,1/2+y,3/4-z
-x,1/2-y,1/2-z
3/4+x,1/4+y,1/2-z
-x,1/4+y,1/4+z
3/4+x,1/2-y,1/4+z
1/2+x,y,1/2+z
3/4-x,1/4-y,1/2+z
1/2+x,1/4-y,3/4-z
3/4-x,y,3/4-z
1/2-x,-y,1/2-z
1/4+x,3/4+y,1/2-z
1/2-x,3/4+y,1/4+z
1/4+x,-y,1/4+z
1/2+x,1/2+y,z
3/4-x,3/4-y,z
1/2+x,3/4-y,1/4-z
3/4-x,1/2+y,1/4-z
1/2-x,1/2-y,-z
1/4+x,1/4+y,-z
1/2-x,1/4+y,3/4+z
1/4+x,1/2-y,3/4+z
loop_
_atom_site_type_symbol
_atom_site_label
_atom_site_fract_x
_atom_site_fract_y
_atom_site_fract_z
Si Si1 0.881123 0.508308 0.803710
Si Si2 0.125000 0.625000 0.625000
Si Si3 0.754082 0.612565 0.294325
Si Si4 0.834672 0.729655 0.762830
Si Si5 0.158973 0.512903 0.852389
O O1 0.875000 0.501288 0.875000
O O2 0.875000 0.375000 0.779265
O O3 0.936850 0.582277 0.797413
O O4 0.835440 0.589851 0.774530
O O5 0.157125 0.542737 0.577747
O O6 0.750000 0.500000 0.250000
O O7 0.717377 0.718326 0.268480
O O8 0.720696 0.559572 0.351201
O O9 0.883463 0.754486 0.715461
O O10 0.125000 0.625000 0.880265
O O11 0.155114 0.375000 0.875000
#
# Coordination Sequence:
#
# PCOD9515933 Si02
#       5
#    32   8  32  32  32
#     4  11  25  45  66 100 148 189 240 303 364 448
#     4  12  16  40  78 108 140 180 244 320 368 416
#     4  11  22  43  68 104 137 180 257 294 364 441
#     4  11  22  41  72 104 140 185 245 312 361 434
#     4  10  22  43  65 103 149 192 242 311 367 449
#
# _framework density 22.051855
#
# number of rings (size 3 to 8) (size 9 to 14) (size 15 to 20)
#    0.000    1.176    7.059    0.000    0.000    3.765 
#   19.059    0.000    0.000    0.000    0.000    0.000 
#    0.000    0.000    0.000    0.000    0.000    0.000 
#
# Total GULP energy -189504.010491 kJ/mol
# GULP energy per Si atom -5573.647367 kJ/mol
# Density = 2.200166 g / cm^3
# Si number density = 22.051855 Si / 1000 Ang^3
#
#
#
# Elastic Constant Matrix: (Units=GPa)
#
#
# Indices 1 2 3 4 5 6 
#
# 1 100.7392 54.8501 16.6960 0.0000 0.0000 0.0000
# 2 54.8501 239.8807 33.9440 0.0000 0.0000 0.0000
# 3 16.6960 33.9440 71.1208 0.0000 0.0000 0.0000
# 4 0.0000 0.0000 0.0000 28.8034 0.0000 0.0000
# 5 0.0000 0.0000 0.0000 0.0000 9.5369 0.0000
# 6 0.0000 0.0000 0.0000 0.0000 0.0000 23.3538
#
#
#
# Elastic Compliance Matrix: (Units=1/GPa)
#
#
# Indices 1 2 3 4 5 6 
#
# 1 0.011495 -0.002409 -0.001549 0.000000 0.000000 0.000000
# 2 -0.002409 0.004976 -0.001809 0.000000 0.000000 0.000000
# 3 -0.001549 -0.001809 0.015288 0.000000 0.000000 0.000000
# 4 0.000000 0.000000 0.000000 0.034718 0.000000 0.000000
# 5 0.000000 0.000000 0.000000 0.000000 0.104856 0.000000
# 6 0.000000 0.000000 0.000000 0.000000 0.000000 0.042820
#
#
# Mechanical properties :
#
#
# Convention : Reuss Voigt Hill
#
# Bulk Modulus (GPa) = 49.44581 69.19123 59.31852
# Shear Modulus (GPa) = 21.51208 32.75553 27.13381
#
# Velocity S-wave (km/s) = 3.12672 3.85825 3.51159
# Velocity P-wave (km/s) = 5.95872 7.16190 6.58784
#
# Compressibility (1/GPa) = 0.02022416
#
# Stress axis : x y z
#
# Youngs Moduli (GPa) = 86.99375 200.97933 65.41255
#
# Poissons Ratio (x) = 0.48422 0.10130
# Poissons Ratio (y) = 0.20959 0.11834
# Poissons Ratio (z) = 0.13472 0.36360
#
# Static dielectric constant tensor:
#      x y z
#    x 1.892450 0.000000 0.000000 
#    y 0.000000 1.856700 0.000000 
#    z 0.000000 0.000000 1.890290 
# 
# From -- ./inp_files/46626.got.cif
#   From: 2010.05.17/outbox.cif.g08.bks.cpg/sg70_24_cif.got.tgz:46626.got - 2010.06.03 15:57:51.
