data_PCOD9515715
_publ_section_title
;
Structure prediction by ZEFSAII (Michael W. Deem and Ramdas Pophale) SiO2 
 PCOD9515715
Probable space group: F D D D
;
_chemical_formula_sum "Si O2"
_cell_formula_units_Z 176
_cell_length_a 32.827883
_cell_length_b 21.899261
_cell_length_c 11.194796
_cell_angle_alpha 90.000000
_cell_angle_beta 90.000000
_cell_angle_gamma 90.000000
_cell_volume 8048.010244
_symmetry_space_group_name_H-M "F D D D"
_symmetry_group_IT_number 70
_space_group.IT_coordinate_system_code '2'
_symmetry_cell_setting 'orthorhombic'
loop_
_space_group_symop_operation_xyz
x,y,z
1/4-x,1/4-y,z
x,1/4-y,1/4-z
1/4-x,y,1/4-z
-x,-y,-z
3/4+x,3/4+y,-z
-x,3/4+y,3/4+z
3/4+x,-y,3/4+z
x,1/2+y,1/2+z
1/4-x,3/4-y,1/2+z
x,3/4-y,3/4-z
1/4-x,1/2+y,3/4-z
-x,1/2-y,1/2-z
3/4+x,1/4+y,1/2-z
-x,1/4+y,1/4+z
3/4+x,1/2-y,1/4+z
1/2+x,y,1/2+z
3/4-x,1/4-y,1/2+z
1/2+x,1/4-y,3/4-z
3/4-x,y,3/4-z
1/2-x,-y,1/2-z
1/4+x,3/4+y,1/2-z
1/2-x,3/4+y,1/4+z
1/4+x,-y,1/4+z
1/2+x,1/2+y,z
3/4-x,3/4-y,z
1/2+x,3/4-y,1/4-z
3/4-x,1/2+y,1/4-z
1/2-x,1/2-y,-z
1/4+x,1/4+y,-z
1/2-x,1/4+y,3/4+z
1/4+x,1/2-y,3/4+z
loop_
_atom_site_type_symbol
_atom_site_label
_atom_site_fract_x
_atom_site_fract_y
_atom_site_fract_z
Si Si1 0.533765 0.846274 0.006166
Si Si2 0.540228 0.133775 0.831382
Si Si3 0.574895 0.260192 0.868147
Si Si4 0.076680 0.957886 0.614733
Si Si5 0.271424 0.125000 0.125000
Si Si6 0.079499 0.509079 0.858677
O O1 0.537058 0.875000 0.875000
O O2 0.552544 0.779092 0.986293
O O3 0.488103 0.853034 0.053841
O O4 0.559930 0.890028 0.092728
O O5 0.559303 0.199491 0.803467
O O6 0.509147 0.109636 0.731842
O O7 0.573686 0.081325 0.845772
O O8 0.550098 0.320001 0.831208
O O9 0.623602 0.262867 0.850633
O O10 0.565151 0.259936 0.011174
O O11 0.125000 0.953521 0.625000
O O12 0.065180 0.994085 0.494483
#
# Coordination Sequence:
#
# PCOD9515715 Si02
#       6
#    32  32  32  32  16  32
#     4  10  22  37  65  95 132 168 219 268 330 388
#     4  12  25  44  65  99 138 173 218 280 341 394
#     4  11  24  43  69  95 135 179 224 272 333 400
#     4   9  20  39  65 101 130 168 223 273 328 394
#     4  12  26  46  67  94 134 180 236 268 323 402
#     4  10  24  41  67 100 137 172 222 272 339 402
#
# _framework density 21.868760000000002
#
# number of rings (size 3 to 8) (size 9 to 14) (size 15 to 20)
#    0.000    1.455    1.818    2.182    8.909    1.455 
#    0.000    6.364    0.000    0.000    0.000    0.000 
#    0.000    0.000    0.000    0.000    0.000    0.000 
#
# Total GULP energy -245633.061241 kJ/mol
# GULP energy per Si atom -5582.569574 kJ/mol
# Density = 2.181899 g / cm^3
# Si number density = 21.868760 Si / 1000 Ang^3
#
#
#
# Elastic Constant Matrix: (Units=GPa)
#
#
# Indices 1 2 3 4 5 6 
#
# 1 43.7931 25.7051 19.9310 0.0000 0.0000 0.0000
# 2 25.7051 100.1580 7.8694 0.0000 0.0000 0.0000
# 3 19.9310 7.8694 47.9566 0.0001 0.0000 0.0000
# 4 0.0000 0.0000 0.0001 16.0806 0.0000 0.0000
# 5 0.0000 0.0000 0.0000 0.0000 17.2371 0.0000
# 6 0.0000 0.0000 0.0000 0.0000 0.0000 88.2042
#
#
#
# Elastic Compliance Matrix: (Units=1/GPa)
#
#
# Indices 1 2 3 4 5 6 
#
# 1 0.032874 -0.007460 -0.012439 0.000000 0.000000 0.000000
# 2 -0.007460 0.011807 0.001163 0.000000 0.000000 0.000000
# 3 -0.012439 0.001163 0.025831 0.000000 0.000000 0.000000
# 4 0.000000 0.000000 0.000000 0.062187 0.000000 0.000000
# 5 0.000000 0.000000 0.000000 0.000000 0.058014 0.000000
# 6 0.000000 0.000000 0.000000 0.000000 0.000000 0.011337
#
#
# Mechanical properties :
#
#
# Convention : Reuss Voigt Hill
#
# Bulk Modulus (GPa) = 30.26502 33.21320 31.73911
# Shear Modulus (GPa) = 19.95718 33.53118 26.74418
#
# Velocity S-wave (km/s) = 3.02419 3.91997 3.50085
# Velocity P-wave (km/s) = 5.10526 5.97568 5.55754
#
# Compressibility (1/GPa) = 0.03304144
#
# Stress axis : x y z
#
# Youngs Moduli (GPa) = 30.41884 84.69279 38.71324
#
# Poissons Ratio (x) = 0.63179 0.48154
# Poissons Ratio (y) = 0.22692 -0.04502
# Poissons Ratio (z) = 0.37837 -0.09848
#
# Static dielectric constant tensor:
#      x y z
#    x 1.781030 0.000000 0.000000 
#    y 0.000000 1.801250 0.000000 
#    z 0.000000 0.000000 1.848680 
# 
# From -- ./inp_files/22276.got.cif
#   From: 2010.05.17/outbox.cif.g08.bks.cpg/sg70_12_cif.got.tgz:22276.got - 2010.06.03 15:57:51.
