data_PCOD9515550
_publ_section_title
;
Structure prediction by ZEFSAII (Michael W. Deem and Ramdas Pophale) SiO2 
 PCOD9515550
Probable space group: F D D D
;
_chemical_formula_sum "Si O2"
_cell_formula_units_Z 136
_cell_length_a 20.618761
_cell_length_b 21.129547
_cell_length_c 14.242992
_cell_angle_alpha 90.000000
_cell_angle_beta 90.000000
_cell_angle_gamma 90.000000
_cell_volume 6205.174244
_symmetry_space_group_name_H-M "F D D D"
_symmetry_group_IT_number 70
_space_group.IT_coordinate_system_code '2'
_symmetry_cell_setting 'orthorhombic'
loop_
_space_group_symop_operation_xyz
x,y,z
1/4-x,1/4-y,z
x,1/4-y,1/4-z
1/4-x,y,1/4-z
-x,-y,-z
3/4+x,3/4+y,-z
-x,3/4+y,3/4+z
3/4+x,-y,3/4+z
x,1/2+y,1/2+z
1/4-x,3/4-y,1/2+z
x,3/4-y,3/4-z
1/4-x,1/2+y,3/4-z
-x,1/2-y,1/2-z
3/4+x,1/4+y,1/2-z
-x,1/4+y,1/4+z
3/4+x,1/2-y,1/4+z
1/2+x,y,1/2+z
3/4-x,1/4-y,1/2+z
1/2+x,1/4-y,3/4-z
3/4-x,y,3/4-z
1/2-x,-y,1/2-z
1/4+x,3/4+y,1/2-z
1/2-x,3/4+y,1/4+z
1/4+x,-y,1/4+z
1/2+x,1/2+y,z
3/4-x,3/4-y,z
1/2+x,3/4-y,1/4-z
3/4-x,1/2+y,1/4-z
1/2-x,1/2-y,-z
1/4+x,1/4+y,-z
1/2-x,1/4+y,3/4+z
1/4+x,1/2-y,3/4+z
loop_
_atom_site_type_symbol
_atom_site_label
_atom_site_fract_x
_atom_site_fract_y
_atom_site_fract_z
Si Si1 0.952249 0.804197 0.717000
Si Si2 0.979843 0.899415 0.472397
Si Si3 0.375000 0.875000 0.375000
Si Si4 0.307052 0.593972 0.399068
Si Si5 0.649290 0.723396 0.770989
O O1 0.914346 0.830176 0.805703
O O2 0.903396 0.777956 0.635191
O O3 0.000000 0.750000 0.750000
O O4 0.999805 0.861891 0.686689
O O5 0.010428 0.875000 0.375000
O O6 0.917443 0.946205 0.475848
O O7 0.950167 0.832453 0.503056
O O8 0.029566 0.926535 0.547479
O O9 0.375000 0.628288 0.375000
O O10 0.325513 0.536719 0.469569
#
# Coordination Sequence:
#
# PCOD9515550 Si02
#       5
#    32  32   8  32  32
#     4  11  25  44  70 100 139 190 241 296 363 432
#     4  10  21  41  66  97 132 181 222 282 358 420
#     4  12  24  48  76 100 142 196 248 296 368 436
#     4  11  24  43  66 103 139 179 235 294 356 430
#     4  10  21  41  68  94 134 179 234 282 349 430
#
# _framework density 21.917192
#
# number of rings (size 3 to 8) (size 9 to 14) (size 15 to 20)
#    0.000    1.412    0.000    7.059    1.647    3.765 
#   10.588    0.000    0.000    0.000    0.000    0.000 
#    0.000    0.000    0.000    0.000    0.000    0.000 
#
# Total GULP energy -189537.427731 kJ/mol
# GULP energy per Si atom -5574.630227 kJ/mol
# Density = 2.186731 g / cm^3
# Si number density = 21.917192 Si / 1000 Ang^3
#
#
#
# Elastic Constant Matrix: (Units=GPa)
#
#
# Indices 1 2 3 4 5 6 
#
# 1 91.7446 32.8138 64.3471 0.0000 0.0000 0.0000
# 2 32.8138 106.0786 66.5677 0.0000 0.0000 0.0000
# 3 64.3471 66.5677 177.1319 0.0000 0.0000 0.0000
# 4 0.0000 0.0000 0.0000 13.5691 0.0000 0.0000
# 5 0.0000 0.0000 0.0000 0.0000 28.7561 0.0000
# 6 0.0000 0.0000 0.0000 0.0000 0.0000 -773.7253
#
#
#
# Elastic Compliance Matrix: (Units=1/GPa)
#
#
# Indices 1 2 3 4 5 6 
#
# 1 0.014826 -0.001579 -0.004793 0.000000 0.000000 0.000000
# 2 -0.001579 0.012504 -0.004126 0.000000 0.000000 0.000000
# 3 -0.004793 -0.004126 0.008937 0.000000 0.000000 0.000000
# 4 0.000000 0.000000 0.000000 0.073697 0.000000 0.000000
# 5 0.000000 0.000000 0.000000 0.000000 0.034775 0.000000
# 6 0.000000 0.000000 0.000000 0.000000 0.000000 -0.001292
#
#
# Mechanical properties :
#
#
# Convention : Reuss Voigt Hill
#
# Bulk Modulus (GPa) = 65.47395 78.04579 71.75987
# Shear Modulus (GPa) = 29.49295 -132.19825 -51.35265
#
# Velocity S-wave (km/s) = 3.67230 -7.77484 -4.84574
# Velocity P-wave (km/s) = 6.92237 6.70155 1.22646
#
# Compressibility (1/GPa) = 0.01527325
#
# Stress axis : x y z
#
# Youngs Moduli (GPa) = 67.44998 79.97213 111.89448
#
# Poissons Ratio (x) = 0.12625 0.53626
# Poissons Ratio (y) = 0.10648 0.46165
# Poissons Ratio (z) = 0.32326 0.32995
#
# Static dielectric constant tensor:
#      x y z
#    x 1.786910 0.000000 0.000000 
#    y 0.000000 1.784400 0.000000 
#    z 0.000000 0.000000 1.966390 
# 
# From -- ./inp_files/27457.got.cif
#   From: 2010.05.17/outbox.cif.g08.bks.cpg/sg70_14_cif.got.tgz:27457.got - 2010.06.03 15:57:51.
