data_PCOD9515191
_publ_section_title
;
Structure prediction by ZEFSAII (Michael W. Deem and Ramdas Pophale) SiO2 
 PCOD9515191
Probable space group: F D D D
;
_chemical_formula_sum "Si O2"
_cell_formula_units_Z 216
_cell_length_a 23.640461
_cell_length_b 27.880973
_cell_length_c 15.542650
_cell_angle_alpha 90.000000
_cell_angle_beta 90.000000
_cell_angle_gamma 90.000000
_cell_volume 10244.456778
_symmetry_space_group_name_H-M "F D D D"
_symmetry_group_IT_number 70
_space_group.IT_coordinate_system_code '2'
_symmetry_cell_setting 'orthorhombic'
loop_
_space_group_symop_operation_xyz
x,y,z
1/4-x,1/4-y,z
x,1/4-y,1/4-z
1/4-x,y,1/4-z
-x,-y,-z
3/4+x,3/4+y,-z
-x,3/4+y,3/4+z
3/4+x,-y,3/4+z
x,1/2+y,1/2+z
1/4-x,3/4-y,1/2+z
x,3/4-y,3/4-z
1/4-x,1/2+y,3/4-z
-x,1/2-y,1/2-z
3/4+x,1/4+y,1/2-z
-x,1/4+y,1/4+z
3/4+x,1/2-y,1/4+z
1/2+x,y,1/2+z
3/4-x,1/4-y,1/2+z
1/2+x,1/4-y,3/4-z
3/4-x,y,3/4-z
1/2-x,-y,1/2-z
1/4+x,3/4+y,1/2-z
1/2-x,3/4+y,1/4+z
1/4+x,-y,1/4+z
1/2+x,1/2+y,z
3/4-x,3/4-y,z
1/2+x,3/4-y,1/4-z
3/4-x,1/2+y,1/4-z
1/2-x,1/2-y,-z
1/4+x,1/4+y,-z
1/2-x,1/4+y,3/4+z
1/4+x,1/2-y,3/4+z
loop_
_atom_site_type_symbol
_atom_site_label
_atom_site_fract_x
_atom_site_fract_y
_atom_site_fract_z
Si Si1 0.938893 0.852906 0.132868
Si Si2 0.889231 0.656644 0.544635
Si Si3 0.635942 0.244128 0.906354
Si Si4 0.021922 0.085345 0.192591
Si Si5 0.125000 0.125000 0.625000
Si Si6 0.934529 0.233528 0.482001
Si Si7 0.875000 0.093875 0.875000
Si Si8 0.206802 0.066607 0.500964
O O1 0.875000 0.875000 0.130462
O O2 0.932021 0.798282 0.164424
O O3 0.973793 0.886597 0.195894
O O4 0.964163 0.853098 0.038378
O O5 0.867434 0.625000 0.625000
O O6 0.856210 0.706892 0.541444
O O7 0.889349 0.626995 0.456604
O O8 0.954383 0.669604 0.566604
O O9 0.637041 0.258000 0.804986
O O10 0.578745 0.219078 0.939602
O O11 0.041990 0.125000 0.125000
O O12 0.051281 0.033690 0.186725
O O13 0.164760 0.089635 0.570263
O O14 0.920641 0.193623 0.411911
O O15 0.989598 0.213277 0.532116
#
# Coordination Sequence:
#
# PCOD9515191 Si02
#       8
#    32  32  32  32   8  32  16  32
#     4   9  19  38  63  89 129 165 204 275 332 382
#     4  11  22  43  63  92 140 176 218 280 338 404
#     4  10  20  42  66  90 133 175 212 278 339 395
#     4  10  22  39  64  98 129 172 222 267 341 413
#     4  12  24  42  72 100 126 176 238 280 340 390
#     4  11  24  42  68  99 136 179 225 274 347 417
#     4  12  26  41  69 100 133 182 239 274 348 420
#     4  11  22  43  66  97 136 171 225 288 333 398
#
# _framework density 21.084572999999999
#
# number of rings (size 3 to 8) (size 9 to 14) (size 15 to 20)
#    0.000    1.481    5.185    0.889    0.000    5.630 
#    0.000    3.704    0.000    0.000    0.000    0.000 
#    0.000    0.000    0.000    0.000    0.000    0.000 
#
# Total GULP energy -301361.998839 kJ/mol
# GULP energy per Si atom -5580.777756 kJ/mol
# Density = 2.103658 g / cm^3
# Si number density = 21.084573 Si / 1000 Ang^3
#
#
#
# Elastic Constant Matrix: (Units=GPa)
#
#
# Indices 1 2 3 4 5 6 
#
# 1 39.6061 23.5464 23.0393 0.0000 0.0000 0.0000
# 2 23.5464 177.3613 72.8754 0.0000 0.0000 0.0000
# 3 23.0393 72.8754 96.8221 0.0000 0.0000 0.0000
# 4 0.0000 0.0000 0.0000 39.1781 0.0000 0.0000
# 5 0.0000 0.0000 0.0000 0.0000 25.9031 0.0000
# 6 0.0000 0.0000 0.0000 0.0000 0.0000 -8.8448
#
#
#
# Elastic Compliance Matrix: (Units=1/GPa)
#
#
# Indices 1 2 3 4 5 6 
#
# 1 0.029578 -0.001498 -0.005911 0.000000 0.000000 0.000000
# 2 -0.001498 0.008238 -0.005844 0.000000 0.000000 0.000000
# 3 -0.005911 -0.005844 0.016134 0.000000 0.000000 0.000000
# 4 0.000000 0.000000 0.000000 0.025524 0.000000 0.000000
# 5 0.000000 0.000000 0.000000 0.000000 0.038605 0.000000
# 6 0.000000 0.000000 0.000000 0.000000 0.000000 -0.113060
#
#
# Mechanical properties :
#
#
# Convention : Reuss Voigt Hill
#
# Bulk Modulus (GPa) = 36.43851 61.41240 48.92545
# Shear Modulus (GPa) = 122.93116 24.20249 73.56683
#
# Velocity S-wave (km/s) = 7.64398 3.39171 5.91329
# Velocity P-wave (km/s) = 9.75842 6.67294 8.35928
#
# Compressibility (1/GPa) = 0.02744349
#
# Stress axis : x y z
#
# Youngs Moduli (GPa) = 33.80941 121.38157 61.98254
#
# Poissons Ratio (x) = 0.18185 0.36635
# Poissons Ratio (y) = 0.05065 0.36225
# Poissons Ratio (z) = 0.19983 0.70940
#
# Static dielectric constant tensor:
#      x y z
#    x 1.887940 0.000000 0.000000 
#    y 0.000000 1.775050 0.000000 
#    z 0.000000 0.000000 1.745250 
# 
# From -- ./inp_files/30177.got.cif
#   From: 2010.05.17/outbox.cif.g08.bks.cpg/sg70_16_cif.got.tgz:30177.got - 2010.06.03 15:57:51.
