data_PCOD9515535
_publ_section_title
;
Structure prediction by ZEFSAII (Michael W. Deem and Ramdas Pophale) SiO2 
 PCOD9515535
Probable space group: F D D D
;
_chemical_formula_sum "Si O2"
_cell_formula_units_Z 200
_cell_length_a 14.065160
_cell_length_b 25.327755
_cell_length_c 27.176884
_cell_angle_alpha 90.000000
_cell_angle_beta 90.000000
_cell_angle_gamma 90.000000
_cell_volume 9681.463982
_symmetry_space_group_name_H-M "F D D D"
_symmetry_group_IT_number 70
_space_group.IT_coordinate_system_code '2'
_symmetry_cell_setting 'orthorhombic'
loop_
_space_group_symop_operation_xyz
x,y,z
1/4-x,1/4-y,z
x,1/4-y,1/4-z
1/4-x,y,1/4-z
-x,-y,-z
3/4+x,3/4+y,-z
-x,3/4+y,3/4+z
3/4+x,-y,3/4+z
x,1/2+y,1/2+z
1/4-x,3/4-y,1/2+z
x,3/4-y,3/4-z
1/4-x,1/2+y,3/4-z
-x,1/2-y,1/2-z
3/4+x,1/4+y,1/2-z
-x,1/4+y,1/4+z
3/4+x,1/2-y,1/4+z
1/2+x,y,1/2+z
3/4-x,1/4-y,1/2+z
1/2+x,1/4-y,3/4-z
3/4-x,y,3/4-z
1/2-x,-y,1/2-z
1/4+x,3/4+y,1/2-z
1/2-x,3/4+y,1/4+z
1/4+x,-y,1/4+z
1/2+x,1/2+y,z
3/4-x,3/4-y,z
1/2+x,3/4-y,1/4-z
3/4-x,1/2+y,1/4-z
1/2-x,1/2-y,-z
1/4+x,1/4+y,-z
1/2-x,1/4+y,3/4+z
1/4+x,1/2-y,3/4+z
loop_
_atom_site_type_symbol
_atom_site_label
_atom_site_fract_x
_atom_site_fract_y
_atom_site_fract_z
Si Si1 0.875000 0.875000 0.163240
Si Si2 0.774372 0.694495 0.183956
Si Si3 0.375000 0.875000 0.375000
Si Si4 0.241673 0.448533 0.216826
Si Si5 0.303593 0.555938 0.917278
Si Si6 0.549823 0.932991 0.859689
Si Si7 0.625000 0.488849 0.625000
Si Si8 0.119282 0.887237 0.260787
O O1 0.834872 0.926391 0.190970
O O2 0.775162 0.847481 0.145156
O O3 0.692729 0.662848 0.156007
O O4 0.742680 0.754143 0.191927
O O5 0.868530 0.696323 0.149520
O O6 0.799071 0.655788 0.229227
O O7 0.250000 0.500000 0.250000
O O8 0.163740 0.457419 0.173211
O O9 0.220216 0.401402 0.254636
O O10 0.375000 0.538398 0.875000
O O11 0.367238 0.582964 0.959512
O O12 0.512631 0.875000 0.875000
O O13 0.465088 0.974869 0.859709
O O14 0.602438 0.924911 0.807291
#
# Coordination Sequence:
#
# PCOD9515535 Si02
#       8
#    16  32   8  32  32  32  16  32
#     4  10  24  42  65  91 144 174 223 275 354 404
#     4  11  22  46  69  99 132 181 232 286 336 410
#     4  12  20  44  76  90 132 182 232 278 348 384
#     4  11  24  40  65  98 136 184 228 281 356 410
#     4  11  24  43  69  99 135 185 225 282 348 412
#     4  10  21  41  63  95 135 167 227 279 333 405
#     4  12  25  36  67 102 132 177 224 281 352 426
#     4  10  23  40  65  94 141 168 230 280 337 406
#
# _framework density 20.658031999999999
#
# number of rings (size 3 to 8) (size 9 to 14) (size 15 to 20)
#    0.000    1.280    3.200    4.080   11.200    0.000 
#    0.000    4.000    0.000    0.000    0.000    0.000 
#    0.000    0.000    0.000    0.000    0.000    0.000 
#
# Total GULP energy -278480.458890 kJ/mol
# GULP energy per Si atom -5569.609178 kJ/mol
# Density = 2.061101 g / cm^3
# Si number density = 20.658032 Si / 1000 Ang^3
#
#
#
# Elastic Constant Matrix: (Units=GPa)
#
#
# Indices 1 2 3 4 5 6 
#
# 1 88.7683 32.4678 21.2768 0.0000 0.0000 0.0000
# 2 32.4678 104.1655 28.7855 0.0000 0.0000 0.0000
# 3 21.2768 28.7855 78.8448 0.0000 0.0000 0.0000
# 4 0.0000 0.0000 0.0000 24.3690 0.0000 0.0000
# 5 0.0000 0.0000 0.0000 0.0000 10.5342 0.0000
# 6 0.0000 0.0000 0.0000 0.0000 0.0000 40.3188
#
#
#
# Elastic Compliance Matrix: (Units=1/GPa)
#
#
# Indices 1 2 3 4 5 6 
#
# 1 0.013070 -0.003447 -0.002269 0.000000 0.000000 0.000000
# 2 -0.003447 0.011586 -0.003300 0.000000 0.000000 0.000000
# 3 -0.002269 -0.003300 0.014500 0.000000 0.000000 0.000000
# 4 0.000000 0.000000 0.000000 0.041036 0.000000 0.000000
# 5 0.000000 0.000000 0.000000 0.000000 0.094929 0.000000
# 6 0.000000 0.000000 0.000000 0.000000 0.000000 0.024802
#
#
# Mechanical properties :
#
#
# Convention : Reuss Voigt Hill
#
# Bulk Modulus (GPa) = 47.33598 48.53763 47.93681
# Shear Modulus (GPa) = 22.22265 27.66096 24.94181
#
# Velocity S-wave (km/s) = 3.28340 3.66320 3.47849
# Velocity P-wave (km/s) = 6.11050 6.43730 6.27602
#
# Compressibility (1/GPa) = 0.02112558
#
# Stress axis : x y z
#
# Youngs Moduli (GPa) = 76.51253 86.30816 68.96502
#
# Poissons Ratio (x) = 0.29749 0.15645
# Poissons Ratio (y) = 0.26373 0.22758
# Poissons Ratio (z) = 0.17357 0.28481
#
# Static dielectric constant tensor:
#      x y z
#    x 1.863250 0.000000 0.000000 
#    y 0.000000 1.752970 0.000000 
#    z 0.000000 0.000000 2.711910 
# 
# From -- ./inp_files/58764.got.cif
#   From: 2010.05.17/outbox.cif.g08.bks.cpg/sg70_30_cif.got.tgz:58764.got - 2010.06.03 15:57:51.
