data_PCOD9515680
_publ_section_title
;
Structure prediction by ZEFSAII (Michael W. Deem and Ramdas Pophale) SiO2 
 PCOD9515680
Probable space group: F D D D
;
_chemical_formula_sum "Si O2"
_cell_formula_units_Z 176
_cell_length_a 24.378537
_cell_length_b 12.351568
_cell_length_c 24.738676
_cell_angle_alpha 90.000000
_cell_angle_beta 90.000000
_cell_angle_gamma 90.000000
_cell_volume 7449.140843
_symmetry_space_group_name_H-M "F D D D"
_symmetry_group_IT_number 70
_space_group.IT_coordinate_system_code '2'
_symmetry_cell_setting 'orthorhombic'
loop_
_space_group_symop_operation_xyz
x,y,z
1/4-x,1/4-y,z
x,1/4-y,1/4-z
1/4-x,y,1/4-z
-x,-y,-z
3/4+x,3/4+y,-z
-x,3/4+y,3/4+z
3/4+x,-y,3/4+z
x,1/2+y,1/2+z
1/4-x,3/4-y,1/2+z
x,3/4-y,3/4-z
1/4-x,1/2+y,3/4-z
-x,1/2-y,1/2-z
3/4+x,1/4+y,1/2-z
-x,1/4+y,1/4+z
3/4+x,1/2-y,1/4+z
1/2+x,y,1/2+z
3/4-x,1/4-y,1/2+z
1/2+x,1/4-y,3/4-z
3/4-x,y,3/4-z
1/2-x,-y,1/2-z
1/4+x,3/4+y,1/2-z
1/2-x,3/4+y,1/4+z
1/4+x,-y,1/4+z
1/2+x,1/2+y,z
3/4-x,3/4-y,z
1/2+x,3/4-y,1/4-z
3/4-x,1/2+y,1/4-z
1/2-x,1/2-y,-z
1/4+x,1/4+y,-z
1/2-x,1/4+y,3/4+z
1/4+x,1/2-y,3/4+z
loop_
_atom_site_type_symbol
_atom_site_label
_atom_site_fract_x
_atom_site_fract_y
_atom_site_fract_z
Si Si1 0.708513 0.512442 0.599324
Si Si2 0.733430 0.767647 0.850069
Si Si3 0.066153 0.659905 0.415920
Si Si4 0.604646 0.000875 0.263290
Si Si5 0.125000 0.832651 0.625000
Si Si6 0.579346 0.293563 0.522562
O O1 0.690939 0.625000 0.625000
O O2 0.773743 0.498637 0.607521
O O3 0.687717 0.504342 0.537515
O O4 0.675665 0.415330 0.626891
O O5 0.758998 0.875000 0.875000
O O6 0.719659 0.695711 0.902606
O O7 0.677560 0.788704 0.816544
O O8 0.771931 0.714886 0.804426
O O9 0.125000 0.625000 0.392983
O O10 0.077565 0.706576 0.475037
O O11 0.625000 0.125000 0.269244
O O12 0.651964 0.911986 0.249912
O O13 0.123771 0.768521 0.569483
#
# Coordination Sequence:
#
# PCOD9515680 Si02
#       6
#    32  32  32  32  16  32
#     4  11  22  43  78 113 152 196 255 326 388 471
#     4  12  27  49  75 109 159 209 260 331 399 470
#     4  12  27  47  71 111 157 203 256 323 400 469
#     4  11  25  46  78 114 159 199 261 324 395 477
#     4  10  21  46  73 114 152 194 261 304 383 464
#     4  11  25  48  76 114 148 206 264 319 388 479
#
# _framework density 23.626885999999999
#
# number of rings (size 3 to 8) (size 9 to 14) (size 15 to 20)
#    0.000    0.727    3.636    4.091    0.000    6.545 
#    0.000    0.000    0.000    0.000    0.000    0.000 
#    0.000    0.000    0.000    0.000    0.000    0.000 
#
# Total GULP energy -245366.753957 kJ/mol
# GULP energy per Si atom -5576.517135 kJ/mol
# Density = 2.357311 g / cm^3
# Si number density = 23.626886 Si / 1000 Ang^3
#
#
#
# Elastic Constant Matrix: (Units=GPa)
#
#
# Indices 1 2 3 4 5 6 
#
# 1 133.5332 48.7860 25.4119 0.0000 0.0000 0.0000
# 2 48.7860 102.7647 67.6797 0.0000 0.0000 0.0000
# 3 25.4119 67.6797 117.5411 0.0000 0.0000 0.0000
# 4 0.0000 0.0000 0.0000 13.2624 0.0000 0.0000
# 5 0.0000 0.0000 0.0000 0.0000 -78.7810 0.0000
# 6 0.0000 0.0000 0.0000 0.0000 0.0000 31.1657
#
#
#
# Elastic Compliance Matrix: (Units=1/GPa)
#
#
# Indices 1 2 3 4 5 6 
#
# 1 0.009111 -0.004878 0.000839 0.000000 0.000000 0.000000
# 2 -0.004878 0.018287 -0.009475 0.000000 0.000000 0.000000
# 3 0.000839 -0.009475 0.013782 0.000000 0.000000 0.000000
# 4 0.000000 0.000000 0.000000 0.075401 0.000000 0.000000
# 5 0.000000 0.000000 0.000000 0.000000 -0.012693 0.000000
# 6 0.000000 0.000000 0.000000 0.000000 0.000000 0.032087
#
#
# Mechanical properties :
#
#
# Convention : Reuss Voigt Hill
#
# Bulk Modulus (GPa) = 70.66090 70.84380 70.75235
# Shear Modulus (GPa) = 29.81175 7.26020 18.53597
#
# Velocity S-wave (km/s) = 3.55600 1.75486 2.80398
# Velocity P-wave (km/s) = 6.84340 5.84427 6.36347
#
# Compressibility (1/GPa) = 0.01415210
#
# Stress axis : x y z
#
# Youngs Moduli (GPa) = 109.75432 54.68458 72.55908
#
# Poissons Ratio (x) = 0.26675 -0.06087
# Poissons Ratio (y) = 0.53537 0.68748
# Poissons Ratio (z) = -0.09207 0.51813
#
# Static dielectric constant tensor:
#      x y z
#    x 2.013260 0.000000 0.000000 
#    y 0.000000 1.925720 0.000000 
#    z 0.000000 0.000000 1.953410 
# 
# From -- ./inp_files/67800.got.cif
#   From: 2010.05.17/outbox.cif.g08.bks.cpg/sg70_34_cif.got.tgz:67800.got - 2010.06.03 15:57:51.
