data_PCOD9515075
_publ_section_title
;
Structure prediction by ZEFSAII (Michael W. Deem and Ramdas Pophale) SiO2 
 PCOD9515075
Probable space group: F D D D
;
_chemical_formula_sum "Si O2"
_cell_formula_units_Z 128
_cell_length_a 22.530846
_cell_length_b 19.409421
_cell_length_c 14.154929
_cell_angle_alpha 90.000000
_cell_angle_beta 90.000000
_cell_angle_gamma 90.000000
_cell_volume 6190.101563
_symmetry_space_group_name_H-M "F D D D"
_symmetry_group_IT_number 70
_space_group.IT_coordinate_system_code '2'
_symmetry_cell_setting 'orthorhombic'
loop_
_space_group_symop_operation_xyz
x,y,z
1/4-x,1/4-y,z
x,1/4-y,1/4-z
1/4-x,y,1/4-z
-x,-y,-z
3/4+x,3/4+y,-z
-x,3/4+y,3/4+z
3/4+x,-y,3/4+z
x,1/2+y,1/2+z
1/4-x,3/4-y,1/2+z
x,3/4-y,3/4-z
1/4-x,1/2+y,3/4-z
-x,1/2-y,1/2-z
3/4+x,1/4+y,1/2-z
-x,1/4+y,1/4+z
3/4+x,1/2-y,1/4+z
1/2+x,y,1/2+z
3/4-x,1/4-y,1/2+z
1/2+x,1/4-y,3/4-z
3/4-x,y,3/4-z
1/2-x,-y,1/2-z
1/4+x,3/4+y,1/2-z
1/2-x,3/4+y,1/4+z
1/4+x,-y,1/4+z
1/2+x,1/2+y,z
3/4-x,3/4-y,z
1/2+x,3/4-y,1/4-z
3/4-x,1/2+y,1/4-z
1/2-x,1/2-y,-z
1/4+x,1/4+y,-z
1/2-x,1/4+y,3/4+z
1/4+x,1/2-y,3/4+z
loop_
_atom_site_type_symbol
_atom_site_label
_atom_site_fract_x
_atom_site_fract_y
_atom_site_fract_z
Si Si1 0.183735 0.525085 0.275764
Si Si2 0.331189 0.662480 0.726005
Si Si3 0.875000 0.056321 0.875000
Si Si4 0.031078 0.625000 0.125000
Si Si5 0.214992 0.747796 0.774014
O O1 0.250000 0.500000 0.250000
O O2 0.135345 0.465982 0.260284
O O3 0.179530 0.586662 0.202633
O O4 0.185136 0.540925 0.386902
O O5 0.336270 0.625000 0.625000
O O6 0.336320 0.605520 0.807362
O O7 0.270641 0.704868 0.736328
O O8 0.917994 0.013307 0.807274
O O9 0.989833 0.569982 0.181682
#
# Coordination Sequence:
#
# PCOD9515075 Si02
#       5
#    32  32  16  16  32
#     4  10  21  39  66 103 140 175 230 299 359 414
#     4  12  25  44  68  99 143 188 233 294 359 426
#     4  12  22  44  71  97 142 192 234 300 356 428
#     4  10  20  39  68 106 140 166 242 309 348 416
#     4  11  23  40  69 102 139 190 235 285 367 425
#
# _framework density 20.678173999999999
#
# number of rings (size 3 to 8) (size 9 to 14) (size 15 to 20)
#    0.000    1.000    2.500    7.500    1.750    3.000 
#    0.000    0.625    0.000    0.000    0.000    0.000 
#    0.000    0.000    0.000    0.000    0.000    0.000 
#
# Total GULP energy -178982.703784 kJ/mol
# GULP energy per Si atom -5593.209493 kJ/mol
# Density = 2.063111 g / cm^3
# Si number density = 20.678174 Si / 1000 Ang^3
#
#
#
# Elastic Constant Matrix: (Units=GPa)
#
#
# Indices 1 2 3 4 5 6 
#
# 1 142.9807 62.0314 77.5651 0.0000 0.0000 0.0000
# 2 62.0314 81.1996 78.8748 0.0000 0.0000 0.0000
# 3 77.5651 78.8748 201.8250 0.0000 0.0000 0.0000
# 4 0.0000 0.0000 0.0000 56.7259 0.0000 0.0000
# 5 0.0000 0.0000 0.0000 0.0000 38.7752 0.0000
# 6 0.0000 0.0000 0.0000 0.0000 0.0000 24.2086
#
#
#
# Elastic Compliance Matrix: (Units=1/GPa)
#
#
# Indices 1 2 3 4 5 6 
#
# 1 0.010730 -0.006756 -0.001483 0.000000 0.000000 0.000000
# 2 -0.006756 0.024105 -0.006824 0.000000 0.000000 0.000000
# 3 -0.001483 -0.006824 0.008192 0.000000 0.000000 0.000000
# 4 0.000000 0.000000 0.000000 0.017629 0.000000 0.000000
# 5 0.000000 0.000000 0.000000 0.000000 0.025790 0.000000
# 6 0.000000 0.000000 0.000000 0.000000 0.000000 0.041308
#
#
# Mechanical properties :
#
#
# Convention : Reuss Voigt Hill
#
# Bulk Modulus (GPa) = 77.51990 95.88312 86.70151
# Shear Modulus (GPa) = 30.83011 37.77753 34.30382
#
# Velocity S-wave (km/s) = 3.86547 4.27889 4.07743
# Velocity P-wave (km/s) = 7.58239 8.41913 8.01169
#
# Compressibility (1/GPa) = 0.01289991
#
# Stress axis : x y z
#
# Youngs Moduli (GPa) = 93.19951 41.48498 122.07401
#
# Poissons Ratio (x) = 0.28027 0.18108
# Poissons Ratio (y) = 0.62965 0.83304
# Poissons Ratio (z) = 0.13825 0.28310
#
# Static dielectric constant tensor:
#      x y z
#    x 1.621180 0.000000 0.000000 
#    y 0.000000 1.795180 0.000000 
#    z 0.000000 0.000000 1.900320 
# 
# From -- ./inp_files/29691.got.cif
#   From: 2010.05.17/outbox.cif.g08.bks.cpg/sg70_15_cif.got.tgz:29691.got - 2010.06.03 15:57:51.
