data_PCOD9515015
_publ_section_title
;
Structure prediction by ZEFSAII (Michael W. Deem and Ramdas Pophale) SiO2 
 PCOD9515015
Probable space group: F D D D
;
_chemical_formula_sum "Si O2"
_cell_formula_units_Z 160
_cell_length_a 20.778561
_cell_length_b 18.663110
_cell_length_c 21.318358
_cell_angle_alpha 90.000000
_cell_angle_beta 90.000000
_cell_angle_gamma 90.000000
_cell_volume 8267.100828
_symmetry_space_group_name_H-M "F D D D"
_symmetry_group_IT_number 70
_space_group.IT_coordinate_system_code '2'
_symmetry_cell_setting 'orthorhombic'
loop_
_space_group_symop_operation_xyz
x,y,z
1/4-x,1/4-y,z
x,1/4-y,1/4-z
1/4-x,y,1/4-z
-x,-y,-z
3/4+x,3/4+y,-z
-x,3/4+y,3/4+z
3/4+x,-y,3/4+z
x,1/2+y,1/2+z
1/4-x,3/4-y,1/2+z
x,3/4-y,3/4-z
1/4-x,1/2+y,3/4-z
-x,1/2-y,1/2-z
3/4+x,1/4+y,1/2-z
-x,1/4+y,1/4+z
3/4+x,1/2-y,1/4+z
1/2+x,y,1/2+z
3/4-x,1/4-y,1/2+z
1/2+x,1/4-y,3/4-z
3/4-x,y,3/4-z
1/2-x,-y,1/2-z
1/4+x,3/4+y,1/2-z
1/2-x,3/4+y,1/4+z
1/4+x,-y,1/4+z
1/2+x,1/2+y,z
3/4-x,3/4-y,z
1/2+x,3/4-y,1/4-z
3/4-x,1/2+y,1/4-z
1/2-x,1/2-y,-z
1/4+x,1/4+y,-z
1/2-x,1/4+y,3/4+z
1/4+x,1/2-y,3/4+z
loop_
_atom_site_type_symbol
_atom_site_label
_atom_site_fract_x
_atom_site_fract_y
_atom_site_fract_z
Si Si1 0.711210 0.905058 0.057043
Si Si2 0.710375 0.298779 0.450442
Si Si3 0.625000 0.737492 0.625000
Si Si4 0.231675 0.125000 0.625000
Si Si5 0.062173 0.270588 0.959084
Si Si6 0.053504 0.986576 0.142023
O O1 0.704954 0.839515 0.105941
O O2 0.655031 0.961501 0.072139
O O3 0.777473 0.948266 0.064232
O O4 0.706716 0.873679 0.987141
O O5 0.750000 0.250000 0.500000
O O6 0.637574 0.271813 0.444216
O O7 0.750178 0.289209 0.386928
O O8 0.682805 0.686804 0.601157
O O9 0.276262 0.087161 0.573593
O O10 0.051684 0.273718 0.033794
O O11 0.125000 0.013605 0.125000
#
# Coordination Sequence:
#
# PCOD9515015 Si02
#       6
#    32  32  16  16  32  32
#     4  10  20  38  66  85 123 166 208 256 309 385
#     4  10  21  39  59  88 124 157 214 259 303 379
#     4   9  16  40  62  88 114 167 202 242 332 371
#     4   9  22  36  62  94 129 156 210 260 311 384
#     4  11  22  40  63  93 129 160 208 267 311 374
#     4  11  21  41  63  86 121 170 208 254 322 367
#
# _framework density 19.353821
#
# number of rings (size 3 to 8) (size 9 to 14) (size 15 to 20)
#    0.000    1.800    5.000    0.000    0.000    5.600 
#    0.000   18.000    0.000    0.000    0.000    0.000 
#    0.000    0.000    0.000    0.000    0.000    0.000 
#
# Total GULP energy -223182.094532 kJ/mol
# GULP energy per Si atom -5579.552363 kJ/mol
# Density = 1.930977 g / cm^3
# Si number density = 19.353821 Si / 1000 Ang^3
#
#
#
# Elastic Constant Matrix: (Units=GPa)
#
#
# Indices 1 2 3 4 5 6 
#
# 1 188.9590 62.4119 63.4281 0.0000 0.0000 0.0000
# 2 62.4119 75.6802 27.4379 0.0000 0.0000 0.0000
# 3 63.4281 27.4379 108.3266 0.0000 0.0000 0.0000
# 4 0.0000 0.0000 0.0000 27.8479 0.0000 0.0000
# 5 0.0000 0.0000 0.0000 0.0000 32.7614 0.0000
# 6 0.0000 0.0000 0.0000 0.0000 0.0000 1.2175
#
#
#
# Elastic Compliance Matrix: (Units=1/GPa)
#
#
# Indices 1 2 3 4 5 6 
#
# 1 0.008294 -0.005593 -0.003440 0.000000 0.000000 0.000000
# 2 -0.005593 0.018321 -0.001366 0.000000 0.000000 0.000000
# 3 -0.003440 -0.001366 0.011591 0.000000 0.000000 0.000000
# 4 0.000000 0.000000 0.000000 0.035909 0.000000 0.000000
# 5 0.000000 0.000000 0.000000 0.000000 0.030524 0.000000
# 6 0.000000 0.000000 0.000000 0.000000 0.000000 0.821322
#
#
# Mechanical properties :
#
#
# Convention : Reuss Voigt Hill
#
# Bulk Modulus (GPa) = 57.43943 75.50239 66.47091
# Shear Modulus (GPa) = 5.24901 27.01122 16.13011
#
# Velocity S-wave (km/s) = 1.64864 3.73990 2.89006
# Velocity P-wave (km/s) = 5.77642 7.59904 6.74954
#
# Compressibility (1/GPa) = 0.01740964
#
# Stress axis : x y z
#
# Youngs Moduli (GPa) = 120.56795 54.58232 86.27120
#
# Poissons Ratio (x) = 0.30527 0.29676
# Poissons Ratio (y) = 0.67432 0.11782
# Poissons Ratio (z) = 0.41473 0.07454
#
# Static dielectric constant tensor:
#      x y z
#    x 1.678350 0.000000 0.000000 
#    y 0.000000 1.715050 0.000000 
#    z 0.000000 0.000000 1.676320 
# 
# From -- ./inp_files/44757.got.cif
#   From: 2010.05.17/outbox.cif.g08.bks.cpg/sg70_23_cif.got.tgz:44757.got - 2010.06.03 15:57:51.
