data_PCOD9515278
_publ_section_title
;
Structure prediction by ZEFSAII (Michael W. Deem and Ramdas Pophale) SiO2 
 PCOD9515278
Probable space group: F D D D
;
_chemical_formula_sum "Si O2"
_cell_formula_units_Z 144
_cell_length_a 13.576021
_cell_length_b 23.801941
_cell_length_c 22.710551
_cell_angle_alpha 90.000000
_cell_angle_beta 90.000000
_cell_angle_gamma 90.000000
_cell_volume 7338.588679
_symmetry_space_group_name_H-M "F D D D"
_symmetry_group_IT_number 70
_space_group.IT_coordinate_system_code '2'
_symmetry_cell_setting 'orthorhombic'
loop_
_space_group_symop_operation_xyz
x,y,z
1/4-x,1/4-y,z
x,1/4-y,1/4-z
1/4-x,y,1/4-z
-x,-y,-z
3/4+x,3/4+y,-z
-x,3/4+y,3/4+z
3/4+x,-y,3/4+z
x,1/2+y,1/2+z
1/4-x,3/4-y,1/2+z
x,3/4-y,3/4-z
1/4-x,1/2+y,3/4-z
-x,1/2-y,1/2-z
3/4+x,1/4+y,1/2-z
-x,1/4+y,1/4+z
3/4+x,1/2-y,1/4+z
1/2+x,y,1/2+z
3/4-x,1/4-y,1/2+z
1/2+x,1/4-y,3/4-z
3/4-x,y,3/4-z
1/2-x,-y,1/2-z
1/4+x,3/4+y,1/2-z
1/2-x,3/4+y,1/4+z
1/4+x,-y,1/4+z
1/2+x,1/2+y,z
3/4-x,3/4-y,z
1/2+x,3/4-y,1/4-z
3/4-x,1/2+y,1/4-z
1/2-x,1/2-y,-z
1/4+x,1/4+y,-z
1/2-x,1/4+y,3/4+z
1/4+x,1/2-y,3/4+z
loop_
_atom_site_type_symbol
_atom_site_label
_atom_site_fract_x
_atom_site_fract_y
_atom_site_fract_z
Si Si1 0.875000 0.375000 0.036496
Si Si2 0.638136 0.506823 0.057765
Si Si3 0.551132 0.937937 0.452339
Si Si4 0.394919 0.752325 0.084174
Si Si5 0.715803 0.351947 0.937744
O O1 0.870613 0.431675 0.074826
O O2 0.782296 0.370851 0.992008
O O3 0.625000 0.487199 0.125000
O O4 0.566966 0.560856 0.050719
O O5 0.754342 0.512832 0.049050
O O6 0.590699 0.462618 0.013297
O O7 0.586192 0.981007 0.400848
O O8 0.607782 0.880364 0.442010
O O9 0.303366 0.714509 0.063128
O O10 0.755767 0.375000 0.875000
#
# Coordination Sequence:
#
# PCOD9515278 Si02
#       5
#    16  32  32  32  32
#     4  12  21  38  58  80 123 152 186 242 282 342
#     4   9  17  34  60  83 114 146 184 236 291 332
#     4   9  18  36  59  84 115 147 189 241 284 339
#     4  10  21  35  59  86 114 154 192 231 291 339
#     4  10  21  37  60  83 111 154 197 232 281 348
#
# _framework density 19.622301
#
# number of rings (size 3 to 8) (size 9 to 14) (size 15 to 20)
#    0.000    2.222    2.222    1.000    0.000    0.889 
#    0.000   11.111    0.000    0.000    0.000    0.000 
#    0.000    0.000    0.000    0.000    0.000    0.000 
#
# Total GULP energy -200603.224241 kJ/mol
# GULP energy per Si atom -5572.311784 kJ/mol
# Density = 1.957764 g / cm^3
# Si number density = 19.622301 Si / 1000 Ang^3
#
#
#
# Elastic Constant Matrix: (Units=GPa)
#
#
# Indices 1 2 3 4 5 6 
#
# 1 54.7805 34.1063 5.4470 0.0000 0.0000 0.0000
# 2 34.1063 135.0250 27.2835 0.0000 0.0000 0.0000
# 3 5.4470 27.2835 64.5741 0.0000 0.0000 0.0000
# 4 0.0000 0.0000 0.0000 20.3743 0.0000 0.0000
# 5 0.0000 0.0000 0.0000 0.0000 20.1733 0.0000
# 6 0.0000 0.0000 0.0000 0.0000 0.0000 19.2969
#
#
#
# Elastic Compliance Matrix: (Units=1/GPa)
#
#
# Indices 1 2 3 4 5 6 
#
# 1 0.021678 -0.005583 0.000530 0.000000 0.000000 0.000000
# 2 -0.005583 0.009535 -0.003558 0.000000 0.000000 0.000000
# 3 0.000530 -0.003558 0.016945 0.000000 0.000000 0.000000
# 4 0.000000 0.000000 0.000000 0.049081 0.000000 0.000000
# 5 0.000000 0.000000 0.000000 0.000000 0.049571 0.000000
# 6 0.000000 0.000000 0.000000 0.000000 0.000000 0.051822
#
#
# Mechanical properties :
#
#
# Convention : Reuss Voigt Hill
#
# Bulk Modulus (GPa) = 32.32399 43.11702 37.72051
# Shear Modulus (GPa) = 22.10782 24.47174 23.28978
#
# Velocity S-wave (km/s) = 3.36023 3.53532 3.44888
# Velocity P-wave (km/s) = 5.61816 6.21979 5.92661
#
# Compressibility (1/GPa) = 0.03093677
#
# Stress axis : x y z
#
# Youngs Moduli (GPa) = 46.13014 104.87563 59.01595
#
# Poissons Ratio (x) = 0.58550 -0.03129
# Poissons Ratio (y) = 0.25753 0.20997
# Poissons Ratio (z) = -0.02446 0.37313
#
# Static dielectric constant tensor:
#      x y z
#    x 1.735360 0.000000 0.000000 
#    y 0.000000 1.697130 0.000000 
#    z 0.000000 0.000000 1.683040 
# 
# From -- ./inp_files/20634.got.cif
#   From: 2010.05.17/outbox.cif.g08.bks.cpg/sg70_11_cif.got.tgz:20634.got - 2010.06.03 15:57:51.
