data_PCOD9515063
_publ_section_title
;
Structure prediction by ZEFSAII (Michael W. Deem and Ramdas Pophale) SiO2 
 PCOD9515063
Probable space group: F D D D
;
_chemical_formula_sum "Si O2"
_cell_formula_units_Z 176
_cell_length_a 27.571241
_cell_length_b 23.262759
_cell_length_c 11.706605
_cell_angle_alpha 90.000000
_cell_angle_beta 90.000000
_cell_angle_gamma 90.000000
_cell_volume 7508.419012
_symmetry_space_group_name_H-M "F D D D"
_symmetry_group_IT_number 70
_space_group.IT_coordinate_system_code '2'
_symmetry_cell_setting 'orthorhombic'
loop_
_space_group_symop_operation_xyz
x,y,z
1/4-x,1/4-y,z
x,1/4-y,1/4-z
1/4-x,y,1/4-z
-x,-y,-z
3/4+x,3/4+y,-z
-x,3/4+y,3/4+z
3/4+x,-y,3/4+z
x,1/2+y,1/2+z
1/4-x,3/4-y,1/2+z
x,3/4-y,3/4-z
1/4-x,1/2+y,3/4-z
-x,1/2-y,1/2-z
3/4+x,1/4+y,1/2-z
-x,1/4+y,1/4+z
3/4+x,1/2-y,1/4+z
1/2+x,y,1/2+z
3/4-x,1/4-y,1/2+z
1/2+x,1/4-y,3/4-z
3/4-x,y,3/4-z
1/2-x,-y,1/2-z
1/4+x,3/4+y,1/2-z
1/2-x,3/4+y,1/4+z
1/4+x,-y,1/4+z
1/2+x,1/2+y,z
3/4-x,3/4-y,z
1/2+x,3/4-y,1/4-z
3/4-x,1/2+y,1/4-z
1/2-x,1/2-y,-z
1/4+x,1/4+y,-z
1/2-x,1/4+y,3/4+z
1/4+x,1/2-y,3/4+z
loop_
_atom_site_type_symbol
_atom_site_label
_atom_site_fract_x
_atom_site_fract_y
_atom_site_fract_z
Si Si1 0.468333 0.456185 0.368973
Si Si2 0.929897 0.197426 0.335984
Si Si3 0.695515 0.721391 0.277599
Si Si4 0.375000 0.731405 0.875000
Si Si5 0.118777 0.810429 0.884638
Si Si6 0.731868 0.128605 0.928111
O O1 0.502943 0.503478 0.316304
O O2 0.419173 0.480576 0.417984
O O3 0.495713 0.425211 0.473660
O O4 0.454496 0.415890 0.261664
O O5 0.875000 0.180628 0.375000
O O6 0.938985 0.259869 0.395130
O O7 0.927108 0.195819 0.199527
O O8 0.970773 0.154083 0.381618
O O9 0.655487 0.761677 0.339369
O O10 0.699297 0.657455 0.329164
O O11 0.356349 0.697160 0.766338
O O12 0.139538 0.875000 0.875000
#
# Coordination Sequence:
#
# PCOD9515063 Si02
#       6
#    32  32  32  16  32  32
#     4  10  23  36  65 102 139 182 229 295 354 422
#     4   9  22  40  66  97 134 179 239 292 342 424
#     4  10  21  39  63  95 135 181 226 289 363 416
#     4  12  26  43  64 106 146 178 237 300 354 418
#     4  11  26  39  67  99 137 182 237 301 350 418
#     4  10  20  39  64  97 138 184 226 286 360 417
#
# _framework density 23.440352000000001
#
# number of rings (size 3 to 8) (size 9 to 14) (size 15 to 20)
#    0.000    1.818    1.818    0.545   14.000    1.455 
#    0.000    3.636    0.000    0.000    0.000    6.364 
#    0.000    0.000    0.000    0.000    0.000    0.000 
#
# Total GULP energy -245644.747489 kJ/mol
# GULP energy per Si atom -5582.835170 kJ/mol
# Density = 2.338700 g / cm^3
# Si number density = 23.440352 Si / 1000 Ang^3
#
#
#
# Elastic Constant Matrix: (Units=GPa)
#
#
# Indices 1 2 3 4 5 6 
#
# 1 62.1870 17.3358 28.2295 0.0000 0.0000 0.0000
# 2 17.3358 66.2576 49.9456 0.0000 0.0000 0.0000
# 3 28.2295 49.9456 178.2998 0.0001 -0.0001 0.0000
# 4 0.0000 0.0000 0.0001 42.8446 0.0000 0.0000
# 5 0.0000 0.0000 -0.0001 0.0000 32.3663 0.0000
# 6 0.0000 0.0000 0.0000 0.0000 0.0000 7.5529
#
#
#
# Elastic Compliance Matrix: (Units=1/GPa)
#
#
# Indices 1 2 3 4 5 6 
#
# 1 0.017852 -0.003220 -0.001924 0.000000 0.000000 0.000000
# 2 -0.003220 0.019713 -0.005012 0.000000 0.000000 0.000000
# 3 -0.001924 -0.005012 0.007317 0.000000 0.000000 0.000000
# 4 0.000000 0.000000 0.000000 0.023340 0.000000 0.000000
# 5 0.000000 0.000000 0.000000 0.000000 0.030896 0.000000
# 6 0.000000 0.000000 0.000000 0.000000 0.000000 0.132400
#
#
# Mechanical properties :
#
#
# Convention : Reuss Voigt Hill
#
# Bulk Modulus (GPa) = 40.70206 55.30735 48.00471
# Shear Modulus (GPa) = 19.22914 30.63499 24.93206
#
# Velocity S-wave (km/s) = 2.86727 3.61908 3.26489
# Velocity P-wave (km/s) = 5.32574 6.41169 5.89378
#
# Compressibility (1/GPa) = 0.02456878
#
# Stress axis : x y z
#
# Youngs Moduli (GPa) = 56.01680 50.72668 136.66299
#
# Poissons Ratio (x) = 0.16335 0.26299
# Poissons Ratio (y) = 0.18039 0.68500
# Poissons Ratio (z) = 0.10780 0.25426
#
# Static dielectric constant tensor:
#      x y z
#    x 1.837710 0.000000 0.000000 
#    y 0.000000 2.022340 0.000000 
#    z 0.000000 0.000000 2.012660 
# 
# From -- ./inp_files/22465.got.cif
#   From: 2010.05.17/outbox.cif.g08.bks.cpg/sg70_12_cif.got.tgz:22465.got - 2010.06.03 15:57:51.
