data_PCOD9515494
_publ_section_title
;
Structure prediction by ZEFSAII (Michael W. Deem and Ramdas Pophale) SiO2 
 PCOD9515494
Probable space group: F D D D
;
_chemical_formula_sum "Si O2"
_cell_formula_units_Z 192
_cell_length_a 8.895974
_cell_length_b 26.329286
_cell_length_c 32.077706
_cell_angle_alpha 90.000000
_cell_angle_beta 90.000000
_cell_angle_gamma 90.000000
_cell_volume 7513.389258
_symmetry_space_group_name_H-M "F D D D"
_symmetry_group_IT_number 70
_space_group.IT_coordinate_system_code '2'
_symmetry_cell_setting 'orthorhombic'
loop_
_space_group_symop_operation_xyz
x,y,z
1/4-x,1/4-y,z
x,1/4-y,1/4-z
1/4-x,y,1/4-z
-x,-y,-z
3/4+x,3/4+y,-z
-x,3/4+y,3/4+z
3/4+x,-y,3/4+z
x,1/2+y,1/2+z
1/4-x,3/4-y,1/2+z
x,3/4-y,3/4-z
1/4-x,1/2+y,3/4-z
-x,1/2-y,1/2-z
3/4+x,1/4+y,1/2-z
-x,1/4+y,1/4+z
3/4+x,1/2-y,1/4+z
1/2+x,y,1/2+z
3/4-x,1/4-y,1/2+z
1/2+x,1/4-y,3/4-z
3/4-x,y,3/4-z
1/2-x,-y,1/2-z
1/4+x,3/4+y,1/2-z
1/2-x,3/4+y,1/4+z
1/4+x,-y,1/4+z
1/2+x,1/2+y,z
3/4-x,3/4-y,z
1/2+x,3/4-y,1/4-z
3/4-x,1/2+y,1/4-z
1/2-x,1/2-y,-z
1/4+x,1/4+y,-z
1/2-x,1/4+y,3/4+z
1/4+x,1/2-y,3/4+z
loop_
_atom_site_type_symbol
_atom_site_label
_atom_site_fract_x
_atom_site_fract_y
_atom_site_fract_z
Si Si1 0.294366 0.488160 0.961361
Si Si2 0.039721 0.206639 0.890059
Si Si3 0.375000 0.375000 0.171251
Si Si4 0.181607 0.423475 0.401497
Si Si5 0.875000 0.448476 0.375000
Si Si6 0.157876 0.322756 0.988771
Si Si7 0.847565 0.675804 0.276592
O O1 0.293148 0.478613 0.912284
O O2 0.446715 0.459788 0.976342
O O3 0.324853 0.545955 0.972897
O O4 0.156446 0.468286 0.989809
O O5 0.875000 0.190353 0.875000
O O6 0.025707 0.193672 0.939111
O O7 0.152683 0.171547 0.862994
O O8 0.040197 0.268384 0.886978
O O9 0.500638 0.346065 0.200690
O O10 0.233583 0.375000 0.375000
O O11 0.210552 0.422662 0.450600
O O12 0.002118 0.418243 0.398660
O O13 0.207943 0.377640 0.001440
#
# Coordination Sequence:
#
# PCOD9515494 Si02
#       7
#    32  32  16  32  16  32  32
#     4  10  21  40  65 102 143 183 237 316 376 440
#     4  10  24  45  67 100 146 190 247 312 366 447
#     4  10  26  44  68 104 137 195 252 290 390 452
#     4  11  22  42  68 101 142 188 248 300 376 449
#     4  10  23  38  68 104 140 182 240 314 367 444
#     4  10  22  38  65 101 135 187 241 294 387 442
#     4  11  22  44  68  95 145 188 236 314 367 448
#
# _framework density 25.554379000000001
#
# number of rings (size 3 to 8) (size 9 to 14) (size 15 to 20)
#    0.000    1.667    1.667    1.750    4.667    3.000 
#    3.000    4.167    0.000    0.000    0.000    1.167 
#    0.000    0.000    0.000    0.000    0.000    0.000 
#
# Total GULP energy -267350.452977 kJ/mol
# GULP energy per Si atom -5569.801104 kJ/mol
# Density = 2.549622 g / cm^3
# Si number density = 25.554379 Si / 1000 Ang^3
#
#
#
# Elastic Constant Matrix: (Units=GPa)
#
#
# Indices 1 2 3 4 5 6 
#
# 1 77.4723 12.7435 26.2740 0.0000 0.0000 0.0000
# 2 12.7435 116.1394 13.0684 0.0000 0.0000 0.0000
# 3 26.2740 13.0684 150.6344 0.0000 0.0000 0.0000
# 4 0.0000 0.0000 0.0000 -18.7149 0.0000 0.0000
# 5 0.0000 0.0000 0.0000 0.0000 46.2074 0.0000
# 6 0.0000 0.0000 0.0000 0.0000 0.0000 27.3018
#
#
#
# Elastic Compliance Matrix: (Units=1/GPa)
#
#
# Indices 1 2 3 4 5 6 
#
# 1 0.013901 -0.001265 -0.002315 0.000000 0.000000 0.000000
# 2 -0.001265 0.008810 -0.000544 0.000000 0.000000 0.000000
# 3 -0.002315 -0.000544 0.007090 0.000000 0.000000 0.000000
# 4 0.000000 0.000000 0.000000 -0.053433 0.000000 0.000000
# 5 0.000000 0.000000 0.000000 0.000000 0.021642 0.000000
# 6 0.000000 0.000000 0.000000 0.000000 0.000000 0.036628
#
#
# Mechanical properties :
#
#
# Convention : Reuss Voigt Hill
#
# Bulk Modulus (GPa) = 46.39530 49.82419 48.10975
# Shear Modulus (GPa) = 99.86392 30.43621 65.15006
#
# Velocity S-wave (km/s) = 6.25810 3.45488 5.05470
# Velocity P-wave (km/s) = 8.39127 5.95438 7.27557
#
# Compressibility (1/GPa) = 0.02155391
#
# Stress axis : x y z
#
# Youngs Moduli (GPa) = 71.93743 113.50342 141.05307
#
# Poissons Ratio (x) = 0.14356 0.32652
# Poissons Ratio (y) = 0.09099 0.07670
# Poissons Ratio (z) = 0.16653 0.06172
#
# Static dielectric constant tensor:
#      x y z
#    x 2.036010 0.000000 0.000000 
#    y 0.000000 1.942750 0.000000 
#    z 0.000000 0.000000 2.178810 
# 
# From -- ./inp_files/64981.got.cif
#   From: 2010.05.17/outbox.cif.g08.bks.cpg/sg70_33_cif.got.tgz:64981.got - 2010.06.03 15:57:51.
