data_PCOD9515479
_publ_section_title
;
Structure prediction by ZEFSAII (Michael W. Deem and Ramdas Pophale) SiO2 
 PCOD9515479
Probable space group: F D D D
;
_chemical_formula_sum "Si O2"
_cell_formula_units_Z 192
_cell_length_a 25.690651
_cell_length_b 9.783870
_cell_length_c 30.888217
_cell_angle_alpha 90.000000
_cell_angle_beta 90.000000
_cell_angle_gamma 90.000000
_cell_volume 7763.876575
_symmetry_space_group_name_H-M "F D D D"
_symmetry_group_IT_number 70
_space_group.IT_coordinate_system_code '2'
_symmetry_cell_setting 'orthorhombic'
loop_
_space_group_symop_operation_xyz
x,y,z
1/4-x,1/4-y,z
x,1/4-y,1/4-z
1/4-x,y,1/4-z
-x,-y,-z
3/4+x,3/4+y,-z
-x,3/4+y,3/4+z
3/4+x,-y,3/4+z
x,1/2+y,1/2+z
1/4-x,3/4-y,1/2+z
x,3/4-y,3/4-z
1/4-x,1/2+y,3/4-z
-x,1/2-y,1/2-z
3/4+x,1/4+y,1/2-z
-x,1/4+y,1/4+z
3/4+x,1/2-y,1/4+z
1/2+x,y,1/2+z
3/4-x,1/4-y,1/2+z
1/2+x,1/4-y,3/4-z
3/4-x,y,3/4-z
1/2-x,-y,1/2-z
1/4+x,3/4+y,1/2-z
1/2-x,3/4+y,1/4+z
1/4+x,-y,1/4+z
1/2+x,1/2+y,z
3/4-x,3/4-y,z
1/2+x,3/4-y,1/4-z
3/4-x,1/2+y,1/4-z
1/2-x,1/2-y,-z
1/4+x,1/4+y,-z
1/2-x,1/4+y,3/4+z
1/4+x,1/2-y,3/4+z
loop_
_atom_site_type_symbol
_atom_site_label
_atom_site_fract_x
_atom_site_fract_y
_atom_site_fract_z
Si Si1 0.338344 0.547296 0.750781
Si Si2 0.875000 0.875000 0.587784
Si Si3 0.125000 0.456207 0.125000
Si Si4 0.945544 0.273557 0.336329
Si Si5 0.931923 0.991172 0.095514
Si Si6 0.185305 0.456085 0.207653
Si Si7 0.714179 0.553168 0.477933
O O1 0.323294 0.440285 0.788133
O O2 0.342607 0.494867 0.701973
O O3 0.390116 0.627956 0.765725
O O4 0.290048 0.655408 0.749501
O O5 0.919083 0.893281 0.625846
O O6 0.835784 0.945617 0.553793
O O7 0.084993 0.363680 0.152142
O O8 0.162030 0.514094 0.162788
O O9 0.931497 0.375000 0.375000
O O10 0.006968 0.255860 0.338550
O O11 0.914869 0.125000 0.125000
O O12 0.233689 0.350154 0.202983
O O13 0.204618 0.583241 0.235755
#
# Coordination Sequence:
#
# PCOD9515479 Si02
#       7
#    32  16  16  32  32  32  32
#     4  11  22  43  65  94 132 175 222 272 341 404
#     4  12  22  40  66  89 131 166 214 278 324 392
#     4  10  21  40  63  94 128 164 218 270 332 398
#     4  10  23  41  61  91 129 173 216 273 329 398
#     4  11  22  39  64  95 126 173 214 265 334 394
#     4  10  22  39  67 100 127 175 223 275 339 403
#     4  11  21  41  69  94 134 176 219 281 342 403
#
# _framework density 24.729914999999998
#
# number of rings (size 3 to 8) (size 9 to 14) (size 15 to 20)
#    0.000    1.333    3.333    1.750    2.333    1.333 
#    6.000    6.667    0.000    2.000    0.000    0.000 
#    0.000    0.000    0.000    0.000    0.000    0.000 
#
# Total GULP energy -267752.783071 kJ/mol
# GULP energy per Si atom -5578.182981 kJ/mol
# Density = 2.467363 g / cm^3
# Si number density = 24.729915 Si / 1000 Ang^3
#
#
#
# Elastic Constant Matrix: (Units=GPa)
#
#
# Indices 1 2 3 4 5 6 
#
# 1 124.2445 32.1055 51.2595 0.0000 0.0000 0.0000
# 2 32.1055 75.7878 31.7234 0.0000 0.0000 0.0000
# 3 51.2595 31.7234 198.5725 0.0000 0.0000 0.0000
# 4 0.0000 0.0000 0.0000 19.1191 0.0000 0.0000
# 5 0.0000 0.0000 0.0000 0.0000 -148.3233 0.0000
# 6 0.0000 0.0000 0.0000 0.0000 0.0000 21.3989
#
#
#
# Elastic Compliance Matrix: (Units=1/GPa)
#
#
# Indices 1 2 3 4 5 6 
#
# 1 0.009716 -0.003286 -0.001983 0.000000 0.000000 0.000000
# 2 -0.003286 0.015252 -0.001588 0.000000 0.000000 0.000000
# 3 -0.001983 -0.001588 0.005802 0.000000 0.000000 0.000000
# 4 0.000000 0.000000 0.000000 0.052304 0.000000 0.000000
# 5 0.000000 0.000000 0.000000 0.000000 -0.006742 0.000000
# 6 0.000000 0.000000 0.000000 0.000000 0.000000 0.046731
#
#
# Mechanical properties :
#
#
# Convention : Reuss Voigt Hill
#
# Bulk Modulus (GPa) = 58.63552 69.86463 64.25007
# Shear Modulus (GPa) = 35.09719 -2.65997 16.21861
#
# Velocity S-wave (km/s) = 3.77134 -1.03824 2.56370
# Velocity P-wave (km/s) = 6.53650 5.18412 5.89919
#
# Compressibility (1/GPa) = 0.01705451
#
# Stress axis : x y z
#
# Youngs Moduli (GPa) = 102.92420 65.56726 172.36566
#
# Poissons Ratio (x) = 0.21544 0.34182
# Poissons Ratio (y) = 0.33819 0.27378
# Poissons Ratio (z) = 0.20411 0.10414
#
# Static dielectric constant tensor:
#      x y z
#    x 1.969260 0.000000 0.000000 
#    y 0.000000 2.130420 0.000000 
#    z 0.000000 0.000000 2.022670 
# 
# From -- ./inp_files/68428.got.cif
#   From: 2010.05.17/outbox.cif.g08.bks.cpg/sg70_35_cif.got.tgz:68428.got - 2010.06.03 15:57:51.
