data_PCOD9515037
_publ_section_title
;
Structure prediction by ZEFSAII (Michael W. Deem and Ramdas Pophale) SiO2 
 PCOD9515037
Probable space group: F D D D
;
_chemical_formula_sum "Si O2"
_cell_formula_units_Z 160
_cell_length_a 33.773127
_cell_length_b 28.742892
_cell_length_c 8.022427
_cell_angle_alpha 90.000000
_cell_angle_beta 90.000000
_cell_angle_gamma 90.000000
_cell_volume 7787.669461
_symmetry_space_group_name_H-M "F D D D"
_symmetry_group_IT_number 70
_space_group.IT_coordinate_system_code '2'
_symmetry_cell_setting 'orthorhombic'
loop_
_space_group_symop_operation_xyz
x,y,z
1/4-x,1/4-y,z
x,1/4-y,1/4-z
1/4-x,y,1/4-z
-x,-y,-z
3/4+x,3/4+y,-z
-x,3/4+y,3/4+z
3/4+x,-y,3/4+z
x,1/2+y,1/2+z
1/4-x,3/4-y,1/2+z
x,3/4-y,3/4-z
1/4-x,1/2+y,3/4-z
-x,1/2-y,1/2-z
3/4+x,1/4+y,1/2-z
-x,1/4+y,1/4+z
3/4+x,1/2-y,1/4+z
1/2+x,y,1/2+z
3/4-x,1/4-y,1/2+z
1/2+x,1/4-y,3/4-z
3/4-x,y,3/4-z
1/2-x,-y,1/2-z
1/4+x,3/4+y,1/2-z
1/2-x,3/4+y,1/4+z
1/4+x,-y,1/4+z
1/2+x,1/2+y,z
3/4-x,3/4-y,z
1/2+x,3/4-y,1/4-z
3/4-x,1/2+y,1/4-z
1/2-x,1/2-y,-z
1/4+x,1/4+y,-z
1/2-x,1/4+y,3/4+z
1/4+x,1/2-y,3/4+z
loop_
_atom_site_type_symbol
_atom_site_label
_atom_site_fract_x
_atom_site_fract_y
_atom_site_fract_z
Si Si1 0.258618 0.447067 0.296635
Si Si2 0.153125 0.721380 0.983176
Si Si3 0.510844 0.895606 0.624378
Si Si4 0.125000 0.939276 0.625000
Si Si5 0.375000 0.451713 0.875000
Si Si6 0.327052 0.125000 0.125000
Si Si7 0.441771 0.375000 0.875000
O O1 0.250000 0.500000 0.250000
O O2 0.305313 0.444510 0.246746
O O3 0.234824 0.405946 0.204052
O O4 0.247845 0.434760 0.487781
O O5 0.130298 0.725690 0.805698
O O6 0.125000 0.699070 0.125000
O O7 0.156861 0.774720 0.046339
O O8 0.547780 0.902915 0.500972
O O9 0.471047 0.889048 0.521228
O O10 0.104419 0.908202 0.764483
O O11 0.413050 0.418729 0.864239
#
# Coordination Sequence:
#
# PCOD9515037 Si02
#       7
#    32  32  32  16  16  16  16
#     4  11  22  41  67  98 137 180 233 295 353 426
#     4  10  23  42  61 104 134 176 232 283 353 420
#     4  10  23  42  68  98 137 181 235 289 358 420
#     4  10  26  43  68  96 138 176 240 288 361 418
#     4  11  20  37  68  91 144 174 220 279 341 422
#     4  11  24  49  68  97 132 186 238 297 356 427
#     4  10  20  39  60 102 126 180 222 270 348 415
#
# _framework density 20.545300000000001
#
# number of rings (size 3 to 8) (size 9 to 14) (size 15 to 20)
#    0.600    1.000    2.000    2.400    0.000    5.600 
#    0.000    3.000    0.000    0.000    0.000    0.000 
#    0.000    0.000    0.000    0.000    0.000    0.000 
#
# Total GULP energy -222677.919222 kJ/mol
# GULP energy per Si atom -5566.947981 kJ/mol
# Density = 2.049854 g / cm^3
# Si number density = 20.545300 Si / 1000 Ang^3
#
#
#
# Elastic Constant Matrix: (Units=GPa)
#
#
# Indices 1 2 3 4 5 6 
#
# 1 72.3885 20.5661 32.3860 0.0035 0.0036 0.0012
# 2 20.5661 99.3758 49.8618 -0.0146 0.0163 0.0072
# 3 32.3860 49.8618 139.8055 -0.0148 0.0329 0.0131
# 4 0.0035 -0.0146 -0.0148 38.8964 0.0200 0.0146
# 5 0.0036 0.0163 0.0329 0.0200 16.0338 -0.0211
# 6 0.0012 0.0072 0.0131 0.0146 -0.0211 -7.2146
#
#
#
# Elastic Compliance Matrix: (Units=1/GPa)
#
#
# Indices 1 2 3 4 5 6 
#
# 1 0.015652 -0.001729 -0.003009 -0.000003 0.000004 -0.000005
# 2 -0.001729 0.012447 -0.004039 0.000003 -0.000004 0.000005
# 3 -0.003009 -0.004039 0.009290 0.000002 -0.000014 0.000012
# 4 -0.000003 0.000003 0.000002 0.025709 -0.000032 0.000052
# 5 0.000004 -0.000004 -0.000014 -0.000032 0.062368 -0.000183
# 6 -0.000005 0.000005 0.000012 0.000052 -0.000183 -0.138608
#
#
# Mechanical properties :
#
#
# Convention : Reuss Voigt Hill
#
# Bulk Modulus (GPa) = 50.41572 57.46640 53.94106
# Shear Modulus (GPa) = 453.53176 23.46019 238.49598
#
# Velocity S-wave (km/s) = 14.87368 3.38283 10.78587
# Velocity P-wave (km/s) = 17.87626 6.57947 13.46941
#
# Compressibility (1/GPa) = 0.01983508
#
# Stress axis : x y z
#
# Youngs Moduli (GPa) = 63.89012 80.33988 107.64020
#
# Poissons Ratio (x) = 0.13895 0.32388
# Poissons Ratio (y) = 0.11050 0.43472
# Poissons Ratio (z) = 0.19224 0.32446
#
# Static dielectric constant tensor:
#      x y z
#    x 1.786010 -0.000010 -0.000010 
#    y -0.000010 1.737710 -0.000010 
#    z -0.000010 -0.000010 1.832760 
# 
# From -- ./inp_files/12400.got.cif
#   From: 2010.05.17/outbox.cif.g08.bks.cpg/sg70_7_cif.got.tgz:12400.got - 2010.06.03 15:57:51.
