data_PCOD9515163
_publ_section_title
;
Structure prediction by ZEFSAII (Michael W. Deem and Ramdas Pophale) SiO2 
 PCOD9515163
Probable space group: F D D D
;
_chemical_formula_sum "Si O2"
_cell_formula_units_Z 240
_cell_length_a 24.812933
_cell_length_b 17.831232
_cell_length_c 26.828211
_cell_angle_alpha 90.000000
_cell_angle_beta 90.000000
_cell_angle_gamma 90.000000
_cell_volume 11870.012240
_symmetry_space_group_name_H-M "F D D D"
_symmetry_group_IT_number 70
_space_group.IT_coordinate_system_code '2'
_symmetry_cell_setting 'orthorhombic'
loop_
_space_group_symop_operation_xyz
x,y,z
1/4-x,1/4-y,z
x,1/4-y,1/4-z
1/4-x,y,1/4-z
-x,-y,-z
3/4+x,3/4+y,-z
-x,3/4+y,3/4+z
3/4+x,-y,3/4+z
x,1/2+y,1/2+z
1/4-x,3/4-y,1/2+z
x,3/4-y,3/4-z
1/4-x,1/2+y,3/4-z
-x,1/2-y,1/2-z
3/4+x,1/4+y,1/2-z
-x,1/4+y,1/4+z
3/4+x,1/2-y,1/4+z
1/2+x,y,1/2+z
3/4-x,1/4-y,1/2+z
1/2+x,1/4-y,3/4-z
3/4-x,y,3/4-z
1/2-x,-y,1/2-z
1/4+x,3/4+y,1/2-z
1/2-x,3/4+y,1/4+z
1/4+x,-y,1/4+z
1/2+x,1/2+y,z
3/4-x,3/4-y,z
1/2+x,3/4-y,1/4-z
3/4-x,1/2+y,1/4-z
1/2-x,1/2-y,-z
1/4+x,1/4+y,-z
1/2-x,1/4+y,3/4+z
1/4+x,1/2-y,3/4+z
loop_
_atom_site_type_symbol
_atom_site_label
_atom_site_fract_x
_atom_site_fract_y
_atom_site_fract_z
Si Si1 0.366197 0.213858 0.124364
Si Si2 0.424520 0.764376 0.943618
Si Si3 0.233659 0.475217 0.805743
Si Si4 0.964695 0.952431 0.576224
Si Si5 0.526811 0.300597 0.957773
Si Si6 0.447029 0.928851 0.960126
Si Si7 0.625000 0.403181 0.625000
Si Si8 0.717639 0.310626 0.648672
O O1 0.381170 0.125000 0.125000
O O2 0.328658 0.234957 0.076297
O O3 0.417356 0.264093 0.139273
O O4 0.324544 0.221268 0.169992
O O5 0.452572 0.844861 0.938531
O O6 0.361966 0.787255 0.950562
O O7 0.419570 0.706158 0.899235
O O8 0.450921 0.717967 0.988118
O O9 0.250000 0.500000 0.750000
O O10 0.239103 0.385277 0.804268
O O11 0.271803 0.515885 0.846872
O O12 0.948561 0.926059 0.520275
O O13 0.989886 0.878577 0.600299
O O14 0.007898 0.017612 0.563246
O O15 0.478951 0.245703 0.943485
O O16 0.659800 0.347777 0.658461
#
# Coordination Sequence:
#
# PCOD9515163 Si02
#       8
#    32  32  32  32  32  32  16  32
#     4   9  20  36  65  96 125 168 218 268 323 391
#     4  11  21  39  62  89 135 179 219 265 328 397
#     4  10  22  42  67  93 125 164 213 283 345 392
#     4  11  20  39  63 101 131 172 224 268 331 395
#     4  10  20  41  68  92 120 172 220 273 336 394
#     4  10  22  35  63  95 137 176 219 272 314 410
#     4  12  26  41  61  96 134 182 218 270 337 412
#     4  11  23  41  67  92 126 172 222 273 331 405
#
# _framework density 20.219018999999999
#
# number of rings (size 3 to 8) (size 9 to 14) (size 15 to 20)
#    0.000    1.600    4.000    2.000    0.000    4.267 
#    0.000    1.333   14.667    0.000    0.000    0.000 
#    0.000    0.000    0.000    0.000    0.000    0.000 
#
# Total GULP energy -334561.267534 kJ/mol
# GULP energy per Si atom -5576.021126 kJ/mol
# Density = 2.017300 g / cm^3
# Si number density = 20.219019 Si / 1000 Ang^3
#
#
#
# Elastic Constant Matrix: (Units=GPa)
#
#
# Indices 1 2 3 4 5 6 
#
# 1 40.4458 41.2992 23.0634 0.0000 0.0000 0.0000
# 2 41.2992 115.6633 33.0403 0.0000 0.0000 0.0000
# 3 23.0634 33.0403 100.0871 0.0000 0.0000 0.0000
# 4 0.0000 0.0000 0.0000 24.3388 0.0000 0.0000
# 5 0.0000 0.0000 0.0000 0.0000 30.5680 0.0000
# 6 0.0000 0.0000 0.0000 0.0000 0.0000 19.7977
#
#
#
# Elastic Compliance Matrix: (Units=1/GPa)
#
#
# Indices 1 2 3 4 5 6 
#
# 1 0.041154 -0.013233 -0.005115 0.000000 0.000000 0.000000
# 2 -0.013233 0.013801 -0.001507 0.000000 0.000000 0.000000
# 3 -0.005115 -0.001507 0.011667 0.000000 0.000000 0.000000
# 4 0.000000 0.000000 0.000000 0.041087 0.000000 0.000000
# 5 0.000000 0.000000 0.000000 0.000000 0.032714 0.000000
# 6 0.000000 0.000000 0.000000 0.000000 0.000000 0.050511
#
#
# Mechanical properties :
#
#
# Convention : Reuss Voigt Hill
#
# Bulk Modulus (GPa) = 37.15695 50.11134 43.63414
# Shear Modulus (GPa) = 20.86689 25.52711 23.19700
#
# Velocity S-wave (km/s) = 3.21603 3.55706 3.39084
# Velocity P-wave (km/s) = 5.67517 6.45820 6.07931
#
# Compressibility (1/GPa) = 0.02691287
#
# Stress axis : x y z
#
# Youngs Moduli (GPa) = 24.29922 72.45667 85.71016
#
# Poissons Ratio (x) = 0.95885 0.43837
# Poissons Ratio (y) = 0.32156 0.12913
# Poissons Ratio (z) = 0.12428 0.10916
#
# Static dielectric constant tensor:
#      x y z
#    x 1.756830 0.000000 0.000000 
#    y 0.000000 1.740990 0.000000 
#    z 0.000000 0.000000 1.767440 
# 
# From -- ./inp_files/61867.got.cif
#   From: 2010.05.17/outbox.cif.g08.bks.cpg/sg70_31_cif.got.tgz:61867.got - 2010.06.03 15:57:51.
