data_PCOD9515337
_publ_section_title
;
Structure prediction by ZEFSAII (Michael W. Deem and Ramdas Pophale) SiO2 
 PCOD9515337
Probable space group: F D D D
;
_chemical_formula_sum "Si O2"
_cell_formula_units_Z 144
_cell_length_a 31.940863
_cell_length_b 20.828623
_cell_length_c 11.661330
_cell_angle_alpha 90.000000
_cell_angle_beta 90.000000
_cell_angle_gamma 90.000000
_cell_volume 7758.098527
_symmetry_space_group_name_H-M "F D D D"
_symmetry_group_IT_number 70
_space_group.IT_coordinate_system_code '2'
_symmetry_cell_setting 'orthorhombic'
loop_
_space_group_symop_operation_xyz
x,y,z
1/4-x,1/4-y,z
x,1/4-y,1/4-z
1/4-x,y,1/4-z
-x,-y,-z
3/4+x,3/4+y,-z
-x,3/4+y,3/4+z
3/4+x,-y,3/4+z
x,1/2+y,1/2+z
1/4-x,3/4-y,1/2+z
x,3/4-y,3/4-z
1/4-x,1/2+y,3/4-z
-x,1/2-y,1/2-z
3/4+x,1/4+y,1/2-z
-x,1/4+y,1/4+z
3/4+x,1/2-y,1/4+z
1/2+x,y,1/2+z
3/4-x,1/4-y,1/2+z
1/2+x,1/4-y,3/4-z
3/4-x,y,3/4-z
1/2-x,-y,1/2-z
1/4+x,3/4+y,1/2-z
1/2-x,3/4+y,1/4+z
1/4+x,-y,1/4+z
1/2+x,1/2+y,z
3/4-x,3/4-y,z
1/2+x,3/4-y,1/4-z
3/4-x,1/2+y,1/4-z
1/2-x,1/2-y,-z
1/4+x,1/4+y,-z
1/2-x,1/4+y,3/4+z
1/4+x,1/2-y,3/4+z
loop_
_atom_site_type_symbol
_atom_site_label
_atom_site_fract_x
_atom_site_fract_y
_atom_site_fract_z
Si Si1 0.903121 0.810634 0.166397
Si Si2 0.651911 0.739232 0.021495
Si Si3 0.684158 0.873964 0.737043
Si Si4 0.967899 0.866648 0.737215
Si Si5 0.875000 0.017773 0.375000
O O1 0.875000 0.875000 0.173470
O O2 0.943799 0.833609 0.095960
O O3 0.902070 0.777281 0.289641
O O4 0.879665 0.760568 0.084035
O O5 0.625000 0.707295 0.125000
O O6 0.665311 0.809483 0.058577
O O7 0.692695 0.700578 0.977315
O O8 0.680870 0.875000 0.875000
O O9 0.733391 0.877269 0.708209
O O10 0.658186 0.814054 0.688931
O O11 0.964495 0.875000 0.875000
#
# Coordination Sequence:
#
# PCOD9515337 Si02
#       5
#    32  32  32  32  16
#     4  10  22  38  61  87 119 163 207 246 307 366
#     4  11  19  36  63  89 118 153 204 254 309 365
#     4  11  23  38  58  88 122 162 202 257 313 361
#     4  10  21  37  61  91 119 153 210 262 301 354
#     4  12  23  40  62  84 133 168 200 246 308 386
#
# _framework density 18.561249
#
# number of rings (size 3 to 8) (size 9 to 14) (size 15 to 20)
#    0.000    1.333    5.556    1.000    0.000    0.889 
#    0.000    0.000    0.000    2.667    0.000    0.000 
#    0.000    0.000    0.000    0.000    0.000    0.000 
#
# Total GULP energy -200504.810106 kJ/mol
# GULP energy per Si atom -5569.578059 kJ/mol
# Density = 1.851900 g / cm^3
# Si number density = 18.561249 Si / 1000 Ang^3
#
#
#
# Elastic Constant Matrix: (Units=GPa)
#
#
# Indices 1 2 3 4 5 6 
#
# 1 149.1225 58.8101 55.0375 0.0000 0.0000 0.0000
# 2 58.8101 76.0069 32.0418 0.0000 0.0000 0.0000
# 3 55.0375 32.0418 90.3916 0.0000 0.0000 0.0000
# 4 0.0000 0.0000 0.0000 34.2637 0.0000 0.0000
# 5 0.0000 0.0000 0.0000 0.0000 22.2859 0.0000
# 6 0.0000 0.0000 0.0000 0.0000 0.0000 9.9555
#
#
#
# Elastic Compliance Matrix: (Units=1/GPa)
#
#
# Indices 1 2 3 4 5 6 
#
# 1 0.010903 -0.006628 -0.004289 0.000000 0.000000 0.000000
# 2 -0.006628 0.019497 -0.002876 0.000000 0.000000 0.000000
# 3 -0.004289 -0.002876 0.014694 0.000000 0.000000 0.000000
# 4 0.000000 0.000000 0.000000 0.029185 0.000000 0.000000
# 5 0.000000 0.000000 0.000000 0.000000 0.044871 0.000000
# 6 0.000000 0.000000 0.000000 0.000000 0.000000 0.100447
#
#
# Mechanical properties :
#
#
# Convention : Reuss Voigt Hill
#
# Bulk Modulus (GPa) = 57.11489 67.47775 62.29632
# Shear Modulus (GPa) = 19.76131 24.60980 22.18556
#
# Velocity S-wave (km/s) = 3.26644 3.64520 3.46101
# Velocity P-wave (km/s) = 6.71298 7.35865 7.04321
#
# Compressibility (1/GPa) = 0.01750857
#
# Stress axis : x y z
#
# Youngs Moduli (GPa) = 91.72034 51.28918 68.05564
#
# Poissons Ratio (x) = 0.33994 0.29189
# Poissons Ratio (y) = 0.60791 0.19571
# Poissons Ratio (z) = 0.39339 0.14750
#
# Static dielectric constant tensor:
#      x y z
#    x 1.632940 0.000000 0.000000 
#    y 0.000000 1.660440 0.000000 
#    z 0.000000 0.000000 1.671830 
# 
# From -- ./inp_files/20637.got.cif
#   From: 2010.05.17/outbox.cif.g08.bks.cpg/sg70_11_cif.got.tgz:20637.got - 2010.06.03 15:57:51.
