data_PCOD9515366
_publ_section_title
;
Structure prediction by ZEFSAII (Michael W. Deem and Ramdas Pophale) SiO2 
 PCOD9515366
Probable space group: F D D D
;
_chemical_formula_sum "Si O2"
_cell_formula_units_Z 144
_cell_length_a 32.818540
_cell_length_b 6.952836
_cell_length_c 32.716091
_cell_angle_alpha 90.000000
_cell_angle_beta 90.000000
_cell_angle_gamma 90.000000
_cell_volume 7465.220668
_symmetry_space_group_name_H-M "F D D D"
_symmetry_group_IT_number 70
_space_group.IT_coordinate_system_code '2'
_symmetry_cell_setting 'orthorhombic'
loop_
_space_group_symop_operation_xyz
x,y,z
1/4-x,1/4-y,z
x,1/4-y,1/4-z
1/4-x,y,1/4-z
-x,-y,-z
3/4+x,3/4+y,-z
-x,3/4+y,3/4+z
3/4+x,-y,3/4+z
x,1/2+y,1/2+z
1/4-x,3/4-y,1/2+z
x,3/4-y,3/4-z
1/4-x,1/2+y,3/4-z
-x,1/2-y,1/2-z
3/4+x,1/4+y,1/2-z
-x,1/4+y,1/4+z
3/4+x,1/2-y,1/4+z
1/2+x,y,1/2+z
3/4-x,1/4-y,1/2+z
1/2+x,1/4-y,3/4-z
3/4-x,y,3/4-z
1/2-x,-y,1/2-z
1/4+x,3/4+y,1/2-z
1/2-x,3/4+y,1/4+z
1/4+x,-y,1/4+z
1/2+x,1/2+y,z
3/4-x,3/4-y,z
1/2+x,3/4-y,1/4-z
3/4-x,1/2+y,1/4-z
1/2-x,1/2-y,-z
1/4+x,1/4+y,-z
1/2-x,1/4+y,3/4+z
1/4+x,1/2-y,3/4+z
loop_
_atom_site_type_symbol
_atom_site_label
_atom_site_fract_x
_atom_site_fract_y
_atom_site_fract_z
Si Si1 0.799873 0.855013 0.161429
Si Si2 0.282191 0.448806 0.072341
Si Si3 0.529978 0.642361 0.171559
Si Si4 0.375000 0.375000 0.531915
Si Si5 0.834959 0.750025 0.755835
O O1 0.804170 0.855803 0.112185
O O2 0.762442 0.722603 0.173695
O O3 0.839786 0.801317 0.187080
O O4 0.785195 0.072415 0.171070
O O5 0.236629 0.359491 0.070261
O O6 0.306429 0.421573 0.030619
O O7 0.545136 0.625000 0.125000
O O8 0.560301 0.542596 0.202923
O O9 0.398537 0.535950 0.505161
O O10 0.875000 0.875000 0.757301
#
# Coordination Sequence:
#
# PCOD9515366 Si02
#       5
#    32  32  32  16  32
#     4   9  19  36  56  85 116 149 185 233 296 353
#     4   9  19  35  57  84 111 148 191 233 290 353
#     4  10  21  38  58  78 110 155 197 242 285 338
#     4  10  22  36  56  89 120 150 179 240 294 352
#     4  11  23  36  55  85 115 151 196 239 287 339
#
# _framework density 19.289451
#
# number of rings (size 3 to 8) (size 9 to 14) (size 15 to 20)
#    0.000    2.222    0.000    2.000    1.556    5.778 
#    8.000    0.000    0.000    1.333    0.000    0.000 
#    0.000    0.000    0.000    0.000    0.000    0.000 
#
# Total GULP energy -200655.999723 kJ/mol
# GULP energy per Si atom -5573.777770 kJ/mol
# Density = 1.924555 g / cm^3
# Si number density = 19.289451 Si / 1000 Ang^3
#
#
#
# Elastic Constant Matrix: (Units=GPa)
#
#
# Indices 1 2 3 4 5 6 
#
# 1 -203.7900 19.1776 -81.9994 -0.0030 -0.0091 0.0035
# 2 19.1776 55.0031 39.0456 -0.0009 -0.0071 -0.0017
# 3 -81.9994 39.0456 47.8970 -0.0017 -0.0083 0.0010
# 4 -0.0030 -0.0009 -0.0017 18.3810 0.0059 0.0003
# 5 -0.0091 -0.0071 -0.0083 0.0059 -82.0888 -0.0095
# 6 0.0035 -0.0017 0.0010 0.0003 -0.0095 35.1793
#
#
#
# Elastic Compliance Matrix: (Units=1/GPa)
#
#
# Indices 1 2 3 4 5 6 
#
# 1 -0.001507 0.005595 -0.007141 -0.000001 0.000000 0.000001
# 2 0.005595 0.022384 -0.008669 0.000001 -0.000002 0.000001
# 3 -0.007141 -0.008669 0.015720 0.000000 0.000000 0.000000
# 4 -0.000001 0.000001 0.000000 0.054404 0.000004 0.000000
# 5 0.000000 -0.000002 0.000000 0.000004 -0.012182 -0.000003
# 6 0.000001 0.000001 0.000000 0.000000 -0.000003 0.028426
#
#
# Mechanical properties :
#
#
# Convention : Reuss Voigt Hill
#
# Bulk Modulus (GPa) = 61.85935 -16.49358 22.68288
# Shear Modulus (GPa) = 37.57560 -10.84663 13.36449
#
# Velocity S-wave (km/s) = 4.41839 -2.37388 2.63504
# Velocity P-wave (km/s) = 7.62681 4.01034 4.58723
#
# Compressibility (1/GPa) = 0.01616571
#
# Stress axis : x y z
#
# Youngs Moduli (GPa) = -663.50945 44.67414 63.61352
#
# Poissons Ratio (x) = -0.24994 0.45427
# Poissons Ratio (y) = 3.71220 0.55149
# Poissons Ratio (z) = -4.73818 0.38730
#
# Static dielectric constant tensor:
#      x y z
#    x 1.639110 0.000000 0.000000 
#    y 0.000000 1.777510 0.000000 
#    z 0.000000 0.000000 1.753130 
# 
# From -- ./inp_files/68776.got.cif
#   From: 2010.05.17/outbox.cif.g08.bks.cpg/sg70_35_cif.got.tgz:68776.got - 2010.06.03 15:57:51.
