data_PCOD9515930
_publ_section_title
;
Structure prediction by ZEFSAII (Michael W. Deem and Ramdas Pophale) SiO2 
 PCOD9515930
Probable space group: F D D D
;
_chemical_formula_sum "Si O2"
_cell_formula_units_Z 192
_cell_length_a 17.436097
_cell_length_b 32.445141
_cell_length_c 15.474253
_cell_angle_alpha 90.000000
_cell_angle_beta 90.000000
_cell_angle_gamma 90.000000
_cell_volume 8754.042192
_symmetry_space_group_name_H-M "F D D D"
_symmetry_group_IT_number 70
_space_group.IT_coordinate_system_code '2'
_symmetry_cell_setting 'orthorhombic'
loop_
_space_group_symop_operation_xyz
x,y,z
1/4-x,1/4-y,z
x,1/4-y,1/4-z
1/4-x,y,1/4-z
-x,-y,-z
3/4+x,3/4+y,-z
-x,3/4+y,3/4+z
3/4+x,-y,3/4+z
x,1/2+y,1/2+z
1/4-x,3/4-y,1/2+z
x,3/4-y,3/4-z
1/4-x,1/2+y,3/4-z
-x,1/2-y,1/2-z
3/4+x,1/4+y,1/2-z
-x,1/4+y,1/4+z
3/4+x,1/2-y,1/4+z
1/2+x,y,1/2+z
3/4-x,1/4-y,1/2+z
1/2+x,1/4-y,3/4-z
3/4-x,y,3/4-z
1/2-x,-y,1/2-z
1/4+x,3/4+y,1/2-z
1/2-x,3/4+y,1/4+z
1/4+x,-y,1/4+z
1/2+x,1/2+y,z
3/4-x,3/4-y,z
1/2+x,3/4-y,1/4-z
3/4-x,1/2+y,1/4-z
1/2-x,1/2-y,-z
1/4+x,1/4+y,-z
1/2-x,1/4+y,3/4+z
1/4+x,1/2-y,3/4+z
loop_
_atom_site_type_symbol
_atom_site_label
_atom_site_fract_x
_atom_site_fract_y
_atom_site_fract_z
Si Si1 0.692895 0.657925 0.008806
Si Si2 0.375000 0.770172 0.375000
Si Si3 0.080737 0.875000 0.875000
Si Si4 0.755763 0.220531 0.893829
Si Si5 0.854132 0.419362 0.063187
Si Si6 0.841977 0.706120 0.558671
Si Si7 0.229993 0.245101 0.783174
O O1 0.625000 0.625000 0.026543
O O2 0.667795 0.699807 0.056969
O O3 0.772098 0.641473 0.050346
O O4 0.690037 0.663572 0.905152
O O5 0.310916 0.743227 0.328664
O O6 0.135173 0.838602 0.909526
O O7 0.685043 0.191433 0.918261
O O8 0.732409 0.268492 0.909863
O O9 0.764246 0.220810 0.791664
O O10 0.825425 0.208510 0.955831
O O11 0.875000 0.375000 0.025815
O O12 0.802870 0.450666 0.008101
O O13 0.912347 0.735034 0.590347
#
# Coordination Sequence:
#
# PCOD9515930 Si02
#       7
#    32  16  16  32  32  32  32
#     4  11  19  35  59  94 136 172 205 265 344 404
#     4  12  19  34  66  94 126 176 212 262 336 409
#     4  12  21  36  66 102 133 170 220 278 338 416
#     4  10  22  43  63  86 128 175 225 274 321 392
#     4  10  24  40  63  92 131 172 218 275 336 395
#     4  10  23  39  64  93 123 174 227 270 324 394
#     4  11  22  40  63  92 129 175 218 271 334 399
#
# _framework density 21.932725000000001
#
# number of rings (size 3 to 8) (size 9 to 14) (size 15 to 20)
#    0.000    1.333    5.000    0.500    2.333    3.333 
#    0.000    0.000    0.000    9.000    0.000    0.000 
#    0.000    0.000    0.000    0.000    0.000    0.000 
#
# Total GULP energy -267803.212247 kJ/mol
# GULP energy per Si atom -5579.233588 kJ/mol
# Density = 2.188281 g / cm^3
# Si number density = 21.932725 Si / 1000 Ang^3
#
#
#
# Elastic Constant Matrix: (Units=GPa)
#
#
# Indices 1 2 3 4 5 6 
#
# 1 115.4050 60.0204 27.2436 0.0000 0.0000 0.0000
# 2 60.0204 140.9360 0.6449 0.0000 0.0000 0.0000
# 3 27.2436 0.6449 31.0231 0.0000 0.0000 0.0000
# 4 0.0000 0.0000 0.0000 7.0143 0.0000 0.0000
# 5 0.0000 0.0000 0.0000 0.0000 19.6371 0.0000
# 6 0.0000 0.0000 0.0000 0.0000 0.0000 24.1504
#
#
#
# Elastic Compliance Matrix: (Units=1/GPa)
#
#
# Indices 1 2 3 4 5 6 
#
# 1 0.015061 -0.006354 -0.013094 0.000000 0.000000 0.000000
# 2 -0.006354 0.009777 0.005377 0.000000 0.000000 0.000000
# 3 -0.013094 0.005377 0.043621 0.000000 0.000000 0.000000
# 4 0.000000 0.000000 0.000000 0.142566 0.000000 0.000000
# 5 0.000000 0.000000 0.000000 0.000000 0.050924 0.000000
# 6 0.000000 0.000000 0.000000 0.000000 0.000000 0.041407
#
#
# Mechanical properties :
#
#
# Convention : Reuss Voigt Hill
#
# Bulk Modulus (GPa) = 24.80402 51.46466 38.13434
# Shear Modulus (GPa) = 14.49542 23.45737 18.97640
#
# Velocity S-wave (km/s) = 2.57359 3.27389 2.94463
# Velocity P-wave (km/s) = 4.49053 6.14873 5.38385
#
# Compressibility (1/GPa) = 0.04031604
#
# Stress axis : x y z
#
# Youngs Moduli (GPa) = 66.39736 102.28285 22.92480
#
# Poissons Ratio (x) = 0.64991 0.30017
# Poissons Ratio (y) = 0.42189 -0.12326
# Poissons Ratio (z) = 0.86940 -0.54994
#
# Static dielectric constant tensor:
#      x y z
#    x 1.847410 0.000000 0.000000 
#    y 0.000000 1.809770 0.000000 
#    z 0.000000 0.000000 2.032970 
# 
# From -- ./inp_files/35501.got.cif
#   From: 2010.05.17/outbox.cif.g08.bks.cpg/sg70_18_cif.got.tgz:35501.got - 2010.06.03 15:57:51.
