data_PCOD9515095
_publ_section_title
;
Structure prediction by ZEFSAII (Michael W. Deem and Ramdas Pophale) SiO2 
 PCOD9515095
Probable space group: F D D D
;
_chemical_formula_sum "Si O2"
_cell_formula_units_Z 144
_cell_length_a 14.713231
_cell_length_b 18.262160
_cell_length_c 21.470688
_cell_angle_alpha 90.000000
_cell_angle_beta 90.000000
_cell_angle_gamma 90.000000
_cell_volume 5769.074642
_symmetry_space_group_name_H-M "F D D D"
_symmetry_group_IT_number 70
_space_group.IT_coordinate_system_code '2'
_symmetry_cell_setting 'orthorhombic'
loop_
_space_group_symop_operation_xyz
x,y,z
1/4-x,1/4-y,z
x,1/4-y,1/4-z
1/4-x,y,1/4-z
-x,-y,-z
3/4+x,3/4+y,-z
-x,3/4+y,3/4+z
3/4+x,-y,3/4+z
x,1/2+y,1/2+z
1/4-x,3/4-y,1/2+z
x,3/4-y,3/4-z
1/4-x,1/2+y,3/4-z
-x,1/2-y,1/2-z
3/4+x,1/4+y,1/2-z
-x,1/4+y,1/4+z
3/4+x,1/2-y,1/4+z
1/2+x,y,1/2+z
3/4-x,1/4-y,1/2+z
1/2+x,1/4-y,3/4-z
3/4-x,y,3/4-z
1/2-x,-y,1/2-z
1/4+x,3/4+y,1/2-z
1/2-x,3/4+y,1/4+z
1/4+x,-y,1/4+z
1/2+x,1/2+y,z
3/4-x,3/4-y,z
1/2+x,3/4-y,1/4-z
3/4-x,1/2+y,1/4-z
1/2-x,1/2-y,-z
1/4+x,1/4+y,-z
1/2-x,1/4+y,3/4+z
1/4+x,1/2-y,3/4+z
loop_
_atom_site_type_symbol
_atom_site_label
_atom_site_fract_x
_atom_site_fract_y
_atom_site_fract_z
Si Si1 0.228258 0.772869 0.101232
Si Si2 0.875000 0.875000 0.979465
Si Si3 0.446717 0.729258 0.450294
Si Si4 0.016769 0.612256 0.027042
Si Si5 0.748265 0.666172 0.918343
O O1 0.125000 0.764235 0.125000
O O2 0.261657 0.691814 0.082994
O O3 0.266573 0.830838 0.150857
O O4 0.237495 0.818074 0.035927
O O5 0.812776 0.822937 0.022038
O O6 0.935317 0.815906 0.944732
O O7 0.477330 0.693249 0.515172
O O8 0.518616 0.707811 0.396320
O O9 0.351018 0.688902 0.435347
O O10 0.125000 0.625000 0.029668
#
# Coordination Sequence:
#
# PCOD9515095 Si02
#       5
#    32  16  32  32  32
#     4  10  20  40  61  87 134 174 210 285 348 396
#     4  12  26  41  74  96 136 194 233 290 364 418
#     4  10  23  44  65  96 142 176 237 296 347 421
#     4  10  22  37  65  95 127 178 228 276 352 416
#     4  10  22  45  66  95 136 183 230 294 345 420
#
# _framework density 24.960675999999999
#
# number of rings (size 3 to 8) (size 9 to 14) (size 15 to 20)
#    0.000    1.778    4.444    0.667    9.333    2.222 
#    0.000    0.000    0.000    0.000    0.000    0.000 
#    0.000    0.000    0.000    0.000    0.000    0.000 
#
# Total GULP energy -200897.101139 kJ/mol
# GULP energy per Si atom -5580.475032 kJ/mol
# Density = 2.490386 g / cm^3
# Si number density = 24.960676 Si / 1000 Ang^3
#
#
#
# Elastic Constant Matrix: (Units=GPa)
#
#
# Indices 1 2 3 4 5 6 
#
# 1 41.7738 12.4039 10.9366 0.0000 0.0000 0.0000
# 2 12.4039 192.4919 48.2882 0.0000 0.0000 0.0000
# 3 10.9366 48.2882 48.2540 0.0000 0.0000 0.0000
# 4 0.0000 0.0000 0.0000 -6.9308 0.0000 0.0000
# 5 0.0000 0.0000 0.0000 0.0000 27.5906 0.0000
# 6 0.0000 0.0000 0.0000 0.0000 0.0000 26.2008
#
#
#
# Elastic Compliance Matrix: (Units=1/GPa)
#
#
# Indices 1 2 3 4 5 6 
#
# 1 0.025458 -0.000258 -0.005512 0.000000 0.000000 0.000000
# 2 -0.000258 0.006939 -0.006885 0.000000 0.000000 0.000000
# 3 -0.005512 -0.006885 0.028863 0.000000 0.000000 0.000000
# 4 0.000000 0.000000 0.000000 -0.144284 0.000000 0.000000
# 5 0.000000 0.000000 0.000000 0.000000 0.036244 0.000000
# 6 0.000000 0.000000 0.000000 0.000000 0.000000 0.038167
#
#
# Mechanical properties :
#
#
# Convention : Reuss Voigt Hill
#
# Bulk Modulus (GPa) = 27.81654 47.30855 37.56255
# Shear Modulus (GPa) = 174.33265 23.43152 98.88209
#
# Velocity S-wave (km/s) = 8.36627 3.06721 6.30088
# Velocity P-wave (km/s) = 10.22225 5.61587 8.24719
#
# Compressibility (1/GPa) = 0.03594983
#
# Stress axis : x y z
#
# Youngs Moduli (GPa) = 39.28027 144.11526 34.64620
#
# Poissons Ratio (x) = 0.03714 0.19097
# Poissons Ratio (y) = 0.01012 0.23855
# Poissons Ratio (z) = 0.21651 0.99229
#
# Static dielectric constant tensor:
#      x y z
#    x 1.938260 0.000000 0.000000 
#    y 0.000000 2.059200 0.000000 
#    z 0.000000 0.000000 2.056770 
# 
# From -- ./inp_files/52063.got.cif
#   From: 2010.05.17/outbox.cif.g08.bks.cpg/sg70_27_cif.got.tgz:52063.got - 2010.06.03 15:57:51.
