data_PCOD9515134
_publ_section_title
;
Structure prediction by ZEFSAII (Michael W. Deem and Ramdas Pophale) SiO2 
 PCOD9515134
Probable space group: F D D D
;
_chemical_formula_sum "Si O2"
_cell_formula_units_Z 208
_cell_length_a 30.403708
_cell_length_b 16.848189
_cell_length_c 19.257635
_cell_angle_alpha 90.000000
_cell_angle_beta 90.000000
_cell_angle_gamma 90.000000
_cell_volume 9864.673819
_symmetry_space_group_name_H-M "F D D D"
_symmetry_group_IT_number 70
_space_group.IT_coordinate_system_code '2'
_symmetry_cell_setting 'orthorhombic'
loop_
_space_group_symop_operation_xyz
x,y,z
1/4-x,1/4-y,z
x,1/4-y,1/4-z
1/4-x,y,1/4-z
-x,-y,-z
3/4+x,3/4+y,-z
-x,3/4+y,3/4+z
3/4+x,-y,3/4+z
x,1/2+y,1/2+z
1/4-x,3/4-y,1/2+z
x,3/4-y,3/4-z
1/4-x,1/2+y,3/4-z
-x,1/2-y,1/2-z
3/4+x,1/4+y,1/2-z
-x,1/4+y,1/4+z
3/4+x,1/2-y,1/4+z
1/2+x,y,1/2+z
3/4-x,1/4-y,1/2+z
1/2+x,1/4-y,3/4-z
3/4-x,y,3/4-z
1/2-x,-y,1/2-z
1/4+x,3/4+y,1/2-z
1/2-x,3/4+y,1/4+z
1/4+x,-y,1/4+z
1/2+x,1/2+y,z
3/4-x,3/4-y,z
1/2+x,3/4-y,1/4-z
3/4-x,1/2+y,1/4-z
1/2-x,1/2-y,-z
1/4+x,1/4+y,-z
1/2-x,1/4+y,3/4+z
1/4+x,1/2-y,3/4+z
loop_
_atom_site_type_symbol
_atom_site_label
_atom_site_fract_x
_atom_site_fract_y
_atom_site_fract_z
Si Si1 0.125000 0.125000 0.479762
Si Si2 0.234037 0.256333 0.384145
Si Si3 0.351238 0.798679 0.479581
Si Si4 0.432929 0.009859 0.968646
Si Si5 0.317370 0.059492 0.500813
Si Si6 0.551196 0.162160 0.865403
Si Si7 0.025191 0.531022 0.625523
O O1 0.142394 0.199818 0.523788
O O2 0.084685 0.154091 0.430201
O O3 0.206801 0.257835 0.455887
O O4 0.283920 0.270976 0.408785
O O5 0.210452 0.306946 0.323167
O O6 0.230157 0.164287 0.362901
O O7 0.375000 0.875000 0.445881
O O8 0.385628 0.733245 0.506118
O O9 0.329097 0.837123 0.546274
O O10 0.314114 0.763110 0.429378
O O11 0.425406 0.104522 0.965429
O O12 0.290236 0.004390 0.448611
O O13 0.521069 0.239350 0.862248
O O14 0.020386 0.625000 0.625000
#
# Coordination Sequence:
#
# PCOD9515134 Si02
#       7
#    16  32  32  32  32  32  32
#     4  10  22  44  76  99 143 182 226 304 366 416
#     4  10  20  40  69  99 129 181 237 284 342 425
#     4  12  22  40  68  97 140 188 229 284 352 420
#     4  10  22  41  70 103 134 174 238 295 348 419
#     4  12  23  40  70 100 137 189 231 280 358 425
#     4  11  21  42  67 100 136 185 234 287 354 421
#     4  12  25  39  64 102 144 179 231 294 344 418
#
# _framework density 21.085339000000001
#
# number of rings (size 3 to 8) (size 9 to 14) (size 15 to 20)
#    0.000    0.923    5.385    2.308    0.000    1.231 
#    0.000    0.000    3.385    0.923    0.000    0.000 
#    0.000    0.000    0.000    0.000    0.000    0.000 
#
# Total GULP energy -290351.412835 kJ/mol
# GULP energy per Si atom -5583.681016 kJ/mol
# Density = 2.103735 g / cm^3
# Si number density = 21.085339 Si / 1000 Ang^3
#
#
#
# Elastic Constant Matrix: (Units=GPa)
#
#
# Indices 1 2 3 4 5 6 
#
# 1 106.1254 47.3121 47.4327 0.0000 0.0000 0.0000
# 2 47.3121 128.7867 34.9945 0.0000 0.0000 0.0000
# 3 47.4327 34.9945 68.2137 0.0000 0.0000 0.0000
# 4 0.0000 0.0000 0.0000 21.7760 0.0000 0.0000
# 5 0.0000 0.0000 0.0000 0.0000 24.2346 0.0000
# 6 0.0000 0.0000 0.0000 0.0000 0.0000 3.2103
#
#
#
# Elastic Compliance Matrix: (Units=1/GPa)
#
#
# Indices 1 2 3 4 5 6 
#
# 1 0.014624 -0.003032 -0.008614 0.000000 0.000000 0.000000
# 2 -0.003032 0.009651 -0.002843 0.000000 0.000000 0.000000
# 3 -0.008614 -0.002843 0.022108 0.000000 0.000000 0.000000
# 4 0.000000 0.000000 0.000000 0.045922 0.000000 0.000000
# 5 0.000000 0.000000 0.000000 0.000000 0.041263 0.000000
# 6 0.000000 0.000000 0.000000 0.000000 0.000000 0.311494
#
#
# Mechanical properties :
#
#
# Convention : Reuss Voigt Hill
#
# Bulk Modulus (GPa) = 57.45059 62.51161 59.98110
# Shear Modulus (GPa) = 10.42011 21.40328 15.91169
#
# Velocity S-wave (km/s) = 2.22544 3.18949 2.75004
# Velocity P-wave (km/s) = 5.82317 6.57838 6.21226
#
# Compressibility (1/GPa) = 0.01740626
#
# Stress axis : x y z
#
# Youngs Moduli (GPa) = 68.37887 103.61510 45.23296
#
# Poissons Ratio (x) = 0.31416 0.38962
# Poissons Ratio (y) = 0.20732 0.12859
# Poissons Ratio (z) = 0.58899 0.29456
#
# Static dielectric constant tensor:
#      x y z
#    x 1.978090 0.000000 0.000000 
#    y 0.000000 1.730090 0.000000 
#    z 0.000000 0.000000 1.773950 
# 
# From -- ./inp_files/47738.got.cif
#   From: 2010.05.17/outbox.cif.g08.bks.cpg/sg70_24_cif.got.tgz:47738.got - 2010.06.03 15:57:51.
