data_PCOD9515910
_publ_section_title
;
Structure prediction by ZEFSAII (Michael W. Deem and Ramdas Pophale) SiO2 
 PCOD9515910
Probable space group: F D D D
;
_chemical_formula_sum "Si O2"
_cell_formula_units_Z 152
_cell_length_a 13.451254
_cell_length_b 19.004424
_cell_length_c 28.992798
_cell_angle_alpha 90.000000
_cell_angle_beta 90.000000
_cell_angle_gamma 90.000000
_cell_volume 7411.525625
_symmetry_space_group_name_H-M "F D D D"
_symmetry_group_IT_number 70
_space_group.IT_coordinate_system_code '2'
_symmetry_cell_setting 'orthorhombic'
loop_
_space_group_symop_operation_xyz
x,y,z
1/4-x,1/4-y,z
x,1/4-y,1/4-z
1/4-x,y,1/4-z
-x,-y,-z
3/4+x,3/4+y,-z
-x,3/4+y,3/4+z
3/4+x,-y,3/4+z
x,1/2+y,1/2+z
1/4-x,3/4-y,1/2+z
x,3/4-y,3/4-z
1/4-x,1/2+y,3/4-z
-x,1/2-y,1/2-z
3/4+x,1/4+y,1/2-z
-x,1/4+y,1/4+z
3/4+x,1/2-y,1/4+z
1/2+x,y,1/2+z
3/4-x,1/4-y,1/2+z
1/2+x,1/4-y,3/4-z
3/4-x,y,3/4-z
1/2-x,-y,1/2-z
1/4+x,3/4+y,1/2-z
1/2-x,3/4+y,1/4+z
1/4+x,-y,1/4+z
1/2+x,1/2+y,z
3/4-x,3/4-y,z
1/2+x,3/4-y,1/4-z
3/4-x,1/2+y,1/4-z
1/2-x,1/2-y,-z
1/4+x,1/4+y,-z
1/2-x,1/4+y,3/4+z
1/4+x,1/2-y,3/4+z
loop_
_atom_site_type_symbol
_atom_site_label
_atom_site_fract_x
_atom_site_fract_y
_atom_site_fract_z
Si Si1 0.504456 0.425966 0.834105
Si Si2 0.875000 0.375000 0.875000
Si Si3 0.825766 0.076512 0.922646
Si Si4 0.562604 0.818522 0.264002
Si Si5 0.875000 0.875000 0.612563
Si Si6 0.313927 0.525449 0.104059
O O1 0.474209 0.375000 0.875000
O O2 0.434064 0.492393 0.829260
O O3 0.504162 0.382690 0.787099
O O4 0.615052 0.449379 0.852765
O O5 0.792011 0.433254 0.893886
O O6 0.875000 0.100578 0.875000
O O7 0.713904 0.101994 0.920327
O O8 0.883279 0.095905 0.968352
O O9 0.500000 0.750000 0.250000
O O10 0.636084 0.796424 0.305579
O O11 0.829770 0.809373 0.641653
#
# Coordination Sequence:
#
# PCOD9515910 Si02
#       6
#    32   8  32  32  16  32
#     4   9  19  42  61  87 127 169 217 274 325 408
#     4  12  20  42  76 104 130 190 228 288 346 428
#     4  11  24  40  62  93 131 171 217 272 351 401
#     4  11  22  39  64  94 128 171 229 281 335 410
#     4  10  24  45  62  98 136 176 214 292 339 416
#     4  10  22  42  68  96 135 174 234 276 345 406
#
# _framework density 20.508597999999999
#
# number of rings (size 3 to 8) (size 9 to 14) (size 15 to 20)
#    0.000    1.684    3.158    3.789    1.474    7.158 
#    0.000    2.105    0.000    0.000    0.000    0.000 
#    0.000    0.000    0.000    0.000    0.000    0.000 
#
# Total GULP energy -211643.414375 kJ/mol
# GULP energy per Si atom -5569.563536 kJ/mol
# Density = 2.046192 g / cm^3
# Si number density = 20.508598 Si / 1000 Ang^3
#
#
#
# Elastic Constant Matrix: (Units=GPa)
#
#
# Indices 1 2 3 4 5 6 
#
# 1 115.0639 24.4991 43.8622 0.0000 0.0000 0.0000
# 2 24.4991 86.4682 24.9529 0.0000 0.0000 0.0000
# 3 43.8622 24.9529 126.3662 0.0000 0.0000 0.0000
# 4 0.0000 0.0000 0.0000 28.3091 0.0000 0.0000
# 5 0.0000 0.0000 0.0000 0.0000 -8.6203 0.0000
# 6 0.0000 0.0000 0.0000 0.0000 0.0000 11.2170
#
#
#
# Elastic Compliance Matrix: (Units=1/GPa)
#
#
# Indices 1 2 3 4 5 6 
#
# 1 0.010335 -0.002007 -0.003191 0.000000 0.000000 0.000000
# 2 -0.002007 0.012654 -0.001802 0.000000 0.000000 0.000000
# 3 -0.003191 -0.001802 0.009377 0.000000 0.000000 0.000000
# 4 0.000000 0.000000 0.000000 0.035324 0.000000 0.000000
# 5 0.000000 0.000000 0.000000 0.000000 -0.116005 0.000000
# 6 0.000000 0.000000 0.000000 0.000000 0.000000 0.089150
#
#
# Mechanical properties :
#
#
# Convention : Reuss Voigt Hill
#
# Bulk Modulus (GPa) = 54.45123 57.16965 55.81044
# Shear Modulus (GPa) = 82.02530 21.82009 51.92269
#
# Velocity S-wave (km/s) = 6.33107 3.26536 5.03711
# Velocity P-wave (km/s) = 8.94714 6.49255 7.81679
#
# Compressibility (1/GPa) = 0.01836506
#
# Stress axis : x y z
#
# Youngs Moduli (GPa) = 96.76296 79.02843 106.64552
#
# Poissons Ratio (x) = 0.15863 0.34028
# Poissons Ratio (y) = 0.19423 0.19217
# Poissons Ratio (z) = 0.30875 0.14240
#
# Static dielectric constant tensor:
#      x y z
#    x 1.768570 0.000000 0.000000 
#    y 0.000000 1.823350 0.000000 
#    z 0.000000 0.000000 1.687050 
# 
# From -- ./inp_files/29808.got.cif
#   From: 2010.05.17/outbox.cif.g08.bks.cpg/sg70_15_cif.got.tgz:29808.got - 2010.06.03 15:57:51.
