data_PCOD9515130
_publ_section_title
;
Structure prediction by ZEFSAII (Michael W. Deem and Ramdas Pophale) SiO2 
 PCOD9515130
Probable space group: F D D D
;
_chemical_formula_sum "Si O2"
_cell_formula_units_Z 192
_cell_length_a 25.055993
_cell_length_b 10.825661
_cell_length_c 32.283875
_cell_angle_alpha 90.000000
_cell_angle_beta 90.000000
_cell_angle_gamma 90.000000
_cell_volume 8756.926396
_symmetry_space_group_name_H-M "F D D D"
_symmetry_group_IT_number 70
_space_group.IT_coordinate_system_code '2'
_symmetry_cell_setting 'orthorhombic'
loop_
_space_group_symop_operation_xyz
x,y,z
1/4-x,1/4-y,z
x,1/4-y,1/4-z
1/4-x,y,1/4-z
-x,-y,-z
3/4+x,3/4+y,-z
-x,3/4+y,3/4+z
3/4+x,-y,3/4+z
x,1/2+y,1/2+z
1/4-x,3/4-y,1/2+z
x,3/4-y,3/4-z
1/4-x,1/2+y,3/4-z
-x,1/2-y,1/2-z
3/4+x,1/4+y,1/2-z
-x,1/4+y,1/4+z
3/4+x,1/2-y,1/4+z
1/2+x,y,1/2+z
3/4-x,1/4-y,1/2+z
1/2+x,1/4-y,3/4-z
3/4-x,y,3/4-z
1/2-x,-y,1/2-z
1/4+x,3/4+y,1/2-z
1/2-x,3/4+y,1/4+z
1/4+x,-y,1/4+z
1/2+x,1/2+y,z
3/4-x,3/4-y,z
1/2+x,3/4-y,1/4-z
3/4-x,1/2+y,1/4-z
1/2-x,1/2-y,-z
1/4+x,1/4+y,-z
1/2-x,1/4+y,3/4+z
1/4+x,1/2-y,3/4+z
loop_
_atom_site_type_symbol
_atom_site_label
_atom_site_fract_x
_atom_site_fract_y
_atom_site_fract_z
Si Si1 0.220026 0.118253 0.768728
Si Si2 0.841581 0.489365 0.652523
Si Si3 0.433226 0.566092 0.816576
Si Si4 0.625000 0.625000 0.125000
Si Si5 0.247065 0.130771 0.359397
Si Si6 0.670383 0.966635 0.051471
Si Si7 0.816339 0.125000 0.625000
Si Si8 0.375000 0.375000 0.375000
O O1 0.184976 0.061427 0.805785
O O2 0.267662 0.206171 0.785783
O O3 0.185258 0.194132 0.736064
O O4 0.250000 0.000000 0.750000
O O5 0.875000 0.375000 0.635079
O O6 0.795089 0.491607 0.617625
O O7 0.888179 0.590086 0.659499
O O8 0.410418 0.455126 0.843837
O O9 0.461840 0.645633 0.852346
O O10 0.383155 0.635704 0.795873
O O11 0.278697 0.137001 0.316433
O O12 0.219619 0.994839 0.365265
O O13 0.659110 0.047008 0.092396
#
# Coordination Sequence:
#
# PCOD9515130 Si02
#       8
#    32  32  32   8  32  32  16   8
#     4  11  27  42  65 101 149 185 228 299 384 421
#     4   9  22  40  61  93 135 178 226 282 351 424
#     4  11  23  45  70 106 138 188 236 301 356 431
#     4  12  20  44  84  98 146 182 250 302 352 422
#     4  10  20  40  69 106 129 181 249 287 350 423
#     4  12  24  42  70 104 143 180 242 306 349 435
#     4  10  21  41  71  98 139 182 237 299 346 436
#     4  12  22  38  68 102 130 186 244 292 344 410
#
# _framework density 21.925501000000001
#
# number of rings (size 3 to 8) (size 9 to 14) (size 15 to 20)
#    0.000    1.333    3.333    1.500    8.167    0.000 
#    0.000    2.500    0.000    0.000    0.000    0.000 
#    0.000    0.000    0.000    0.000    0.000    0.000 
#
# Total GULP energy -267453.255563 kJ/mol
# GULP energy per Si atom -5571.942824 kJ/mol
# Density = 2.187560 g / cm^3
# Si number density = 21.925501 Si / 1000 Ang^3
#
#
#
# Elastic Constant Matrix: (Units=GPa)
#
#
# Indices 1 2 3 4 5 6 
#
# 1 144.5713 52.6444 57.6763 0.0000 0.0000 0.0000
# 2 52.6444 78.5035 24.9899 0.0000 0.0000 0.0000
# 3 57.6763 24.9899 85.3112 0.0000 0.0000 0.0000
# 4 0.0000 0.0000 0.0000 26.4987 0.0000 0.0000
# 5 0.0000 0.0000 0.0000 0.0000 35.7602 0.0000
# 6 0.0000 0.0000 0.0000 0.0000 0.0000 68.8013
#
#
#
# Elastic Compliance Matrix: (Units=1/GPa)
#
#
# Indices 1 2 3 4 5 6 
#
# 1 0.011412 -0.005731 -0.006037 0.000000 0.000000 0.000000
# 2 -0.005731 0.016927 -0.001083 0.000000 0.000000 0.000000
# 3 -0.006037 -0.001083 0.016120 0.000000 0.000000 0.000000
# 4 0.000000 0.000000 0.000000 0.037738 0.000000 0.000000
# 5 0.000000 0.000000 0.000000 0.000000 0.027964 0.000000
# 6 0.000000 0.000000 0.000000 0.000000 0.000000 0.014535
#
#
# Mechanical properties :
#
#
# Convention : Reuss Voigt Hill
#
# Bulk Modulus (GPa) = 53.31529 64.33414 58.82472
# Shear Modulus (GPa) = 31.91808 37.75038 34.83423
#
# Velocity S-wave (km/s) = 3.81957 4.15391 3.99024
# Velocity P-wave (km/s) = 6.61978 7.23964 6.93664
#
# Compressibility (1/GPa) = 0.01875635
#
# Stress axis : x y z
#
# Youngs Moduli (GPa) = 87.62409 59.07826 62.03340
#
# Poissons Ratio (x) = 0.33861 0.37447
# Poissons Ratio (y) = 0.50222 0.06721
# Poissons Ratio (z) = 0.52896 0.06400
#
# Static dielectric constant tensor:
#      x y z
#    x 2.650850 0.000000 0.000000 
#    y 0.000000 2.026790 0.000000 
#    z 0.000000 0.000000 1.818390 
# 
# From -- ./inp_files/68445.got.cif
#   From: 2010.05.17/outbox.cif.g08.bks.cpg/sg70_35_cif.got.tgz:68445.got - 2010.06.03 15:57:51.
