data_PCOD9515754
_publ_section_title
;
Structure prediction by ZEFSAII (Michael W. Deem and Ramdas Pophale) SiO2 
 PCOD9515754
Probable space group: F D D D
;
_chemical_formula_sum "Si O2"
_cell_formula_units_Z 160
_cell_length_a 12.985434
_cell_length_b 18.621144
_cell_length_c 25.648933
_cell_angle_alpha 90.000000
_cell_angle_beta 90.000000
_cell_angle_gamma 90.000000
_cell_volume 6202.005270
_symmetry_space_group_name_H-M "F D D D"
_symmetry_group_IT_number 70
_space_group.IT_coordinate_system_code '2'
_symmetry_cell_setting 'orthorhombic'
loop_
_space_group_symop_operation_xyz
x,y,z
1/4-x,1/4-y,z
x,1/4-y,1/4-z
1/4-x,y,1/4-z
-x,-y,-z
3/4+x,3/4+y,-z
-x,3/4+y,3/4+z
3/4+x,-y,3/4+z
x,1/2+y,1/2+z
1/4-x,3/4-y,1/2+z
x,3/4-y,3/4-z
1/4-x,1/2+y,3/4-z
-x,1/2-y,1/2-z
3/4+x,1/4+y,1/2-z
-x,1/4+y,1/4+z
3/4+x,1/2-y,1/4+z
1/2+x,y,1/2+z
3/4-x,1/4-y,1/2+z
1/2+x,1/4-y,3/4-z
3/4-x,y,3/4-z
1/2-x,-y,1/2-z
1/4+x,3/4+y,1/2-z
1/2-x,3/4+y,1/4+z
1/4+x,-y,1/4+z
1/2+x,1/2+y,z
3/4-x,3/4-y,z
1/2+x,3/4-y,1/4-z
3/4-x,1/2+y,1/4-z
1/2-x,1/2-y,-z
1/4+x,1/4+y,-z
1/2-x,1/4+y,3/4+z
1/4+x,1/2-y,3/4+z
loop_
_atom_site_type_symbol
_atom_site_label
_atom_site_fract_x
_atom_site_fract_y
_atom_site_fract_z
Si Si1 0.906998 0.482444 0.709040
Si Si2 0.885068 0.157020 0.433300
Si Si3 0.004141 0.641587 0.722799
Si Si4 0.897464 0.761372 0.432153
Si Si5 0.355949 0.545828 0.104641
O O1 0.004583 0.431745 0.702873
O O2 0.948321 0.564169 0.716229
O O3 0.851713 0.460757 0.763247
O O4 0.853501 0.490085 0.652772
O O5 0.875000 0.187249 0.375000
O O6 0.794270 0.174136 0.474283
O O7 0.882909 0.071267 0.429303
O O8 0.125000 0.625000 0.724173
O O9 0.964072 0.689265 0.674203
O O10 0.875000 0.793026 0.375000
O O11 0.020956 0.769431 0.436124
O O12 0.325905 0.625000 0.125000
#
# Coordination Sequence:
#
# PCOD9515754 Si02
#       5
#    32  32  32  32  32
#     4  10  22  39  66  96 134 179 222 288 340 408
#     4  10  22  39  62  95 137 179 223 280 348 409
#     4  10  22  39  64  99 136 179 233 282 346 411
#     4  10  22  44  68  96 137 180 230 283 343 415
#     4  10  22  41  69 101 137 178 232 284 345 411
#
# _framework density 25.798107999999999
#
# number of rings (size 3 to 8) (size 9 to 14) (size 15 to 20)
#    0.000    2.000    2.000    0.000    2.800    8.000 
#    0.000    3.000    8.800    0.000    0.000    0.000 
#    0.000    0.000    0.000    0.000    0.000    0.000 
#
# Total GULP energy -223677.389637 kJ/mol
# GULP energy per Si atom -5591.934741 kJ/mol
# Density = 2.573939 g / cm^3
# Si number density = 25.798108 Si / 1000 Ang^3
#
#
#
# Elastic Constant Matrix: (Units=GPa)
#
#
# Indices 1 2 3 4 5 6 
#
# 1 104.4666 17.4544 52.4351 0.0000 0.0000 0.0000
# 2 17.4544 95.3049 20.2782 0.0000 0.0000 0.0000
# 3 52.4351 20.2782 213.0583 0.0000 0.0000 0.0000
# 4 0.0000 0.0000 0.0000 16.9309 0.0000 0.0000
# 5 0.0000 0.0000 0.0000 0.0000 33.5231 0.0000
# 6 0.0000 0.0000 0.0000 0.0000 0.0000 40.3917
#
#
#
# Elastic Compliance Matrix: (Units=1/GPa)
#
#
# Indices 1 2 3 4 5 6 
#
# 1 0.011124 -0.001485 -0.002596 0.000000 0.000000 0.000000
# 2 -0.001485 0.010908 -0.000673 0.000000 0.000000 0.000000
# 3 -0.002596 -0.000673 0.005397 0.000000 0.000000 0.000000
# 4 0.000000 0.000000 0.000000 0.059064 0.000000 0.000000
# 5 0.000000 0.000000 0.000000 0.000000 0.029830 0.000000
# 6 0.000000 0.000000 0.000000 0.000000 0.000000 0.024758
#
#
# Mechanical properties :
#
#
# Convention : Reuss Voigt Hill
#
# Bulk Modulus (GPa) = 55.80276 65.90724 60.85500
# Shear Modulus (GPa) = 31.93658 39.67996 35.80827
#
# Velocity S-wave (km/s) = 3.52226 3.92611 3.72965
# Velocity P-wave (km/s) = 6.18217 6.79376 6.49517
#
# Compressibility (1/GPa) = 0.01792026
#
# Stress axis : x y z
#
# Youngs Moduli (GPa) = 89.89830 91.67832 185.30371
#
# Poissons Ratio (x) = 0.13612 0.48110
# Poissons Ratio (y) = 0.13348 0.12466
# Poissons Ratio (z) = 0.23340 0.06168
#
# Static dielectric constant tensor:
#      x y z
#    x 2.031400 0.000000 0.000000 
#    y 0.000000 1.972880 0.000000 
#    z 0.000000 0.000000 2.109630 
# 
# From -- ./inp_files/51130.got.cif
#   From: 2010.05.17/outbox.cif.g08.bks.cpg/sg70_26_cif.got.tgz:51130.got - 2010.06.03 15:57:51.
