data_PCOD9515633
_publ_section_title
;
Structure prediction by ZEFSAII (Michael W. Deem and Ramdas Pophale) SiO2 
 PCOD9515633
Probable space group: F D D D
;
_chemical_formula_sum "Si O2"
_cell_formula_units_Z 104
_cell_length_a 28.824191
_cell_length_b 7.560476
_cell_length_c 19.255414
_cell_angle_alpha 90.000000
_cell_angle_beta 90.000000
_cell_angle_gamma 90.000000
_cell_volume 4196.228476
_symmetry_space_group_name_H-M "F D D D"
_symmetry_group_IT_number 70
_space_group.IT_coordinate_system_code '2'
_symmetry_cell_setting 'orthorhombic'
loop_
_space_group_symop_operation_xyz
x,y,z
1/4-x,1/4-y,z
x,1/4-y,1/4-z
1/4-x,y,1/4-z
-x,-y,-z
3/4+x,3/4+y,-z
-x,3/4+y,3/4+z
3/4+x,-y,3/4+z
x,1/2+y,1/2+z
1/4-x,3/4-y,1/2+z
x,3/4-y,3/4-z
1/4-x,1/2+y,3/4-z
-x,1/2-y,1/2-z
3/4+x,1/4+y,1/2-z
-x,1/4+y,1/4+z
3/4+x,1/2-y,1/4+z
1/2+x,y,1/2+z
3/4-x,1/4-y,1/2+z
1/2+x,1/4-y,3/4-z
3/4-x,y,3/4-z
1/2-x,-y,1/2-z
1/4+x,3/4+y,1/2-z
1/2-x,3/4+y,1/4+z
1/4+x,-y,1/4+z
1/2+x,1/2+y,z
3/4-x,3/4-y,z
1/2+x,3/4-y,1/4-z
3/4-x,1/2+y,1/4-z
1/2-x,1/2-y,-z
1/4+x,1/4+y,-z
1/2-x,1/4+y,3/4+z
1/4+x,1/2-y,3/4+z
loop_
_atom_site_type_symbol
_atom_site_label
_atom_site_fract_x
_atom_site_fract_y
_atom_site_fract_z
Si Si1 0.686597 0.448900 0.506111
Si Si2 0.352477 0.682258 0.193600
Si Si3 0.716848 0.557408 0.045837
Si Si4 0.625000 0.125000 0.125000
O O1 0.645817 0.448989 0.450403
O O2 0.702427 0.243986 0.511232
O O3 0.734777 0.527949 0.479150
O O4 0.660924 0.515005 0.575727
O O5 0.324735 0.625000 0.125000
O O6 0.323269 0.680624 0.265235
O O7 0.375000 0.875000 0.187026
O O8 0.719071 0.625000 0.125000
#
# Coordination Sequence:
#
# PCOD9515633 Si02
#       4
#    32  32  32   8
#     4  10  23  40  61  96 135 172 222 289 331 412
#     4  10  22  40  67  97 134 179 226 279 344 408
#     4  10  21  43  68  90 130 182 231 271 345 415
#     4  12  24  40  62 104 140 176 224 288 348 392
#
# _framework density 24.78416
#
# number of rings (size 3 to 8) (size 9 to 14) (size 15 to 20)
#    0.000    1.846    0.000    2.769    4.308    4.308 
#    0.000    3.077    0.000    0.000    0.000    0.000 
#    0.000    0.000    0.000    0.000    0.000    0.000 
#
# Total GULP energy -144876.382180 kJ/mol
# GULP energy per Si atom -5572.168545 kJ/mol
# Density = 2.472775 g / cm^3
# Si number density = 24.784160 Si / 1000 Ang^3
#
#
#
# Elastic Constant Matrix: (Units=GPa)
#
#
# Indices 1 2 3 4 5 6 
#
# 1 183.8077 46.6809 89.0229 0.0000 0.0000 0.0000
# 2 46.6809 52.1343 8.5319 0.0000 -0.0002 0.0001
# 3 89.0229 8.5319 152.8104 0.0000 0.0000 0.0000
# 4 0.0000 0.0000 0.0000 37.5828 -0.0001 0.0000
# 5 0.0000 -0.0002 0.0000 -0.0001 150.3063 0.0000
# 6 0.0000 0.0001 0.0000 0.0000 0.0000 10.8440
#
#
#
# Elastic Compliance Matrix: (Units=1/GPa)
#
#
# Indices 1 2 3 4 5 6 
#
# 1 0.010176 -0.008217 -0.005470 0.000000 0.000000 0.000000
# 2 -0.008217 0.025993 0.003336 0.000000 0.000000 0.000000
# 3 -0.005470 0.003336 0.009544 0.000000 0.000000 0.000000
# 4 0.000000 0.000000 0.000000 0.026608 0.000000 0.000000
# 5 0.000000 0.000000 0.000000 0.000000 0.006653 0.000000
# 6 0.000000 0.000000 0.000000 0.000000 0.000000 0.092217
#
#
# Mechanical properties :
#
#
# Convention : Reuss Voigt Hill
#
# Bulk Modulus (GPa) = 39.98152 75.24712 57.61432
# Shear Modulus (GPa) = 24.97130 56.04773 40.50952
#
# Velocity S-wave (km/s) = 3.17764 4.76061 4.04727
# Velocity P-wave (km/s) = 5.44335 7.78748 6.71844
#
# Compressibility (1/GPa) = 0.02501156
#
# Stress axis : x y z
#
# Youngs Moduli (GPa) = 98.26703 38.47248 104.77466
#
# Poissons Ratio (x) = 0.31612 0.57308
# Poissons Ratio (y) = 0.80744 -0.34948
# Poissons Ratio (z) = 0.53749 -0.12833
#
# Static dielectric constant tensor:
#      x y z
#    x 2.042100 0.000000 0.000000 
#    y 0.000000 1.980480 0.000000 
#    z 0.000000 0.000000 2.030070 
# 
# From -- ./inp_files/8171.got.cif
#   From: 2010.05.17/outbox.cif.g08.bks.cpg/sg70_5_cif.got.tgz:8171.got - 2010.06.03 15:57:51.
