data_PCOD9515602
_publ_section_title
;
Structure prediction by ZEFSAII (Michael W. Deem and Ramdas Pophale) SiO2 
 PCOD9515602
Probable space group: F D D D
;
_chemical_formula_sum "Si O2"
_cell_formula_units_Z 144
_cell_length_a 24.269679
_cell_length_b 10.535200
_cell_length_c 23.174022
_cell_angle_alpha 90.000000
_cell_angle_beta 90.000000
_cell_angle_gamma 90.000000
_cell_volume 5925.271186
_symmetry_space_group_name_H-M "F D D D"
_symmetry_group_IT_number 70
_space_group.IT_coordinate_system_code '2'
_symmetry_cell_setting 'orthorhombic'
loop_
_space_group_symop_operation_xyz
x,y,z
1/4-x,1/4-y,z
x,1/4-y,1/4-z
1/4-x,y,1/4-z
-x,-y,-z
3/4+x,3/4+y,-z
-x,3/4+y,3/4+z
3/4+x,-y,3/4+z
x,1/2+y,1/2+z
1/4-x,3/4-y,1/2+z
x,3/4-y,3/4-z
1/4-x,1/2+y,3/4-z
-x,1/2-y,1/2-z
3/4+x,1/4+y,1/2-z
-x,1/4+y,1/4+z
3/4+x,1/2-y,1/4+z
1/2+x,y,1/2+z
3/4-x,1/4-y,1/2+z
1/2+x,1/4-y,3/4-z
3/4-x,y,3/4-z
1/2-x,-y,1/2-z
1/4+x,3/4+y,1/2-z
1/2-x,3/4+y,1/4+z
1/4+x,-y,1/4+z
1/2+x,1/2+y,z
3/4-x,3/4-y,z
1/2+x,3/4-y,1/4-z
3/4-x,1/2+y,1/4-z
1/2-x,1/2-y,-z
1/4+x,1/4+y,-z
1/2-x,1/4+y,3/4+z
1/4+x,1/2-y,3/4+z
loop_
_atom_site_type_symbol
_atom_site_label
_atom_site_fract_x
_atom_site_fract_y
_atom_site_fract_z
Si Si1 0.170427 0.021564 0.549196
Si Si2 0.669037 0.021586 0.723113
Si Si3 0.466609 0.420411 0.549793
Si Si4 0.529893 0.754843 0.344454
Si Si5 0.270659 0.125000 0.625000
O O1 0.125000 0.125000 0.568218
O O2 0.182868 0.068592 0.484974
O O3 0.226817 0.047124 0.584859
O O4 0.153790 0.874213 0.544661
O O5 0.625000 0.125000 0.705224
O O6 0.681532 0.040108 0.791629
O O7 0.725492 0.047939 0.689665
O O8 0.500000 0.500000 0.500000
O O9 0.489412 0.338225 0.603634
O O10 0.441975 0.536987 0.585434
O O11 0.556439 0.875000 0.375000
#
# Coordination Sequence:
#
# PCOD9515602 Si02
#       5
#    32  32  32  32  16
#     4  11  23  42  66 104 144 178 240 309 356 439
#     4  11  26  45  73 108 144 197 253 302 379 450
#     4  10  22  40  71 100 135 191 240 290 377 447
#     4  11  23  47  74  97 150 194 241 309 378 447
#     4  10  21  42  68  98 138 190 232 294 374 434
#
# _framework density 24.302685
#
# number of rings (size 3 to 8) (size 9 to 14) (size 15 to 20)
#    0.000    1.333    4.444    0.333    0.000    6.667 
#    4.000    0.000    0.000    0.000    0.000    0.000 
#    0.000    0.000    0.000    0.000    0.000    0.000 
#
# Total GULP energy -200519.274929 kJ/mol
# GULP energy per Si atom -5569.979859 kJ/mol
# Density = 2.424737 g / cm^3
# Si number density = 24.302685 Si / 1000 Ang^3
#
#
#
# Elastic Constant Matrix: (Units=GPa)
#
#
# Indices 1 2 3 4 5 6 
#
# 1 50.2469 30.0703 8.8331 0.0000 0.0000 0.0000
# 2 30.0703 159.3424 41.8767 0.0000 0.0000 0.0000
# 3 8.8331 41.8767 151.3876 0.0000 0.0000 0.0000
# 4 0.0000 0.0000 0.0000 -8.6463 0.0000 0.0000
# 5 0.0000 0.0000 0.0000 0.0000 7.4059 0.0000
# 6 0.0000 0.0000 0.0000 0.0000 0.0000 -6.2605
#
#
#
# Elastic Compliance Matrix: (Units=1/GPa)
#
#
# Indices 1 2 3 4 5 6 
#
# 1 0.022439 -0.004195 -0.000149 0.000000 0.000000 0.000000
# 2 -0.004195 0.007552 -0.001844 0.000000 0.000000 0.000000
# 3 -0.000149 -0.001844 0.007124 0.000000 0.000000 0.000000
# 4 0.000000 0.000000 0.000000 -0.115657 0.000000 0.000000
# 5 0.000000 0.000000 0.000000 0.000000 0.135027 0.000000
# 6 0.000000 0.000000 0.000000 0.000000 0.000000 -0.159731
#
#
# Mechanical properties :
#
#
# Convention : Reuss Voigt Hill
#
# Bulk Modulus (GPa) = 40.42300 58.05968 49.24134
# Shear Modulus (GPa) = -60.51595 17.17962 -21.66816
#
# Velocity S-wave (km/s) = -4.99550 2.66165 -2.98920
# Velocity P-wave (km/s) = 4.07481 5.77823 2.89688
#
# Compressibility (1/GPa) = 0.02473839
#
# Stress axis : x y z
#
# Youngs Moduli (GPa) = 44.56608 132.41124 140.36262
#
# Poissons Ratio (x) = 0.55552 0.02087
# Poissons Ratio (y) = 0.18697 0.25887
# Poissons Ratio (z) = 0.00663 0.24421
#
# Static dielectric constant tensor:
#      x y z
#    x 1.991710 0.000000 0.000000 
#    y 0.000000 2.079920 0.000000 
#    z 0.000000 0.000000 1.863570 
# 
# From -- ./inp_files/54193.got.cif
#   From: 2010.05.17/outbox.cif.g08.bks.cpg/sg70_28_cif.got.tgz:54193.got - 2010.06.03 15:57:51.
