data_PCOD9515102
_publ_section_title
;
Structure prediction by ZEFSAII (Michael W. Deem and Ramdas Pophale) SiO2 
 PCOD9515102
Probable space group: F D D D
;
_chemical_formula_sum "Si O2"
_cell_formula_units_Z 192
_cell_length_a 21.914729
_cell_length_b 13.875695
_cell_length_c 25.275812
_cell_angle_alpha 90.000000
_cell_angle_beta 90.000000
_cell_angle_gamma 90.000000
_cell_volume 7685.921881
_symmetry_space_group_name_H-M "F D D D"
_symmetry_group_IT_number 70
_space_group.IT_coordinate_system_code '2'
_symmetry_cell_setting 'orthorhombic'
loop_
_space_group_symop_operation_xyz
x,y,z
1/4-x,1/4-y,z
x,1/4-y,1/4-z
1/4-x,y,1/4-z
-x,-y,-z
3/4+x,3/4+y,-z
-x,3/4+y,3/4+z
3/4+x,-y,3/4+z
x,1/2+y,1/2+z
1/4-x,3/4-y,1/2+z
x,3/4-y,3/4-z
1/4-x,1/2+y,3/4-z
-x,1/2-y,1/2-z
3/4+x,1/4+y,1/2-z
-x,1/4+y,1/4+z
3/4+x,1/2-y,1/4+z
1/2+x,y,1/2+z
3/4-x,1/4-y,1/2+z
1/2+x,1/4-y,3/4-z
3/4-x,y,3/4-z
1/2-x,-y,1/2-z
1/4+x,3/4+y,1/2-z
1/2-x,3/4+y,1/4+z
1/4+x,-y,1/4+z
1/2+x,1/2+y,z
3/4-x,3/4-y,z
1/2+x,3/4-y,1/4-z
3/4-x,1/2+y,1/4-z
1/2-x,1/2-y,-z
1/4+x,1/4+y,-z
1/2-x,1/4+y,3/4+z
1/4+x,1/2-y,3/4+z
loop_
_atom_site_type_symbol
_atom_site_label
_atom_site_fract_x
_atom_site_fract_y
_atom_site_fract_z
Si Si1 0.018276 0.415624 0.753650
Si Si2 0.625000 0.125000 0.625000
Si Si3 0.261051 0.809236 0.152427
Si Si4 0.476185 0.494136 0.939682
Si Si5 0.423508 0.125000 0.625000
Si Si6 0.169073 0.555024 0.924878
Si Si7 0.125000 0.625000 0.125000
Si Si8 0.316573 0.752054 0.946778
O O1 0.033092 0.487808 0.801270
O O2 0.070164 0.349811 0.726452
O O3 0.980883 0.469216 0.706886
O O4 0.971491 0.332877 0.772284
O O5 0.582150 0.187486 0.665216
O O6 0.312339 0.873213 0.122861
O O7 0.226839 0.755823 0.105219
O O8 0.218744 0.894147 0.174625
O O9 0.532503 0.441510 0.909993
O O10 0.500000 0.500000 0.000000
O O11 0.388254 0.204393 0.591082
O O12 0.125000 0.625000 0.957206
O O13 0.128172 0.542499 0.078017
#
# Coordination Sequence:
#
# PCOD9515102 Si02
#       8
#    32   8  32  32  16  32   8  32
#     4  10  20  40  62  90 124 175 218 260 350 412
#     4  10  24  46  72 116 150 196 260 304 392 484
#     4  10  20  41  66  87 134 174 216 293 352 410
#     4  10  21  42  73 100 142 188 239 310 377 445
#     4   9  20  43  61  86 142 178 219 307 357 418
#     4  10  22  39  62  94 125 171 224 276 344 421
#     4  12  20  38  58  92 140 162 234 280 334 400
#     4  10  22  36  60  89 128 173 211 272 336 400
#
# _framework density 24.980737000000001
#
# number of rings (size 3 to 8) (size 9 to 14) (size 15 to 20)
#    0.000    2.000    1.667    1.000    1.167    2.000 
#   15.000    1.667    0.000    0.000    0.000    0.000 
#    0.000    0.000    0.000    0.000    0.000    0.000 
#
# Total GULP energy -267240.259620 kJ/mol
# GULP energy per Si atom -5567.505409 kJ/mol
# Density = 2.492388 g / cm^3
# Si number density = 24.980737 Si / 1000 Ang^3
#
#
#
# Elastic Constant Matrix: (Units=GPa)
#
#
# Indices 1 2 3 4 5 6 
#
# 1 49.1257 16.5204 26.9997 0.0000 0.0000 0.0000
# 2 16.5204 126.9400 61.8382 0.0000 0.0000 0.0000
# 3 26.9997 61.8382 147.5075 0.0000 0.0000 0.0000
# 4 0.0000 0.0000 0.0000 45.1210 0.0000 0.0000
# 5 0.0000 0.0000 0.0000 0.0000 35.8812 0.0000
# 6 0.0000 0.0000 0.0000 0.0000 0.0000 16.6472
#
#
#
# Elastic Compliance Matrix: (Units=1/GPa)
#
#
# Indices 1 2 3 4 5 6 
#
# 1 0.022771 -0.001173 -0.003676 0.000000 0.000000 0.000000
# 2 -0.001173 0.009960 -0.003961 0.000000 0.000000 0.000000
# 3 -0.003676 -0.003961 0.009113 0.000000 0.000000 0.000000
# 4 0.000000 0.000000 0.000000 0.022163 0.000000 0.000000
# 5 0.000000 0.000000 0.000000 0.000000 0.027870 0.000000
# 6 0.000000 0.000000 0.000000 0.000000 0.000000 0.060070
#
#
# Mechanical properties :
#
#
# Convention : Reuss Voigt Hill
#
# Bulk Modulus (GPa) = 41.28149 59.36553 50.32351
# Shear Modulus (GPa) = 28.14685 34.07754 31.11219
#
# Velocity S-wave (km/s) = 3.36034 3.69745 3.53292
# Velocity P-wave (km/s) = 5.62290 6.48416 6.06883
#
# Compressibility (1/GPa) = 0.02422393
#
# Stress axis : x y z
#
# Youngs Moduli (GPa) = 43.91584 100.40379 109.73737
#
# Poissons Ratio (x) = 0.11773 0.40344
# Poissons Ratio (y) = 0.05149 0.43464
# Poissons Ratio (z) = 0.16145 0.39767
#
# Static dielectric constant tensor:
#      x y z
#    x 2.154700 0.000000 0.000000 
#    y 0.000000 1.993080 0.000000 
#    z 0.000000 0.000000 2.203720 
# 
# From -- ./inp_files/30061.got.cif
#   From: 2010.05.17/outbox.cif.g08.bks.cpg/sg70_16_cif.got.tgz:30061.got - 2010.06.03 15:57:51.
