data_PCOD9515522
_publ_section_title
;
Structure prediction by ZEFSAII (Michael W. Deem and Ramdas Pophale) SiO2 
 PCOD9515522
Probable space group: F D D D
;
_chemical_formula_sum "Si O2"
_cell_formula_units_Z 112
_cell_length_a 10.923609
_cell_length_b 16.687519
_cell_length_c 25.141227
_cell_angle_alpha 90.000000
_cell_angle_beta 90.000000
_cell_angle_gamma 90.000000
_cell_volume 4582.942296
_symmetry_space_group_name_H-M "F D D D"
_symmetry_group_IT_number 70
_space_group.IT_coordinate_system_code '2'
_symmetry_cell_setting 'orthorhombic'
loop_
_space_group_symop_operation_xyz
x,y,z
1/4-x,1/4-y,z
x,1/4-y,1/4-z
1/4-x,y,1/4-z
-x,-y,-z
3/4+x,3/4+y,-z
-x,3/4+y,3/4+z
3/4+x,-y,3/4+z
x,1/2+y,1/2+z
1/4-x,3/4-y,1/2+z
x,3/4-y,3/4-z
1/4-x,1/2+y,3/4-z
-x,1/2-y,1/2-z
3/4+x,1/4+y,1/2-z
-x,1/4+y,1/4+z
3/4+x,1/2-y,1/4+z
1/2+x,y,1/2+z
3/4-x,1/4-y,1/2+z
1/2+x,1/4-y,3/4-z
3/4-x,y,3/4-z
1/2-x,-y,1/2-z
1/4+x,3/4+y,1/2-z
1/2-x,3/4+y,1/4+z
1/4+x,-y,1/4+z
1/2+x,1/2+y,z
3/4-x,3/4-y,z
1/2+x,3/4-y,1/4-z
3/4-x,1/2+y,1/4-z
1/2-x,1/2-y,-z
1/4+x,1/4+y,-z
1/2-x,1/4+y,3/4+z
1/4+x,1/2-y,3/4+z
loop_
_atom_site_type_symbol
_atom_site_label
_atom_site_fract_x
_atom_site_fract_y
_atom_site_fract_z
Si Si1 0.125000 0.125000 0.261553
Si Si2 0.981938 0.067141 0.574984
Si Si3 0.959127 0.492308 0.327982
Si Si4 0.397170 0.154472 0.292654
O O1 0.146088 0.202930 0.224012
O O2 0.254313 0.128400 0.291869
O O3 0.006483 0.125000 0.625000
O O4 0.958717 0.104846 0.516223
O O5 0.847023 0.033916 0.585683
O O6 0.076007 0.993842 0.563939
O O7 0.875000 0.463991 0.375000
O O8 0.962511 0.587600 0.326704
#
# Coordination Sequence:
#
# PCOD9515522 Si02
#       4
#    16  32  32  32
#     4  10  21  40  70  98 148 194 240 306 379 452
#     4  10  22  44  73 102 144 198 248 311 377 445
#     4  11  21  40  69 104 140 188 249 310 373 440
#     4  10  22  42  69 107 146 192 249 311 375 444
#
# _framework density 24.438448999999999
#
# number of rings (size 3 to 8) (size 9 to 14) (size 15 to 20)
#    0.000    1.714    0.000    5.571    0.000    0.000 
#   15.429    0.000    0.000    5.143    0.000    0.000 
#    0.000    0.000    0.000    0.000    0.000    0.000 
#
# Total GULP energy -156528.866296 kJ/mol
# GULP energy per Si atom -5590.316653 kJ/mol
# Density = 2.438283 g / cm^3
# Si number density = 24.438449 Si / 1000 Ang^3
#
#
#
# Elastic Constant Matrix: (Units=GPa)
#
#
# Indices 1 2 3 4 5 6 
#
# 1 193.9188 62.8035 41.3667 0.0000 0.0000 0.0000
# 2 62.8035 126.0057 54.1090 0.0000 0.0000 0.0000
# 3 41.3667 54.1090 120.0571 0.0000 0.0000 0.0000
# 4 0.0000 0.0000 0.0000 128.8122 0.0000 0.0000
# 5 0.0000 0.0000 0.0000 0.0000 38.9738 0.0000
# 6 0.0000 0.0000 0.0000 0.0000 0.0000 15.6912
#
#
#
# Elastic Compliance Matrix: (Units=1/GPa)
#
#
# Indices 1 2 3 4 5 6 
#
# 1 0.006231 -0.002708 -0.000927 0.000000 0.000000 0.000000
# 2 -0.002708 0.011017 -0.004032 0.000000 0.000000 0.000000
# 3 -0.000927 -0.004032 0.010466 0.000000 0.000000 0.000000
# 4 0.000000 0.000000 0.000000 0.007763 0.000000 0.000000
# 5 0.000000 0.000000 0.000000 0.000000 0.025658 0.000000
# 6 0.000000 0.000000 0.000000 0.000000 0.000000 0.063730
#
#
# Mechanical properties :
#
#
# Convention : Reuss Voigt Hill
#
# Bulk Modulus (GPa) = 80.76977 84.06001 82.41489
# Shear Modulus (GPa) = 34.64338 55.47559 45.05948
#
# Velocity S-wave (km/s) = 3.76916 4.76963 4.29860
# Velocity P-wave (km/s) = 7.21554 8.05008 7.64421
#
# Compressibility (1/GPa) = 0.01238087
#
# Stress axis : x y z
#
# Youngs Moduli (GPa) = 160.47539 90.76511 95.54703
#
# Poissons Ratio (x) = 0.24579 0.08854
# Poissons Ratio (y) = 0.43456 0.38529
# Poissons Ratio (z) = 0.14870 0.36601
#
# Static dielectric constant tensor:
#      x y z
#    x 1.774570 0.000000 0.000000 
#    y 0.000000 1.942050 0.000000 
#    z 0.000000 0.000000 2.005550 
# 
# From -- ./inp_files/64366.got.cif
#   From: 2010.05.17/outbox.cif.g08.bks.cpg/sg70_33_cif.got.tgz:64366.got - 2010.06.03 15:57:51.
