data_PCOD9515397
_publ_section_title
;
Structure prediction by ZEFSAII (Michael W. Deem and Ramdas Pophale) SiO2 
 PCOD9515397
Probable space group: F D D D
;
_chemical_formula_sum "Si O2"
_cell_formula_units_Z 112
_cell_length_a 5.208868
_cell_length_b 35.448785
_cell_length_c 30.264688
_cell_angle_alpha 90.000000
_cell_angle_beta 90.000000
_cell_angle_gamma 90.000000
_cell_volume 5588.315376
_symmetry_space_group_name_H-M "F D D D"
_symmetry_group_IT_number 70
_space_group.IT_coordinate_system_code '2'
_symmetry_cell_setting 'orthorhombic'
loop_
_space_group_symop_operation_xyz
x,y,z
1/4-x,1/4-y,z
x,1/4-y,1/4-z
1/4-x,y,1/4-z
-x,-y,-z
3/4+x,3/4+y,-z
-x,3/4+y,3/4+z
3/4+x,-y,3/4+z
x,1/2+y,1/2+z
1/4-x,3/4-y,1/2+z
x,3/4-y,3/4-z
1/4-x,1/2+y,3/4-z
-x,1/2-y,1/2-z
3/4+x,1/4+y,1/2-z
-x,1/4+y,1/4+z
3/4+x,1/2-y,1/4+z
1/2+x,y,1/2+z
3/4-x,1/4-y,1/2+z
1/2+x,1/4-y,3/4-z
3/4-x,y,3/4-z
1/2-x,-y,1/2-z
1/4+x,3/4+y,1/2-z
1/2-x,3/4+y,1/4+z
1/4+x,-y,1/4+z
1/2+x,1/2+y,z
3/4-x,3/4-y,z
1/2+x,3/4-y,1/4-z
3/4-x,1/2+y,1/4-z
1/2-x,1/2-y,-z
1/4+x,1/4+y,-z
1/2-x,1/4+y,3/4+z
1/4+x,1/2-y,3/4+z
loop_
_atom_site_type_symbol
_atom_site_label
_atom_site_fract_x
_atom_site_fract_y
_atom_site_fract_z
Si Si1 0.977308 0.287998 0.280076
Si Si2 0.961949 0.417688 0.997336
Si Si3 0.875000 0.495063 0.375000
Si Si4 0.873844 0.319271 0.100686
O O1 0.748971 0.316203 0.262869
O O2 0.931235 0.277954 0.331068
O O3 0.000000 0.250000 0.250000
O O4 0.255689 0.306460 0.276945
O O5 0.875000 0.375000 0.985955
O O6 0.902517 0.422629 0.049379
O O7 0.654220 0.524465 0.390182
O O8 0.625000 0.333055 0.125000
O O9 0.125000 0.334840 0.125000
#
# Coordination Sequence:
#
# PCOD9515397 Si02
#       4
#    32  32  16  32
#     4  12  24  44  71  98 133 174 233 276 325 402
#     4  12  26  44  65  98 141 180 214 276 351 404
#     4  10  24  38  71  98 126 168 232 280 326 374
#     4  10  21  38  63  99 127 164 222 271 341 386
#
# _framework density 20.041817999999999
#
# number of rings (size 3 to 8) (size 9 to 14) (size 15 to 20)
#    0.857    0.000    2.857    5.143    4.000    1.143 
#    0.000    4.286    0.000    0.000    0.000    0.000 
#    0.000    0.000    0.000    0.000    0.000    0.000 
#
# Total GULP energy -156165.295189 kJ/mol
# GULP energy per Si atom -5577.331971 kJ/mol
# Density = 1.999620 g / cm^3
# Si number density = 20.041818 Si / 1000 Ang^3
#
#
#
# Elastic Constant Matrix: (Units=GPa)
#
#
# Indices 1 2 3 4 5 6 
#
# 1 84.8417 -10.0310 -6.9348 0.0000 0.0000 0.0000
# 2 -10.0310 66.2048 15.7958 0.0000 0.0000 0.0000
# 3 -6.9348 15.7958 128.1901 0.0000 0.0000 0.0000
# 4 0.0000 0.0000 0.0000 51.6380 0.0000 0.0000
# 5 0.0000 0.0000 0.0000 0.0000 19.0813 0.0000
# 6 0.0000 0.0000 0.0000 0.0000 0.0000 20.4117
#
#
#
# Elastic Compliance Matrix: (Units=1/GPa)
#
#
# Indices 1 2 3 4 5 6 
#
# 1 0.012026 0.001717 0.000439 0.000000 0.000000 0.000000
# 2 0.001717 0.015807 -0.001855 0.000000 0.000000 0.000000
# 3 0.000439 -0.001855 0.008053 0.000000 0.000000 0.000000
# 4 0.000000 0.000000 0.000000 0.019366 0.000000 0.000000
# 5 0.000000 0.000000 0.000000 0.000000 0.052407 0.000000
# 6 0.000000 0.000000 0.000000 0.000000 0.000000 0.048991
#
#
# Mechanical properties :
#
#
# Convention : Reuss Voigt Hill
#
# Bulk Modulus (GPa) = 27.40558 30.76629 29.08593
# Shear Modulus (GPa) = 29.72458 36.91997 33.32227
#
# Velocity S-wave (km/s) = 3.85532 4.29668 4.08197
# Velocity P-wave (km/s) = 5.78981 6.32453 6.06306
#
# Compressibility (1/GPa) = 0.03648892
#
# Stress axis : x y z
#
# Youngs Moduli (GPa) = 83.15611 63.26144 124.17379
#
# Poissons Ratio (x) = -0.10864 -0.05451
# Poissons Ratio (y) = -0.14281 0.23033
# Poissons Ratio (z) = -0.03650 0.11734
#
# Static dielectric constant tensor:
#      x y z
#    x 1.710690 0.000000 0.000000 
#    y 0.000000 1.806470 0.000000 
#    z 0.000000 0.000000 1.400060 
# 
# From -- ./inp_files/62930.got.cif
#   From: 2010.05.17/outbox.cif.g08.bks.cpg/sg70_32_cif.got.tgz:62930.got - 2010.06.03 15:57:51.
