data_PCOD9515634
_publ_section_title
;
Structure prediction by ZEFSAII (Michael W. Deem and Ramdas Pophale) SiO2 
 PCOD9515634
Probable space group: F D D D
;
_chemical_formula_sum "Si O2"
_cell_formula_units_Z 208
_cell_length_a 19.732633
_cell_length_b 19.708257
_cell_length_c 23.921255
_cell_angle_alpha 90.000000
_cell_angle_beta 90.000000
_cell_angle_gamma 90.000000
_cell_volume 9302.875659
_symmetry_space_group_name_H-M "F D D D"
_symmetry_group_IT_number 70
_space_group.IT_coordinate_system_code '2'
_symmetry_cell_setting 'orthorhombic'
loop_
_space_group_symop_operation_xyz
x,y,z
1/4-x,1/4-y,z
x,1/4-y,1/4-z
1/4-x,y,1/4-z
-x,-y,-z
3/4+x,3/4+y,-z
-x,3/4+y,3/4+z
3/4+x,-y,3/4+z
x,1/2+y,1/2+z
1/4-x,3/4-y,1/2+z
x,3/4-y,3/4-z
1/4-x,1/2+y,3/4-z
-x,1/2-y,1/2-z
3/4+x,1/4+y,1/2-z
-x,1/4+y,1/4+z
3/4+x,1/2-y,1/4+z
1/2+x,y,1/2+z
3/4-x,1/4-y,1/2+z
1/2+x,1/4-y,3/4-z
3/4-x,y,3/4-z
1/2-x,-y,1/2-z
1/4+x,3/4+y,1/2-z
1/2-x,3/4+y,1/4+z
1/4+x,-y,1/4+z
1/2+x,1/2+y,z
3/4-x,3/4-y,z
1/2+x,3/4-y,1/4-z
3/4-x,1/2+y,1/4-z
1/2-x,1/2-y,-z
1/4+x,1/4+y,-z
1/2-x,1/4+y,3/4+z
1/4+x,1/2-y,3/4+z
loop_
_atom_site_type_symbol
_atom_site_label
_atom_site_fract_x
_atom_site_fract_y
_atom_site_fract_z
Si Si1 0.819534 0.758397 0.416360
Si Si2 0.261039 0.192359 0.200505
Si Si3 0.057111 0.362346 0.751202
Si Si4 0.336955 0.817570 0.743440
Si Si5 0.117687 0.490296 0.520032
Si Si6 0.729861 0.288979 0.430706
Si Si7 0.469960 0.625000 0.625000
O O1 0.875000 0.726280 0.375000
O O2 0.794564 0.703146 0.461984
O O3 0.862902 0.808678 0.454847
O O4 0.983334 0.806103 0.368137
O O5 0.318476 0.240523 0.226955
O O6 0.185018 0.215598 0.218376
O O7 0.267152 0.112615 0.210193
O O8 0.272549 0.203320 0.134959
O O9 0.108564 0.413153 0.721768
O O10 0.985926 0.401274 0.753784
O O11 0.073611 0.364305 0.818120
O O12 0.375000 0.875000 0.705850
O O13 0.052732 0.505780 0.557539
O O14 0.084615 0.498285 0.458113
#
# Coordination Sequence:
#
# PCOD9515634 Si02
#       7
#    32  32  32  32  32  32  16
#     4  12  23  43  70  95 135 192 235 286 357 436
#     4  10  22  40  68  97 124 177 231 279 347 427
#     4  11  25  40  68 103 134 181 238 291 354 424
#     4  11  22  41  62  94 136 173 222 290 343 421
#     4  10  22  40  64  95 132 168 223 288 347 417
#     4  10  21  43  68  91 128 178 223 283 351 422
#     4  12  23  44  66  96 136 184 243 280 356 430
#
# _framework density 22.358678000000001
#
# number of rings (size 3 to 8) (size 9 to 14) (size 15 to 20)
#    0.000    1.231    3.077    2.538    0.000    6.154 
#    0.000    3.077    3.385    0.000    0.000    0.000 
#    0.000    0.000    0.000    0.000    0.000    0.000 
#
# Total GULP energy -289681.855704 kJ/mol
# GULP energy per Si atom -5570.804917 kJ/mol
# Density = 2.230779 g / cm^3
# Si number density = 22.358678 Si / 1000 Ang^3
#
#
#
# Elastic Constant Matrix: (Units=GPa)
#
#
# Indices 1 2 3 4 5 6 
#
# 1 65.3751 22.0039 13.3324 0.0000 0.0000 0.0000
# 2 22.0039 85.2045 40.0038 0.0000 0.0000 0.0000
# 3 13.3324 40.0038 69.4756 0.0000 0.0000 0.0000
# 4 0.0000 0.0000 0.0000 31.6428 0.0000 0.0000
# 5 0.0000 0.0000 0.0000 0.0000 25.7860 0.0000
# 6 0.0000 0.0000 0.0000 0.0000 0.0000 39.0056
#
#
#
# Elastic Compliance Matrix: (Units=1/GPa)
#
#
# Indices 1 2 3 4 5 6 
#
# 1 0.016803 -0.003872 -0.000995 0.000000 0.000000 0.000000
# 2 -0.003872 0.016977 -0.009032 0.000000 0.000000 0.000000
# 3 -0.000995 -0.009032 0.019785 0.000000 0.000000 0.000000
# 4 0.000000 0.000000 0.000000 0.031603 0.000000 0.000000
# 5 0.000000 0.000000 0.000000 0.000000 0.038781 0.000000
# 6 0.000000 0.000000 0.000000 0.000000 0.000000 0.025637
#
#
# Mechanical properties :
#
#
# Convention : Reuss Voigt Hill
#
# Bulk Modulus (GPa) = 38.81042 41.19284 40.00163
# Shear Modulus (GPa) = 26.88563 28.93457 27.91010
#
# Velocity S-wave (km/s) = 3.47143 3.60128 3.53695
# Velocity P-wave (km/s) = 5.78477 5.97962 5.88300
#
# Compressibility (1/GPa) = 0.02576628
#
# Stress axis : x y z
#
# Youngs Moduli (GPa) = 59.51493 58.90275 50.54280
#
# Poissons Ratio (x) = 0.22808 0.05028
# Poissons Ratio (y) = 0.23045 0.45652
# Poissons Ratio (z) = 0.05921 0.53203
#
# Static dielectric constant tensor:
#      x y z
#    x 1.931280 0.000000 0.000000 
#    y 0.000000 1.906150 0.000000 
#    z 0.000000 0.000000 1.900350 
# 
# From -- ./inp_files/60442.got.cif
#   From: 2010.05.17/outbox.cif.g08.bks.cpg/sg70_31_cif.got.tgz:60442.got - 2010.06.03 15:57:51.
