data_PCOD9515562
_publ_section_title
;
Structure prediction by ZEFSAII (Michael W. Deem and Ramdas Pophale) SiO2 
 PCOD9515562
Probable space group: F D D D
;
_chemical_formula_sum "Si O2"
_cell_formula_units_Z 192
_cell_length_a 14.026906
_cell_length_b 24.729571
_cell_length_c 26.430574
_cell_angle_alpha 90.000000
_cell_angle_beta 90.000000
_cell_angle_gamma 90.000000
_cell_volume 9168.220801
_symmetry_space_group_name_H-M "F D D D"
_symmetry_group_IT_number 70
_space_group.IT_coordinate_system_code '2'
_symmetry_cell_setting 'orthorhombic'
loop_
_space_group_symop_operation_xyz
x,y,z
1/4-x,1/4-y,z
x,1/4-y,1/4-z
1/4-x,y,1/4-z
-x,-y,-z
3/4+x,3/4+y,-z
-x,3/4+y,3/4+z
3/4+x,-y,3/4+z
x,1/2+y,1/2+z
1/4-x,3/4-y,1/2+z
x,3/4-y,3/4-z
1/4-x,1/2+y,3/4-z
-x,1/2-y,1/2-z
3/4+x,1/4+y,1/2-z
-x,1/4+y,1/4+z
3/4+x,1/2-y,1/4+z
1/2+x,y,1/2+z
3/4-x,1/4-y,1/2+z
1/2+x,1/4-y,3/4-z
3/4-x,y,3/4-z
1/2-x,-y,1/2-z
1/4+x,3/4+y,1/2-z
1/2-x,3/4+y,1/4+z
1/4+x,-y,1/4+z
1/2+x,1/2+y,z
3/4-x,3/4-y,z
1/2+x,3/4-y,1/4-z
3/4-x,1/2+y,1/4-z
1/2-x,1/2-y,-z
1/4+x,1/4+y,-z
1/2-x,1/4+y,3/4+z
1/4+x,1/2-y,3/4+z
loop_
_atom_site_type_symbol
_atom_site_label
_atom_site_fract_x
_atom_site_fract_y
_atom_site_fract_z
Si Si1 0.396834 0.612937 0.777446
Si Si2 0.125000 0.933289 0.625000
Si Si3 0.943414 0.042748 0.533426
Si Si4 0.375000 0.375000 0.375000
Si Si5 0.111324 0.494636 0.489786
Si Si6 0.009939 0.080031 0.219544
Si Si7 0.625000 0.125000 0.625000
Si Si8 0.507029 0.281339 0.400019
O O1 0.407642 0.643938 0.830135
O O2 0.462247 0.647823 0.739614
O O3 0.406455 0.549072 0.778821
O O4 0.292584 0.622256 0.750667
O O5 0.199374 0.974754 0.598763
O O6 0.828697 0.038005 0.531262
O O7 0.967604 0.038316 0.591532
O O8 0.000000 0.000000 0.500000
O O9 0.438284 0.333019 0.408166
O O10 0.156988 0.552741 0.499058
O O11 0.151432 0.472481 0.436180
O O12 0.000000 0.500000 0.500000
O O13 0.053723 0.094700 0.164729
#
# Coordination Sequence:
#
# PCOD9515562 Si02
#       8
#    32  16  32   8  32  32   8  32
#     4  10  23  42  67  97 137 179 229 287 352 414
#     4  11  20  44  68  90 142 180 220 293 362 422
#     4  10  21  41  69 100 138 174 223 286 356 423
#     4  10  24  34  76 106 136 172 240 288 360 430
#     4  12  26  44  70  98 139 189 246 286 345 435
#     4  10  25  42  66  99 135 181 232 297 342 409
#     4  12  24  44  72  94 142 188 244 298 348 412
#     4  11  21  42  68 103 135 185 225 293 359 423
#
# _framework density 20.941904000000001
#
# number of rings (size 3 to 8) (size 9 to 14) (size 15 to 20)
#    1.000    0.333    3.333    2.000    7.000    0.667 
#    0.000    0.000    0.000    0.000    0.000    0.000 
#    0.000    0.000    0.000    0.000    0.000    0.000 
#
# Total GULP energy -267284.627731 kJ/mol
# GULP energy per Si atom -5568.429744 kJ/mol
# Density = 2.089424 g / cm^3
# Si number density = 20.941904 Si / 1000 Ang^3
#
#
#
# Elastic Constant Matrix: (Units=GPa)
#
#
# Indices 1 2 3 4 5 6 
#
# 1 112.7765 20.2848 40.2187 0.0000 0.0000 0.0000
# 2 20.2848 75.3780 26.4847 0.0000 0.0000 0.0000
# 3 40.2187 26.4847 124.3089 0.0000 0.0000 0.0000
# 4 0.0000 0.0000 0.0000 33.0423 0.0000 0.0000
# 5 0.0000 0.0000 0.0000 0.0000 41.9964 0.0000
# 6 0.0000 0.0000 0.0000 0.0000 0.0000 30.7467
#
#
#
# Elastic Compliance Matrix: (Units=1/GPa)
#
#
# Indices 1 2 3 4 5 6 
#
# 1 0.010225 -0.001718 -0.002942 0.000000 0.000000 0.000000
# 2 -0.001718 0.014629 -0.002561 0.000000 0.000000 0.000000
# 3 -0.002942 -0.002561 0.009542 0.000000 0.000000 0.000000
# 4 0.000000 0.000000 0.000000 0.030264 0.000000 0.000000
# 5 0.000000 0.000000 0.000000 0.000000 0.023812 0.000000
# 6 0.000000 0.000000 0.000000 0.000000 0.000000 0.032524
#
#
# Mechanical properties :
#
#
# Convention : Reuss Voigt Hill
#
# Bulk Modulus (GPa) = 50.11582 54.04886 52.08234
# Shear Modulus (GPa) = 35.18918 36.18874 35.68896
#
# Velocity S-wave (km/s) = 4.10362 4.16150 4.13266
# Velocity P-wave (km/s) = 6.81438 6.99684 6.90621
#
# Compressibility (1/GPa) = 0.01995378
#
# Stress axis : x y z
#
# Youngs Moduli (GPa) = 97.79590 68.35940 104.79955
#
# Poissons Ratio (x) = 0.11744 0.30835
# Poissons Ratio (y) = 0.16801 0.26838
# Poissons Ratio (z) = 0.28774 0.17506
#
# Static dielectric constant tensor:
#      x y z
#    x 1.842270 0.000000 0.000000 
#    y 0.000000 1.942290 0.000000 
#    z 0.000000 0.000000 1.751810 
# 
# From -- ./inp_files/58678.got.cif
#   From: 2010.05.17/outbox.cif.g08.bks.cpg/sg70_30_cif.got.tgz:58678.got - 2010.06.03 15:57:51.
