data_PCOD9515734
_publ_section_title
;
Structure prediction by ZEFSAII (Michael W. Deem and Ramdas Pophale) SiO2 
 PCOD9515734
Probable space group: F D D D
;
_chemical_formula_sum "Si O2"
_cell_formula_units_Z 96
_cell_length_a 6.829939
_cell_length_b 16.902590
_cell_length_c 32.815678
_cell_angle_alpha 90.000000
_cell_angle_beta 90.000000
_cell_angle_gamma 90.000000
_cell_volume 3788.361929
_symmetry_space_group_name_H-M "F D D D"
_symmetry_group_IT_number 70
_space_group.IT_coordinate_system_code '2'
_symmetry_cell_setting 'orthorhombic'
loop_
_space_group_symop_operation_xyz
x,y,z
1/4-x,1/4-y,z
x,1/4-y,1/4-z
1/4-x,y,1/4-z
-x,-y,-z
3/4+x,3/4+y,-z
-x,3/4+y,3/4+z
3/4+x,-y,3/4+z
x,1/2+y,1/2+z
1/4-x,3/4-y,1/2+z
x,3/4-y,3/4-z
1/4-x,1/2+y,3/4-z
-x,1/2-y,1/2-z
3/4+x,1/4+y,1/2-z
-x,1/4+y,1/4+z
3/4+x,1/2-y,1/4+z
1/2+x,y,1/2+z
3/4-x,1/4-y,1/2+z
1/2+x,1/4-y,3/4-z
3/4-x,y,3/4-z
1/2-x,-y,1/2-z
1/4+x,3/4+y,1/2-z
1/2-x,3/4+y,1/4+z
1/4+x,-y,1/4+z
1/2+x,1/2+y,z
3/4-x,3/4-y,z
1/2+x,3/4-y,1/4-z
3/4-x,1/2+y,1/4-z
1/2-x,1/2-y,-z
1/4+x,1/4+y,-z
1/2-x,1/4+y,3/4+z
1/4+x,1/2-y,3/4+z
loop_
_atom_site_type_symbol
_atom_site_label
_atom_site_fract_x
_atom_site_fract_y
_atom_site_fract_z
Si Si1 0.108290 0.783695 0.381626
Si Si2 0.555956 0.217457 0.467945
Si Si3 0.099803 0.532724 0.296966
O O1 0.159339 0.875000 0.375000
O O2 0.146574 0.755686 0.427343
O O3 0.197331 0.734567 0.344101
O O4 0.875000 0.776355 0.375000
O O5 0.625000 0.125000 0.467627
O O6 0.325294 0.242726 0.460223
O O7 0.556516 0.247505 0.514873
O O8 0.125000 0.625000 0.289618
#
# Coordination Sequence:
#
# PCOD9515734 Si02
#       3
#    32  32  32
#     4   9  19  37  62  87 124 168 214 264 324 394
#     4  10  22  38  64  90 124 172 214 266 334 392
#     4  10  22  38  62  93 125 164 221 267 326 403
#
# _framework density 25.340769000000002
#
# number of rings (size 3 to 8) (size 9 to 14) (size 15 to 20)
#    0.000    2.333    0.000    1.000   14.000    1.333 
#    0.000    0.000    0.000    0.000    0.000    0.000 
#    0.000    0.000    0.000    0.000    0.000    0.000 
#
# Total GULP energy -133920.707502 kJ/mol
# GULP energy per Si atom -5580.029479 kJ/mol
# Density = 2.528309 g / cm^3
# Si number density = 25.340769 Si / 1000 Ang^3
#
#
#
# Elastic Constant Matrix: (Units=GPa)
#
#
# Indices 1 2 3 4 5 6 
#
# 1 131.3229 3.9657 88.5399 0.0000 0.0000 0.0000
# 2 3.9657 141.6033 128.3612 0.0000 0.0000 0.0000
# 3 88.5399 128.3612 321.6451 0.0000 0.0000 0.0000
# 4 0.0000 0.0000 0.0000 51.4016 0.0000 0.0000
# 5 0.0000 0.0000 0.0000 0.0000 10.7820 0.0000
# 6 0.0000 0.0000 0.0000 0.0000 0.0000 -44.7847
#
#
#
# Elastic Compliance Matrix: (Units=1/GPa)
#
#
# Indices 1 2 3 4 5 6 
#
# 1 0.010410 0.003613 -0.004307 0.000000 0.000000 0.000000
# 2 0.003613 0.012319 -0.005911 0.000000 0.000000 0.000000
# 3 -0.004307 -0.005911 0.006654 0.000000 0.000000 0.000000
# 4 0.000000 0.000000 0.000000 0.019455 0.000000 0.000000
# 5 0.000000 0.000000 0.000000 0.000000 0.092747 0.000000
# 6 0.000000 0.000000 0.000000 0.000000 0.000000 -0.022329
#
#
# Mechanical properties :
#
#
# Convention : Reuss Voigt Hill
#
# Bulk Modulus (GPa) = 61.83508 115.14502 88.49005
# Shear Modulus (GPa) = 36.26976 28.39341 32.33159
#
# Velocity S-wave (km/s) = 3.78733 3.35096 3.57581
# Velocity P-wave (km/s) = 6.60148 7.77877 7.21418
#
# Compressibility (1/GPa) = 0.01617205
#
# Stress axis : x y z
#
# Youngs Moduli (GPa) = 96.06279 81.17690 150.29519
#
# Poissons Ratio (x) = -0.29330 0.64739
# Poissons Ratio (y) = -0.34708 0.88835
# Poissons Ratio (z) = 0.41379 0.47981
#
# Static dielectric constant tensor:
#      x y z
#    x 1.115940 0.000000 0.000000 
#    y 0.000000 1.874910 0.000000 
#    z 0.000000 0.000000 2.004650 
# 
# From -- ./inp_files/56227.got.cif
#   From: 2010.05.17/outbox.cif.g08.bks.cpg/sg70_29_cif.got.tgz:56227.got - 2010.06.03 15:57:51.
