data_PCOD9515878
_publ_section_title
;
Structure prediction by ZEFSAII (Michael W. Deem and Ramdas Pophale) SiO2 
 PCOD9515878
Probable space group: F D D D
;
_chemical_formula_sum "Si O2"
_cell_formula_units_Z 192
_cell_length_a 26.854104
_cell_length_b 10.986672
_cell_length_c 27.442632
_cell_angle_alpha 90.000000
_cell_angle_beta 90.000000
_cell_angle_gamma 90.000000
_cell_volume 8096.598198
_symmetry_space_group_name_H-M "F D D D"
_symmetry_group_IT_number 70
_space_group.IT_coordinate_system_code '2'
_symmetry_cell_setting 'orthorhombic'
loop_
_space_group_symop_operation_xyz
x,y,z
1/4-x,1/4-y,z
x,1/4-y,1/4-z
1/4-x,y,1/4-z
-x,-y,-z
3/4+x,3/4+y,-z
-x,3/4+y,3/4+z
3/4+x,-y,3/4+z
x,1/2+y,1/2+z
1/4-x,3/4-y,1/2+z
x,3/4-y,3/4-z
1/4-x,1/2+y,3/4-z
-x,1/2-y,1/2-z
3/4+x,1/4+y,1/2-z
-x,1/4+y,1/4+z
3/4+x,1/2-y,1/4+z
1/2+x,y,1/2+z
3/4-x,1/4-y,1/2+z
1/2+x,1/4-y,3/4-z
3/4-x,y,3/4-z
1/2-x,-y,1/2-z
1/4+x,3/4+y,1/2-z
1/2-x,3/4+y,1/4+z
1/4+x,-y,1/4+z
1/2+x,1/2+y,z
3/4-x,3/4-y,z
1/2+x,3/4-y,1/4-z
3/4-x,1/2+y,1/4-z
1/2-x,1/2-y,-z
1/4+x,1/4+y,-z
1/2-x,1/4+y,3/4+z
1/4+x,1/2-y,3/4+z
loop_
_atom_site_type_symbol
_atom_site_label
_atom_site_fract_x
_atom_site_fract_y
_atom_site_fract_z
Si Si1 0.465500 0.981795 0.625520
Si Si2 0.291302 0.076656 0.942159
Si Si3 0.477014 0.772775 0.696290
Si Si4 0.620669 0.479775 0.182374
Si Si5 0.798591 0.375000 0.875000
Si Si6 0.125000 0.125000 0.320983
Si Si7 0.303531 0.698598 0.235320
O O1 0.506667 0.913047 0.591842
O O2 0.464256 0.904687 0.676053
O O3 0.411249 0.958711 0.602820
O O4 0.477297 0.125000 0.625000
O O5 0.334051 0.165481 0.961305
O O6 0.321478 0.970630 0.912598
O O7 0.251703 0.004189 0.975603
O O8 0.500000 0.750000 0.750000
O O9 0.513480 0.710947 0.657418
O O10 0.434176 0.672097 0.703473
O O11 0.625000 0.625000 0.184468
O O12 0.625000 0.447990 0.125000
O O13 0.569879 0.436831 0.208396
O O14 0.160680 0.201672 0.286997
#
# Coordination Sequence:
#
# PCOD9515878 Si02
#       7
#    32  32  32  32  16  16  32
#     4  10  23  40  71 104 141 186 247 304 381 464
#     4   9  21  43  70  96 139 196 234 308 383 451
#     4  10  22  41  72  98 136 187 239 303 376 455
#     4  11  25  41  67 106 149 194 251 321 387 467
#     4   8  18  42  67  94 130 180 232 288 370 447
#     4  10  22  44  65 100 138 191 234 324 370 458
#     4  10  22  45  68  98 144 189 249 307 394 456
#
# _framework density 23.713663
#
# number of rings (size 3 to 8) (size 9 to 14) (size 15 to 20)
#    0.000    2.167    0.833    1.000    9.333    0.667 
#    6.000    0.417    0.000    0.000    0.000    0.000 
#    0.000    0.000    0.000    0.000    0.000    0.000 
#
# Total GULP energy -267680.775341 kJ/mol
# GULP energy per Si atom -5576.682820 kJ/mol
# Density = 2.365969 g / cm^3
# Si number density = 23.713663 Si / 1000 Ang^3
#
#
#
# Elastic Constant Matrix: (Units=GPa)
#
#
# Indices 1 2 3 4 5 6 
#
# 1 76.9785 26.0324 23.3082 0.0000 0.0000 0.0000
# 2 26.0324 168.1169 50.0282 0.0000 0.0000 0.0000
# 3 23.3082 50.0282 110.3682 0.0000 0.0000 0.0000
# 4 0.0000 0.0000 0.0000 16.4811 0.0000 0.0000
# 5 0.0000 0.0000 0.0000 0.0000 -0.3890 0.0000
# 6 0.0000 0.0000 0.0000 0.0000 0.0000 64.0715
#
#
#
# Elastic Compliance Matrix: (Units=1/GPa)
#
#
# Indices 1 2 3 4 5 6 
#
# 1 0.014202 -0.001510 -0.002315 0.000000 0.000000 0.000000
# 2 -0.001510 0.007036 -0.002870 0.000000 0.000000 0.000000
# 3 -0.002315 -0.002870 0.010851 0.000000 0.000000 0.000000
# 4 0.000000 0.000000 0.000000 0.060676 0.000000 0.000000
# 5 0.000000 0.000000 0.000000 0.000000 -2.570669 0.000000
# 6 0.000000 0.000000 0.000000 0.000000 0.000000 0.015608
#
#
# Mechanical properties :
#
#
# Convention : Reuss Voigt Hill
#
# Bulk Modulus (GPa) = 53.48152 61.57792 57.52972
# Shear Modulus (GPa) = -2.04694 33.10571 15.52939
#
# Velocity S-wave (km/s) = -0.93009 3.74044 2.56182
# Velocity P-wave (km/s) = 4.63126 6.68418 5.75008
#
# Compressibility (1/GPa) = 0.01869805
#
# Stress axis : x y z
#
# Youngs Moduli (GPa) = 70.41128 142.11979 92.16123
#
# Poissons Ratio (x) = 0.21465 0.21332
# Poissons Ratio (y) = 0.10635 0.26455
# Poissons Ratio (z) = 0.16298 0.40795
#
# Static dielectric constant tensor:
#      x y z
#    x 2.070410 0.000000 0.000000 
#    y 0.000000 1.941450 0.000000 
#    z 0.000000 0.000000 1.939660 
# 
# From -- ./inp_files/68407.got.cif
#   From: 2010.05.17/outbox.cif.g08.bks.cpg/sg70_35_cif.got.tgz:68407.got - 2010.06.03 15:57:51.
