data_PCOD9515916
_publ_section_title
;
Structure prediction by ZEFSAII (Michael W. Deem and Ramdas Pophale) SiO2 
 PCOD9515916
Probable space group: F D D D
;
_chemical_formula_sum "Si O2"
_cell_formula_units_Z 128
_cell_length_a 17.387537
_cell_length_b 13.856948
_cell_length_c 23.240582
_cell_angle_alpha 90.000000
_cell_angle_beta 90.000000
_cell_angle_gamma 90.000000
_cell_volume 5599.543902
_symmetry_space_group_name_H-M "F D D D"
_symmetry_group_IT_number 70
_space_group.IT_coordinate_system_code '2'
_symmetry_cell_setting 'orthorhombic'
loop_
_space_group_symop_operation_xyz
x,y,z
1/4-x,1/4-y,z
x,1/4-y,1/4-z
1/4-x,y,1/4-z
-x,-y,-z
3/4+x,3/4+y,-z
-x,3/4+y,3/4+z
3/4+x,-y,3/4+z
x,1/2+y,1/2+z
1/4-x,3/4-y,1/2+z
x,3/4-y,3/4-z
1/4-x,1/2+y,3/4-z
-x,1/2-y,1/2-z
3/4+x,1/4+y,1/2-z
-x,1/4+y,1/4+z
3/4+x,1/2-y,1/4+z
1/2+x,y,1/2+z
3/4-x,1/4-y,1/2+z
1/2+x,1/4-y,3/4-z
3/4-x,y,3/4-z
1/2-x,-y,1/2-z
1/4+x,3/4+y,1/2-z
1/2-x,3/4+y,1/4+z
1/4+x,-y,1/4+z
1/2+x,1/2+y,z
3/4-x,3/4-y,z
1/2+x,3/4-y,1/4-z
3/4-x,1/2+y,1/4-z
1/2-x,1/2-y,-z
1/4+x,1/4+y,-z
1/2-x,1/4+y,3/4+z
1/4+x,1/2-y,3/4+z
loop_
_atom_site_type_symbol
_atom_site_label
_atom_site_fract_x
_atom_site_fract_y
_atom_site_fract_z
Si Si1 0.756792 0.875000 0.875000
Si Si2 0.125000 0.125000 0.903655
Si Si3 0.625000 0.290184 0.625000
Si Si4 0.460214 0.697027 0.942753
Si Si5 0.610786 0.956101 0.309472
Si Si6 0.252338 0.625000 0.125000
O O1 0.807252 0.783162 0.860267
O O2 0.699008 0.868590 0.928225
O O3 0.200638 0.092268 0.940229
O O4 0.144636 0.211889 0.858831
O O5 0.593978 0.358112 0.675074
O O6 0.459149 0.780422 0.895026
O O7 0.420551 0.742148 0.999106
O O8 0.693487 0.908749 0.321280
#
# Coordination Sequence:
#
# PCOD9515916 Si02
#       6
#    16  16  16  32  32  16
#     4  10  22  43  60  99 133 153 232 275 311 407
#     4  10  22  46  64 102 138 172 232 270 324 420
#     4  11  24  39  64 102 130 165 226 273 324 406
#     4  11  24  43  71  94 138 182 213 279 347 380
#     4  10  22  42  69  94 133 179 215 280 332 388
#     4   9  24  44  64 104 135 168 240 264 317 432
#
# _framework density 22.859005
#
# number of rings (size 3 to 8) (size 9 to 14) (size 15 to 20)
#    0.000    1.750    2.500    0.000    3.500    5.500 
#    0.000    5.000    0.000    0.000    0.000    0.000 
#    0.000    0.000    0.000    0.000    0.000    0.000 
#
# Total GULP energy -178291.255539 kJ/mol
# GULP energy per Si atom -5571.601736 kJ/mol
# Density = 2.280698 g / cm^3
# Si number density = 22.859005 Si / 1000 Ang^3
#
#
#
# Elastic Constant Matrix: (Units=GPa)
#
#
# Indices 1 2 3 4 5 6 
#
# 1 102.9767 35.5253 41.8304 0.0000 0.0000 0.0000
# 2 35.5253 110.2015 11.6833 0.0000 0.0000 0.0000
# 3 41.8304 11.6833 70.0187 0.0000 0.0000 0.0000
# 4 0.0000 0.0000 0.0000 18.9967 0.0000 0.0000
# 5 0.0000 0.0000 0.0000 0.0000 18.0513 0.0000
# 6 0.0000 0.0000 0.0000 0.0000 0.0000 8.2294
#
#
#
# Elastic Compliance Matrix: (Units=1/GPa)
#
#
# Indices 1 2 3 4 5 6 
#
# 1 0.014193 -0.003743 -0.007854 0.000000 0.000000 0.000000
# 2 -0.003743 0.010225 0.000530 0.000000 0.000000 0.000000
# 3 -0.007854 0.000530 0.018886 0.000000 0.000000 0.000000
# 4 0.000000 0.000000 0.000000 0.052641 0.000000 0.000000
# 5 0.000000 0.000000 0.000000 0.000000 0.055398 0.000000
# 6 0.000000 0.000000 0.000000 0.000000 0.000000 0.121515
#
#
# Mechanical properties :
#
#
# Convention : Reuss Voigt Hill
#
# Bulk Modulus (GPa) = 47.23952 51.25276 49.24614
# Shear Modulus (GPa) = 16.55368 21.99934 19.27651
#
# Velocity S-wave (km/s) = 2.69395 3.10561 2.90708
# Velocity P-wave (km/s) = 5.51244 5.94388 5.73222
#
# Compressibility (1/GPa) = 0.02116872
#
# Stress axis : x y z
#
# Youngs Moduli (GPa) = 70.45918 97.80346 52.94958
#
# Poissons Ratio (x) = 0.36603 0.41589
# Poissons Ratio (y) = 0.26369 -0.02805
# Poissons Ratio (z) = 0.55342 -0.05181
#
# Static dielectric constant tensor:
#      x y z
#    x 1.933290 0.000000 0.000000 
#    y 0.000000 1.943890 0.000000 
#    z 0.000000 0.000000 1.972370 
# 
# From -- ./inp_files/27326.got.cif
#   From: 2010.05.17/outbox.cif.g08.bks.cpg/sg70_14_cif.got.tgz:27326.got - 2010.06.03 15:57:51.
