data_PCOD9515425
_publ_section_title
;
Structure prediction by ZEFSAII (Michael W. Deem and Ramdas Pophale) SiO2 
 PCOD9515425
Probable space group: F D D D
;
_chemical_formula_sum "Si O2"
_cell_formula_units_Z 88
_cell_length_a 4.767081
_cell_length_b 24.148285
_cell_length_c 36.425880
_cell_angle_alpha 90.000000
_cell_angle_beta 90.000000
_cell_angle_gamma 90.000000
_cell_volume 4193.231858
_symmetry_space_group_name_H-M "F D D D"
_symmetry_group_IT_number 70
_space_group.IT_coordinate_system_code '2'
_symmetry_cell_setting 'orthorhombic'
loop_
_space_group_symop_operation_xyz
x,y,z
1/4-x,1/4-y,z
x,1/4-y,1/4-z
1/4-x,y,1/4-z
-x,-y,-z
3/4+x,3/4+y,-z
-x,3/4+y,3/4+z
3/4+x,-y,3/4+z
x,1/2+y,1/2+z
1/4-x,3/4-y,1/2+z
x,3/4-y,3/4-z
1/4-x,1/2+y,3/4-z
-x,1/2-y,1/2-z
3/4+x,1/4+y,1/2-z
-x,1/4+y,1/4+z
3/4+x,1/2-y,1/4+z
1/2+x,y,1/2+z
3/4-x,1/4-y,1/2+z
1/2+x,1/4-y,3/4-z
3/4-x,y,3/4-z
1/2-x,-y,1/2-z
1/4+x,3/4+y,1/2-z
1/2-x,3/4+y,1/4+z
1/4+x,-y,1/4+z
1/2+x,1/2+y,z
3/4-x,3/4-y,z
1/2+x,3/4-y,1/4-z
3/4-x,1/2+y,1/4-z
1/2-x,1/2-y,-z
1/4+x,1/4+y,-z
1/2-x,1/4+y,3/4+z
1/4+x,1/2-y,3/4+z
loop_
_atom_site_type_symbol
_atom_site_label
_atom_site_fract_x
_atom_site_fract_y
_atom_site_fract_z
Si Si1 0.027718 0.316387 0.518055
Si Si2 0.125000 0.702113 0.625000
Si Si3 0.988954 0.006105 0.800166
Si Si4 0.625000 0.625000 0.625000
O O1 0.875000 0.375000 0.518001
O O2 0.821876 0.273219 0.538271
O O3 0.074926 0.294525 0.476625
O O4 0.316376 0.308021 0.539594
O O5 0.248811 0.737747 0.658066
O O6 0.387248 0.666346 0.608149
#
# Coordination Sequence:
#
# PCOD9515425 Si02
#       4
#    32  16  32   8
#     4  10  21  39  61  89 121 166 205 250 305 373
#     4  11  22  42  58  93 124 159 206 266 313 380
#     4  10  22  39  61  89 125 158 205 260 305 364
#     4  10  24  34  60  92 120 160 200 246 344 362
#
# _framework density 20.986201000000001
#
# number of rings (size 3 to 8) (size 9 to 14) (size 15 to 20)
#    0.000    1.818    0.000    3.273    5.091    0.000 
#    0.000    3.636    0.000    0.000    0.000    0.000 
#    0.000    0.000    0.000    0.000    0.000    0.000 
#
# Total GULP energy -122571.411412 kJ/mol
# GULP energy per Si atom -5571.427791 kJ/mol
# Density = 2.093844 g / cm^3
# Si number density = 20.986201 Si / 1000 Ang^3
#
#
#
# Elastic Constant Matrix: (Units=GPa)
#
#
# Indices 1 2 3 4 5 6 
#
# 1 113.4578 15.5283 17.5677 0.0000 0.0000 0.0000
# 2 15.5283 93.3773 47.6810 0.0000 0.0000 0.0000
# 3 17.5677 47.6810 131.3610 0.0000 0.0000 0.0000
# 4 0.0000 0.0000 0.0000 0.0581 0.0000 0.0000
# 5 0.0000 0.0000 0.0000 0.0000 19.2802 0.0000
# 6 0.0000 0.0000 0.0000 0.0000 0.0000 39.3474
#
#
#
# Elastic Compliance Matrix: (Units=1/GPa)
#
#
# Indices 1 2 3 4 5 6 
#
# 1 0.009090 -0.001094 -0.000819 0.000000 0.000000 0.000000
# 2 -0.001094 0.013277 -0.004673 0.000000 0.000000 0.000000
# 3 -0.000819 -0.004673 0.009418 0.000000 0.000000 0.000000
# 4 0.000000 0.000000 0.000000 17.208147 0.000000 0.000000
# 5 0.000000 0.000000 0.000000 0.000000 0.051867 0.000000
# 6 0.000000 0.000000 0.000000 0.000000 0.000000 0.025415
#
#
# Mechanical properties :
#
#
# Convention : Reuss Voigt Hill
#
# Bulk Modulus (GPa) = 53.72003 55.52780 54.62392
# Shear Modulus (GPa) = 0.28841 28.89841 14.59341
#
# Velocity S-wave (km/s) = 0.37111 3.71485 2.63987
# Velocity P-wave (km/s) = 5.08301 6.70200 5.94785
#
# Compressibility (1/GPa) = 0.01861503
#
# Stress axis : x y z
#
# Youngs Moduli (GPa) = 110.00739 75.31639 106.17583
#
# Poissons Ratio (x) = 0.08237 0.08693
# Poissons Ratio (y) = 0.12030 0.49617
# Poissons Ratio (z) = 0.09007 0.35196
#
# Static dielectric constant tensor:
#      x y z
#    x 1.773010 0.000000 0.000000 
#    y 0.000000 1.811230 0.000000 
#    z 0.000000 0.000000 1.712850 
# 
# From -- ./inp_files/55795.got.cif
#   From: 2010.05.17/outbox.cif.g08.bks.cpg/sg70_28_cif.got.tgz:55795.got - 2010.06.03 15:57:51.
