data_PCOD9515022
_publ_section_title
;
Structure prediction by ZEFSAII (Michael W. Deem and Ramdas Pophale) SiO2 
 PCOD9515022
Probable space group: F D D D
;
_chemical_formula_sum "Si O2"
_cell_formula_units_Z 128
_cell_length_a 23.585490
_cell_length_b 10.295226
_cell_length_c 20.206210
_cell_angle_alpha 90.000000
_cell_angle_beta 90.000000
_cell_angle_gamma 90.000000
_cell_volume 4906.430487
_symmetry_space_group_name_H-M "F D D D"
_symmetry_group_IT_number 70
_space_group.IT_coordinate_system_code '2'
_symmetry_cell_setting 'orthorhombic'
loop_
_space_group_symop_operation_xyz
x,y,z
1/4-x,1/4-y,z
x,1/4-y,1/4-z
1/4-x,y,1/4-z
-x,-y,-z
3/4+x,3/4+y,-z
-x,3/4+y,3/4+z
3/4+x,-y,3/4+z
x,1/2+y,1/2+z
1/4-x,3/4-y,1/2+z
x,3/4-y,3/4-z
1/4-x,1/2+y,3/4-z
-x,1/2-y,1/2-z
3/4+x,1/4+y,1/2-z
-x,1/4+y,1/4+z
3/4+x,1/2-y,1/4+z
1/2+x,y,1/2+z
3/4-x,1/4-y,1/2+z
1/2+x,1/4-y,3/4-z
3/4-x,y,3/4-z
1/2-x,-y,1/2-z
1/4+x,3/4+y,1/2-z
1/2-x,3/4+y,1/4+z
1/4+x,-y,1/4+z
1/2+x,1/2+y,z
3/4-x,3/4-y,z
1/2+x,3/4-y,1/4-z
3/4-x,1/2+y,1/4-z
1/2-x,1/2-y,-z
1/4+x,1/4+y,-z
1/2-x,1/4+y,3/4+z
1/4+x,1/2-y,3/4+z
loop_
_atom_site_type_symbol
_atom_site_label
_atom_site_fract_x
_atom_site_fract_y
_atom_site_fract_z
Si Si1 0.915154 0.987223 0.548888
Si Si2 0.673576 0.861450 0.026583
Si Si3 0.790403 0.207824 0.913252
Si Si4 0.783479 0.408476 0.445882
O O1 0.875000 0.875000 0.576226
O O2 0.973304 0.992521 0.590504
O O3 0.871258 0.102250 0.530693
O O4 0.936614 0.955181 0.473686
O O5 0.676583 0.946573 0.094151
O O6 0.672016 0.708888 0.044404
O O7 0.736022 0.889609 0.999896
O O8 0.797403 0.060061 0.941037
O O9 0.756513 0.375000 0.375000
#
# Coordination Sequence:
#
# PCOD9515022 Si02
#       4
#    32  32  32  32
#     4  11  22  40  63  92 134 175 217 277 336 395
#     4  10  20  38  67  91 130 177 214 279 341 385
#     4  10  22  39  63  97 130 172 233 271 329 416
#     4   9  19  39  64  91 126 168 224 273 324 400
#
# _framework density 26.088213
#
# number of rings (size 3 to 8) (size 9 to 14) (size 15 to 20)
#    0.000    2.000    2.500    0.750    0.000    3.000 
#    0.000    6.250    0.000    0.000    0.000    0.000 
#    0.000    0.000    0.000    0.000    0.000    0.000 
#
# Total GULP energy -178522.116494 kJ/mol
# GULP energy per Si atom -5578.816140 kJ/mol
# Density = 2.602884 g / cm^3
# Si number density = 26.088213 Si / 1000 Ang^3
#
#
#
# Elastic Constant Matrix: (Units=GPa)
#
#
# Indices 1 2 3 4 5 6 
#
# 1 104.8280 23.3843 10.7633 0.0000 0.0000 0.0000
# 2 23.3843 115.0244 28.9047 0.0000 0.0000 0.0000
# 3 10.7633 28.9047 55.9349 0.0000 0.0000 0.0000
# 4 0.0000 0.0000 0.0000 20.9419 0.0000 0.0000
# 5 0.0000 0.0000 0.0000 0.0000 -72.0489 0.0000
# 6 0.0000 0.0000 0.0000 0.0000 0.0000 41.5929
#
#
#
# Elastic Compliance Matrix: (Units=1/GPa)
#
#
# Indices 1 2 3 4 5 6 
#
# 1 0.010042 -0.001788 -0.001008 0.000000 0.000000 0.000000
# 2 -0.001788 0.010310 -0.004983 0.000000 0.000000 0.000000
# 3 -0.001008 -0.004983 0.020647 0.000000 0.000000 0.000000
# 4 0.000000 0.000000 0.000000 0.047751 0.000000 0.000000
# 5 0.000000 0.000000 0.000000 0.000000 -0.013879 0.000000
# 6 0.000000 0.000000 0.000000 0.000000 0.000000 0.024043
#
#
# Mechanical properties :
#
#
# Convention : Reuss Voigt Hill
#
# Bulk Modulus (GPa) = 39.30989 44.65465 41.98227
# Shear Modulus (GPa) = 40.66615 12.27952 26.47283
#
# Velocity S-wave (km/s) = 3.95244 2.17190 3.18896
# Velocity P-wave (km/s) = 5.99415 4.84185 5.44855
#
# Compressibility (1/GPa) = 0.02543889
#
# Stress axis : x y z
#
# Youngs Moduli (GPa) = 99.58332 96.99664 48.43278
#
# Poissons Ratio (x) = 0.17344 0.04883
# Poissons Ratio (y) = 0.17807 0.24136
# Poissons Ratio (z) = 0.10041 0.48338
#
# Static dielectric constant tensor:
#      x y z
#    x 2.107110 0.000000 0.000000 
#    y 0.000000 2.130150 0.000000 
#    z 0.000000 0.000000 1.971380 
# 
# From -- ./inp_files/18809.got.cif
#   From: 2010.05.17/outbox.cif.g08.bks.cpg/sg70_10_cif.got.tgz:18809.got - 2010.06.03 15:57:51.
