data_PCOD9515817
_publ_section_title
;
Structure prediction by ZEFSAII (Michael W. Deem and Ramdas Pophale) SiO2 
 PCOD9515817
Probable space group: F D D D
;
_chemical_formula_sum "Si O2"
_cell_formula_units_Z 136
_cell_length_a 17.296413
_cell_length_b 22.414890
_cell_length_c 15.739189
_cell_angle_alpha 90.000000
_cell_angle_beta 90.000000
_cell_angle_gamma 90.000000
_cell_volume 6102.039424
_symmetry_space_group_name_H-M "F D D D"
_symmetry_group_IT_number 70
_space_group.IT_coordinate_system_code '2'
_symmetry_cell_setting 'orthorhombic'
loop_
_space_group_symop_operation_xyz
x,y,z
1/4-x,1/4-y,z
x,1/4-y,1/4-z
1/4-x,y,1/4-z
-x,-y,-z
3/4+x,3/4+y,-z
-x,3/4+y,3/4+z
3/4+x,-y,3/4+z
x,1/2+y,1/2+z
1/4-x,3/4-y,1/2+z
x,3/4-y,3/4-z
1/4-x,1/2+y,3/4-z
-x,1/2-y,1/2-z
3/4+x,1/4+y,1/2-z
-x,1/4+y,1/4+z
3/4+x,1/2-y,1/4+z
1/2+x,y,1/2+z
3/4-x,1/4-y,1/2+z
1/2+x,1/4-y,3/4-z
3/4-x,y,3/4-z
1/2-x,-y,1/2-z
1/4+x,3/4+y,1/2-z
1/2-x,3/4+y,1/4+z
1/4+x,-y,1/4+z
1/2+x,1/2+y,z
3/4-x,3/4-y,z
1/2+x,3/4-y,1/4-z
3/4-x,1/2+y,1/4-z
1/2-x,1/2-y,-z
1/4+x,1/4+y,-z
1/2-x,1/4+y,3/4+z
1/4+x,1/2-y,3/4+z
loop_
_atom_site_type_symbol
_atom_site_label
_atom_site_fract_x
_atom_site_fract_y
_atom_site_fract_z
Si Si1 0.875000 0.375000 0.375000
Si Si2 0.247085 0.320447 0.757541
Si Si3 0.838284 0.542958 0.695552
Si Si4 0.047259 0.190740 0.564743
Si Si5 0.778225 0.835377 0.571440
O O1 0.819114 0.333837 0.317730
O O2 0.166572 0.330385 0.806030
O O3 0.265058 0.353984 0.668733
O O4 0.050668 0.305354 0.712471
O O5 0.838279 0.470577 0.682895
O O6 0.774674 0.564463 0.629053
O O7 0.704427 0.639223 0.757094
O O8 0.125000 0.191208 0.625000
O O9 0.023295 0.253007 0.520957
#
# Coordination Sequence:
#
# PCOD9515817 Si02
#       5
#     8  32  32  32  32
#     4  12  32  52  68  84 148 216 256 304 342 436
#     4  11  26  50  66  98 143 199 254 299 360 438
#     4  10  22  40  69 109 149 187 229 297 372 443
#     4  11  24  43  77 117 148 179 240 315 382 433
#     4  10  22  41  72 110 147 184 228 306 370 435
#
# _framework density 22.287631000000001
#
# number of rings (size 3 to 8) (size 9 to 14) (size 15 to 20)
#    0.000    1.412    0.000    5.647    3.294   16.000 
#    4.235    5.882    0.000    0.000    0.000    0.000 
#    0.000    0.000    0.000    0.000    0.000    0.000 
#
# Total GULP energy -189611.125647 kJ/mol
# GULP energy per Si atom -5576.797813 kJ/mol
# Density = 2.223690 g / cm^3
# Si number density = 22.287631 Si / 1000 Ang^3
#
#
#
# Elastic Constant Matrix: (Units=GPa)
#
#
# Indices 1 2 3 4 5 6 
#
# 1 198.1779 43.7230 105.3957 0.0000 0.0000 0.0000
# 2 43.7230 125.7859 79.3532 0.0000 0.0000 0.0000
# 3 105.3957 79.3532 176.9558 0.0000 0.0000 0.0000
# 4 0.0000 0.0000 0.0000 43.9200 0.0000 0.0000
# 5 0.0000 0.0000 0.0000 0.0000 25.7657 0.0000
# 6 0.0000 0.0000 0.0000 0.0000 0.0000 27.1482
#
#
#
# Elastic Compliance Matrix: (Units=1/GPa)
#
#
# Indices 1 2 3 4 5 6 
#
# 1 0.007393 0.000290 -0.004533 0.000000 0.000000 0.000000
# 2 0.000290 0.011098 -0.005149 0.000000 0.000000 0.000000
# 3 -0.004533 -0.005149 0.010660 0.000000 0.000000 0.000000
# 4 0.000000 0.000000 0.000000 0.022769 0.000000 0.000000
# 5 0.000000 0.000000 0.000000 0.000000 0.038811 0.000000
# 6 0.000000 0.000000 0.000000 0.000000 0.000000 0.036835
#
#
# Mechanical properties :
#
#
# Convention : Reuss Voigt Hill
#
# Bulk Modulus (GPa) = 96.47145 106.42927 101.45036
# Shear Modulus (GPa) = 33.37645 37.52998 35.45321
#
# Velocity S-wave (km/s) = 3.87399 4.10798 3.99270
# Velocity P-wave (km/s) = 7.96173 8.38790 8.17759
#
# Compressibility (1/GPa) = 0.01036576
#
# Stress axis : x y z
#
# Youngs Moduli (GPa) = 135.26480 90.10857 93.80511
#
# Poissons Ratio (x) = -0.02614 0.42525
# Poissons Ratio (y) = -0.03925 0.48304
# Poissons Ratio (z) = 0.61320 0.46401
#
# Static dielectric constant tensor:
#      x y z
#    x 1.924840 0.000000 0.000000 
#    y 0.000000 1.941990 0.000000 
#    z 0.000000 0.000000 1.964280 
# 
# From -- ./inp_files/42738.got.cif
#   From: 2010.05.17/outbox.cif.g08.bks.cpg/sg70_22_cif.got.tgz:42738.got - 2010.06.03 15:57:51.
