data_PCOD9515719
_publ_section_title
;
Structure prediction by ZEFSAII (Michael W. Deem and Ramdas Pophale) SiO2 
 PCOD9515719
Probable space group: F D D D
;
_chemical_formula_sum "Si O2"
_cell_formula_units_Z 208
_cell_length_a 23.405507
_cell_length_b 25.951710
_cell_length_c 17.550578
_cell_angle_alpha 90.000000
_cell_angle_beta 90.000000
_cell_angle_gamma 90.000000
_cell_volume 10660.448007
_symmetry_space_group_name_H-M "F D D D"
_symmetry_group_IT_number 70
_space_group.IT_coordinate_system_code '2'
_symmetry_cell_setting 'orthorhombic'
loop_
_space_group_symop_operation_xyz
x,y,z
1/4-x,1/4-y,z
x,1/4-y,1/4-z
1/4-x,y,1/4-z
-x,-y,-z
3/4+x,3/4+y,-z
-x,3/4+y,3/4+z
3/4+x,-y,3/4+z
x,1/2+y,1/2+z
1/4-x,3/4-y,1/2+z
x,3/4-y,3/4-z
1/4-x,1/2+y,3/4-z
-x,1/2-y,1/2-z
3/4+x,1/4+y,1/2-z
-x,1/4+y,1/4+z
3/4+x,1/2-y,1/4+z
1/2+x,y,1/2+z
3/4-x,1/4-y,1/2+z
1/2+x,1/4-y,3/4-z
3/4-x,y,3/4-z
1/2-x,-y,1/2-z
1/4+x,3/4+y,1/2-z
1/2-x,3/4+y,1/4+z
1/4+x,-y,1/4+z
1/2+x,1/2+y,z
3/4-x,3/4-y,z
1/2+x,3/4-y,1/4-z
3/4-x,1/2+y,1/4-z
1/2-x,1/2-y,-z
1/4+x,1/4+y,-z
1/2-x,1/4+y,3/4+z
1/4+x,1/2-y,3/4+z
loop_
_atom_site_type_symbol
_atom_site_label
_atom_site_fract_x
_atom_site_fract_y
_atom_site_fract_z
Si Si1 0.771357 0.539555 0.585145
Si Si2 0.557348 0.799609 0.614895
Si Si3 0.424544 0.466807 0.786071
Si Si4 0.566377 0.865797 0.252094
Si Si5 0.023036 0.125000 0.125000
Si Si6 0.197937 0.855324 0.980083
Si Si7 0.450041 0.009437 0.439068
O O1 0.714590 0.507960 0.604442
O O2 0.808596 0.495213 0.542624
O O3 0.794664 0.562948 0.664043
O O4 0.767765 0.591645 0.534997
O O5 0.625000 0.800236 0.625000
O O6 0.543226 0.833578 0.540417
O O7 0.535648 0.829028 0.690181
O O8 0.439847 0.409519 0.816711
O O9 0.460548 0.497948 0.850651
O O10 0.356452 0.475653 0.792647
O O11 0.523434 0.848521 0.318814
O O12 0.631357 0.877660 0.274429
O O13 0.568287 0.818639 0.194294
O O14 0.500000 0.000000 0.500000
#
# Coordination Sequence:
#
# PCOD9515719 Si02
#       7
#    32  32  32  32  16  32  32
#     4  11  20  40  63  94 124 169 211 274 323 384
#     4  10  22  39  63  96 128 161 215 277 328 386
#     4  11  24  39  63  93 131 170 217 263 328 392
#     4  11  21  38  62  94 122 168 218 270 321 393
#     4  12  22  39  60  94 132 168 215 264 328 394
#     4  10  22  37  67  93 126 166 224 268 325 395
#     4  11  23  40  60  89 130 172 213 266 322 389
#
# _framework density 19.511375000000001
#
# number of rings (size 3 to 8) (size 9 to 14) (size 15 to 20)
#    0.000    1.231    4.615    2.308    4.308    1.231 
#    0.000    1.538    0.000    0.000    0.000    0.000 
#    0.000    0.000    0.000    0.000    0.000    0.000 
#
# Total GULP energy -289565.232457 kJ/mol
# GULP energy per Si atom -5568.562163 kJ/mol
# Density = 1.946697 g / cm^3
# Si number density = 19.511375 Si / 1000 Ang^3
#
#
#
# Elastic Constant Matrix: (Units=GPa)
#
#
# Indices 1 2 3 4 5 6 
#
# 1 52.8624 28.5044 17.0921 0.0000 0.0000 0.0000
# 2 28.5044 109.3305 23.8155 0.0000 0.0000 0.0000
# 3 17.0921 23.8155 60.2136 0.0000 0.0000 0.0000
# 4 0.0000 0.0000 0.0000 27.9458 0.0000 0.0000
# 5 0.0000 0.0000 0.0000 0.0000 29.1869 0.0000
# 6 0.0000 0.0000 0.0000 0.0000 0.0000 26.5937
#
#
#
# Elastic Compliance Matrix: (Units=1/GPa)
#
#
# Indices 1 2 3 4 5 6 
#
# 1 0.023106 -0.005029 -0.004570 0.000000 0.000000 0.000000
# 2 -0.005029 0.011103 -0.002964 0.000000 0.000000 0.000000
# 3 -0.004570 -0.002964 0.019077 0.000000 0.000000 0.000000
# 4 0.000000 0.000000 0.000000 0.035784 0.000000 0.000000
# 5 0.000000 0.000000 0.000000 0.000000 0.034262 0.000000
# 6 0.000000 0.000000 0.000000 0.000000 0.000000 0.037603
#
#
# Mechanical properties :
#
#
# Convention : Reuss Voigt Hill
#
# Bulk Modulus (GPa) = 35.50995 40.13673 37.82334
# Shear Modulus (GPa) = 25.58230 26.94491 26.26360
#
# Velocity S-wave (km/s) = 3.62491 3.72019 3.67286
# Velocity P-wave (km/s) = 5.97989 6.25050 6.11669
#
# Compressibility (1/GPa) = 0.02816112
#
# Stress axis : x y z
#
# Youngs Moduli (GPa) = 43.27842 90.06303 52.41880
#
# Poissons Ratio (x) = 0.45290 0.23955
# Poissons Ratio (y) = 0.21764 0.15538
# Poissons Ratio (z) = 0.19778 0.26696
#
# Static dielectric constant tensor:
#      x y z
#    x 1.691610 0.000000 0.000000 
#    y 0.000000 1.742050 0.000000 
#    z 0.000000 0.000000 1.760110 
# 
# From -- ./inp_files/37693.got.cif
#   From: 2010.05.17/outbox.cif.g08.bks.cpg/sg70_19_cif.got.tgz:37693.got - 2010.06.03 15:57:51.
