data_PCOD9515934
_publ_section_title
;
Structure prediction by ZEFSAII (Michael W. Deem and Ramdas Pophale) SiO2 
 PCOD9515934
Probable space group: F D D D
;
_chemical_formula_sum "Si O2"
_cell_formula_units_Z 216
_cell_length_a 20.064202
_cell_length_b 24.206914
_cell_length_c 23.700592
_cell_angle_alpha 90.000000
_cell_angle_beta 90.000000
_cell_angle_gamma 90.000000
_cell_volume 11511.197701
_symmetry_space_group_name_H-M "F D D D"
_symmetry_group_IT_number 70
_space_group.IT_coordinate_system_code '2'
_symmetry_cell_setting 'orthorhombic'
loop_
_space_group_symop_operation_xyz
x,y,z
1/4-x,1/4-y,z
x,1/4-y,1/4-z
1/4-x,y,1/4-z
-x,-y,-z
3/4+x,3/4+y,-z
-x,3/4+y,3/4+z
3/4+x,-y,3/4+z
x,1/2+y,1/2+z
1/4-x,3/4-y,1/2+z
x,3/4-y,3/4-z
1/4-x,1/2+y,3/4-z
-x,1/2-y,1/2-z
3/4+x,1/4+y,1/2-z
-x,1/4+y,1/4+z
3/4+x,1/2-y,1/4+z
1/2+x,y,1/2+z
3/4-x,1/4-y,1/2+z
1/2+x,1/4-y,3/4-z
3/4-x,y,3/4-z
1/2-x,-y,1/2-z
1/4+x,3/4+y,1/2-z
1/2-x,3/4+y,1/4+z
1/4+x,-y,1/4+z
1/2+x,1/2+y,z
3/4-x,3/4-y,z
1/2+x,3/4-y,1/4-z
3/4-x,1/2+y,1/4-z
1/2-x,1/2-y,-z
1/4+x,1/4+y,-z
1/2-x,1/4+y,3/4+z
1/4+x,1/2-y,3/4+z
loop_
_atom_site_type_symbol
_atom_site_label
_atom_site_fract_x
_atom_site_fract_y
_atom_site_fract_z
Si Si1 0.011432 0.887300 0.121886
Si Si2 0.125000 0.625000 0.928536
Si Si3 0.808559 0.304474 0.776120
Si Si4 0.678648 0.492554 0.176060
Si Si5 0.049173 0.114122 0.058545
Si Si6 0.415528 0.159868 0.987459
Si Si7 0.125000 0.125000 0.625000
Si Si8 0.060498 0.325624 0.512748
O O1 0.938820 0.865708 0.138871
O O2 0.016590 0.950273 0.098827
O O3 0.055739 0.888437 0.177814
O O4 0.044678 0.851008 0.073874
O O5 0.151035 0.578525 0.972125
O O6 0.730351 0.319233 0.769960
O O7 0.834643 0.334712 0.832466
O O8 0.817737 0.239095 0.771425
O O9 0.625000 0.505456 0.125000
O O10 0.710772 0.548528 0.198910
O O11 0.635591 0.459214 0.222377
O O12 0.125000 0.125000 0.040866
O O13 0.042840 0.125000 0.125000
O O14 0.000834 0.155087 0.025924
O O15 0.374371 0.108393 0.011799
#
# Coordination Sequence:
#
# PCOD9515934 Si02
#       8
#    32  16  32  32  32  32   8  32
#     4   9  20  36  62  86 114 156 208 245 304 363
#     4   9  20  41  58  88 115 154 199 258 308 360
#     4  10  22  43  65  86 126 156 205 258 314 372
#     4   9  16  34  58  78 119 161 191 241 288 358
#     4  11  22  34  54  87 126 167 202 235 303 367
#     4   9  20  40  61  88 118 162 201 250 310 364
#     4  10  24  44  68  92 120 160 204 260 316 372
#     4  11  23  38  62  92 121 162 206 255 303 371
#
# _framework density 18.764337000000001
#
# number of rings (size 3 to 8) (size 9 to 14) (size 15 to 20)
#    0.000    2.222    1.481    2.222    7.259    2.370 
#    6.667    2.222    0.000    0.000    0.000    0.000 
#    0.000    0.000    0.000    0.000    0.000    0.000 
#
# Total GULP energy -301141.897774 kJ/mol
# GULP energy per Si atom -5576.701811 kJ/mol
# Density = 1.872163 g / cm^3
# Si number density = 18.764337 Si / 1000 Ang^3
#
#
#
# Elastic Constant Matrix: (Units=GPa)
#
#
# Indices 1 2 3 4 5 6 
#
# 1 82.2012 37.1452 17.6448 0.0000 0.0000 0.0000
# 2 37.1452 137.0959 18.2321 0.0000 0.0000 0.0000
# 3 17.6448 18.2321 29.3145 0.0000 0.0000 0.0000
# 4 0.0000 0.0000 0.0000 17.2618 0.0000 0.0000
# 5 0.0000 0.0000 0.0000 0.0000 6.8049 0.0000
# 6 0.0000 0.0000 0.0000 0.0000 0.0000 22.0881
#
#
#
# Elastic Compliance Matrix: (Units=1/GPa)
#
#
# Indices 1 2 3 4 5 6 
#
# 1 0.015121 -0.003147 -0.007144 0.000000 0.000000 0.000000
# 2 -0.003147 0.008607 -0.003459 0.000000 0.000000 0.000000
# 3 -0.007144 -0.003459 0.040564 0.000000 0.000000 0.000000
# 4 0.000000 0.000000 0.000000 0.057931 0.000000 0.000000
# 5 0.000000 0.000000 0.000000 0.000000 0.146954 0.000000
# 6 0.000000 0.000000 0.000000 0.000000 0.000000 0.045273
#
#
# Mechanical properties :
#
#
# Convention : Reuss Voigt Hill
#
# Bulk Modulus (GPa) = 27.17982 43.85064 35.51523
# Shear Modulus (GPa) = 14.11576 20.93692 17.52634
#
# Velocity S-wave (km/s) = 2.74572 3.34396 3.05950
# Velocity P-wave (km/s) = 4.95664 6.19106 5.60792
#
# Compressibility (1/GPa) = 0.03679200
#
# Stress axis : x y z
#
# Youngs Moduli (GPa) = 66.13406 116.18788 24.65219
#
# Poissons Ratio (x) = 0.36562 0.17612
# Poissons Ratio (y) = 0.20811 0.08527
# Poissons Ratio (z) = 0.47248 0.40188
#
# Static dielectric constant tensor:
#      x y z
#    x 1.690070 0.000000 0.000000 
#    y 0.000000 1.674390 0.000000 
#    z 0.000000 0.000000 1.659160 
# 
# From -- ./inp_files/60597.got.cif
#   From: 2010.05.17/outbox.cif.g08.bks.cpg/sg70_31_cif.got.tgz:60597.got - 2010.06.03 15:57:51.
