data_PCOD9515084
_publ_section_title
;
Structure prediction by ZEFSAII (Michael W. Deem and Ramdas Pophale) SiO2 
 PCOD9515084
Probable space group: F D D D
;
_chemical_formula_sum "Si O2"
_cell_formula_units_Z 168
_cell_length_a 20.411327
_cell_length_b 15.474652
_cell_length_c 24.818350
_cell_angle_alpha 90.000000
_cell_angle_beta 90.000000
_cell_angle_gamma 90.000000
_cell_volume 7839.078916
_symmetry_space_group_name_H-M "F D D D"
_symmetry_group_IT_number 70
_space_group.IT_coordinate_system_code '2'
_symmetry_cell_setting 'orthorhombic'
loop_
_space_group_symop_operation_xyz
x,y,z
1/4-x,1/4-y,z
x,1/4-y,1/4-z
1/4-x,y,1/4-z
-x,-y,-z
3/4+x,3/4+y,-z
-x,3/4+y,3/4+z
3/4+x,-y,3/4+z
x,1/2+y,1/2+z
1/4-x,3/4-y,1/2+z
x,3/4-y,3/4-z
1/4-x,1/2+y,3/4-z
-x,1/2-y,1/2-z
3/4+x,1/4+y,1/2-z
-x,1/4+y,1/4+z
3/4+x,1/2-y,1/4+z
1/2+x,y,1/2+z
3/4-x,1/4-y,1/2+z
1/2+x,1/4-y,3/4-z
3/4-x,y,3/4-z
1/2-x,-y,1/2-z
1/4+x,3/4+y,1/2-z
1/2-x,3/4+y,1/4+z
1/4+x,-y,1/4+z
1/2+x,1/2+y,z
3/4-x,3/4-y,z
1/2+x,3/4-y,1/4-z
3/4-x,1/2+y,1/4-z
1/2-x,1/2-y,-z
1/4+x,1/4+y,-z
1/2-x,1/4+y,3/4+z
1/4+x,1/2-y,3/4+z
loop_
_atom_site_type_symbol
_atom_site_label
_atom_site_fract_x
_atom_site_fract_y
_atom_site_fract_z
Si Si1 0.125000 0.125000 0.625000
Si Si2 0.098787 0.215776 0.210972
Si Si3 0.028602 0.181168 0.320614
Si Si4 0.913447 0.137229 0.817746
Si Si5 0.948229 0.903110 0.190548
Si Si6 0.197719 0.757030 0.205484
O O1 0.172859 0.185823 0.661618
O O2 0.125000 0.125000 0.190545
O O3 0.079936 0.203543 0.273836
O O4 0.151630 0.288522 0.197919
O O5 0.032137 0.252809 0.185193
O O6 0.056224 0.191509 0.380382
O O7 0.998313 0.084048 0.311095
O O8 0.875000 0.147723 0.875000
O O9 0.869816 0.194308 0.778744
O O10 0.989392 0.161108 0.816939
O O11 0.875000 0.875000 0.204449
O O12 0.970309 0.960812 0.240683
#
# Coordination Sequence:
#
# PCOD9515084 Si02
#       6
#     8  32  32  32  32  32
#     4  12  20  44  68  96 126 200 240 280 348 444
#     4  10  20  39  70  98 132 191 226 267 358 436
#     4  10  22  44  64 102 148 171 224 310 342 412
#     4  11  22  46  67  97 143 185 225 291 352 419
#     4  12  24  41  70 103 134 184 235 292 354 409
#     4  11  23  44  71 100 136 184 238 283 355 424
#
# _framework density 21.431089
#
# number of rings (size 3 to 8) (size 9 to 14) (size 15 to 20)
#    0.000    1.143    5.714    1.714    0.000    1.143 
#    6.857    7.619    0.000    0.000    0.000    0.000 
#    0.000    0.000    0.000    0.000    0.000    0.000 
#
# Total GULP energy -234081.461991 kJ/mol
# GULP energy per Si atom -5573.368143 kJ/mol
# Density = 2.138231 g / cm^3
# Si number density = 21.431089 Si / 1000 Ang^3
#
#
#
# Elastic Constant Matrix: (Units=GPa)
#
#
# Indices 1 2 3 4 5 6 
#
# 1 95.7477 8.2585 2.4640 0.0000 0.0000 0.0000
# 2 8.2585 103.3162 35.5953 0.0000 0.0000 0.0000
# 3 2.4640 35.5953 105.5569 0.0000 0.0000 0.0000
# 4 0.0000 0.0000 0.0000 -16.4046 0.0000 0.0000
# 5 0.0000 0.0000 0.0000 0.0000 25.5986 0.0000
# 6 0.0000 0.0000 0.0000 0.0000 0.0000 20.1565
#
#
#
# Elastic Compliance Matrix: (Units=1/GPa)
#
#
# Indices 1 2 3 4 5 6 
#
# 1 0.010517 -0.000855 0.000043 0.000000 0.000000 0.000000
# 2 -0.000855 0.011021 -0.003696 0.000000 0.000000 0.000000
# 3 0.000043 -0.003696 0.010719 0.000000 0.000000 0.000000
# 4 0.000000 0.000000 0.000000 -0.060959 0.000000 0.000000
# 5 0.000000 0.000000 0.000000 0.000000 0.039065 0.000000
# 6 0.000000 0.000000 0.000000 0.000000 0.000000 0.049612
#
#
# Mechanical properties :
#
#
# Convention : Reuss Voigt Hill
#
# Bulk Modulus (GPa) = 43.03126 44.13961 43.58544
# Shear Modulus (GPa) = 65.15617 23.09031 44.12324
#
# Velocity S-wave (km/s) = 5.51984 3.28597 4.54237
# Velocity P-wave (km/s) = 7.79406 5.91925 6.92044
#
# Compressibility (1/GPa) = 0.02323892
#
# Stress axis : x y z
#
# Youngs Moduli (GPa) = 95.08603 90.73635 93.29175
#
# Poissons Ratio (x) = 0.07762 -0.00401
# Poissons Ratio (y) = 0.08134 0.34485
# Poissons Ratio (z) = -0.00409 0.33540
#
# Static dielectric constant tensor:
#      x y z
#    x 1.820970 0.000000 0.000000 
#    y 0.000000 1.822960 0.000000 
#    z 0.000000 0.000000 1.836680 
# 
# From -- ./inp_files/60294.got.cif
#   From: 2010.05.17/outbox.cif.g08.bks.cpg/sg70_31_cif.got.tgz:60294.got - 2010.06.03 15:57:51.
