data_PCOD9515604
_publ_section_title
;
Structure prediction by ZEFSAII (Michael W. Deem and Ramdas Pophale) SiO2 
 PCOD9515604
Probable space group: F D D D
;
_chemical_formula_sum "Si O2"
_cell_formula_units_Z 80
_cell_length_a 11.486620
_cell_length_b 23.543179
_cell_length_c 11.275269
_cell_angle_alpha 90.000000
_cell_angle_beta 90.000000
_cell_angle_gamma 90.000000
_cell_volume 3049.188481
_symmetry_space_group_name_H-M "F D D D"
_symmetry_group_IT_number 70
_space_group.IT_coordinate_system_code '2'
_symmetry_cell_setting 'orthorhombic'
loop_
_space_group_symop_operation_xyz
x,y,z
1/4-x,1/4-y,z
x,1/4-y,1/4-z
1/4-x,y,1/4-z
-x,-y,-z
3/4+x,3/4+y,-z
-x,3/4+y,3/4+z
3/4+x,-y,3/4+z
x,1/2+y,1/2+z
1/4-x,3/4-y,1/2+z
x,3/4-y,3/4-z
1/4-x,1/2+y,3/4-z
-x,1/2-y,1/2-z
3/4+x,1/4+y,1/2-z
-x,1/4+y,1/4+z
3/4+x,1/2-y,1/4+z
1/2+x,y,1/2+z
3/4-x,1/4-y,1/2+z
1/2+x,1/4-y,3/4-z
3/4-x,y,3/4-z
1/2-x,-y,1/2-z
1/4+x,3/4+y,1/2-z
1/2-x,3/4+y,1/4+z
1/4+x,-y,1/4+z
1/2+x,1/2+y,z
3/4-x,3/4-y,z
1/2+x,3/4-y,1/4-z
3/4-x,1/2+y,1/4-z
1/2-x,1/2-y,-z
1/4+x,1/4+y,-z
1/2-x,1/4+y,3/4+z
1/4+x,1/2-y,3/4+z
loop_
_atom_site_type_symbol
_atom_site_label
_atom_site_fract_x
_atom_site_fract_y
_atom_site_fract_z
Si Si1 0.494760 0.529650 0.171466
Si Si2 0.303542 0.945491 0.684550
Si Si3 0.676115 0.375000 0.875000
O O1 0.625000 0.528532 0.125000
O O2 0.436279 0.467487 0.174238
O O3 0.502248 0.556679 0.302959
O O4 0.409595 0.571773 0.099069
O O5 0.258207 0.895174 0.767197
O O6 0.250000 0.000000 0.750000
#
# Coordination Sequence:
#
# PCOD9515604 Si02
#       3
#    32  32  16
#     4  11  23  46  74 108 152 201 255 322 389 455
#     4  10  22  45  72 105 147 196 252 313 383 457
#     4  10  21  42  69 106 146 196 258 304 368 470
#
# _framework density 26.236488999999999
#
# number of rings (size 3 to 8) (size 9 to 14) (size 15 to 20)
#    0.000    1.600    0.000    6.600    0.000    0.000 
#    0.000   72.000    0.000    2.400    0.000    0.000 
#    0.000    0.000    0.000    0.000    0.000    0.000 
#
# Total GULP energy -112027.393604 kJ/mol
# GULP energy per Si atom -5601.369680 kJ/mol
# Density = 2.617677 g / cm^3
# Si number density = 26.236489 Si / 1000 Ang^3
#
#
#
# Elastic Constant Matrix: (Units=GPa)
#
#
# Indices 1 2 3 4 5 6 
#
# 1 235.6149 84.8639 61.3034 0.0000 0.0000 0.0000
# 2 84.8639 181.7570 54.8398 0.0000 0.0000 0.0000
# 3 61.3034 54.8398 171.3582 0.0000 0.0000 0.0000
# 4 0.0000 0.0000 0.0000 44.9423 0.0000 0.0000
# 5 0.0000 0.0000 0.0000 0.0000 6.7680 0.0000
# 6 0.0000 0.0000 0.0000 0.0000 0.0000 46.5940
#
#
#
# Elastic Compliance Matrix: (Units=1/GPa)
#
#
# Indices 1 2 3 4 5 6 
#
# 1 0.005326 -0.002116 -0.001228 0.000000 0.000000 0.000000
# 2 -0.002116 0.006931 -0.001461 0.000000 0.000000 0.000000
# 3 -0.001228 -0.001461 0.006743 0.000000 0.000000 0.000000
# 4 0.000000 0.000000 0.000000 0.022251 0.000000 0.000000
# 5 0.000000 0.000000 0.000000 0.000000 0.147755 0.000000
# 6 0.000000 0.000000 0.000000 0.000000 0.000000 0.021462
#
#
# Mechanical properties :
#
#
# Convention : Reuss Voigt Hill
#
# Bulk Modulus (GPa) = 106.51028 110.08271 108.29649
# Shear Modulus (GPa) = 22.40075 45.50905 33.95490
#
# Velocity S-wave (km/s) = 2.92516 4.16934 3.60138
# Velocity P-wave (km/s) = 7.21756 8.07631 7.65898
#
# Compressibility (1/GPa) = 0.00938877
#
# Stress axis : x y z
#
# Youngs Moduli (GPa) = 187.75960 144.28512 148.30973
#
# Poissons Ratio (x) = 0.30533 0.18214
# Poissons Ratio (y) = 0.39733 0.21668
# Poissons Ratio (z) = 0.23059 0.21080
#
# Static dielectric constant tensor:
#      x y z
#    x 2.132150 0.000000 0.000000 
#    y 0.000000 2.140480 0.000000 
#    z 0.000000 0.000000 2.050170 
# 
# From -- ./inp_files/13846.got.cif
#   From: 2010.05.17/outbox.cif.g08.bks.cpg/sg70_7_cif.got.tgz:13846.got - 2010.06.03 15:57:51.
