data_PCOD9515478
_publ_section_title
;
Structure prediction by ZEFSAII (Michael W. Deem and Ramdas Pophale) SiO2 
 PCOD9515478
Probable space group: F D D D
;
_chemical_formula_sum "Si O2"
_cell_formula_units_Z 176
_cell_length_a 14.403560
_cell_length_b 25.758514
_cell_length_c 23.436414
_cell_angle_alpha 90.000000
_cell_angle_beta 90.000000
_cell_angle_gamma 90.000000
_cell_volume 8695.244779
_symmetry_space_group_name_H-M "F D D D"
_symmetry_group_IT_number 70
_space_group.IT_coordinate_system_code '2'
_symmetry_cell_setting 'orthorhombic'
loop_
_space_group_symop_operation_xyz
x,y,z
1/4-x,1/4-y,z
x,1/4-y,1/4-z
1/4-x,y,1/4-z
-x,-y,-z
3/4+x,3/4+y,-z
-x,3/4+y,3/4+z
3/4+x,-y,3/4+z
x,1/2+y,1/2+z
1/4-x,3/4-y,1/2+z
x,3/4-y,3/4-z
1/4-x,1/2+y,3/4-z
-x,1/2-y,1/2-z
3/4+x,1/4+y,1/2-z
-x,1/4+y,1/4+z
3/4+x,1/2-y,1/4+z
1/2+x,y,1/2+z
3/4-x,1/4-y,1/2+z
1/2+x,1/4-y,3/4-z
3/4-x,y,3/4-z
1/2-x,-y,1/2-z
1/4+x,3/4+y,1/2-z
1/2-x,3/4+y,1/4+z
1/4+x,-y,1/4+z
1/2+x,1/2+y,z
3/4-x,3/4-y,z
1/2+x,3/4-y,1/4-z
3/4-x,1/2+y,1/4-z
1/2-x,1/2-y,-z
1/4+x,1/4+y,-z
1/2-x,1/4+y,3/4+z
1/4+x,1/2-y,3/4+z
loop_
_atom_site_type_symbol
_atom_site_label
_atom_site_fract_x
_atom_site_fract_y
_atom_site_fract_z
Si Si1 0.086301 0.936898 0.381977
Si Si2 0.848229 0.760659 0.030342
Si Si3 0.875000 0.587936 0.875000
Si Si4 0.320596 0.757679 0.948911
Si Si5 0.971584 0.498751 0.713703
Si Si6 0.956442 0.909598 0.123912
O O1 0.087583 0.875000 0.375000
O O2 0.119257 0.964737 0.323464
O O3 0.158455 0.958897 0.430178
O O4 0.984155 0.957238 0.402738
O O5 0.836405 0.810323 0.070664
O O6 0.750000 0.750000 0.000000
O O7 0.930232 0.769202 0.985338
O O8 0.911621 0.548707 0.922442
O O9 0.791222 0.623875 0.894500
O O10 0.250000 0.750000 0.000000
O O11 0.415120 0.772939 0.981187
O O12 0.987846 0.452154 0.669531
O O13 0.875000 0.875000 0.150554
#
# Coordination Sequence:
#
# PCOD9515478 Si02
#       6
#    32  32  16  32  32  32
#     4  10  23  42  63  94 127 161 208 258 314 381
#     4  11  24  41  61  89 126 167 211 259 308 370
#     4  12  22  40  65  90 125 166 204 256 310 364
#     4  10  21  40  63  90 125 160 203 260 314 374
#     4  10  22  41  62  90 128 163 203 259 315 371
#     4  11  23  39  62  93 120 157 211 256 302 372
#
# _framework density 20.240949000000001
#
# number of rings (size 3 to 8) (size 9 to 14) (size 15 to 20)
#    0.000    1.455    0.000    6.545    0.000   10.909 
#    0.000    5.909    0.000    0.000    0.000    0.000 
#    0.000    0.000    0.000    0.000    0.000    0.000 
#
# Total GULP energy -245737.909791 kJ/mol
# GULP energy per Si atom -5584.952495 kJ/mol
# Density = 2.019488 g / cm^3
# Si number density = 20.240949 Si / 1000 Ang^3
#
#
#
# Elastic Constant Matrix: (Units=GPa)
#
#
# Indices 1 2 3 4 5 6 
#
# 1 142.3895 50.6877 48.7134 0.0000 0.0000 0.0000
# 2 50.6877 141.0938 51.5222 0.0000 0.0000 0.0000
# 3 48.7134 51.5222 91.8332 0.0000 0.0000 0.0000
# 4 0.0000 0.0000 0.0000 -0.8946 0.0000 0.0000
# 5 0.0000 0.0000 0.0000 0.0000 76.1557 0.0000
# 6 0.0000 0.0000 0.0000 0.0000 0.0000 56.4855
#
#
#
# Elastic Compliance Matrix: (Units=1/GPa)
#
#
# Indices 1 2 3 4 5 6 
#
# 1 0.008954 -0.001864 -0.003704 0.000000 0.000000 0.000000
# 2 -0.001864 0.009302 -0.004230 0.000000 0.000000 0.000000
# 3 -0.003704 -0.004230 0.015227 0.000000 0.000000 0.000000
# 4 0.000000 0.000000 0.000000 -1.117821 0.000000 0.000000
# 5 0.000000 0.000000 0.000000 0.000000 0.013131 0.000000
# 6 0.000000 0.000000 0.000000 0.000000 0.000000 0.017704
#
#
# Mechanical properties :
#
#
# Convention : Reuss Voigt Hill
#
# Bulk Modulus (GPa) = 72.00874 75.24034 73.62454
# Shear Modulus (GPa) = -4.85777 41.30886 18.22555
#
# Velocity S-wave (km/s) = -1.55086 4.52248 3.00397
# Velocity P-wave (km/s) = 5.69615 8.03265 6.96310
#
# Compressibility (1/GPa) = 0.01388720
#
# Stress axis : x y z
#
# Youngs Moduli (GPa) = 111.68622 107.50676 65.67275
#
# Poissons Ratio (x) = 0.20041 0.24323
# Poissons Ratio (y) = 0.20820 0.27778
# Poissons Ratio (z) = 0.41365 0.45473
#
# Static dielectric constant tensor:
#      x y z
#    x 1.717260 0.000000 0.000000 
#    y 0.000000 1.702130 0.000000 
#    z 0.000000 0.000000 1.730940 
# 
# From -- ./inp_files/51225.got.cif
#   From: 2010.05.17/outbox.cif.g08.bks.cpg/sg70_26_cif.got.tgz:51225.got - 2010.06.03 15:57:51.
