data_PCOD9515141
_publ_section_title
;
Structure prediction by ZEFSAII (Michael W. Deem and Ramdas Pophale) SiO2 
 PCOD9515141
Probable space group: F D D D
;
_chemical_formula_sum "Si O2"
_cell_formula_units_Z 152
_cell_length_a 20.112334
_cell_length_b 25.471287
_cell_length_c 14.278799
_cell_angle_alpha 90.000000
_cell_angle_beta 90.000000
_cell_angle_gamma 90.000000
_cell_volume 7314.843554
_symmetry_space_group_name_H-M "F D D D"
_symmetry_group_IT_number 70
_space_group.IT_coordinate_system_code '2'
_symmetry_cell_setting 'orthorhombic'
loop_
_space_group_symop_operation_xyz
x,y,z
1/4-x,1/4-y,z
x,1/4-y,1/4-z
1/4-x,y,1/4-z
-x,-y,-z
3/4+x,3/4+y,-z
-x,3/4+y,3/4+z
3/4+x,-y,3/4+z
x,1/2+y,1/2+z
1/4-x,3/4-y,1/2+z
x,3/4-y,3/4-z
1/4-x,1/2+y,3/4-z
-x,1/2-y,1/2-z
3/4+x,1/4+y,1/2-z
-x,1/4+y,1/4+z
3/4+x,1/2-y,1/4+z
1/2+x,y,1/2+z
3/4-x,1/4-y,1/2+z
1/2+x,1/4-y,3/4-z
3/4-x,y,3/4-z
1/2-x,-y,1/2-z
1/4+x,3/4+y,1/2-z
1/2-x,3/4+y,1/4+z
1/4+x,-y,1/4+z
1/2+x,1/2+y,z
3/4-x,3/4-y,z
1/2+x,3/4-y,1/4-z
3/4-x,1/2+y,1/4-z
1/2-x,1/2-y,-z
1/4+x,1/4+y,-z
1/2-x,1/4+y,3/4+z
1/4+x,1/2-y,3/4+z
loop_
_atom_site_type_symbol
_atom_site_label
_atom_site_fract_x
_atom_site_fract_y
_atom_site_fract_z
Si Si1 0.945551 0.825912 0.426973
Si Si2 0.732291 0.728121 0.395785
Si Si3 0.625000 0.455357 0.125000
Si Si4 0.863485 0.293610 0.521444
Si Si5 0.125000 0.125000 0.125000
Si Si6 0.991825 0.893738 0.130954
O O1 0.981008 0.875000 0.375000
O O2 0.875000 0.819466 0.375000
O O3 0.942928 0.845610 0.532078
O O4 0.983462 0.771256 0.420034
O O5 0.750000 0.750000 0.500000
O O6 0.655737 0.723254 0.362430
O O7 0.755173 0.668463 0.377828
O O8 0.647693 0.492068 0.210654
O O9 0.561669 0.420982 0.151293
O O10 0.904383 0.332603 0.450206
O O11 0.797390 0.325996 0.548219
#
# Coordination Sequence:
#
# PCOD9515141 Si02
#       6
#    32  32  16  32   8  32
#     4  11  24  42  66  99 136 183 227 279 347 424
#     4  12  23  41  71 102 139 179 233 292 352 433
#     4  11  26  45  68  96 145 174 235 304 350 426
#     4  11  23  44  71  99 133 188 236 286 358 428
#     4  10  20  40  72 100 126 184 246 284 332 440
#     4  12  24  44  67 101 137 181 232 290 360 425
#
# _framework density 20.779664
#
# number of rings (size 3 to 8) (size 9 to 14) (size 15 to 20)
#    0.000    0.632    6.316    1.895    4.421    0.000 
#    0.000    0.000    2.316    0.000    0.000    0.000 
#    0.000    0.000    0.000    0.000    0.000    0.000 
#
# Total GULP energy -211611.774098 kJ/mol
# GULP energy per Si atom -5568.730897 kJ/mol
# Density = 2.073237 g / cm^3
# Si number density = 20.779664 Si / 1000 Ang^3
#
#
#
# Elastic Constant Matrix: (Units=GPa)
#
#
# Indices 1 2 3 4 5 6 
#
# 1 79.3137 55.1586 18.0044 0.0000 0.0000 0.0000
# 2 55.1586 190.2936 30.2838 0.0000 0.0000 0.0000
# 3 18.0044 30.2838 62.3210 0.0000 0.0000 0.0000
# 4 0.0000 0.0000 0.0000 34.0984 0.0000 0.0000
# 5 0.0000 0.0000 0.0000 0.0000 24.3205 0.0000
# 6 0.0000 0.0000 0.0000 0.0000 0.0000 32.9418
#
#
#
# Elastic Compliance Matrix: (Units=1/GPa)
#
#
# Indices 1 2 3 4 5 6 
#
# 1 0.016169 -0.004274 -0.002594 0.000000 0.000000 0.000000
# 2 -0.004274 0.006825 -0.002082 0.000000 0.000000 0.000000
# 3 -0.002594 -0.002082 0.017807 0.000000 0.000000 0.000000
# 4 0.000000 0.000000 0.000000 0.029327 0.000000 0.000000
# 5 0.000000 0.000000 0.000000 0.000000 0.041117 0.000000
# 6 0.000000 0.000000 0.000000 0.000000 0.000000 0.030357
#
#
# Mechanical properties :
#
#
# Convention : Reuss Voigt Hill
#
# Bulk Modulus (GPa) = 43.66583 59.86910 51.76747
# Shear Modulus (GPa) = 29.91557 33.50425 31.70991
#
# Velocity S-wave (km/s) = 3.79840 4.01977 3.91065
# Velocity P-wave (km/s) = 6.34795 7.10061 6.73480
#
# Compressibility (1/GPa) = 0.02290120
#
# Stress axis : x y z
#
# Youngs Moduli (GPa) = 61.84494 146.51556 56.15736
#
# Poissons Ratio (x) = 0.62621 0.14570
# Poissons Ratio (y) = 0.26433 0.11691
# Poissons Ratio (z) = 0.16045 0.30502
#
# Static dielectric constant tensor:
#      x y z
#    x 1.742580 0.000000 0.000000 
#    y 0.000000 1.770670 0.000000 
#    z 0.000000 0.000000 1.669910 
# 
# From -- ./inp_files/27599.got.cif
#   From: 2010.05.17/outbox.cif.g08.bks.cpg/sg70_14_cif.got.tgz:27599.got - 2010.06.03 15:57:51.
