data_PCOD9515465
_publ_section_title
;
Structure prediction by ZEFSAII (Michael W. Deem and Ramdas Pophale) SiO2 
 PCOD9515465
Probable space group: F D D D
;
_chemical_formula_sum "Si O2"
_cell_formula_units_Z 112
_cell_length_a 5.497167
_cell_length_b 25.480672
_cell_length_c 30.129288
_cell_angle_alpha 90.000000
_cell_angle_beta 90.000000
_cell_angle_gamma 90.000000
_cell_volume 4220.254843
_symmetry_space_group_name_H-M "F D D D"
_symmetry_group_IT_number 70
_space_group.IT_coordinate_system_code '2'
_symmetry_cell_setting 'orthorhombic'
loop_
_space_group_symop_operation_xyz
x,y,z
1/4-x,1/4-y,z
x,1/4-y,1/4-z
1/4-x,y,1/4-z
-x,-y,-z
3/4+x,3/4+y,-z
-x,3/4+y,3/4+z
3/4+x,-y,3/4+z
x,1/2+y,1/2+z
1/4-x,3/4-y,1/2+z
x,3/4-y,3/4-z
1/4-x,1/2+y,3/4-z
-x,1/2-y,1/2-z
3/4+x,1/4+y,1/2-z
-x,1/4+y,1/4+z
3/4+x,1/2-y,1/4+z
1/2+x,y,1/2+z
3/4-x,1/4-y,1/2+z
1/2+x,1/4-y,3/4-z
3/4-x,y,3/4-z
1/2-x,-y,1/2-z
1/4+x,3/4+y,1/2-z
1/2-x,3/4+y,1/4+z
1/4+x,-y,1/4+z
1/2+x,1/2+y,z
3/4-x,3/4-y,z
1/2+x,3/4-y,1/4-z
3/4-x,1/2+y,1/4-z
1/2-x,1/2-y,-z
1/4+x,1/4+y,-z
1/2-x,1/4+y,3/4+z
1/4+x,1/2-y,3/4+z
loop_
_atom_site_type_symbol
_atom_site_label
_atom_site_fract_x
_atom_site_fract_y
_atom_site_fract_z
Si Si1 0.125000 0.340441 0.125000
Si Si2 0.371866 0.184443 0.607539
Si Si3 0.771975 0.186841 0.005323
Si Si4 0.228998 0.445426 0.721846
O O1 0.375000 0.375000 0.128387
O O2 0.146628 0.307025 0.079307
O O3 0.366325 0.125000 0.625000
O O4 0.625000 0.206495 0.625000
O O5 0.360382 0.179690 0.555190
O O6 0.125000 0.211755 0.625000
O O7 0.495618 0.167919 0.997503
O O8 0.997380 0.173045 0.973593
O O9 0.750000 0.250000 0.000000
O O10 0.250000 0.500000 0.750000
#
# Coordination Sequence:
#
# PCOD9515465 Si02
#       4
#    16  32  32  32
#     4  12  26  50  76 112 153 198 255 320 382 454
#     4  10  21  40  61  97 135 175 220 284 361 419
#     4  10  21  43  66  98 137 180 235 294 350 434
#     4  10  23  47  73 104 143 197 244 299 369 455
#
# _framework density 26.538682000000001
#
# number of rings (size 3 to 8) (size 9 to 14) (size 15 to 20)
#    0.000    1.714    0.000    3.429    0.000    0.000 
#   61.714    0.000    0.000    0.000    0.000    0.000 
#    0.000    0.000    0.000    0.000    0.000    0.000 
#
# Total GULP energy -156674.277285 kJ/mol
# GULP energy per Si atom -5595.509903 kJ/mol
# Density = 2.647828 g / cm^3
# Si number density = 26.538682 Si / 1000 Ang^3
#
#
#
# Elastic Constant Matrix: (Units=GPa)
#
#
# Indices 1 2 3 4 5 6 
#
# 1 295.6181 35.1027 62.2674 0.0000 0.0000 0.0000
# 2 35.1027 84.2412 39.3673 0.0000 0.0000 0.0000
# 3 62.2674 39.3673 249.1649 0.0000 0.0000 0.0000
# 4 0.0000 0.0000 0.0000 39.7807 0.0000 0.0000
# 5 0.0000 0.0000 0.0000 0.0000 57.4237 0.0000
# 6 0.0000 0.0000 0.0000 0.0000 0.0000 33.2432
#
#
#
# Elastic Compliance Matrix: (Units=1/GPa)
#
#
# Indices 1 2 3 4 5 6 
#
# 1 0.003678 -0.001191 -0.000731 0.000000 0.000000 0.000000
# 2 -0.001191 0.013203 -0.001788 0.000000 0.000000 0.000000
# 3 -0.000731 -0.001788 0.004479 0.000000 0.000000 0.000000
# 4 0.000000 0.000000 0.000000 0.025138 0.000000 0.000000
# 5 0.000000 0.000000 0.000000 0.000000 0.017414 0.000000
# 6 0.000000 0.000000 0.000000 0.000000 0.000000 0.030081
#
#
# Mechanical properties :
#
#
# Convention : Reuss Voigt Hill
#
# Bulk Modulus (GPa) = 71.74266 100.27766 86.01016
# Shear Modulus (GPa) = 47.14309 58.90865 53.02587
#
# Velocity S-wave (km/s) = 4.21930 4.71651 4.47482
# Velocity P-wave (km/s) = 7.12942 8.21755 7.69275
#
# Compressibility (1/GPa) = 0.01393871
#
# Stress axis : x y z
#
# Youngs Moduli (GPa) = 271.87614 75.74208 223.28208
#
# Poissons Ratio (x) = 0.09021 0.16322
# Poissons Ratio (y) = 0.32382 0.39930
# Poissons Ratio (z) = 0.19874 0.13545
#
# Static dielectric constant tensor:
#      x y z
#    x 2.090520 0.000000 0.000000 
#    y 0.000000 2.012890 0.000000 
#    z 0.000000 0.000000 1.944030 
# 
# From -- ./inp_files/62923.got.cif
#   From: 2010.05.17/outbox.cif.g08.bks.cpg/sg70_32_cif.got.tgz:62923.got - 2010.06.03 15:57:51.
