data_PCOD9515986
_publ_section_title
;
Structure prediction by ZEFSAII (Michael W. Deem and Ramdas Pophale) SiO2 
 PCOD9515986
Probable space group: F D D D
;
_chemical_formula_sum "Si O2"
_cell_formula_units_Z 112
_cell_length_a 15.482070
_cell_length_b 10.762047
_cell_length_c 28.021371
_cell_angle_alpha 90.000000
_cell_angle_beta 90.000000
_cell_angle_gamma 90.000000
_cell_volume 4668.886230
_symmetry_space_group_name_H-M "F D D D"
_symmetry_group_IT_number 70
_space_group.IT_coordinate_system_code '2'
_symmetry_cell_setting 'orthorhombic'
loop_
_space_group_symop_operation_xyz
x,y,z
1/4-x,1/4-y,z
x,1/4-y,1/4-z
1/4-x,y,1/4-z
-x,-y,-z
3/4+x,3/4+y,-z
-x,3/4+y,3/4+z
3/4+x,-y,3/4+z
x,1/2+y,1/2+z
1/4-x,3/4-y,1/2+z
x,3/4-y,3/4-z
1/4-x,1/2+y,3/4-z
-x,1/2-y,1/2-z
3/4+x,1/4+y,1/2-z
-x,1/4+y,1/4+z
3/4+x,1/2-y,1/4+z
1/2+x,y,1/2+z
3/4-x,1/4-y,1/2+z
1/2+x,1/4-y,3/4-z
3/4-x,y,3/4-z
1/2-x,-y,1/2-z
1/4+x,3/4+y,1/2-z
1/2-x,3/4+y,1/4+z
1/4+x,-y,1/4+z
1/2+x,1/2+y,z
3/4-x,3/4-y,z
1/2+x,3/4-y,1/4-z
3/4-x,1/2+y,1/4-z
1/2-x,1/2-y,-z
1/4+x,1/4+y,-z
1/2-x,1/4+y,3/4+z
1/4+x,1/2-y,3/4+z
loop_
_atom_site_type_symbol
_atom_site_label
_atom_site_fract_x
_atom_site_fract_y
_atom_site_fract_z
Si Si1 0.725800 0.291914 0.300118
Si Si2 0.420484 0.056634 0.972141
Si Si3 0.125000 0.290219 0.625000
Si Si4 0.960106 0.803813 0.654942
O O1 0.806164 0.201549 0.288555
O O2 0.661519 0.286841 0.255603
O O3 0.737207 0.436012 0.313278
O O4 0.688660 0.239309 0.350504
O O5 0.419098 0.985645 0.921534
O O6 0.500000 0.000000 0.000000
O O7 0.204138 0.364456 0.649396
O O8 0.875000 0.875000 0.673469
#
# Coordination Sequence:
#
# PCOD9515986 Si02
#       4
#    32  32  16  32
#     4  10  23  41  69  98 144 182 239 301 373 445
#     4  11  23  44  67 103 140 191 239 307 371 453
#     4  10  24  43  73 100 142 190 240 306 386 448
#     4  10  22  44  69 102 141 187 242 305 371 453
#
# _framework density 23.988589000000001
#
# number of rings (size 3 to 8) (size 9 to 14) (size 15 to 20)
#    0.000    1.714    0.000    4.286    4.000   10.286 
#    0.000    1.429    0.000    0.000    0.000    0.000 
#    0.000    0.000    0.000    0.000    0.000    0.000 
#
# Total GULP energy -156392.299817 kJ/mol
# GULP energy per Si atom -5585.439279 kJ/mol
# Density = 2.393399 g / cm^3
# Si number density = 23.988589 Si / 1000 Ang^3
#
#
#
# Elastic Constant Matrix: (Units=GPa)
#
#
# Indices 1 2 3 4 5 6 
#
# 1 102.1689 35.5245 15.8698 0.0000 0.0000 0.0000
# 2 35.5245 96.1738 -6.0743 0.0000 0.0000 0.0000
# 3 15.8698 -6.0743 162.8443 0.0000 0.0000 0.0000
# 4 0.0000 0.0000 0.0000 26.4948 0.0000 0.0000
# 5 0.0000 0.0000 0.0000 0.0000 47.5629 0.0000
# 6 0.0000 0.0000 0.0000 0.0000 0.0000 41.2686
#
#
#
# Elastic Compliance Matrix: (Units=1/GPa)
#
#
# Indices 1 2 3 4 5 6 
#
# 1 0.011491 -0.004325 -0.001281 0.000000 0.000000 0.000000
# 2 -0.004325 0.012051 0.000871 0.000000 0.000000 0.000000
# 3 -0.001281 0.000871 0.006298 0.000000 0.000000 0.000000
# 4 0.000000 0.000000 0.000000 0.037743 0.000000 0.000000
# 5 0.000000 0.000000 0.000000 0.000000 0.021025 0.000000
# 6 0.000000 0.000000 0.000000 0.000000 0.000000 0.024232
#
#
# Mechanical properties :
#
#
# Convention : Reuss Voigt Hill
#
# Bulk Modulus (GPa) = 49.09547 50.20299 49.64923
# Shear Modulus (GPa) = 38.72989 44.12306 41.42648
#
# Velocity S-wave (km/s) = 4.02246 4.29340 4.16014
# Velocity P-wave (km/s) = 6.48723 6.74915 6.61949
#
# Compressibility (1/GPa) = 0.02036848
#
# Stress axis : x y z
#
# Youngs Moduli (GPa) = 87.02733 82.98384 158.77605
#
# Poissons Ratio (x) = 0.35893 0.20342
# Poissons Ratio (y) = 0.37642 -0.13830
# Poissons Ratio (z) = 0.11149 -0.07228
#
# Static dielectric constant tensor:
#      x y z
#    x 1.908590 0.000000 0.000000 
#    y 0.000000 2.053440 0.000000 
#    z 0.000000 0.000000 1.927220 
# 
# From -- ./inp_files/14979.got.cif
#   From: 2010.05.17/outbox.cif.g08.bks.cpg/sg70_8_cif.got.tgz:14979.got - 2010.06.03 15:57:51.
