data_PCOD9515463
_publ_section_title
;
Structure prediction by ZEFSAII (Michael W. Deem and Ramdas Pophale) SiO2 
 PCOD9515463
Probable space group: F D D D
;
_chemical_formula_sum "Si O2"
_cell_formula_units_Z 144
_cell_length_a 27.237060
_cell_length_b 14.209434
_cell_length_c 20.988558
_cell_angle_alpha 90.000000
_cell_angle_beta 90.000000
_cell_angle_gamma 90.000000
_cell_volume 8123.059015
_symmetry_space_group_name_H-M "F D D D"
_symmetry_group_IT_number 70
_space_group.IT_coordinate_system_code '2'
_symmetry_cell_setting 'orthorhombic'
loop_
_space_group_symop_operation_xyz
x,y,z
1/4-x,1/4-y,z
x,1/4-y,1/4-z
1/4-x,y,1/4-z
-x,-y,-z
3/4+x,3/4+y,-z
-x,3/4+y,3/4+z
3/4+x,-y,3/4+z
x,1/2+y,1/2+z
1/4-x,3/4-y,1/2+z
x,3/4-y,3/4-z
1/4-x,1/2+y,3/4-z
-x,1/2-y,1/2-z
3/4+x,1/4+y,1/2-z
-x,1/4+y,1/4+z
3/4+x,1/2-y,1/4+z
1/2+x,y,1/2+z
3/4-x,1/4-y,1/2+z
1/2+x,1/4-y,3/4-z
3/4-x,y,3/4-z
1/2-x,-y,1/2-z
1/4+x,3/4+y,1/2-z
1/2-x,3/4+y,1/4+z
1/4+x,-y,1/4+z
1/2+x,1/2+y,z
3/4-x,3/4-y,z
1/2+x,3/4-y,1/4-z
3/4-x,1/2+y,1/4-z
1/2-x,1/2-y,-z
1/4+x,1/4+y,-z
1/2-x,1/4+y,3/4+z
1/4+x,1/2-y,3/4+z
loop_
_atom_site_type_symbol
_atom_site_label
_atom_site_fract_x
_atom_site_fract_y
_atom_site_fract_z
Si Si1 0.820795 0.075107 0.505144
Si Si2 0.745758 0.875000 0.875000
Si Si3 0.464535 0.876633 0.800451
Si Si4 0.931177 0.700184 0.870867
Si Si5 0.433952 0.173766 0.251534
O O1 0.787721 0.110710 0.562927
O O2 0.813285 0.138902 0.442702
O O3 0.878320 0.082779 0.522401
O O4 0.805969 0.969458 0.483976
O O5 0.780403 0.784130 0.879913
O O6 0.450761 0.875000 0.875000
O O7 0.523554 0.868362 0.793016
O O8 0.444400 0.783000 0.766502
O O9 0.875000 0.735767 0.875000
O O10 0.938246 0.632913 0.931928
#
# Coordination Sequence:
#
# PCOD9515463 Si02
#       5
#    32  16  32  32  32
#     4  11  23  38  61  88 119 158 196 245 302 352
#     4  12  23  40  58  84 124 156 195 248 294 356
#     4  11  21  38  64  89 121 152 197 249 302 356
#     4  10  21  40  61  84 114 158 206 239 289 358
#     4  10  22  38  60  91 118 152 196 246 303 357
#
# _framework density 17.727312000000001
#
# number of rings (size 3 to 8) (size 9 to 14) (size 15 to 20)
#    0.000    1.333    4.444    1.667    1.556    0.889 
#    0.000    0.000    0.000    0.000    0.000    0.000 
#    0.000    0.000    0.000    0.000    0.000    0.000 
#
# Total GULP energy -201071.586377 kJ/mol
# GULP energy per Si atom -5585.321844 kJ/mol
# Density = 1.768696 g / cm^3
# Si number density = 17.727312 Si / 1000 Ang^3
#
#
#
# Elastic Constant Matrix: (Units=GPa)
#
#
# Indices 1 2 3 4 5 6 
#
# 1 106.7854 61.0463 19.9259 0.0000 0.0000 0.0000
# 2 61.0463 99.6053 17.9817 0.0000 0.0000 0.0000
# 3 19.9259 17.9817 57.2453 0.0000 0.0000 0.0000
# 4 0.0000 0.0000 0.0000 22.2701 0.0000 0.0000
# 5 0.0000 0.0000 0.0000 0.0000 28.0271 0.0000
# 6 0.0000 0.0000 0.0000 0.0000 0.0000 22.7003
#
#
#
# Elastic Compliance Matrix: (Units=1/GPa)
#
#
# Indices 1 2 3 4 5 6 
#
# 1 0.014727 -0.008587 -0.002429 0.000000 0.000000 0.000000
# 2 -0.008587 0.015651 -0.001927 0.000000 0.000000 0.000000
# 3 -0.002429 -0.001927 0.018919 0.000000 0.000000 0.000000
# 4 0.000000 0.000000 0.000000 0.044903 0.000000 0.000000
# 5 0.000000 0.000000 0.000000 0.000000 0.035680 0.000000
# 6 0.000000 0.000000 0.000000 0.000000 0.000000 0.044052
#
#
# Mechanical properties :
#
#
# Convention : Reuss Voigt Hill
#
# Bulk Modulus (GPa) = 42.71560 51.28263 46.99911
# Shear Modulus (GPa) = 24.08223 25.57832 24.83028
#
# Velocity S-wave (km/s) = 3.68976 3.80264 3.74662
# Velocity P-wave (km/s) = 6.50389 6.94777 6.72949
#
# Compressibility (1/GPa) = 0.02341065
#
# Stress axis : x y z
#
# Youngs Moduli (GPa) = 67.90263 63.89536 52.85594
#
# Poissons Ratio (x) = 0.54870 0.12837
# Poissons Ratio (y) = 0.58311 0.10185
# Poissons Ratio (z) = 0.16491 0.12313
#
# Static dielectric constant tensor:
#      x y z
#    x 1.616080 0.000000 0.000000 
#    y 0.000000 1.569790 0.000000 
#    z 0.000000 0.000000 1.573370 
# 
# From -- ./inp_files/19223.got.cif
#   From: 2010.05.17/outbox.cif.g08.bks.cpg/sg70_10_cif.got.tgz:19223.got - 2010.06.03 15:57:51.
