data_PCOD9515116
_publ_section_title
;
Structure prediction by ZEFSAII (Michael W. Deem and Ramdas Pophale) SiO2 
 PCOD9515116
Probable space group: F D D D
;
_chemical_formula_sum "Si O2"
_cell_formula_units_Z 168
_cell_length_a 16.325566
_cell_length_b 23.911200
_cell_length_c 21.054394
_cell_angle_alpha 90.000000
_cell_angle_beta 90.000000
_cell_angle_gamma 90.000000
_cell_volume 8218.874801
_symmetry_space_group_name_H-M "F D D D"
_symmetry_group_IT_number 70
_space_group.IT_coordinate_system_code '2'
_symmetry_cell_setting 'orthorhombic'
loop_
_space_group_symop_operation_xyz
x,y,z
1/4-x,1/4-y,z
x,1/4-y,1/4-z
1/4-x,y,1/4-z
-x,-y,-z
3/4+x,3/4+y,-z
-x,3/4+y,3/4+z
3/4+x,-y,3/4+z
x,1/2+y,1/2+z
1/4-x,3/4-y,1/2+z
x,3/4-y,3/4-z
1/4-x,1/2+y,3/4-z
-x,1/2-y,1/2-z
3/4+x,1/4+y,1/2-z
-x,1/4+y,1/4+z
3/4+x,1/2-y,1/4+z
1/2+x,y,1/2+z
3/4-x,1/4-y,1/2+z
1/2+x,1/4-y,3/4-z
3/4-x,y,3/4-z
1/2-x,-y,1/2-z
1/4+x,3/4+y,1/2-z
1/2-x,3/4+y,1/4+z
1/4+x,-y,1/4+z
1/2+x,1/2+y,z
3/4-x,3/4-y,z
1/2+x,3/4-y,1/4-z
3/4-x,1/2+y,1/4-z
1/2-x,1/2-y,-z
1/4+x,1/4+y,-z
1/2-x,1/4+y,3/4+z
1/4+x,1/2-y,3/4+z
loop_
_atom_site_type_symbol
_atom_site_label
_atom_site_fract_x
_atom_site_fract_y
_atom_site_fract_z
Si Si1 0.375000 0.875000 0.375000
Si Si2 0.277496 0.875490 0.605617
Si Si3 0.717047 0.213790 0.285666
Si Si4 0.727790 0.344822 0.285601
Si Si5 0.969901 0.307310 0.721947
Si Si6 0.809811 0.146778 0.192752
O O1 0.438757 0.903613 0.326361
O O2 0.375000 0.875000 0.596347
O O3 0.256509 0.820382 0.649619
O O4 0.239416 0.885093 0.536991
O O5 0.260127 0.929871 0.648859
O O6 0.701841 0.279973 0.292651
O O7 0.627696 0.188663 0.269749
O O8 0.778939 0.203680 0.226248
O O9 0.657098 0.387309 0.308919
O O10 0.000000 0.250000 0.750000
O O11 0.020199 0.353667 0.758576
O O12 0.778023 0.125000 0.125000
#
# Coordination Sequence:
#
# PCOD9515116 Si02
#       6
#     8  32  32  32  32  32
#     4  12  28  48  64 100 126 180 242 296 320 406
#     4   9  21  41  65  93 133 170 217 278 335 409
#     4  10  24  42  67 100 135 177 223 272 351 415
#     4  12  24  45  70  93 133 183 232 288 345 395
#     4  10  20  40  65  98 135 170 215 273 343 417
#     4  11  24  41  62  99 139 167 224 283 329 416
#
# _framework density 20.440753999999998
#
# number of rings (size 3 to 8) (size 9 to 14) (size 15 to 20)
#    0.000    1.524    3.810    1.714    2.667    6.095 
#    0.000    1.905    0.000    0.000    0.000    0.000 
#    0.000    0.000    0.000    0.000    0.000    0.000 
#
# Total GULP energy -233828.958975 kJ/mol
# GULP energy per Si atom -5567.356166 kJ/mol
# Density = 2.039423 g / cm^3
# Si number density = 20.440754 Si / 1000 Ang^3
#
#
#
# Elastic Constant Matrix: (Units=GPa)
#
#
# Indices 1 2 3 4 5 6 
#
# 1 69.5843 -8.4086 13.6226 0.0000 0.0000 0.0000
# 2 -8.4086 26.7130 -14.0500 0.0000 0.0000 0.0000
# 3 13.6226 -14.0500 127.7007 0.0000 0.0000 0.0000
# 4 0.0000 0.0000 0.0000 14.5096 0.0000 0.0000
# 5 0.0000 0.0000 0.0000 0.0000 36.3802 0.0000
# 6 0.0000 0.0000 0.0000 0.0000 0.0000 26.0719
#
#
#
# Elastic Compliance Matrix: (Units=1/GPa)
#
#
# Indices 1 2 3 4 5 6 
#
# 1 0.015098 0.004145 -0.001155 0.000000 0.000000 0.000000
# 2 0.004145 0.040872 0.004055 0.000000 0.000000 0.000000
# 3 -0.001155 0.004055 0.008400 0.000000 0.000000 0.000000
# 4 0.000000 0.000000 0.000000 0.068920 0.000000 0.000000
# 5 0.000000 0.000000 0.000000 0.000000 0.027487 0.000000
# 6 0.000000 0.000000 0.000000 0.000000 0.000000 0.038355
#
#
# Mechanical properties :
#
#
# Convention : Reuss Voigt Hill
#
# Bulk Modulus (GPa) = 12.74513 22.92510 17.83512
# Shear Modulus (GPa) = 23.67467 30.91461 27.29464
#
# Velocity S-wave (km/s) = 3.40694 3.89318 3.65815
# Velocity P-wave (km/s) = 4.66101 5.60793 5.15625
#
# Compressibility (1/GPa) = 0.07846134
#
# Stress axis : x y z
#
# Youngs Moduli (GPa) = 66.23395 24.46638 119.04645
#
# Poissons Ratio (x) = -0.10142 0.13744
# Poissons Ratio (y) = -0.27455 -0.48270
# Poissons Ratio (z) = 0.07647 -0.09920
#
# Static dielectric constant tensor:
#      x y z
#    x 1.764640 0.000000 0.000000 
#    y 0.000000 1.821480 0.000000 
#    z 0.000000 0.000000 1.820540 
# 
# From -- ./inp_files/27679.got.cif
#   From: 2010.05.17/outbox.cif.g08.bks.cpg/sg70_14_cif.got.tgz:27679.got - 2010.06.03 15:57:51.
