data_PCOD9515621
_publ_section_title
;
Structure prediction by ZEFSAII (Michael W. Deem and Ramdas Pophale) SiO2 
 PCOD9515621
Probable space group: F D D D
;
_chemical_formula_sum "Si O2"
_cell_formula_units_Z 240
_cell_length_a 20.558098
_cell_length_b 28.627191
_cell_length_c 20.764264
_cell_angle_alpha 90.000000
_cell_angle_beta 90.000000
_cell_angle_gamma 90.000000
_cell_volume 12220.197067
_symmetry_space_group_name_H-M "F D D D"
_symmetry_group_IT_number 70
_space_group.IT_coordinate_system_code '2'
_symmetry_cell_setting 'orthorhombic'
loop_
_space_group_symop_operation_xyz
x,y,z
1/4-x,1/4-y,z
x,1/4-y,1/4-z
1/4-x,y,1/4-z
-x,-y,-z
3/4+x,3/4+y,-z
-x,3/4+y,3/4+z
3/4+x,-y,3/4+z
x,1/2+y,1/2+z
1/4-x,3/4-y,1/2+z
x,3/4-y,3/4-z
1/4-x,1/2+y,3/4-z
-x,1/2-y,1/2-z
3/4+x,1/4+y,1/2-z
-x,1/4+y,1/4+z
3/4+x,1/2-y,1/4+z
1/2+x,y,1/2+z
3/4-x,1/4-y,1/2+z
1/2+x,1/4-y,3/4-z
3/4-x,y,3/4-z
1/2-x,-y,1/2-z
1/4+x,3/4+y,1/2-z
1/2-x,3/4+y,1/4+z
1/4+x,-y,1/4+z
1/2+x,1/2+y,z
3/4-x,3/4-y,z
1/2+x,3/4-y,1/4-z
3/4-x,1/2+y,1/4-z
1/2-x,1/2-y,-z
1/4+x,1/4+y,-z
1/2-x,1/4+y,3/4+z
1/4+x,1/2-y,3/4+z
loop_
_atom_site_type_symbol
_atom_site_label
_atom_site_fract_x
_atom_site_fract_y
_atom_site_fract_z
Si Si1 0.360306 0.243414 0.477106
Si Si2 0.128742 0.748216 0.887918
Si Si3 0.974331 0.533067 0.857642
Si Si4 0.064586 0.883094 0.077055
Si Si5 0.487530 0.819369 0.067038
Si Si6 0.892726 0.060337 0.724879
Si Si7 0.464624 0.125000 0.125000
Si Si8 0.811223 0.847146 0.476995
O O1 0.365839 0.219622 0.547154
O O2 0.313189 0.217449 0.426574
O O3 0.428963 0.248941 0.439057
O O4 0.330324 0.294264 0.491758
O O5 0.201672 0.730503 0.871047
O O6 0.074729 0.711837 0.914649
O O7 0.109531 0.770715 0.819266
O O8 0.969493 0.583053 0.822513
O O9 0.125000 0.874437 0.125000
O O10 0.018564 0.917774 0.115198
O O11 0.092862 0.908584 0.015295
O O12 0.545749 0.797845 0.022262
O O13 0.466721 0.868480 0.032563
O O14 0.924026 0.092932 0.671171
O O15 0.510839 0.155908 0.169488
O O16 0.875000 0.875000 0.454799
#
# Coordination Sequence:
#
# PCOD9515621 Si02
#       8
#    32  32  32  32  32  32  16  32
#     4  11  23  37  56  88 127 167 202 242 292 362
#     4  12  23  38  60  92 124 154 209 257 310 356
#     4  11  24  37  59  90 127 169 203 247 298 364
#     4  10  21  43  63  82 117 162 211 253 314 361
#     4  10  23  42  64  88 120 162 204 261 306 369
#     4  10  24  41  62  89 119 163 206 258 306 370
#     4  10  23  36  58  86 128 165 200 238 296 372
#     4  11  21  35  58  88 128 168 196 231 295 366
#
# _framework density 19.639617999999999
#
# number of rings (size 3 to 8) (size 9 to 14) (size 15 to 20)
#    0.000    1.333    2.667    3.000    7.467    1.600 
#    0.000    0.000    0.000    0.000    0.000    0.000 
#    0.000    0.000    0.000    0.000    0.000    0.000 
#
# Total GULP energy -334745.989205 kJ/mol
# GULP energy per Si atom -5579.099820 kJ/mol
# Density = 1.959492 g / cm^3
# Si number density = 19.639618 Si / 1000 Ang^3
#
#
#
# Elastic Constant Matrix: (Units=GPa)
#
#
# Indices 1 2 3 4 5 6 
#
# 1 67.6812 16.4776 44.7965 0.0000 0.0000 0.0000
# 2 16.4776 53.0741 45.5178 0.0000 0.0000 0.0000
# 3 44.7965 45.5178 126.7329 0.0000 0.0000 0.0000
# 4 0.0000 0.0000 0.0000 20.2511 0.0000 0.0000
# 5 0.0000 0.0000 0.0000 0.0000 35.8786 0.0000
# 6 0.0000 0.0000 0.0000 0.0000 0.0000 1.2472
#
#
#
# Elastic Compliance Matrix: (Units=1/GPa)
#
#
# Indices 1 2 3 4 5 6 
#
# 1 0.019289 -0.000204 -0.006745 0.000000 0.000000 0.000000
# 2 -0.000204 0.027231 -0.009708 0.000000 0.000000 0.000000
# 3 -0.006745 -0.009708 0.013762 0.000000 0.000000 0.000000
# 4 0.000000 0.000000 0.000000 0.049380 0.000000 0.000000
# 5 0.000000 0.000000 0.000000 0.000000 0.027872 0.000000
# 6 0.000000 0.000000 0.000000 0.000000 0.000000 0.801790
#
#
# Mechanical properties :
#
#
# Convention : Reuss Voigt Hill
#
# Bulk Modulus (GPa) = 37.08181 51.23021 44.15601
# Shear Modulus (GPa) = 5.09358 20.85514 12.97436
#
# Velocity S-wave (km/s) = 1.61219 3.26220 2.57304
# Velocity P-wave (km/s) = 4.73156 6.35067 5.59994
#
# Compressibility (1/GPa) = 0.02696740
#
# Stress axis : x y z
#
# Youngs Moduli (GPa) = 51.84280 36.72285 72.66604
#
# Poissons Ratio (x) = 0.00749 0.49012
# Poissons Ratio (y) = 0.01058 0.70546
# Poissons Ratio (z) = 0.34967 0.35652
#
# Static dielectric constant tensor:
#      x y z
#    x 1.758740 0.000000 0.000000 
#    y 0.000000 1.813840 0.000000 
#    z 0.000000 0.000000 1.756680 
# 
# From -- ./inp_files/45286.got.cif
#   From: 2010.05.17/outbox.cif.g08.bks.cpg/sg70_23_cif.got.tgz:45286.got - 2010.06.03 15:57:51.
