data_PCOD9515899
_publ_section_title
;
Structure prediction by ZEFSAII (Michael W. Deem and Ramdas Pophale) SiO2 
 PCOD9515899
Probable space group: F D D D
;
_chemical_formula_sum "Si O2"
_cell_formula_units_Z 168
_cell_length_a 20.019396
_cell_length_b 22.430797
_cell_length_c 17.703972
_cell_angle_alpha 90.000000
_cell_angle_beta 90.000000
_cell_angle_gamma 90.000000
_cell_volume 7949.986468
_symmetry_space_group_name_H-M "F D D D"
_symmetry_group_IT_number 70
_space_group.IT_coordinate_system_code '2'
_symmetry_cell_setting 'orthorhombic'
loop_
_space_group_symop_operation_xyz
x,y,z
1/4-x,1/4-y,z
x,1/4-y,1/4-z
1/4-x,y,1/4-z
-x,-y,-z
3/4+x,3/4+y,-z
-x,3/4+y,3/4+z
3/4+x,-y,3/4+z
x,1/2+y,1/2+z
1/4-x,3/4-y,1/2+z
x,3/4-y,3/4-z
1/4-x,1/2+y,3/4-z
-x,1/2-y,1/2-z
3/4+x,1/4+y,1/2-z
-x,1/4+y,1/4+z
3/4+x,1/2-y,1/4+z
1/2+x,y,1/2+z
3/4-x,1/4-y,1/2+z
1/2+x,1/4-y,3/4-z
3/4-x,y,3/4-z
1/2-x,-y,1/2-z
1/4+x,3/4+y,1/2-z
1/2-x,3/4+y,1/4+z
1/4+x,-y,1/4+z
1/2+x,1/2+y,z
3/4-x,3/4-y,z
1/2+x,3/4-y,1/4-z
3/4-x,1/2+y,1/4-z
1/2-x,1/2-y,-z
1/4+x,1/4+y,-z
1/2-x,1/4+y,3/4+z
1/4+x,1/2-y,3/4+z
loop_
_atom_site_type_symbol
_atom_site_label
_atom_site_fract_x
_atom_site_fract_y
_atom_site_fract_z
Si Si1 0.302235 0.181717 0.836473
Si Si2 0.139246 0.862020 0.952686
Si Si3 0.447939 0.313721 0.913009
Si Si4 0.018406 0.824405 0.061260
Si Si5 0.485424 0.465276 0.423189
Si Si6 0.625000 0.125000 0.125000
O O1 0.375000 0.183337 0.875000
O O2 0.320380 0.161825 0.751199
O O3 0.270548 0.247307 0.846544
O O4 0.263693 0.128932 0.879449
O O5 0.101507 0.875000 0.875000
O O6 0.195792 0.819833 0.918296
O O7 0.085788 0.834361 0.011335
O O8 0.471014 0.375000 0.875000
O O9 0.375000 0.307090 0.875000
O O10 0.456931 0.323637 0.002686
O O11 0.024883 0.763465 0.107434
O O12 0.500000 0.500000 0.500000
O O13 0.424140 0.418559 0.422176
#
# Coordination Sequence:
#
# PCOD9515899 Si02
#       6
#    32  32  32  32  32   8
#     4   9  20  39  63  92 130 175 229 287 355 435
#     4  11  21  40  67  98 133 182 234 282 354 440
#     4  10  22  42  65  95 135 181 234 301 361 427
#     4  11  23  41  69  98 137 186 235 290 359 439
#     4  12  24  43  69 102 144 185 230 297 371 435
#     4  12  28  44  68 108 148 180 234 312 360 436
#
# _framework density 21.132111999999999
#
# number of rings (size 3 to 8) (size 9 to 14) (size 15 to 20)
#    0.000    1.333    2.857    2.857    1.333    0.762 
#    0.000    9.524    0.000    0.000    0.000    0.000 
#    0.000    0.000    0.000    0.000    0.000    0.000 
#
# Total GULP energy -233840.599514 kJ/mol
# GULP energy per Si atom -5567.633322 kJ/mol
# Density = 2.108401 g / cm^3
# Si number density = 21.132112 Si / 1000 Ang^3
#
#
#
# Elastic Constant Matrix: (Units=GPa)
#
#
# Indices 1 2 3 4 5 6 
#
# 1 91.3419 41.8943 38.4919 0.0000 0.0000 0.0000
# 2 41.8943 177.9579 79.2892 0.0000 0.0000 0.0000
# 3 38.4919 79.2892 159.9181 0.0000 0.0000 0.0000
# 4 0.0000 0.0000 0.0000 27.1063 0.0000 0.0000
# 5 0.0000 0.0000 0.0000 0.0000 27.7469 0.0000
# 6 0.0000 0.0000 0.0000 0.0000 0.0000 -5.4604
#
#
#
# Elastic Compliance Matrix: (Units=1/GPa)
#
#
# Indices 1 2 3 4 5 6 
#
# 1 0.012767 -0.002100 -0.002032 0.000000 0.000000 0.000000
# 2 -0.002100 0.007558 -0.003242 0.000000 0.000000 0.000000
# 3 -0.002032 -0.003242 0.008350 0.000000 0.000000 0.000000
# 4 0.000000 0.000000 0.000000 0.036892 0.000000 0.000000
# 5 0.000000 0.000000 0.000000 0.000000 0.036040 0.000000
# 6 0.000000 0.000000 0.000000 0.000000 0.000000 -0.183135
#
#
# Mechanical properties :
#
#
# Convention : Reuss Voigt Hill
#
# Bulk Modulus (GPa) = 71.80181 83.17428 77.48805
# Shear Modulus (GPa) = -80.46629 27.84805 -26.30912
#
# Velocity S-wave (km/s) = -6.17741 3.63410 -3.53226
# Velocity P-wave (km/s) = 4.10234 7.55338 4.48466
#
# Compressibility (1/GPa) = 0.01392723
#
# Stress axis : x y z
#
# Youngs Moduli (GPa) = 78.32442 132.30654 119.76669
#
# Poissons Ratio (x) = 0.27791 0.24332
# Poissons Ratio (y) = 0.16452 0.38827
# Poissons Ratio (z) = 0.15913 0.42892
#
# Static dielectric constant tensor:
#      x y z
#    x 1.907090 0.000000 0.000000 
#    y 0.000000 2.222650 0.000000 
#    z 0.000000 0.000000 0.835790 
# 
# From -- ./inp_files/36506.got.cif
#   From: 2010.05.17/outbox.cif.g08.bks.cpg/sg70_19_cif.got.tgz:36506.got - 2010.06.03 15:57:51.
