data_PCOD9515181
_publ_section_title
;
Structure prediction by ZEFSAII (Michael W. Deem and Ramdas Pophale) SiO2 
 PCOD9515181
Probable space group: F D D D
;
_chemical_formula_sum "Si O2"
_cell_formula_units_Z 208
_cell_length_a 17.091644
_cell_length_b 20.930031
_cell_length_c 31.765563
_cell_angle_alpha 90.000000
_cell_angle_beta 90.000000
_cell_angle_gamma 90.000000
_cell_volume 11363.451611
_symmetry_space_group_name_H-M "F D D D"
_symmetry_group_IT_number 70
_space_group.IT_coordinate_system_code '2'
_symmetry_cell_setting 'orthorhombic'
loop_
_space_group_symop_operation_xyz
x,y,z
1/4-x,1/4-y,z
x,1/4-y,1/4-z
1/4-x,y,1/4-z
-x,-y,-z
3/4+x,3/4+y,-z
-x,3/4+y,3/4+z
3/4+x,-y,3/4+z
x,1/2+y,1/2+z
1/4-x,3/4-y,1/2+z
x,3/4-y,3/4-z
1/4-x,1/2+y,3/4-z
-x,1/2-y,1/2-z
3/4+x,1/4+y,1/2-z
-x,1/4+y,1/4+z
3/4+x,1/2-y,1/4+z
1/2+x,y,1/2+z
3/4-x,1/4-y,1/2+z
1/2+x,1/4-y,3/4-z
3/4-x,y,3/4-z
1/2-x,-y,1/2-z
1/4+x,3/4+y,1/2-z
1/2-x,3/4+y,1/4+z
1/4+x,-y,1/4+z
1/2+x,1/2+y,z
3/4-x,3/4-y,z
1/2+x,3/4-y,1/4-z
3/4-x,1/2+y,1/4-z
1/2-x,1/2-y,-z
1/4+x,1/4+y,-z
1/2-x,1/4+y,3/4+z
1/4+x,1/2-y,3/4+z
loop_
_atom_site_type_symbol
_atom_site_label
_atom_site_fract_x
_atom_site_fract_y
_atom_site_fract_z
Si Si1 0.031581 0.550315 0.123891
Si Si2 0.348977 0.445648 0.923792
Si Si3 0.745406 0.290122 0.783236
Si Si4 0.125000 0.125000 0.490595
Si Si5 0.447255 0.177838 0.525361
Si Si6 0.922451 0.709431 0.759649
Si Si7 0.950213 0.500044 0.042618
O O1 0.008070 0.625000 0.125000
O O2 0.125000 0.547988 0.125000
O O3 0.000371 0.524988 0.167909
O O4 0.001448 0.511342 0.083842
O O5 0.375000 0.449717 0.875000
O O6 0.375000 0.375000 0.939556
O O7 0.257334 0.440397 0.936010
O O8 0.387855 0.505599 0.948363
O O9 0.802166 0.349978 0.769688
O O10 0.783895 0.233089 0.757485
O O11 0.654986 0.291071 0.769687
O O12 0.096095 0.066901 0.461201
O O13 0.451624 0.112850 0.498633
O O14 0.360472 0.191451 0.541586
O O15 0.000000 0.750000 0.750000
O O16 0.000000 0.500000 0.000000
#
# Coordination Sequence:
#
# PCOD9515181 Si02
#       7
#    32  32  32  16  32  32  32
#     4  11  21  36  59  89 119 149 197 253 304 361
#     4  10  21  39  60  86 119 154 201 256 300 352
#     4  10  22  37  59  86 117 153 198 251 301 364
#     4  10  20  42  63  84 122 160 202 248 309 370
#     4  10  21  39  60  86 116 159 199 241 304 368
#     4  11  21  37  60  84 118 158 200 245 305 366
#     4  11  22  38  63  89 121 161 201 251 311 375
#
# _framework density 18.304297999999999
#
# number of rings (size 3 to 8) (size 9 to 14) (size 15 to 20)
#    0.000    1.538    1.538    5.538    0.000    1.231 
#    2.769    8.462    0.000    0.000    0.000    0.000 
#    0.000    0.000    0.000    0.000    0.000    0.000 
#
# Total GULP energy -289479.490776 kJ/mol
# GULP energy per Si atom -5566.913284 kJ/mol
# Density = 1.826264 g / cm^3
# Si number density = 18.304298 Si / 1000 Ang^3
#
#
#
# Elastic Constant Matrix: (Units=GPa)
#
#
# Indices 1 2 3 4 5 6 
#
# 1 111.6003 33.1380 50.4673 0.0000 0.0000 0.0000
# 2 33.1380 99.6555 31.9263 0.0000 0.0000 0.0000
# 3 50.4673 31.9263 126.9443 0.0000 0.0000 0.0000
# 4 0.0000 0.0000 0.0000 17.1457 0.0000 0.0000
# 5 0.0000 0.0000 0.0000 0.0000 21.6969 0.0000
# 6 0.0000 0.0000 0.0000 0.0000 0.0000 32.4769
#
#
#
# Elastic Compliance Matrix: (Units=1/GPa)
#
#
# Indices 1 2 3 4 5 6 
#
# 1 0.011498 -0.002566 -0.003926 0.000000 0.000000 0.000000
# 2 -0.002566 0.011486 -0.001869 0.000000 0.000000 0.000000
# 3 -0.003926 -0.001869 0.009908 0.000000 0.000000 0.000000
# 4 0.000000 0.000000 0.000000 0.058324 0.000000 0.000000
# 5 0.000000 0.000000 0.000000 0.000000 0.046090 0.000000
# 6 0.000000 0.000000 0.000000 0.000000 0.000000 0.030791
#
#
# Mechanical properties :
#
#
# Convention : Reuss Voigt Hill
#
# Bulk Modulus (GPa) = 61.83557 63.25148 62.54352
# Shear Modulus (GPa) = 26.28712 29.10848 27.69780
#
# Velocity S-wave (km/s) = 3.79373 3.99212 3.89419
# Velocity P-wave (km/s) = 7.28321 7.47529 7.37987
#
# Compressibility (1/GPa) = 0.01617192
#
# Stress axis : x y z
#
# Youngs Moduli (GPa) = 86.97458 87.05933 100.92693
#
# Poissons Ratio (x) = 0.22336 0.39621
# Poissons Ratio (y) = 0.22314 0.18862
# Poissons Ratio (z) = 0.34143 0.16270
#
# Static dielectric constant tensor:
#      x y z
#    x 1.703600 0.000000 0.000000 
#    y 0.000000 1.679170 0.000000 
#    z 0.000000 0.000000 1.598700 
# 
# From -- ./inp_files/36898.got.cif
#   From: 2010.05.17/outbox.cif.g08.bks.cpg/sg70_19_cif.got.tgz:36898.got - 2010.06.03 15:57:51.
