data_PCOD9515062
_publ_section_title
;
Structure prediction by ZEFSAII (Michael W. Deem and Ramdas Pophale) SiO2 
 PCOD9515062
Probable space group: F D D D
;
_chemical_formula_sum "Si O2"
_cell_formula_units_Z 112
_cell_length_a 22.139151
_cell_length_b 10.236940
_cell_length_c 20.484896
_cell_angle_alpha 90.000000
_cell_angle_beta 90.000000
_cell_angle_gamma 90.000000
_cell_volume 4642.638661
_symmetry_space_group_name_H-M "F D D D"
_symmetry_group_IT_number 70
_space_group.IT_coordinate_system_code '2'
_symmetry_cell_setting 'orthorhombic'
loop_
_space_group_symop_operation_xyz
x,y,z
1/4-x,1/4-y,z
x,1/4-y,1/4-z
1/4-x,y,1/4-z
-x,-y,-z
3/4+x,3/4+y,-z
-x,3/4+y,3/4+z
3/4+x,-y,3/4+z
x,1/2+y,1/2+z
1/4-x,3/4-y,1/2+z
x,3/4-y,3/4-z
1/4-x,1/2+y,3/4-z
-x,1/2-y,1/2-z
3/4+x,1/4+y,1/2-z
-x,1/4+y,1/4+z
3/4+x,1/2-y,1/4+z
1/2+x,y,1/2+z
3/4-x,1/4-y,1/2+z
1/2+x,1/4-y,3/4-z
3/4-x,y,3/4-z
1/2-x,-y,1/2-z
1/4+x,3/4+y,1/2-z
1/2-x,3/4+y,1/4+z
1/4+x,-y,1/4+z
1/2+x,1/2+y,z
3/4-x,3/4-y,z
1/2+x,3/4-y,1/4-z
3/4-x,1/2+y,1/4-z
1/2-x,1/2-y,-z
1/4+x,1/4+y,-z
1/2-x,1/4+y,3/4+z
1/4+x,1/2-y,3/4+z
loop_
_atom_site_type_symbol
_atom_site_label
_atom_site_fract_x
_atom_site_fract_y
_atom_site_fract_z
Si Si1 0.937981 0.625000 0.625000
Si Si2 0.414347 0.208345 0.766221
Si Si3 0.058070 0.077300 0.698344
Si Si4 0.532751 0.004501 0.709929
O O1 0.903827 0.678970 0.688665
O O2 0.983530 0.515587 0.653041
O O3 0.451842 0.342340 0.771857
O O4 0.350541 0.212807 0.802837
O O5 0.443449 0.079641 0.795854
O O6 0.125000 0.125000 0.722173
O O7 0.052065 0.125000 0.625000
O O8 0.997949 0.098789 0.740886
#
# Coordination Sequence:
#
# PCOD9515062 Si02
#       4
#    16  32  32  32
#     4  10  20  39  64  96 135 166 228 292 326 424
#     4  10  23  43  66 100 129 186 237 279 362 418
#     4  10  22  39  63  98 138 172 220 293 361 420
#     4  10  23  44  69  96 132 186 238 280 347 431
#
# _framework density 24.124212
#
# number of rings (size 3 to 8) (size 9 to 14) (size 15 to 20)
#    0.000    2.000    0.000    3.429    2.000   12.571 
#   20.571    2.857    0.000    0.000    0.000    0.000 
#    0.000    0.000    0.000    0.000    0.000    0.000 
#
# Total GULP energy -156050.702572 kJ/mol
# GULP energy per Si atom -5573.239378 kJ/mol
# Density = 2.406930 g / cm^3
# Si number density = 24.124212 Si / 1000 Ang^3
#
#
#
# Elastic Constant Matrix: (Units=GPa)
#
#
# Indices 1 2 3 4 5 6 
#
# 1 112.5938 12.7641 7.9998 0.0000 0.0000 0.0000
# 2 12.7641 87.0436 4.8605 0.0000 0.0000 0.0000
# 3 7.9998 4.8605 94.7504 0.0000 0.0000 0.0000
# 4 0.0000 0.0000 0.0000 25.4225 0.0000 0.0000
# 5 0.0000 0.0000 0.0000 0.0000 -6.8817 0.0000
# 6 0.0000 0.0000 0.0000 0.0000 0.0000 -38.8061
#
#
#
# Elastic Compliance Matrix: (Units=1/GPa)
#
#
# Indices 1 2 3 4 5 6 
#
# 1 0.009078 -0.001292 -0.000700 0.000000 0.000000 0.000000
# 2 -0.001292 0.011705 -0.000491 0.000000 0.000000 0.000000
# 3 -0.000700 -0.000491 0.010638 0.000000 0.000000 0.000000
# 4 0.000000 0.000000 0.000000 0.039335 0.000000 0.000000
# 5 0.000000 0.000000 0.000000 0.000000 -0.145313 0.000000
# 6 0.000000 0.000000 0.000000 0.000000 0.000000 -0.025769
#
#
# Mechanical properties :
#
#
# Convention : Reuss Voigt Hill
#
# Bulk Modulus (GPa) = 37.80103 38.40406 38.10254
# Shear Modulus (GPa) = -57.77665 13.86450 -21.95608
#
# Velocity S-wave (km/s) = -4.89915 2.39992 -3.02010
# Velocity P-wave (km/s) = 4.03718 4.86141 1.91501
#
# Compressibility (1/GPa) = 0.02645431
#
# Stress axis : x y z
#
# Youngs Moduli (GPa) = 110.16004 85.43060 93.99938
#
# Poissons Ratio (x) = 0.11038 0.06581
# Poissons Ratio (y) = 0.14233 0.04619
# Poissons Ratio (z) = 0.07713 0.04198
#
# Static dielectric constant tensor:
#      x y z
#    x 1.945290 0.000000 0.000000 
#    y 0.000000 1.953800 0.000000 
#    z 0.000000 0.000000 2.125040 
# 
# From -- ./inp_files/45592.got.cif
#   From: 2010.05.17/outbox.cif.g08.bks.cpg/sg70_23_cif.got.tgz:45592.got - 2010.06.03 15:57:51.
