data_PCOD9515973
_publ_section_title
;
Structure prediction by ZEFSAII (Michael W. Deem and Ramdas Pophale) SiO2 
 PCOD9515973
Probable space group: F D D D
;
_chemical_formula_sum "Si O2"
_cell_formula_units_Z 176
_cell_length_a 14.259504
_cell_length_b 24.591671
_cell_length_c 23.552999
_cell_angle_alpha 90.000000
_cell_angle_beta 90.000000
_cell_angle_gamma 90.000000
_cell_volume 8259.213124
_symmetry_space_group_name_H-M "F D D D"
_symmetry_group_IT_number 70
_space_group.IT_coordinate_system_code '2'
_symmetry_cell_setting 'orthorhombic'
loop_
_space_group_symop_operation_xyz
x,y,z
1/4-x,1/4-y,z
x,1/4-y,1/4-z
1/4-x,y,1/4-z
-x,-y,-z
3/4+x,3/4+y,-z
-x,3/4+y,3/4+z
3/4+x,-y,3/4+z
x,1/2+y,1/2+z
1/4-x,3/4-y,1/2+z
x,3/4-y,3/4-z
1/4-x,1/2+y,3/4-z
-x,1/2-y,1/2-z
3/4+x,1/4+y,1/2-z
-x,1/4+y,1/4+z
3/4+x,1/2-y,1/4+z
1/2+x,y,1/2+z
3/4-x,1/4-y,1/2+z
1/2+x,1/4-y,3/4-z
3/4-x,y,3/4-z
1/2-x,-y,1/2-z
1/4+x,3/4+y,1/2-z
1/2-x,3/4+y,1/4+z
1/4+x,-y,1/4+z
1/2+x,1/2+y,z
3/4-x,3/4-y,z
1/2+x,3/4-y,1/4-z
3/4-x,1/2+y,1/4-z
1/2-x,1/2-y,-z
1/4+x,1/4+y,-z
1/2-x,1/4+y,3/4+z
1/4+x,1/2-y,3/4+z
loop_
_atom_site_type_symbol
_atom_site_label
_atom_site_fract_x
_atom_site_fract_y
_atom_site_fract_z
Si Si1 0.781024 0.480054 0.530440
Si Si2 0.343634 0.487590 0.215257
Si Si3 0.117010 0.435890 0.392427
Si Si4 0.282867 0.625267 0.836853
Si Si5 0.125000 0.625000 0.915232
Si Si6 0.031009 0.690687 0.730424
O O1 0.688478 0.499774 0.499144
O O2 0.828341 0.533752 0.556640
O O3 0.746002 0.437987 0.578579
O O4 0.856910 0.445290 0.492575
O O5 0.250000 0.500000 0.250000
O O6 0.359456 0.525098 0.160106
O O7 0.335205 0.423961 0.201132
O O8 0.145354 0.375000 0.375000
O O9 0.010203 0.432532 0.417336
O O10 0.375000 0.619655 0.875000
O O11 0.201777 0.598158 0.874232
O O12 0.273120 0.599460 0.774339
O O13 0.000000 0.750000 0.750000
#
# Coordination Sequence:
#
# PCOD9515973 Si02
#       6
#    32  32  32  32  16  32
#     4  11  24  46  70 102 144 189 241 299 362 433
#     4  12  28  46  72 106 146 196 246 298 367 442
#     4  11  25  46  69 108 146 184 242 300 370 438
#     4  12  23  42  75 102 140 188 239 301 360 445
#     4  12  24  46  68 109 139 188 248 290 358 450
#     4  10  22  44  66 101 139 179 234 296 362 423
#
# _framework density 21.309535
#
# number of rings (size 3 to 8) (size 9 to 14) (size 15 to 20)
#    0.000    0.727    3.636    3.273    7.636    0.727 
#    0.000    1.818    0.000    0.000    0.000    0.000 
#    0.000    0.000    0.000    0.000    0.000    0.000 
#
# Total GULP energy -245468.042358 kJ/mol
# GULP energy per Si atom -5578.819144 kJ/mol
# Density = 2.126103 g / cm^3
# Si number density = 21.309535 Si / 1000 Ang^3
#
#
#
# Elastic Constant Matrix: (Units=GPa)
#
#
# Indices 1 2 3 4 5 6 
#
# 1 130.5338 10.1357 74.5017 0.0000 0.0000 0.0000
# 2 10.1357 127.1047 44.4357 0.0000 0.0000 0.0000
# 3 74.5017 44.4357 101.9494 0.0000 0.0000 0.0000
# 4 0.0000 0.0000 0.0000 28.3859 0.0000 0.0000
# 5 0.0000 0.0000 0.0000 0.0000 31.3882 0.0000
# 6 0.0000 0.0000 0.0000 0.0000 0.0000 27.5824
#
#
#
# Elastic Compliance Matrix: (Units=1/GPa)
#
#
# Indices 1 2 3 4 5 6 
#
# 1 0.013994 0.002901 -0.011491 0.000000 0.000000 0.000000
# 2 0.002901 0.009883 -0.006428 0.000000 0.000000 0.000000
# 3 -0.011491 -0.006428 0.021008 0.000000 0.000000 0.000000
# 4 0.000000 0.000000 0.000000 0.035229 0.000000 0.000000
# 5 0.000000 0.000000 0.000000 0.000000 0.031859 0.000000
# 6 0.000000 0.000000 0.000000 0.000000 0.000000 0.036255
#
#
# Mechanical properties :
#
#
# Convention : Reuss Voigt Hill
#
# Bulk Modulus (GPa) = 67.34066 68.63713 67.98889
# Shear Modulus (GPa) = 27.29059 32.83896 30.06477
#
# Velocity S-wave (km/s) = 3.58253 3.92987 3.76022
# Velocity P-wave (km/s) = 6.98445 7.27127 7.12930
#
# Compressibility (1/GPa) = 0.01484987
#
# Stress axis : x y z
#
# Youngs Moduli (GPa) = 71.45911 101.17992 47.60139
#
# Poissons Ratio (x) = -0.29356 0.54699
# Poissons Ratio (y) = -0.20733 0.30598
# Poissons Ratio (z) = 0.82114 0.65038
#
# Static dielectric constant tensor:
#      x y z
#    x 1.835350 0.000000 0.000000 
#    y 0.000000 1.779450 0.000000 
#    z 0.000000 0.000000 1.922430 
# 
# From -- ./inp_files/51206.got.cif
#   From: 2010.05.17/outbox.cif.g08.bks.cpg/sg70_26_cif.got.tgz:51206.got - 2010.06.03 15:57:51.
