data_PCOD9515612
_publ_section_title
;
Structure prediction by ZEFSAII (Michael W. Deem and Ramdas Pophale) SiO2 
 PCOD9515612
Probable space group: F D D D
;
_chemical_formula_sum "Si O2"
_cell_formula_units_Z 160
_cell_length_a 14.122772
_cell_length_b 29.605769
_cell_length_c 14.279948
_cell_angle_alpha 90.000000
_cell_angle_beta 90.000000
_cell_angle_gamma 90.000000
_cell_volume 5970.667962
_symmetry_space_group_name_H-M "F D D D"
_symmetry_group_IT_number 70
_space_group.IT_coordinate_system_code '2'
_symmetry_cell_setting 'orthorhombic'
loop_
_space_group_symop_operation_xyz
x,y,z
1/4-x,1/4-y,z
x,1/4-y,1/4-z
1/4-x,y,1/4-z
-x,-y,-z
3/4+x,3/4+y,-z
-x,3/4+y,3/4+z
3/4+x,-y,3/4+z
x,1/2+y,1/2+z
1/4-x,3/4-y,1/2+z
x,3/4-y,3/4-z
1/4-x,1/2+y,3/4-z
-x,1/2-y,1/2-z
3/4+x,1/4+y,1/2-z
-x,1/4+y,1/4+z
3/4+x,1/2-y,1/4+z
1/2+x,y,1/2+z
3/4-x,1/4-y,1/2+z
1/2+x,1/4-y,3/4-z
3/4-x,y,3/4-z
1/2-x,-y,1/2-z
1/4+x,3/4+y,1/2-z
1/2-x,3/4+y,1/4+z
1/4+x,-y,1/4+z
1/2+x,1/2+y,z
3/4-x,3/4-y,z
1/2+x,3/4-y,1/4-z
3/4-x,1/2+y,1/4-z
1/2-x,1/2-y,-z
1/4+x,1/4+y,-z
1/2-x,1/4+y,3/4+z
1/4+x,1/2-y,3/4+z
loop_
_atom_site_type_symbol
_atom_site_label
_atom_site_fract_x
_atom_site_fract_y
_atom_site_fract_z
Si Si1 0.990484 0.334845 0.946220
Si Si2 0.875000 0.875000 0.605768
Si Si3 0.927709 0.007921 0.237642
Si Si4 0.954013 0.595591 0.534996
Si Si5 0.125000 0.913407 0.625000
Si Si6 0.121444 0.713199 0.791236
O O1 0.969792 0.375000 0.875000
O O2 0.934447 0.288126 0.951314
O O3 0.101422 0.326466 0.938016
O O4 0.960345 0.358440 0.042331
O O5 0.841726 0.833664 0.666037
O O6 0.866591 0.046783 0.290645
O O7 0.039919 0.020506 0.230471
O O8 0.894696 0.992449 0.135024
O O9 0.988551 0.625000 0.625000
O O10 0.925970 0.627047 0.446478
O O11 0.025737 0.555084 0.508106
#
# Coordination Sequence:
#
# PCOD9515612 Si02
#       6
#    32  16  32  32  16  32
#     4  10  23  42  72 110 150 208 255 325 403 480
#     4  10  21  42  73 102 154 204 256 316 400 478
#     4  11  27  44  80 119 159 208 268 352 412 487
#     4  11  26  52  81 107 158 223 270 325 411 492
#     4  12  26  50  77 120 156 202 281 342 404 510
#     4  11  25  50  77 118 158 215 269 343 413 501
#
# _framework density 26.797673
#
# number of rings (size 3 to 8) (size 9 to 14) (size 15 to 20)
#    0.000    1.200    0.000    5.100   11.200    1.600 
#    3.600    3.500    4.400    0.000    0.000    0.000 
#    0.000    0.000    0.000    0.000    0.000    0.000 
#
# Total GULP energy -223127.981864 kJ/mol
# GULP energy per Si atom -5578.199547 kJ/mol
# Density = 2.673668 g / cm^3
# Si number density = 26.797673 Si / 1000 Ang^3
#
#
#
# Elastic Constant Matrix: (Units=GPa)
#
#
# Indices 1 2 3 4 5 6 
#
# 1 97.7937 20.2987 43.2862 0.0000 0.0000 0.0000
# 2 20.2987 165.5952 76.8390 0.0000 0.0000 0.0000
# 3 43.2862 76.8390 133.9797 0.0000 0.0000 0.0000
# 4 0.0000 0.0000 0.0000 -3.2627 0.0000 0.0000
# 5 0.0000 0.0000 0.0000 0.0000 59.9398 0.0000
# 6 0.0000 0.0000 0.0000 0.0000 0.0000 -129.4807
#
#
#
# Elastic Compliance Matrix: (Units=1/GPa)
#
#
# Indices 1 2 3 4 5 6 
#
# 1 0.011956 0.000445 -0.004118 0.000000 0.000000 0.000000
# 2 0.000445 0.008245 -0.004873 0.000000 0.000000 0.000000
# 3 -0.004118 -0.004873 0.011589 0.000000 0.000000 0.000000
# 4 0.000000 0.000000 0.000000 -0.306496 0.000000 0.000000
# 5 0.000000 0.000000 0.000000 0.000000 0.016683 0.000000
# 6 0.000000 0.000000 0.000000 0.000000 0.000000 -0.007723
#
#
# Mechanical properties :
#
#
# Convention : Reuss Voigt Hill
#
# Bulk Modulus (GPa) = 68.03115 75.35739 71.69427
# Shear Modulus (GPa) = -20.51237 2.56893 -8.97172
#
# Velocity S-wave (km/s) = -2.76968 0.98016 -1.83172
# Velocity P-wave (km/s) = 3.90050 5.42797 4.72635
#
# Compressibility (1/GPa) = 0.01469915
#
# Stress axis : x y z
#
# Youngs Moduli (GPa) = 83.64017 121.28261 86.29024
#
# Poissons Ratio (x) = -0.05401 0.35535
# Poissons Ratio (y) = -0.03725 0.42046
# Poissons Ratio (z) = 0.34444 0.59096
#
# Static dielectric constant tensor:
#      x y z
#    x 2.438220 0.000000 0.000000 
#    y 0.000000 2.381930 0.000000 
#    z 0.000000 0.000000 2.967610 
# 
# From -- ./inp_files/28896.got.cif
#   From: 2010.05.17/outbox.cif.g08.bks.cpg/sg70_15_cif.got.tgz:28896.got - 2010.06.03 15:57:51.
