data_PCOD9515611
_publ_section_title
;
Structure prediction by ZEFSAII (Michael W. Deem and Ramdas Pophale) SiO2 
 PCOD9515611
Probable space group: F D D D
;
_chemical_formula_sum "Si O2"
_cell_formula_units_Z 176
_cell_length_a 30.489942
_cell_length_b 21.826036
_cell_length_c 11.874040
_cell_angle_alpha 90.000000
_cell_angle_beta 90.000000
_cell_angle_gamma 90.000000
_cell_volume 7901.871684
_symmetry_space_group_name_H-M "F D D D"
_symmetry_group_IT_number 70
_space_group.IT_coordinate_system_code '2'
_symmetry_cell_setting 'orthorhombic'
loop_
_space_group_symop_operation_xyz
x,y,z
1/4-x,1/4-y,z
x,1/4-y,1/4-z
1/4-x,y,1/4-z
-x,-y,-z
3/4+x,3/4+y,-z
-x,3/4+y,3/4+z
3/4+x,-y,3/4+z
x,1/2+y,1/2+z
1/4-x,3/4-y,1/2+z
x,3/4-y,3/4-z
1/4-x,1/2+y,3/4-z
-x,1/2-y,1/2-z
3/4+x,1/4+y,1/2-z
-x,1/4+y,1/4+z
3/4+x,1/2-y,1/4+z
1/2+x,y,1/2+z
3/4-x,1/4-y,1/2+z
1/2+x,1/4-y,3/4-z
3/4-x,y,3/4-z
1/2-x,-y,1/2-z
1/4+x,3/4+y,1/2-z
1/2-x,3/4+y,1/4+z
1/4+x,-y,1/4+z
1/2+x,1/2+y,z
3/4-x,3/4-y,z
1/2+x,3/4-y,1/4-z
3/4-x,1/2+y,1/4-z
1/2-x,1/2-y,-z
1/4+x,1/4+y,-z
1/2-x,1/4+y,3/4+z
1/4+x,1/2-y,3/4+z
loop_
_atom_site_type_symbol
_atom_site_label
_atom_site_fract_x
_atom_site_fract_y
_atom_site_fract_z
Si Si1 0.534413 0.677601 0.425505
Si Si2 0.625000 0.125000 0.410599
Si Si3 0.970060 0.578288 0.894026
Si Si4 0.975855 0.541986 0.136099
Si Si5 0.065739 0.808830 0.913812
Si Si6 0.889664 0.510308 0.249250
O O1 0.581580 0.645768 0.408285
O O2 0.496515 0.639535 0.364155
O O3 0.518227 0.678745 0.554589
O O4 0.536742 0.748503 0.389298
O O5 0.636562 0.063278 0.479779
O O6 0.933797 0.563342 0.800411
O O7 0.007753 0.526244 0.891837
O O8 0.956997 0.574934 0.025143
O O9 0.938288 0.533616 0.227602
O O10 0.049275 0.875000 0.875000
O O11 0.109641 0.793217 0.845143
O O12 0.875000 0.525342 0.375000
#
# Coordination Sequence:
#
# PCOD9515611 Si02
#       6
#    32  16  32  32  32  32
#     4  10  21  42  73 101 135 184 235 288 359 425
#     4  10  21  46  71 106 142 185 241 296 350 420
#     4  10  21  43  68  96 139 174 234 277 360 415
#     4  10  22  41  69 104 136 183 225 292 349 429
#     4  10  25  44  64 101 134 179 231 291 352 415
#     4  11  24  45  70 101 143 184 237 288 358 420
#
# _framework density 22.273202999999999
#
# number of rings (size 3 to 8) (size 9 to 14) (size 15 to 20)
#    0.000    1.818    1.818    0.818    2.545    2.909 
#    9.818    1.818    0.000    0.000    0.000    0.000 
#    0.000    0.000    0.000    0.000    0.000    0.000 
#
# Total GULP energy -245374.627464 kJ/mol
# GULP energy per Si atom -5576.696079 kJ/mol
# Density = 2.222251 g / cm^3
# Si number density = 22.273203 Si / 1000 Ang^3
#
#
#
# Elastic Constant Matrix: (Units=GPa)
#
#
# Indices 1 2 3 4 5 6 
#
# 1 90.4981 34.9551 67.2674 0.0000 0.0000 0.0000
# 2 34.9551 135.0347 23.3065 0.0000 0.0000 0.0000
# 3 67.2674 23.3065 116.8460 0.0000 0.0000 0.0000
# 4 0.0000 0.0000 0.0000 24.4427 0.0000 0.0000
# 5 0.0000 0.0000 0.0000 0.0000 34.2916 0.0000
# 6 0.0000 0.0000 0.0000 0.0000 0.0000 22.6203
#
#
#
# Elastic Compliance Matrix: (Units=1/GPa)
#
#
# Indices 1 2 3 4 5 6 
#
# 1 0.020740 -0.003426 -0.011257 0.000000 0.000000 0.000000
# 2 -0.003426 0.008235 0.000330 0.000000 0.000000 0.000000
# 3 -0.011257 0.000330 0.014973 0.000000 0.000000 0.000000
# 4 0.000000 0.000000 0.000000 0.040912 0.000000 0.000000
# 5 0.000000 0.000000 0.000000 0.000000 0.029162 0.000000
# 6 0.000000 0.000000 0.000000 0.000000 0.000000 0.044208
#
#
# Mechanical properties :
#
#
# Convention : Reuss Voigt Hill
#
# Bulk Modulus (GPa) = 65.60546 65.93744 65.77145
# Shear Modulus (GPa) = 26.03927 30.72758 28.38342
#
# Velocity S-wave (km/s) = 3.42290 3.71829 3.57365
# Velocity P-wave (km/s) = 6.71867 6.93560 6.82799
#
# Compressibility (1/GPa) = 0.01524263
#
# Stress axis : x y z
#
# Youngs Moduli (GPa) = 48.21497 121.42612 66.78702
#
# Poissons Ratio (x) = 0.41601 0.75181
# Poissons Ratio (y) = 0.16518 -0.02202
# Poissons Ratio (z) = 0.54274 -0.04003
#
# Static dielectric constant tensor:
#      x y z
#    x 1.783370 0.000000 0.000000 
#    y 0.000000 1.895490 0.000000 
#    z 0.000000 0.000000 1.852410 
# 
# From -- ./inp_files/22260.got.cif
#   From: 2010.05.17/outbox.cif.g08.bks.cpg/sg70_12_cif.got.tgz:22260.got - 2010.06.03 15:57:51.
