data_PCOD9515544
_publ_section_title
;
Structure prediction by ZEFSAII (Michael W. Deem and Ramdas Pophale) SiO2 
 PCOD9515544
Probable space group: F D D D
;
_chemical_formula_sum "Si O2"
_cell_formula_units_Z 96
_cell_length_a 10.353464
_cell_length_b 12.319202
_cell_length_c 28.226725
_cell_angle_alpha 90.000000
_cell_angle_beta 90.000000
_cell_angle_gamma 90.000000
_cell_volume 3600.217564
_symmetry_space_group_name_H-M "F D D D"
_symmetry_group_IT_number 70
_space_group.IT_coordinate_system_code '2'
_symmetry_cell_setting 'orthorhombic'
loop_
_space_group_symop_operation_xyz
x,y,z
1/4-x,1/4-y,z
x,1/4-y,1/4-z
1/4-x,y,1/4-z
-x,-y,-z
3/4+x,3/4+y,-z
-x,3/4+y,3/4+z
3/4+x,-y,3/4+z
x,1/2+y,1/2+z
1/4-x,3/4-y,1/2+z
x,3/4-y,3/4-z
1/4-x,1/2+y,3/4-z
-x,1/2-y,1/2-z
3/4+x,1/4+y,1/2-z
-x,1/4+y,1/4+z
3/4+x,1/2-y,1/4+z
1/2+x,y,1/2+z
3/4-x,1/4-y,1/2+z
1/2+x,1/4-y,3/4-z
3/4-x,y,3/4-z
1/2-x,-y,1/2-z
1/4+x,3/4+y,1/2-z
1/2-x,3/4+y,1/4+z
1/4+x,-y,1/4+z
1/2+x,1/2+y,z
3/4-x,3/4-y,z
1/2+x,3/4-y,1/4-z
3/4-x,1/2+y,1/4-z
1/2-x,1/2-y,-z
1/4+x,1/4+y,-z
1/2-x,1/4+y,3/4+z
1/4+x,1/2-y,3/4+z
loop_
_atom_site_type_symbol
_atom_site_label
_atom_site_fract_x
_atom_site_fract_y
_atom_site_fract_z
Si Si1 0.556912 0.014496 0.707680
Si Si2 0.825885 0.028072 0.446541
Si Si3 0.914787 0.498301 0.104297
O O1 0.625000 0.125000 0.723260
O O2 0.465735 0.987587 0.752301
O O3 0.646507 0.909739 0.696894
O O4 0.465821 0.051078 0.664242
O O5 0.717282 0.998199 0.407656
O O6 0.960899 0.979490 0.428204
O O7 0.875000 0.375000 0.095792
#
# Coordination Sequence:
#
# PCOD9515544 Si02
#       3
#    32  32  32
#     4  11  22  39  68 102 134 174 222 276 337 401
#     4  10  21  41  65  94 134 178 221 274 330 401
#     4   9  20  40  63  89 133 179 217 271 331 391
#
# _framework density 26.665056
#
# number of rings (size 3 to 8) (size 9 to 14) (size 15 to 20)
#    0.000    2.000    0.000    3.000    0.000    0.000 
#    0.000   28.333    0.000   16.000    0.000    0.000 
#    0.000    0.000    0.000    0.000    0.000    0.000 
#
# Total GULP energy -134433.281474 kJ/mol
# GULP energy per Si atom -5601.386728 kJ/mol
# Density = 2.660437 g / cm^3
# Si number density = 26.665056 Si / 1000 Ang^3
#
#
#
# Elastic Constant Matrix: (Units=GPa)
#
#
# Indices 1 2 3 4 5 6 
#
# 1 83.8240 31.0688 51.1115 0.0000 0.0000 0.0000
# 2 31.0688 110.8703 35.9581 0.0000 0.0000 0.0000
# 3 51.1115 35.9581 178.5356 0.0000 0.0000 0.0000
# 4 0.0000 0.0000 0.0000 4.7260 0.0000 0.0000
# 5 0.0000 0.0000 0.0000 0.0000 43.6967 0.0000
# 6 0.0000 0.0000 0.0000 0.0000 0.0000 17.4149
#
#
#
# Elastic Compliance Matrix: (Units=1/GPa)
#
#
# Indices 1 2 3 4 5 6 
#
# 1 0.015378 -0.003083 -0.003782 0.000000 0.000000 0.000000
# 2 -0.003083 0.010268 -0.001185 0.000000 0.000000 0.000000
# 3 -0.003782 -0.001185 0.006922 0.000000 0.000000 0.000000
# 4 0.000000 0.000000 0.000000 0.211594 0.000000 0.000000
# 5 0.000000 0.000000 0.000000 0.000000 0.022885 0.000000
# 6 0.000000 0.000000 0.000000 0.000000 0.000000 0.057422
#
#
# Mechanical properties :
#
#
# Convention : Reuss Voigt Hill
#
# Bulk Modulus (GPa) = 60.72107 67.72297 64.22202
# Shear Modulus (GPa) = 14.44839 30.17361 22.31100
#
# Velocity S-wave (km/s) = 2.33029 3.36754 2.89574
# Velocity P-wave (km/s) = 5.48284 6.36971 5.94284
#
# Compressibility (1/GPa) = 0.01646875
#
# Stress axis : x y z
#
# Youngs Moduli (GPa) = 65.02688 97.39058 144.45692
#
# Poissons Ratio (x) = 0.30025 0.54628
# Poissons Ratio (y) = 0.20047 0.17124
# Poissons Ratio (z) = 0.24591 0.11545
#
# Static dielectric constant tensor:
#      x y z
#    x 2.197990 0.000000 0.000000 
#    y 0.000000 2.143880 0.000000 
#    z 0.000000 0.000000 1.980780 
# 
# From -- ./inp_files/18382.got.cif
#   From: 2010.05.17/outbox.cif.g08.bks.cpg/sg70_10_cif.got.tgz:18382.got - 2010.06.03 15:57:51.
