data_PCOD9515176
_publ_section_title
;
Structure prediction by ZEFSAII (Michael W. Deem and Ramdas Pophale) SiO2 
 PCOD9515176
Probable space group: F D D D
;
_chemical_formula_sum "Si O2"
_cell_formula_units_Z 144
_cell_length_a 9.897617
_cell_length_b 25.002235
_cell_length_c 21.019462
_cell_angle_alpha 90.000000
_cell_angle_beta 90.000000
_cell_angle_gamma 90.000000
_cell_volume 5201.529586
_symmetry_space_group_name_H-M "F D D D"
_symmetry_group_IT_number 70
_space_group.IT_coordinate_system_code '2'
_symmetry_cell_setting 'orthorhombic'
loop_
_space_group_symop_operation_xyz
x,y,z
1/4-x,1/4-y,z
x,1/4-y,1/4-z
1/4-x,y,1/4-z
-x,-y,-z
3/4+x,3/4+y,-z
-x,3/4+y,3/4+z
3/4+x,-y,3/4+z
x,1/2+y,1/2+z
1/4-x,3/4-y,1/2+z
x,3/4-y,3/4-z
1/4-x,1/2+y,3/4-z
-x,1/2-y,1/2-z
3/4+x,1/4+y,1/2-z
-x,1/4+y,1/4+z
3/4+x,1/2-y,1/4+z
1/2+x,y,1/2+z
3/4-x,1/4-y,1/2+z
1/2+x,1/4-y,3/4-z
3/4-x,y,3/4-z
1/2-x,-y,1/2-z
1/4+x,3/4+y,1/2-z
1/2-x,3/4+y,1/4+z
1/4+x,-y,1/4+z
1/2+x,1/2+y,z
3/4-x,3/4-y,z
1/2+x,3/4-y,1/4-z
3/4-x,1/2+y,1/4-z
1/2-x,1/2-y,-z
1/4+x,1/4+y,-z
1/2-x,1/4+y,3/4+z
1/4+x,1/2-y,3/4+z
loop_
_atom_site_type_symbol
_atom_site_label
_atom_site_fract_x
_atom_site_fract_y
_atom_site_fract_z
Si Si1 0.583625 0.220312 0.846317
Si Si2 0.111604 0.324459 0.764221
Si Si3 0.771057 0.677085 0.034496
Si Si4 0.567155 0.699731 0.482739
Si Si5 0.875000 0.553017 0.875000
O O1 0.501620 0.275241 0.834788
O O2 0.564448 0.189519 0.779349
O O3 0.546876 0.185608 0.908093
O O4 0.740366 0.231577 0.864761
O O5 0.212270 0.364527 0.800736
O O6 0.157091 0.263399 0.771067
O O7 0.123140 0.336649 0.688987
O O8 0.948027 0.323754 0.769362
O O9 0.928016 0.687472 0.015903
#
# Coordination Sequence:
#
# PCOD9515176 Si02
#       5
#    32  32  32  32  16
#     4  10  23  39  65  87 133 163 214 266 324 386
#     4  10  22  37  66  88 128 165 217 263 329 384
#     4  11  22  41  61  99 122 169 217 268 323 395
#     4  10  21  42  60  92 128 168 207 274 321 390
#     4  10  20  42  58  91 122 170 203 276 312 382
#
# _framework density 27.684165
#
# number of rings (size 3 to 8) (size 9 to 14) (size 15 to 20)
#    0.000    1.778    2.222    1.333    3.111    1.778 
#    0.000    0.000    0.000    2.667    0.000    0.000 
#    0.000    0.000    0.000    0.000    0.000    0.000 
#
# Total GULP energy -201203.103813 kJ/mol
# GULP energy per Si atom -5588.975106 kJ/mol
# Density = 2.762116 g / cm^3
# Si number density = 27.684165 Si / 1000 Ang^3
#
#
#
# Elastic Constant Matrix: (Units=GPa)
#
#
# Indices 1 2 3 4 5 6 
#
# 1 93.6152 6.6814 12.9495 0.0000 0.0000 0.0000
# 2 6.6814 148.8458 3.7114 0.0000 0.0000 0.0000
# 3 12.9495 3.7114 76.8866 0.0000 0.0000 0.0000
# 4 0.0000 0.0000 0.0000 21.4581 0.0000 0.0000
# 5 0.0000 0.0000 0.0000 0.0000 28.4440 0.0000
# 6 0.0000 0.0000 0.0000 0.0000 0.0000 38.7402
#
#
#
# Elastic Compliance Matrix: (Units=1/GPa)
#
#
# Indices 1 2 3 4 5 6 
#
# 1 0.010966 -0.000447 -0.001825 0.000000 0.000000 0.000000
# 2 -0.000447 0.006745 -0.000250 0.000000 0.000000 0.000000
# 3 -0.001825 -0.000250 0.013326 0.000000 0.000000 0.000000
# 4 0.000000 0.000000 0.000000 0.046602 0.000000 0.000000
# 5 0.000000 0.000000 0.000000 0.000000 0.035157 0.000000
# 6 0.000000 0.000000 0.000000 0.000000 0.000000 0.025813
#
#
# Mechanical properties :
#
#
# Convention : Reuss Voigt Hill
#
# Bulk Modulus (GPa) = 38.47373 40.67024 39.57198
# Shear Modulus (GPa) = 32.82609 37.46216 35.14413
#
# Velocity S-wave (km/s) = 3.44719 3.68257 3.56682
# Velocity P-wave (km/s) = 5.45634 5.72752 5.59358
#
# Compressibility (1/GPa) = 0.02599176
#
# Stress axis : x y z
#
# Youngs Moduli (GPa) = 91.18748 148.26548 75.04294
#
# Poissons Ratio (x) = 0.06624 0.13699
# Poissons Ratio (y) = 0.04074 0.01879
# Poissons Ratio (z) = 0.16646 0.03712
#
# Static dielectric constant tensor:
#      x y z
#    x 2.199560 0.000000 0.000000 
#    y 0.000000 2.379940 0.000000 
#    z 0.000000 0.000000 2.232990 
# 
# From -- ./inp_files/20769.got.cif
#   From: 2010.05.17/outbox.cif.g08.bks.cpg/sg70_11_cif.got.tgz:20769.got - 2010.06.03 15:57:51.
