data_PCOD9515692
_publ_section_title
;
Structure prediction by ZEFSAII (Michael W. Deem and Ramdas Pophale) SiO2 
 PCOD9515692
Probable space group: F D D D
;
_chemical_formula_sum "Si O2"
_cell_formula_units_Z 168
_cell_length_a 26.141086
_cell_length_b 12.911311
_cell_length_c 22.108934
_cell_angle_alpha 90.000000
_cell_angle_beta 90.000000
_cell_angle_gamma 90.000000
_cell_volume 7462.112141
_symmetry_space_group_name_H-M "F D D D"
_symmetry_group_IT_number 70
_space_group.IT_coordinate_system_code '2'
_symmetry_cell_setting 'orthorhombic'
loop_
_space_group_symop_operation_xyz
x,y,z
1/4-x,1/4-y,z
x,1/4-y,1/4-z
1/4-x,y,1/4-z
-x,-y,-z
3/4+x,3/4+y,-z
-x,3/4+y,3/4+z
3/4+x,-y,3/4+z
x,1/2+y,1/2+z
1/4-x,3/4-y,1/2+z
x,3/4-y,3/4-z
1/4-x,1/2+y,3/4-z
-x,1/2-y,1/2-z
3/4+x,1/4+y,1/2-z
-x,1/4+y,1/4+z
3/4+x,1/2-y,1/4+z
1/2+x,y,1/2+z
3/4-x,1/4-y,1/2+z
1/2+x,1/4-y,3/4-z
3/4-x,y,3/4-z
1/2-x,-y,1/2-z
1/4+x,3/4+y,1/2-z
1/2-x,3/4+y,1/4+z
1/4+x,-y,1/4+z
1/2+x,1/2+y,z
3/4-x,3/4-y,z
1/2+x,3/4-y,1/4-z
3/4-x,1/2+y,1/4-z
1/2-x,1/2-y,-z
1/4+x,1/4+y,-z
1/2-x,1/4+y,3/4+z
1/4+x,1/2-y,3/4+z
loop_
_atom_site_type_symbol
_atom_site_label
_atom_site_fract_x
_atom_site_fract_y
_atom_site_fract_z
Si Si1 0.375000 0.375000 0.875000
Si Si2 0.958654 0.625000 0.625000
Si Si3 0.682835 0.446487 0.504634
Si Si4 0.875000 0.875000 0.686907
Si Si5 0.501200 0.617423 0.481387
Si Si6 0.987954 0.904321 0.094646
Si Si7 0.101626 0.958821 0.222476
O O1 0.404336 0.457904 0.831942
O O2 0.928958 0.579705 0.682939
O O3 0.989714 0.528963 0.597456
O O4 0.699352 0.567238 0.502874
O O5 0.729790 0.388640 0.538741
O O6 0.633515 0.396805 0.537618
O O7 0.928776 0.882212 0.653792
O O8 0.883372 0.775966 0.729511
O O9 0.500000 0.500000 0.500000
O O10 0.491593 0.619025 0.409335
O O11 0.451448 0.679370 0.503359
#
# Coordination Sequence:
#
# PCOD9515692 Si02
#       7
#     8  16  32  16  32  32  32
#     4  10  24  42  72 110 140 172 230 296 358 452
#     4  10  22  35  64  99 132 172 224 279 354 425
#     4  11  23  42  68  99 140 183 233 296 358 427
#     4  11  22  41  66 104 134 173 221 282 364 418
#     4  11  27  46  65  99 139 192 245 297 355 428
#     4  11  23  42  66  98 140 181 226 293 357 426
#     4  11  23  43  70 104 139 181 229 291 363 433
#
# _framework density 22.513733999999999
#
# number of rings (size 3 to 8) (size 9 to 14) (size 15 to 20)
#    0.000    1.143    3.810    1.714    0.000    9.905 
#    0.000    0.000    0.000    3.429    0.000    0.000 
#    0.000    0.000    0.000    0.000    0.000    0.000 
#
# Total GULP energy -234181.558461 kJ/mol
# GULP energy per Si atom -5575.751392 kJ/mol
# Density = 2.246249 g / cm^3
# Si number density = 22.513734 Si / 1000 Ang^3
#
#
#
# Elastic Constant Matrix: (Units=GPa)
#
#
# Indices 1 2 3 4 5 6 
#
# 1 69.7884 15.1022 -5.7767 0.0000 0.0000 0.0000
# 2 15.1022 151.7285 26.0476 0.0000 0.0000 0.0000
# 3 -5.7767 26.0476 42.5220 0.0000 0.0000 0.0000
# 4 0.0000 0.0000 0.0000 34.1139 0.0000 0.0000
# 5 0.0000 0.0000 0.0000 0.0000 19.5062 0.0000
# 6 0.0000 0.0000 0.0000 0.0000 0.0000 28.0064
#
#
#
# Elastic Compliance Matrix: (Units=1/GPa)
#
#
# Indices 1 2 3 4 5 6 
#
# 1 0.015050 -0.002066 0.003310 0.000000 0.000000 0.000000
# 2 -0.002066 0.007649 -0.004966 0.000000 0.000000 0.000000
# 3 0.003310 -0.004966 0.027009 0.000000 0.000000 0.000000
# 4 0.000000 0.000000 0.000000 0.029314 0.000000 0.000000
# 5 0.000000 0.000000 0.000000 0.000000 0.051266 0.000000
# 6 0.000000 0.000000 0.000000 0.000000 0.000000 0.035706
#
#
# Mechanical properties :
#
#
# Convention : Reuss Voigt Hill
#
# Bulk Modulus (GPa) = 23.66083 37.19835 30.42959
# Shear Modulus (GPa) = 26.66296 31.56968 29.11632
#
# Velocity S-wave (km/s) = 3.44510 3.74871 3.60011
# Velocity P-wave (km/s) = 5.13393 5.94100 5.55215
#
# Compressibility (1/GPa) = 0.04226394
#
# Stress axis : x y z
#
# Youngs Moduli (GPa) = 66.44434 130.73686 37.02452
#
# Poissons Ratio (x) = 0.27014 -0.12256
# Poissons Ratio (y) = 0.13729 0.18387
# Poissons Ratio (z) = -0.21996 0.64927
#
# Static dielectric constant tensor:
#      x y z
#    x 1.904330 0.000000 0.000000 
#    y 0.000000 1.858090 0.000000 
#    z 0.000000 0.000000 1.809770 
# 
# From -- ./inp_files/55020.got.cif
#   From: 2010.05.17/outbox.cif.g08.bks.cpg/sg70_28_cif.got.tgz:55020.got - 2010.06.03 15:57:51.
