data_PCOD9515952
_publ_section_title
;
Structure prediction by ZEFSAII (Michael W. Deem and Ramdas Pophale) SiO2 
 PCOD9515952
Probable space group: F D D D
;
_chemical_formula_sum "Si O2"
_cell_formula_units_Z 176
_cell_length_a 17.293044
_cell_length_b 17.559832
_cell_length_c 21.443054
_cell_angle_alpha 90.000000
_cell_angle_beta 90.000000
_cell_angle_gamma 90.000000
_cell_volume 6511.460979
_symmetry_space_group_name_H-M "F D D D"
_symmetry_group_IT_number 70
_space_group.IT_coordinate_system_code '2'
_symmetry_cell_setting 'orthorhombic'
loop_
_space_group_symop_operation_xyz
x,y,z
1/4-x,1/4-y,z
x,1/4-y,1/4-z
1/4-x,y,1/4-z
-x,-y,-z
3/4+x,3/4+y,-z
-x,3/4+y,3/4+z
3/4+x,-y,3/4+z
x,1/2+y,1/2+z
1/4-x,3/4-y,1/2+z
x,3/4-y,3/4-z
1/4-x,1/2+y,3/4-z
-x,1/2-y,1/2-z
3/4+x,1/4+y,1/2-z
-x,1/4+y,1/4+z
3/4+x,1/2-y,1/4+z
1/2+x,y,1/2+z
3/4-x,1/4-y,1/2+z
1/2+x,1/4-y,3/4-z
3/4-x,y,3/4-z
1/2-x,-y,1/2-z
1/4+x,3/4+y,1/2-z
1/2-x,3/4+y,1/4+z
1/4+x,-y,1/4+z
1/2+x,1/2+y,z
3/4-x,3/4-y,z
1/2+x,3/4-y,1/4-z
3/4-x,1/2+y,1/4-z
1/2-x,1/2-y,-z
1/4+x,1/4+y,-z
1/2-x,1/4+y,3/4+z
1/4+x,1/2-y,3/4+z
loop_
_atom_site_type_symbol
_atom_site_label
_atom_site_fract_x
_atom_site_fract_y
_atom_site_fract_z
Si Si1 0.738108 0.186276 0.075987
Si Si2 0.125000 0.125000 0.776255
Si Si3 0.230713 0.756736 0.597833
Si Si4 0.524112 0.437221 0.669284
Si Si5 0.586188 0.787315 0.446806
Si Si6 0.121936 0.033413 0.988735
O O1 0.710712 0.125000 0.125000
O O2 0.693555 0.162867 0.013871
O O3 0.712335 0.265758 0.106406
O O4 0.830489 0.180833 0.070977
O O5 0.094930 0.053564 0.813431
O O6 0.229297 0.849254 0.601289
O O7 0.257577 0.704138 0.656519
O O8 0.152769 0.737128 0.559237
O O9 0.304026 0.744013 0.551219
O O10 0.576619 0.441412 0.730947
O O11 0.450396 0.482250 0.700796
O O12 0.125000 0.125000 0.985701
#
# Coordination Sequence:
#
# PCOD9515952 Si02
#       6
#    32  16  32  32  32  32
#     4  12  26  47  71 101 150 182 243 305 366 434
#     4  12  27  50  70 104 140 190 241 310 366 432
#     4  10  22  43  70 102 150 192 244 298 365 436
#     4  11  24  42  70 109 143 194 243 304 366 439
#     4  12  26  43  75 103 137 196 248 297 373 439
#     4   9  20  42  70 101 149 190 234 298 364 428
#
# _framework density 27.029264000000001
#
# number of rings (size 3 to 8) (size 9 to 14) (size 15 to 20)
#    0.000    1.091    3.636    1.909    3.818    2.182 
#    0.000    4.545    0.000    0.000    0.000    0.000 
#    0.000    0.000    0.000    0.000    0.000    0.000 
#
# Total GULP energy -245991.459735 kJ/mol
# GULP energy per Si atom -5590.714994 kJ/mol
# Density = 2.696774 g / cm^3
# Si number density = 27.029264 Si / 1000 Ang^3
#
#
#
# Elastic Constant Matrix: (Units=GPa)
#
#
# Indices 1 2 3 4 5 6 
#
# 1 154.8294 24.3647 60.5809 0.0000 0.0000 0.0000
# 2 24.3647 52.6195 15.0503 0.0000 0.0000 0.0000
# 3 60.5809 15.0503 79.5887 0.0000 0.0000 0.0000
# 4 0.0000 0.0000 0.0000 36.9922 0.0000 0.0000
# 5 0.0000 0.0000 0.0000 0.0000 39.6895 0.0000
# 6 0.0000 0.0000 0.0000 0.0000 0.0000 19.5631
#
#
#
# Elastic Compliance Matrix: (Units=1/GPa)
#
#
# Indices 1 2 3 4 5 6 
#
# 1 0.009490 -0.002461 -0.006758 0.000000 0.000000 0.000000
# 2 -0.002461 0.020729 -0.002046 0.000000 0.000000 0.000000
# 3 -0.006758 -0.002046 0.018096 0.000000 0.000000 0.000000
# 4 0.000000 0.000000 0.000000 0.027033 0.000000 0.000000
# 5 0.000000 0.000000 0.000000 0.000000 0.025196 0.000000
# 6 0.000000 0.000000 0.000000 0.000000 0.000000 0.051117
#
#
# Mechanical properties :
#
#
# Convention : Reuss Voigt Hill
#
# Bulk Modulus (GPa) = 38.78479 54.11439 46.44959
# Shear Modulus (GPa) = 27.35415 31.71841 29.53628
#
# Velocity S-wave (km/s) = 3.18468 3.42933 3.30927
# Velocity P-wave (km/s) = 5.28235 5.97867 5.64127
#
# Compressibility (1/GPa) = 0.02578330
#
# Stress axis : x y z
#
# Youngs Moduli (GPa) = 105.36882 48.24072 55.26097
#
# Poissons Ratio (x) = 0.11874 0.37348
# Poissons Ratio (y) = 0.25935 0.11309
# Poissons Ratio (z) = 0.71213 0.09872
#
# Static dielectric constant tensor:
#      x y z
#    x 2.143440 0.000000 0.000000 
#    y 0.000000 2.063530 0.000000 
#    z 0.000000 0.000000 2.294710 
# 
# From -- ./inp_files/59464.got.cif
#   From: 2010.05.17/outbox.cif.g08.bks.cpg/sg70_30_cif.got.tgz:59464.got - 2010.06.03 15:57:51.
