data_PCOD9515150
_publ_section_title
;
Structure prediction by ZEFSAII (Michael W. Deem and Ramdas Pophale) SiO2 
 PCOD9515150
Probable space group: F D D D
;
_chemical_formula_sum "Si O2"
_cell_formula_units_Z 176
_cell_length_a 23.118869
_cell_length_b 19.929012
_cell_length_c 18.576653
_cell_angle_alpha 90.000000
_cell_angle_beta 90.000000
_cell_angle_gamma 90.000000
_cell_volume 8558.936841
_symmetry_space_group_name_H-M "F D D D"
_symmetry_group_IT_number 70
_space_group.IT_coordinate_system_code '2'
_symmetry_cell_setting 'orthorhombic'
loop_
_space_group_symop_operation_xyz
x,y,z
1/4-x,1/4-y,z
x,1/4-y,1/4-z
1/4-x,y,1/4-z
-x,-y,-z
3/4+x,3/4+y,-z
-x,3/4+y,3/4+z
3/4+x,-y,3/4+z
x,1/2+y,1/2+z
1/4-x,3/4-y,1/2+z
x,3/4-y,3/4-z
1/4-x,1/2+y,3/4-z
-x,1/2-y,1/2-z
3/4+x,1/4+y,1/2-z
-x,1/4+y,1/4+z
3/4+x,1/2-y,1/4+z
1/2+x,y,1/2+z
3/4-x,1/4-y,1/2+z
1/2+x,1/4-y,3/4-z
3/4-x,y,3/4-z
1/2-x,-y,1/2-z
1/4+x,3/4+y,1/2-z
1/2-x,3/4+y,1/4+z
1/4+x,-y,1/4+z
1/2+x,1/2+y,z
3/4-x,3/4-y,z
1/2+x,3/4-y,1/4-z
3/4-x,1/2+y,1/4-z
1/2-x,1/2-y,-z
1/4+x,1/4+y,-z
1/2-x,1/4+y,3/4+z
1/4+x,1/2-y,3/4+z
loop_
_atom_site_type_symbol
_atom_site_label
_atom_site_fract_x
_atom_site_fract_y
_atom_site_fract_z
Si Si1 0.736676 0.008362 0.446482
Si Si2 0.125000 0.625000 0.997398
Si Si3 0.622312 0.375000 0.875000
Si Si4 0.394241 0.069971 0.262626
Si Si5 0.969761 0.653232 0.846038
Si Si6 0.565096 0.511935 0.837803
Si Si7 0.282631 0.375000 0.375000
O O1 0.754704 0.078844 0.412755
O O2 0.671666 0.997474 0.477694
O O3 0.776655 0.003209 0.517270
O O4 0.750907 0.945454 0.394037
O O5 0.113194 0.688019 0.945010
O O6 0.071957 0.613766 0.053160
O O7 0.654967 0.374181 0.799657
O O8 0.586602 0.443118 0.871379
O O9 0.327425 0.075104 0.286135
O O10 0.432902 0.089689 0.330665
O O11 0.024427 0.701194 0.854902
#
# Coordination Sequence:
#
# PCOD9515150 Si02
#       7
#    32  16  16  32  32  32  16
#     4  10  20  41  61  95 127 169 217 264 327 399
#     4   9  20  36  58  96 130 169 212 264 320 411
#     4  12  23  40  63  95 130 164 218 269 324 386
#     4  10  23  39  65  96 125 172 218 267 333 384
#     4  10  22  43  67  88 132 175 218 274 322 391
#     4  10  23  39  60  92 127 171 219 267 325 383
#     4   9  19  34  61  94 138 165 208 260 336 400
#
# _framework density 20.563300999999999
#
# number of rings (size 3 to 8) (size 9 to 14) (size 15 to 20)
#    0.000    2.000    1.818    0.545    5.091    2.182 
#    0.000    3.636    4.000    1.091    0.000    0.000 
#    0.000    0.000    0.000    0.000    0.000    0.000 
#
# Total GULP energy -245228.045462 kJ/mol
# GULP energy per Si atom -5573.364670 kJ/mol
# Density = 2.051650 g / cm^3
# Si number density = 20.563301 Si / 1000 Ang^3
#
#
#
# Elastic Constant Matrix: (Units=GPa)
#
#
# Indices 1 2 3 4 5 6 
#
# 1 78.6603 62.7309 25.9041 0.0000 0.0000 0.0000
# 2 62.7309 138.6472 31.4707 0.0000 0.0000 0.0000
# 3 25.9041 31.4707 84.1602 0.0000 0.0000 0.0000
# 4 0.0000 0.0000 0.0000 29.8021 0.0000 0.0000
# 5 0.0000 0.0000 0.0000 0.0000 3.9971 0.0000
# 6 0.0000 0.0000 0.0000 0.0000 0.0000 27.2497
#
#
#
# Elastic Compliance Matrix: (Units=1/GPa)
#
#
# Indices 1 2 3 4 5 6 
#
# 1 0.020614 -0.008618 -0.003122 0.000000 0.000000 0.000000
# 2 -0.008618 0.011484 -0.001642 0.000000 0.000000 0.000000
# 3 -0.003122 -0.001642 0.013457 0.000000 0.000000 0.000000
# 4 0.000000 0.000000 0.000000 0.033555 0.000000 0.000000
# 5 0.000000 0.000000 0.000000 0.000000 0.250182 0.000000
# 6 0.000000 0.000000 0.000000 0.000000 0.000000 0.036698
#
#
# Mechanical properties :
#
#
# Convention : Reuss Voigt Hill
#
# Bulk Modulus (GPa) = 53.21670 60.18657 56.70163
# Shear Modulus (GPa) = 12.53077 24.30057 18.41567
#
# Velocity S-wave (km/s) = 2.47123 3.44138 2.99584
# Velocity P-wave (km/s) = 5.83766 6.71739 6.29291
#
# Compressibility (1/GPa) = 0.01879110
#
# Stress axis : x y z
#
# Youngs Moduli (GPa) = 48.51088 87.07405 74.31034
#
# Poissons Ratio (x) = 0.75041 0.23201
# Poissons Ratio (y) = 0.41807 0.12201
# Poissons Ratio (z) = 0.15146 0.14297
#
# Static dielectric constant tensor:
#      x y z
#    x 1.822500 0.000000 0.000000 
#    y 0.000000 1.704580 0.000000 
#    z 0.000000 0.000000 1.766630 
# 
# From -- ./inp_files/38578.got.cif
#   From: 2010.05.17/outbox.cif.g08.bks.cpg/sg70_20_cif.got.tgz:38578.got - 2010.06.03 15:57:51.
