data_PCOD9515027
_publ_section_title
;
Structure prediction by ZEFSAII (Michael W. Deem and Ramdas Pophale) SiO2 
 PCOD9515027
Probable space group: F D D D
;
_chemical_formula_sum "Si O2"
_cell_formula_units_Z 176
_cell_length_a 23.190304
_cell_length_b 23.180273
_cell_length_c 15.817829
_cell_angle_alpha 90.000000
_cell_angle_beta 90.000000
_cell_angle_gamma 90.000000
_cell_volume 8502.993841
_symmetry_space_group_name_H-M "F D D D"
_symmetry_group_IT_number 70
_space_group.IT_coordinate_system_code '2'
_symmetry_cell_setting 'orthorhombic'
loop_
_space_group_symop_operation_xyz
x,y,z
1/4-x,1/4-y,z
x,1/4-y,1/4-z
1/4-x,y,1/4-z
-x,-y,-z
3/4+x,3/4+y,-z
-x,3/4+y,3/4+z
3/4+x,-y,3/4+z
x,1/2+y,1/2+z
1/4-x,3/4-y,1/2+z
x,3/4-y,3/4-z
1/4-x,1/2+y,3/4-z
-x,1/2-y,1/2-z
3/4+x,1/4+y,1/2-z
-x,1/4+y,1/4+z
3/4+x,1/2-y,1/4+z
1/2+x,y,1/2+z
3/4-x,1/4-y,1/2+z
1/2+x,1/4-y,3/4-z
3/4-x,y,3/4-z
1/2-x,-y,1/2-z
1/4+x,3/4+y,1/2-z
1/2-x,3/4+y,1/4+z
1/4+x,-y,1/4+z
1/2+x,1/2+y,z
3/4-x,3/4-y,z
1/2+x,3/4-y,1/4-z
3/4-x,1/2+y,1/4-z
1/2-x,1/2-y,-z
1/4+x,1/4+y,-z
1/2-x,1/4+y,3/4+z
1/4+x,1/2-y,3/4+z
loop_
_atom_site_type_symbol
_atom_site_label
_atom_site_fract_x
_atom_site_fract_y
_atom_site_fract_z
Si Si1 0.073806 0.185426 0.555908
Si Si2 0.747245 0.125000 0.625000
Si Si3 0.059996 0.637650 0.351262
Si Si4 0.206940 0.700247 0.474562
Si Si5 0.779321 0.233620 0.088725
Si Si6 0.844244 0.221040 0.658645
O O1 0.125000 0.184813 0.625000
O O2 0.063182 0.128754 0.497660
O O3 0.086949 0.234715 0.486636
O O4 0.015430 0.201036 0.603047
O O5 0.707019 0.156716 0.554823
O O6 0.792760 0.174052 0.658665
O O7 0.125000 0.625000 0.383940
O O8 0.021102 0.591222 0.399073
O O9 0.042818 0.701908 0.371992
O O10 0.250000 0.750000 0.500000
O O11 0.159304 0.740421 0.427544
O O12 0.839965 0.200070 0.082240
O O13 0.750000 0.250000 0.000000
#
# Coordination Sequence:
#
# PCOD9515027 Si02
#       6
#    32  16  32  32  32  32
#     4  11  22  40  63  90 125 165 216 264 322 385
#     4  10  20  38  69  90 131 170 200 268 334 374
#     4  11  21  40  65  87 125 169 206 263 316 374
#     4   9  19  38  66  92 123 164 209 255 320 376
#     4  12  23  38  62  92 127 168 216 265 320 384
#     4  10  21  40  61  94 129 165 214 268 314 392
#
# _framework density 20.698592000000001
#
# number of rings (size 3 to 8) (size 9 to 14) (size 15 to 20)
#    0.000    1.455    5.455    1.091    0.000    4.000 
#    0.000    0.455    8.000    6.545    0.000    0.000 
#    0.000    0.000    0.000    0.000    0.000    0.000 
#
# Total GULP energy -244987.458087 kJ/mol
# GULP energy per Si atom -5567.896775 kJ/mol
# Density = 2.065148 g / cm^3
# Si number density = 20.698592 Si / 1000 Ang^3
#
#
#
# Elastic Constant Matrix: (Units=GPa)
#
#
# Indices 1 2 3 4 5 6 
#
# 1 71.5247 -6.8958 32.5803 0.0000 0.0000 0.0000
# 2 -6.8958 81.0081 21.8731 0.0000 0.0000 0.0000
# 3 32.5803 21.8731 112.6123 0.0000 0.0000 0.0000
# 4 0.0000 0.0000 0.0000 53.0565 0.0000 0.0000
# 5 0.0000 0.0000 0.0000 0.0000 32.4829 0.0000
# 6 0.0000 0.0000 0.0000 0.0000 0.0000 21.5251
#
#
#
# Elastic Compliance Matrix: (Units=1/GPa)
#
#
# Indices 1 2 3 4 5 6 
#
# 1 0.016717 0.002880 -0.005396 0.000000 0.000000 0.000000
# 2 0.002880 0.013524 -0.003460 0.000000 0.000000 0.000000
# 3 -0.005396 -0.003460 0.011113 0.000000 0.000000 0.000000
# 4 0.000000 0.000000 0.000000 0.018848 0.000000 0.000000
# 5 0.000000 0.000000 0.000000 0.000000 0.030785 0.000000
# 6 0.000000 0.000000 0.000000 0.000000 0.000000 0.046457
#
#
# Mechanical properties :
#
#
# Convention : Reuss Voigt Hill
#
# Bulk Modulus (GPa) = 34.01131 40.02893 37.02012
# Shear Modulus (GPa) = 31.40769 35.91872 33.66321
#
# Velocity S-wave (km/s) = 3.89959 4.17024 4.03718
# Velocity P-wave (km/s) = 6.06161 6.52448 6.29730
#
# Compressibility (1/GPa) = 0.02940199
#
# Stress axis : x y z
#
# Youngs Moduli (GPa) = 59.82061 73.94358 89.98368
#
# Poissons Ratio (x) = -0.21295 0.48553
# Poissons Ratio (y) = -0.17228 0.31134
# Poissons Ratio (z) = 0.32278 0.25584
#
# Static dielectric constant tensor:
#      x y z
#    x 1.827650 0.000000 0.000000 
#    y 0.000000 1.808140 0.000000 
#    z 0.000000 0.000000 1.790690 
# 
# From -- ./inp_files/28962.got.cif
#   From: 2010.05.17/outbox.cif.g08.bks.cpg/sg70_15_cif.got.tgz:28962.got - 2010.06.03 15:57:51.
