data_PCOD9515272
_publ_section_title
;
Structure prediction by ZEFSAII (Michael W. Deem and Ramdas Pophale) SiO2 
 PCOD9515272
Probable space group: F D D D
;
_chemical_formula_sum "Si O2"
_cell_formula_units_Z 144
_cell_length_a 16.009160
_cell_length_b 18.963481
_cell_length_c 25.052359
_cell_angle_alpha 90.000000
_cell_angle_beta 90.000000
_cell_angle_gamma 90.000000
_cell_volume 7605.630675
_symmetry_space_group_name_H-M "F D D D"
_symmetry_group_IT_number 70
_space_group.IT_coordinate_system_code '2'
_symmetry_cell_setting 'orthorhombic'
loop_
_space_group_symop_operation_xyz
x,y,z
1/4-x,1/4-y,z
x,1/4-y,1/4-z
1/4-x,y,1/4-z
-x,-y,-z
3/4+x,3/4+y,-z
-x,3/4+y,3/4+z
3/4+x,-y,3/4+z
x,1/2+y,1/2+z
1/4-x,3/4-y,1/2+z
x,3/4-y,3/4-z
1/4-x,1/2+y,3/4-z
-x,1/2-y,1/2-z
3/4+x,1/4+y,1/2-z
-x,1/4+y,1/4+z
3/4+x,1/2-y,1/4+z
1/2+x,y,1/2+z
3/4-x,1/4-y,1/2+z
1/2+x,1/4-y,3/4-z
3/4-x,y,3/4-z
1/2-x,-y,1/2-z
1/4+x,3/4+y,1/2-z
1/2-x,3/4+y,1/4+z
1/4+x,-y,1/4+z
1/2+x,1/2+y,z
3/4-x,3/4-y,z
1/2+x,3/4-y,1/4-z
3/4-x,1/2+y,1/4-z
1/2-x,1/2-y,-z
1/4+x,1/4+y,-z
1/2-x,1/4+y,3/4+z
1/4+x,1/2-y,3/4+z
loop_
_atom_site_type_symbol
_atom_site_label
_atom_site_fract_x
_atom_site_fract_y
_atom_site_fract_z
Si Si1 0.167953 0.011361 0.681198
Si Si2 0.305933 0.645946 0.294595
Si Si3 0.489860 0.125000 0.625000
Si Si4 0.625000 0.739943 0.125000
Si Si5 0.327304 0.155688 0.569609
Si Si6 0.625000 0.625000 0.769777
O O1 0.125000 0.031128 0.625000
O O2 0.268057 0.026503 0.686008
O O3 0.133138 0.058996 0.729120
O O4 0.152842 0.928712 0.689733
O O5 0.345061 0.709899 0.326930
O O6 0.314052 0.645728 0.230326
O O7 0.207096 0.638654 0.304370
O O8 0.549963 0.188198 0.643094
O O9 0.426175 0.158469 0.581329
O O10 0.293194 0.125000 0.625000
#
# Coordination Sequence:
#
# PCOD9515272 Si02
#       6
#    32  32  16  16  32  16
#     4  11  20  36  58  97 125 158 195 253 313 367
#     4  11  23  37  61  92 125 155 206 262 303 366
#     4   9  24  44  67  78 122 172 213 252 306 361
#     4  11  24  44  60  91 122 168 212 259 300 356
#     4   9  20  40  62  86 119 164 204 245 305 367
#     4  10  21  34  62  86 126 166 199 246 310 372
#
# _framework density 18.933340999999999
#
# number of rings (size 3 to 8) (size 9 to 14) (size 15 to 20)
#    0.667    1.111    1.111    5.667    6.222    0.889 
#    0.000    0.000    0.000    2.667    0.000    0.000 
#    0.000    0.000    0.000    0.000    0.000    0.000 
#
# Total GULP energy -200435.118175 kJ/mol
# GULP energy per Si atom -5567.642172 kJ/mol
# Density = 1.889025 g / cm^3
# Si number density = 18.933341 Si / 1000 Ang^3
#
#
#
# Elastic Constant Matrix: (Units=GPa)
#
#
# Indices 1 2 3 4 5 6 
#
# 1 116.8963 43.4703 24.5459 0.0000 0.0000 0.0000
# 2 43.4703 119.4184 30.2941 0.0000 0.0000 0.0000
# 3 24.5459 30.2941 89.8898 0.0000 0.0000 0.0000
# 4 0.0000 0.0000 0.0000 24.7605 0.0000 0.0000
# 5 0.0000 0.0000 0.0000 0.0000 21.8067 0.0000
# 6 0.0000 0.0000 0.0000 0.0000 0.0000 18.0351
#
#
#
# Elastic Compliance Matrix: (Units=1/GPa)
#
#
# Indices 1 2 3 4 5 6 
#
# 1 0.010116 -0.003261 -0.001664 0.000000 0.000000 0.000000
# 2 -0.003261 0.010208 -0.002550 0.000000 0.000000 0.000000
# 3 -0.001664 -0.002550 0.012438 0.000000 0.000000 0.000000
# 4 0.000000 0.000000 0.000000 0.040387 0.000000 0.000000
# 5 0.000000 0.000000 0.000000 0.000000 0.045857 0.000000
# 6 0.000000 0.000000 0.000000 0.000000 0.000000 0.055448
#
#
# Mechanical properties :
#
#
# Convention : Reuss Voigt Hill
#
# Bulk Modulus (GPa) = 56.13391 58.09169 57.11280
# Shear Modulus (GPa) = 25.59637 28.11341 26.85489
#
# Velocity S-wave (km/s) = 3.68084 3.85757 3.77024
# Velocity P-wave (km/s) = 6.91211 7.11266 7.01310
#
# Compressibility (1/GPa) = 0.01781454
#
# Stress axis : x y z
#
# Youngs Moduli (GPa) = 98.84938 97.96593 80.39673
#
# Poissons Ratio (x) = 0.31942 0.13375
# Poissons Ratio (y) = 0.32230 0.20499
# Poissons Ratio (z) = 0.16445 0.24979
#
# Static dielectric constant tensor:
#      x y z
#    x 1.713160 0.000000 0.000000 
#    y 0.000000 1.672690 0.000000 
#    z 0.000000 0.000000 1.668230 
# 
# From -- ./inp_files/52078.got.cif
#   From: 2010.05.17/outbox.cif.g08.bks.cpg/sg70_27_cif.got.tgz:52078.got - 2010.06.03 15:57:51.
