data_PCOD9515955
_publ_section_title
;
Structure prediction by ZEFSAII (Michael W. Deem and Ramdas Pophale) SiO2 
 PCOD9515955
Probable space group: F D D D
;
_chemical_formula_sum "Si O2"
_cell_formula_units_Z 192
_cell_length_a 14.223181
_cell_length_b 22.289742
_cell_length_c 28.238764
_cell_angle_alpha 90.000000
_cell_angle_beta 90.000000
_cell_angle_gamma 90.000000
_cell_volume 8952.564575
_symmetry_space_group_name_H-M "F D D D"
_symmetry_group_IT_number 70
_space_group.IT_coordinate_system_code '2'
_symmetry_cell_setting 'orthorhombic'
loop_
_space_group_symop_operation_xyz
x,y,z
1/4-x,1/4-y,z
x,1/4-y,1/4-z
1/4-x,y,1/4-z
-x,-y,-z
3/4+x,3/4+y,-z
-x,3/4+y,3/4+z
3/4+x,-y,3/4+z
x,1/2+y,1/2+z
1/4-x,3/4-y,1/2+z
x,3/4-y,3/4-z
1/4-x,1/2+y,3/4-z
-x,1/2-y,1/2-z
3/4+x,1/4+y,1/2-z
-x,1/4+y,1/4+z
3/4+x,1/2-y,1/4+z
1/2+x,y,1/2+z
3/4-x,1/4-y,1/2+z
1/2+x,1/4-y,3/4-z
3/4-x,y,3/4-z
1/2-x,-y,1/2-z
1/4+x,3/4+y,1/2-z
1/2-x,3/4+y,1/4+z
1/4+x,-y,1/4+z
1/2+x,1/2+y,z
3/4-x,3/4-y,z
1/2+x,3/4-y,1/4-z
3/4-x,1/2+y,1/4-z
1/2-x,1/2-y,-z
1/4+x,1/4+y,-z
1/2-x,1/4+y,3/4+z
1/4+x,1/2-y,3/4+z
loop_
_atom_site_type_symbol
_atom_site_label
_atom_site_fract_x
_atom_site_fract_y
_atom_site_fract_z
Si Si1 0.374397 0.280079 0.043452
Si Si2 0.875000 0.375000 0.875000
Si Si3 0.153724 0.419456 0.271484
Si Si4 0.197657 0.707622 0.953214
Si Si5 0.790503 0.443047 0.963191
Si Si6 0.489710 0.416338 0.959989
Si Si7 0.625000 0.125000 0.625000
Si Si8 0.375000 0.375000 0.123876
O O1 0.480847 0.254680 0.040929
O O2 0.312062 0.220619 0.043385
O O3 0.347444 0.321838 0.087896
O O4 0.339441 0.315727 0.997534
O O5 0.827313 0.421039 0.912299
O O6 0.175572 0.472593 0.309303
O O7 0.197889 0.450497 0.224652
O O8 0.219105 0.361072 0.274888
O O9 0.049597 0.392914 0.276126
O O10 0.190997 0.661003 0.910470
O O11 0.118070 0.694304 0.994253
O O12 0.441445 0.411410 0.909544
#
# Coordination Sequence:
#
# PCOD9515955 Si02
#       8
#    32   8  32  32  32  32   8  16
#     4  10  26  45  69  97 144 179 226 296 353 403
#     4  12  22  38  64 104 128 174 242 276 364 410
#     4  10  22  43  70  95 139 181 224 279 357 424
#     4  11  23  42  68 102 137 181 223 289 360 423
#     4  11  23  43  67  96 139 183 228 292 346 438
#     4  10  25  48  68 101 134 187 231 285 351 414
#     4  12  26  42  76 104 118 180 250 272 332 422
#     4  12  24  40  68 110 128 178 232 292 344 416
#
# _framework density 21.446368
#
# number of rings (size 3 to 8) (size 9 to 14) (size 15 to 20)
#    0.000    1.333    3.333    0.500    9.333    1.333 
#    3.000    0.000    0.000    0.000    0.000    0.000 
#    0.000    0.000    0.000    0.000    0.000    0.000 
#
# Total GULP energy -267438.091731 kJ/mol
# GULP energy per Si atom -5571.626911 kJ/mol
# Density = 2.139756 g / cm^3
# Si number density = 21.446368 Si / 1000 Ang^3
#
#
#
# Elastic Constant Matrix: (Units=GPa)
#
#
# Indices 1 2 3 4 5 6 
#
# 1 115.2965 50.3646 54.8900 0.0000 0.0000 0.0000
# 2 50.3646 148.6424 42.1373 0.0000 0.0000 0.0000
# 3 54.8900 42.1373 131.7428 0.0000 0.0000 0.0000
# 4 0.0000 0.0000 0.0000 49.5772 0.0000 0.0000
# 5 0.0000 0.0000 0.0000 0.0000 35.2529 0.0000
# 6 0.0000 0.0000 0.0000 0.0000 0.0000 35.3228
#
#
#
# Elastic Compliance Matrix: (Units=1/GPa)
#
#
# Indices 1 2 3 4 5 6 
#
# 1 0.011839 -0.002874 -0.004014 0.000000 0.000000 0.000000
# 2 -0.002874 0.008096 -0.001392 0.000000 0.000000 0.000000
# 3 -0.004014 -0.001392 0.009708 0.000000 0.000000 0.000000
# 4 0.000000 0.000000 0.000000 0.020171 0.000000 0.000000
# 5 0.000000 0.000000 0.000000 0.000000 0.028366 0.000000
# 6 0.000000 0.000000 0.000000 0.000000 0.000000 0.028310
#
#
# Mechanical properties :
#
#
# Convention : Reuss Voigt Hill
#
# Bulk Modulus (GPa) = 76.42723 76.71840 76.57282
# Shear Modulus (GPa) = 39.24297 40.58324 39.91310
#
# Velocity S-wave (km/s) = 4.28228 4.35479 4.31869
# Velocity P-wave (km/s) = 7.75657 7.81892 7.78781
#
# Compressibility (1/GPa) = 0.01308434
#
# Stress axis : x y z
#
# Youngs Moduli (GPa) = 84.46337 123.51918 103.00692
#
# Poissons Ratio (x) = 0.35497 0.41344
# Poissons Ratio (y) = 0.24273 0.14340
# Poissons Ratio (z) = 0.33901 0.17195
#
# Static dielectric constant tensor:
#      x y z
#    x 1.849330 0.000000 0.000000 
#    y 0.000000 1.883620 0.000000 
#    z 0.000000 0.000000 1.780450 
# 
# From -- ./inp_files/58674.got.cif
#   From: 2010.05.17/outbox.cif.g08.bks.cpg/sg70_30_cif.got.tgz:58674.got - 2010.06.03 15:57:51.
