data_PCOD9515871
_publ_section_title
;
Structure prediction by ZEFSAII (Michael W. Deem and Ramdas Pophale) SiO2 
 PCOD9515871
Probable space group: F D D D
;
_chemical_formula_sum "Si O2"
_cell_formula_units_Z 136
_cell_length_a 22.611500
_cell_length_b 26.380099
_cell_length_c 10.214742
_cell_angle_alpha 90.000000
_cell_angle_beta 90.000000
_cell_angle_gamma 90.000000
_cell_volume 6093.028316
_symmetry_space_group_name_H-M "F D D D"
_symmetry_group_IT_number 70
_space_group.IT_coordinate_system_code '2'
_symmetry_cell_setting 'orthorhombic'
loop_
_space_group_symop_operation_xyz
x,y,z
1/4-x,1/4-y,z
x,1/4-y,1/4-z
1/4-x,y,1/4-z
-x,-y,-z
3/4+x,3/4+y,-z
-x,3/4+y,3/4+z
3/4+x,-y,3/4+z
x,1/2+y,1/2+z
1/4-x,3/4-y,1/2+z
x,3/4-y,3/4-z
1/4-x,1/2+y,3/4-z
-x,1/2-y,1/2-z
3/4+x,1/4+y,1/2-z
-x,1/4+y,1/4+z
3/4+x,1/2-y,1/4+z
1/2+x,y,1/2+z
3/4-x,1/4-y,1/2+z
1/2+x,1/4-y,3/4-z
3/4-x,y,3/4-z
1/2-x,-y,1/2-z
1/4+x,3/4+y,1/2-z
1/2-x,3/4+y,1/4+z
1/4+x,-y,1/4+z
1/2+x,1/2+y,z
3/4-x,3/4-y,z
1/2+x,3/4-y,1/4-z
3/4-x,1/2+y,1/4-z
1/2-x,1/2-y,-z
1/4+x,1/4+y,-z
1/2-x,1/4+y,3/4+z
1/4+x,1/2-y,3/4+z
loop_
_atom_site_type_symbol
_atom_site_label
_atom_site_fract_x
_atom_site_fract_y
_atom_site_fract_z
Si Si1 0.125000 0.366161 0.125000
Si Si2 0.375000 0.875000 0.375000
Si Si3 0.344522 0.946352 0.600030
Si Si4 0.790811 0.047165 0.400062
Si Si5 0.691216 0.967937 0.797954
Si Si6 0.375000 0.295709 0.375000
O O1 0.174024 0.407700 0.174663
O O2 0.084023 0.328117 0.210255
O O3 0.340006 0.909495 0.476091
O O4 0.277201 0.957452 0.631380
O O5 0.373920 0.927511 0.735335
O O6 0.386676 0.992515 0.557533
O O7 0.797343 0.054046 0.557133
O O8 0.820961 0.993534 0.374710
O O9 0.750000 0.000000 0.750000
#
# Coordination Sequence:
#
# PCOD9515871 Si02
#       6
#    16   8  32  32  32  16
#     4  11  23  38  64 100 136 182 230 300 357 415
#     4  12  26  38  66 100 132 182 230 296 336 422
#     4  11  24  43  68  99 137 182 236 285 359 424
#     4  10  22  41  69  98 137 178 238 296 356 435
#     4  11  23  42  67  99 139 187 237 295 365 443
#     4   9  22  45  69  95 136 187 223 293 356 435
#
# _framework density 22.320592000000001
#
# number of rings (size 3 to 8) (size 9 to 14) (size 15 to 20)
#    0.000    1.412    0.000    4.941    6.588    0.471 
#    0.000    4.706    5.176    0.000    0.000    0.000 
#    0.000    0.000    0.000    0.000    0.000    0.000 
#
# Total GULP energy -189474.664693 kJ/mol
# GULP energy per Si atom -5572.784256 kJ/mol
# Density = 2.226979 g / cm^3
# Si number density = 22.320592 Si / 1000 Ang^3
#
#
#
# Elastic Constant Matrix: (Units=GPa)
#
#
# Indices 1 2 3 4 5 6 
#
# 1 172.3526 67.9649 19.0319 -0.0001 0.0001 0.0000
# 2 67.9649 126.9999 43.7128 0.0000 0.0000 0.0000
# 3 19.0319 43.7128 133.9412 -0.0004 0.0004 0.0001
# 4 -0.0001 0.0000 -0.0004 39.2513 0.0002 0.0000
# 5 0.0001 0.0000 0.0004 0.0002 25.5097 -0.0001
# 6 0.0000 0.0000 0.0001 0.0000 -0.0001 16.1545
#
#
#
# Elastic Compliance Matrix: (Units=1/GPa)
#
#
# Indices 1 2 3 4 5 6 
#
# 1 0.007363 -0.004033 0.000270 0.000000 0.000000 0.000000
# 2 -0.004033 0.011080 -0.003043 0.000000 0.000000 0.000000
# 3 0.000270 -0.003043 0.008421 0.000000 0.000000 0.000000
# 4 0.000000 0.000000 0.000000 0.025477 0.000000 0.000000
# 5 0.000000 0.000000 0.000000 0.000000 0.039201 0.000000
# 6 0.000000 0.000000 0.000000 0.000000 0.000000 0.061902
#
#
# Mechanical properties :
#
#
# Convention : Reuss Voigt Hill
#
# Bulk Modulus (GPa) = 75.46514 77.19031 76.32772
# Shear Modulus (GPa) = 29.15930 36.35538 32.75734
#
# Velocity S-wave (km/s) = 3.61832 4.04020 3.83506
# Velocity P-wave (km/s) = 7.16515 7.51145 7.34034
#
# Compressibility (1/GPa) = 0.01325115
#
# Stress axis : x y z
#
# Youngs Moduli (GPa) = 135.82072 90.25489 118.75553
#
# Poissons Ratio (x) = 0.36401 -0.03207
# Poissons Ratio (y) = 0.54778 0.36136
# Poissons Ratio (z) = -0.03668 0.27464
#
# Static dielectric constant tensor:
#      x y z
#    x 1.763520 0.000000 0.000000 
#    y 0.000000 1.885000 0.000000 
#    z 0.000000 0.000000 1.870160 
# 
# From -- ./inp_files/17708.got.cif
#   From: 2010.05.17/outbox.cif.g08.bks.cpg/sg70_9_cif.got.tgz:17708.got - 2010.06.03 15:57:51.
