data_PCOD9515940
_publ_section_title
;
Structure prediction by ZEFSAII (Michael W. Deem and Ramdas Pophale) SiO2 
 PCOD9515940
Probable space group: F D D D
;
_chemical_formula_sum "Si O2"
_cell_formula_units_Z 144
_cell_length_a 26.333758
_cell_length_b 24.242211
_cell_length_c 9.428130
_cell_angle_alpha 90.000000
_cell_angle_beta 90.000000
_cell_angle_gamma 90.000000
_cell_volume 6018.809937
_symmetry_space_group_name_H-M "F D D D"
_symmetry_group_IT_number 70
_space_group.IT_coordinate_system_code '2'
_symmetry_cell_setting 'orthorhombic'
loop_
_space_group_symop_operation_xyz
x,y,z
1/4-x,1/4-y,z
x,1/4-y,1/4-z
1/4-x,y,1/4-z
-x,-y,-z
3/4+x,3/4+y,-z
-x,3/4+y,3/4+z
3/4+x,-y,3/4+z
x,1/2+y,1/2+z
1/4-x,3/4-y,1/2+z
x,3/4-y,3/4-z
1/4-x,1/2+y,3/4-z
-x,1/2-y,1/2-z
3/4+x,1/4+y,1/2-z
-x,1/4+y,1/4+z
3/4+x,1/2-y,1/4+z
1/2+x,y,1/2+z
3/4-x,1/4-y,1/2+z
1/2+x,1/4-y,3/4-z
3/4-x,y,3/4-z
1/2-x,-y,1/2-z
1/4+x,3/4+y,1/2-z
1/2-x,3/4+y,1/4+z
1/4+x,-y,1/4+z
1/2+x,1/2+y,z
3/4-x,3/4-y,z
1/2+x,3/4-y,1/4-z
3/4-x,1/2+y,1/4-z
1/2-x,1/2-y,-z
1/4+x,1/4+y,-z
1/2-x,1/4+y,3/4+z
1/4+x,1/2-y,3/4+z
loop_
_atom_site_type_symbol
_atom_site_label
_atom_site_fract_x
_atom_site_fract_y
_atom_site_fract_z
Si Si1 0.532279 0.483715 0.359883
Si Si2 0.106706 0.981066 0.788622
Si Si3 0.026327 0.625000 0.125000
Si Si4 0.426728 0.897739 0.604442
Si Si5 0.502698 0.447333 0.895964
O O1 0.500000 0.500000 0.500000
O O2 0.591247 0.472710 0.379393
O O3 0.507282 0.425320 0.319480
O O4 0.526123 0.530888 0.243143
O O5 0.125000 0.976626 0.625000
O O6 0.060813 0.941526 0.840975
O O7 0.086337 0.042421 0.826210
O O8 0.059985 0.640494 0.260428
O O9 0.375000 0.875000 0.538045
O O10 0.473200 0.903583 0.494893
O O11 0.500000 0.500000 0.000000
#
# Coordination Sequence:
#
# PCOD9515940 Si02
#       5
#    32  32  16  32  32
#     4  12  23  43  76 104 144 199 251 305 386 453
#     4  11  21  42  72  98 144 205 242 300 391 456
#     4  12  23  44  74 112 140 194 267 308 362 486
#     4  11  22  41  73 109 147 194 257 319 373 448
#     4  10  22  43  67 107 150 187 241 313 378 443
#
# _framework density 23.924996
#
# number of rings (size 3 to 8) (size 9 to 14) (size 15 to 20)
#    0.000    0.889    6.667    3.000    0.000    3.556 
#    0.000   10.000    0.000    0.000    0.000    0.000 
#    0.000    0.000    0.000    0.000    0.000    0.000 
#
# Total GULP energy -201280.570017 kJ/mol
# GULP energy per Si atom -5591.126945 kJ/mol
# Density = 2.387054 g / cm^3
# Si number density = 23.924996 Si / 1000 Ang^3
#
#
#
# Elastic Constant Matrix: (Units=GPa)
#
#
# Indices 1 2 3 4 5 6 
#
# 1 237.2318 23.7407 76.3526 -0.0004 0.0003 0.0002
# 2 23.7407 75.2192 22.4306 -0.0007 0.0006 0.0004
# 3 76.3526 22.4306 172.6349 -0.0017 0.0018 0.0010
# 4 -0.0004 -0.0007 -0.0017 35.9036 0.0010 0.0006
# 5 0.0003 0.0006 0.0018 0.0010 46.8312 -0.0006
# 6 0.0002 0.0004 0.0010 0.0006 -0.0006 36.8627
#
#
#
# Elastic Compliance Matrix: (Units=1/GPa)
#
#
# Indices 1 2 3 4 5 6 
#
# 1 0.004980 -0.000952 -0.002079 0.000000 0.000000 0.000000
# 2 -0.000952 0.014012 -0.001400 0.000000 0.000000 0.000000
# 3 -0.002079 -0.001400 0.006894 0.000000 0.000000 0.000000
# 4 0.000000 0.000000 0.000000 0.027852 -0.000001 0.000000
# 5 0.000000 0.000000 0.000000 -0.000001 0.021353 0.000000
# 6 0.000000 0.000000 0.000000 0.000000 0.000000 0.027128
#
#
# Mechanical properties :
#
#
# Convention : Reuss Voigt Hill
#
# Bulk Modulus (GPa) = 58.73599 81.12598 69.93098
# Shear Modulus (GPa) = 42.82495 48.09029 45.45762
#
# Velocity S-wave (km/s) = 4.23539 4.48822 4.36363
# Velocity P-wave (km/s) = 6.96573 7.80005 7.39467
#
# Compressibility (1/GPa) = 0.01702534
#
# Stress axis : x y z
#
# Youngs Moduli (GPa) = 200.82123 71.36601 145.05819
#
# Poissons Ratio (x) = 0.06792 0.30153
# Poissons Ratio (y) = 0.19114 0.20303
# Poissons Ratio (z) = 0.41744 0.09989
#
# Static dielectric constant tensor:
#      x y z
#    x 1.946670 0.000000 0.000000 
#    y 0.000000 2.040280 0.000000 
#    z 0.000000 0.000000 1.943610 
# 
# From -- ./inp_files/12251.got.cif
#   From: 2010.05.17/outbox.cif.g08.bks.cpg/sg70_7_cif.got.tgz:12251.got - 2010.06.03 15:57:51.
