data_PCOD9515394
_publ_section_title
;
Structure prediction by ZEFSAII (Michael W. Deem and Ramdas Pophale) SiO2 
 PCOD9515394
Probable space group: F D D D
;
_chemical_formula_sum "Si O2"
_cell_formula_units_Z 160
_cell_length_a 22.088934
_cell_length_b 12.267292
_cell_length_c 28.617242
_cell_angle_alpha 90.000000
_cell_angle_beta 90.000000
_cell_angle_gamma 90.000000
_cell_volume 7754.454225
_symmetry_space_group_name_H-M "F D D D"
_symmetry_group_IT_number 70
_space_group.IT_coordinate_system_code '2'
_symmetry_cell_setting 'orthorhombic'
loop_
_space_group_symop_operation_xyz
x,y,z
1/4-x,1/4-y,z
x,1/4-y,1/4-z
1/4-x,y,1/4-z
-x,-y,-z
3/4+x,3/4+y,-z
-x,3/4+y,3/4+z
3/4+x,-y,3/4+z
x,1/2+y,1/2+z
1/4-x,3/4-y,1/2+z
x,3/4-y,3/4-z
1/4-x,1/2+y,3/4-z
-x,1/2-y,1/2-z
3/4+x,1/4+y,1/2-z
-x,1/4+y,1/4+z
3/4+x,1/2-y,1/4+z
1/2+x,y,1/2+z
3/4-x,1/4-y,1/2+z
1/2+x,1/4-y,3/4-z
3/4-x,y,3/4-z
1/2-x,-y,1/2-z
1/4+x,3/4+y,1/2-z
1/2-x,3/4+y,1/4+z
1/4+x,-y,1/4+z
1/2+x,1/2+y,z
3/4-x,3/4-y,z
1/2+x,3/4-y,1/4-z
3/4-x,1/2+y,1/4-z
1/2-x,1/2-y,-z
1/4+x,1/4+y,-z
1/2-x,1/4+y,3/4+z
1/4+x,1/2-y,3/4+z
loop_
_atom_site_type_symbol
_atom_site_label
_atom_site_fract_x
_atom_site_fract_y
_atom_site_fract_z
Si Si1 0.923603 0.218579 0.192114
Si Si2 0.970120 0.375000 0.875000
Si Si3 0.543946 0.715035 0.924179
Si Si4 0.228951 0.125000 0.125000
Si Si5 0.424262 0.089008 0.780590
Si Si6 0.125000 0.125000 0.708087
Si Si7 0.875000 0.196060 0.375000
O O1 0.937508 0.339218 0.173068
O O2 0.852038 0.209069 0.182172
O O3 0.974388 0.145072 0.167501
O O4 0.927348 0.192921 0.247045
O O5 0.930210 0.364458 0.828602
O O6 0.009930 0.483343 0.869699
O O7 0.492027 0.707791 0.963642
O O8 0.183261 0.225994 0.133907
O O9 0.395370 0.124706 0.830319
O O10 0.384953 0.985978 0.763469
#
# Coordination Sequence:
#
# PCOD9515394 Si02
#       7
#    32  16  32  16  32  16  16
#     4  11  24  39  63  92 139 166 222 266 348 405
#     4   9  17  38  64  88 121 155 234 260 322 393
#     4  10  21  38  63  89 122 181 206 273 327 399
#     4  11  25  40  60 104 127 177 214 280 342 415
#     4  11  22  42  65  97 128 175 222 282 332 409
#     4   9  20  36  68  92 122 166 220 274 322 389
#     4  11  24  39  70  94 134 169 232 281 338 396
#
# _framework density 20.633302
#
# number of rings (size 3 to 8) (size 9 to 14) (size 15 to 20)
#    0.000    1.600    2.000    3.600    2.800    1.600 
#    0.000    8.000    0.000    0.000    0.000    0.000 
#    0.000    0.000    0.000    0.000    0.000    0.000 
#
# Total GULP energy -222676.926224 kJ/mol
# GULP energy per Si atom -5566.923156 kJ/mol
# Density = 2.058634 g / cm^3
# Si number density = 20.633302 Si / 1000 Ang^3
#
#
#
# Elastic Constant Matrix: (Units=GPa)
#
#
# Indices 1 2 3 4 5 6 
#
# 1 133.3551 32.5633 28.7816 0.0000 0.0000 0.0000
# 2 32.5633 92.0893 18.6663 0.0000 0.0000 0.0000
# 3 28.7816 18.6663 56.6797 0.0000 0.0000 0.0000
# 4 0.0000 0.0000 0.0000 8.7616 0.0000 0.0000
# 5 0.0000 0.0000 0.0000 0.0000 18.3697 0.0000
# 6 0.0000 0.0000 0.0000 0.0000 0.0000 30.0887
#
#
#
# Elastic Compliance Matrix: (Units=1/GPa)
#
#
# Indices 1 2 3 4 5 6 
#
# 1 0.008886 -0.002387 -0.003726 0.000000 0.000000 0.000000
# 2 -0.002387 0.012277 -0.002831 0.000000 0.000000 0.000000
# 3 -0.003726 -0.002831 0.020467 0.000000 0.000000 0.000000
# 4 0.000000 0.000000 0.000000 0.114134 0.000000 0.000000
# 5 0.000000 0.000000 0.000000 0.000000 0.054437 0.000000
# 6 0.000000 0.000000 0.000000 0.000000 0.000000 0.033235
#
#
# Mechanical properties :
#
#
# Convention : Reuss Voigt Hill
#
# Bulk Modulus (GPa) = 42.11936 49.12740 45.62338
# Shear Modulus (GPa) = 18.57088 24.91819 21.74454
#
# Velocity S-wave (km/s) = 3.00333 3.47892 3.24984
# Velocity P-wave (km/s) = 5.69949 6.32445 6.02009
#
# Compressibility (1/GPa) = 0.02374205
#
# Stress axis : x y z
#
# Youngs Moduli (GPa) = 112.53916 81.45397 48.85801
#
# Poissons Ratio (x) = 0.19441 0.18205
# Poissons Ratio (y) = 0.26861 0.13832
# Poissons Ratio (z) = 0.41933 0.23061
#
# Static dielectric constant tensor:
#      x y z
#    x 1.801750 0.000000 0.000000 
#    y 0.000000 1.835120 0.000000 
#    z 0.000000 0.000000 1.734530 
# 
# From -- ./inp_files/67756.got.cif
#   From: 2010.05.17/outbox.cif.g08.bks.cpg/sg70_34_cif.got.tgz:67756.got - 2010.06.03 15:57:51.
