data_PCOD9515151
_publ_section_title
;
Structure prediction by ZEFSAII (Michael W. Deem and Ramdas Pophale) SiO2 
 PCOD9515151
Probable space group: F D D D
;
_chemical_formula_sum "Si O2"
_cell_formula_units_Z 136
_cell_length_a 19.582295
_cell_length_b 26.362119
_cell_length_c 11.359974
_cell_angle_alpha 90.000000
_cell_angle_beta 90.000000
_cell_angle_gamma 90.000000
_cell_volume 5864.368365
_symmetry_space_group_name_H-M "F D D D"
_symmetry_group_IT_number 70
_space_group.IT_coordinate_system_code '2'
_symmetry_cell_setting 'orthorhombic'
loop_
_space_group_symop_operation_xyz
x,y,z
1/4-x,1/4-y,z
x,1/4-y,1/4-z
1/4-x,y,1/4-z
-x,-y,-z
3/4+x,3/4+y,-z
-x,3/4+y,3/4+z
3/4+x,-y,3/4+z
x,1/2+y,1/2+z
1/4-x,3/4-y,1/2+z
x,3/4-y,3/4-z
1/4-x,1/2+y,3/4-z
-x,1/2-y,1/2-z
3/4+x,1/4+y,1/2-z
-x,1/4+y,1/4+z
3/4+x,1/2-y,1/4+z
1/2+x,y,1/2+z
3/4-x,1/4-y,1/2+z
1/2+x,1/4-y,3/4-z
3/4-x,y,3/4-z
1/2-x,-y,1/2-z
1/4+x,3/4+y,1/2-z
1/2-x,3/4+y,1/4+z
1/4+x,-y,1/4+z
1/2+x,1/2+y,z
3/4-x,3/4-y,z
1/2+x,3/4-y,1/4-z
3/4-x,1/2+y,1/4-z
1/2-x,1/2-y,-z
1/4+x,1/4+y,-z
1/2-x,1/4+y,3/4+z
1/4+x,1/2-y,3/4+z
loop_
_atom_site_type_symbol
_atom_site_label
_atom_site_fract_x
_atom_site_fract_y
_atom_site_fract_z
Si Si1 0.801446 0.319384 0.925512
Si Si2 0.625000 0.125000 0.625000
Si Si3 0.394688 0.625000 0.125000
Si Si4 0.015974 0.027474 0.341620
Si Si5 0.125000 0.835603 0.125000
Si Si6 0.484012 0.797958 0.330296
O O1 0.787752 0.375000 0.875000
O O2 0.875000 0.304482 0.875000
O O3 0.743159 0.280091 0.884722
O O4 0.807307 0.311024 0.065295
O O5 0.573564 0.160229 0.701668
O O6 0.359516 0.614970 0.251972
O O7 0.445511 0.578298 0.096742
O O8 0.940925 0.052169 0.347526
O O9 0.040132 0.029215 0.208747
O O10 0.500000 0.750000 0.250000
#
# Coordination Sequence:
#
# PCOD9515151 Si02
#       6
#    32   8  16  32  16  32
#     4  10  22  40  62  93 132 180 226 286 360 431
#     4  10  24  46  68 104 138 188 240 300 358 436
#     4   9  22  41  68  96 135 178 237 284 364 446
#     4  10  22  40  63  95 135 171 230 291 352 431
#     4  10  20  41  63  94 134 171 221 296 352 428
#     4  10  23  44  66  99 137 185 239 297 361 435
#
# _framework density 23.190902999999999
#
# number of rings (size 3 to 8) (size 9 to 14) (size 15 to 20)
#    0.000    2.118    1.176    0.000    1.647   10.353 
#    8.471    0.000    0.000    0.000    0.000    0.000 
#    0.000    0.000    0.000    0.000    0.000    0.000 
#
# Total GULP energy -189892.115429 kJ/mol
# GULP energy per Si atom -5585.062218 kJ/mol
# Density = 2.313812 g / cm^3
# Si number density = 23.190903 Si / 1000 Ang^3
#
#
#
# Elastic Constant Matrix: (Units=GPa)
#
#
# Indices 1 2 3 4 5 6 
#
# 1 58.6454 15.9362 32.2363 0.0000 0.0000 0.0000
# 2 15.9362 146.7124 87.6353 0.0000 0.0000 0.0000
# 3 32.2363 87.6353 183.9542 0.0000 0.0000 0.0000
# 4 0.0000 0.0000 0.0000 43.1609 0.0000 0.0000
# 5 0.0000 0.0000 0.0000 0.0000 32.2723 0.0000
# 6 0.0000 0.0000 0.0000 0.0000 0.0000 16.8222
#
#
#
# Elastic Compliance Matrix: (Units=1/GPa)
#
#
# Indices 1 2 3 4 5 6 
#
# 1 0.018870 -0.000104 -0.003257 0.000000 0.000000 0.000000
# 2 -0.000104 0.009528 -0.004521 0.000000 0.000000 0.000000
# 3 -0.003257 -0.004521 0.008161 0.000000 0.000000 0.000000
# 4 0.000000 0.000000 0.000000 0.023169 0.000000 0.000000
# 5 0.000000 0.000000 0.000000 0.000000 0.030986 0.000000
# 6 0.000000 0.000000 0.000000 0.000000 0.000000 0.059445
#
#
# Mechanical properties :
#
#
# Convention : Reuss Voigt Hill
#
# Bulk Modulus (GPa) = 48.08959 73.43641 60.76300
# Shear Modulus (GPa) = 28.92593 35.35134 32.13863
#
# Velocity S-wave (km/s) = 3.53554 3.90854 3.72671
# Velocity P-wave (km/s) = 6.11949 7.21829 6.69148
#
# Compressibility (1/GPa) = 0.02079452
#
# Stress axis : x y z
#
# Youngs Moduli (GPa) = 52.99307 104.95684 122.53978
#
# Poissons Ratio (x) = 0.01092 0.39915
# Poissons Ratio (y) = 0.00552 0.55397
# Poissons Ratio (z) = 0.17261 0.47448
#
# Static dielectric constant tensor:
#      x y z
#    x 1.912630 0.000000 0.000000 
#    y 0.000000 1.912520 0.000000 
#    z 0.000000 0.000000 1.926070 
# 
# From -- ./inp_files/17722.got.cif
#   From: 2010.05.17/outbox.cif.g08.bks.cpg/sg70_9_cif.got.tgz:17722.got - 2010.06.03 15:57:51.
