data_PCOD9515971
_publ_section_title
;
Structure prediction by ZEFSAII (Michael W. Deem and Ramdas Pophale) SiO2 
 PCOD9515971
Probable space group: F D D D
;
_chemical_formula_sum "Si O2"
_cell_formula_units_Z 160
_cell_length_a 28.279347
_cell_length_b 12.825882
_cell_length_c 18.320444
_cell_angle_alpha 90.000000
_cell_angle_beta 90.000000
_cell_angle_gamma 90.000000
_cell_volume 6644.963682
_symmetry_space_group_name_H-M "F D D D"
_symmetry_group_IT_number 70
_space_group.IT_coordinate_system_code '2'
_symmetry_cell_setting 'orthorhombic'
loop_
_space_group_symop_operation_xyz
x,y,z
1/4-x,1/4-y,z
x,1/4-y,1/4-z
1/4-x,y,1/4-z
-x,-y,-z
3/4+x,3/4+y,-z
-x,3/4+y,3/4+z
3/4+x,-y,3/4+z
x,1/2+y,1/2+z
1/4-x,3/4-y,1/2+z
x,3/4-y,3/4-z
1/4-x,1/2+y,3/4-z
-x,1/2-y,1/2-z
3/4+x,1/4+y,1/2-z
-x,1/4+y,1/4+z
3/4+x,1/2-y,1/4+z
1/2+x,y,1/2+z
3/4-x,1/4-y,1/2+z
1/2+x,1/4-y,3/4-z
3/4-x,y,3/4-z
1/2-x,-y,1/2-z
1/4+x,3/4+y,1/2-z
1/2-x,3/4+y,1/4+z
1/4+x,-y,1/4+z
1/2+x,1/2+y,z
3/4-x,3/4-y,z
1/2+x,3/4-y,1/4-z
3/4-x,1/2+y,1/4-z
1/2-x,1/2-y,-z
1/4+x,1/4+y,-z
1/2-x,1/4+y,3/4+z
1/4+x,1/2-y,3/4+z
loop_
_atom_site_type_symbol
_atom_site_label
_atom_site_fract_x
_atom_site_fract_y
_atom_site_fract_z
Si Si1 0.341336 0.086037 0.441155
Si Si2 0.206543 0.738578 0.150405
Si Si3 0.785334 0.853262 0.743516
Si Si4 0.732187 0.875000 0.875000
Si Si5 0.100896 0.971884 0.787599
Si Si6 0.625000 0.125000 0.849614
O O1 0.375000 0.050218 0.375000
O O2 0.315913 0.191462 0.413522
O O3 0.374100 0.117710 0.509272
O O4 0.304877 0.998428 0.463778
O O5 0.223098 0.625000 0.125000
O O6 0.246725 0.810358 0.186974
O O7 0.166657 0.722754 0.213364
O O8 0.763419 0.921538 0.809201
O O9 0.830217 0.897006 0.701069
O O10 0.696910 0.951458 0.917301
O O11 0.134609 0.032279 0.842983
#
# Coordination Sequence:
#
# PCOD9515971 Si02
#       6
#    32  32  32  16  32  16
#     4  10  23  44  69  95 132 175 226 271 331 401
#     4  10  23  42  69  99 130 169 217 277 337 392
#     4  11  27  40  66  97 130 182 219 277 327 394
#     4  10  24  45  64  90 132 172 224 271 328 384
#     4  10  22  44  65  96 128 174 213 277 330 398
#     4  12  26  39  67  98 134 176 222 268 342 400
#
# _framework density 24.078386999999999
#
# number of rings (size 3 to 8) (size 9 to 14) (size 15 to 20)
#    0.000    1.600    0.000    2.400   11.200    4.400 
#    0.000    0.000    0.000    0.000    0.000    0.000 
#    0.000    0.000    0.000    0.000    0.000    0.000 
#
# Total GULP energy -223810.795450 kJ/mol
# GULP energy per Si atom -5595.269886 kJ/mol
# Density = 2.402358 g / cm^3
# Si number density = 24.078387 Si / 1000 Ang^3
#
#
#
# Elastic Constant Matrix: (Units=GPa)
#
#
# Indices 1 2 3 4 5 6 
#
# 1 87.8739 8.9065 33.1648 0.0000 0.0000 0.0000
# 2 8.9065 56.3708 44.7362 0.0000 0.0000 0.0000
# 3 33.1648 44.7362 115.4976 0.0000 0.0000 0.0000
# 4 0.0000 0.0000 0.0000 28.4910 0.0000 0.0000
# 5 0.0000 0.0000 0.0000 0.0000 23.7181 0.0000
# 6 0.0000 0.0000 0.0000 0.0000 0.0000 26.6150
#
#
#
# Elastic Compliance Matrix: (Units=1/GPa)
#
#
# Indices 1 2 3 4 5 6 
#
# 1 0.012828 0.001294 -0.004185 0.000000 0.000000 0.000000
# 2 0.001294 0.025743 -0.010343 0.000000 0.000000 0.000000
# 3 -0.004185 -0.010343 0.013866 0.000000 0.000000 0.000000
# 4 0.000000 0.000000 0.000000 0.035099 0.000000 0.000000
# 5 0.000000 0.000000 0.000000 0.000000 0.042162 0.000000
# 6 0.000000 0.000000 0.000000 0.000000 0.000000 0.037573
#
#
# Mechanical properties :
#
#
# Convention : Reuss Voigt Hill
#
# Bulk Modulus (GPa) = 38.50512 48.15082 43.32797
# Shear Modulus (GPa) = 24.70414 27.29380 25.99897
#
# Velocity S-wave (km/s) = 3.20658 3.37046 3.28954
# Velocity P-wave (km/s) = 5.45306 5.93191 5.69752
#
# Compressibility (1/GPa) = 0.02597057
#
# Stress axis : x y z
#
# Youngs Moduli (GPa) = 77.95328 38.84485 72.11854
#
# Poissons Ratio (x) = -0.05028 0.30181
# Poissons Ratio (y) = -0.10090 0.74592
# Poissons Ratio (z) = 0.32623 0.40177
#
# Static dielectric constant tensor:
#      x y z
#    x 1.932750 0.000000 0.000000 
#    y 0.000000 1.936130 0.000000 
#    z 0.000000 0.000000 1.913830 
# 
# From -- ./inp_files/39531.got.cif
#   From: 2010.05.17/outbox.cif.g08.bks.cpg/sg70_20_cif.got.tgz:39531.got - 2010.06.03 15:57:51.
