data_PCOD9515855
_publ_section_title
;
Structure prediction by ZEFSAII (Michael W. Deem and Ramdas Pophale) SiO2 
 PCOD9515855
Probable space group: F D D D
;
_chemical_formula_sum "Si O2"
_cell_formula_units_Z 128
_cell_length_a 8.362541
_cell_length_b 23.996431
_cell_length_c 29.416126
_cell_angle_alpha 90.000000
_cell_angle_beta 90.000000
_cell_angle_gamma 90.000000
_cell_volume 5902.967483
_symmetry_space_group_name_H-M "F D D D"
_symmetry_group_IT_number 70
_space_group.IT_coordinate_system_code '2'
_symmetry_cell_setting 'orthorhombic'
loop_
_space_group_symop_operation_xyz
x,y,z
1/4-x,1/4-y,z
x,1/4-y,1/4-z
1/4-x,y,1/4-z
-x,-y,-z
3/4+x,3/4+y,-z
-x,3/4+y,3/4+z
3/4+x,-y,3/4+z
x,1/2+y,1/2+z
1/4-x,3/4-y,1/2+z
x,3/4-y,3/4-z
1/4-x,1/2+y,3/4-z
-x,1/2-y,1/2-z
3/4+x,1/4+y,1/2-z
-x,1/4+y,1/4+z
3/4+x,1/2-y,1/4+z
1/2+x,y,1/2+z
3/4-x,1/4-y,1/2+z
1/2+x,1/4-y,3/4-z
3/4-x,y,3/4-z
1/2-x,-y,1/2-z
1/4+x,3/4+y,1/2-z
1/2-x,3/4+y,1/4+z
1/4+x,-y,1/4+z
1/2+x,1/2+y,z
3/4-x,3/4-y,z
1/2+x,3/4-y,1/4-z
3/4-x,1/2+y,1/4-z
1/2-x,1/2-y,-z
1/4+x,1/4+y,-z
1/2-x,1/4+y,3/4+z
1/4+x,1/2-y,3/4+z
loop_
_atom_site_type_symbol
_atom_site_label
_atom_site_fract_x
_atom_site_fract_y
_atom_site_fract_z
Si Si1 0.139692 0.559471 0.792462
Si Si2 0.554573 0.501314 0.869041
Si Si3 0.129672 0.375000 0.375000
Si Si4 0.258353 0.974001 0.019956
Si Si5 0.125000 0.625000 0.042845
O O1 0.125000 0.625000 0.795615
O O2 0.099191 0.529904 0.840438
O O3 0.022005 0.532304 0.755529
O O4 0.324625 0.546250 0.779130
O O5 0.375000 0.523509 0.875000
O O6 0.548225 0.435162 0.877635
O O7 0.598188 0.516239 0.817583
O O8 0.229740 0.370080 0.421597
O O9 0.344629 0.928638 0.988620
#
# Coordination Sequence:
#
# PCOD9515855 Si02
#       5
#    32  32  16  32  16
#     4  10  22  42  64  94 126 164 215 268 316 383
#     4  10  22  41  66  94 121 168 215 264 316 381
#     4  11  23  42  64  88 135 163 214 266 316 385
#     4  10  23  41  64  93 126 166 216 258 323 390
#     4  11  24  42  58  96 132 164 210 266 319 392
#
# _framework density 21.684009
#
# number of rings (size 3 to 8) (size 9 to 14) (size 15 to 20)
#    0.000    1.750    2.500    0.375    5.250    1.000 
#    0.000    0.000    0.000    0.000    0.000    0.000 
#    0.000    0.000    0.000    0.000    0.000    0.000 
#
# Total GULP energy -178667.044032 kJ/mol
# GULP energy per Si atom -5583.345126 kJ/mol
# Density = 2.163466 g / cm^3
# Si number density = 21.684009 Si / 1000 Ang^3
#
#
#
# Elastic Constant Matrix: (Units=GPa)
#
#
# Indices 1 2 3 4 5 6 
#
# 1 25.6276 9.3988 29.6607 0.0000 0.0000 0.0000
# 2 9.3988 160.4553 72.6429 0.0000 0.0000 0.0000
# 3 29.6607 72.6429 171.7757 0.0000 0.0000 0.0000
# 4 0.0000 0.0000 0.0000 42.6703 0.0000 0.0000
# 5 0.0000 0.0000 0.0000 0.0000 -0.5136 0.0000
# 6 0.0000 0.0000 0.0000 0.0000 0.0000 26.0625
#
#
#
# Elastic Compliance Matrix: (Units=1/GPa)
#
#
# Indices 1 2 3 4 5 6 
#
# 1 0.048948 0.001186 -0.008954 0.000000 0.000000 0.000000
# 2 0.001186 0.007737 -0.003477 0.000000 0.000000 0.000000
# 3 -0.008954 -0.003477 0.008838 0.000000 0.000000 0.000000
# 4 0.000000 0.000000 0.000000 0.023436 0.000000 0.000000
# 5 0.000000 0.000000 0.000000 0.000000 -1.947193 0.000000
# 6 0.000000 0.000000 0.000000 0.000000 0.000000 0.038369
#
#
# Mechanical properties :
#
#
# Convention : Reuss Voigt Hill
#
# Bulk Modulus (GPa) = 23.23702 64.58483 43.91093
# Shear Modulus (GPa) = -2.80421 30.05425 13.62502
#
# Velocity S-wave (km/s) = -1.13843 3.72695 2.50940
# Velocity P-wave (km/s) = 3.00191 6.95482 5.35635
#
# Compressibility (1/GPa) = 0.04303477
#
# Stress axis : x y z
#
# Youngs Moduli (GPa) = 20.42984 129.25283 113.14963
#
# Poissons Ratio (x) = -0.15334 1.01310
# Poissons Ratio (y) = -0.02424 0.39339
# Poissons Ratio (z) = 0.18292 0.44937
#
# Static dielectric constant tensor:
#      x y z
#    x 1.805370 0.000000 0.000000 
#    y 0.000000 1.729350 0.000000 
#    z 0.000000 0.000000 1.807880 
# 
# From -- ./inp_files/57357.got.cif
#   From: 2010.05.17/outbox.cif.g08.bks.cpg/sg70_29_cif.got.tgz:57357.got - 2010.06.03 15:57:51.
