data_PCOD9515528
_publ_section_title
;
Structure prediction by ZEFSAII (Michael W. Deem and Ramdas Pophale) SiO2 
 PCOD9515528
Probable space group: F D D D
;
_chemical_formula_sum "Si O2"
_cell_formula_units_Z 88
_cell_length_a 12.603262
_cell_length_b 24.432875
_cell_length_c 9.841930
_cell_angle_alpha 90.000000
_cell_angle_beta 90.000000
_cell_angle_gamma 90.000000
_cell_volume 3030.664135
_symmetry_space_group_name_H-M "F D D D"
_symmetry_group_IT_number 70
_space_group.IT_coordinate_system_code '2'
_symmetry_cell_setting 'orthorhombic'
loop_
_space_group_symop_operation_xyz
x,y,z
1/4-x,1/4-y,z
x,1/4-y,1/4-z
1/4-x,y,1/4-z
-x,-y,-z
3/4+x,3/4+y,-z
-x,3/4+y,3/4+z
3/4+x,-y,3/4+z
x,1/2+y,1/2+z
1/4-x,3/4-y,1/2+z
x,3/4-y,3/4-z
1/4-x,1/2+y,3/4-z
-x,1/2-y,1/2-z
3/4+x,1/4+y,1/2-z
-x,1/4+y,1/4+z
3/4+x,1/2-y,1/4+z
1/2+x,y,1/2+z
3/4-x,1/4-y,1/2+z
1/2+x,1/4-y,3/4-z
3/4-x,y,3/4-z
1/2-x,-y,1/2-z
1/4+x,3/4+y,1/2-z
1/2-x,3/4+y,1/4+z
1/4+x,-y,1/4+z
1/2+x,1/2+y,z
3/4-x,3/4-y,z
1/2+x,3/4-y,1/4-z
3/4-x,1/2+y,1/4-z
1/2-x,1/2-y,-z
1/4+x,1/4+y,-z
1/2-x,1/4+y,3/4+z
1/4+x,1/2-y,3/4+z
loop_
_atom_site_type_symbol
_atom_site_label
_atom_site_fract_x
_atom_site_fract_y
_atom_site_fract_z
Si Si1 0.315225 0.607086 0.255479
Si Si2 0.305792 0.294301 0.092582
Si Si3 0.875000 0.785268 0.375000
Si Si4 0.625000 0.625000 0.125000
O O1 0.375000 0.576224 0.375000
O O2 0.267780 0.658637 0.339421
O O3 0.222615 0.573262 0.181686
O O4 0.387043 0.625000 0.125000
O O5 0.345021 0.263045 0.226596
O O6 0.250000 0.250000 0.000000
O O7 0.386022 0.327320 0.995568
#
# Coordination Sequence:
#
# PCOD9515528 Si02
#       4
#    32  32  16   8
#     4  10  21  40  73 107 144 205 258 319 398 489
#     4  11  24  44  75 110 153 211 268 340 419 494
#     4  10  21  52  74 101 167 210 250 338 426 477
#     4  12  24  46  76 110 158 208 272 352 400 504
#
# _framework density 29.036538
#
# number of rings (size 3 to 8) (size 9 to 14) (size 15 to 20)
#    0.000    1.455    3.636    3.818    5.091    0.000 
#    0.000    9.091    0.000    0.000    4.727    0.000 
#    0.000    0.000    0.000    0.000    0.000    0.000 
#
# Total GULP energy -122560.392351 kJ/mol
# GULP energy per Si atom -5570.926925 kJ/mol
# Density = 2.897045 g / cm^3
# Si number density = 29.036538 Si / 1000 Ang^3
#
#
#
# Elastic Constant Matrix: (Units=GPa)
#
#
# Indices 1 2 3 4 5 6 
#
# 1 66.1094 23.5896 83.3268 0.0000 0.0000 0.0000
# 2 23.5896 76.4570 95.3026 0.0000 0.0000 0.0000
# 3 83.3268 95.3026 406.6347 0.0000 0.0000 0.0000
# 4 0.0000 0.0000 0.0000 39.2746 0.0000 0.0000
# 5 0.0000 0.0000 0.0000 0.0000 54.3906 0.0000
# 6 0.0000 0.0000 0.0000 0.0000 0.0000 9.6829
#
#
#
# Elastic Compliance Matrix: (Units=1/GPa)
#
#
# Indices 1 2 3 4 5 6 
#
# 1 0.020521 -0.001540 -0.003844 0.000000 0.000000 0.000000
# 2 -0.001540 0.018593 -0.004042 0.000000 0.000000 0.000000
# 3 -0.003844 -0.004042 0.004194 0.000000 0.000000 0.000000
# 4 0.000000 0.000000 0.000000 0.025462 0.000000 0.000000
# 5 0.000000 0.000000 0.000000 0.000000 0.018386 0.000000
# 6 0.000000 0.000000 0.000000 0.000000 0.000000 0.103275
#
#
# Mechanical properties :
#
#
# Convention : Reuss Voigt Hill
#
# Bulk Modulus (GPa) = 40.88924 105.95990 73.42457
# Shear Modulus (GPa) = 22.99541 43.80175 33.39858
#
# Velocity S-wave (km/s) = 2.81721 3.88816 3.39518
# Velocity P-wave (km/s) = 4.96939 7.53181 6.38056
#
# Compressibility (1/GPa) = 0.02445631
#
# Stress axis : x y z
#
# Youngs Moduli (GPa) = 48.72960 53.78481 238.41767
#
# Poissons Ratio (x) = 0.08281 0.91657
# Poissons Ratio (y) = 0.07502 0.96369
# Poissons Ratio (z) = 0.18733 0.21740
#
# Static dielectric constant tensor:
#      x y z
#    x 2.589970 0.000000 0.000000 
#    y 0.000000 2.947980 0.000000 
#    z 0.000000 0.000000 2.496450 
# 
# From -- ./inp_files/7118.got.cif
#   From: 2010.05.17/outbox.cif.g08.bks.cpg/sg70_4_cif.got.tgz:7118.got - 2010.06.03 15:57:51.
