data_PCOD9515276
_publ_section_title
;
Structure prediction by ZEFSAII (Michael W. Deem and Ramdas Pophale) SiO2 
 PCOD9515276
Probable space group: F D D D
;
_chemical_formula_sum "Si O2"
_cell_formula_units_Z 96
_cell_length_a 6.811657
_cell_length_b 16.339017
_cell_length_c 32.343363
_cell_angle_alpha 90.000000
_cell_angle_beta 90.000000
_cell_angle_gamma 90.000000
_cell_volume 3599.679797
_symmetry_space_group_name_H-M "F D D D"
_symmetry_group_IT_number 70
_space_group.IT_coordinate_system_code '2'
_symmetry_cell_setting 'orthorhombic'
loop_
_space_group_symop_operation_xyz
x,y,z
1/4-x,1/4-y,z
x,1/4-y,1/4-z
1/4-x,y,1/4-z
-x,-y,-z
3/4+x,3/4+y,-z
-x,3/4+y,3/4+z
3/4+x,-y,3/4+z
x,1/2+y,1/2+z
1/4-x,3/4-y,1/2+z
x,3/4-y,3/4-z
1/4-x,1/2+y,3/4-z
-x,1/2-y,1/2-z
3/4+x,1/4+y,1/2-z
-x,1/4+y,1/4+z
3/4+x,1/2-y,1/4+z
1/2+x,y,1/2+z
3/4-x,1/4-y,1/2+z
1/2+x,1/4-y,3/4-z
3/4-x,y,3/4-z
1/2-x,-y,1/2-z
1/4+x,3/4+y,1/2-z
1/2-x,3/4+y,1/4+z
1/4+x,-y,1/4+z
1/2+x,1/2+y,z
3/4-x,3/4-y,z
1/2+x,3/4-y,1/4-z
3/4-x,1/2+y,1/4-z
1/2-x,1/2-y,-z
1/4+x,1/4+y,-z
1/2-x,1/4+y,3/4+z
1/4+x,1/2-y,3/4+z
loop_
_atom_site_type_symbol
_atom_site_label
_atom_site_fract_x
_atom_site_fract_y
_atom_site_fract_z
Si Si1 0.901086 0.547490 0.202957
Si Si2 0.546592 0.263013 0.965467
Si Si3 0.602185 0.031560 0.372671
O O1 0.875000 0.375000 0.137297
O O2 0.851505 0.642047 0.210292
O O3 0.957388 0.526764 0.155815
O O4 0.056630 0.518098 0.237348
O O5 0.645217 0.219603 0.926174
O O6 0.440924 0.497505 0.958928
O O7 0.375000 0.005277 0.375000
#
# Coordination Sequence:
#
# PCOD9515276 Si02
#       3
#    32  32  32
#     4   9  18  31  57  81 112 147 193 247 295 342
#     4   9  18  32  54  84 109 147 198 240 291 356
#     4  10  21  35  57  84 117 151 197 248 299 358
#
# _framework density 26.669036999999999
#
# number of rings (size 3 to 8) (size 9 to 14) (size 15 to 20)
#    0.000    2.667    0.000    1.000   14.000    4.000 
#    0.000    1.667    0.000    2.000    0.000    0.000 
#    0.000    0.000    0.000    0.000    0.000    0.000 
#
# Total GULP energy -134200.565052 kJ/mol
# GULP energy per Si atom -5591.690211 kJ/mol
# Density = 2.660834 g / cm^3
# Si number density = 26.669037 Si / 1000 Ang^3
#
#
#
# Elastic Constant Matrix: (Units=GPa)
#
#
# Indices 1 2 3 4 5 6 
#
# 1 101.5145 4.3864 52.8084 0.0000 0.0000 0.0000
# 2 4.3864 79.6308 73.4000 0.0000 0.0000 0.0000
# 3 52.8084 73.4000 264.3944 0.0000 0.0000 0.0000
# 4 0.0000 0.0000 0.0000 84.3482 0.0000 0.0000
# 5 0.0000 0.0000 0.0000 0.0000 -13.8108 0.0000
# 6 0.0000 0.0000 0.0000 0.0000 0.0000 35.1716
#
#
#
# Elastic Compliance Matrix: (Units=1/GPa)
#
#
# Indices 1 2 3 4 5 6 
#
# 1 0.011213 0.001944 -0.002779 0.000000 0.000000 0.000000
# 2 0.001944 0.017214 -0.005167 0.000000 0.000000 0.000000
# 3 -0.002779 -0.005167 0.005772 0.000000 0.000000 0.000000
# 4 0.000000 0.000000 0.000000 0.011856 0.000000 0.000000
# 5 0.000000 0.000000 0.000000 0.000000 -0.072407 0.000000
# 6 0.000000 0.000000 0.000000 0.000000 0.000000 0.028432
#
#
# Mechanical properties :
#
#
# Convention : Reuss Voigt Hill
#
# Bulk Modulus (GPa) = 45.05790 78.52548 61.79169
# Shear Modulus (GPa) = 232.76321 42.13811 137.45066
#
# Velocity S-wave (km/s) = 9.35243 3.97928 7.18688
# Velocity P-wave (km/s) = 11.55663 7.11486 9.59628
#
# Compressibility (1/GPa) = 0.02219367
#
# Stress axis : x y z
#
# Youngs Moduli (GPa) = 89.18541 58.09345 173.25604
#
# Poissons Ratio (x) = -0.11294 0.48152
# Poissons Ratio (y) = -0.17339 0.89523
# Poissons Ratio (z) = 0.24787 0.30017
#
# Static dielectric constant tensor:
#      x y z
#    x 2.254060 0.000000 0.000000 
#    y 0.000000 1.934760 0.000000 
#    z 0.000000 0.000000 2.150020 
# 
# From -- ./inp_files/49636.got.cif
#   From: 2010.05.17/outbox.cif.g08.bks.cpg/sg70_25_cif.got.tgz:49636.got - 2010.06.03 15:57:51.
