data_PCOD9515227
_publ_section_title
;
Structure prediction by ZEFSAII (Michael W. Deem and Ramdas Pophale) SiO2 
 PCOD9515227
Probable space group: F D D D
;
_chemical_formula_sum "Si O2"
_cell_formula_units_Z 176
_cell_length_a 23.195456
_cell_length_b 20.751672
_cell_length_c 15.443383
_cell_angle_alpha 90.000000
_cell_angle_beta 90.000000
_cell_angle_gamma 90.000000
_cell_volume 7433.587388
_symmetry_space_group_name_H-M "F D D D"
_symmetry_group_IT_number 70
_space_group.IT_coordinate_system_code '2'
_symmetry_cell_setting 'orthorhombic'
loop_
_space_group_symop_operation_xyz
x,y,z
1/4-x,1/4-y,z
x,1/4-y,1/4-z
1/4-x,y,1/4-z
-x,-y,-z
3/4+x,3/4+y,-z
-x,3/4+y,3/4+z
3/4+x,-y,3/4+z
x,1/2+y,1/2+z
1/4-x,3/4-y,1/2+z
x,3/4-y,3/4-z
1/4-x,1/2+y,3/4-z
-x,1/2-y,1/2-z
3/4+x,1/4+y,1/2-z
-x,1/4+y,1/4+z
3/4+x,1/2-y,1/4+z
1/2+x,y,1/2+z
3/4-x,1/4-y,1/2+z
1/2+x,1/4-y,3/4-z
3/4-x,y,3/4-z
1/2-x,-y,1/2-z
1/4+x,3/4+y,1/2-z
1/2-x,3/4+y,1/4+z
1/4+x,-y,1/4+z
1/2+x,1/2+y,z
3/4-x,3/4-y,z
1/2+x,3/4-y,1/4-z
3/4-x,1/2+y,1/4-z
1/2-x,1/2-y,-z
1/4+x,1/4+y,-z
1/2-x,1/4+y,3/4+z
1/4+x,1/2-y,3/4+z
loop_
_atom_site_type_symbol
_atom_site_label
_atom_site_fract_x
_atom_site_fract_y
_atom_site_fract_z
Si Si1 0.518966 0.875000 0.875000
Si Si2 0.557132 0.904457 0.106191
Si Si3 0.675056 0.704117 0.552089
Si Si4 0.163451 0.769552 0.710094
Si Si5 0.367803 0.518157 0.141453
Si Si6 0.234604 0.832100 0.292030
O O1 0.470785 0.896741 0.945807
O O2 0.562798 0.815209 0.868460
O O3 0.625000 0.912110 0.125000
O O4 0.560319 0.842145 0.044510
O O5 0.524043 0.888616 0.195685
O O6 0.543578 0.976985 0.074280
O O7 0.625000 0.696678 0.625000
O O8 0.647908 0.711912 0.457428
O O9 0.125000 0.761591 0.625000
O O10 0.122026 0.753886 0.791173
O O11 0.217537 0.722599 0.715211
O O12 0.421817 0.554054 0.183478
O O13 0.250717 0.875000 0.375000
#
# Coordination Sequence:
#
# PCOD9515227 Si02
#       6
#    16  32  32  32  32  32
#     4  12  25  40  72 112 143 184 238 298 358 452
#     4  10  20  43  71  99 140 183 229 294 358 431
#     4  11  23  45  71 106 154 180 232 300 361 434
#     4  11  27  46  72 104 142 191 253 302 351 433
#     4  12  24  44  74 105 140 200 236 289 383 435
#     4  12  24  45  75 103 143 193 243 303 365 432
#
# _framework density 23.676321000000002
#
# number of rings (size 3 to 8) (size 9 to 14) (size 15 to 20)
#    0.000    0.727    4.545    5.182    0.000    4.727 
#    0.000    0.000    8.000    0.000    0.000    0.000 
#    0.000    0.000    0.000    0.000    0.000    0.000 
#
# Total GULP energy -245748.096950 kJ/mol
# GULP energy per Si atom -5585.184022 kJ/mol
# Density = 2.362243 g / cm^3
# Si number density = 23.676321 Si / 1000 Ang^3
#
#
#
# Elastic Constant Matrix: (Units=GPa)
#
#
# Indices 1 2 3 4 5 6 
#
# 1 64.7108 17.7742 16.5164 0.0000 0.0000 0.0000
# 2 17.7742 40.0276 2.1980 0.0000 0.0000 0.0000
# 3 16.5164 2.1980 153.5549 0.0000 0.0000 0.0000
# 4 0.0000 0.0000 0.0000 40.4717 0.0000 0.0000
# 5 0.0000 0.0000 0.0000 0.0000 32.2794 0.0000
# 6 0.0000 0.0000 0.0000 0.0000 0.0000 17.5285
#
#
#
# Elastic Compliance Matrix: (Units=1/GPa)
#
#
# Indices 1 2 3 4 5 6 
#
# 1 0.018101 -0.007937 -0.001833 0.000000 0.000000 0.000000
# 2 -0.007937 0.028483 0.000446 0.000000 0.000000 0.000000
# 3 -0.001833 0.000446 0.006703 0.000000 0.000000 0.000000
# 4 0.000000 0.000000 0.000000 0.024709 0.000000 0.000000
# 5 0.000000 0.000000 0.000000 0.000000 0.030980 0.000000
# 6 0.000000 0.000000 0.000000 0.000000 0.000000 0.057050
#
#
# Mechanical properties :
#
#
# Convention : Reuss Voigt Hill
#
# Bulk Modulus (GPa) = 28.86987 36.80784 32.83886
# Shear Modulus (GPa) = 25.48150 32.84289 29.16219
#
# Velocity S-wave (km/s) = 3.28417 3.72850 3.51337
# Velocity P-wave (km/s) = 5.15763 5.84086 5.50984
#
# Compressibility (1/GPa) = 0.03463819
#
# Stress axis : x y z
#
# Youngs Moduli (GPa) = 55.24427 35.10893 149.18375
#
# Poissons Ratio (x) = 0.27867 0.27351
# Poissons Ratio (y) = 0.43849 -0.06654
# Poissons Ratio (z) = 0.10128 -0.01566
#
# Static dielectric constant tensor:
#      x y z
#    x 1.843460 0.000000 0.000000 
#    y 0.000000 1.937740 0.000000 
#    z 0.000000 0.000000 2.090050 
# 
# From -- ./inp_files/28771.got.cif
#   From: 2010.05.17/outbox.cif.g08.bks.cpg/sg70_15_cif.got.tgz:28771.got - 2010.06.03 15:57:51.
