data_PCOD9515333
_publ_section_title
;
Structure prediction by ZEFSAII (Michael W. Deem and Ramdas Pophale) SiO2 
 PCOD9515333
Probable space group: F D D D
;
_chemical_formula_sum "Si O2"
_cell_formula_units_Z 208
_cell_length_a 20.908215
_cell_length_b 16.700916
_cell_length_c 28.090282
_cell_angle_alpha 90.000000
_cell_angle_beta 90.000000
_cell_angle_gamma 90.000000
_cell_volume 9808.742829
_symmetry_space_group_name_H-M "F D D D"
_symmetry_group_IT_number 70
_space_group.IT_coordinate_system_code '2'
_symmetry_cell_setting 'orthorhombic'
loop_
_space_group_symop_operation_xyz
x,y,z
1/4-x,1/4-y,z
x,1/4-y,1/4-z
1/4-x,y,1/4-z
-x,-y,-z
3/4+x,3/4+y,-z
-x,3/4+y,3/4+z
3/4+x,-y,3/4+z
x,1/2+y,1/2+z
1/4-x,3/4-y,1/2+z
x,3/4-y,3/4-z
1/4-x,1/2+y,3/4-z
-x,1/2-y,1/2-z
3/4+x,1/4+y,1/2-z
-x,1/4+y,1/4+z
3/4+x,1/2-y,1/4+z
1/2+x,y,1/2+z
3/4-x,1/4-y,1/2+z
1/2+x,1/4-y,3/4-z
3/4-x,y,3/4-z
1/2-x,-y,1/2-z
1/4+x,3/4+y,1/2-z
1/2-x,3/4+y,1/4+z
1/4+x,-y,1/4+z
1/2+x,1/2+y,z
3/4-x,3/4-y,z
1/2+x,3/4-y,1/4-z
3/4-x,1/2+y,1/4-z
1/2-x,1/2-y,-z
1/4+x,1/4+y,-z
1/2-x,1/4+y,3/4+z
1/4+x,1/2-y,3/4+z
loop_
_atom_site_type_symbol
_atom_site_label
_atom_site_fract_x
_atom_site_fract_y
_atom_site_fract_z
Si Si1 0.819353 0.480470 0.337563
Si Si2 0.326528 0.699597 0.595240
Si Si3 0.125000 0.125000 0.006454
Si Si4 0.850821 0.464461 0.064161
Si Si5 0.096947 0.910725 0.673616
Si Si6 0.244646 0.743107 0.762051
Si Si7 0.593422 0.368933 0.270200
O O1 0.875000 0.460776 0.375000
O O2 0.749398 0.447875 0.346565
O O3 0.841998 0.442702 0.288514
O O4 0.814502 0.575932 0.337933
O O5 0.353093 0.625000 0.625000
O O6 0.346488 0.774223 0.628360
O O7 0.351226 0.677129 0.542788
O O8 0.186690 0.073331 0.986551
O O9 0.875000 0.375000 0.052860
O O10 0.899157 0.531630 0.043159
O O11 0.783270 0.491681 0.038247
O O12 0.125000 0.944227 0.625000
O O13 0.047213 0.964975 0.700864
O O14 0.149374 0.889794 0.713582
O O15 0.218647 0.828741 0.778569
#
# Coordination Sequence:
#
# PCOD9515333 Si02
#       7
#    32  32  16  32  32  32  32
#     4  11  20  32  57  91 134 180 220 274 340 420
#     4  10  21  37  60  92 135 170 220 287 341 415
#     4  12  21  34  62 100 136 182 224 276 367 426
#     4  10  23  44  69  96 130 182 239 288 348 413
#     4  10  23  40  62  96 136 183 232 277 335 417
#     4  11  24  41  67  97 137 182 233 289 349 419
#     4  10  22  44  64  97 139 173 227 291 352 401
#
# _framework density 21.205573000000001
#
# number of rings (size 3 to 8) (size 9 to 14) (size 15 to 20)
#    0.000    1.538    1.538    4.846    4.308    3.077 
#    0.000    0.000   10.154    4.154    0.000    0.000 
#    0.000    0.000    0.000    0.000    0.000    0.000 
#
# Total GULP energy -289670.997008 kJ/mol
# GULP energy per Si atom -5570.596096 kJ/mol
# Density = 2.115731 g / cm^3
# Si number density = 21.205573 Si / 1000 Ang^3
#
#
#
# Elastic Constant Matrix: (Units=GPa)
#
#
# Indices 1 2 3 4 5 6 
#
# 1 50.3744 46.0266 18.4992 0.0000 0.0000 0.0000
# 2 46.0266 109.3325 30.6588 0.0000 0.0000 0.0000
# 3 18.4992 30.6588 92.2781 0.0000 0.0000 0.0000
# 4 0.0000 0.0000 0.0000 25.3497 0.0000 0.0000
# 5 0.0000 0.0000 0.0000 0.0000 9.0445 0.0000
# 6 0.0000 0.0000 0.0000 0.0000 0.0000 16.4791
#
#
#
# Elastic Compliance Matrix: (Units=1/GPa)
#
#
# Indices 1 2 3 4 5 6 
#
# 1 0.032654 -0.013135 -0.002182 0.000000 0.000000 0.000000
# 2 -0.013135 0.015369 -0.002473 0.000000 0.000000 0.000000
# 3 -0.002182 -0.002473 0.012096 0.000000 0.000000 0.000000
# 4 0.000000 0.000000 0.000000 0.039448 0.000000 0.000000
# 5 0.000000 0.000000 0.000000 0.000000 0.110564 0.000000
# 6 0.000000 0.000000 0.000000 0.000000 0.000000 0.060683
#
#
# Mechanical properties :
#
#
# Convention : Reuss Voigt Hill
#
# Bulk Modulus (GPa) = 40.75171 49.15047 44.95109
# Shear Modulus (GPa) = 15.89450 20.62803 18.26126
#
# Velocity S-wave (km/s) = 2.74075 3.12230 2.93773
# Velocity P-wave (km/s) = 5.41062 6.01887 5.72283
#
# Compressibility (1/GPa) = 0.02453885
#
# Stress axis : x y z
#
# Youngs Moduli (GPa) = 30.62441 65.06472 82.67186
#
# Poissons Ratio (x) = 0.85460 0.18042
# Poissons Ratio (y) = 0.40224 0.20447
# Poissons Ratio (z) = 0.06683 0.16092
#
# Static dielectric constant tensor:
#      x y z
#    x 1.737510 0.000000 0.000000 
#    y 0.000000 1.783920 0.000000 
#    z 0.000000 0.000000 1.854260 
# 
# From -- ./inp_files/60417.got.cif
#   From: 2010.05.17/outbox.cif.g08.bks.cpg/sg70_31_cif.got.tgz:60417.got - 2010.06.03 15:57:51.
