data_PCOD9515070
_publ_section_title
;
Structure prediction by ZEFSAII (Michael W. Deem and Ramdas Pophale) SiO2 
 PCOD9515070
Probable space group: F D D D
;
_chemical_formula_sum "Si O2"
_cell_formula_units_Z 184
_cell_length_a 24.229453
_cell_length_b 20.875046
_cell_length_c 15.516879
_cell_angle_alpha 90.000000
_cell_angle_beta 90.000000
_cell_angle_gamma 90.000000
_cell_volume 7848.296907
_symmetry_space_group_name_H-M "F D D D"
_symmetry_group_IT_number 70
_space_group.IT_coordinate_system_code '2'
_symmetry_cell_setting 'orthorhombic'
loop_
_space_group_symop_operation_xyz
x,y,z
1/4-x,1/4-y,z
x,1/4-y,1/4-z
1/4-x,y,1/4-z
-x,-y,-z
3/4+x,3/4+y,-z
-x,3/4+y,3/4+z
3/4+x,-y,3/4+z
x,1/2+y,1/2+z
1/4-x,3/4-y,1/2+z
x,3/4-y,3/4-z
1/4-x,1/2+y,3/4-z
-x,1/2-y,1/2-z
3/4+x,1/4+y,1/2-z
-x,1/4+y,1/4+z
3/4+x,1/2-y,1/4+z
1/2+x,y,1/2+z
3/4-x,1/4-y,1/2+z
1/2+x,1/4-y,3/4-z
3/4-x,y,3/4-z
1/2-x,-y,1/2-z
1/4+x,3/4+y,1/2-z
1/2-x,3/4+y,1/4+z
1/4+x,-y,1/4+z
1/2+x,1/2+y,z
3/4-x,3/4-y,z
1/2+x,3/4-y,1/4-z
3/4-x,1/2+y,1/4-z
1/2-x,1/2-y,-z
1/4+x,1/4+y,-z
1/2-x,1/4+y,3/4+z
1/4+x,1/2-y,3/4+z
loop_
_atom_site_type_symbol
_atom_site_label
_atom_site_fract_x
_atom_site_fract_y
_atom_site_fract_z
Si Si1 0.267947 0.299572 0.424463
Si Si2 0.736044 0.881984 0.564954
Si Si3 0.206404 0.701675 0.809436
Si Si4 0.625000 0.864670 0.125000
Si Si5 0.011756 0.529629 0.627902
Si Si6 0.625000 0.625000 0.625000
Si Si7 0.841451 0.738668 0.015161
O O1 0.250000 0.250000 0.500000
O O2 0.239755 0.363119 0.465691
O O3 0.244258 0.260662 0.343426
O O4 0.331083 0.324949 0.418318
O O5 0.786171 0.853914 0.620638
O O6 0.680925 0.849160 0.604210
O O7 0.732587 0.956233 0.588265
O O8 0.226287 0.680715 0.713958
O O9 0.143788 0.725124 0.802877
O O10 0.613660 0.820112 0.207838
O O11 0.951862 0.535895 0.585865
O O12 0.057085 0.532802 0.552131
#
# Coordination Sequence:
#
# PCOD9515070 Si02
#       7
#    32  32  32  16  32   8  32
#     4  10  25  41  63  97 131 181 228 274 350 409
#     4  10  22  39  63  92 128 169 223 264 333 402
#     4  11  21  38  63  92 128 167 216 276 318 406
#     4  10  20  43  64  85 130 171 205 286 318 396
#     4  10  21  40  62  92 127 172 215 263 339 393
#     4  12  24  42  68  88 148 184 216 312 338 402
#     4  10  20  39  66  83 128 174 200 274 336 372
#
# _framework density 23.444576999999999
#
# number of rings (size 3 to 8) (size 9 to 14) (size 15 to 20)
#    0.000    1.739    3.478    1.043    0.000   10.435 
#    0.000   11.304    3.826    0.000    0.000    0.000 
#    0.000    0.000    0.000    0.000    0.000    0.000 
#
# Total GULP energy -256671.533551 kJ/mol
# GULP energy per Si atom -5579.815947 kJ/mol
# Density = 2.339122 g / cm^3
# Si number density = 23.444577 Si / 1000 Ang^3
#
#
#
# Elastic Constant Matrix: (Units=GPa)
#
#
# Indices 1 2 3 4 5 6 
#
# 1 172.3837 19.6216 55.3315 0.0000 0.0000 0.0000
# 2 19.6216 71.7429 11.1912 0.0000 0.0000 0.0000
# 3 55.3315 11.1912 90.9866 0.0000 0.0000 0.0000
# 4 0.0000 0.0000 0.0000 26.3289 0.0000 0.0000
# 5 0.0000 0.0000 0.0000 0.0000 34.7402 0.0000
# 6 0.0000 0.0000 0.0000 0.0000 0.0000 56.2488
#
#
#
# Elastic Compliance Matrix: (Units=1/GPa)
#
#
# Indices 1 2 3 4 5 6 
#
# 1 0.007331 -0.001335 -0.004294 0.000000 0.000000 0.000000
# 2 -0.001335 0.014455 -0.000966 0.000000 0.000000 0.000000
# 3 -0.004294 -0.000966 0.013721 0.000000 0.000000 0.000000
# 4 0.000000 0.000000 0.000000 0.037981 0.000000 0.000000
# 5 0.000000 0.000000 0.000000 0.000000 0.028785 0.000000
# 6 0.000000 0.000000 0.000000 0.000000 0.000000 0.017778
#
#
# Mechanical properties :
#
#
# Convention : Reuss Voigt Hill
#
# Bulk Modulus (GPa) = 44.81070 56.37797 50.59434
# Shear Modulus (GPa) = 35.54157 40.06149 37.80153
#
# Velocity S-wave (km/s) = 3.89779 4.13822 4.01980
# Velocity P-wave (km/s) = 6.27789 6.85074 6.57056
#
# Compressibility (1/GPa) = 0.02231610
#
# Stress axis : x y z
#
# Youngs Moduli (GPa) = 136.40090 69.18251 72.88192
#
# Poissons Ratio (x) = 0.09238 0.31297
# Poissons Ratio (y) = 0.18213 0.07039
# Poissons Ratio (z) = 0.58573 0.06682
#
# Static dielectric constant tensor:
#      x y z
#    x 1.963390 0.000000 0.000000 
#    y 0.000000 2.009130 0.000000 
#    z 0.000000 0.000000 1.967610 
# 
# From -- ./inp_files/36670.got.cif
#   From: 2010.05.17/outbox.cif.g08.bks.cpg/sg70_19_cif.got.tgz:36670.got - 2010.06.03 15:57:51.
