data_PCOD9515821
_publ_section_title
;
Structure prediction by ZEFSAII (Michael W. Deem and Ramdas Pophale) SiO2 
 PCOD9515821
Probable space group: F D D D
;
_chemical_formula_sum "Si O2"
_cell_formula_units_Z 96
_cell_length_a 25.620494
_cell_length_b 7.755546
_cell_length_c 19.714719
_cell_angle_alpha 90.000000
_cell_angle_beta 90.000000
_cell_angle_gamma 90.000000
_cell_volume 3917.332798
_symmetry_space_group_name_H-M "F D D D"
_symmetry_group_IT_number 70
_space_group.IT_coordinate_system_code '2'
_symmetry_cell_setting 'orthorhombic'
loop_
_space_group_symop_operation_xyz
x,y,z
1/4-x,1/4-y,z
x,1/4-y,1/4-z
1/4-x,y,1/4-z
-x,-y,-z
3/4+x,3/4+y,-z
-x,3/4+y,3/4+z
3/4+x,-y,3/4+z
x,1/2+y,1/2+z
1/4-x,3/4-y,1/2+z
x,3/4-y,3/4-z
1/4-x,1/2+y,3/4-z
-x,1/2-y,1/2-z
3/4+x,1/4+y,1/2-z
-x,1/4+y,1/4+z
3/4+x,1/2-y,1/4+z
1/2+x,y,1/2+z
3/4-x,1/4-y,1/2+z
1/2+x,1/4-y,3/4-z
3/4-x,y,3/4-z
1/2-x,-y,1/2-z
1/4+x,3/4+y,1/2-z
1/2-x,3/4+y,1/4+z
1/4+x,-y,1/4+z
1/2+x,1/2+y,z
3/4-x,3/4-y,z
1/2+x,3/4-y,1/4-z
3/4-x,1/2+y,1/4-z
1/2-x,1/2-y,-z
1/4+x,1/4+y,-z
1/2-x,1/4+y,3/4+z
1/4+x,1/2-y,3/4+z
loop_
_atom_site_type_symbol
_atom_site_label
_atom_site_fract_x
_atom_site_fract_y
_atom_site_fract_z
Si Si1 0.835385 0.724401 0.271228
Si Si2 0.220971 0.730937 0.819757
Si Si3 0.304628 0.625000 0.625000
Si Si4 0.125000 0.125000 0.224478
O O1 0.775870 0.776372 0.285568
O O2 0.837410 0.682745 0.190598
O O3 0.849723 0.544944 0.307863
O O4 0.875000 0.875000 0.288816
O O5 0.227495 0.542537 0.853465
O O6 0.173257 0.702980 0.768324
O O7 0.208432 0.875000 0.875000
#
# Coordination Sequence:
#
# PCOD9515821 Si02
#       4
#    32  32  16  16
#     4  11  25  42  67 101 135 175 225 282 340 402
#     4  11  25  42  67 101 135 175 225 282 340 402
#     4  10  22  40  70  93 130 172 231 282 322 396
#     4  10  22  40  70  93 130 172 231 282 322 396
#
# _framework density 24.506468999999999
#
# number of rings (size 3 to 8) (size 9 to 14) (size 15 to 20)
#    0.000    1.333    0.000    6.000   18.667    8.667 
#    0.000    0.000    0.000    9.000    0.000    0.000 
#    0.000    0.000    0.000    0.000    0.000    0.000 
#
# Total GULP energy -134323.991652 kJ/mol
# GULP energy per Si atom -5596.832986 kJ/mol
# Density = 2.445069 g / cm^3
# Si number density = 24.506469 Si / 1000 Ang^3
#
#
#
# Elastic Constant Matrix: (Units=GPa)
#
#
# Indices 1 2 3 4 5 6 
#
# 1 196.4143 47.5246 24.2726 0.0000 0.0000 0.0000
# 2 47.5246 124.6910 -6.4351 0.0000 0.0000 0.0000
# 3 24.2726 -6.4351 59.7650 0.0000 0.0000 0.0000
# 4 0.0000 0.0000 0.0000 -44.5454 0.0000 0.0000
# 5 0.0000 0.0000 0.0000 0.0000 17.9113 0.0000
# 6 0.0000 0.0000 0.0000 0.0000 0.0000 49.4017
#
#
#
# Elastic Compliance Matrix: (Units=1/GPa)
#
#
# Indices 1 2 3 4 5 6 
#
# 1 0.006014 -0.002432 -0.002704 0.000000 0.000000 0.000000
# 2 -0.002432 0.009048 0.001962 0.000000 0.000000 0.000000
# 3 -0.002704 0.001962 0.018042 0.000000 0.000000 0.000000
# 4 0.000000 0.000000 0.000000 -0.022449 0.000000 0.000000
# 5 0.000000 0.000000 0.000000 0.000000 0.055831 0.000000
# 6 0.000000 0.000000 0.000000 0.000000 0.000000 0.020242
#
#
# Mechanical properties :
#
#
# Convention : Reuss Voigt Hill
#
# Bulk Modulus (GPa) = 37.37595 56.84382 47.10989
# Shear Modulus (GPa) = 49.02253 25.58738 37.30496
#
# Velocity S-wave (km/s) = 4.47743 3.23477 3.90583
# Velocity P-wave (km/s) = 6.48185 6.09897 6.29332
#
# Compressibility (1/GPa) = 0.02675517
#
# Stress axis : x y z
#
# Youngs Moduli (GPa) = 166.28332 110.52321 55.42714
#
# Poissons Ratio (x) = 0.26876 0.14989
# Poissons Ratio (y) = 0.40435 -0.10874
# Poissons Ratio (z) = 0.44967 -0.21682
#
# Static dielectric constant tensor:
#      x y z
#    x 1.909970 0.000000 0.000000 
#    y 0.000000 1.942850 0.000000 
#    z 0.000000 0.000000 2.063960 
# 
# From -- ./inp_files/8120.got.cif
#   From: 2010.05.17/outbox.cif.g08.bks.cpg/sg70_5_cif.got.tgz:8120.got - 2010.06.03 15:57:51.
