data_PCOD9515653
_publ_section_title
;
Structure prediction by ZEFSAII (Michael W. Deem and Ramdas Pophale) SiO2 
 PCOD9515653
Probable space group: F D D D
;
_chemical_formula_sum "Si O2"
_cell_formula_units_Z 192
_cell_length_a 31.826867
_cell_length_b 11.335848
_cell_length_c 25.558604
_cell_angle_alpha 90.000000
_cell_angle_beta 90.000000
_cell_angle_gamma 90.000000
_cell_volume 9221.148845
_symmetry_space_group_name_H-M "F D D D"
_symmetry_group_IT_number 70
_space_group.IT_coordinate_system_code '2'
_symmetry_cell_setting 'orthorhombic'
loop_
_space_group_symop_operation_xyz
x,y,z
1/4-x,1/4-y,z
x,1/4-y,1/4-z
1/4-x,y,1/4-z
-x,-y,-z
3/4+x,3/4+y,-z
-x,3/4+y,3/4+z
3/4+x,-y,3/4+z
x,1/2+y,1/2+z
1/4-x,3/4-y,1/2+z
x,3/4-y,3/4-z
1/4-x,1/2+y,3/4-z
-x,1/2-y,1/2-z
3/4+x,1/4+y,1/2-z
-x,1/4+y,1/4+z
3/4+x,1/2-y,1/4+z
1/2+x,y,1/2+z
3/4-x,1/4-y,1/2+z
1/2+x,1/4-y,3/4-z
3/4-x,y,3/4-z
1/2-x,-y,1/2-z
1/4+x,3/4+y,1/2-z
1/2-x,3/4+y,1/4+z
1/4+x,-y,1/4+z
1/2+x,1/2+y,z
3/4-x,3/4-y,z
1/2+x,3/4-y,1/4-z
3/4-x,1/2+y,1/4-z
1/2-x,1/2-y,-z
1/4+x,1/4+y,-z
1/2-x,1/4+y,3/4+z
1/4+x,1/2-y,3/4+z
loop_
_atom_site_type_symbol
_atom_site_label
_atom_site_fract_x
_atom_site_fract_y
_atom_site_fract_z
Si Si1 0.065682 0.816540 0.478748
Si Si2 0.310180 0.375000 0.375000
Si Si3 0.240028 0.715200 0.299909
Si Si4 0.125000 0.625000 0.740095
Si Si5 0.462918 0.430901 0.932474
Si Si6 0.919544 0.921405 0.492969
Si Si7 0.497197 0.919103 0.155283
O O1 0.108623 0.742927 0.481436
O O2 0.037343 0.743174 0.437556
O O3 0.037568 0.815793 0.531977
O O4 0.072877 0.955850 0.476151
O O5 0.331985 0.331336 0.429179
O O6 0.280744 0.265054 0.361939
O O7 0.245829 0.855407 0.300612
O O8 0.207603 0.664570 0.258459
O O9 0.229965 0.651487 0.354519
O O10 0.168193 0.587671 0.710734
O O11 0.455546 0.375000 0.875000
O O12 0.477501 0.565387 0.934304
O O13 0.875000 0.875000 0.511595
#
# Coordination Sequence:
#
# PCOD9515653 Si02
#       7
#    32  16  32  16  32  32  32
#     4  11  23  41  66  96 134 176 223 273 343 405
#     4  12  23  42  68  98 126 174 230 280 334 406
#     4  10  21  44  67  94 128 176 226 265 337 407
#     4  10  23  38  62 100 138 170 214 273 342 396
#     4   9  21  40  67 101 132 176 221 281 334 397
#     4  12  26  43  65  99 135 173 225 292 346 403
#     4  11  22  40  73  94 131 178 227 273 323 416
#
# _framework density 20.8217
#
# number of rings (size 3 to 8) (size 9 to 14) (size 15 to 20)
#    0.000    1.333    3.333    2.000    2.333    4.000 
#    1.500    0.000    0.000    0.000    0.000    0.000 
#    0.000    0.000    0.000    0.000    0.000    0.000 
#
# Total GULP energy -267216.573277 kJ/mol
# GULP energy per Si atom -5567.011943 kJ/mol
# Density = 2.077431 g / cm^3
# Si number density = 20.821700 Si / 1000 Ang^3
#
#
#
# Elastic Constant Matrix: (Units=GPa)
#
#
# Indices 1 2 3 4 5 6 
#
# 1 108.6699 77.3332 34.0580 0.0000 0.0000 0.0000
# 2 77.3332 182.5830 31.8018 0.0000 0.0000 0.0000
# 3 34.0580 31.8018 80.0068 0.0000 0.0000 0.0000
# 4 0.0000 0.0000 0.0000 36.4243 0.0000 0.0000
# 5 0.0000 0.0000 0.0000 0.0000 21.1288 0.0000
# 6 0.0000 0.0000 0.0000 0.0000 0.0000 21.6217
#
#
#
# Elastic Compliance Matrix: (Units=1/GPa)
#
#
# Indices 1 2 3 4 5 6 
#
# 1 0.014240 -0.005346 -0.003937 0.000000 0.000000 0.000000
# 2 -0.005346 0.007891 -0.000861 0.000000 0.000000 0.000000
# 3 -0.003937 -0.000861 0.014517 0.000000 0.000000 0.000000
# 4 0.000000 0.000000 0.000000 0.027454 0.000000 0.000000
# 5 0.000000 0.000000 0.000000 0.000000 0.047329 0.000000
# 6 0.000000 0.000000 0.000000 0.000000 0.000000 0.046250
#
#
# Mechanical properties :
#
#
# Convention : Reuss Voigt Hill
#
# Bulk Modulus (GPa) = 61.12123 73.07175 67.09649
# Shear Modulus (GPa) = 27.25943 31.03939 29.14941
#
# Velocity S-wave (km/s) = 3.62219 3.86518 3.74565
# Velocity P-wave (km/s) = 6.84923 7.42224 7.14149
#
# Compressibility (1/GPa) = 0.01636093
#
# Stress axis : x y z
#
# Youngs Moduli (GPa) = 70.22328 126.72472 68.88409
#
# Poissons Ratio (x) = 0.67744 0.27120
# Poissons Ratio (y) = 0.37540 0.05931
# Poissons Ratio (z) = 0.27647 0.10911
#
# Static dielectric constant tensor:
#      x y z
#    x 1.694520 0.000000 0.000000 
#    y 0.000000 1.873310 0.000000 
#    z 0.000000 0.000000 1.881270 
# 
# From -- ./inp_files/62249.got.cif
#   From: 2010.05.17/outbox.cif.g08.bks.cpg/sg70_32_cif.got.tgz:62249.got - 2010.06.03 15:57:51.
