data_PCOD9515825
_publ_section_title
;
Structure prediction by ZEFSAII (Michael W. Deem and Ramdas Pophale) SiO2 
 PCOD9515825
Probable space group: F D D D
;
_chemical_formula_sum "Si O2"
_cell_formula_units_Z 72
_cell_length_a 5.521591
_cell_length_b 25.534014
_cell_length_c 19.485833
_cell_angle_alpha 90.000000
_cell_angle_beta 90.000000
_cell_angle_gamma 90.000000
_cell_volume 2747.276065
_symmetry_space_group_name_H-M "F D D D"
_symmetry_group_IT_number 70
_space_group.IT_coordinate_system_code '2'
_symmetry_cell_setting 'orthorhombic'
loop_
_space_group_symop_operation_xyz
x,y,z
1/4-x,1/4-y,z
x,1/4-y,1/4-z
1/4-x,y,1/4-z
-x,-y,-z
3/4+x,3/4+y,-z
-x,3/4+y,3/4+z
3/4+x,-y,3/4+z
x,1/2+y,1/2+z
1/4-x,3/4-y,1/2+z
x,3/4-y,3/4-z
1/4-x,1/2+y,3/4-z
-x,1/2-y,1/2-z
3/4+x,1/4+y,1/2-z
-x,1/4+y,1/4+z
3/4+x,1/2-y,1/4+z
1/2+x,y,1/2+z
3/4-x,1/4-y,1/2+z
1/2+x,1/4-y,3/4-z
3/4-x,y,3/4-z
1/2-x,-y,1/2-z
1/4+x,3/4+y,1/2-z
1/2-x,3/4+y,1/4+z
1/4+x,-y,1/4+z
1/2+x,1/2+y,z
3/4-x,3/4-y,z
1/2+x,3/4-y,1/4-z
3/4-x,1/2+y,1/4-z
1/2-x,1/2-y,-z
1/4+x,1/4+y,-z
1/2-x,1/4+y,3/4+z
1/4+x,1/2-y,3/4+z
loop_
_atom_site_type_symbol
_atom_site_label
_atom_site_fract_x
_atom_site_fract_y
_atom_site_fract_z
Si Si1 0.625000 0.125000 0.625000
Si Si2 0.224416 0.298462 0.551191
Si Si3 0.272677 0.686177 0.500142
O O1 0.788506 0.162808 0.576960
O O2 0.125000 0.281750 0.625000
O O3 0.250000 0.250000 0.500000
O O4 0.491497 0.323310 0.547069
O O5 0.997214 0.331041 0.523220
O O6 0.250000 0.750000 0.500000
#
# Coordination Sequence:
#
# PCOD9515825 Si02
#       3
#     8  32  32
#     4  12  28  50  80 122 164 226 274 338 428 492
#     4  10  22  40  72 110 156 205 261 331 409 481
#     4  10  25  42  74 111 158 206 268 332 402 492
#
# _framework density 26.207777
#
# number of rings (size 3 to 8) (size 9 to 14) (size 15 to 20)
#    0.000    1.778    0.000    1.333   24.889    3.556 
#    0.000    4.444    0.000    0.000    0.000    0.000 
#    0.000    0.000    0.000    0.000    0.000    0.000 
#
# Total GULP energy -100529.152619 kJ/mol
# GULP energy per Si atom -5584.952923 kJ/mol
# Density = 2.614813 g / cm^3
# Si number density = 26.207777 Si / 1000 Ang^3
#
#
#
# Elastic Constant Matrix: (Units=GPa)
#
#
# Indices 1 2 3 4 5 6 
#
# 1 302.8597 53.0981 76.5249 0.0000 0.0000 0.0000
# 2 53.0981 112.3979 59.2007 0.0000 0.0000 0.0000
# 3 76.5249 59.2007 202.7012 0.0000 0.0000 0.0000
# 4 0.0000 0.0000 0.0000 52.7879 0.0000 0.0000
# 5 0.0000 0.0000 0.0000 0.0000 60.6462 0.0000
# 6 0.0000 0.0000 0.0000 0.0000 0.0000 58.6882
#
#
#
# Elastic Compliance Matrix: (Units=1/GPa)
#
#
# Indices 1 2 3 4 5 6 
#
# 1 0.003787 -0.001224 -0.001072 0.000000 0.000000 0.000000
# 2 -0.001224 0.010910 -0.002724 0.000000 0.000000 0.000000
# 3 -0.001072 -0.002724 0.006134 0.000000 0.000000 0.000000
# 4 0.000000 0.000000 0.000000 0.018944 0.000000 0.000000
# 5 0.000000 0.000000 0.000000 0.000000 0.016489 0.000000
# 6 0.000000 0.000000 0.000000 0.000000 0.000000 0.017039
#
#
# Mechanical properties :
#
#
# Convention : Reuss Voigt Hill
#
# Bulk Modulus (GPa) = 92.68077 110.62292 101.65185
# Shear Modulus (GPa) = 57.50968 63.03347 60.27157
#
# Velocity S-wave (km/s) = 4.68950 4.90955 4.80078
# Velocity P-wave (km/s) = 8.04751 8.62785 8.34273
#
# Compressibility (1/GPa) = 0.01078972
#
# Stress axis : x y z
#
# Youngs Moduli (GPa) = 264.02865 91.65681 163.03150
#
# Poissons Ratio (x) = 0.11223 0.17481
# Poissons Ratio (y) = 0.32330 0.44412
# Poissons Ratio (z) = 0.28310 0.24969
#
# Static dielectric constant tensor:
#      x y z
#    x 2.093790 0.000000 0.000000 
#    y 0.000000 2.222800 0.000000 
#    z 0.000000 0.000000 2.140530 
# 
# From -- ./inp_files/1814.got.cif
#   From: 2010.05.17/outbox.cif.g08.bks.cpg/sg70_1_cif.got.tgz:1814.got - 2010.06.03 15:57:51.
