data_PCOD9515541
_publ_section_title
;
Structure prediction by ZEFSAII (Michael W. Deem and Ramdas Pophale) SiO2 
 PCOD9515541
Probable space group: F D D D
;
_chemical_formula_sum "Si O2"
_cell_formula_units_Z 160
_cell_length_a 21.455138
_cell_length_b 13.245384
_cell_length_c 27.151081
_cell_angle_alpha 90.000000
_cell_angle_beta 90.000000
_cell_angle_gamma 90.000000
_cell_volume 7715.836054
_symmetry_space_group_name_H-M "F D D D"
_symmetry_group_IT_number 70
_space_group.IT_coordinate_system_code '2'
_symmetry_cell_setting 'orthorhombic'
loop_
_space_group_symop_operation_xyz
x,y,z
1/4-x,1/4-y,z
x,1/4-y,1/4-z
1/4-x,y,1/4-z
-x,-y,-z
3/4+x,3/4+y,-z
-x,3/4+y,3/4+z
3/4+x,-y,3/4+z
x,1/2+y,1/2+z
1/4-x,3/4-y,1/2+z
x,3/4-y,3/4-z
1/4-x,1/2+y,3/4-z
-x,1/2-y,1/2-z
3/4+x,1/4+y,1/2-z
-x,1/4+y,1/4+z
3/4+x,1/2-y,1/4+z
1/2+x,y,1/2+z
3/4-x,1/4-y,1/2+z
1/2+x,1/4-y,3/4-z
3/4-x,y,3/4-z
1/2-x,-y,1/2-z
1/4+x,3/4+y,1/2-z
1/2-x,3/4+y,1/4+z
1/4+x,-y,1/4+z
1/2+x,1/2+y,z
3/4-x,3/4-y,z
1/2+x,3/4-y,1/4-z
3/4-x,1/2+y,1/4-z
1/2-x,1/2-y,-z
1/4+x,1/4+y,-z
1/2-x,1/4+y,3/4+z
1/4+x,1/2-y,3/4+z
loop_
_atom_site_type_symbol
_atom_site_label
_atom_site_fract_x
_atom_site_fract_y
_atom_site_fract_z
Si Si1 0.504007 0.043816 0.055074
Si Si2 0.049869 0.490493 0.228731
Si Si3 0.341434 0.625719 0.921867
Si Si4 0.136907 0.852432 0.320342
Si Si5 0.414772 0.970723 0.244547
O O1 0.434143 0.061001 0.074067
O O2 0.539806 0.961447 0.087722
O O3 0.540461 0.148276 0.044691
O O4 0.500000 0.000000 0.000000
O O5 0.104040 0.435692 0.199551
O O6 0.073029 0.472913 0.285503
O O7 0.981657 0.441412 0.222454
O O8 0.375000 0.579475 0.875000
O O9 0.317836 0.541875 0.959428
O O10 0.161697 0.875000 0.375000
O O11 0.125840 0.958263 0.291553
O O12 0.375000 0.875000 0.259173
#
# Coordination Sequence:
#
# PCOD9515541 Si02
#       5
#    32  32  32  32  32
#     4  11  20  39  62  89 127 157 198 257 316 370
#     4  10  21  41  65  85 128 163 198 256 319 359
#     4  11  24  38  63  96 119 162 212 250 310 369
#     4  10  23  41  61  98 123 159 210 254 312 371
#     4  10  23  46  61  86 128 169 204 257 302 364
#
# _framework density 20.736573
#
# number of rings (size 3 to 8) (size 9 to 14) (size 15 to 20)
#    0.000    1.600    6.000    0.600    5.600    4.400 
#   10.800    0.000    0.000    0.000    0.000    0.000 
#    0.000    0.000    0.000    0.000    0.000    0.000 
#
# Total GULP energy -223118.983391 kJ/mol
# GULP energy per Si atom -5577.974585 kJ/mol
# Density = 2.068938 g / cm^3
# Si number density = 20.736573 Si / 1000 Ang^3
#
#
#
# Elastic Constant Matrix: (Units=GPa)
#
#
# Indices 1 2 3 4 5 6 
#
# 1 69.7616 42.5073 -24.9965 0.0000 0.0000 0.0000
# 2 42.5073 72.0715 -8.3396 0.0000 0.0000 0.0000
# 3 -24.9965 -8.3396 49.1754 0.0000 0.0000 0.0000
# 4 0.0000 0.0000 0.0000 5.5141 0.0000 0.0000
# 5 0.0000 0.0000 0.0000 0.0000 15.8238 0.0000
# 6 0.0000 0.0000 0.0000 0.0000 0.0000 7.6854
#
#
#
# Elastic Compliance Matrix: (Units=1/GPa)
#
#
# Indices 1 2 3 4 5 6 
#
# 1 0.027526 -0.014908 0.011464 0.000000 0.000000 0.000000
# 2 -0.014908 0.022227 -0.003809 0.000000 0.000000 0.000000
# 3 0.011464 -0.003809 0.025517 0.000000 0.000000 0.000000
# 4 0.000000 0.000000 0.000000 0.181354 0.000000 0.000000
# 5 0.000000 0.000000 0.000000 0.000000 0.063196 0.000000
# 6 0.000000 0.000000 0.000000 0.000000 0.000000 0.130117
#
#
# Mechanical properties :
#
#
# Convention : Reuss Voigt Hill
#
# Bulk Modulus (GPa) = 16.45728 23.26122 19.85925
# Shear Modulus (GPa) = 10.31573 17.92715 14.12144
#
# Velocity S-wave (km/s) = 2.23281 2.94346 2.61241
# Velocity P-wave (km/s) = 3.82111 4.77428 4.32404
#
# Compressibility (1/GPa) = 0.06076338
#
# Stress axis : x y z
#
# Youngs Moduli (GPa) = 36.32941 44.99010 39.19022
#
# Poissons Ratio (x) = 0.67072 -0.44926
# Poissons Ratio (y) = 0.54160 0.14926
# Poissons Ratio (z) = -0.41646 0.17135
#
# Static dielectric constant tensor:
#      x y z
#    x 1.736820 0.000000 0.000000 
#    y 0.000000 1.748640 0.000000 
#    z 0.000000 0.000000 1.795860 
# 
# From -- ./inp_files/50312.got.cif
#   From: 2010.05.17/outbox.cif.g08.bks.cpg/sg70_26_cif.got.tgz:50312.got - 2010.06.03 15:57:51.
