data_PCOD9515445
_publ_section_title
;
Structure prediction by ZEFSAII (Michael W. Deem and Ramdas Pophale) SiO2 
 PCOD9515445
Probable space group: F D D D
;
_chemical_formula_sum "Si O2"
_cell_formula_units_Z 80
_cell_length_a 29.301763
_cell_length_b 21.371469
_cell_length_c 5.465262
_cell_angle_alpha 90.000000
_cell_angle_beta 90.000000
_cell_angle_gamma 90.000000
_cell_volume 3422.465768
_symmetry_space_group_name_H-M "F D D D"
_symmetry_group_IT_number 70
_space_group.IT_coordinate_system_code '2'
_symmetry_cell_setting 'orthorhombic'
loop_
_space_group_symop_operation_xyz
x,y,z
1/4-x,1/4-y,z
x,1/4-y,1/4-z
1/4-x,y,1/4-z
-x,-y,-z
3/4+x,3/4+y,-z
-x,3/4+y,3/4+z
3/4+x,-y,3/4+z
x,1/2+y,1/2+z
1/4-x,3/4-y,1/2+z
x,3/4-y,3/4-z
1/4-x,1/2+y,3/4-z
-x,1/2-y,1/2-z
3/4+x,1/4+y,1/2-z
-x,1/4+y,1/4+z
3/4+x,1/2-y,1/4+z
1/2+x,y,1/2+z
3/4-x,1/4-y,1/2+z
1/2+x,1/4-y,3/4-z
3/4-x,y,3/4-z
1/2-x,-y,1/2-z
1/4+x,3/4+y,1/2-z
1/2-x,3/4+y,1/4+z
1/4+x,-y,1/4+z
1/2+x,1/2+y,z
3/4-x,3/4-y,z
1/2+x,3/4-y,1/4-z
3/4-x,1/2+y,1/4-z
1/2-x,1/2-y,-z
1/4+x,1/4+y,-z
1/2-x,1/4+y,3/4+z
1/4+x,1/2-y,3/4+z
loop_
_atom_site_type_symbol
_atom_site_label
_atom_site_fract_x
_atom_site_fract_y
_atom_site_fract_z
Si Si1 0.716308 0.059400 0.712163
Si Si2 0.697041 0.230988 0.034907
Si Si3 0.375000 0.086491 0.875000
O O1 0.738697 0.125000 0.625000
O O2 0.750000 0.000000 0.750000
O O3 0.683580 0.043951 0.483297
O O4 0.693854 0.063808 0.979327
O O5 0.668449 0.291912 0.096930
O O6 0.750000 0.250000 0.000000
O O7 0.379103 0.125000 0.625000
#
# Coordination Sequence:
#
# PCOD9515445 Si02
#       3
#    32  32  16
#     4  10  21  39  65  98 137 185 236 291 359 437
#     4  10  23  41  65 100 137 181 235 300 366 425
#     4  12  26  46  73 106 145 194 254 312 366 450
#
# _framework density 23.374959
#
# number of rings (size 3 to 8) (size 9 to 14) (size 15 to 20)
#    0.000    1.600    0.000    3.600    0.000   19.200 
#    0.000    6.000    0.000    0.000    0.000    0.000 
#    0.000    0.000    0.000    0.000    0.000    0.000 
#
# Total GULP energy -111604.159969 kJ/mol
# GULP energy per Si atom -5580.207998 kJ/mol
# Density = 2.332176 g / cm^3
# Si number density = 23.374959 Si / 1000 Ang^3
#
#
#
# Elastic Constant Matrix: (Units=GPa)
#
#
# Indices 1 2 3 4 5 6 
#
# 1 98.0029 49.2422 34.4248 0.0146 -0.0059 -0.0063
# 2 49.2422 177.6742 90.8806 -0.0764 0.0196 0.0259
# 3 34.4248 90.8806 309.2541 -0.1033 0.0217 0.0295
# 4 0.0146 -0.0764 -0.1033 39.0360 0.0599 0.0993
# 5 -0.0059 0.0196 0.0217 0.0599 14.0776 -0.0210
# 6 -0.0063 0.0259 0.0295 0.0993 -0.0210 41.1464
#
#
#
# Elastic Compliance Matrix: (Units=1/GPa)
#
#
# Indices 1 2 3 4 5 6 
#
# 1 0.011900 -0.003084 -0.000418 -0.000012 0.000010 0.000004
# 2 -0.003084 0.007423 -0.001838 0.000011 -0.000009 -0.000004
# 3 -0.000418 -0.001838 0.003820 0.000007 -0.000004 -0.000002
# 4 -0.000012 0.000011 0.000007 0.025618 -0.000109 -0.000062
# 5 0.000010 -0.000009 -0.000004 -0.000109 0.071036 0.000037
# 6 0.000004 -0.000004 -0.000002 -0.000062 0.000037 0.024304
#
#
# Mechanical properties :
#
#
# Convention : Reuss Voigt Hill
#
# Bulk Modulus (GPa) = 80.23999 103.78070 92.01035
# Shear Modulus (GPa) = 31.45908 46.21091 38.83499
#
# Velocity S-wave (km/s) = 3.67256 4.45110 4.08044
# Velocity P-wave (km/s) = 7.23778 8.42087 7.85164
#
# Compressibility (1/GPa) = 0.01246261
#
# Stress axis : x y z
#
# Youngs Moduli (GPa) = 84.03070 134.71114 261.75691
#
# Poissons Ratio (x) = 0.41548 0.10951
# Poissons Ratio (y) = 0.25917 0.48115
# Poissons Ratio (z) = 0.03515 0.24762
#
# Static dielectric constant tensor:
#      x y z
#    x 1.846320 -0.000010 0.000000 
#    y -0.000010 1.918240 0.000010 
#    z 0.000000 0.000010 1.865860 
# 
# From -- ./inp_files/3730.got.cif
#   From: 2010.05.17/outbox.cif.g08.bks.cpg/sg70_2_cif.got.tgz:3730.got - 2010.06.03 15:57:51.
