data_PCOD9515877
_publ_section_title
;
Structure prediction by ZEFSAII (Michael W. Deem and Ramdas Pophale) SiO2 
 PCOD9515877
Probable space group: F D D D
;
_chemical_formula_sum "Si O2"
_cell_formula_units_Z 112
_cell_length_a 18.220337
_cell_length_b 29.242380
_cell_length_c 9.316140
_cell_angle_alpha 90.000000
_cell_angle_beta 90.000000
_cell_angle_gamma 90.000000
_cell_volume 4963.695459
_symmetry_space_group_name_H-M "F D D D"
_symmetry_group_IT_number 70
_space_group.IT_coordinate_system_code '2'
_symmetry_cell_setting 'orthorhombic'
loop_
_space_group_symop_operation_xyz
x,y,z
1/4-x,1/4-y,z
x,1/4-y,1/4-z
1/4-x,y,1/4-z
-x,-y,-z
3/4+x,3/4+y,-z
-x,3/4+y,3/4+z
3/4+x,-y,3/4+z
x,1/2+y,1/2+z
1/4-x,3/4-y,1/2+z
x,3/4-y,3/4-z
1/4-x,1/2+y,3/4-z
-x,1/2-y,1/2-z
3/4+x,1/4+y,1/2-z
-x,1/4+y,1/4+z
3/4+x,1/2-y,1/4+z
1/2+x,y,1/2+z
3/4-x,1/4-y,1/2+z
1/2+x,1/4-y,3/4-z
3/4-x,y,3/4-z
1/2-x,-y,1/2-z
1/4+x,3/4+y,1/2-z
1/2-x,3/4+y,1/4+z
1/4+x,-y,1/4+z
1/2+x,1/2+y,z
3/4-x,3/4-y,z
1/2+x,3/4-y,1/4-z
3/4-x,1/2+y,1/4-z
1/2-x,1/2-y,-z
1/4+x,1/4+y,-z
1/2-x,1/4+y,3/4+z
1/4+x,1/2-y,3/4+z
loop_
_atom_site_type_symbol
_atom_site_label
_atom_site_fract_x
_atom_site_fract_y
_atom_site_fract_z
Si Si1 0.425413 0.546560 0.999788
Si Si2 0.974525 0.447190 0.986840
Si Si3 0.322890 0.456617 0.590804
Si Si4 0.671034 0.375000 0.875000
O O1 0.375000 0.523291 0.875000
O O2 0.506984 0.557996 0.945338
O O3 0.427023 0.511187 0.131277
O O4 0.379844 0.590261 0.041197
O O5 0.949704 0.444738 0.820413
O O6 0.032723 0.406209 0.986959
O O7 0.906913 0.439879 0.096208
O O8 0.000000 0.500000 0.000000
#
# Coordination Sequence:
#
# PCOD9515877 Si02
#       4
#    32  32  32  16
#     4  11  22  43  66 103 137 188 235 305 355 440
#     4  11  22  43  68 106 137 193 231 299 362 444
#     4  10  22  41  71  94 142 185 234 291 370 424
#     4  12  24  39  72 104 145 186 250 294 367 430
#
# _framework density 22.563834
#
# number of rings (size 3 to 8) (size 9 to 14) (size 15 to 20)
#    0.000    1.143    5.714    0.000    0.000    4.571 
#    0.000    0.000    0.000    0.000    0.000    0.000 
#    0.000    0.000    0.000    0.000    0.000    0.000 
#
# Total GULP energy -156273.303859 kJ/mol
# GULP energy per Si atom -5581.189424 kJ/mol
# Density = 2.251248 g / cm^3
# Si number density = 22.563834 Si / 1000 Ang^3
#
#
#
# Elastic Constant Matrix: (Units=GPa)
#
#
# Indices 1 2 3 4 5 6 
#
# 1 192.5774 82.4617 23.2558 0.0000 0.0000 0.0000
# 2 82.4617 118.6399 12.1412 0.0000 0.0000 0.0000
# 3 23.2558 12.1412 27.7565 0.0000 0.0000 0.0000
# 4 0.0000 0.0000 0.0000 26.9225 0.0000 0.0000
# 5 0.0000 0.0000 0.0000 0.0000 44.0048 0.0000
# 6 0.0000 0.0000 0.0000 0.0000 0.0000 59.1028
#
#
#
# Elastic Compliance Matrix: (Units=1/GPa)
#
#
# Indices 1 2 3 4 5 6 
#
# 1 0.007875 -0.005023 -0.004401 0.000000 0.000000 0.000000
# 2 -0.005023 0.012028 -0.001052 0.000000 0.000000 0.000000
# 3 -0.004401 -0.001052 0.040175 0.000000 0.000000 0.000000
# 4 0.000000 0.000000 0.000000 0.037144 0.000000 0.000000
# 5 0.000000 0.000000 0.000000 0.000000 0.022725 0.000000
# 6 0.000000 0.000000 0.000000 0.000000 0.000000 0.016920
#
#
# Mechanical properties :
#
#
# Convention : Reuss Voigt Hill
#
# Bulk Modulus (GPa) = 25.55903 63.85455 44.70679
# Shear Modulus (GPa) = 29.26340 40.74703 35.00521
#
# Velocity S-wave (km/s) = 3.60518 4.25415 3.94304
# Velocity P-wave (km/s) = 5.35554 7.24509 6.37076
#
# Compressibility (1/GPa) = 0.03912511
#
# Stress axis : x y z
#
# Youngs Moduli (GPa) = 126.98135 83.13869 24.89089
#
# Poissons Ratio (x) = 0.41763 0.10954
# Poissons Ratio (y) = 0.63787 0.02620
# Poissons Ratio (z) = 0.55884 0.08750
#
# Static dielectric constant tensor:
#      x y z
#    x 2.016400 0.000000 0.000000 
#    y 0.000000 1.848630 0.000000 
#    z 0.000000 0.000000 1.850740 
# 
# From -- ./inp_files/16298.got.cif
#   From: 2010.05.17/outbox.cif.g08.bks.cpg/sg70_9_cif.got.tgz:16298.got - 2010.06.03 15:57:51.
