data_PCOD9515316
_publ_section_title
;
Structure prediction by ZEFSAII (Michael W. Deem and Ramdas Pophale) SiO2 
 PCOD9515316
Probable space group: F D D D
;
_chemical_formula_sum "Si O2"
_cell_formula_units_Z 176
_cell_length_a 16.521915
_cell_length_b 22.948448
_cell_length_c 21.296485
_cell_angle_alpha 90.000000
_cell_angle_beta 90.000000
_cell_angle_gamma 90.000000
_cell_volume 8074.611424
_symmetry_space_group_name_H-M "F D D D"
_symmetry_group_IT_number 70
_space_group.IT_coordinate_system_code '2'
_symmetry_cell_setting 'orthorhombic'
loop_
_space_group_symop_operation_xyz
x,y,z
1/4-x,1/4-y,z
x,1/4-y,1/4-z
1/4-x,y,1/4-z
-x,-y,-z
3/4+x,3/4+y,-z
-x,3/4+y,3/4+z
3/4+x,-y,3/4+z
x,1/2+y,1/2+z
1/4-x,3/4-y,1/2+z
x,3/4-y,3/4-z
1/4-x,1/2+y,3/4-z
-x,1/2-y,1/2-z
3/4+x,1/4+y,1/2-z
-x,1/4+y,1/4+z
3/4+x,1/2-y,1/4+z
1/2+x,y,1/2+z
3/4-x,1/4-y,1/2+z
1/2+x,1/4-y,3/4-z
3/4-x,y,3/4-z
1/2-x,-y,1/2-z
1/4+x,3/4+y,1/2-z
1/2-x,3/4+y,1/4+z
1/4+x,-y,1/4+z
1/2+x,1/2+y,z
3/4-x,3/4-y,z
1/2+x,3/4-y,1/4-z
3/4-x,1/2+y,1/4-z
1/2-x,1/2-y,-z
1/4+x,1/4+y,-z
1/2-x,1/4+y,3/4+z
1/4+x,1/2-y,3/4+z
loop_
_atom_site_type_symbol
_atom_site_label
_atom_site_fract_x
_atom_site_fract_y
_atom_site_fract_z
Si Si1 0.636839 0.404083 0.013397
Si Si2 0.869870 0.751668 0.094350
Si Si3 0.125000 0.241698 0.625000
Si Si4 0.246147 0.434028 0.036028
Si Si5 0.729540 0.926416 0.323142
Si Si6 0.545660 0.003210 0.657017
O O1 0.549967 0.376526 0.027998
O O2 0.676510 0.440272 0.068567
O O3 0.629465 0.451714 0.958308
O O4 0.696680 0.352751 0.990037
O O5 0.916817 0.726025 0.154879
O O6 0.776403 0.756222 0.108835
O O7 0.917644 0.808143 0.070150
O O8 0.064994 0.278078 0.580033
O O9 0.181426 0.203120 0.579114
O O10 0.261610 0.460760 0.966599
O O11 0.727081 0.875000 0.375000
O O12 0.625000 0.031197 0.625000
#
# Coordination Sequence:
#
# PCOD9515316 Si02
#       6
#    32  32  16  32  32  32
#     4  10  21  39  67  92 129 177 219 274 329 399
#     4   9  20  42  65  91 129 173 218 272 329 393
#     4  10  21  36  64  98 134 170 218 285 338 392
#     4  10  22  41  66  94 131 175 220 273 337 394
#     4   9  17  35  64  90 125 169 220 266 327 406
#     4  11  24  43  65  94 132 172 221 280 330 389
#
# _framework density 21.796714000000001
#
# number of rings (size 3 to 8) (size 9 to 14) (size 15 to 20)
#    0.000    2.182    1.818    1.364    1.273    3.636 
#    0.000    6.364    0.000    0.000    0.000    0.000 
#    0.000    0.000    0.000    0.000    0.000    0.000 
#
# Total GULP energy -245703.041179 kJ/mol
# GULP energy per Si atom -5584.160027 kJ/mol
# Density = 2.174710 g / cm^3
# Si number density = 21.796714 Si / 1000 Ang^3
#
#
#
# Elastic Constant Matrix: (Units=GPa)
#
#
# Indices 1 2 3 4 5 6 
#
# 1 142.8178 18.1771 28.6008 0.0000 0.0000 0.0000
# 2 18.1771 49.4634 3.9845 0.0000 0.0000 0.0000
# 3 28.6008 3.9845 53.1931 0.0000 0.0000 0.0000
# 4 0.0000 0.0000 0.0000 -0.9352 0.0000 0.0000
# 5 0.0000 0.0000 0.0000 0.0000 43.0968 0.0000
# 6 0.0000 0.0000 0.0000 0.0000 0.0000 24.4601
#
#
#
# Elastic Compliance Matrix: (Units=1/GPa)
#
#
# Indices 1 2 3 4 5 6 
#
# 1 0.008183 -0.002669 -0.004200 0.000000 0.000000 0.000000
# 2 -0.002669 0.021210 -0.000154 0.000000 0.000000 0.000000
# 3 -0.004200 -0.000154 0.021069 0.000000 0.000000 0.000000
# 4 0.000000 0.000000 0.000000 -1.069280 0.000000 0.000000
# 5 0.000000 0.000000 0.000000 0.000000 0.023204 0.000000
# 6 0.000000 0.000000 0.000000 0.000000 0.000000 0.040883
#
#
# Mechanical properties :
#
#
# Convention : Reuss Voigt Hill
#
# Bulk Modulus (GPa) = 27.45956 38.55545 33.00751
# Shear Modulus (GPa) = -5.38475 26.30515 10.46020
#
# Velocity S-wave (km/s) = -1.57347 3.47773 2.19303
# Velocity P-wave (km/s) = 3.05357 5.81835 4.64637
#
# Compressibility (1/GPa) = 0.03641719
#
# Stress axis : x y z
#
# Youngs Moduli (GPa) = 122.21020 47.14743 47.46298
#
# Poissons Ratio (x) = 0.12582 0.19933
# Poissons Ratio (y) = 0.32614 0.00730
# Poissons Ratio (z) = 0.51325 0.00725
#
# Static dielectric constant tensor:
#      x y z
#    x 1.793270 0.000000 0.000000 
#    y 0.000000 1.793930 0.000000 
#    z 0.000000 0.000000 1.845000 
# 
# From -- ./inp_files/28756.got.cif
#   From: 2010.05.17/outbox.cif.g08.bks.cpg/sg70_15_cif.got.tgz:28756.got - 2010.06.03 15:57:51.
