data_PCOD9515895
_publ_section_title
;
Structure prediction by ZEFSAII (Michael W. Deem and Ramdas Pophale) SiO2 
 PCOD9515895
Probable space group: F D D D
;
_chemical_formula_sum "Si O2"
_cell_formula_units_Z 96
_cell_length_a 4.807597
_cell_length_b 36.335641
_cell_length_c 24.020489
_cell_angle_alpha 90.000000
_cell_angle_beta 90.000000
_cell_angle_gamma 90.000000
_cell_volume 4196.070012
_symmetry_space_group_name_H-M "F D D D"
_symmetry_group_IT_number 70
_space_group.IT_coordinate_system_code '2'
_symmetry_cell_setting 'orthorhombic'
loop_
_space_group_symop_operation_xyz
x,y,z
1/4-x,1/4-y,z
x,1/4-y,1/4-z
1/4-x,y,1/4-z
-x,-y,-z
3/4+x,3/4+y,-z
-x,3/4+y,3/4+z
3/4+x,-y,3/4+z
x,1/2+y,1/2+z
1/4-x,3/4-y,1/2+z
x,3/4-y,3/4-z
1/4-x,1/2+y,3/4-z
-x,1/2-y,1/2-z
3/4+x,1/4+y,1/2-z
-x,1/4+y,1/4+z
3/4+x,1/2-y,1/4+z
1/2+x,y,1/2+z
3/4-x,1/4-y,1/2+z
1/2+x,1/4-y,3/4-z
3/4-x,y,3/4-z
1/2-x,-y,1/2-z
1/4+x,3/4+y,1/2-z
1/2-x,3/4+y,1/4+z
1/4+x,-y,1/4+z
1/2+x,1/2+y,z
3/4-x,3/4-y,z
1/2+x,3/4-y,1/4-z
3/4-x,1/2+y,1/4-z
1/2-x,1/2-y,-z
1/4+x,1/4+y,-z
1/2-x,1/4+y,3/4+z
1/4+x,1/2-y,3/4+z
loop_
_atom_site_type_symbol
_atom_site_label
_atom_site_fract_x
_atom_site_fract_y
_atom_site_fract_z
Si Si1 0.625000 0.224688 0.625000
Si Si2 0.298752 0.415458 0.970453
Si Si3 0.375000 0.722633 0.875000
Si Si4 0.808791 0.334938 0.702737
O O1 0.678788 0.197971 0.676953
O O2 0.367275 0.249836 0.644861
O O3 0.375000 0.375000 0.947901
O O4 0.493265 0.419942 0.026172
O O5 0.983534 0.414766 0.990567
O O6 0.553881 0.696569 0.834177
O O7 0.875000 0.375000 0.676435
#
# Coordination Sequence:
#
# PCOD9515895 Si02
#       4
#    16  32  16  32
#     4  12  25  39  62  94 129 162 199 254 316 373
#     4  10  22  42  65  89 120 165 212 254 301 363
#     4  12  26  39  61  96 127 162 199 252 319 369
#     4  10  23  42  64  88 120 163 212 258 302 364
#
# _framework density 22.878553
#
# number of rings (size 3 to 8) (size 9 to 14) (size 15 to 20)
#    0.000    1.333    0.000    4.500    0.000   13.333 
#    0.000    6.667    0.000    0.000    0.000    0.000 
#    0.000    0.000    0.000    0.000    0.000    0.000 
#
# Total GULP energy -134068.040742 kJ/mol
# GULP energy per Si atom -5586.168364 kJ/mol
# Density = 2.282648 g / cm^3
# Si number density = 22.878553 Si / 1000 Ang^3
#
#
#
# Elastic Constant Matrix: (Units=GPa)
#
#
# Indices 1 2 3 4 5 6 
#
# 1 89.9163 20.1032 1.2857 0.0000 0.0000 0.0000
# 2 20.1032 157.9755 42.8936 0.0000 0.0000 0.0000
# 3 1.2857 42.8936 43.5802 0.0000 0.0000 0.0000
# 4 0.0000 0.0000 0.0000 30.5974 0.0000 0.0000
# 5 0.0000 0.0000 0.0000 0.0000 17.1841 0.0000
# 6 0.0000 0.0000 0.0000 0.0000 0.0000 44.5957
#
#
#
# Elastic Compliance Matrix: (Units=1/GPa)
#
#
# Indices 1 2 3 4 5 6 
#
# 1 0.011519 -0.001875 0.001505 0.000000 0.000000 0.000000
# 2 -0.001875 0.008944 -0.008748 0.000000 0.000000 0.000000
# 3 0.001505 -0.008748 0.031512 0.000000 0.000000 0.000000
# 4 0.000000 0.000000 0.000000 0.032682 0.000000 0.000000
# 5 0.000000 0.000000 0.000000 0.000000 0.058193 0.000000
# 6 0.000000 0.000000 0.000000 0.000000 0.000000 0.022424
#
#
# Mechanical properties :
#
#
# Convention : Reuss Voigt Hill
#
# Bulk Modulus (GPa) = 29.63798 46.67079 38.15439
# Shear Modulus (GPa) = 25.67331 33.62140 29.64735
#
# Velocity S-wave (km/s) = 3.35349 3.83764 3.60371
# Velocity P-wave (km/s) = 5.28934 6.33090 5.83342
#
# Compressibility (1/GPa) = 0.03374049
#
# Stress axis : x y z
#
# Youngs Moduli (GPa) = 86.81281 111.80939 31.73436
#
# Poissons Ratio (x) = 0.20959 -0.04777
# Poissons Ratio (y) = 0.16273 0.27760
# Poissons Ratio (z) = -0.13067 0.97806
#
# Static dielectric constant tensor:
#      x y z
#    x 1.796590 0.000000 0.000000 
#    y 0.000000 1.882520 0.000000 
#    z 0.000000 0.000000 1.838950 
# 
# From -- ./inp_files/62889.got.cif
#   From: 2010.05.17/outbox.cif.g08.bks.cpg/sg70_32_cif.got.tgz:62889.got - 2010.06.03 15:57:51.
