data_PCOD9515804
_publ_section_title
;
Structure prediction by ZEFSAII (Michael W. Deem and Ramdas Pophale) SiO2 
 PCOD9515804
Probable space group: F D D D
;
_chemical_formula_sum "Si O2"
_cell_formula_units_Z 88
_cell_length_a 18.837487
_cell_length_b 32.728745
_cell_length_c 7.018124
_cell_angle_alpha 90.000000
_cell_angle_beta 90.000000
_cell_angle_gamma 90.000000
_cell_volume 4326.865100
_symmetry_space_group_name_H-M "F D D D"
_symmetry_group_IT_number 70
_space_group.IT_coordinate_system_code '2'
_symmetry_cell_setting 'orthorhombic'
loop_
_space_group_symop_operation_xyz
x,y,z
1/4-x,1/4-y,z
x,1/4-y,1/4-z
1/4-x,y,1/4-z
-x,-y,-z
3/4+x,3/4+y,-z
-x,3/4+y,3/4+z
3/4+x,-y,3/4+z
x,1/2+y,1/2+z
1/4-x,3/4-y,1/2+z
x,3/4-y,3/4-z
1/4-x,1/2+y,3/4-z
-x,1/2-y,1/2-z
3/4+x,1/4+y,1/2-z
-x,1/4+y,1/4+z
3/4+x,1/2-y,1/4+z
1/2+x,y,1/2+z
3/4-x,1/4-y,1/2+z
1/2+x,1/4-y,3/4-z
3/4-x,y,3/4-z
1/2-x,-y,1/2-z
1/4+x,3/4+y,1/2-z
1/2-x,3/4+y,1/4+z
1/4+x,-y,1/4+z
1/2+x,1/2+y,z
3/4-x,3/4-y,z
1/2+x,3/4-y,1/4-z
3/4-x,1/2+y,1/4-z
1/2-x,1/2-y,-z
1/4+x,1/4+y,-z
1/2-x,1/4+y,3/4+z
1/4+x,1/2-y,3/4+z
loop_
_atom_site_type_symbol
_atom_site_label
_atom_site_fract_x
_atom_site_fract_y
_atom_site_fract_z
Si Si1 0.875000 0.070940 0.875000
Si Si2 0.997601 0.636181 0.346731
Si Si3 0.125000 0.125000 0.125000
Si Si4 0.933223 0.028968 0.502807
O O1 0.942732 0.100711 0.916711
O O2 0.900116 0.042219 0.703388
O O3 0.955195 0.678341 0.343377
O O4 0.067296 0.643009 0.474828
O O5 0.014813 0.625000 0.125000
O O6 0.875000 0.007318 0.375000
O O7 0.000000 0.000000 0.500000
#
# Coordination Sequence:
#
# PCOD9515804 Si02
#       4
#    16  32   8  32
#     4  10  22  45  70  86 126 191 231 254 332 430
#     4  10  22  40  65  91 125 175 231 266 322 415
#     4  12  22  34  64  98 124 158 218 296 320 358
#     4  11  24  40  64  95 131 170 220 281 338 392
#
# _framework density 20.338051
#
# number of rings (size 3 to 8) (size 9 to 14) (size 15 to 20)
#    0.000    1.455    1.818    2.727    2.545    8.727 
#    0.000    0.000    0.000    0.000    0.000    0.000 
#    0.000    0.000    0.000    0.000    0.000    0.000 
#
# Total GULP energy -122650.661421 kJ/mol
# GULP energy per Si atom -5575.030065 kJ/mol
# Density = 2.029176 g / cm^3
# Si number density = 20.338051 Si / 1000 Ang^3
#
#
#
# Elastic Constant Matrix: (Units=GPa)
#
#
# Indices 1 2 3 4 5 6 
#
# 1 177.4692 48.9507 88.8295 0.0000 0.0007 -0.0005
# 2 48.9507 67.2719 44.7387 0.0000 0.0001 0.0000
# 3 88.8295 44.7387 116.2715 0.0003 0.0010 -0.0012
# 4 0.0000 0.0000 0.0003 5.1294 -0.0002 0.0007
# 5 0.0007 0.0001 0.0010 -0.0002 66.3031 0.0007
# 6 -0.0005 0.0000 -0.0012 0.0007 0.0007 31.7982
#
#
#
# Elastic Compliance Matrix: (Units=1/GPa)
#
#
# Indices 1 2 3 4 5 6 
#
# 1 0.009502 -0.002804 -0.006180 0.000000 0.000000 0.000000
# 2 -0.002804 0.020804 -0.005863 0.000001 0.000000 0.000000
# 3 -0.006180 -0.005863 0.015578 -0.000001 0.000000 0.000000
# 4 0.000000 0.000001 -0.000001 0.194955 0.000001 -0.000004
# 5 0.000000 0.000000 0.000000 0.000001 0.015082 0.000000
# 6 0.000000 0.000000 0.000000 -0.000004 0.000000 0.031448
#
#
# Mechanical properties :
#
#
# Convention : Reuss Voigt Hill
#
# Bulk Modulus (GPa) = 61.76638 80.67225 71.21932
# Shear Modulus (GPa) = 15.50578 32.54570 24.02574
#
# Velocity S-wave (km/s) = 2.76416 4.00464 3.44076
# Velocity P-wave (km/s) = 6.37364 7.81886 7.13295
#
# Compressibility (1/GPa) = 0.01619004
#
# Stress axis : x y z
#
# Youngs Moduli (GPa) = 105.24624 48.06678 64.19269
#
# Poissons Ratio (x) = 0.13477 0.39672
# Poissons Ratio (y) = 0.29508 0.37637
# Poissons Ratio (z) = 0.65044 0.28182
#
# Static dielectric constant tensor:
#      x y z
#    x 1.772930 0.000000 0.000000 
#    y 0.000000 1.692570 0.000000 
#    z 0.000000 0.000000 1.795350 
# 
# From -- ./inp_files/7156.got.cif
#   From: 2010.05.17/outbox.cif.g08.bks.cpg/sg70_4_cif.got.tgz:7156.got - 2010.06.03 15:57:51.
