data_PCOD9515403
_publ_section_title
;
Structure prediction by ZEFSAII (Michael W. Deem and Ramdas Pophale) SiO2 
 PCOD9515403
Probable space group: F D D D
;
_chemical_formula_sum "Si O2"
_cell_formula_units_Z 240
_cell_length_a 21.021683
_cell_length_b 24.447785
_cell_length_c 20.720544
_cell_angle_alpha 90.000000
_cell_angle_beta 90.000000
_cell_angle_gamma 90.000000
_cell_volume 10648.983488
_symmetry_space_group_name_H-M "F D D D"
_symmetry_group_IT_number 70
_space_group.IT_coordinate_system_code '2'
_symmetry_cell_setting 'orthorhombic'
loop_
_space_group_symop_operation_xyz
x,y,z
1/4-x,1/4-y,z
x,1/4-y,1/4-z
1/4-x,y,1/4-z
-x,-y,-z
3/4+x,3/4+y,-z
-x,3/4+y,3/4+z
3/4+x,-y,3/4+z
x,1/2+y,1/2+z
1/4-x,3/4-y,1/2+z
x,3/4-y,3/4-z
1/4-x,1/2+y,3/4-z
-x,1/2-y,1/2-z
3/4+x,1/4+y,1/2-z
-x,1/4+y,1/4+z
3/4+x,1/2-y,1/4+z
1/2+x,y,1/2+z
3/4-x,1/4-y,1/2+z
1/2+x,1/4-y,3/4-z
3/4-x,y,3/4-z
1/2-x,-y,1/2-z
1/4+x,3/4+y,1/2-z
1/2-x,3/4+y,1/4+z
1/4+x,-y,1/4+z
1/2+x,1/2+y,z
3/4-x,3/4-y,z
1/2+x,3/4-y,1/4-z
3/4-x,1/2+y,1/4-z
1/2-x,1/2-y,-z
1/4+x,1/4+y,-z
1/2-x,1/4+y,3/4+z
1/4+x,1/2-y,3/4+z
loop_
_atom_site_type_symbol
_atom_site_label
_atom_site_fract_x
_atom_site_fract_y
_atom_site_fract_z
Si Si1 0.438372 0.892298 0.763691
Si Si2 0.324625 0.128262 0.291846
Si Si3 0.807133 0.380984 0.269776
Si Si4 0.026446 0.212612 0.118996
Si Si5 0.498561 0.968612 0.933610
Si Si6 0.137222 0.933519 0.411706
Si Si7 0.625000 0.217020 0.125000
Si Si8 0.552596 0.831049 0.077945
O O1 0.375000 0.875000 0.724743
O O2 0.474221 0.843022 0.800844
O O3 0.405762 0.931303 0.816902
O O4 0.491015 0.916175 0.716780
O O5 0.256237 0.108094 0.269083
O O6 0.346351 0.174271 0.238791
O O7 0.310402 0.129618 0.369183
O O8 0.383741 0.086800 0.285982
O O9 0.875000 0.375000 0.235989
O O10 0.807320 0.429012 0.322683
O O11 0.794696 0.323944 0.307002
O O12 0.050096 0.273730 0.114021
O O13 0.949290 0.211327 0.119697
O O14 0.569455 0.963918 0.905351
O O15 0.439323 0.996348 0.896781
O O16 0.500000 0.000000 0.000000
O O17 0.132329 0.875000 0.375000
#
# Coordination Sequence:
#
# PCOD9515403 Si02
#       8
#    32  32  32  32  32  32  16  32
#     4  10  21  42  66  91 130 173 215 265 331 392
#     4  10  23  42  62  94 126 178 209 265 349 404
#     4  10  21  41  65  90 127 164 218 274 321 395
#     4  10  21  38  65  96 124 167 218 272 331 392
#     4  11  23  39  65  98 127 167 223 282 328 394
#     4  11  20  43  70  92 128 171 231 277 332 407
#     4  10  23  44  70  94 128 180 224 266 336 397
#     4  11  24  40  65  91 140 169 214 271 343 412
#
# _framework density 22.537362999999999
#
# number of rings (size 3 to 8) (size 9 to 14) (size 15 to 20)
#    0.000    1.600    4.000    3.400    7.467    1.067 
#    2.400    0.000    0.000    0.000    0.000    0.000 
#    0.000    0.000    0.000    0.000    0.000    0.000 
#
# Total GULP energy -334400.288282 kJ/mol
# GULP energy per Si atom -5573.338138 kJ/mol
# Density = 2.248607 g / cm^3
# Si number density = 22.537363 Si / 1000 Ang^3
#
#
#
# Elastic Constant Matrix: (Units=GPa)
#
#
# Indices 1 2 3 4 5 6 
#
# 1 235.6827 21.5362 37.5049 0.0000 0.0000 0.0000
# 2 21.5362 61.3525 15.0955 0.0000 0.0000 0.0000
# 3 37.5049 15.0955 58.4588 0.0000 0.0000 0.0000
# 4 0.0000 0.0000 0.0000 21.7606 0.0000 0.0000
# 5 0.0000 0.0000 0.0000 0.0000 37.7533 0.0000
# 6 0.0000 0.0000 0.0000 0.0000 0.0000 10.4699
#
#
#
# Elastic Compliance Matrix: (Units=1/GPa)
#
#
# Indices 1 2 3 4 5 6 
#
# 1 0.004781 -0.000986 -0.002812 0.000000 0.000000 0.000000
# 2 -0.000986 0.017609 -0.003914 0.000000 0.000000 0.000000
# 3 -0.002812 -0.003914 0.019921 0.000000 0.000000 0.000000
# 4 0.000000 0.000000 0.000000 0.045955 0.000000 0.000000
# 5 0.000000 0.000000 0.000000 0.000000 0.026488 0.000000
# 6 0.000000 0.000000 0.000000 0.000000 0.000000 0.095512
#
#
# Mechanical properties :
#
#
# Convention : Reuss Voigt Hill
#
# Bulk Modulus (GPa) = 37.19598 55.97415 46.58506
# Shear Modulus (GPa) = 21.30818 32.75392 27.03105
#
# Velocity S-wave (km/s) = 3.07817 3.81637 3.46698
# Velocity P-wave (km/s) = 5.40125 6.65655 6.06148
#
# Compressibility (1/GPa) = 0.02688463
#
# Stress axis : x y z
#
# Youngs Moduli (GPa) = 209.17626 56.79072 50.19780
#
# Poissons Ratio (x) = 0.05600 0.14118
# Poissons Ratio (y) = 0.20628 0.19649
# Poissons Ratio (z) = 0.58830 0.22230
#
# Static dielectric constant tensor:
#      x y z
#    x 1.892570 0.000000 0.000000 
#    y 0.000000 1.858210 0.000000 
#    z 0.000000 0.000000 1.824680 
# 
# From -- ./inp_files/45186.got.cif
#   From: 2010.05.17/outbox.cif.g08.bks.cpg/sg70_23_cif.got.tgz:45186.got - 2010.06.03 15:57:51.
