data_PCOD9515247
_publ_section_title
;
Structure prediction by ZEFSAII (Michael W. Deem and Ramdas Pophale) SiO2 
 PCOD9515247
Probable space group: F D D D
;
_chemical_formula_sum "Si O2"
_cell_formula_units_Z 192
_cell_length_a 23.049577
_cell_length_b 18.157774
_cell_length_c 18.385345
_cell_angle_alpha 90.000000
_cell_angle_beta 90.000000
_cell_angle_gamma 90.000000
_cell_volume 7694.800241
_symmetry_space_group_name_H-M "F D D D"
_symmetry_group_IT_number 70
_space_group.IT_coordinate_system_code '2'
_symmetry_cell_setting 'orthorhombic'
loop_
_space_group_symop_operation_xyz
x,y,z
1/4-x,1/4-y,z
x,1/4-y,1/4-z
1/4-x,y,1/4-z
-x,-y,-z
3/4+x,3/4+y,-z
-x,3/4+y,3/4+z
3/4+x,-y,3/4+z
x,1/2+y,1/2+z
1/4-x,3/4-y,1/2+z
x,3/4-y,3/4-z
1/4-x,1/2+y,3/4-z
-x,1/2-y,1/2-z
3/4+x,1/4+y,1/2-z
-x,1/4+y,1/4+z
3/4+x,1/2-y,1/4+z
1/2+x,y,1/2+z
3/4-x,1/4-y,1/2+z
1/2+x,1/4-y,3/4-z
3/4-x,y,3/4-z
1/2-x,-y,1/2-z
1/4+x,3/4+y,1/2-z
1/2-x,3/4+y,1/4+z
1/4+x,-y,1/4+z
1/2+x,1/2+y,z
3/4-x,3/4-y,z
1/2+x,3/4-y,1/4-z
3/4-x,1/2+y,1/4-z
1/2-x,1/2-y,-z
1/4+x,1/4+y,-z
1/2-x,1/4+y,3/4+z
1/4+x,1/2-y,3/4+z
loop_
_atom_site_type_symbol
_atom_site_label
_atom_site_fract_x
_atom_site_fract_y
_atom_site_fract_z
Si Si1 0.604942 0.737213 0.996123
Si Si2 0.625000 0.625000 0.125000
Si Si3 0.165720 0.508984 0.008843
Si Si4 0.875000 0.375000 0.875000
Si Si5 0.420883 0.110066 0.942112
Si Si6 0.055801 0.292205 0.359923
Si Si7 0.000000 0.250000 0.250000
Si Si8 0.238126 0.091265 0.918795
O O1 0.602427 0.684384 0.064100
O O2 0.576154 0.815732 0.012116
O O3 0.669764 0.762919 0.969753
O O4 0.574675 0.693732 0.930240
O O5 0.159955 0.573851 0.067695
O O6 0.108137 0.458706 0.017306
O O7 0.219932 0.460640 0.033954
O O8 0.177356 0.513850 0.922806
O O9 0.375000 0.123674 0.875000
O O10 0.483521 0.090670 0.910546
O O11 0.077314 0.375000 0.375000
O O12 0.991211 0.295992 0.330865
O O13 0.996783 0.329241 0.202469
#
# Coordination Sequence:
#
# PCOD9515247 Si02
#       8
#    32   8  32   8  32  32  16  32
#     4  12  26  43  70 105 153 191 245 313 386 456
#     4  12  28  44  68 108 148 202 240 312 392 456
#     4  11  24  48  77 103 148 196 258 305 374 455
#     4  12  24  48  80 104 140 218 252 308 364 444
#     4  10  20  45  70  95 143 200 243 304 376 449
#     4  12  25  49  75 112 149 197 244 313 389 456
#     4  12  26  42  78 108 152 190 252 318 388 460
#     4  11  25  41  68 112 143 191 250 306 377 458
#
# _framework density 24.951916000000001
#
# number of rings (size 3 to 8) (size 9 to 14) (size 15 to 20)
#    0.000    0.667    6.667    2.000    4.667    2.000 
#    3.000    0.833    0.000    0.000    0.000    0.000 
#    0.000    0.000    0.000    0.000    0.000    0.000 
#
# Total GULP energy -267579.639527 kJ/mol
# GULP energy per Si atom -5574.575823 kJ/mol
# Density = 2.489512 g / cm^3
# Si number density = 24.951916 Si / 1000 Ang^3
#
#
#
# Elastic Constant Matrix: (Units=GPa)
#
#
# Indices 1 2 3 4 5 6 
#
# 1 84.8551 22.4020 40.6294 0.0000 0.0000 0.0000
# 2 22.4020 91.2676 47.0373 0.0000 0.0000 0.0000
# 3 40.6294 47.0373 159.9155 0.0000 0.0000 0.0000
# 4 0.0000 0.0000 0.0000 18.1239 0.0000 0.0000
# 5 0.0000 0.0000 0.0000 0.0000 33.6453 0.0000
# 6 0.0000 0.0000 0.0000 0.0000 0.0000 37.2287
#
#
#
# Elastic Compliance Matrix: (Units=1/GPa)
#
#
# Indices 1 2 3 4 5 6 
#
# 1 0.013676 -0.001846 -0.002932 0.000000 0.000000 0.000000
# 2 -0.001846 0.013164 -0.003403 0.000000 0.000000 0.000000
# 3 -0.002932 -0.003403 0.007999 0.000000 0.000000 0.000000
# 4 0.000000 0.000000 0.000000 0.055176 0.000000 0.000000
# 5 0.000000 0.000000 0.000000 0.000000 0.029722 0.000000
# 6 0.000000 0.000000 0.000000 0.000000 0.000000 0.026861
#
#
# Mechanical properties :
#
#
# Convention : Reuss Voigt Hill
#
# Bulk Modulus (GPa) = 54.11959 61.79730 57.95844
# Shear Modulus (GPa) = 29.56529 32.86423 31.21476
#
# Velocity S-wave (km/s) = 3.44596 3.63313 3.54078
# Velocity P-wave (km/s) = 6.12939 6.51305 6.32413
#
# Compressibility (1/GPa) = 0.01847760
#
# Stress axis : x y z
#
# Youngs Moduli (GPa) = 73.12177 75.96660 125.01438
#
# Poissons Ratio (x) = 0.14023 0.36650
# Poissons Ratio (y) = 0.13497 0.42542
# Poissons Ratio (z) = 0.21437 0.25851
#
# Static dielectric constant tensor:
#      x y z
#    x 2.296900 0.000000 0.000000 
#    y 0.000000 2.010950 0.000000 
#    z 0.000000 0.000000 2.041060 
# 
# From -- ./inp_files/39780.got.cif
#   From: 2010.05.17/outbox.cif.g08.bks.cpg/sg70_20_cif.got.tgz:39780.got - 2010.06.03 15:57:51.
