data_PCOD9515161
_publ_section_title
;
Structure prediction by ZEFSAII (Michael W. Deem and Ramdas Pophale) SiO2 
 PCOD9515161
Probable space group: F D D D
;
_chemical_formula_sum "Si O2"
_cell_formula_units_Z 160
_cell_length_a 16.696658
_cell_length_b 18.907240
_cell_length_c 20.523367
_cell_angle_alpha 90.000000
_cell_angle_beta 90.000000
_cell_angle_gamma 90.000000
_cell_volume 6478.974935
_symmetry_space_group_name_H-M "F D D D"
_symmetry_group_IT_number 70
_space_group.IT_coordinate_system_code '2'
_symmetry_cell_setting 'orthorhombic'
loop_
_space_group_symop_operation_xyz
x,y,z
1/4-x,1/4-y,z
x,1/4-y,1/4-z
1/4-x,y,1/4-z
-x,-y,-z
3/4+x,3/4+y,-z
-x,3/4+y,3/4+z
3/4+x,-y,3/4+z
x,1/2+y,1/2+z
1/4-x,3/4-y,1/2+z
x,3/4-y,3/4-z
1/4-x,1/2+y,3/4-z
-x,1/2-y,1/2-z
3/4+x,1/4+y,1/2-z
-x,1/4+y,1/4+z
3/4+x,1/2-y,1/4+z
1/2+x,y,1/2+z
3/4-x,1/4-y,1/2+z
1/2+x,1/4-y,3/4-z
3/4-x,y,3/4-z
1/2-x,-y,1/2-z
1/4+x,3/4+y,1/2-z
1/2-x,3/4+y,1/4+z
1/4+x,-y,1/4+z
1/2+x,1/2+y,z
3/4-x,3/4-y,z
1/2+x,3/4-y,1/4-z
3/4-x,1/2+y,1/4-z
1/2-x,1/2-y,-z
1/4+x,1/4+y,-z
1/2-x,1/4+y,3/4+z
1/4+x,1/2-y,3/4+z
loop_
_atom_site_type_symbol
_atom_site_label
_atom_site_fract_x
_atom_site_fract_y
_atom_site_fract_z
Si Si1 0.924105 0.734482 0.936044
Si Si2 0.326186 0.698319 0.659784
Si Si3 0.632748 0.050073 0.441053
Si Si4 0.990149 0.582518 0.921391
Si Si5 0.266146 0.321512 0.434679
O O1 0.875000 0.765646 0.875000
O O2 0.004167 0.778951 0.955757
O O3 0.940070 0.653283 0.919051
O O4 0.880621 0.739439 0.004940
O O5 0.306589 0.625000 0.625000
O O6 0.322349 0.765731 0.610960
O O7 0.418363 0.689865 0.682769
O O8 0.625000 0.125000 0.476542
O O9 0.705263 0.070262 0.391867
O O10 0.947114 0.506400 0.926451
O O11 0.035602 0.593085 0.991334
O O12 0.283536 0.375000 0.375000
#
# Coordination Sequence:
#
# PCOD9515161 Si02
#       5
#    32  32  32  32  32
#     4  12  27  40  64  97 134 184 237 274 338 420
#     4  10  22  42  64  94 129 175 216 279 341 403
#     4  11  24  44  67  94 137 180 223 289 352 409
#     4  10  20  41  67  98 134 178 225 286 346 413
#     4   9  19  39  72 101 136 173 223 287 355 412
#
# _framework density 24.695264000000002
#
# number of rings (size 3 to 8) (size 9 to 14) (size 15 to 20)
#    0.000    1.600    2.000    3.600    2.800    4.000 
#    0.000    0.000    0.000    0.000    0.000    0.000 
#    0.000    0.000    0.000    0.000    0.000    0.000 
#
# Total GULP energy -222823.358503 kJ/mol
# GULP energy per Si atom -5570.583963 kJ/mol
# Density = 2.463906 g / cm^3
# Si number density = 24.695264 Si / 1000 Ang^3
#
#
#
# Elastic Constant Matrix: (Units=GPa)
#
#
# Indices 1 2 3 4 5 6 
#
# 1 41.2663 17.5197 21.5229 0.0000 0.0000 0.0000
# 2 17.5197 125.5455 31.1390 0.0000 0.0000 0.0000
# 3 21.5229 31.1390 150.0992 0.0000 0.0000 0.0000
# 4 0.0000 0.0000 0.0000 45.8824 0.0000 0.0000
# 5 0.0000 0.0000 0.0000 0.0000 10.2839 0.0000
# 6 0.0000 0.0000 0.0000 0.0000 0.0000 14.4637
#
#
#
# Elastic Compliance Matrix: (Units=1/GPa)
#
#
# Indices 1 2 3 4 5 6 
#
# 1 0.027212 -0.002983 -0.003283 0.000000 0.000000 0.000000
# 2 -0.002983 0.008724 -0.001382 0.000000 0.000000 0.000000
# 3 -0.003283 -0.001382 0.007420 0.000000 0.000000 0.000000
# 4 0.000000 0.000000 0.000000 0.021795 0.000000 0.000000
# 5 0.000000 0.000000 0.000000 0.000000 0.097240 0.000000
# 6 0.000000 0.000000 0.000000 0.000000 0.000000 0.069139
#
#
# Mechanical properties :
#
#
# Convention : Reuss Voigt Hill
#
# Bulk Modulus (GPa) = 35.63896 50.80824 43.22360
# Shear Modulus (GPa) = 19.51764 30.57462 25.04613
#
# Velocity S-wave (km/s) = 2.81435 3.52245 3.18812
# Velocity P-wave (km/s) = 5.00236 6.09609 5.57610
#
# Compressibility (1/GPa) = 0.02805918
#
# Stress axis : x y z
#
# Youngs Moduli (GPa) = 36.74899 114.62186 134.77520
#
# Poissons Ratio (x) = 0.34192 0.44248
# Poissons Ratio (y) = 0.10962 0.18628
# Poissons Ratio (z) = 0.12065 0.15843
#
# Static dielectric constant tensor:
#      x y z
#    x 2.072060 0.000000 0.000000 
#    y 0.000000 2.006470 0.000000 
#    z 0.000000 0.000000 1.954950 
# 
# From -- ./inp_files/43645.got.cif
#   From: 2010.05.17/outbox.cif.g08.bks.cpg/sg70_22_cif.got.tgz:43645.got - 2010.06.03 15:57:51.
