data_PCOD9515211
_publ_section_title
;
Structure prediction by ZEFSAII (Michael W. Deem and Ramdas Pophale) SiO2 
 PCOD9515211
Probable space group: F D D D
;
_chemical_formula_sum "Si O2"
_cell_formula_units_Z 96
_cell_length_a 19.746346
_cell_length_b 23.070302
_cell_length_c 7.200670
_cell_angle_alpha 90.000000
_cell_angle_beta 90.000000
_cell_angle_gamma 90.000000
_cell_volume 3280.295214
_symmetry_space_group_name_H-M "F D D D"
_symmetry_group_IT_number 70
_space_group.IT_coordinate_system_code '2'
_symmetry_cell_setting 'orthorhombic'
loop_
_space_group_symop_operation_xyz
x,y,z
1/4-x,1/4-y,z
x,1/4-y,1/4-z
1/4-x,y,1/4-z
-x,-y,-z
3/4+x,3/4+y,-z
-x,3/4+y,3/4+z
3/4+x,-y,3/4+z
x,1/2+y,1/2+z
1/4-x,3/4-y,1/2+z
x,3/4-y,3/4-z
1/4-x,1/2+y,3/4-z
-x,1/2-y,1/2-z
3/4+x,1/4+y,1/2-z
-x,1/4+y,1/4+z
3/4+x,1/2-y,1/4+z
1/2+x,y,1/2+z
3/4-x,1/4-y,1/2+z
1/2+x,1/4-y,3/4-z
3/4-x,y,3/4-z
1/2-x,-y,1/2-z
1/4+x,3/4+y,1/2-z
1/2-x,3/4+y,1/4+z
1/4+x,-y,1/4+z
1/2+x,1/2+y,z
3/4-x,3/4-y,z
1/2+x,3/4-y,1/4-z
3/4-x,1/2+y,1/4-z
1/2-x,1/2-y,-z
1/4+x,1/4+y,-z
1/2-x,1/4+y,3/4+z
1/4+x,1/2-y,3/4+z
loop_
_atom_site_type_symbol
_atom_site_label
_atom_site_fract_x
_atom_site_fract_y
_atom_site_fract_z
Si Si1 0.789893 0.719638 0.683045
Si Si2 0.520340 0.364179 0.089229
Si Si3 0.653714 0.054964 0.918125
O O1 0.724056 0.807207 0.525490
O O2 0.809926 0.662051 0.793256
O O3 0.721413 0.734519 0.798702
O O4 0.847515 0.767644 0.685852
O O5 0.441576 0.386709 0.100191
O O6 0.538797 0.375000 0.875000
O O7 0.625000 0.062931 0.125000
#
# Coordination Sequence:
#
# PCOD9515211 Si02
#       3
#    32  32  32
#     4   9  21  42  75 111 168 215 279 356 428 521
#     4   9  21  44  75 111 161 220 277 354 431 517
#     4  10  20  42  78 113 161 226 272 353 437 516
#
# _framework density 29.265657999999998
#
# number of rings (size 3 to 8) (size 9 to 14) (size 15 to 20)
#    2.000    0.667    0.000    1.000    0.000    2.667 
#    6.000    5.000   14.667    4.000    0.000    0.000 
#    0.000    0.000    0.000    0.000    0.000    0.000 
#
# Total GULP energy -133961.394488 kJ/mol
# GULP energy per Si atom -5581.724770 kJ/mol
# Density = 2.919905 g / cm^3
# Si number density = 29.265658 Si / 1000 Ang^3
#
#
#
# Elastic Constant Matrix: (Units=GPa)
#
#
# Indices 1 2 3 4 5 6 
#
# 1 187.6623 67.9763 33.4300 0.0017 -0.0030 -0.0007
# 2 67.9763 164.4269 33.8514 0.0015 -0.0018 -0.0004
# 3 33.4300 33.8514 194.4876 0.0062 -0.0085 -0.0013
# 4 0.0017 0.0015 0.0062 23.0554 -0.0025 -0.0009
# 5 -0.0030 -0.0018 -0.0085 -0.0025 -30.1739 0.0010
# 6 -0.0007 -0.0004 -0.0013 -0.0009 0.0010 51.7318
#
#
#
# Elastic Compliance Matrix: (Units=1/GPa)
#
#
# Indices 1 2 3 4 5 6 
#
# 1 0.006347 -0.002489 -0.000658 0.000000 0.000000 0.000000
# 2 -0.002489 0.007283 -0.000840 0.000000 0.000000 0.000000
# 3 -0.000658 -0.000840 0.005401 -0.000001 -0.000001 0.000000
# 4 0.000000 0.000000 -0.000001 0.043374 -0.000004 0.000001
# 5 0.000000 0.000000 -0.000001 -0.000004 -0.033141 0.000001
# 6 0.000000 0.000000 0.000000 0.000001 0.000001 0.019330
#
#
# Mechanical properties :
#
#
# Convention : Reuss Voigt Hill
#
# Bulk Modulus (GPa) = 90.42488 90.78802 90.60645
# Shear Modulus (GPa) = 82.98177 36.34392 59.66285
#
# Velocity S-wave (km/s) = 5.33069 3.52783 4.52006
# Velocity P-wave (km/s) = 8.29779 6.90532 7.63337
#
# Compressibility (1/GPa) = 0.01105890
#
# Stress axis : x y z
#
# Youngs Moduli (GPa) = 157.54561 137.29671 185.15111
#
# Poissons Ratio (x) = 0.34168 0.12181
# Poissons Ratio (y) = 0.39208 0.15552
# Poissons Ratio (z) = 0.10365 0.11532
#
# Static dielectric constant tensor:
#      x y z
#    x 2.483350 0.000000 0.000000 
#    y 0.000000 2.411350 0.000000 
#    z 0.000000 0.000000 2.382800 
# 
# From -- ./inp_files/9298.got.cif
#   From: 2010.05.17/outbox.cif.g08.bks.cpg/sg70_5_cif.got.tgz:9298.got - 2010.06.03 15:57:51.
