data_PCOD9515464
_publ_section_title
;
Structure prediction by ZEFSAII (Michael W. Deem and Ramdas Pophale) SiO2 
 PCOD9515464
Probable space group: F D D D
;
_chemical_formula_sum "Si O2"
_cell_formula_units_Z 192
_cell_length_a 17.680552
_cell_length_b 17.698251
_cell_length_c 29.400344
_cell_angle_alpha 90.000000
_cell_angle_beta 90.000000
_cell_angle_gamma 90.000000
_cell_volume 9199.804148
_symmetry_space_group_name_H-M "F D D D"
_symmetry_group_IT_number 70
_space_group.IT_coordinate_system_code '2'
_symmetry_cell_setting 'orthorhombic'
loop_
_space_group_symop_operation_xyz
x,y,z
1/4-x,1/4-y,z
x,1/4-y,1/4-z
1/4-x,y,1/4-z
-x,-y,-z
3/4+x,3/4+y,-z
-x,3/4+y,3/4+z
3/4+x,-y,3/4+z
x,1/2+y,1/2+z
1/4-x,3/4-y,1/2+z
x,3/4-y,3/4-z
1/4-x,1/2+y,3/4-z
-x,1/2-y,1/2-z
3/4+x,1/4+y,1/2-z
-x,1/4+y,1/4+z
3/4+x,1/2-y,1/4+z
1/2+x,y,1/2+z
3/4-x,1/4-y,1/2+z
1/2+x,1/4-y,3/4-z
3/4-x,y,3/4-z
1/2-x,-y,1/2-z
1/4+x,3/4+y,1/2-z
1/2-x,3/4+y,1/4+z
1/4+x,-y,1/4+z
1/2+x,1/2+y,z
3/4-x,3/4-y,z
1/2+x,3/4-y,1/4-z
3/4-x,1/2+y,1/4-z
1/2-x,1/2-y,-z
1/4+x,1/4+y,-z
1/2-x,1/4+y,3/4+z
1/4+x,1/2-y,3/4+z
loop_
_atom_site_type_symbol
_atom_site_label
_atom_site_fract_x
_atom_site_fract_y
_atom_site_fract_z
Si Si1 0.247881 0.604059 0.314924
Si Si2 0.610320 0.388471 0.005145
Si Si3 0.641756 0.000256 0.425116
Si Si4 0.505850 0.142875 0.834820
Si Si5 0.875000 0.375000 0.804234
Si Si6 0.989588 0.625000 0.125000
Si Si7 0.639338 0.017927 0.970276
O O1 0.314664 0.606809 0.279177
O O2 0.274727 0.612524 0.366726
O O3 0.197528 0.678354 0.305668
O O4 0.191487 0.534917 0.303404
O O5 0.554603 0.409719 0.046004
O O6 0.627485 0.457199 0.972070
O O7 0.585088 0.317877 0.973969
O O8 0.684969 0.942593 0.391509
O O9 0.562970 0.036820 0.408143
O O10 0.695487 0.071877 0.432602
O O11 0.799817 0.388359 0.834031
O O12 0.863698 0.303809 0.770957
#
# Coordination Sequence:
#
# PCOD9515464 Si02
#       7
#    32  32  32  32  16  16  32
#     4  10  22  40  62  93 128 165 200 258 322 389
#     4  12  23  39  66  91 120 169 216 256 313 378
#     4  11  25  41  63  89 123 168 211 267 308 376
#     4  11  25  45  61  88 126 167 215 265 315 368
#     4   9  20  38  58  98 142 156 192 256 326 405
#     4  11  22  36  64  98 125 166 208 256 323 388
#     4  10  21  40  61  97 133 163 200 255 326 389
#
# _framework density 20.870009
#
# number of rings (size 3 to 8) (size 9 to 14) (size 15 to 20)
#    0.000    1.500    0.000    7.500    7.000    0.000 
#    0.000    0.000    0.000    0.000    0.000    0.000 
#    0.000    0.000    0.000    0.000    0.000    0.000 
#
# Total GULP energy -268294.363269 kJ/mol
# GULP energy per Si atom -5589.465901 kJ/mol
# Density = 2.082251 g / cm^3
# Si number density = 20.870009 Si / 1000 Ang^3
#
#
#
# Elastic Constant Matrix: (Units=GPa)
#
#
# Indices 1 2 3 4 5 6 
#
# 1 72.8284 19.6148 22.2440 0.0000 0.0000 0.0000
# 2 19.6148 74.9446 33.6323 0.0000 0.0000 0.0000
# 3 22.2440 33.6323 127.5663 0.0000 0.0000 0.0000
# 4 0.0000 0.0000 0.0000 27.2965 0.0000 0.0000
# 5 0.0000 0.0000 0.0000 0.0000 27.7884 0.0000
# 6 0.0000 0.0000 0.0000 0.0000 0.0000 17.8159
#
#
#
# Elastic Compliance Matrix: (Units=1/GPa)
#
#
# Indices 1 2 3 4 5 6 
#
# 1 0.015131 -0.003149 -0.001808 0.000000 0.000000 0.000000
# 2 -0.003149 0.015789 -0.003614 0.000000 0.000000 0.000000
# 3 -0.001808 -0.003614 0.009107 0.000000 0.000000 0.000000
# 4 0.000000 0.000000 0.000000 0.036635 0.000000 0.000000
# 5 0.000000 0.000000 0.000000 0.000000 0.035986 0.000000
# 6 0.000000 0.000000 0.000000 0.000000 0.000000 0.056130
#
#
# Mechanical properties :
#
#
# Convention : Reuss Voigt Hill
#
# Bulk Modulus (GPa) = 43.69492 47.36908 45.53200
# Shear Modulus (GPa) = 25.83337 27.90336 26.86836
#
# Velocity S-wave (km/s) = 3.52209 3.66048 3.59195
# Velocity P-wave (km/s) = 6.12554 6.37275 6.25037
#
# Compressibility (1/GPa) = 0.02288595
#
# Stress axis : x y z
#
# Youngs Moduli (GPa) = 66.08829 63.33547 109.80441
#
# Poissons Ratio (x) = 0.19943 0.19856
# Poissons Ratio (y) = 0.20809 0.39679
# Poissons Ratio (z) = 0.11951 0.22887
#
# Static dielectric constant tensor:
#      x y z
#    x 1.761400 0.000000 0.000000 
#    y 0.000000 1.763770 0.000000 
#    z 0.000000 0.000000 1.764510 
# 
# From -- ./inp_files/66724.got.cif
#   From: 2010.05.17/outbox.cif.g08.bks.cpg/sg70_34_cif.got.tgz:66724.got - 2010.06.03 15:57:51.
