data_PCOD9515489
_publ_section_title
;
Structure prediction by ZEFSAII (Michael W. Deem and Ramdas Pophale) SiO2 
 PCOD9515489
Probable space group: F D D D
;
_chemical_formula_sum "Si O2"
_cell_formula_units_Z 136
_cell_length_a 20.049679
_cell_length_b 16.771594
_cell_length_c 21.214912
_cell_angle_alpha 90.000000
_cell_angle_beta 90.000000
_cell_angle_gamma 90.000000
_cell_volume 7133.833996
_symmetry_space_group_name_H-M "F D D D"
_symmetry_group_IT_number 70
_space_group.IT_coordinate_system_code '2'
_symmetry_cell_setting 'orthorhombic'
loop_
_space_group_symop_operation_xyz
x,y,z
1/4-x,1/4-y,z
x,1/4-y,1/4-z
1/4-x,y,1/4-z
-x,-y,-z
3/4+x,3/4+y,-z
-x,3/4+y,3/4+z
3/4+x,-y,3/4+z
x,1/2+y,1/2+z
1/4-x,3/4-y,1/2+z
x,3/4-y,3/4-z
1/4-x,1/2+y,3/4-z
-x,1/2-y,1/2-z
3/4+x,1/4+y,1/2-z
-x,1/4+y,1/4+z
3/4+x,1/2-y,1/4+z
1/2+x,y,1/2+z
3/4-x,1/4-y,1/2+z
1/2+x,1/4-y,3/4-z
3/4-x,y,3/4-z
1/2-x,-y,1/2-z
1/4+x,3/4+y,1/2-z
1/2-x,3/4+y,1/4+z
1/4+x,-y,1/4+z
1/2+x,1/2+y,z
3/4-x,3/4-y,z
1/2+x,3/4-y,1/4-z
3/4-x,1/2+y,1/4-z
1/2-x,1/2-y,-z
1/4+x,1/4+y,-z
1/2-x,1/4+y,3/4+z
1/4+x,1/2-y,3/4+z
loop_
_atom_site_type_symbol
_atom_site_label
_atom_site_fract_x
_atom_site_fract_y
_atom_site_fract_z
Si Si1 0.415129 0.181796 0.437771
Si Si2 0.806855 0.546847 0.711526
Si Si3 0.805434 0.517303 0.565704
Si Si4 0.573517 0.749796 0.221417
Si Si5 0.875000 0.875000 0.875000
O O1 0.375000 0.207912 0.375000
O O2 0.373582 0.210320 0.497897
O O3 0.489539 0.214808 0.442614
O O4 0.415879 0.086132 0.440085
O O5 0.750000 0.500000 0.750000
O O6 0.818318 0.516987 0.640608
O O7 0.790552 0.641194 0.705005
O O8 0.868819 0.490041 0.524491
O O9 0.500000 0.750000 0.250000
O O10 0.581451 0.681328 0.169757
#
# Coordination Sequence:
#
# PCOD9515489 Si02
#       5
#    32  32  32  32   8
#     4  11  21  41  65  91 132 167 213 277 321 387
#     4  10  21  40  64  94 132 167 214 267 324 390
#     4  10  23  41  63  97 128 169 217 263 334 382
#     4  11  25  43  66  94 130 173 221 274 324 402
#     4  12  24  44  68 100 124 174 228 260 352 392
#
# _framework density 19.064083
#
# number of rings (size 3 to 8) (size 9 to 14) (size 15 to 20)
#    0.000    1.412    3.529    1.412    0.000    6.588 
#    0.000    2.353    0.000    0.000    0.000    0.000 
#    0.000    0.000    0.000    0.000    0.000    0.000 
#
# Total GULP energy -189941.374574 kJ/mol
# GULP energy per Si atom -5586.511017 kJ/mol
# Density = 1.902069 g / cm^3
# Si number density = 19.064083 Si / 1000 Ang^3
#
#
#
# Elastic Constant Matrix: (Units=GPa)
#
#
# Indices 1 2 3 4 5 6 
#
# 1 174.4050 68.3725 99.3860 0.0000 0.0000 0.0000
# 2 68.3725 65.6099 76.9742 0.0000 0.0000 0.0000
# 3 99.3860 76.9742 165.0322 0.0000 0.0000 0.0000
# 4 0.0000 0.0000 0.0000 32.2139 0.0000 0.0000
# 5 0.0000 0.0000 0.0000 0.0000 29.2016 0.0000
# 6 0.0000 0.0000 0.0000 0.0000 0.0000 23.0108
#
#
#
# Elastic Compliance Matrix: (Units=1/GPa)
#
#
# Indices 1 2 3 4 5 6 
#
# 1 0.010180 -0.007544 -0.002612 0.000000 0.000000 0.000000
# 2 -0.007544 0.039253 -0.013765 0.000000 0.000000 0.000000
# 3 -0.002612 -0.013765 0.014052 0.000000 0.000000 0.000000
# 4 0.000000 0.000000 0.000000 0.031043 0.000000 0.000000
# 5 0.000000 0.000000 0.000000 0.000000 0.034245 0.000000
# 6 0.000000 0.000000 0.000000 0.000000 0.000000 0.043458
#
#
# Mechanical properties :
#
#
# Convention : Reuss Voigt Hill
#
# Bulk Modulus (GPa) = 63.92568 99.39027 81.65798
# Shear Modulus (GPa) = 22.19404 27.57288 24.88346
#
# Velocity S-wave (km/s) = 3.41571 3.80719 3.61675
# Velocity P-wave (km/s) = 7.01148 8.46016 7.76966
#
# Compressibility (1/GPa) = 0.01564317
#
# Stress axis : x y z
#
# Youngs Moduli (GPa) = 98.23533 25.47594 71.16245
#
# Poissons Ratio (x) = 0.19220 0.18585
# Poissons Ratio (y) = 0.74112 0.97954
# Poissons Ratio (z) = 0.25655 0.35067
#
# Static dielectric constant tensor:
#      x y z
#    x 1.346070 0.000000 0.000000 
#    y 0.000000 1.673980 0.000000 
#    z 0.000000 0.000000 1.691700 
# 
# From -- ./inp_files/27437.got.cif
#   From: 2010.05.17/outbox.cif.g08.bks.cpg/sg70_14_cif.got.tgz:27437.got - 2010.06.03 15:57:51.
