data_PCOD9515325
_publ_section_title
;
Structure prediction by ZEFSAII (Michael W. Deem and Ramdas Pophale) SiO2 
 PCOD9515325
Probable space group: F D D D
;
_chemical_formula_sum "Si O2"
_cell_formula_units_Z 144
_cell_length_a 21.833708
_cell_length_b 19.948056
_cell_length_c 15.221426
_cell_angle_alpha 90.000000
_cell_angle_beta 90.000000
_cell_angle_gamma 90.000000
_cell_volume 6629.540335
_symmetry_space_group_name_H-M "F D D D"
_symmetry_group_IT_number 70
_space_group.IT_coordinate_system_code '2'
_symmetry_cell_setting 'orthorhombic'
loop_
_space_group_symop_operation_xyz
x,y,z
1/4-x,1/4-y,z
x,1/4-y,1/4-z
1/4-x,y,1/4-z
-x,-y,-z
3/4+x,3/4+y,-z
-x,3/4+y,3/4+z
3/4+x,-y,3/4+z
x,1/2+y,1/2+z
1/4-x,3/4-y,1/2+z
x,3/4-y,3/4-z
1/4-x,1/2+y,3/4-z
-x,1/2-y,1/2-z
3/4+x,1/4+y,1/2-z
-x,1/4+y,1/4+z
3/4+x,1/2-y,1/4+z
1/2+x,y,1/2+z
3/4-x,1/4-y,1/2+z
1/2+x,1/4-y,3/4-z
3/4-x,y,3/4-z
1/2-x,-y,1/2-z
1/4+x,3/4+y,1/2-z
1/2-x,3/4+y,1/4+z
1/4+x,-y,1/4+z
1/2+x,1/2+y,z
3/4-x,3/4-y,z
1/2+x,3/4-y,1/4-z
3/4-x,1/2+y,1/4-z
1/2-x,1/2-y,-z
1/4+x,1/4+y,-z
1/2-x,1/4+y,3/4+z
1/4+x,1/2-y,3/4+z
loop_
_atom_site_type_symbol
_atom_site_label
_atom_site_fract_x
_atom_site_fract_y
_atom_site_fract_z
Si Si1 0.251691 0.815808 0.057766
Si Si2 0.625000 0.278779 0.125000
Si Si3 0.443234 0.800777 0.503544
Si Si4 0.552955 0.545619 0.778853
Si Si5 0.809720 0.295204 0.515571
O O1 0.182250 0.823534 0.093329
O O2 0.293261 0.800339 0.142060
O O3 0.277565 0.880301 0.007475
O O4 0.250000 0.750000 0.000000
O O5 0.650286 0.233048 0.206017
O O6 0.496300 0.755354 0.465768
O O7 0.450193 0.879262 0.480718
O O8 0.376069 0.773850 0.479738
O O9 0.572989 0.550493 0.879896
O O10 0.750000 0.250000 0.500000
#
# Coordination Sequence:
#
# PCOD9515325 Si02
#       5
#    32  16  32  32  32
#     4  10  21  37  58  87 121 160 204 254 310 372
#     4  10  22  39  62  90 122 163 208 258 316 377
#     4   9  21  38  56  86 118 154 204 249 299 364
#     4  10  22  39  60  86 119 157 200 252 307 367
#     4  10  21  39  61  83 119 161 197 250 306 359
#
# _framework density 21.720963000000001
#
# number of rings (size 3 to 8) (size 9 to 14) (size 15 to 20)
#    0.000    2.222    0.000    1.333    0.000   14.222 
#    0.000    4.444    0.000    0.000    0.000    0.000 
#    0.000    0.000    0.000    0.000    0.000    0.000 
#
# Total GULP energy -200981.548448 kJ/mol
# GULP energy per Si atom -5582.820790 kJ/mol
# Density = 2.167153 g / cm^3
# Si number density = 21.720963 Si / 1000 Ang^3
#
#
#
# Elastic Constant Matrix: (Units=GPa)
#
#
# Indices 1 2 3 4 5 6 
#
# 1 168.8804 42.9436 20.5055 0.0000 0.0000 0.0000
# 2 42.9436 56.9549 13.4086 0.0000 0.0000 0.0000
# 3 20.5055 13.4086 85.2753 0.0000 0.0000 0.0000
# 4 0.0000 0.0000 0.0000 25.5571 0.0000 0.0000
# 5 0.0000 0.0000 0.0000 0.0000 19.5957 0.0000
# 6 0.0000 0.0000 0.0000 0.0000 0.0000 31.2870
#
#
#
# Elastic Compliance Matrix: (Units=1/GPa)
#
#
# Indices 1 2 3 4 5 6 
#
# 1 0.007397 -0.005357 -0.000936 0.000000 0.000000 0.000000
# 2 -0.005357 0.022112 -0.002189 0.000000 0.000000 0.000000
# 3 -0.000936 -0.002189 0.012296 0.000000 0.000000 0.000000
# 4 0.000000 0.000000 0.000000 0.039128 0.000000 0.000000
# 5 0.000000 0.000000 0.000000 0.000000 0.051032 0.000000
# 6 0.000000 0.000000 0.000000 0.000000 0.000000 0.031962
#
#
# Mechanical properties :
#
#
# Convention : Reuss Voigt Hill
#
# Bulk Modulus (GPa) = 40.25581 51.64733 45.95157
# Shear Modulus (GPa) = 26.43094 30.90480 28.66787
#
# Velocity S-wave (km/s) = 3.49211 3.77611 3.63688
# Velocity P-wave (km/s) = 5.90196 6.54532 6.23195
#
# Compressibility (1/GPa) = 0.02484114
#
# Stress axis : x y z
#
# Youngs Moduli (GPa) = 135.18514 45.22389 81.32686
#
# Poissons Ratio (x) = 0.24227 0.07616
# Poissons Ratio (y) = 0.72419 0.17800
# Poissons Ratio (z) = 0.12659 0.09898
#
# Static dielectric constant tensor:
#      x y z
#    x 1.826100 0.000000 0.000000 
#    y 0.000000 1.764660 0.000000 
#    z 0.000000 0.000000 1.788890 
# 
# From -- ./inp_files/34934.got.cif
#   From: 2010.05.17/outbox.cif.g08.bks.cpg/sg70_18_cif.got.tgz:34934.got - 2010.06.03 15:57:51.
