data_PCOD9515202
_publ_section_title
;
Structure prediction by ZEFSAII (Michael W. Deem and Ramdas Pophale) SiO2 
 PCOD9515202
Probable space group: F D D D
;
_chemical_formula_sum "Si O2"
_cell_formula_units_Z 136
_cell_length_a 22.026649
_cell_length_b 9.356592
_cell_length_c 30.040548
_cell_angle_alpha 90.000000
_cell_angle_beta 90.000000
_cell_angle_gamma 90.000000
_cell_volume 6191.187749
_symmetry_space_group_name_H-M "F D D D"
_symmetry_group_IT_number 70
_space_group.IT_coordinate_system_code '2'
_symmetry_cell_setting 'orthorhombic'
loop_
_space_group_symop_operation_xyz
x,y,z
1/4-x,1/4-y,z
x,1/4-y,1/4-z
1/4-x,y,1/4-z
-x,-y,-z
3/4+x,3/4+y,-z
-x,3/4+y,3/4+z
3/4+x,-y,3/4+z
x,1/2+y,1/2+z
1/4-x,3/4-y,1/2+z
x,3/4-y,3/4-z
1/4-x,1/2+y,3/4-z
-x,1/2-y,1/2-z
3/4+x,1/4+y,1/2-z
-x,1/4+y,1/4+z
3/4+x,1/2-y,1/4+z
1/2+x,y,1/2+z
3/4-x,1/4-y,1/2+z
1/2+x,1/4-y,3/4-z
3/4-x,y,3/4-z
1/2-x,-y,1/2-z
1/4+x,3/4+y,1/2-z
1/2-x,3/4+y,1/4+z
1/4+x,-y,1/4+z
1/2+x,1/2+y,z
3/4-x,3/4-y,z
1/2+x,3/4-y,1/4-z
3/4-x,1/2+y,1/4-z
1/2-x,1/2-y,-z
1/4+x,1/4+y,-z
1/2-x,1/4+y,3/4+z
1/4+x,1/2-y,3/4+z
loop_
_atom_site_type_symbol
_atom_site_label
_atom_site_fract_x
_atom_site_fract_y
_atom_site_fract_z
Si Si1 0.535243 0.446407 0.279772
Si Si2 0.765578 0.378851 0.060301
Si Si3 0.125000 0.125000 0.125000
Si Si4 0.597629 0.384038 0.924859
Si Si5 0.978025 0.070905 0.910261
O O1 0.526734 0.450847 0.227044
O O2 0.524782 0.283413 0.295558
O O3 0.604477 0.465947 0.294944
O O4 0.487615 0.550719 0.304729
O O5 0.825800 0.477254 0.060551
O O6 0.739198 0.376744 0.109802
O O7 0.082489 0.226327 0.155753
O O8 0.624745 0.375000 0.875000
O O9 0.534708 0.468340 0.920797
#
# Coordination Sequence:
#
# PCOD9515202 Si02
#       5
#    32  32   8  32  32
#     4  11  23  38  72 106 137 176 236 289 360 436
#     4  10  22  42  62 108 140 173 226 291 363 421
#     4  12  24  48  66  92 152 188 246 302 360 444
#     4  10  20  42  69  98 135 179 233 288 346 420
#     4  11  23  45  67  93 135 195 230 288 359 419
#
# _framework density 21.966707
#
# number of rings (size 3 to 8) (size 9 to 14) (size 15 to 20)
#    0.000    1.412    3.529    3.529    0.000    6.588 
#    4.235    4.706    0.000    0.000    0.000    0.000 
#    0.000    0.000    0.000    0.000    0.000    0.000 
#
# Total GULP energy -189933.854864 kJ/mol
# GULP energy per Si atom -5586.289849 kJ/mol
# Density = 2.191671 g / cm^3
# Si number density = 21.966707 Si / 1000 Ang^3
#
#
#
# Elastic Constant Matrix: (Units=GPa)
#
#
# Indices 1 2 3 4 5 6 
#
# 1 91.5984 10.6603 15.3756 0.0000 0.0000 0.0000
# 2 10.6603 93.4163 21.0310 0.0000 0.0000 -0.0001
# 3 15.3756 21.0310 61.3682 0.0000 0.0000 0.0000
# 4 0.0000 0.0000 0.0000 26.0368 0.0000 0.0000
# 5 0.0000 0.0000 0.0000 0.0000 -8.7144 0.0000
# 6 0.0000 -0.0001 0.0000 0.0000 0.0000 26.4712
#
#
#
# Elastic Compliance Matrix: (Units=1/GPa)
#
#
# Indices 1 2 3 4 5 6 
#
# 1 0.011440 -0.000715 -0.002621 0.000000 0.000000 0.000000
# 2 -0.000715 0.011644 -0.003811 0.000000 0.000000 0.000000
# 3 -0.002621 -0.003811 0.018258 0.000000 0.000000 0.000000
# 4 0.000000 0.000000 0.000000 0.038407 0.000000 0.000000
# 5 0.000000 0.000000 0.000000 0.000000 -0.114753 0.000000
# 6 0.000000 0.000000 0.000000 0.000000 0.000000 0.037777
#
#
# Mechanical properties :
#
#
# Convention : Reuss Voigt Hill
#
# Bulk Modulus (GPa) = 36.97268 37.83519 37.40394
# Shear Modulus (GPa) = 191.67612 22.04646 106.86129
#
# Velocity S-wave (km/s) = 9.35131 3.17145 6.98230
# Velocity P-wave (km/s) = 11.55265 5.53824 9.05913
#
# Compressibility (1/GPa) = 0.02704700
#
# Stress axis : x y z
#
# Youngs Moduli (GPa) = 87.40891 85.87769 54.77056
#
# Poissons Ratio (x) = 0.06144 0.14356
# Poissons Ratio (y) = 0.06254 0.20875
# Poissons Ratio (z) = 0.22912 0.32731
#
# Static dielectric constant tensor:
#      x y z
#    x 1.838360 0.000000 0.000000 
#    y 0.000000 1.855190 0.000000 
#    z 0.000000 0.000000 1.804370 
# 
# From -- ./inp_files/67106.got.cif
#   From: 2010.05.17/outbox.cif.g08.bks.cpg/sg70_34_cif.got.tgz:67106.got - 2010.06.03 15:57:51.
