data_PCOD9515106
_publ_section_title
;
Structure prediction by ZEFSAII (Michael W. Deem and Ramdas Pophale) SiO2 
 PCOD9515106
Probable space group: F D D D
;
_chemical_formula_sum "Si O2"
_cell_formula_units_Z 72
_cell_length_a 17.654212
_cell_length_b 17.176270
_cell_length_c 10.450243
_cell_angle_alpha 90.000000
_cell_angle_beta 90.000000
_cell_angle_gamma 90.000000
_cell_volume 3168.863886
_symmetry_space_group_name_H-M "F D D D"
_symmetry_group_IT_number 70
_space_group.IT_coordinate_system_code '2'
_symmetry_cell_setting 'orthorhombic'
loop_
_space_group_symop_operation_xyz
x,y,z
1/4-x,1/4-y,z
x,1/4-y,1/4-z
1/4-x,y,1/4-z
-x,-y,-z
3/4+x,3/4+y,-z
-x,3/4+y,3/4+z
3/4+x,-y,3/4+z
x,1/2+y,1/2+z
1/4-x,3/4-y,1/2+z
x,3/4-y,3/4-z
1/4-x,1/2+y,3/4-z
-x,1/2-y,1/2-z
3/4+x,1/4+y,1/2-z
-x,1/4+y,1/4+z
3/4+x,1/2-y,1/4+z
1/2+x,y,1/2+z
3/4-x,1/4-y,1/2+z
1/2+x,1/4-y,3/4-z
3/4-x,y,3/4-z
1/2-x,-y,1/2-z
1/4+x,3/4+y,1/2-z
1/2-x,3/4+y,1/4+z
1/4+x,-y,1/4+z
1/2+x,1/2+y,z
3/4-x,3/4-y,z
1/2+x,3/4-y,1/4-z
3/4-x,1/2+y,1/4-z
1/2-x,1/2-y,-z
1/4+x,1/4+y,-z
1/2-x,1/4+y,3/4+z
1/4+x,1/2-y,3/4+z
loop_
_atom_site_type_symbol
_atom_site_label
_atom_site_fract_x
_atom_site_fract_y
_atom_site_fract_z
Si Si1 0.909931 0.289245 0.506514
Si Si2 0.666300 0.976711 0.000019
Si Si3 0.875000 0.875000 0.375000
O O1 0.875000 0.257879 0.375000
O O2 0.875000 0.375000 0.527478
O O3 0.885669 0.233356 0.624249
O O4 0.999145 0.302376 0.486764
O O5 0.625000 0.941344 0.125000
O O6 0.675328 0.067523 0.042001
#
# Coordination Sequence:
#
# PCOD9515106 Si02
#       3
#    32  32   8
#     4  11  22  39  60  90 124 152 195 245 298 346
#     4  10  20  40  64  87 117 156 200 241 290 352
#     4   8  20  36  70  80 116 144 216 226 292 336
#
# _framework density 22.721074999999999
#
# number of rings (size 3 to 8) (size 9 to 14) (size 15 to 20)
#    1.333    0.444    2.222    2.667    0.000    0.000 
#    0.000   20.000    0.000    0.000    0.000    0.000 
#    0.000    0.000    0.000    0.000    0.000    0.000 
#
# Total GULP energy -100366.477976 kJ/mol
# GULP energy per Si atom -5575.915443 kJ/mol
# Density = 2.266936 g / cm^3
# Si number density = 22.721075 Si / 1000 Ang^3
#
#
#
# Elastic Constant Matrix: (Units=GPa)
#
#
# Indices 1 2 3 4 5 6 
#
# 1 148.4179 3.3548 48.7716 0.0000 0.0000 0.0000
# 2 3.3548 46.8744 -8.5913 0.0000 0.0000 0.0000
# 3 48.7716 -8.5913 192.7013 0.0000 0.0000 0.0000
# 4 0.0000 0.0000 0.0000 -2.2240 0.0000 0.0000
# 5 0.0000 0.0000 0.0000 0.0000 31.9411 0.0000
# 6 0.0000 0.0000 0.0000 0.0000 0.0000 37.1328
#
#
#
# Elastic Compliance Matrix: (Units=1/GPa)
#
#
# Indices 1 2 3 4 5 6 
#
# 1 0.007385 -0.000878 -0.001908 0.000000 0.000000 0.000000
# 2 -0.000878 0.021614 0.001186 0.000000 0.000000 0.000000
# 3 -0.001908 0.001186 0.005725 0.000000 0.000000 0.000000
# 4 0.000000 0.000000 0.000000 -0.449650 0.000000 0.000000
# 5 0.000000 0.000000 0.000000 0.000000 0.031308 0.000000
# 6 0.000000 0.000000 0.000000 0.000000 0.000000 0.026930
#
#
# Mechanical properties :
#
#
# Convention : Reuss Voigt Hill
#
# Bulk Modulus (GPa) = 31.72327 52.78488 42.25408
# Shear Modulus (GPa) = -14.57811 36.33389 10.87789
#
# Velocity S-wave (km/s) = -2.53575 4.00325 2.19043
# Velocity P-wave (km/s) = 2.32787 6.68207 5.00345
#
# Compressibility (1/GPa) = 0.03152260
#
# Stress axis : x y z
#
# Youngs Moduli (GPa) = 135.41648 46.26670 174.66655
#
# Poissons Ratio (x) = 0.04063 0.33329
# Poissons Ratio (y) = 0.11893 -0.20714
# Poissons Ratio (z) = 0.25840 -0.05487
#
# Static dielectric constant tensor:
#      x y z
#    x 1.858200 0.000000 0.000000 
#    y 0.000000 1.883050 0.000000 
#    z 0.000000 0.000000 1.921120 
# 
# From -- ./inp_files/5971.got.cif
#   From: 2010.05.17/outbox.cif.g08.bks.cpg/sg70_3_cif.got.tgz:5971.got - 2010.06.03 15:57:51.
