data_PCOD9515229
_publ_section_title
;
Structure prediction by ZEFSAII (Michael W. Deem and Ramdas Pophale) SiO2 
 PCOD9515229
Probable space group: F D D D
;
_chemical_formula_sum "Si O2"
_cell_formula_units_Z 192
_cell_length_a 23.802048
_cell_length_b 31.576621
_cell_length_c 11.743138
_cell_angle_alpha 90.000000
_cell_angle_beta 90.000000
_cell_angle_gamma 90.000000
_cell_volume 8826.004524
_symmetry_space_group_name_H-M "F D D D"
_symmetry_group_IT_number 70
_space_group.IT_coordinate_system_code '2'
_symmetry_cell_setting 'orthorhombic'
loop_
_space_group_symop_operation_xyz
x,y,z
1/4-x,1/4-y,z
x,1/4-y,1/4-z
1/4-x,y,1/4-z
-x,-y,-z
3/4+x,3/4+y,-z
-x,3/4+y,3/4+z
3/4+x,-y,3/4+z
x,1/2+y,1/2+z
1/4-x,3/4-y,1/2+z
x,3/4-y,3/4-z
1/4-x,1/2+y,3/4-z
-x,1/2-y,1/2-z
3/4+x,1/4+y,1/2-z
-x,1/4+y,1/4+z
3/4+x,1/2-y,1/4+z
1/2+x,y,1/2+z
3/4-x,1/4-y,1/2+z
1/2+x,1/4-y,3/4-z
3/4-x,y,3/4-z
1/2-x,-y,1/2-z
1/4+x,3/4+y,1/2-z
1/2-x,3/4+y,1/4+z
1/4+x,-y,1/4+z
1/2+x,1/2+y,z
3/4-x,3/4-y,z
1/2+x,3/4-y,1/4-z
3/4-x,1/2+y,1/4-z
1/2-x,1/2-y,-z
1/4+x,1/4+y,-z
1/2-x,1/4+y,3/4+z
1/4+x,1/2-y,3/4+z
loop_
_atom_site_type_symbol
_atom_site_label
_atom_site_fract_x
_atom_site_fract_y
_atom_site_fract_z
Si Si1 0.207889 0.580323 0.437572
Si Si2 0.875000 0.875000 0.375000
Si Si3 0.670251 0.445826 0.523666
Si Si4 0.668480 0.446357 0.026413
Si Si5 0.121847 0.229783 0.361198
Si Si6 0.625000 0.625000 0.125000
Si Si7 0.122448 0.375000 0.375000
Si Si8 0.208930 0.666488 0.313569
O O1 0.263183 0.552788 0.459814
O O2 0.172064 0.550861 0.352276
O O3 0.167017 0.596636 0.542289
O O4 0.225349 0.622468 0.371290
O O5 0.833043 0.846740 0.292105
O O6 0.625000 0.445427 0.625000
O O7 0.651344 0.485576 0.447845
O O8 0.664437 0.400063 0.464595
O O9 0.625000 0.433003 0.125000
O O10 0.734621 0.442940 0.043173
O O11 0.646872 0.492637 0.990783
O O12 0.658909 0.412028 0.928051
O O13 0.073566 0.195401 0.344391
#
# Coordination Sequence:
#
# PCOD9515229 Si02
#       8
#    32   8  32  32  32   8  16  32
#     4  12  24  46  69 100 135 178 236 274 334 415
#     4  12  24  44  76  96 136 188 230 282 336 394
#     4  11  25  42  71  97 139 179 221 285 343 397
#     4  11  25  42  71  97 139 179 221 285 343 397
#     4  11  25  45  61 110 136 174 231 275 345 403
#     4  12  24  44  76  96 136 188 230 282 336 394
#     4  10  20  44  58 104 126 174 236 264 338 404
#     4  12  24  46  69 100 135 178 236 274 334 415
#
# _framework density 21.753898
#
# number of rings (size 3 to 8) (size 9 to 14) (size 15 to 20)
#    0.000    0.667    3.333    4.500    2.333    4.000 
#    0.000    0.000    0.000    0.000    0.000    0.000 
#    0.000    0.000    0.000    0.000    0.000    0.000 
#
# Total GULP energy -267360.231586 kJ/mol
# GULP energy per Si atom -5570.004825 kJ/mol
# Density = 2.170439 g / cm^3
# Si number density = 21.753898 Si / 1000 Ang^3
#
#
#
# Elastic Constant Matrix: (Units=GPa)
#
#
# Indices 1 2 3 4 5 6 
#
# 1 174.6860 35.7457 43.8504 0.0000 0.0000 0.0000
# 2 35.7457 112.4296 14.8459 0.0000 0.0000 0.0000
# 3 43.8504 14.8459 49.2074 0.0000 0.0000 0.0000
# 4 0.0000 0.0000 0.0000 7.3095 0.0000 0.0000
# 5 0.0000 0.0000 0.0000 0.0000 1.2045 0.0000
# 6 0.0000 0.0000 0.0000 0.0000 0.0000 -10.8390
#
#
#
# Elastic Compliance Matrix: (Units=1/GPa)
#
#
# Indices 1 2 3 4 5 6 
#
# 1 0.007639 -0.001593 -0.006326 0.000000 0.000000 0.000000
# 2 -0.001593 0.009596 -0.001475 0.000000 0.000000 0.000000
# 3 -0.006326 -0.001475 0.026405 0.000000 0.000000 0.000000
# 4 0.000000 0.000000 0.000000 0.136808 0.000000 0.000000
# 5 0.000000 0.000000 0.000000 0.000000 0.830230 0.000000
# 6 0.000000 0.000000 0.000000 0.000000 0.000000 -0.092259
#
#
# Mechanical properties :
#
#
# Convention : Reuss Voigt Hill
#
# Bulk Modulus (GPa) = 40.24216 58.35633 49.29924
# Shear Modulus (GPa) = 5.28826 15.66040 10.47433
#
# Velocity S-wave (km/s) = 1.56084 2.68599 2.19667
# Velocity P-wave (km/s) = 4.66769 6.04179 5.39864
#
# Compressibility (1/GPa) = 0.02484956
#
# Stress axis : x y z
#
# Youngs Moduli (GPa) = 130.91304 104.21210 37.87181
#
# Poissons Ratio (x) = 0.16604 0.23959
# Poissons Ratio (y) = 0.20858 0.05587
# Poissons Ratio (z) = 0.82821 0.15374
#
# Static dielectric constant tensor:
#      x y z
#    x 1.757430 0.000000 0.000000 
#    y 0.000000 1.779000 0.000000 
#    z 0.000000 0.000000 1.851620 
# 
# From -- ./inp_files/21255.got.cif
#   From: 2010.05.17/outbox.cif.g08.bks.cpg/sg70_11_cif.got.tgz:21255.got - 2010.06.03 15:57:51.
