data_PCOD9515352
_publ_section_title
;
Structure prediction by ZEFSAII (Michael W. Deem and Ramdas Pophale) SiO2 
 PCOD9515352
Probable space group: F D D D
;
_chemical_formula_sum "Si O2"
_cell_formula_units_Z 184
_cell_length_a 16.027229
_cell_length_b 23.333919
_cell_length_c 23.804145
_cell_angle_alpha 90.000000
_cell_angle_beta 90.000000
_cell_angle_gamma 90.000000
_cell_volume 8902.228045
_symmetry_space_group_name_H-M "F D D D"
_symmetry_group_IT_number 70
_space_group.IT_coordinate_system_code '2'
_symmetry_cell_setting 'orthorhombic'
loop_
_space_group_symop_operation_xyz
x,y,z
1/4-x,1/4-y,z
x,1/4-y,1/4-z
1/4-x,y,1/4-z
-x,-y,-z
3/4+x,3/4+y,-z
-x,3/4+y,3/4+z
3/4+x,-y,3/4+z
x,1/2+y,1/2+z
1/4-x,3/4-y,1/2+z
x,3/4-y,3/4-z
1/4-x,1/2+y,3/4-z
-x,1/2-y,1/2-z
3/4+x,1/4+y,1/2-z
-x,1/4+y,1/4+z
3/4+x,1/2-y,1/4+z
1/2+x,y,1/2+z
3/4-x,1/4-y,1/2+z
1/2+x,1/4-y,3/4-z
3/4-x,y,3/4-z
1/2-x,-y,1/2-z
1/4+x,3/4+y,1/2-z
1/2-x,3/4+y,1/4+z
1/4+x,-y,1/4+z
1/2+x,1/2+y,z
3/4-x,3/4-y,z
1/2+x,3/4-y,1/4-z
3/4-x,1/2+y,1/4-z
1/2-x,1/2-y,-z
1/4+x,1/4+y,-z
1/2-x,1/4+y,3/4+z
1/4+x,1/2-y,3/4+z
loop_
_atom_site_type_symbol
_atom_site_label
_atom_site_fract_x
_atom_site_fract_y
_atom_site_fract_z
Si Si1 0.125000 0.732449 0.125000
Si Si2 0.303917 0.769370 0.307059
Si Si3 0.443905 0.753678 0.160851
Si Si4 0.602730 0.945575 0.237152
Si Si5 0.625000 0.625000 0.125000
Si Si6 0.804597 0.188288 0.103962
Si Si7 0.051286 0.933122 0.015612
O O1 0.124069 0.771216 0.180970
O O2 0.208310 0.695110 0.119008
O O3 0.255913 0.739916 0.358853
O O4 0.234430 0.778487 0.259769
O O5 0.327978 0.830926 0.333286
O O6 0.380300 0.729967 0.286881
O O7 0.353969 0.738407 0.137057
O O8 0.464288 0.699014 0.200720
O O9 0.465287 0.806528 0.201034
O O10 0.669003 0.946810 0.288850
O O11 0.586890 0.879019 0.225459
O O12 0.832740 0.125000 0.125000
#
# Coordination Sequence:
#
# PCOD9515352 Si02
#       7
#    16  32  32  32   8  32  32
#     4  12  27  47  66 102 127 179 242 292 330 398
#     4  11  23  38  61  96 130 176 216 262 325 413
#     4  10  21  37  64  94 129 168 217 259 327 408
#     4  11  26  42  71  94 140 177 223 284 347 392
#     4  12  20  34  60 100 130 174 224 244 324 432
#     4  11  23  47  72  94 131 183 234 281 335 411
#     4  11  21  39  63 100 139 169 205 275 337 403
#
# _framework density 20.668983999999998
#
# number of rings (size 3 to 8) (size 9 to 14) (size 15 to 20)
#    0.000    1.043    3.478    2.870    7.304    0.000 
#    0.000    0.000    0.000    0.000    0.000    0.000 
#    0.000    0.000    0.000    0.000    0.000    0.000 
#
# Total GULP energy -256846.820356 kJ/mol
# GULP energy per Si atom -5583.626529 kJ/mol
# Density = 2.062194 g / cm^3
# Si number density = 20.668984 Si / 1000 Ang^3
#
#
#
# Elastic Constant Matrix: (Units=GPa)
#
#
# Indices 1 2 3 4 5 6 
#
# 1 104.1578 22.0380 38.6123 0.0000 0.0000 0.0000
# 2 22.0380 63.8625 29.3593 0.0000 0.0000 0.0000
# 3 38.6123 29.3593 119.9314 0.0000 0.0000 0.0000
# 4 0.0000 0.0000 0.0000 18.5812 0.0000 0.0000
# 5 0.0000 0.0000 0.0000 0.0000 29.7148 0.0000
# 6 0.0000 0.0000 0.0000 0.0000 0.0000 -19.3577
#
#
#
# Elastic Compliance Matrix: (Units=1/GPa)
#
#
# Indices 1 2 3 4 5 6 
#
# 1 0.011245 -0.002497 -0.003009 0.000000 0.000000 0.000000
# 2 -0.002497 0.018199 -0.003651 0.000000 0.000000 0.000000
# 3 -0.003009 -0.003651 0.010201 0.000000 0.000000 0.000000
# 4 0.000000 0.000000 0.000000 0.053818 0.000000 0.000000
# 5 0.000000 0.000000 0.000000 0.000000 0.033653 0.000000
# 6 0.000000 0.000000 0.000000 0.000000 0.000000 -0.051659
#
#
# Mechanical properties :
#
#
# Convention : Reuss Voigt Hill
#
# Bulk Modulus (GPa) = 46.88277 51.99675 49.43976
# Shear Modulus (GPa) = 49.56374 18.98382 34.27378
#
# Velocity S-wave (km/s) = 4.90223 3.03391 4.07655
# Velocity P-wave (km/s) = 7.40097 6.12245 6.79186
#
# Compressibility (1/GPa) = 0.02132980
#
# Stress axis : x y z
#
# Youngs Moduli (GPa) = 88.93163 54.94844 98.03297
#
# Poissons Ratio (x) = 0.13721 0.29498
# Poissons Ratio (y) = 0.22207 0.35793
# Poissons Ratio (z) = 0.26759 0.20063
#
# Static dielectric constant tensor:
#      x y z
#    x 1.773350 0.000000 0.000000 
#    y 0.000000 1.705380 0.000000 
#    z 0.000000 0.000000 1.769080 
# 
# From -- ./inp_files/37618.got.cif
#   From: 2010.05.17/outbox.cif.g08.bks.cpg/sg70_19_cif.got.tgz:37618.got - 2010.06.03 15:57:51.
