data_PCOD9515914
_publ_section_title
;
Structure prediction by ZEFSAII (Michael W. Deem and Ramdas Pophale) SiO2 
 PCOD9515914
Probable space group: F D D D
;
_chemical_formula_sum "Si O2"
_cell_formula_units_Z 216
_cell_length_a 27.348514
_cell_length_b 11.452221
_cell_length_c 32.169986
_cell_angle_alpha 90.000000
_cell_angle_beta 90.000000
_cell_angle_gamma 90.000000
_cell_volume 10075.679067
_symmetry_space_group_name_H-M "F D D D"
_symmetry_group_IT_number 70
_space_group.IT_coordinate_system_code '2'
_symmetry_cell_setting 'orthorhombic'
loop_
_space_group_symop_operation_xyz
x,y,z
1/4-x,1/4-y,z
x,1/4-y,1/4-z
1/4-x,y,1/4-z
-x,-y,-z
3/4+x,3/4+y,-z
-x,3/4+y,3/4+z
3/4+x,-y,3/4+z
x,1/2+y,1/2+z
1/4-x,3/4-y,1/2+z
x,3/4-y,3/4-z
1/4-x,1/2+y,3/4-z
-x,1/2-y,1/2-z
3/4+x,1/4+y,1/2-z
-x,1/4+y,1/4+z
3/4+x,1/2-y,1/4+z
1/2+x,y,1/2+z
3/4-x,1/4-y,1/2+z
1/2+x,1/4-y,3/4-z
3/4-x,y,3/4-z
1/2-x,-y,1/2-z
1/4+x,3/4+y,1/2-z
1/2-x,3/4+y,1/4+z
1/4+x,-y,1/4+z
1/2+x,1/2+y,z
3/4-x,3/4-y,z
1/2+x,3/4-y,1/4-z
3/4-x,1/2+y,1/4-z
1/2-x,1/2-y,-z
1/4+x,1/4+y,-z
1/2-x,1/4+y,3/4+z
1/4+x,1/2-y,3/4+z
loop_
_atom_site_type_symbol
_atom_site_label
_atom_site_fract_x
_atom_site_fract_y
_atom_site_fract_z
Si Si1 0.034590 0.647780 0.841414
Si Si2 0.749826 0.271359 0.907335
Si Si3 0.660649 0.875000 0.875000
Si Si4 0.317884 0.715614 0.437082
Si Si5 0.401490 0.747788 0.697123
Si Si6 0.431844 0.846497 0.500294
Si Si7 0.625000 0.125000 0.625000
Si Si8 0.666742 0.348080 0.036500
O O1 0.035697 0.563637 0.880437
O O2 0.056525 0.770552 0.856233
O O3 0.058646 0.601649 0.799216
O O4 0.977396 0.649332 0.831535
O O5 0.762816 0.375000 0.875000
O O6 0.708552 0.294249 0.941754
O O7 0.796532 0.214865 0.930950
O O8 0.628116 0.831496 0.836058
O O9 0.296615 0.793328 0.475186
O O10 0.338889 0.804130 0.403770
O O11 0.364467 0.635042 0.444880
O O12 0.375000 0.875000 0.691005
O O13 0.399114 0.723984 0.746396
O O14 0.375000 0.875000 0.494322
O O15 0.441286 0.721145 0.479180
#
# Coordination Sequence:
#
# PCOD9515914 Si02
#       8
#    32  32  16  32  32  32   8  32
#     4  12  26  41  74 107 141 179 245 298 362 427
#     4  12  27  47  71 105 143 198 240 303 367 439
#     4  12  25  44  76 113 144 185 252 305 372 434
#     4  11  23  41  67 103 141 185 230 298 351 426
#     4  12  26  46  73 103 146 188 243 304 363 435
#     4  10  22  42  69 101 145 188 229 299 364 424
#     4  12  18  40  64  88 146 176 228 270 376 394
#     4  11  25  46  69 100 142 198 239 285 366 438
#
# _framework density 21.437760999999998
#
# number of rings (size 3 to 8) (size 9 to 14) (size 15 to 20)
#    0.000    0.593    4.444    4.889    4.148    2.370 
#    0.000    0.741    0.000    0.000    0.000    0.000 
#    0.000    0.000    0.000    0.000    0.000    0.000 
#
# Total GULP energy -300968.548976 kJ/mol
# GULP energy per Si atom -5573.491648 kJ/mol
# Density = 2.138897 g / cm^3
# Si number density = 21.437761 Si / 1000 Ang^3
#
#
#
# Elastic Constant Matrix: (Units=GPa)
#
#
# Indices 1 2 3 4 5 6 
#
# 1 80.0241 46.8446 33.3138 0.0000 0.0000 0.0000
# 2 46.8446 87.7659 44.5953 0.0000 0.0000 0.0000
# 3 33.3138 44.5953 103.5963 0.0000 0.0000 0.0000
# 4 0.0000 0.0000 0.0000 62.6156 0.0000 0.0000
# 5 0.0000 0.0000 0.0000 0.0000 -35.9370 0.0000
# 6 0.0000 0.0000 0.0000 0.0000 0.0000 -254.3618
#
#
#
# Elastic Compliance Matrix: (Units=1/GPa)
#
#
# Indices 1 2 3 4 5 6 
#
# 1 0.018552 -0.008794 -0.002180 0.000000 0.000000 0.000000
# 2 -0.008794 0.018753 -0.005245 0.000000 0.000000 0.000000
# 3 -0.002180 -0.005245 0.012612 0.000000 0.000000 0.000000
# 4 0.000000 0.000000 0.000000 0.015970 0.000000 0.000000
# 5 0.000000 0.000000 0.000000 0.000000 -0.027827 0.000000
# 6 0.000000 0.000000 0.000000 0.000000 0.000000 -0.003931
#
#
# Mechanical properties :
#
#
# Convention : Reuss Voigt Hill
#
# Bulk Modulus (GPa) = 57.21367 57.87709 57.54538
# Shear Modulus (GPa) = 69.06842 -35.76111 16.65365
#
# Velocity S-wave (km/s) = 5.68226 -4.08871 2.79020
# Velocity P-wave (km/s) = 8.35446 2.18317 6.10587
#
# Compressibility (1/GPa) = 0.01747834
#
# Stress axis : x y z
#
# Youngs Moduli (GPa) = 53.90336 53.32600 79.29249
#
# Poissons Ratio (x) = 0.46896 0.17287
# Poissons Ratio (y) = 0.47403 0.41585
# Poissons Ratio (z) = 0.11752 0.27967
#
# Static dielectric constant tensor:
#      x y z
#    x 1.762870 0.000000 0.000000 
#    y 0.000000 1.926730 0.000000 
#    z 0.000000 0.000000 1.856800 
# 
# From -- ./inp_files/69025.got.cif
#   From: 2010.05.17/outbox.cif.g08.bks.cpg/sg70_35_cif.got.tgz:69025.got - 2010.06.03 15:57:51.
