data_PCOD9515546
_publ_section_title
;
Structure prediction by ZEFSAII (Michael W. Deem and Ramdas Pophale) SiO2 
 PCOD9515546
Probable space group: F D D D
;
_chemical_formula_sum "Si O2"
_cell_formula_units_Z 176
_cell_length_a 14.291126
_cell_length_b 19.506992
_cell_length_c 26.963337
_cell_angle_alpha 90.000000
_cell_angle_beta 90.000000
_cell_angle_gamma 90.000000
_cell_volume 7516.754978
_symmetry_space_group_name_H-M "F D D D"
_symmetry_group_IT_number 70
_space_group.IT_coordinate_system_code '2'
_symmetry_cell_setting 'orthorhombic'
loop_
_space_group_symop_operation_xyz
x,y,z
1/4-x,1/4-y,z
x,1/4-y,1/4-z
1/4-x,y,1/4-z
-x,-y,-z
3/4+x,3/4+y,-z
-x,3/4+y,3/4+z
3/4+x,-y,3/4+z
x,1/2+y,1/2+z
1/4-x,3/4-y,1/2+z
x,3/4-y,3/4-z
1/4-x,1/2+y,3/4-z
-x,1/2-y,1/2-z
3/4+x,1/4+y,1/2-z
-x,1/4+y,1/4+z
3/4+x,1/2-y,1/4+z
1/2+x,y,1/2+z
3/4-x,1/4-y,1/2+z
1/2+x,1/4-y,3/4-z
3/4-x,y,3/4-z
1/2-x,-y,1/2-z
1/4+x,3/4+y,1/2-z
1/2-x,3/4+y,1/4+z
1/4+x,-y,1/4+z
1/2+x,1/2+y,z
3/4-x,3/4-y,z
1/2+x,3/4-y,1/4-z
3/4-x,1/2+y,1/4-z
1/2-x,1/2-y,-z
1/4+x,1/4+y,-z
1/2-x,1/4+y,3/4+z
1/4+x,1/2-y,3/4+z
loop_
_atom_site_type_symbol
_atom_site_label
_atom_site_fract_x
_atom_site_fract_y
_atom_site_fract_z
Si Si1 0.875000 0.778214 0.875000
Si Si2 0.875000 0.042686 0.375000
Si Si3 0.125000 0.625000 0.411664
Si Si4 0.075581 0.364412 0.953962
Si Si5 0.437772 0.269322 0.174181
Si Si6 0.811719 0.587876 0.301946
Si Si7 0.625000 0.625000 0.509324
Si Si8 0.460748 0.625000 0.125000
O O1 0.838543 0.729339 0.918008
O O2 0.787392 0.821479 0.854087
O O3 0.793280 0.005153 0.345473
O O4 0.833889 0.094919 0.415380
O O5 0.145785 0.563394 0.371836
O O6 0.201210 0.655925 0.449193
O O7 0.093628 0.445111 0.943066
O O8 0.139607 0.333956 0.910454
O O9 0.125893 0.342384 0.003869
O O10 0.964727 0.349739 0.958653
O O11 0.421305 0.318722 0.222004
#
# Coordination Sequence:
#
# PCOD9515546 Si02
#       8
#    16  16  16  32  32  32  16  16
#     4  10  24  51  72  94 141 185 233 298 342 416
#     4   9  18  37  68  98 127 178 225 272 346 413
#     4   9  20  40  72 108 130 172 234 292 335 414
#     4  12  26  43  66 101 141 186 232 287 352 421
#     4  10  21  41  66 101 140 175 222 289 352 409
#     4  10  21  41  71 100 127 178 232 279 342 414
#     4  11  24  41  66 101 142 185 222 289 359 410
#     4  11  28  47  66 100 138 189 230 289 358 400
#
# _framework density 23.414359000000001
#
# number of rings (size 3 to 8) (size 9 to 14) (size 15 to 20)
#    0.000    1.636    1.818    1.636    5.091    4.000 
#    6.545    0.000    0.000    0.000    0.000    0.000 
#    0.000    0.000    0.000    0.000    0.000    0.000 
#
# Total GULP energy -245396.066615 kJ/mol
# GULP energy per Si atom -5577.183332 kJ/mol
# Density = 2.336107 g / cm^3
# Si number density = 23.414359 Si / 1000 Ang^3
#
#
#
# Elastic Constant Matrix: (Units=GPa)
#
#
# Indices 1 2 3 4 5 6 
#
# 1 192.4044 26.5900 55.0282 0.0000 0.0000 0.0000
# 2 26.5900 68.5040 2.5552 0.0000 0.0000 0.0000
# 3 55.0282 2.5552 52.8044 0.0000 0.0000 0.0000
# 4 0.0000 0.0000 0.0000 12.7272 0.0000 0.0000
# 5 0.0000 0.0000 0.0000 0.0000 41.4963 0.0000
# 6 0.0000 0.0000 0.0000 0.0000 0.0000 18.0818
#
#
#
# Elastic Compliance Matrix: (Units=1/GPa)
#
#
# Indices 1 2 3 4 5 6 
#
# 1 0.007894 -0.002762 -0.008092 0.000000 0.000000 0.000000
# 2 -0.002762 0.015591 0.002124 0.000000 0.000000 0.000000
# 3 -0.008092 0.002124 0.027268 0.000000 0.000000 0.000000
# 4 0.000000 0.000000 0.000000 0.078572 0.000000 0.000000
# 5 0.000000 0.000000 0.000000 0.000000 0.024099 0.000000
# 6 0.000000 0.000000 0.000000 0.000000 0.000000 0.055304
#
#
# Mechanical properties :
#
#
# Convention : Reuss Voigt Hill
#
# Bulk Modulus (GPa) = 30.03779 53.56220 41.79999
# Shear Modulus (GPa) = 21.07170 29.76367 25.41769
#
# Velocity S-wave (km/s) = 3.00317 3.56922 3.29836
# Velocity P-wave (km/s) = 4.98819 6.31753 5.69180
#
# Compressibility (1/GPa) = 0.03329140
#
# Stress axis : x y z
#
# Youngs Moduli (GPa) = 126.68631 64.14141 36.67284
#
# Poissons Ratio (x) = 0.17716 0.29677
# Poissons Ratio (y) = 0.34991 -0.07789
# Poissons Ratio (z) = 1.02518 -0.13623
#
# Static dielectric constant tensor:
#      x y z
#    x 1.995620 0.000000 0.000000 
#    y 0.000000 1.870030 0.000000 
#    z 0.000000 0.000000 1.958880 
# 
# From -- ./inp_files/58630.got.cif
#   From: 2010.05.17/outbox.cif.g08.bks.cpg/sg70_30_cif.got.tgz:58630.got - 2010.06.03 15:57:51.
