data_PCOD9515085
_publ_section_title
;
Structure prediction by ZEFSAII (Michael W. Deem and Ramdas Pophale) SiO2 
 PCOD9515085
Probable space group: F D D D
;
_chemical_formula_sum "Si O2"
_cell_formula_units_Z 128
_cell_length_a 7.326831
_cell_length_b 25.756595
_cell_length_c 29.856978
_cell_angle_alpha 90.000000
_cell_angle_beta 90.000000
_cell_angle_gamma 90.000000
_cell_volume 5634.436276
_symmetry_space_group_name_H-M "F D D D"
_symmetry_group_IT_number 70
_space_group.IT_coordinate_system_code '2'
_symmetry_cell_setting 'orthorhombic'
loop_
_space_group_symop_operation_xyz
x,y,z
1/4-x,1/4-y,z
x,1/4-y,1/4-z
1/4-x,y,1/4-z
-x,-y,-z
3/4+x,3/4+y,-z
-x,3/4+y,3/4+z
3/4+x,-y,3/4+z
x,1/2+y,1/2+z
1/4-x,3/4-y,1/2+z
x,3/4-y,3/4-z
1/4-x,1/2+y,3/4-z
-x,1/2-y,1/2-z
3/4+x,1/4+y,1/2-z
-x,1/4+y,1/4+z
3/4+x,1/2-y,1/4+z
1/2+x,y,1/2+z
3/4-x,1/4-y,1/2+z
1/2+x,1/4-y,3/4-z
3/4-x,y,3/4-z
1/2-x,-y,1/2-z
1/4+x,3/4+y,1/2-z
1/2-x,3/4+y,1/4+z
1/4+x,-y,1/4+z
1/2+x,1/2+y,z
3/4-x,3/4-y,z
1/2+x,3/4-y,1/4-z
3/4-x,1/2+y,1/4-z
1/2-x,1/2-y,-z
1/4+x,1/4+y,-z
1/2-x,1/4+y,3/4+z
1/4+x,1/2-y,3/4+z
loop_
_atom_site_type_symbol
_atom_site_label
_atom_site_fract_x
_atom_site_fract_y
_atom_site_fract_z
Si Si1 0.099886 0.758118 0.296792
Si Si2 0.905570 0.127096 0.676018
Si Si3 0.375000 0.708421 0.875000
Si Si4 0.625000 0.125000 0.831538
Si Si5 0.943504 0.662191 0.981761
O O1 0.154105 0.817333 0.304302
O O2 0.260407 0.716751 0.291450
O O3 0.000000 0.750000 0.250000
O O4 0.955453 0.743124 0.335261
O O5 0.834821 0.125000 0.625000
O O6 0.873867 0.086244 0.716567
O O7 0.125000 0.125000 0.671914
O O8 0.544945 0.671934 0.889095
O O9 0.792197 0.112266 0.799423
O O10 0.125000 0.625000 0.981100
#
# Coordination Sequence:
#
# PCOD9515085 Si02
#       5
#    32  32  16  16  32
#     4  12  22  40  69 102 139 187 244 290 370 438
#     4  10  20  39  71 101 143 194 238 295 367 440
#     4  12  24  38  69  96 132 180 235 298 360 444
#     4  12  24  46  69 104 138 185 238 306 370 424
#     4  11  22  44  71  99 144 186 235 307 356 436
#
# _framework density 22.717445999999999
#
# number of rings (size 3 to 8) (size 9 to 14) (size 15 to 20)
#    0.000    0.750    7.500    3.000    0.000    0.000 
#    0.000    5.625   11.000    0.000    0.000    0.000 
#    0.000    0.000    0.000    0.000    0.000    0.000 
#
# Total GULP energy -178826.056583 kJ/mol
# GULP energy per Si atom -5588.314268 kJ/mol
# Density = 2.266574 g / cm^3
# Si number density = 22.717446 Si / 1000 Ang^3
#
#
#
# Elastic Constant Matrix: (Units=GPa)
#
#
# Indices 1 2 3 4 5 6 
#
# 1 76.2239 17.0877 25.1726 0.0000 0.0000 0.0000
# 2 17.0877 80.1875 26.7387 0.0000 0.0000 0.0000
# 3 25.1726 26.7387 161.6206 0.0000 0.0000 0.0000
# 4 0.0000 0.0000 0.0000 29.2264 0.0000 0.0000
# 5 0.0000 0.0000 0.0000 0.0000 1.9164 0.0000
# 6 0.0000 0.0000 0.0000 0.0000 0.0000 10.4259
#
#
#
# Elastic Compliance Matrix: (Units=1/GPa)
#
#
# Indices 1 2 3 4 5 6 
#
# 1 0.014266 -0.002433 -0.001819 0.000000 0.000000 0.000000
# 2 -0.002433 0.013614 -0.001873 0.000000 0.000000 0.000000
# 3 -0.001819 -0.001873 0.006781 0.000000 0.000000 0.000000
# 4 0.000000 0.000000 0.000000 0.034216 0.000000 0.000000
# 5 0.000000 0.000000 0.000000 0.000000 0.521811 0.000000
# 6 0.000000 0.000000 0.000000 0.000000 0.000000 0.095915
#
#
# Mechanical properties :
#
#
# Convention : Reuss Voigt Hill
#
# Bulk Modulus (GPa) = 44.62635 50.66999 47.64817
# Shear Modulus (GPa) = 7.07891 24.91593 15.99742
#
# Velocity S-wave (km/s) = 1.76715 3.31535 2.65654
# Velocity P-wave (km/s) = 4.88370 6.08344 5.51628
#
# Compressibility (1/GPa) = 0.02240829
#
# Stress axis : x y z
#
# Youngs Moduli (GPa) = 70.09896 73.45397 147.47926
#
# Poissons Ratio (x) = 0.17873 0.26831
# Poissons Ratio (y) = 0.17057 0.27628
# Poissons Ratio (z) = 0.12753 0.13760
#
# Static dielectric constant tensor:
#      x y z
#    x 1.951760 0.000000 0.000000 
#    y 0.000000 2.062060 0.000000 
#    z 0.000000 0.000000 1.911490 
# 
# From -- ./inp_files/63689.got.cif
#   From: 2010.05.17/outbox.cif.g08.bks.cpg/sg70_32_cif.got.tgz:63689.got - 2010.06.03 15:57:51.
