data_PCOD9515009
_publ_section_title
;
Structure prediction by ZEFSAII (Michael W. Deem and Ramdas Pophale) SiO2 
 PCOD9515009
Probable space group: F D D D
;
_chemical_formula_sum "Si O2"
_cell_formula_units_Z 192
_cell_length_a 10.070923
_cell_length_b 34.798052
_cell_length_c 24.771677
_cell_angle_alpha 90.000000
_cell_angle_beta 90.000000
_cell_angle_gamma 90.000000
_cell_volume 8681.197103
_symmetry_space_group_name_H-M "F D D D"
_symmetry_group_IT_number 70
_space_group.IT_coordinate_system_code '2'
_symmetry_cell_setting 'orthorhombic'
loop_
_space_group_symop_operation_xyz
x,y,z
1/4-x,1/4-y,z
x,1/4-y,1/4-z
1/4-x,y,1/4-z
-x,-y,-z
3/4+x,3/4+y,-z
-x,3/4+y,3/4+z
3/4+x,-y,3/4+z
x,1/2+y,1/2+z
1/4-x,3/4-y,1/2+z
x,3/4-y,3/4-z
1/4-x,1/2+y,3/4-z
-x,1/2-y,1/2-z
3/4+x,1/4+y,1/2-z
-x,1/4+y,1/4+z
3/4+x,1/2-y,1/4+z
1/2+x,y,1/2+z
3/4-x,1/4-y,1/2+z
1/2+x,1/4-y,3/4-z
3/4-x,y,3/4-z
1/2-x,-y,1/2-z
1/4+x,3/4+y,1/2-z
1/2-x,3/4+y,1/4+z
1/4+x,-y,1/4+z
1/2+x,1/2+y,z
3/4-x,3/4-y,z
1/2+x,3/4-y,1/4-z
3/4-x,1/2+y,1/4-z
1/2-x,1/2-y,-z
1/4+x,1/4+y,-z
1/2-x,1/4+y,3/4+z
1/4+x,1/2-y,3/4+z
loop_
_atom_site_type_symbol
_atom_site_label
_atom_site_fract_x
_atom_site_fract_y
_atom_site_fract_z
Si Si1 0.501450 0.177393 0.412751
Si Si2 0.127781 0.380300 0.246800
Si Si3 0.910585 0.004280 0.260527
Si Si4 0.625000 0.625000 0.625000
Si Si5 0.625000 0.125000 0.916534
Si Si6 0.317558 0.061157 0.078179
Si Si7 0.625000 0.125000 0.625000
Si Si8 0.194270 0.315137 0.311896
O O1 0.375000 0.170381 0.375000
O O2 0.490886 0.148140 0.462469
O O3 0.464240 0.218234 0.440462
O O4 0.617384 0.162769 0.372691
O O5 0.249471 0.373233 0.206280
O O6 0.165749 0.414678 0.288701
O O7 0.094987 0.340523 0.276102
O O8 0.970083 0.024471 0.207157
O O9 0.750000 0.000000 0.250000
O O10 0.972894 0.963694 0.275718
O O11 0.712380 0.652649 0.661828
O O12 0.214043 0.095076 0.091285
O O13 0.375301 0.047517 0.135285
#
# Coordination Sequence:
#
# PCOD9515009 Si02
#       8
#    32  32  32   8  16  32   8  32
#     4   9  22  40  59  94 130 180 223 269 359 413
#     4  10  20  38  64  98 126 172 243 274 348 410
#     4  11  27  39  64 102 147 185 223 290 370 425
#     4  12  20  32  64  98 130 186 222 294 356 398
#     4  10  21  39  67  88 137 174 225 293 324 442
#     4  11  24  45  69 106 133 188 238 299 358 423
#     4  12  22  50  84  90 146 182 256 292 348 434
#     4  12  23  39  65 101 140 174 243 298 343 429
#
# _framework density 22.116765000000001
#
# number of rings (size 3 to 8) (size 9 to 14) (size 15 to 20)
#    0.000    1.333    3.333    1.500   12.833    2.667 
#    0.000    0.833    5.500    0.000    0.000    0.000 
#    0.000    0.000    0.000    0.000    0.000    0.000 
#
# Total GULP energy -267479.396665 kJ/mol
# GULP energy per Si atom -5572.487431 kJ/mol
# Density = 2.206643 g / cm^3
# Si number density = 22.116765 Si / 1000 Ang^3
#
#
#
# Elastic Constant Matrix: (Units=GPa)
#
#
# Indices 1 2 3 4 5 6 
#
# 1 40.1893 30.8994 12.4993 0.0000 0.0000 0.0000
# 2 30.8994 126.3408 56.6513 0.0000 0.0000 0.0000
# 3 12.4993 56.6513 111.7044 0.0000 0.0000 0.0000
# 4 0.0000 0.0000 0.0000 48.3783 0.0000 0.0000
# 5 0.0000 0.0000 0.0000 0.0000 28.3379 0.0000
# 6 0.0000 0.0000 0.0000 0.0000 0.0000 16.2980
#
#
#
# Elastic Compliance Matrix: (Units=1/GPa)
#
#
# Indices 1 2 3 4 5 6 
#
# 1 0.030665 -0.007716 0.000482 0.000000 0.000000 0.000000
# 2 -0.007716 0.012186 -0.005317 0.000000 0.000000 0.000000
# 3 0.000482 -0.005317 0.011595 0.000000 0.000000 0.000000
# 4 0.000000 0.000000 0.000000 0.020670 0.000000 0.000000
# 5 0.000000 0.000000 0.000000 0.000000 0.035288 0.000000
# 6 0.000000 0.000000 0.000000 0.000000 0.000000 0.061357
#
#
# Mechanical properties :
#
#
# Convention : Reuss Voigt Hill
#
# Bulk Modulus (GPa) = 34.07861 53.14827 43.61344
# Shear Modulus (GPa) = 24.19611 30.48180 27.33895
#
# Velocity S-wave (km/s) = 3.31118 3.71647 3.51966
# Velocity P-wave (km/s) = 5.48275 6.51913 6.02327
#
# Compressibility (1/GPa) = 0.02934392
#
# Stress axis : x y z
#
# Youngs Moduli (GPa) = 32.61089 82.05948 86.24558
#
# Poissons Ratio (x) = 0.63315 -0.04156
# Poissons Ratio (y) = 0.25162 0.45856
# Poissons Ratio (z) = -0.01571 0.43631
#
# Static dielectric constant tensor:
#      x y z
#    x 1.873350 0.000000 0.000000 
#    y 0.000000 1.877200 0.000000 
#    z 0.000000 0.000000 1.954760 
# 
# From -- ./inp_files/57857.got.cif
#   From: 2010.05.17/outbox.cif.g08.bks.cpg/sg70_29_cif.got.tgz:57857.got - 2010.06.03 15:57:51.
