data_PCOD9515607
_publ_section_title
;
Structure prediction by ZEFSAII (Michael W. Deem and Ramdas Pophale) SiO2 
 PCOD9515607
Probable space group: F D D D
;
_chemical_formula_sum "Si O2"
_cell_formula_units_Z 184
_cell_length_a 9.326875
_cell_length_b 30.210543
_cell_length_c 27.464725
_cell_angle_alpha 90.000000
_cell_angle_beta 90.000000
_cell_angle_gamma 90.000000
_cell_volume 7738.734416
_symmetry_space_group_name_H-M "F D D D"
_symmetry_group_IT_number 70
_space_group.IT_coordinate_system_code '2'
_symmetry_cell_setting 'orthorhombic'
loop_
_space_group_symop_operation_xyz
x,y,z
1/4-x,1/4-y,z
x,1/4-y,1/4-z
1/4-x,y,1/4-z
-x,-y,-z
3/4+x,3/4+y,-z
-x,3/4+y,3/4+z
3/4+x,-y,3/4+z
x,1/2+y,1/2+z
1/4-x,3/4-y,1/2+z
x,3/4-y,3/4-z
1/4-x,1/2+y,3/4-z
-x,1/2-y,1/2-z
3/4+x,1/4+y,1/2-z
-x,1/4+y,1/4+z
3/4+x,1/2-y,1/4+z
1/2+x,y,1/2+z
3/4-x,1/4-y,1/2+z
1/2+x,1/4-y,3/4-z
3/4-x,y,3/4-z
1/2-x,-y,1/2-z
1/4+x,3/4+y,1/2-z
1/2-x,3/4+y,1/4+z
1/4+x,-y,1/4+z
1/2+x,1/2+y,z
3/4-x,3/4-y,z
1/2+x,3/4-y,1/4-z
3/4-x,1/2+y,1/4-z
1/2-x,1/2-y,-z
1/4+x,1/4+y,-z
1/2-x,1/4+y,3/4+z
1/4+x,1/2-y,3/4+z
loop_
_atom_site_type_symbol
_atom_site_label
_atom_site_fract_x
_atom_site_fract_y
_atom_site_fract_z
Si Si1 0.080400 0.787396 0.354354
Si Si2 0.082906 0.076845 0.278661
Si Si3 0.853890 0.197635 0.269638
Si Si4 0.573976 0.247423 0.054556
Si Si5 0.625000 0.625000 0.125000
Si Si6 0.144151 0.377789 0.949256
Si Si7 0.125000 0.985638 0.125000
O O1 0.000690 0.783799 0.405739
O O2 0.009148 0.742614 0.184310
O O3 0.062638 0.836932 0.333753
O O4 0.237170 0.767348 0.365867
O O5 0.125000 0.125000 0.299951
O O6 0.224295 0.051355 0.259963
O O7 0.987948 0.089306 0.232614
O O8 0.989477 0.046184 0.313355
O O9 0.744943 0.232706 0.246443
O O10 0.862835 0.203986 0.327614
O O11 0.816685 0.153002 0.238902
O O12 0.739751 0.645908 0.086705
#
# Coordination Sequence:
#
# PCOD9515607 Si02
#       7
#    32  32  32  32   8  32  16
#     4  11  26  42  72 113 142 192 249 308 384 458
#     4  10  21  42  69  99 142 192 242 309 367 445
#     4  11  23  43  70 102 147 199 247 307 371 449
#     4  11  24  45  71 105 155 189 240 322 382 443
#     4  12  18  36  68 102 132 192 236 294 360 450
#     4  11  23  39  69 106 146 184 246 302 371 449
#     4  12  25  44  78 103 142 208 262 296 369 466
#
# _framework density 23.776496999999999
#
# number of rings (size 3 to 8) (size 9 to 14) (size 15 to 20)
#    0.000    1.043    4.348    3.130    2.435    3.478 
#    0.000   10.435   11.478    0.000    0.000    0.000 
#    0.000    0.000    0.000    0.000    0.000    0.000 
#
# Total GULP energy -256224.532680 kJ/mol
# GULP energy per Si atom -5570.098537 kJ/mol
# Density = 2.372238 g / cm^3
# Si number density = 23.776497 Si / 1000 Ang^3
#
#
#
# Elastic Constant Matrix: (Units=GPa)
#
#
# Indices 1 2 3 4 5 6 
#
# 1 118.3421 47.5229 32.7539 0.0000 0.0000 0.0000
# 2 47.5229 127.8189 67.6057 0.0000 0.0000 0.0000
# 3 32.7539 67.6057 159.8955 0.0000 0.0000 0.0000
# 4 0.0000 0.0000 0.0000 47.0754 0.0000 0.0000
# 5 0.0000 0.0000 0.0000 0.0000 39.6229 0.0000
# 6 0.0000 0.0000 0.0000 0.0000 0.0000 27.6786
#
#
#
# Elastic Compliance Matrix: (Units=1/GPa)
#
#
# Indices 1 2 3 4 5 6 
#
# 1 0.009979 -0.003386 -0.000612 0.000000 0.000000 0.000000
# 2 -0.003386 0.011226 -0.004053 0.000000 0.000000 0.000000
# 3 -0.000612 -0.004053 0.008093 0.000000 0.000000 0.000000
# 4 0.000000 0.000000 0.000000 0.021243 0.000000 0.000000
# 5 0.000000 0.000000 0.000000 0.000000 0.025238 0.000000
# 6 0.000000 0.000000 0.000000 0.000000 0.000000 0.036129
#
#
# Mechanical properties :
#
#
# Convention : Reuss Voigt Hill
#
# Bulk Modulus (GPa) = 75.78409 77.98017 76.88213
# Shear Modulus (GPa) = 37.76139 40.08698 38.92419
#
# Velocity S-wave (km/s) = 3.98952 4.11054 4.05048
# Velocity P-wave (km/s) = 7.29140 7.44292 7.36755
#
# Compressibility (1/GPa) = 0.01319538
#
# Stress axis : x y z
#
# Youngs Moduli (GPa) = 100.20565 89.07650 123.56112
#
# Poissons Ratio (x) = 0.30165 0.07567
# Poissons Ratio (y) = 0.33934 0.50078
# Poissons Ratio (z) = 0.06137 0.36102
#
# Static dielectric constant tensor:
#      x y z
#    x 1.970580 0.000000 0.000000 
#    y 0.000000 2.033560 0.000000 
#    z 0.000000 0.000000 2.404630 
# 
# From -- ./inp_files/44039.got.cif
#   From: 2010.05.17/outbox.cif.g08.bks.cpg/sg70_23_cif.got.tgz:44039.got - 2010.06.03 15:57:51.
