data_PCOD9515583
_publ_section_title
;
Structure prediction by ZEFSAII (Michael W. Deem and Ramdas Pophale) SiO2 
 PCOD9515583
Probable space group: F D D D
;
_chemical_formula_sum "Si O2"
_cell_formula_units_Z 112
_cell_length_a 22.858265
_cell_length_b 19.875409
_cell_length_c 12.609836
_cell_angle_alpha 90.000000
_cell_angle_beta 90.000000
_cell_angle_gamma 90.000000
_cell_volume 5728.867476
_symmetry_space_group_name_H-M "F D D D"
_symmetry_group_IT_number 70
_space_group.IT_coordinate_system_code '2'
_symmetry_cell_setting 'orthorhombic'
loop_
_space_group_symop_operation_xyz
x,y,z
1/4-x,1/4-y,z
x,1/4-y,1/4-z
1/4-x,y,1/4-z
-x,-y,-z
3/4+x,3/4+y,-z
-x,3/4+y,3/4+z
3/4+x,-y,3/4+z
x,1/2+y,1/2+z
1/4-x,3/4-y,1/2+z
x,3/4-y,3/4-z
1/4-x,1/2+y,3/4-z
-x,1/2-y,1/2-z
3/4+x,1/4+y,1/2-z
-x,1/4+y,1/4+z
3/4+x,1/2-y,1/4+z
1/2+x,y,1/2+z
3/4-x,1/4-y,1/2+z
1/2+x,1/4-y,3/4-z
3/4-x,y,3/4-z
1/2-x,-y,1/2-z
1/4+x,3/4+y,1/2-z
1/2-x,3/4+y,1/4+z
1/4+x,-y,1/4+z
1/2+x,1/2+y,z
3/4-x,3/4-y,z
1/2+x,3/4-y,1/4-z
3/4-x,1/2+y,1/4-z
1/2-x,1/2-y,-z
1/4+x,1/4+y,-z
1/2-x,1/4+y,3/4+z
1/4+x,1/2-y,3/4+z
loop_
_atom_site_type_symbol
_atom_site_label
_atom_site_fract_x
_atom_site_fract_y
_atom_site_fract_z
Si Si1 0.125000 0.746734 0.625000
Si Si2 0.865148 0.680701 0.210968
Si Si3 0.419315 0.434446 0.091042
Si Si4 0.204208 0.880226 0.091948
O O1 0.159148 0.706338 0.532769
O O2 0.079575 0.798937 0.571688
O O3 0.850926 0.625000 0.125000
O O4 0.848321 0.752160 0.163296
O O5 0.824418 0.659610 0.309432
O O6 0.933034 0.667978 0.245693
O O7 0.375000 0.375000 0.111521
O O8 0.481913 0.404093 0.123906
#
# Coordination Sequence:
#
# PCOD9515583 Si02
#       4
#    16  32  32  32
#     4  10  21  42  64 102 127 168 224 280 343 386
#     4  10  21  42  66  92 137 182 218 273 354 398
#     4  12  25  39  68 103 132 174 231 284 334 404
#     4  10  23  41  67  96 134 177 223 281 337 399
#
# _framework density 19.550111999999999
#
# number of rings (size 3 to 8) (size 9 to 14) (size 15 to 20)
#    0.000    1.714    5.714    1.286    4.000    1.143 
#    0.000    5.714    0.000    0.000    0.000    0.000 
#    0.000    0.000    0.000    0.000    0.000    0.000 
#
# Total GULP energy -155885.150617 kJ/mol
# GULP energy per Si atom -5567.326808 kJ/mol
# Density = 1.950561 g / cm^3
# Si number density = 19.550112 Si / 1000 Ang^3
#
#
#
# Elastic Constant Matrix: (Units=GPa)
#
#
# Indices 1 2 3 4 5 6 
#
# 1 129.6124 45.9471 21.1122 0.0000 0.0000 0.0000
# 2 45.9471 131.6510 43.1974 0.0000 0.0000 0.0000
# 3 21.1122 43.1974 67.1295 0.0000 0.0000 0.0000
# 4 0.0000 0.0000 0.0000 25.0899 0.0000 0.0000
# 5 0.0000 0.0000 0.0000 0.0000 17.8983 0.0000
# 6 0.0000 0.0000 0.0000 0.0000 0.0000 29.8511
#
#
#
# Elastic Compliance Matrix: (Units=1/GPa)
#
#
# Indices 1 2 3 4 5 6 
#
# 1 0.008858 -0.002760 -0.001010 0.000000 0.000000 0.000000
# 2 -0.002760 0.010489 -0.005882 0.000000 0.000000 0.000000
# 3 -0.001010 -0.005882 0.018999 0.000000 0.000000 0.000000
# 4 0.000000 0.000000 0.000000 0.039857 0.000000 0.000000
# 5 0.000000 0.000000 0.000000 0.000000 0.055871 0.000000
# 6 0.000000 0.000000 0.000000 0.000000 0.000000 0.033500
#
#
# Mechanical properties :
#
#
# Convention : Reuss Voigt Hill
#
# Bulk Modulus (GPa) = 52.51230 60.98959 56.75094
# Shear Modulus (GPa) = 25.87666 29.11029 27.49348
#
# Velocity S-wave (km/s) = 3.64209 3.86295 3.75415
# Velocity P-wave (km/s) = 6.67870 7.15268 6.91975
#
# Compressibility (1/GPa) = 0.01904316
#
# Stress axis : x y z
#
# Youngs Moduli (GPa) = 112.88856 95.33749 52.63475
#
# Poissons Ratio (x) = 0.26316 0.05315
# Poissons Ratio (y) = 0.31161 0.30957
# Poissons Ratio (z) = 0.11398 0.56073
#
# Static dielectric constant tensor:
#      x y z
#    x 1.760970 0.000000 0.000000 
#    y 0.000000 1.918910 0.000000 
#    z 0.000000 0.000000 1.812070 
# 
# From -- ./inp_files/17314.got.cif
#   From: 2010.05.17/outbox.cif.g08.bks.cpg/sg70_9_cif.got.tgz:17314.got - 2010.06.03 15:57:51.
