data_PCOD9515370
_publ_section_title
;
Structure prediction by ZEFSAII (Michael W. Deem and Ramdas Pophale) SiO2 
 PCOD9515370
Probable space group: F D D D
;
_chemical_formula_sum "Si O2"
_cell_formula_units_Z 176
_cell_length_a 18.033093
_cell_length_b 27.730674
_cell_length_c 14.834448
_cell_angle_alpha 90.000000
_cell_angle_beta 90.000000
_cell_angle_gamma 90.000000
_cell_volume 7418.259789
_symmetry_space_group_name_H-M "F D D D"
_symmetry_group_IT_number 70
_space_group.IT_coordinate_system_code '2'
_symmetry_cell_setting 'orthorhombic'
loop_
_space_group_symop_operation_xyz
x,y,z
1/4-x,1/4-y,z
x,1/4-y,1/4-z
1/4-x,y,1/4-z
-x,-y,-z
3/4+x,3/4+y,-z
-x,3/4+y,3/4+z
3/4+x,-y,3/4+z
x,1/2+y,1/2+z
1/4-x,3/4-y,1/2+z
x,3/4-y,3/4-z
1/4-x,1/2+y,3/4-z
-x,1/2-y,1/2-z
3/4+x,1/4+y,1/2-z
-x,1/4+y,1/4+z
3/4+x,1/2-y,1/4+z
1/2+x,y,1/2+z
3/4-x,1/4-y,1/2+z
1/2+x,1/4-y,3/4-z
3/4-x,y,3/4-z
1/2-x,-y,1/2-z
1/4+x,3/4+y,1/2-z
1/2-x,3/4+y,1/4+z
1/4+x,-y,1/4+z
1/2+x,1/2+y,z
3/4-x,3/4-y,z
1/2+x,3/4-y,1/4-z
3/4-x,1/2+y,1/4-z
1/2-x,1/2-y,-z
1/4+x,1/4+y,-z
1/2-x,1/4+y,3/4+z
1/4+x,1/2-y,3/4+z
loop_
_atom_site_type_symbol
_atom_site_label
_atom_site_fract_x
_atom_site_fract_y
_atom_site_fract_z
Si Si1 0.002685 0.068769 0.098725
Si Si2 0.745539 0.807575 0.514331
Si Si3 0.259479 0.033001 0.949798
Si Si4 0.582716 0.691264 0.497356
Si Si5 0.159578 0.521353 0.804139
Si Si6 0.982217 0.625000 0.125000
O O1 0.992332 0.125000 0.125000
O O2 0.003399 0.049225 0.199431
O O3 0.943086 0.032789 0.049613
O O4 0.072025 0.054467 0.033435
O O5 0.750000 0.750000 0.500000
O O6 0.723433 0.818164 0.617119
O O7 0.831521 0.823275 0.500493
O O8 0.695477 0.836387 0.442684
O O9 0.177093 0.014173 0.926952
O O10 0.322183 0.993033 0.956341
O O11 0.561047 0.699517 0.392541
O O12 0.529284 0.658155 0.556343
#
# Coordination Sequence:
#
# PCOD9515370 Si02
#       6
#    32  32  32  32  32  16
#     4  10  21  39  62  88 118 157 208 251 297 361
#     4  11  22  37  60  87 118 157 200 252 303 358
#     4  10  21  38  59  86 119 158 196 245 309 358
#     4  10  21  38  59  87 120 155 198 247 304 361
#     4   9  21  39  59  86 123 155 193 256 305 350
#     4  12  23  38  60  88 118 154 202 249 298 371
#
# _framework density 23.725239999999999
#
# number of rings (size 3 to 8) (size 9 to 14) (size 15 to 20)
#    0.000    1.818    1.818    2.182    2.545    1.455 
#    1.636    0.000    0.000    0.000    0.000    0.000 
#    0.000    0.000    0.000    0.000    0.000    0.000 
#
# Total GULP energy -245145.452983 kJ/mol
# GULP energy per Si atom -5571.487568 kJ/mol
# Density = 2.367124 g / cm^3
# Si number density = 23.725240 Si / 1000 Ang^3
#
#
#
# Elastic Constant Matrix: (Units=GPa)
#
#
# Indices 1 2 3 4 5 6 
#
# 1 32.5980 0.1316 14.0081 0.0000 0.0000 0.0000
# 2 0.1316 92.3225 60.1310 0.0000 0.0000 0.0000
# 3 14.0081 60.1310 186.5728 0.0000 0.0000 0.0000
# 4 0.0000 0.0000 0.0000 34.1757 0.0000 0.0000
# 5 0.0000 0.0000 0.0000 0.0000 26.2318 0.0000
# 6 0.0000 0.0000 0.0000 0.0000 0.0000 16.4202
#
#
#
# Elastic Compliance Matrix: (Units=1/GPa)
#
#
# Indices 1 2 3 4 5 6 
#
# 1 0.031966 0.001921 -0.003019 0.000000 0.000000 0.000000
# 2 0.001921 0.013825 -0.004600 0.000000 0.000000 0.000000
# 3 -0.003019 -0.004600 0.007069 0.000000 0.000000 0.000000
# 4 0.000000 0.000000 0.000000 0.029261 0.000000 0.000000
# 5 0.000000 0.000000 0.000000 0.000000 0.038122 0.000000
# 6 0.000000 0.000000 0.000000 0.000000 0.000000 0.060901
#
#
# Mechanical properties :
#
#
# Convention : Reuss Voigt Hill
#
# Bulk Modulus (GPa) = 24.11734 51.11497 37.61616
# Shear Modulus (GPa) = 24.22941 31.18037 27.70489
#
# Velocity S-wave (km/s) = 3.19917 3.62916 3.42093
# Velocity P-wave (km/s) = 4.88196 6.25719 5.61186
#
# Compressibility (1/GPa) = 0.04146394
#
# Stress axis : x y z
#
# Youngs Moduli (GPa) = 31.28282 72.33368 141.46229
#
# Poissons Ratio (x) = -0.13894 0.42710
# Poissons Ratio (y) = -0.06009 0.65071
# Poissons Ratio (z) = 0.09445 0.33272
#
# Static dielectric constant tensor:
#      x y z
#    x 1.964100 0.000000 0.000000 
#    y 0.000000 2.065160 0.000000 
#    z 0.000000 0.000000 1.979790 
# 
# From -- ./inp_files/28946.got.cif
#   From: 2010.05.17/outbox.cif.g08.bks.cpg/sg70_15_cif.got.tgz:28946.got - 2010.06.03 15:57:51.
