data_PCOD9515716
_publ_section_title
;
Structure prediction by ZEFSAII (Michael W. Deem and Ramdas Pophale) SiO2 
 PCOD9515716
Probable space group: F D D D
;
_chemical_formula_sum "Si O2"
_cell_formula_units_Z 104
_cell_length_a 14.462928
_cell_length_b 10.731636
_cell_length_c 25.785609
_cell_angle_alpha 90.000000
_cell_angle_beta 90.000000
_cell_angle_gamma 90.000000
_cell_volume 4002.207033
_symmetry_space_group_name_H-M "F D D D"
_symmetry_group_IT_number 70
_space_group.IT_coordinate_system_code '2'
_symmetry_cell_setting 'orthorhombic'
loop_
_space_group_symop_operation_xyz
x,y,z
1/4-x,1/4-y,z
x,1/4-y,1/4-z
1/4-x,y,1/4-z
-x,-y,-z
3/4+x,3/4+y,-z
-x,3/4+y,3/4+z
3/4+x,-y,3/4+z
x,1/2+y,1/2+z
1/4-x,3/4-y,1/2+z
x,3/4-y,3/4-z
1/4-x,1/2+y,3/4-z
-x,1/2-y,1/2-z
3/4+x,1/4+y,1/2-z
-x,1/4+y,1/4+z
3/4+x,1/2-y,1/4+z
1/2+x,y,1/2+z
3/4-x,1/4-y,1/2+z
1/2+x,1/4-y,3/4-z
3/4-x,y,3/4-z
1/2-x,-y,1/2-z
1/4+x,3/4+y,1/2-z
1/2-x,3/4+y,1/4+z
1/4+x,-y,1/4+z
1/2+x,1/2+y,z
3/4-x,3/4-y,z
1/2+x,3/4-y,1/4-z
3/4-x,1/2+y,1/4-z
1/2-x,1/2-y,-z
1/4+x,1/4+y,-z
1/2-x,1/4+y,3/4+z
1/4+x,1/2-y,3/4+z
loop_
_atom_site_type_symbol
_atom_site_label
_atom_site_fract_x
_atom_site_fract_y
_atom_site_fract_z
Si Si1 0.970692 0.945084 0.764924
Si Si2 0.375000 0.375000 0.375000
Si Si3 0.136958 0.467349 0.828139
Si Si4 0.969750 0.624312 0.896979
O O1 0.875000 0.875000 0.779033
O O2 0.050973 0.851798 0.783922
O O3 0.950931 0.986596 0.705882
O O4 0.988011 0.069393 0.797102
O O5 0.307995 0.478365 0.347958
O O6 0.114917 0.375000 0.875000
O O7 0.202936 0.564695 0.859676
O O8 0.875000 0.681836 0.875000
#
# Coordination Sequence:
#
# PCOD9515716 Si02
#       4
#    32   8  32  32
#     4  11  19  34  64  94 119 162 213 269 334 371
#     4   8  16  32  54  80 116 160 196 242 318 384
#     4  10  22  37  65  99 125 158 220 276 320 390
#     4   9  18  33  59  91 115 161 210 254 317 390
#
# _framework density 25.985662999999999
#
# number of rings (size 3 to 8) (size 9 to 14) (size 15 to 20)
#    0.923    1.231    3.077    0.923    0.000    0.000 
#    0.000    0.000   16.923   22.154   16.000    0.000 
#    0.000    0.000    0.000    0.000    0.000    0.000 
#
# Total GULP energy -144811.513043 kJ/mol
# GULP energy per Si atom -5569.673579 kJ/mol
# Density = 2.592652 g / cm^3
# Si number density = 25.985663 Si / 1000 Ang^3
#
#
#
# Elastic Constant Matrix: (Units=GPa)
#
#
# Indices 1 2 3 4 5 6 
#
# 1 100.3692 30.2522 46.4816 0.0000 0.0000 0.0000
# 2 30.2522 171.8538 103.4774 0.0000 0.0000 0.0000
# 3 46.4816 103.4774 211.5044 0.0000 0.0000 0.0000
# 4 0.0000 0.0000 0.0000 143.7690 0.0000 0.0000
# 5 0.0000 0.0000 0.0000 0.0000 -25.8708 0.0000
# 6 0.0000 0.0000 0.0000 0.0000 0.0000 -4.1679
#
#
#
# Elastic Compliance Matrix: (Units=1/GPa)
#
#
# Indices 1 2 3 4 5 6 
#
# 1 0.011150 -0.000691 -0.002112 0.000000 0.000000 0.000000
# 2 -0.000691 0.008292 -0.003905 0.000000 0.000000 0.000000
# 3 -0.002112 -0.003905 0.007103 0.000000 0.000000 0.000000
# 4 0.000000 0.000000 0.000000 0.006956 0.000000 0.000000
# 5 0.000000 0.000000 0.000000 0.000000 -0.038654 0.000000
# 6 0.000000 0.000000 0.000000 0.000000 0.000000 -0.239928
#
#
# Mechanical properties :
#
#
# Convention : Reuss Voigt Hill
#
# Bulk Modulus (GPa) = 76.17294 93.79441 84.98367
# Shear Modulus (GPa) = -21.99834 42.98046 10.49106
#
# Velocity S-wave (km/s) = -2.91272 4.07136 2.01147
# Velocity P-wave (km/s) = 4.25031 7.63376 6.17817
#
# Compressibility (1/GPa) = 0.01312802
#
# Stress axis : x y z
#
# Youngs Moduli (GPa) = 89.68866 120.60231 140.79179
#
# Poissons Ratio (x) = 0.08332 0.29740
# Poissons Ratio (y) = 0.06196 0.54977
# Poissons Ratio (z) = 0.18945 0.47093
#
# Static dielectric constant tensor:
#      x y z
#    x 2.057820 0.000000 0.000000 
#    y 0.000000 2.239490 0.000000 
#    z 0.000000 0.000000 2.039090 
# 
# From -- ./inp_files/59189.got.cif
#   From: 2010.05.17/outbox.cif.g08.bks.cpg/sg70_30_cif.got.tgz:59189.got - 2010.06.03 15:57:51.
