data_PCOD9515927
_publ_section_title
;
Structure prediction by ZEFSAII (Michael W. Deem and Ramdas Pophale) SiO2 
 PCOD9515927
Probable space group: F D D D
;
_chemical_formula_sum "Si O2"
_cell_formula_units_Z 192
_cell_length_a 24.667310
_cell_length_b 14.236751
_cell_length_c 24.366998
_cell_angle_alpha 90.000000
_cell_angle_beta 90.000000
_cell_angle_gamma 90.000000
_cell_volume 8557.259628
_symmetry_space_group_name_H-M "F D D D"
_symmetry_group_IT_number 70
_space_group.IT_coordinate_system_code '2'
_symmetry_cell_setting 'orthorhombic'
loop_
_space_group_symop_operation_xyz
x,y,z
1/4-x,1/4-y,z
x,1/4-y,1/4-z
1/4-x,y,1/4-z
-x,-y,-z
3/4+x,3/4+y,-z
-x,3/4+y,3/4+z
3/4+x,-y,3/4+z
x,1/2+y,1/2+z
1/4-x,3/4-y,1/2+z
x,3/4-y,3/4-z
1/4-x,1/2+y,3/4-z
-x,1/2-y,1/2-z
3/4+x,1/4+y,1/2-z
-x,1/4+y,1/4+z
3/4+x,1/2-y,1/4+z
1/2+x,y,1/2+z
3/4-x,1/4-y,1/2+z
1/2+x,1/4-y,3/4-z
3/4-x,y,3/4-z
1/2-x,-y,1/2-z
1/4+x,3/4+y,1/2-z
1/2-x,3/4+y,1/4+z
1/4+x,-y,1/4+z
1/2+x,1/2+y,z
3/4-x,3/4-y,z
1/2+x,3/4-y,1/4-z
3/4-x,1/2+y,1/4-z
1/2-x,1/2-y,-z
1/4+x,1/4+y,-z
1/2-x,1/4+y,3/4+z
1/4+x,1/2-y,3/4+z
loop_
_atom_site_type_symbol
_atom_site_label
_atom_site_fract_x
_atom_site_fract_y
_atom_site_fract_z
Si Si1 0.766158 0.375000 0.875000
Si Si2 0.933280 0.625000 0.625000
Si Si3 0.760181 0.555981 0.376124
Si Si4 0.599721 0.855075 0.495980
Si Si5 0.510116 0.032136 0.789533
Si Si6 0.709977 0.782051 0.546119
Si Si7 0.352736 0.271962 0.804581
O O1 0.735724 0.307613 0.830598
O O2 0.799418 0.299265 0.909602
O O3 0.899874 0.623900 0.681279
O O4 0.971166 0.533012 0.626016
O O5 0.742793 0.621219 0.324768
O O6 0.758904 0.632426 0.424725
O O7 0.820199 0.515468 0.391714
O O8 0.548471 0.789408 0.509980
O O9 0.653944 0.809257 0.518848
O O10 0.601259 0.953229 0.529507
O O11 0.556988 0.028712 0.744152
O O12 0.750000 0.750000 0.500000
O O13 0.375000 0.375000 0.812591
#
# Coordination Sequence:
#
# PCOD9515927 Si02
#       7
#    16  16  32  32  32  32  32
#     4  10  22  42  76  95 142 189 230 303 367 414
#     4  12  24  45  69 101 140 192 226 297 364 424
#     4  10  24  42  69 100 137 184 235 286 358 433
#     4  11  26  43  68 101 141 177 243 290 358 439
#     4  11  24  47  67 103 142 179 244 299 350 439
#     4  10  23  44  69 104 141 181 242 298 351 441
#     4  11  24  44  69 103 142 191 229 299 360 418
#
# _framework density 22.437090000000001
#
# number of rings (size 3 to 8) (size 9 to 14) (size 15 to 20)
#    0.000    1.333    1.667    3.000    2.333   12.667 
#    0.000    1.667    0.000    0.000    0.000    0.000 
#    0.000    0.000    0.000    0.000    0.000    0.000 
#
# Total GULP energy -268170.646031 kJ/mol
# GULP energy per Si atom -5586.888459 kJ/mol
# Density = 2.238602 g / cm^3
# Si number density = 22.437090 Si / 1000 Ang^3
#
#
#
# Elastic Constant Matrix: (Units=GPa)
#
#
# Indices 1 2 3 4 5 6 
#
# 1 43.4827 25.2881 39.4735 0.0000 0.0000 0.0000
# 2 25.2881 152.4822 59.7298 0.0000 0.0000 0.0000
# 3 39.4735 59.7298 161.3969 0.0000 0.0000 0.0000
# 4 0.0000 0.0000 0.0000 27.7064 0.0000 0.0000
# 5 0.0000 0.0000 0.0000 0.0000 26.5548 0.0000
# 6 0.0000 0.0000 0.0000 0.0000 0.0000 23.5405
#
#
#
# Elastic Compliance Matrix: (Units=1/GPa)
#
#
# Indices 1 2 3 4 5 6 
#
# 1 0.030346 -0.002486 -0.006502 0.000000 0.000000 0.000000
# 2 -0.002486 0.007874 -0.002306 0.000000 0.000000 0.000000
# 3 -0.006502 -0.002306 0.008639 0.000000 0.000000 0.000000
# 4 0.000000 0.000000 0.000000 0.036093 0.000000 0.000000
# 5 0.000000 0.000000 0.000000 0.000000 0.037658 0.000000
# 6 0.000000 0.000000 0.000000 0.000000 0.000000 0.042480
#
#
# Mechanical properties :
#
#
# Convention : Reuss Voigt Hill
#
# Bulk Modulus (GPa) = 41.20019 67.37162 54.28591
# Shear Modulus (GPa) = 25.80418 31.08503 28.44460
#
# Velocity S-wave (km/s) = 3.39494 3.72618 3.56441
# Velocity P-wave (km/s) = 5.81119 6.97170 6.41773
#
# Compressibility (1/GPa) = 0.02427173
#
# Stress axis : x y z
#
# Youngs Moduli (GPa) = 32.95373 127.00573 115.74796
#
# Poissons Ratio (x) = 0.31570 0.75257
# Poissons Ratio (y) = 0.08191 0.26691
# Poissons Ratio (z) = 0.21426 0.29287
#
# Static dielectric constant tensor:
#      x y z
#    x 1.803660 0.000000 0.000000 
#    y 0.000000 1.826170 0.000000 
#    z 0.000000 0.000000 1.978830 
# 
# From -- ./inp_files/54369.got.cif
#   From: 2010.05.17/outbox.cif.g08.bks.cpg/sg70_28_cif.got.tgz:54369.got - 2010.06.03 15:57:51.
