data_PCOD9515040
_publ_section_title
;
Structure prediction by ZEFSAII (Michael W. Deem and Ramdas Pophale) SiO2 
 PCOD9515040
Probable space group: F D D D
;
_chemical_formula_sum "Si O2"
_cell_formula_units_Z 168
_cell_length_a 25.781668
_cell_length_b 15.317693
_cell_length_c 22.133987
_cell_angle_alpha 90.000000
_cell_angle_beta 90.000000
_cell_angle_gamma 90.000000
_cell_volume 8741.058427
_symmetry_space_group_name_H-M "F D D D"
_symmetry_group_IT_number 70
_space_group.IT_coordinate_system_code '2'
_symmetry_cell_setting 'orthorhombic'
loop_
_space_group_symop_operation_xyz
x,y,z
1/4-x,1/4-y,z
x,1/4-y,1/4-z
1/4-x,y,1/4-z
-x,-y,-z
3/4+x,3/4+y,-z
-x,3/4+y,3/4+z
3/4+x,-y,3/4+z
x,1/2+y,1/2+z
1/4-x,3/4-y,1/2+z
x,3/4-y,3/4-z
1/4-x,1/2+y,3/4-z
-x,1/2-y,1/2-z
3/4+x,1/4+y,1/2-z
-x,1/4+y,1/4+z
3/4+x,1/2-y,1/4+z
1/2+x,y,1/2+z
3/4-x,1/4-y,1/2+z
1/2+x,1/4-y,3/4-z
3/4-x,y,3/4-z
1/2-x,-y,1/2-z
1/4+x,3/4+y,1/2-z
1/2-x,3/4+y,1/4+z
1/4+x,-y,1/4+z
1/2+x,1/2+y,z
3/4-x,3/4-y,z
1/2+x,3/4-y,1/4-z
3/4-x,1/2+y,1/4-z
1/2-x,1/2-y,-z
1/4+x,1/4+y,-z
1/2-x,1/4+y,3/4+z
1/4+x,1/2-y,3/4+z
loop_
_atom_site_type_symbol
_atom_site_label
_atom_site_fract_x
_atom_site_fract_y
_atom_site_fract_z
Si Si1 0.875000 0.375000 0.684431
Si Si2 0.342378 0.223240 0.650194
Si Si3 0.375000 0.576395 0.375000
Si Si4 0.985340 0.869062 0.506423
Si Si5 0.625000 0.625000 0.125000
Si Si6 0.769704 0.986882 0.352419
Si Si7 0.915404 0.726778 0.962575
O O1 0.878168 0.290291 0.642412
O O2 0.926223 0.385853 0.723865
O O3 0.348596 0.125000 0.625000
O O4 0.281896 0.249130 0.641551
O O5 0.357646 0.233138 0.719943
O O6 0.425897 0.515240 0.367822
O O7 0.361511 0.643306 0.320330
O O8 0.011463 0.944403 0.547251
O O9 0.023553 0.790516 0.524258
O O10 0.983481 0.897032 0.436115
O O11 0.656442 0.559890 0.080461
#
# Coordination Sequence:
#
# PCOD9515040 Si02
#       7
#    16  32  16  32   8  32  32
#     4  10  23  36  58  90 120 159 206 248 308 372
#     4  11  21  39  59  86 123 166 197 251 314 371
#     4   9  20  35  61  90 115 154 204 259 299 369
#     4   9  18  36  57  80 117 152 195 253 294 364
#     4  10  22  40  64  88 122 172 208 252 308 370
#     4   9  18  35  57  83 114 150 196 245 310 349
#     4  10  20  39  60  86 124 163 205 250 307 370
#
# _framework density 19.219639999999998
#
# number of rings (size 3 to 8) (size 9 to 14) (size 15 to 20)
#    0.000    2.286    1.905    0.571    2.667    1.524 
#    1.714    0.000    0.000    9.143    0.000    0.000 
#    0.000    0.000    0.000    0.000    0.000    0.000 
#
# Total GULP energy -233997.892400 kJ/mol
# GULP energy per Si atom -5571.378390 kJ/mol
# Density = 1.917590 g / cm^3
# Si number density = 19.219640 Si / 1000 Ang^3
#
#
#
# Elastic Constant Matrix: (Units=GPa)
#
#
# Indices 1 2 3 4 5 6 
#
# 1 78.7538 7.1513 27.5896 0.0000 0.0000 0.0000
# 2 7.1513 70.6681 20.9742 0.0000 0.0000 0.0000
# 3 27.5896 20.9742 131.3386 0.0000 0.0000 0.0000
# 4 0.0000 0.0000 0.0000 49.2695 0.0000 0.0000
# 5 0.0000 0.0000 0.0000 0.0000 14.9057 0.0000
# 6 0.0000 0.0000 0.0000 0.0000 0.0000 21.4878
#
#
#
# Elastic Compliance Matrix: (Units=1/GPa)
#
#
# Indices 1 2 3 4 5 6 
#
# 1 0.013728 -0.000560 -0.002794 0.000000 0.000000 0.000000
# 2 -0.000560 0.014878 -0.002258 0.000000 0.000000 0.000000
# 3 -0.002794 -0.002258 0.008562 0.000000 0.000000 0.000000
# 4 0.000000 0.000000 0.000000 0.020297 0.000000 0.000000
# 5 0.000000 0.000000 0.000000 0.000000 0.067088 0.000000
# 6 0.000000 0.000000 0.000000 0.000000 0.000000 0.046538
#
#
# Mechanical properties :
#
#
# Convention : Reuss Voigt Hill
#
# Bulk Modulus (GPa) = 38.54772 43.57673 41.06222
# Shear Modulus (GPa) = 26.18329 32.13564 29.15946
#
# Velocity S-wave (km/s) = 3.69497 4.09347 3.89931
# Velocity P-wave (km/s) = 6.18899 6.71299 6.45631
#
# Compressibility (1/GPa) = 0.02594187
#
# Stress axis : x y z
#
# Youngs Moduli (GPa) = 72.84628 67.21532 116.80168
#
# Poissons Ratio (x) = 0.03763 0.32638
# Poissons Ratio (y) = 0.04078 0.26377
# Poissons Ratio (z) = 0.20355 0.15179
#
# Static dielectric constant tensor:
#      x y z
#    x 1.648230 0.000000 0.000000 
#    y 0.000000 1.731460 0.000000 
#    z 0.000000 0.000000 1.698470 
# 
# From -- ./inp_files/37575.got.cif
#   From: 2010.05.17/outbox.cif.g08.bks.cpg/sg70_19_cif.got.tgz:37575.got - 2010.06.03 15:57:51.
