data_PCOD9515311
_publ_section_title
;
Structure prediction by ZEFSAII (Michael W. Deem and Ramdas Pophale) SiO2 
 PCOD9515311
Probable space group: F D D D
;
_chemical_formula_sum "Si O2"
_cell_formula_units_Z 152
_cell_length_a 9.816413
_cell_length_b 30.214921
_cell_length_c 21.957880
_cell_angle_alpha 90.000000
_cell_angle_beta 90.000000
_cell_angle_gamma 90.000000
_cell_volume 6512.754270
_symmetry_space_group_name_H-M "F D D D"
_symmetry_group_IT_number 70
_space_group.IT_coordinate_system_code '2'
_symmetry_cell_setting 'orthorhombic'
loop_
_space_group_symop_operation_xyz
x,y,z
1/4-x,1/4-y,z
x,1/4-y,1/4-z
1/4-x,y,1/4-z
-x,-y,-z
3/4+x,3/4+y,-z
-x,3/4+y,3/4+z
3/4+x,-y,3/4+z
x,1/2+y,1/2+z
1/4-x,3/4-y,1/2+z
x,3/4-y,3/4-z
1/4-x,1/2+y,3/4-z
-x,1/2-y,1/2-z
3/4+x,1/4+y,1/2-z
-x,1/4+y,1/4+z
3/4+x,1/2-y,1/4+z
1/2+x,y,1/2+z
3/4-x,1/4-y,1/2+z
1/2+x,1/4-y,3/4-z
3/4-x,y,3/4-z
1/2-x,-y,1/2-z
1/4+x,3/4+y,1/2-z
1/2-x,3/4+y,1/4+z
1/4+x,-y,1/4+z
1/2+x,1/2+y,z
3/4-x,3/4-y,z
1/2+x,3/4-y,1/4-z
3/4-x,1/2+y,1/4-z
1/2-x,1/2-y,-z
1/4+x,1/4+y,-z
1/2-x,1/4+y,3/4+z
1/4+x,1/2-y,3/4+z
loop_
_atom_site_type_symbol
_atom_site_label
_atom_site_fract_x
_atom_site_fract_y
_atom_site_fract_z
Si Si1 0.723575 0.183689 0.806177
Si Si2 0.375000 0.875000 0.375000
Si Si3 0.984175 0.473681 0.741159
Si Si4 0.375000 0.264901 0.875000
Si Si5 0.521157 0.584783 0.448841
Si Si6 0.270329 0.083805 0.218055
O O1 0.750036 0.233492 0.783252
O O2 0.715746 0.179290 0.878370
O O3 0.861952 0.156853 0.789210
O O4 0.580833 0.170441 0.775618
O O5 0.257421 0.872100 0.320854
O O6 0.037333 0.486827 0.673106
O O7 0.084318 0.435245 0.764912
O O8 0.832884 0.454762 0.738467
O O9 0.461160 0.298473 0.832755
O O10 0.625000 0.625000 0.457238
#
# Coordination Sequence:
#
# PCOD9515311 Si02
#       6
#    32   8  32  16  32  32
#     4  10  23  41  63  90 128 170 212 262 324 387
#     4  10  24  36  56  90 128 164 208 258 328 386
#     4  11  20  39  67  90 125 166 216 261 319 385
#     4   9  18  35  58  94 106 154 208 260 290 382
#     4  11  25  39  61  97 130 166 215 269 329 381
#     4  10  21  36  62  87 121 159 211 259 312 374
#
# _framework density 23.338819999999998
#
# number of rings (size 3 to 8) (size 9 to 14) (size 15 to 20)
#    0.000    1.684    0.000    5.684    4.421    3.368 
#    0.000    0.000    0.000    1.263    0.000    0.000 
#    0.000    0.000    0.000    0.000    0.000    0.000 
#
# Total GULP energy -211953.791021 kJ/mol
# GULP energy per Si atom -5577.731343 kJ/mol
# Density = 2.328570 g / cm^3
# Si number density = 23.338820 Si / 1000 Ang^3
#
#
#
# Elastic Constant Matrix: (Units=GPa)
#
#
# Indices 1 2 3 4 5 6 
#
# 1 131.3032 26.8758 23.2875 0.0000 0.0000 0.0000
# 2 26.8758 73.5174 5.2102 0.0000 0.0000 0.0000
# 3 23.2875 5.2102 96.0512 0.0000 0.0000 0.0000
# 4 0.0000 0.0000 0.0000 21.9030 0.0000 0.0000
# 5 0.0000 0.0000 0.0000 0.0000 9.4308 0.0000
# 6 0.0000 0.0000 0.0000 0.0000 0.0000 69.4497
#
#
#
# Elastic Compliance Matrix: (Units=1/GPa)
#
#
# Indices 1 2 3 4 5 6 
#
# 1 0.008569 -0.002997 -0.001915 0.000000 0.000000 0.000000
# 2 -0.002997 0.014703 -0.000071 0.000000 0.000000 0.000000
# 3 -0.001915 -0.000071 0.010879 0.000000 0.000000 0.000000
# 4 0.000000 0.000000 0.000000 0.045656 0.000000 0.000000
# 5 0.000000 0.000000 0.000000 0.000000 0.106036 0.000000
# 6 0.000000 0.000000 0.000000 0.000000 0.000000 0.014399
#
#
# Mechanical properties :
#
#
# Convention : Reuss Voigt Hill
#
# Bulk Modulus (GPa) = 41.34713 45.73542 43.54127
# Shear Modulus (GPa) = 22.90749 36.52326 29.71537
#
# Velocity S-wave (km/s) = 3.13632 3.96019 3.57209
# Velocity P-wave (km/s) = 5.55606 6.36786 5.97576
#
# Compressibility (1/GPa) = 0.02418548
#
# Stress axis : x y z
#
# Youngs Moduli (GPa) = 116.69963 68.01422 91.91809
#
# Poissons Ratio (x) = 0.20383 0.17602
# Poissons Ratio (y) = 0.34973 0.00652
# Poissons Ratio (z) = 0.22348 0.00483
#
# Static dielectric constant tensor:
#      x y z
#    x 1.827470 0.000000 0.000000 
#    y 0.000000 2.863790 0.000000 
#    z 0.000000 0.000000 1.898980 
# 
# From -- ./inp_files/51487.got.cif
#   From: 2010.05.17/outbox.cif.g08.bks.cpg/sg70_26_cif.got.tgz:51487.got - 2010.06.03 15:57:51.
