data_PCOD9515128
_publ_section_title
;
Structure prediction by ZEFSAII (Michael W. Deem and Ramdas Pophale) SiO2 
 PCOD9515128
Probable space group: F D D D
;
_chemical_formula_sum "Si O2"
_cell_formula_units_Z 176
_cell_length_a 33.760361
_cell_length_b 10.095139
_cell_length_c 22.474037
_cell_angle_alpha 90.000000
_cell_angle_beta 90.000000
_cell_angle_gamma 90.000000
_cell_volume 7659.500988
_symmetry_space_group_name_H-M "F D D D"
_symmetry_group_IT_number 70
_space_group.IT_coordinate_system_code '2'
_symmetry_cell_setting 'orthorhombic'
loop_
_space_group_symop_operation_xyz
x,y,z
1/4-x,1/4-y,z
x,1/4-y,1/4-z
1/4-x,y,1/4-z
-x,-y,-z
3/4+x,3/4+y,-z
-x,3/4+y,3/4+z
3/4+x,-y,3/4+z
x,1/2+y,1/2+z
1/4-x,3/4-y,1/2+z
x,3/4-y,3/4-z
1/4-x,1/2+y,3/4-z
-x,1/2-y,1/2-z
3/4+x,1/4+y,1/2-z
-x,1/4+y,1/4+z
3/4+x,1/2-y,1/4+z
1/2+x,y,1/2+z
3/4-x,1/4-y,1/2+z
1/2+x,1/4-y,3/4-z
3/4-x,y,3/4-z
1/2-x,-y,1/2-z
1/4+x,3/4+y,1/2-z
1/2-x,3/4+y,1/4+z
1/4+x,-y,1/4+z
1/2+x,1/2+y,z
3/4-x,3/4-y,z
1/2+x,3/4-y,1/4-z
3/4-x,1/2+y,1/4-z
1/2-x,1/2-y,-z
1/4+x,1/4+y,-z
1/2-x,1/4+y,3/4+z
1/4+x,1/2-y,3/4+z
loop_
_atom_site_type_symbol
_atom_site_label
_atom_site_fract_x
_atom_site_fract_y
_atom_site_fract_z
Si Si1 0.368908 0.570003 0.305499
Si Si2 0.676862 0.674766 0.187875
Si Si3 0.500002 0.710976 0.469805
Si Si4 0.124436 0.875000 0.875000
Si Si5 0.058599 0.272962 0.786143
Si Si6 0.316116 0.078199 0.231034
O O1 0.375000 0.548465 0.375000
O O2 0.355563 0.721484 0.290605
O O3 0.332960 0.492959 0.274846
O O4 0.409865 0.565430 0.271308
O O5 0.663953 0.625000 0.125000
O O6 0.715862 0.759933 0.172794
O O7 0.686716 0.560936 0.234654
O O8 0.530560 0.599383 0.449863
O O9 0.472119 0.646659 0.523103
O O10 0.524308 0.847350 0.474893
O O11 0.156266 0.954381 0.833831
O O12 0.093342 0.809985 0.828085
#
# Coordination Sequence:
#
# PCOD9515128 Si02
#       6
#    32  32  32  16  32  32
#     4  10  20  40  68  96 127 173 221 282 339 401
#     4  11  22  39  68  98 135 174 224 291 349 407
#     4  10  23  44  65  95 139 177 230 281 349 429
#     4  10  24  44  66 100 142 191 235 292 356 434
#     4   9  22  47  65  93 138 184 228 280 348 423
#     4  11  23  41  66 102 136 175 231 290 354 414
#
# _framework density 22.977996999999998
#
# number of rings (size 3 to 8) (size 9 to 14) (size 15 to 20)
#    0.000    1.818    1.818    1.091    1.273    4.364 
#   22.909    0.909    0.000    0.000    0.000    0.000 
#    0.000    0.000    0.000    0.000    0.000    0.000 
#
# Total GULP energy -245172.035688 kJ/mol
# GULP energy per Si atom -5572.091720 kJ/mol
# Density = 2.292570 g / cm^3
# Si number density = 22.977997 Si / 1000 Ang^3
#
#
#
# Elastic Constant Matrix: (Units=GPa)
#
#
# Indices 1 2 3 4 5 6 
#
# 1 147.7531 24.8576 42.2661 0.0000 0.0000 0.0000
# 2 24.8576 92.7013 20.0258 0.0000 0.0000 0.0000
# 3 42.2661 20.0258 104.1030 0.0000 0.0000 0.0000
# 4 0.0000 0.0000 0.0000 11.6135 0.0000 0.0000
# 5 0.0000 0.0000 0.0000 0.0000 145.3347 0.0000
# 6 0.0000 0.0000 0.0000 0.0000 0.0000 186.0536
#
#
#
# Elastic Compliance Matrix: (Units=1/GPa)
#
#
# Indices 1 2 3 4 5 6 
#
# 1 0.007847 -0.001477 -0.002902 0.000000 0.000000 0.000000
# 2 -0.001477 0.011533 -0.001619 0.000000 0.000000 0.000000
# 3 -0.002902 -0.001619 0.011095 0.000000 0.000000 0.000000
# 4 0.000000 0.000000 0.000000 0.086107 0.000000 0.000000
# 5 0.000000 0.000000 0.000000 0.000000 0.006881 0.000000
# 6 0.000000 0.000000 0.000000 0.000000 0.000000 0.005375
#
#
# Mechanical properties :
#
#
# Convention : Reuss Voigt Hill
#
# Bulk Modulus (GPa) = 54.11305 57.65071 55.88188
# Shear Modulus (GPa) = 34.01533 85.76087 59.88810
#
# Velocity S-wave (km/s) = 3.85170 6.11589 5.11076
# Velocity P-wave (km/s) = 6.58649 8.66118 7.69409
#
# Compressibility (1/GPa) = 0.01847983
#
# Stress axis : x y z
#
# Youngs Moduli (GPa) = 127.44381 86.70648 90.12805
#
# Poissons Ratio (x) = 0.12809 0.26151
# Poissons Ratio (y) = 0.18826 0.14590
# Poissons Ratio (z) = 0.36979 0.14036
#
# Static dielectric constant tensor:
#      x y z
#    x 1.862810 0.000000 0.000000 
#    y 0.000000 1.971570 0.000000 
#    z 0.000000 0.000000 1.851310 
# 
# From -- ./inp_files/54951.got.cif
#   From: 2010.05.17/outbox.cif.g08.bks.cpg/sg70_28_cif.got.tgz:54951.got - 2010.06.03 15:57:51.
