data_PCOD9515446
_publ_section_title
;
Structure prediction by ZEFSAII (Michael W. Deem and Ramdas Pophale) SiO2 
 PCOD9515446
Probable space group: F D D D
;
_chemical_formula_sum "Si O2"
_cell_formula_units_Z 216
_cell_length_a 28.024270
_cell_length_b 18.494348
_cell_length_c 20.791647
_cell_angle_alpha 90.000000
_cell_angle_beta 90.000000
_cell_angle_gamma 90.000000
_cell_volume 10776.115237
_symmetry_space_group_name_H-M "F D D D"
_symmetry_group_IT_number 70
_space_group.IT_coordinate_system_code '2'
_symmetry_cell_setting 'orthorhombic'
loop_
_space_group_symop_operation_xyz
x,y,z
1/4-x,1/4-y,z
x,1/4-y,1/4-z
1/4-x,y,1/4-z
-x,-y,-z
3/4+x,3/4+y,-z
-x,3/4+y,3/4+z
3/4+x,-y,3/4+z
x,1/2+y,1/2+z
1/4-x,3/4-y,1/2+z
x,3/4-y,3/4-z
1/4-x,1/2+y,3/4-z
-x,1/2-y,1/2-z
3/4+x,1/4+y,1/2-z
-x,1/4+y,1/4+z
3/4+x,1/2-y,1/4+z
1/2+x,y,1/2+z
3/4-x,1/4-y,1/2+z
1/2+x,1/4-y,3/4-z
3/4-x,y,3/4-z
1/2-x,-y,1/2-z
1/4+x,3/4+y,1/2-z
1/2-x,3/4+y,1/4+z
1/4+x,-y,1/4+z
1/2+x,1/2+y,z
3/4-x,3/4-y,z
1/2+x,3/4-y,1/4-z
3/4-x,1/2+y,1/4-z
1/2-x,1/2-y,-z
1/4+x,1/4+y,-z
1/2-x,1/4+y,3/4+z
1/4+x,1/2-y,3/4+z
loop_
_atom_site_type_symbol
_atom_site_label
_atom_site_fract_x
_atom_site_fract_y
_atom_site_fract_z
Si Si1 0.052032 0.382658 0.671908
Si Si2 0.147560 0.886628 0.943377
Si Si3 0.869297 0.478166 0.017610
Si Si4 0.453968 0.981289 0.418406
Si Si5 0.692593 0.119445 0.913555
Si Si6 0.875000 0.014125 0.375000
Si Si7 0.625000 0.125000 0.625000
Si Si8 0.809443 0.243680 0.566580
O O1 0.069810 0.400319 0.744252
O O2 0.058195 0.454606 0.630301
O O3 0.081335 0.319104 0.637393
O O4 0.997066 0.359189 0.669761
O O5 0.173804 0.875000 0.875000
O O6 0.122520 0.811792 0.964670
O O7 0.107330 0.946512 0.927460
O O8 0.818963 0.444996 0.036959
O O9 0.907843 0.433944 0.061767
O O10 0.874503 0.469835 0.941260
O O11 0.412378 0.922775 0.414276
O O12 0.509667 0.962392 0.404201
O O13 0.450641 0.007605 0.491079
O O14 0.684681 0.075270 0.846230
#
# Coordination Sequence:
#
# PCOD9515446 Si02
#       8
#    32  32  32  32  32  16   8  32
#     4  10  22  43  63  89 125 163 212 263 313 373
#     4  11  21  38  64  91 119 165 208 257 312 381
#     4  10  22  41  63  92 125 166 206 261 315 371
#     4  10  22  38  59  90 124 164 206 259 308 378
#     4  10  22  41  60  91 130 159 203 267 308 372
#     4  10  21  39  66  85 121 170 210 254 318 379
#     4  12  22  32  56  96 126 152 204 264 304 362
#     4  10  21  40  63  85 124 170 209 248 320 372
#
# _framework density 20.044329000000001
#
# number of rings (size 3 to 8) (size 9 to 14) (size 15 to 20)
#    0.000    1.778    1.481    3.111    1.037    4.741 
#    8.000    0.000    0.000    0.000    0.000    0.000 
#    0.000    0.000    0.000    0.000    0.000    0.000 
#
# Total GULP energy -300676.674389 kJ/mol
# GULP energy per Si atom -5568.086563 kJ/mol
# Density = 1.999871 g / cm^3
# Si number density = 20.044329 Si / 1000 Ang^3
#
#
#
# Elastic Constant Matrix: (Units=GPa)
#
#
# Indices 1 2 3 4 5 6 
#
# 1 111.9140 27.6408 31.4055 0.0000 0.0000 0.0000
# 2 27.6408 37.4441 26.8557 0.0000 0.0000 0.0000
# 3 31.4055 26.8557 130.1697 0.0000 0.0000 0.0000
# 4 0.0000 0.0000 0.0000 27.9346 0.0000 0.0000
# 5 0.0000 0.0000 0.0000 0.0000 24.4826 0.0000
# 6 0.0000 0.0000 0.0000 0.0000 0.0000 363.9353
#
#
#
# Elastic Compliance Matrix: (Units=1/GPa)
#
#
# Indices 1 2 3 4 5 6 
#
# 1 0.011074 -0.007345 -0.001156 0.000000 0.000000 0.000000
# 2 -0.007345 0.036217 -0.005700 0.000000 0.000000 0.000000
# 3 -0.001156 -0.005700 0.009137 0.000000 0.000000 0.000000
# 4 0.000000 0.000000 0.000000 0.035798 0.000000 0.000000
# 5 0.000000 0.000000 0.000000 0.000000 0.040845 0.000000
# 6 0.000000 0.000000 0.000000 0.000000 0.000000 0.002748
#
#
# Mechanical properties :
#
#
# Convention : Reuss Voigt Hill
#
# Bulk Modulus (GPa) = 35.68242 50.14799 42.91520
# Shear Modulus (GPa) = 28.80780 96.17887 62.49334
#
# Velocity S-wave (km/s) = 3.79516 6.93450 5.58974
# Velocity P-wave (km/s) = 6.08644 9.44400 7.94462
#
# Compressibility (1/GPa) = 0.02802500
#
# Stress axis : x y z
#
# Youngs Moduli (GPa) = 90.30052 27.61143 109.44258
#
# Poissons Ratio (x) = 0.20282 0.12655
# Poissons Ratio (y) = 0.66330 0.62380
# Poissons Ratio (z) = 0.10442 0.15738
#
# Static dielectric constant tensor:
#      x y z
#    x 1.757790 0.000000 0.000000 
#    y 0.000000 1.749390 0.000000 
#    z 0.000000 0.000000 1.797220 
# 
# From -- ./inp_files/45254.got.cif
#   From: 2010.05.17/outbox.cif.g08.bks.cpg/sg70_23_cif.got.tgz:45254.got - 2010.06.03 15:57:51.
