data_PCOD9515944
_publ_section_title
;
Structure prediction by ZEFSAII (Michael W. Deem and Ramdas Pophale) SiO2 
 PCOD9515944
Probable space group: F D D D
;
_chemical_formula_sum "Si O2"
_cell_formula_units_Z 192
_cell_length_a 11.836705
_cell_length_b 23.596409
_cell_length_c 33.637975
_cell_angle_alpha 90.000000
_cell_angle_beta 90.000000
_cell_angle_gamma 90.000000
_cell_volume 9395.211968
_symmetry_space_group_name_H-M "F D D D"
_symmetry_group_IT_number 70
_space_group.IT_coordinate_system_code '2'
_symmetry_cell_setting 'orthorhombic'
loop_
_space_group_symop_operation_xyz
x,y,z
1/4-x,1/4-y,z
x,1/4-y,1/4-z
1/4-x,y,1/4-z
-x,-y,-z
3/4+x,3/4+y,-z
-x,3/4+y,3/4+z
3/4+x,-y,3/4+z
x,1/2+y,1/2+z
1/4-x,3/4-y,1/2+z
x,3/4-y,3/4-z
1/4-x,1/2+y,3/4-z
-x,1/2-y,1/2-z
3/4+x,1/4+y,1/2-z
-x,1/4+y,1/4+z
3/4+x,1/2-y,1/4+z
1/2+x,y,1/2+z
3/4-x,1/4-y,1/2+z
1/2+x,1/4-y,3/4-z
3/4-x,y,3/4-z
1/2-x,-y,1/2-z
1/4+x,3/4+y,1/2-z
1/2-x,3/4+y,1/4+z
1/4+x,-y,1/4+z
1/2+x,1/2+y,z
3/4-x,3/4-y,z
1/2+x,3/4-y,1/4-z
3/4-x,1/2+y,1/4-z
1/2-x,1/2-y,-z
1/4+x,1/4+y,-z
1/2-x,1/4+y,3/4+z
1/4+x,1/2-y,3/4+z
loop_
_atom_site_type_symbol
_atom_site_label
_atom_site_fract_x
_atom_site_fract_y
_atom_site_fract_z
Si Si1 0.375000 0.375000 0.875000
Si Si2 0.875000 0.875000 0.375000
Si Si3 0.871435 0.487480 0.123460
Si Si4 0.879595 0.015148 0.260190
Si Si5 0.223403 0.808658 0.812534
Si Si6 0.318300 0.666966 0.683399
Si Si7 0.125000 0.808667 0.625000
Si Si8 0.940281 0.080984 0.412618
O O1 0.291674 0.343592 0.843837
O O2 0.805265 0.835886 0.345101
O O3 0.919211 0.503618 0.166531
O O4 0.891083 0.542415 0.095565
O O5 0.739024 0.476022 0.130067
O O6 0.932489 0.436712 0.099344
O O7 0.940302 0.047198 0.223837
O O8 0.859332 0.055697 0.297709
O O9 0.750000 0.000000 0.250000
O O10 0.953622 0.961738 0.274925
O O11 0.129229 0.857522 0.806632
O O12 0.092079 0.853023 0.590078
O O13 0.875000 0.054012 0.375000
#
# Coordination Sequence:
#
# PCOD9515944 Si02
#       8
#     8   8  32  32  32  32  16  32
#     4  12  24  52  72 102 146 194 270 294 380 462
#     4  12  18  38  72 102 130 194 236 296 358 428
#     4  12  20  44  72  99 137 192 246 289 364 442
#     4  12  25  44  67 109 148 182 237 316 377 432
#     4  12  23  41  71 104 141 182 248 294 365 448
#     4  12  26  44  72 105 138 193 241 317 359 445
#     4  10  25  39  71 100 135 196 235 295 360 446
#     4  10  22  43  67  99 140 186 239 299 367 456
#
# _framework density 20.435941
#
# number of rings (size 3 to 8) (size 9 to 14) (size 15 to 20)
#    0.500    0.000    6.667    3.000    0.000    1.333 
#    6.000    0.833    0.000    0.000    0.000    0.000 
#    0.000    0.000    0.000    0.000    0.000    0.000 
#
# Total GULP energy -267558.964008 kJ/mol
# GULP energy per Si atom -5574.145083 kJ/mol
# Density = 2.038943 g / cm^3
# Si number density = 20.435941 Si / 1000 Ang^3
#
#
#
# Elastic Constant Matrix: (Units=GPa)
#
#
# Indices 1 2 3 4 5 6 
#
# 1 119.6709 50.2188 50.9532 0.0000 0.0000 0.0000
# 2 50.2188 91.0758 39.5691 0.0000 0.0000 0.0000
# 3 50.9532 39.5691 124.4290 0.0000 0.0000 0.0000
# 4 0.0000 0.0000 0.0000 40.0518 0.0000 0.0000
# 5 0.0000 0.0000 0.0000 0.0000 19.8345 0.0000
# 6 0.0000 0.0000 0.0000 0.0000 0.0000 34.1221
#
#
#
# Elastic Compliance Matrix: (Units=1/GPa)
#
#
# Indices 1 2 3 4 5 6 
#
# 1 0.011896 -0.005155 -0.003232 0.000000 0.000000 0.000000
# 2 -0.005155 0.014974 -0.002651 0.000000 0.000000 0.000000
# 3 -0.003232 -0.002651 0.010203 0.000000 0.000000 0.000000
# 4 0.000000 0.000000 0.000000 0.024968 0.000000 0.000000
# 5 0.000000 0.000000 0.000000 0.000000 0.050417 0.000000
# 6 0.000000 0.000000 0.000000 0.000000 0.000000 0.029307
#
#
# Mechanical properties :
#
#
# Convention : Reuss Voigt Hill
#
# Bulk Modulus (GPa) = 66.67902 68.51756 67.59829
# Shear Modulus (GPa) = 29.61406 31.76398 30.68902
#
# Velocity S-wave (km/s) = 3.81086 3.94676 3.87940
# Velocity P-wave (km/s) = 7.21544 7.37360 7.29495
#
# Compressibility (1/GPa) = 0.01499722
#
# Stress axis : x y z
#
# Youngs Moduli (GPa) = 84.06490 66.78228 98.00916
#
# Poissons Ratio (x) = 0.34427 0.31675
# Poissons Ratio (y) = 0.43336 0.25981
# Poissons Ratio (z) = 0.27169 0.17703
#
# Static dielectric constant tensor:
#      x y z
#    x 1.782400 0.000000 0.000000 
#    y 0.000000 1.817340 0.000000 
#    z 0.000000 0.000000 1.610160 
# 
# From -- ./inp_files/65026.got.cif
#   From: 2010.05.17/outbox.cif.g08.bks.cpg/sg70_33_cif.got.tgz:65026.got - 2010.06.03 15:57:51.
