data_PCOD9515595
_publ_section_title
;
Structure prediction by ZEFSAII (Michael W. Deem and Ramdas Pophale) SiO2 
 PCOD9515595
Probable space group: F D D D
;
_chemical_formula_sum "Si O2"
_cell_formula_units_Z 176
_cell_length_a 13.204481
_cell_length_b 24.011285
_cell_length_c 24.899465
_cell_angle_alpha 90.000000
_cell_angle_beta 90.000000
_cell_angle_gamma 90.000000
_cell_volume 7894.538633
_symmetry_space_group_name_H-M "F D D D"
_symmetry_group_IT_number 70
_space_group.IT_coordinate_system_code '2'
_symmetry_cell_setting 'orthorhombic'
loop_
_space_group_symop_operation_xyz
x,y,z
1/4-x,1/4-y,z
x,1/4-y,1/4-z
1/4-x,y,1/4-z
-x,-y,-z
3/4+x,3/4+y,-z
-x,3/4+y,3/4+z
3/4+x,-y,3/4+z
x,1/2+y,1/2+z
1/4-x,3/4-y,1/2+z
x,3/4-y,3/4-z
1/4-x,1/2+y,3/4-z
-x,1/2-y,1/2-z
3/4+x,1/4+y,1/2-z
-x,1/4+y,1/4+z
3/4+x,1/2-y,1/4+z
1/2+x,y,1/2+z
3/4-x,1/4-y,1/2+z
1/2+x,1/4-y,3/4-z
3/4-x,y,3/4-z
1/2-x,-y,1/2-z
1/4+x,3/4+y,1/2-z
1/2-x,3/4+y,1/4+z
1/4+x,-y,1/4+z
1/2+x,1/2+y,z
3/4-x,3/4-y,z
1/2+x,3/4-y,1/4-z
3/4-x,1/2+y,1/4-z
1/2-x,1/2-y,-z
1/4+x,1/4+y,-z
1/2-x,1/4+y,3/4+z
1/4+x,1/2-y,3/4+z
loop_
_atom_site_type_symbol
_atom_site_label
_atom_site_fract_x
_atom_site_fract_y
_atom_site_fract_z
Si Si1 0.119119 0.317160 0.866420
Si Si2 0.493088 0.863898 0.076135
Si Si3 0.821305 0.094931 0.497906
Si Si4 0.227319 0.779560 0.148954
Si Si5 0.625000 0.483265 0.125000
Si Si6 0.221285 0.551185 0.711179
O O1 0.058885 0.375000 0.875000
O O2 0.151339 0.319079 0.805041
O O3 0.206860 0.318040 0.910924
O O4 0.062600 0.262013 0.882332
O O5 0.375000 0.875000 0.058517
O O6 0.507704 0.911848 0.120013
O O7 0.531285 0.807965 0.107833
O O8 0.578203 0.876964 0.029999
O O9 0.783102 0.044895 0.460689
O O10 0.735654 0.142826 0.503992
O O11 0.125000 0.754723 0.125000
O O12 0.631815 0.524002 0.176547
O O13 0.250000 0.500000 0.750000
#
# Coordination Sequence:
#
# PCOD9515595 Si02
#       6
#    32  32  32  32  16  32
#     4  10  24  44  63 100 142 181 242 304 366 444
#     4  11  21  40  71 105 145 197 255 299 366 458
#     4  10  22  46  67 100 149 191 244 306 374 442
#     4  10  21  42  67  93 137 188 242 302 358 441
#     4  12  22  42  73 118 147 192 250 308 380 450
#     4  11  22  43  71  99 144 187 233 305 369 441
#
# _framework density 22.293893000000001
#
# number of rings (size 3 to 8) (size 9 to 14) (size 15 to 20)
#    0.000    1.455    4.545    1.091    0.000    4.727 
#   13.091    9.545    0.000    0.000    0.000    0.000 
#    0.000    0.000    0.000    0.000    0.000    0.000 
#
# Total GULP energy -245192.294314 kJ/mol
# GULP energy per Si atom -5572.552143 kJ/mol
# Density = 2.224315 g / cm^3
# Si number density = 22.293893 Si / 1000 Ang^3
#
#
#
# Elastic Constant Matrix: (Units=GPa)
#
#
# Indices 1 2 3 4 5 6 
#
# 1 98.8429 51.1120 29.7780 0.0000 0.0000 0.0000
# 2 51.1120 96.2400 49.8728 0.0000 0.0000 0.0000
# 3 29.7780 49.8728 158.2275 0.0000 0.0000 0.0000
# 4 0.0000 0.0000 0.0000 55.8590 0.0000 0.0000
# 5 0.0000 0.0000 0.0000 0.0000 16.1830 0.0000
# 6 0.0000 0.0000 0.0000 0.0000 0.0000 30.3941
#
#
#
# Elastic Compliance Matrix: (Units=1/GPa)
#
#
# Indices 1 2 3 4 5 6 
#
# 1 0.013963 -0.007236 -0.000347 0.000000 0.000000 0.000000
# 2 -0.007236 0.016169 -0.003735 0.000000 0.000000 0.000000
# 3 -0.000347 -0.003735 0.007562 0.000000 0.000000 0.000000
# 4 0.000000 0.000000 0.000000 0.017902 0.000000 0.000000
# 5 0.000000 0.000000 0.000000 0.000000 0.061793 0.000000
# 6 0.000000 0.000000 0.000000 0.000000 0.000000 0.032901
#
#
# Mechanical properties :
#
#
# Convention : Reuss Voigt Hill
#
# Bulk Modulus (GPa) = 66.40342 68.31511 67.35927
# Shear Modulus (GPa) = 28.09836 35.32375 31.71105
#
# Velocity S-wave (km/s) = 3.55401 3.98484 3.77558
# Velocity P-wave (km/s) = 6.83311 7.20288 7.02043
#
# Compressibility (1/GPa) = 0.01505946
#
# Stress axis : x y z
#
# Youngs Moduli (GPa) = 71.61602 61.84699 132.23171
#
# Poissons Ratio (x) = 0.44752 0.04590
# Poissons Ratio (y) = 0.51821 0.49384
# Poissons Ratio (z) = 0.02486 0.23097
#
# Static dielectric constant tensor:
#      x y z
#    x 1.929310 0.000000 0.000000 
#    y 0.000000 1.885040 0.000000 
#    z 0.000000 0.000000 1.813230 
# 
# From -- ./inp_files/51360.got.cif
#   From: 2010.05.17/outbox.cif.g08.bks.cpg/sg70_26_cif.got.tgz:51360.got - 2010.06.03 15:57:51.
