data_PCOD9515439
_publ_section_title
;
Structure prediction by ZEFSAII (Michael W. Deem and Ramdas Pophale) SiO2 
 PCOD9515439
Probable space group: F D D D
;
_chemical_formula_sum "Si O2"
_cell_formula_units_Z 160
_cell_length_a 22.682897
_cell_length_b 22.601399
_cell_length_c 13.358151
_cell_angle_alpha 90.000000
_cell_angle_beta 90.000000
_cell_angle_gamma 90.000000
_cell_volume 6848.259228
_symmetry_space_group_name_H-M "F D D D"
_symmetry_group_IT_number 70
_space_group.IT_coordinate_system_code '2'
_symmetry_cell_setting 'orthorhombic'
loop_
_space_group_symop_operation_xyz
x,y,z
1/4-x,1/4-y,z
x,1/4-y,1/4-z
1/4-x,y,1/4-z
-x,-y,-z
3/4+x,3/4+y,-z
-x,3/4+y,3/4+z
3/4+x,-y,3/4+z
x,1/2+y,1/2+z
1/4-x,3/4-y,1/2+z
x,3/4-y,3/4-z
1/4-x,1/2+y,3/4-z
-x,1/2-y,1/2-z
3/4+x,1/4+y,1/2-z
-x,1/4+y,1/4+z
3/4+x,1/2-y,1/4+z
1/2+x,y,1/2+z
3/4-x,1/4-y,1/2+z
1/2+x,1/4-y,3/4-z
3/4-x,y,3/4-z
1/2-x,-y,1/2-z
1/4+x,3/4+y,1/2-z
1/2-x,3/4+y,1/4+z
1/4+x,-y,1/4+z
1/2+x,1/2+y,z
3/4-x,3/4-y,z
1/2+x,3/4-y,1/4-z
3/4-x,1/2+y,1/4-z
1/2-x,1/2-y,-z
1/4+x,1/4+y,-z
1/2-x,1/4+y,3/4+z
1/4+x,1/2-y,3/4+z
loop_
_atom_site_type_symbol
_atom_site_label
_atom_site_fract_x
_atom_site_fract_y
_atom_site_fract_z
Si Si1 0.099351 0.760177 0.516059
Si Si2 0.662109 0.765325 0.819190
Si Si3 0.659901 0.071303 0.230038
Si Si4 0.502024 0.094778 0.301135
Si Si5 0.489832 0.901573 0.265744
O O1 0.125000 0.749448 0.625000
O O2 0.151766 0.766304 0.436971
O O3 0.061250 0.820281 0.519607
O O4 0.056768 0.704234 0.492769
O O5 0.599631 0.742883 0.776262
O O6 0.706203 0.712541 0.787618
O O7 0.694227 0.822453 0.778919
O O8 0.625000 0.125000 0.287604
O O9 0.625000 0.067812 0.125000
O O10 0.724611 0.098998 0.237008
O O11 0.507434 0.110493 0.418560
O O12 0.473909 0.875000 0.375000
#
# Coordination Sequence:
#
# PCOD9515439 Si02
#       5
#    32  32  32  32  32
#     4  11  22  37  64  98 135 172 215 267 330 393
#     4  10  21  39  64  94 127 167 214 271 321 389
#     4   9  18  38  70  89 118 165 217 267 313 379
#     4  10  21  39  66  95 132 169 219 268 329 399
#     4  11  22  37  62  95 131 174 216 269 328 389
#
# _framework density 23.363600999999999
#
# number of rings (size 3 to 8) (size 9 to 14) (size 15 to 20)
#    0.000    1.800    2.000    2.400    0.000    5.200 
#    0.000    4.000   48.400    7.200    0.000    0.000 
#    0.000    0.000    0.000    0.000    0.000    0.000 
#
# Total GULP energy -223123.336138 kJ/mol
# GULP energy per Si atom -5578.083403 kJ/mol
# Density = 2.331042 g / cm^3
# Si number density = 23.363601 Si / 1000 Ang^3
#
#
#
# Elastic Constant Matrix: (Units=GPa)
#
#
# Indices 1 2 3 4 5 6 
#
# 1 51.3292 17.4443 -0.8542 0.0000 0.0000 0.0000
# 2 17.4443 45.4299 7.5689 0.0000 0.0000 0.0000
# 3 -0.8542 7.5689 85.9481 0.0000 0.0000 0.0000
# 4 0.0000 0.0000 0.0000 33.4201 0.0000 0.0000
# 5 0.0000 0.0000 0.0000 0.0000 71.9474 0.0000
# 6 0.0000 0.0000 0.0000 0.0000 0.0000 12.9629
#
#
#
# Elastic Compliance Matrix: (Units=1/GPa)
#
#
# Indices 1 2 3 4 5 6 
#
# 1 0.022490 -0.008802 0.000999 0.000000 0.000000 0.000000
# 2 -0.008802 0.025785 -0.002358 0.000000 0.000000 0.000000
# 3 0.000999 -0.002358 0.011853 0.000000 0.000000 0.000000
# 4 0.000000 0.000000 0.000000 0.029922 0.000000 0.000000
# 5 0.000000 0.000000 0.000000 0.000000 0.013899 0.000000
# 6 0.000000 0.000000 0.000000 0.000000 0.000000 0.077143
#
#
# Mechanical properties :
#
#
# Convention : Reuss Voigt Hill
#
# Bulk Modulus (GPa) = 25.12312 25.66946 25.39629
# Shear Modulus (GPa) = 23.29016 34.23597 28.76307
#
# Velocity S-wave (km/s) = 3.16073 3.83215 3.51252
# Velocity P-wave (km/s) = 4.90884 5.53094 5.22915
#
# Compressibility (1/GPa) = 0.03980397
#
# Stress axis : x y z
#
# Youngs Moduli (GPa) = 44.46396 38.78271 84.37024
#
# Poissons Ratio (x) = 0.34137 -0.08426
# Poissons Ratio (y) = 0.39138 0.19896
# Poissons Ratio (z) = -0.04440 0.09146
#
# Static dielectric constant tensor:
#      x y z
#    x 1.994410 0.000000 0.000000 
#    y 0.000000 1.938320 0.000000 
#    z 0.000000 0.000000 1.850420 
# 
# From -- ./inp_files/28631.got.cif
#   From: 2010.05.17/outbox.cif.g08.bks.cpg/sg70_15_cif.got.tgz:28631.got - 2010.06.03 15:57:51.
