data_PCOD9515516
_publ_section_title
;
Structure prediction by ZEFSAII (Michael W. Deem and Ramdas Pophale) SiO2 
 PCOD9515516
Probable space group: F D D D
;
_chemical_formula_sum "Si O2"
_cell_formula_units_Z 120
_cell_length_a 11.194286
_cell_length_b 28.127505
_cell_length_c 16.755861
_cell_angle_alpha 90.000000
_cell_angle_beta 90.000000
_cell_angle_gamma 90.000000
_cell_volume 5275.873306
_symmetry_space_group_name_H-M "F D D D"
_symmetry_group_IT_number 70
_space_group.IT_coordinate_system_code '2'
_symmetry_cell_setting 'orthorhombic'
loop_
_space_group_symop_operation_xyz
x,y,z
1/4-x,1/4-y,z
x,1/4-y,1/4-z
1/4-x,y,1/4-z
-x,-y,-z
3/4+x,3/4+y,-z
-x,3/4+y,3/4+z
3/4+x,-y,3/4+z
x,1/2+y,1/2+z
1/4-x,3/4-y,1/2+z
x,3/4-y,3/4-z
1/4-x,1/2+y,3/4-z
-x,1/2-y,1/2-z
3/4+x,1/4+y,1/2-z
-x,1/4+y,1/4+z
3/4+x,1/2-y,1/4+z
1/2+x,y,1/2+z
3/4-x,1/4-y,1/2+z
1/2+x,1/4-y,3/4-z
3/4-x,y,3/4-z
1/2-x,-y,1/2-z
1/4+x,3/4+y,1/2-z
1/2-x,3/4+y,1/4+z
1/4+x,-y,1/4+z
1/2+x,1/2+y,z
3/4-x,3/4-y,z
1/2+x,3/4-y,1/4-z
3/4-x,1/2+y,1/4-z
1/2-x,1/2-y,-z
1/4+x,1/4+y,-z
1/2-x,1/4+y,3/4+z
1/4+x,1/2-y,3/4+z
loop_
_atom_site_type_symbol
_atom_site_label
_atom_site_fract_x
_atom_site_fract_y
_atom_site_fract_z
Si Si1 0.375000 0.875000 0.625941
Si Si2 0.819989 0.132237 0.506610
Si Si3 0.728868 0.790575 0.192250
Si Si4 0.625000 0.625000 0.125000
Si Si5 0.637666 0.281143 0.028055
O O1 0.256481 0.879383 0.572708
O O2 0.408018 0.925790 0.665958
O O3 0.911632 0.174315 0.501612
O O4 0.718147 0.149831 0.567121
O O5 0.891147 0.083086 0.513647
O O6 0.625000 0.781665 0.125000
O O7 0.773367 0.744144 0.236799
O O8 0.625000 0.281548 0.125000
O O9 0.750000 0.250000 0.000000
#
# Coordination Sequence:
#
# PCOD9515516 Si02
#       5
#    16  32  32   8  32
#     4   9  18  43  63  88 121 180 212 272 333 414
#     4  10  22  41  64  91 135 175 225 273 348 395
#     4  10  21  40  68  93 128 181 226 275 338 408
#     4  10  24  40  64  94 130 172 230 292 320 396
#     4  12  26  42  66 101 138 176 224 281 342 410
#
# _framework density 22.745049000000002
#
# number of rings (size 3 to 8) (size 9 to 14) (size 15 to 20)
#    0.000    1.600    0.000    5.600    5.600    0.000 
#    0.000    6.667    0.000    0.000    0.000    0.000 
#    0.000    0.000    0.000    0.000    0.000    0.000 
#
# Total GULP energy -167119.241474 kJ/mol
# GULP energy per Si atom -5570.641382 kJ/mol
# Density = 2.269328 g / cm^3
# Si number density = 22.745049 Si / 1000 Ang^3
#
#
#
# Elastic Constant Matrix: (Units=GPa)
#
#
# Indices 1 2 3 4 5 6 
#
# 1 79.6637 9.9268 17.7630 0.0000 0.0000 0.0000
# 2 9.9268 57.9215 17.9422 0.0000 0.0000 0.0000
# 3 17.7630 17.9422 72.6005 0.0000 0.0000 0.0000
# 4 0.0000 0.0000 0.0000 12.5965 0.0000 0.0000
# 5 0.0000 0.0000 0.0000 0.0000 6.6023 0.0000
# 6 0.0000 0.0000 0.0000 0.0000 0.0000 13.0925
#
#
#
# Elastic Compliance Matrix: (Units=1/GPa)
#
#
# Indices 1 2 3 4 5 6 
#
# 1 0.013379 -0.001385 -0.002931 0.000000 0.000000 0.000000
# 2 -0.001385 0.018839 -0.004317 0.000000 0.000000 0.000000
# 3 -0.002931 -0.004317 0.015558 0.000000 0.000000 0.000000
# 4 0.000000 0.000000 0.000000 0.079387 0.000000 0.000000
# 5 0.000000 0.000000 0.000000 0.000000 0.151463 0.000000
# 6 0.000000 0.000000 0.000000 0.000000 0.000000 0.076380
#
#
# Mechanical properties :
#
#
# Convention : Reuss Voigt Hill
#
# Bulk Modulus (GPa) = 32.77600 33.49440 33.13520
# Shear Modulus (GPa) = 13.07389 17.42852 15.25121
#
# Velocity S-wave (km/s) = 2.40010 2.77114 2.59227
# Velocity P-wave (km/s) = 4.70342 4.99969 4.85381
#
# Compressibility (1/GPa) = 0.03051013
#
# Stress axis : x y z
#
# Youngs Moduli (GPa) = 74.74456 53.08031 64.27536
#
# Poissons Ratio (x) = 0.07351 0.18840
# Poissons Ratio (y) = 0.10352 0.27748
# Poissons Ratio (z) = 0.21908 0.22915
#
# Static dielectric constant tensor:
#      x y z
#    x 1.995250 0.000000 0.000000 
#    y 0.000000 9.657060 0.000000 
#    z 0.000000 0.000000 2.085110 
# 
# From -- ./inp_files/17591.got.cif
#   From: 2010.05.17/outbox.cif.g08.bks.cpg/sg70_9_cif.got.tgz:17591.got - 2010.06.03 15:57:51.
