data_PCOD9515280
_publ_section_title
;
Structure prediction by ZEFSAII (Michael W. Deem and Ramdas Pophale) SiO2 
 PCOD9515280
Probable space group: F D D D
;
_chemical_formula_sum "Si O2"
_cell_formula_units_Z 176
_cell_length_a 9.477537
_cell_length_b 25.847111
_cell_length_c 35.491201
_cell_angle_alpha 90.000000
_cell_angle_beta 90.000000
_cell_angle_gamma 90.000000
_cell_volume 8694.171291
_symmetry_space_group_name_H-M "F D D D"
_symmetry_group_IT_number 70
_space_group.IT_coordinate_system_code '2'
_symmetry_cell_setting 'orthorhombic'
loop_
_space_group_symop_operation_xyz
x,y,z
1/4-x,1/4-y,z
x,1/4-y,1/4-z
1/4-x,y,1/4-z
-x,-y,-z
3/4+x,3/4+y,-z
-x,3/4+y,3/4+z
3/4+x,-y,3/4+z
x,1/2+y,1/2+z
1/4-x,3/4-y,1/2+z
x,3/4-y,3/4-z
1/4-x,1/2+y,3/4-z
-x,1/2-y,1/2-z
3/4+x,1/4+y,1/2-z
-x,1/4+y,1/4+z
3/4+x,1/2-y,1/4+z
1/2+x,y,1/2+z
3/4-x,1/4-y,1/2+z
1/2+x,1/4-y,3/4-z
3/4-x,y,3/4-z
1/2-x,-y,1/2-z
1/4+x,3/4+y,1/2-z
1/2-x,3/4+y,1/4+z
1/4+x,-y,1/4+z
1/2+x,1/2+y,z
3/4-x,3/4-y,z
1/2+x,3/4-y,1/4-z
3/4-x,1/2+y,1/4-z
1/2-x,1/2-y,-z
1/4+x,1/4+y,-z
1/2-x,1/4+y,3/4+z
1/4+x,1/2-y,3/4+z
loop_
_atom_site_type_symbol
_atom_site_label
_atom_site_fract_x
_atom_site_fract_y
_atom_site_fract_z
Si Si1 0.275489 0.716949 0.463029
Si Si2 0.625000 0.625000 0.485559
Si Si3 0.625000 0.125000 0.747075
Si Si4 0.866772 0.625000 0.125000
Si Si5 0.533129 0.990947 0.385608
Si Si6 0.346332 0.657400 0.042453
Si Si7 0.108564 0.522072 0.306682
O O1 0.250000 0.750000 0.500000
O O2 0.214361 0.661885 0.475386
O O3 0.189350 0.738802 0.427291
O O4 0.440882 0.723108 0.452981
O O5 0.756353 0.622388 0.514156
O O6 0.662092 0.674320 0.460062
O O7 0.510260 0.099397 0.719030
O O8 0.788120 0.678692 0.115820
O O9 0.938006 0.610531 0.085061
O O10 0.375000 0.006915 0.375000
O O11 0.624893 0.014441 0.351657
O O12 0.324963 0.719463 0.039643
#
# Coordination Sequence:
#
# PCOD9515280 Si02
#       7
#    32  16  16  16  32  32  32
#     4  11  20  36  61  92 126 150 205 260 305 355
#     4  12  24  42  62  82 126 172 204 250 299 377
#     4  12  22  36  64  94 116 156 198 258 310 358
#     4  10  21  35  60  90 122 156 194 260 308 364
#     4   9  20  34  57  90 124 157 196 251 310 361
#     4  11  24  38  63  92 120 158 207 247 316 362
#     4  10  22  40  59  86 122 166 202 249 301 375
#
# _framework density 20.243447
#
# number of rings (size 3 to 8) (size 9 to 14) (size 15 to 20)
#    0.000    1.455    3.636    1.909    5.091    1.091 
#    0.000    0.000    0.000    0.000    0.000    0.000 
#    0.000    0.000    0.000    0.000    0.000    0.000 
#
# Total GULP energy -245096.267605 kJ/mol
# GULP energy per Si atom -5570.369718 kJ/mol
# Density = 2.019737 g / cm^3
# Si number density = 20.243447 Si / 1000 Ang^3
#
#
#
# Elastic Constant Matrix: (Units=GPa)
#
#
# Indices 1 2 3 4 5 6 
#
# 1 24.5128 -6.8269 2.5562 0.0000 0.0000 0.0000
# 2 -6.8269 88.5094 57.9357 0.0000 0.0000 0.0000
# 3 2.5562 57.9357 143.8462 0.0000 0.0000 0.0000
# 4 0.0000 0.0000 0.0000 36.9125 0.0000 0.0000
# 5 0.0000 0.0000 0.0000 0.0000 11.0196 0.0000
# 6 0.0000 0.0000 0.0000 0.0000 0.0000 21.0249
#
#
#
# Elastic Compliance Matrix: (Units=1/GPa)
#
#
# Indices 1 2 3 4 5 6 
#
# 1 0.042516 0.005125 -0.002820 0.000000 0.000000 0.000000
# 2 0.005125 0.015961 -0.006520 0.000000 0.000000 0.000000
# 3 -0.002820 -0.006520 0.009628 0.000000 0.000000 0.000000
# 4 0.000000 0.000000 0.000000 0.027091 0.000000 0.000000
# 5 0.000000 0.000000 0.000000 0.000000 0.090747 0.000000
# 6 0.000000 0.000000 0.000000 0.000000 0.000000 0.047563
#
#
# Mechanical properties :
#
#
# Convention : Reuss Voigt Hill
#
# Bulk Modulus (GPa) = 16.75690 40.46648 28.61169
# Shear Modulus (GPa) = 19.09658 27.33830 23.21744
#
# Velocity S-wave (km/s) = 3.07473 3.67887 3.39028
# Velocity P-wave (km/s) = 4.57175 6.17080 5.43045
#
# Compressibility (1/GPa) = 0.05967691
#
# Stress axis : x y z
#
# Youngs Moduli (GPa) = 23.52032 62.65245 103.86580
#
# Poissons Ratio (x) = -0.32110 0.29287
# Poissons Ratio (y) = -0.12054 0.67716
# Poissons Ratio (z) = 0.06632 0.40847
#
# Static dielectric constant tensor:
#      x y z
#    x 1.761240 0.000000 0.000000 
#    y 0.000000 1.576100 0.000000 
#    z 0.000000 0.000000 1.728040 
# 
# From -- ./inp_files/64929.got.cif
#   From: 2010.05.17/outbox.cif.g08.bks.cpg/sg70_33_cif.got.tgz:64929.got - 2010.06.03 15:57:51.
