data_PCOD9515300
_publ_section_title
;
Structure prediction by ZEFSAII (Michael W. Deem and Ramdas Pophale) SiO2 
 PCOD9515300
Probable space group: F D D D
;
_chemical_formula_sum "Si O2"
_cell_formula_units_Z 208
_cell_length_a 20.267305
_cell_length_b 16.731886
_cell_length_c 28.056299
_cell_angle_alpha 90.000000
_cell_angle_beta 90.000000
_cell_angle_gamma 90.000000
_cell_volume 9514.178197
_symmetry_space_group_name_H-M "F D D D"
_symmetry_group_IT_number 70
_space_group.IT_coordinate_system_code '2'
_symmetry_cell_setting 'orthorhombic'
loop_
_space_group_symop_operation_xyz
x,y,z
1/4-x,1/4-y,z
x,1/4-y,1/4-z
1/4-x,y,1/4-z
-x,-y,-z
3/4+x,3/4+y,-z
-x,3/4+y,3/4+z
3/4+x,-y,3/4+z
x,1/2+y,1/2+z
1/4-x,3/4-y,1/2+z
x,3/4-y,3/4-z
1/4-x,1/2+y,3/4-z
-x,1/2-y,1/2-z
3/4+x,1/4+y,1/2-z
-x,1/4+y,1/4+z
3/4+x,1/2-y,1/4+z
1/2+x,y,1/2+z
3/4-x,1/4-y,1/2+z
1/2+x,1/4-y,3/4-z
3/4-x,y,3/4-z
1/2-x,-y,1/2-z
1/4+x,3/4+y,1/2-z
1/2-x,3/4+y,1/4+z
1/4+x,-y,1/4+z
1/2+x,1/2+y,z
3/4-x,3/4-y,z
1/2+x,3/4-y,1/4-z
3/4-x,1/2+y,1/4-z
1/2-x,1/2-y,-z
1/4+x,1/4+y,-z
1/2-x,1/4+y,3/4+z
1/4+x,1/2-y,3/4+z
loop_
_atom_site_type_symbol
_atom_site_label
_atom_site_fract_x
_atom_site_fract_y
_atom_site_fract_z
Si Si1 0.321545 0.946988 0.640709
Si Si2 0.841932 0.217640 0.569820
Si Si3 0.121444 0.033183 0.485071
Si Si4 0.380753 0.619153 0.773626
Si Si5 0.480360 0.986540 0.291138
Si Si6 0.235669 0.124347 0.301376
Si Si7 0.518996 0.125000 0.625000
O O1 0.375000 0.875000 0.643925
O O2 0.356778 0.017153 0.611711
O O3 0.313701 0.970954 0.695306
O O4 0.268537 0.914130 0.603590
O O5 0.872405 0.159720 0.530963
O O6 0.817387 0.302722 0.548784
O O7 0.777173 0.180001 0.592281
O O8 0.125000 0.125000 0.502147
O O9 0.191400 0.008443 0.459196
O O10 0.112079 0.964485 0.524047
O O11 0.441139 0.568960 0.792860
O O12 0.310234 0.594806 0.795306
O O13 0.471818 0.937145 0.241534
O O14 0.452107 0.933859 0.334993
#
# Coordination Sequence:
#
# PCOD9515300 Si02
#       7
#    32  32  32  32  32  32  16
#     4   9  17  32  61  87 112 155 214 259 305 357
#     4  11  18  35  62  85 120 168 207 251 292 384
#     4  10  21  39  64  88 118 160 222 278 309 363
#     4  11  22  37  59  91 132 163 214 256 319 383
#     4  11  23  38  59  94 126 168 204 257 326 382
#     4  10  21  36  59  88 126 167 206 253 310 385
#     4  12  22  38  61  92 134 162 213 252 316 384
#
# _framework density 21.862110000000001
#
# number of rings (size 3 to 8) (size 9 to 14) (size 15 to 20)
#    0.000    1.538    6.154    0.462    0.000    0.615 
#    0.000    1.538    0.000    0.000    0.000    0.000 
#    0.000    0.000    0.000    0.000    0.000    0.000 
#
# Total GULP energy -290166.852978 kJ/mol
# GULP energy per Si atom -5580.131788 kJ/mol
# Density = 2.181235 g / cm^3
# Si number density = 21.862110 Si / 1000 Ang^3
#
#
#
# Elastic Constant Matrix: (Units=GPa)
#
#
# Indices 1 2 3 4 5 6 
#
# 1 35.1079 22.1853 5.4006 0.0000 0.0000 0.0000
# 2 22.1853 124.1617 20.3476 0.0000 0.0000 0.0000
# 3 5.4006 20.3476 44.7573 0.0000 0.0000 0.0000
# 4 0.0000 0.0000 0.0000 29.8331 0.0000 0.0000
# 5 0.0000 0.0000 0.0000 0.0000 -66.1454 0.0000
# 6 0.0000 0.0000 0.0000 0.0000 0.0000 104.2342
#
#
#
# Elastic Compliance Matrix: (Units=1/GPa)
#
#
# Indices 1 2 3 4 5 6 
#
# 1 0.032187 -0.005526 -0.001371 0.000000 0.000000 0.000000
# 2 -0.005526 0.009651 -0.003721 0.000000 0.000000 0.000000
# 3 -0.001371 -0.003721 0.024200 0.000000 0.000000 0.000000
# 4 0.000000 0.000000 0.000000 0.033520 0.000000 0.000000
# 5 0.000000 0.000000 0.000000 0.000000 -0.015118 0.000000
# 6 0.000000 0.000000 0.000000 0.000000 0.000000 0.009594
#
#
# Mechanical properties :
#
#
# Convention : Reuss Voigt Hill
#
# Bulk Modulus (GPa) = 22.32110 33.32152 27.82131
# Shear Modulus (GPa) = 38.40129 23.99061 31.19595
#
# Velocity S-wave (km/s) = 4.19564 3.31624 3.78159
# Velocity P-wave (km/s) = 5.80545 5.47156 5.64098
#
# Compressibility (1/GPa) = 0.04480065
#
# Stress axis : x y z
#
# Youngs Moduli (GPa) = 31.06863 103.61353 41.32269
#
# Poissons Ratio (x) = 0.57261 0.05667
# Poissons Ratio (y) = 0.17170 0.15375
# Poissons Ratio (z) = 0.04261 0.38553
#
# Static dielectric constant tensor:
#      x y z
#    x 1.829320 0.000000 0.000000 
#    y 0.000000 1.858060 0.000000 
#    z 0.000000 0.000000 1.852940 
# 
# From -- ./inp_files/60440.got.cif
#   From: 2010.05.17/outbox.cif.g08.bks.cpg/sg70_31_cif.got.tgz:60440.got - 2010.06.03 15:57:51.
