data_PCOD9515997
_publ_section_title
;
Structure prediction by ZEFSAII (Michael W. Deem and Ramdas Pophale) SiO2 
 PCOD9515997
Probable space group: F D D D
;
_chemical_formula_sum "Si O2"
_cell_formula_units_Z 176
_cell_length_a 14.879738
_cell_length_b 22.895813
_cell_length_c 24.376688
_cell_angle_alpha 90.000000
_cell_angle_beta 90.000000
_cell_angle_gamma 90.000000
_cell_volume 8304.740231
_symmetry_space_group_name_H-M "F D D D"
_symmetry_group_IT_number 70
_space_group.IT_coordinate_system_code '2'
_symmetry_cell_setting 'orthorhombic'
loop_
_space_group_symop_operation_xyz
x,y,z
1/4-x,1/4-y,z
x,1/4-y,1/4-z
1/4-x,y,1/4-z
-x,-y,-z
3/4+x,3/4+y,-z
-x,3/4+y,3/4+z
3/4+x,-y,3/4+z
x,1/2+y,1/2+z
1/4-x,3/4-y,1/2+z
x,3/4-y,3/4-z
1/4-x,1/2+y,3/4-z
-x,1/2-y,1/2-z
3/4+x,1/4+y,1/2-z
-x,1/4+y,1/4+z
3/4+x,1/2-y,1/4+z
1/2+x,y,1/2+z
3/4-x,1/4-y,1/2+z
1/2+x,1/4-y,3/4-z
3/4-x,y,3/4-z
1/2-x,-y,1/2-z
1/4+x,3/4+y,1/2-z
1/2-x,3/4+y,1/4+z
1/4+x,-y,1/4+z
1/2+x,1/2+y,z
3/4-x,3/4-y,z
1/2+x,3/4-y,1/4-z
3/4-x,1/2+y,1/4-z
1/2-x,1/2-y,-z
1/4+x,1/4+y,-z
1/2-x,1/4+y,3/4+z
1/4+x,1/2-y,3/4+z
loop_
_atom_site_type_symbol
_atom_site_label
_atom_site_fract_x
_atom_site_fract_y
_atom_site_fract_z
Si Si1 0.358249 0.102591 0.568239
Si Si2 0.875000 0.533105 0.875000
Si Si3 0.042586 0.078442 0.195523
Si Si4 0.199969 0.728956 0.815210
Si Si5 0.875000 0.875000 0.138763
Si Si6 0.125000 0.266480 0.125000
Si Si7 0.806048 0.637795 0.801931
O O1 0.317247 0.125000 0.625000
O O2 0.452468 0.135205 0.561582
O O3 0.303803 0.115388 0.512992
O O4 0.367002 0.032982 0.568598
O O5 0.793353 0.501390 0.905731
O O6 0.836424 0.576775 0.828403
O O7 0.125000 0.125000 0.195134
O O8 0.039579 0.043921 0.253256
O O9 0.052471 0.030033 0.147613
O O10 0.164147 0.675222 0.850410
O O11 0.792589 0.849850 0.174135
O O12 0.123304 0.313029 0.175586
#
# Coordination Sequence:
#
# PCOD9515997 Si02
#       7
#    32  16  32  32  16  16  32
#     4  12  27  46  66 104 145 181 235 297 349 419
#     4   9  20  46  66  96 132 188 235 288 332 408
#     4  12  25  42  66 109 147 181 230 288 359 430
#     4  11  23  43  72 101 143 187 238 290 353 422
#     4  10  24  42  71 103 128 192 250 284 346 418
#     4  11  23  42  73 100 147 188 216 288 358 426
#     4  10  22  44  71  98 140 185 237 284 346 418
#
# _framework density 21.192715
#
# number of rings (size 3 to 8) (size 9 to 14) (size 15 to 20)
#    0.000    1.091    4.545    1.364    5.091    0.727 
#    3.273    1.818    0.000    0.000    0.000    0.000 
#    0.000    0.000    0.000    0.000    0.000    0.000 
#
# Total GULP energy -245603.017924 kJ/mol
# GULP energy per Si atom -5581.886771 kJ/mol
# Density = 2.114448 g / cm^3
# Si number density = 21.192715 Si / 1000 Ang^3
#
#
#
# Elastic Constant Matrix: (Units=GPa)
#
#
# Indices 1 2 3 4 5 6 
#
# 1 70.1484 24.6672 43.8291 0.0000 0.0000 0.0000
# 2 24.6672 93.7189 43.4809 0.0000 0.0000 0.0000
# 3 43.8291 43.4809 176.4083 0.0000 0.0000 0.0000
# 4 0.0000 0.0000 0.0000 42.2420 0.0000 0.0000
# 5 0.0000 0.0000 0.0000 0.0000 17.0797 0.0000
# 6 0.0000 0.0000 0.0000 0.0000 0.0000 25.3900
#
#
#
# Elastic Compliance Matrix: (Units=1/GPa)
#
#
# Indices 1 2 3 4 5 6 
#
# 1 0.017561 -0.002933 -0.003640 0.000000 0.000000 0.000000
# 2 -0.002933 0.012538 -0.002362 0.000000 0.000000 0.000000
# 3 -0.003640 -0.002362 0.007155 0.000000 0.000000 0.000000
# 4 0.000000 0.000000 0.000000 0.023673 0.000000 0.000000
# 5 0.000000 0.000000 0.000000 0.000000 0.058549 0.000000
# 6 0.000000 0.000000 0.000000 0.000000 0.000000 0.039386
#
#
# Mechanical properties :
#
#
# Convention : Reuss Voigt Hill
#
# Bulk Modulus (GPa) = 51.58808 62.69222 57.14015
# Shear Modulus (GPa) = 27.29349 32.16222 29.72786
#
# Velocity S-wave (km/s) = 3.59259 3.89987 3.74938
# Velocity P-wave (km/s) = 6.45012 7.06575 6.76495
#
# Compressibility (1/GPa) = 0.01938432
#
# Stress axis : x y z
#
# Youngs Moduli (GPa) = 56.94316 79.75809 139.75967
#
# Poissons Ratio (x) = 0.23396 0.50875
# Poissons Ratio (y) = 0.16704 0.33005
# Poissons Ratio (z) = 0.20728 0.18835
#
# Static dielectric constant tensor:
#      x y z
#    x 1.792810 0.000000 0.000000 
#    y 0.000000 1.745990 0.000000 
#    z 0.000000 0.000000 1.770040 
# 
# From -- ./inp_files/28793.got.cif
#   From: 2010.05.17/outbox.cif.g08.bks.cpg/sg70_15_cif.got.tgz:28793.got - 2010.06.03 15:57:51.
