data_PCOD9515488
_publ_section_title
;
Structure prediction by ZEFSAII (Michael W. Deem and Ramdas Pophale) SiO2 
 PCOD9515488
Probable space group: F D D D
;
_chemical_formula_sum "Si O2"
_cell_formula_units_Z 88
_cell_length_a 4.691735
_cell_length_b 25.228827
_cell_length_c 31.100883
_cell_angle_alpha 90.000000
_cell_angle_beta 90.000000
_cell_angle_gamma 90.000000
_cell_volume 3681.317305
_symmetry_space_group_name_H-M "F D D D"
_symmetry_group_IT_number 70
_space_group.IT_coordinate_system_code '2'
_symmetry_cell_setting 'orthorhombic'
loop_
_space_group_symop_operation_xyz
x,y,z
1/4-x,1/4-y,z
x,1/4-y,1/4-z
1/4-x,y,1/4-z
-x,-y,-z
3/4+x,3/4+y,-z
-x,3/4+y,3/4+z
3/4+x,-y,3/4+z
x,1/2+y,1/2+z
1/4-x,3/4-y,1/2+z
x,3/4-y,3/4-z
1/4-x,1/2+y,3/4-z
-x,1/2-y,1/2-z
3/4+x,1/4+y,1/2-z
-x,1/4+y,1/4+z
3/4+x,1/2-y,1/4+z
1/2+x,y,1/2+z
3/4-x,1/4-y,1/2+z
1/2+x,1/4-y,3/4-z
3/4-x,y,3/4-z
1/2-x,-y,1/2-z
1/4+x,3/4+y,1/2-z
1/2-x,3/4+y,1/4+z
1/4+x,-y,1/4+z
1/2+x,1/2+y,z
3/4-x,3/4-y,z
1/2+x,3/4-y,1/4-z
3/4-x,1/2+y,1/4-z
1/2-x,1/2-y,-z
1/4+x,1/4+y,-z
1/2-x,1/4+y,3/4+z
1/4+x,1/2-y,3/4+z
loop_
_atom_site_type_symbol
_atom_site_label
_atom_site_fract_x
_atom_site_fract_y
_atom_site_fract_z
Si Si1 0.125000 0.695371 0.125000
Si Si2 0.125000 0.625000 0.625000
Si Si3 0.255563 0.004834 0.444343
Si Si4 0.009898 0.565949 0.778558
O O1 0.323110 0.727092 0.092317
O O2 0.808988 0.781669 0.063275
O O3 0.881550 0.660922 0.648573
O O4 0.297027 0.962159 0.482326
O O5 0.067223 0.054461 0.461032
O O6 0.125000 0.625000 0.778103
#
# Coordination Sequence:
#
# PCOD9515488 Si02
#       4
#    16   8  32  32
#     4  11  22  42  62  95 134 167 226 278 341 406
#     4  10  24  38  60  96 124 180 208 266 356 402
#     4  10  22  39  64  95 130 171 216 285 326 393
#     4  10  21  40  64  94 129 173 224 267 332 398
#
# _framework density 23.904485000000001
#
# number of rings (size 3 to 8) (size 9 to 14) (size 15 to 20)
#    0.000    1.818    0.000    3.273    2.545    0.000 
#   13.091    3.636    0.000    0.000    0.000    0.000 
#    0.000    0.000    0.000    0.000    0.000    0.000 
#
# Total GULP energy -122625.541448 kJ/mol
# GULP energy per Si atom -5573.888248 kJ/mol
# Density = 2.385008 g / cm^3
# Si number density = 23.904485 Si / 1000 Ang^3
#
#
#
# Elastic Constant Matrix: (Units=GPa)
#
#
# Indices 1 2 3 4 5 6 
#
# 1 166.5143 54.7584 32.7254 0.0000 0.0000 0.0000
# 2 54.7584 120.2349 33.6157 0.0000 0.0000 0.0000
# 3 32.7254 33.6157 64.1651 0.0000 0.0000 0.0000
# 4 0.0000 0.0000 0.0000 9.8094 0.0000 0.0000
# 5 0.0000 0.0000 0.0000 0.0000 40.4873 0.0000
# 6 0.0000 0.0000 0.0000 0.0000 0.0000 13.2648
#
#
#
# Elastic Compliance Matrix: (Units=1/GPa)
#
#
# Indices 1 2 3 4 5 6 
#
# 1 0.007351 -0.002694 -0.002338 0.000000 0.000000 0.000000
# 2 -0.002694 0.010732 -0.004248 0.000000 0.000000 0.000000
# 3 -0.002338 -0.004248 0.019003 0.000000 0.000000 0.000000
# 4 0.000000 0.000000 0.000000 0.101943 0.000000 0.000000
# 5 0.000000 0.000000 0.000000 0.000000 0.024699 0.000000
# 6 0.000000 0.000000 0.000000 0.000000 0.000000 0.075388
#
#
# Mechanical properties :
#
#
# Convention : Reuss Voigt Hill
#
# Bulk Modulus (GPa) = 53.98045 65.90148 59.94096
# Shear Modulus (GPa) = 18.95013 28.03327 23.49170
#
# Velocity S-wave (km/s) = 2.81863 3.42822 3.13826
# Velocity P-wave (km/s) = 5.76399 6.58018 6.18556
#
# Compressibility (1/GPa) = 0.01852523
#
# Stress axis : x y z
#
# Youngs Moduli (GPa) = 136.03747 93.18074 52.62424
#
# Poissons Ratio (x) = 0.25105 0.12301
# Poissons Ratio (y) = 0.36652 0.22356
# Poissons Ratio (z) = 0.31800 0.39585
#
# Static dielectric constant tensor:
#      x y z
#    x 1.901680 0.000000 0.000000 
#    y 0.000000 2.060510 0.000000 
#    z 0.000000 0.000000 1.928990 
# 
# From -- ./inp_files/3796.got.cif
#   From: 2010.05.17/outbox.cif.g08.bks.cpg/sg70_2_cif.got.tgz:3796.got - 2010.06.03 15:57:51.
