data_PCOD9515702
_publ_section_title
;
Structure prediction by ZEFSAII (Michael W. Deem and Ramdas Pophale) SiO2 
 PCOD9515702
Probable space group: F D D D
;
_chemical_formula_sum "Si O2"
_cell_formula_units_Z 144
_cell_length_a 24.128767
_cell_length_b 16.301006
_cell_length_c 17.637954
_cell_angle_alpha 90.000000
_cell_angle_beta 90.000000
_cell_angle_gamma 90.000000
_cell_volume 6937.416079
_symmetry_space_group_name_H-M "F D D D"
_symmetry_group_IT_number 70
_space_group.IT_coordinate_system_code '2'
_symmetry_cell_setting 'orthorhombic'
loop_
_space_group_symop_operation_xyz
x,y,z
1/4-x,1/4-y,z
x,1/4-y,1/4-z
1/4-x,y,1/4-z
-x,-y,-z
3/4+x,3/4+y,-z
-x,3/4+y,3/4+z
3/4+x,-y,3/4+z
x,1/2+y,1/2+z
1/4-x,3/4-y,1/2+z
x,3/4-y,3/4-z
1/4-x,1/2+y,3/4-z
-x,1/2-y,1/2-z
3/4+x,1/4+y,1/2-z
-x,1/4+y,1/4+z
3/4+x,1/2-y,1/4+z
1/2+x,y,1/2+z
3/4-x,1/4-y,1/2+z
1/2+x,1/4-y,3/4-z
3/4-x,y,3/4-z
1/2-x,-y,1/2-z
1/4+x,3/4+y,1/2-z
1/2-x,3/4+y,1/4+z
1/4+x,-y,1/4+z
1/2+x,1/2+y,z
3/4-x,3/4-y,z
1/2+x,3/4-y,1/4-z
3/4-x,1/2+y,1/4-z
1/2-x,1/2-y,-z
1/4+x,1/4+y,-z
1/2-x,1/4+y,3/4+z
1/4+x,1/2-y,3/4+z
loop_
_atom_site_type_symbol
_atom_site_label
_atom_site_fract_x
_atom_site_fract_y
_atom_site_fract_z
Si Si1 0.919609 0.125000 0.625000
Si Si2 0.904335 0.963476 0.163006
Si Si3 0.265561 0.401286 0.714942
Si Si4 0.062190 0.013086 0.103003
Si Si5 0.007107 0.472700 0.762749
O O1 0.882334 0.204367 0.649527
O O2 0.960950 0.152053 0.557126
O O3 0.875000 0.875000 0.167036
O O4 0.943445 0.952693 0.088734
O O5 0.943021 0.967561 0.238015
O O6 0.204032 0.436337 0.701667
O O7 0.286100 0.414934 0.801013
O O8 0.267060 0.307122 0.692365
O O9 0.125000 0.028092 0.125000
O O10 0.035531 0.987272 0.181902
#
# Coordination Sequence:
#
# PCOD9515702 Si02
#       5
#    16  32  32  32  32
#     4  12  26  46  77 100 143 196 232 298 372 420
#     4  11  25  46  71  99 143 189 234 295 365 424
#     4  10  22  42  63 101 139 169 232 300 345 421
#     4  10  22  36  64  99 134 176 223 289 360 412
#     4  11  25  42  68 102 137 185 238 288 349 444
#
# _framework density 20.757007000000002
#
# number of rings (size 3 to 8) (size 9 to 14) (size 15 to 20)
#    0.000    1.333    2.222    2.000   12.444    1.778 
#    0.000    0.556    0.000    0.000    0.000    0.000 
#    0.000    0.000    0.000    0.000    0.000    0.000 
#
# Total GULP energy -200577.961898 kJ/mol
# GULP energy per Si atom -5571.610053 kJ/mol
# Density = 2.070976 g / cm^3
# Si number density = 20.757007 Si / 1000 Ang^3
#
#
#
# Elastic Constant Matrix: (Units=GPa)
#
#
# Indices 1 2 3 4 5 6 
#
# 1 101.7166 61.5959 50.8777 0.0000 0.0000 0.0000
# 2 61.5959 141.7880 50.4043 0.0000 0.0000 0.0000
# 3 50.8777 50.4043 93.9222 0.0000 0.0000 0.0000
# 4 0.0000 0.0000 0.0000 30.0965 0.0000 0.0000
# 5 0.0000 0.0000 0.0000 0.0000 39.3392 0.0000
# 6 0.0000 0.0000 0.0000 0.0000 0.0000 38.3833
#
#
#
# Elastic Compliance Matrix: (Units=1/GPa)
#
#
# Indices 1 2 3 4 5 6 
#
# 1 0.015648 -0.004677 -0.005967 0.000000 0.000000 0.000000
# 2 -0.004677 0.010113 -0.002894 0.000000 0.000000 0.000000
# 3 -0.005967 -0.002894 0.015432 0.000000 0.000000 0.000000
# 4 0.000000 0.000000 0.000000 0.033226 0.000000 0.000000
# 5 0.000000 0.000000 0.000000 0.000000 0.025420 0.000000
# 6 0.000000 0.000000 0.000000 0.000000 0.000000 0.026053
#
#
# Mechanical properties :
#
#
# Convention : Reuss Voigt Hill
#
# Bulk Modulus (GPa) = 70.82798 73.68696 72.25747
# Shear Modulus (GPa) = 31.71115 33.20041 32.45578
#
# Velocity S-wave (km/s) = 3.91286 4.00369 3.95854
# Velocity P-wave (km/s) = 7.38989 7.54649 7.46860
#
# Compressibility (1/GPa) = 0.01411871
#
# Stress axis : x y z
#
# Youngs Moduli (GPa) = 63.90722 98.88051 64.79910
#
# Poissons Ratio (x) = 0.46243 0.38663
# Poissons Ratio (y) = 0.29887 0.18753
# Poissons Ratio (z) = 0.38131 0.28616
#
# Static dielectric constant tensor:
#      x y z
#    x 1.872580 0.000000 0.000000 
#    y 0.000000 1.836000 0.000000 
#    z 0.000000 0.000000 1.750300 
# 
# From -- ./inp_files/37351.got.cif
#   From: 2010.05.17/outbox.cif.g08.bks.cpg/sg70_19_cif.got.tgz:37351.got - 2010.06.03 15:57:51.
