data_PCOD9515782
_publ_section_title
;
Structure prediction by ZEFSAII (Michael W. Deem and Ramdas Pophale) SiO2 
 PCOD9515782
Probable space group: F D D D
;
_chemical_formula_sum "Si O2"
_cell_formula_units_Z 160
_cell_length_a 25.626164
_cell_length_b 26.583693
_cell_length_c 9.379169
_cell_angle_alpha 90.000000
_cell_angle_beta 90.000000
_cell_angle_gamma 90.000000
_cell_volume 6389.447049
_symmetry_space_group_name_H-M "F D D D"
_symmetry_group_IT_number 70
_space_group.IT_coordinate_system_code '2'
_symmetry_cell_setting 'orthorhombic'
loop_
_space_group_symop_operation_xyz
x,y,z
1/4-x,1/4-y,z
x,1/4-y,1/4-z
1/4-x,y,1/4-z
-x,-y,-z
3/4+x,3/4+y,-z
-x,3/4+y,3/4+z
3/4+x,-y,3/4+z
x,1/2+y,1/2+z
1/4-x,3/4-y,1/2+z
x,3/4-y,3/4-z
1/4-x,1/2+y,3/4-z
-x,1/2-y,1/2-z
3/4+x,1/4+y,1/2-z
-x,1/4+y,1/4+z
3/4+x,1/2-y,1/4+z
1/2+x,y,1/2+z
3/4-x,1/4-y,1/2+z
1/2+x,1/4-y,3/4-z
3/4-x,y,3/4-z
1/2-x,-y,1/2-z
1/4+x,3/4+y,1/2-z
1/2-x,3/4+y,1/4+z
1/4+x,-y,1/4+z
1/2+x,1/2+y,z
3/4-x,3/4-y,z
1/2+x,3/4-y,1/4-z
3/4-x,1/2+y,1/4-z
1/2-x,1/2-y,-z
1/4+x,1/4+y,-z
1/2-x,1/4+y,3/4+z
1/4+x,1/2-y,3/4+z
loop_
_atom_site_type_symbol
_atom_site_label
_atom_site_fract_x
_atom_site_fract_y
_atom_site_fract_z
Si Si1 0.304187 0.296195 0.736818
Si Si2 0.000000 0.750000 0.750000
Si Si3 0.399193 0.997043 0.675928
Si Si4 0.125000 0.331977 0.625000
Si Si5 0.737925 0.371145 0.099550
Si Si6 0.263446 0.955008 0.908145
O O1 0.360924 0.286350 0.670090
O O2 0.280553 0.350965 0.708581
O O3 0.268624 0.256025 0.646331
O O4 0.292439 0.280140 0.896236
O O5 0.950280 0.730953 0.651490
O O6 0.369318 0.045295 0.739231
O O7 0.426509 0.966937 0.808260
O O8 0.178201 0.362559 0.640362
O O9 0.750919 0.335609 0.962124
O O10 0.745461 0.429399 0.059701
#
# Coordination Sequence:
#
# PCOD9515782 Si02
#       6
#    32  16  32  16  32  32
#     4  11  21  42  67  91 136 186 225 290 360 429
#     4  10  22  40  62  98 130 180 238 284 350 430
#     4  11  22  39  68  93 133 184 233 282 367 427
#     4  12  20  40  72  99 128 196 226 299 376 418
#     4  11  22  40  67 103 142 170 242 303 355 436
#     4  10  22  40  62 104 133 174 234 291 354 434
#
# _framework density 25.041291000000001
#
# number of rings (size 3 to 8) (size 9 to 14) (size 15 to 20)
#    0.000    1.200    6.000    2.400    0.000    0.800 
#    7.200    6.000    0.000    4.800    0.000    0.000 
#    0.000    0.000    0.000    0.000    0.000    0.000 
#
# Total GULP energy -222759.854984 kJ/mol
# GULP energy per Si atom -5568.996375 kJ/mol
# Density = 2.498430 g / cm^3
# Si number density = 25.041291 Si / 1000 Ang^3
#
#
#
# Elastic Constant Matrix: (Units=GPa)
#
#
# Indices 1 2 3 4 5 6 
#
# 1 189.4062 27.3031 10.7102 0.0008 -0.0008 -0.0005
# 2 27.3031 92.3158 -12.2733 0.0008 -0.0008 -0.0005
# 3 10.7102 -12.2733 33.7355 0.0017 -0.0016 -0.0010
# 4 0.0008 0.0008 0.0017 31.2577 -0.0008 -0.0004
# 5 -0.0008 -0.0008 -0.0016 -0.0008 56.4310 0.0006
# 6 -0.0005 -0.0005 -0.0010 -0.0004 0.0006 13.1556
#
#
#
# Elastic Compliance Matrix: (Units=1/GPa)
#
#
# Indices 1 2 3 4 5 6 
#
# 1 0.005717 -0.002030 -0.002554 0.000000 0.000000 0.000000
# 2 -0.002030 0.012104 0.005048 -0.000001 0.000000 0.000001
# 3 -0.002554 0.005048 0.032290 -0.000002 0.000001 0.000003
# 4 0.000000 -0.000001 -0.000002 0.031992 0.000000 0.000001
# 5 0.000000 0.000000 0.000001 0.000000 0.017721 -0.000001
# 6 0.000000 0.000001 0.000003 0.000001 -0.000001 0.076013
#
#
# Mechanical properties :
#
#
# Convention : Reuss Voigt Hill
#
# Bulk Modulus (GPa) = 19.59288 40.77084 30.18186
# Shear Modulus (GPa) = 26.05243 39.48336 32.76790
#
# Velocity S-wave (km/s) = 3.22899 3.97511 3.62132
# Velocity P-wave (km/s) = 4.66294 6.11437 5.43730
#
# Compressibility (1/GPa) = 0.05103894
#
# Stress axis : x y z
#
# Youngs Moduli (GPa) = 174.92570 82.61747 30.96969
#
# Poissons Ratio (x) = 0.16773 0.07908
# Poissons Ratio (y) = 0.35514 -0.15634
# Poissons Ratio (z) = 0.44668 -0.41706
#
# Static dielectric constant tensor:
#      x y z
#    x 1.856740 0.000010 0.000010 
#    y 0.000010 1.511350 0.000010 
#    z 0.000010 0.000010 1.734480 
# 
# From -- ./inp_files/19546.got.cif
#   From: 2010.05.17/outbox.cif.g08.bks.cpg/sg70_10_cif.got.tgz:19546.got - 2010.06.03 15:57:51.
