data_PCOD9515308
_publ_section_title
;
Structure prediction by ZEFSAII (Michael W. Deem and Ramdas Pophale) SiO2 
 PCOD9515308
Probable space group: F D D D
;
_chemical_formula_sum "Si O2"
_cell_formula_units_Z 176
_cell_length_a 24.248296
_cell_length_b 15.671846
_cell_length_c 23.059641
_cell_angle_alpha 90.000000
_cell_angle_beta 90.000000
_cell_angle_gamma 90.000000
_cell_volume 8763.022404
_symmetry_space_group_name_H-M "F D D D"
_symmetry_group_IT_number 70
_space_group.IT_coordinate_system_code '2'
_symmetry_cell_setting 'orthorhombic'
loop_
_space_group_symop_operation_xyz
x,y,z
1/4-x,1/4-y,z
x,1/4-y,1/4-z
1/4-x,y,1/4-z
-x,-y,-z
3/4+x,3/4+y,-z
-x,3/4+y,3/4+z
3/4+x,-y,3/4+z
x,1/2+y,1/2+z
1/4-x,3/4-y,1/2+z
x,3/4-y,3/4-z
1/4-x,1/2+y,3/4-z
-x,1/2-y,1/2-z
3/4+x,1/4+y,1/2-z
-x,1/4+y,1/4+z
3/4+x,1/2-y,1/4+z
1/2+x,y,1/2+z
3/4-x,1/4-y,1/2+z
1/2+x,1/4-y,3/4-z
3/4-x,y,3/4-z
1/2-x,-y,1/2-z
1/4+x,3/4+y,1/2-z
1/2-x,3/4+y,1/4+z
1/4+x,-y,1/4+z
1/2+x,1/2+y,z
3/4-x,3/4-y,z
1/2+x,3/4-y,1/4-z
3/4-x,1/2+y,1/4-z
1/2-x,1/2-y,-z
1/4+x,1/4+y,-z
1/2-x,1/4+y,3/4+z
1/4+x,1/2-y,3/4+z
loop_
_atom_site_type_symbol
_atom_site_label
_atom_site_fract_x
_atom_site_fract_y
_atom_site_fract_z
Si Si1 0.745700 0.115163 0.720237
Si Si2 0.587923 0.702556 0.967015
Si Si3 0.982583 0.239808 0.376149
Si Si4 0.125000 0.370823 0.625000
Si Si5 0.627575 0.886456 0.996286
Si Si6 0.888734 0.285330 0.090295
O O1 0.720835 0.156309 0.778184
O O2 0.724007 0.184189 0.672769
O O3 0.810691 0.113123 0.726854
O O4 0.730906 0.026735 0.689417
O O5 0.625000 0.625000 0.993971
O O6 0.626775 0.922590 0.061692
O O7 0.594202 0.796959 0.993722
O O8 0.931771 0.175350 0.378355
O O9 0.045797 0.216006 0.393755
O O10 0.607786 0.715075 0.901663
O O11 0.615475 0.958704 0.948719
O O12 0.875000 0.375000 0.060665
#
# Coordination Sequence:
#
# PCOD9515308 Si02
#       6
#    32  32  32  16  32  32
#     4  10  21  36  61  90 135 159 200 256 325 386
#     4  11  21  35  63  98 122 168 210 247 320 396
#     4  10  21  38  59  94 127 162 195 263 325 392
#     4  12  24  35  61  92 132 158 210 254 334 378
#     4  11  23  42  60  90 134 170 205 270 317 383
#     4  10  23  43  67  86 122 177 225 258 310 377
#
# _framework density 20.084395000000001
#
# number of rings (size 3 to 8) (size 9 to 14) (size 15 to 20)
#    0.000    1.455    3.636    1.636    5.091    2.182 
#    0.000    1.364    0.000    0.000    0.000    0.000 
#    0.000    0.000    0.000    0.000    0.000    0.000 
#
# Total GULP energy -245041.656323 kJ/mol
# GULP energy per Si atom -5569.128553 kJ/mol
# Density = 2.003868 g / cm^3
# Si number density = 20.084395 Si / 1000 Ang^3
#
#
#
# Elastic Constant Matrix: (Units=GPa)
#
#
# Indices 1 2 3 4 5 6 
#
# 1 57.4403 31.0642 17.5665 0.0000 0.0000 0.0000
# 2 31.0642 103.3507 30.3372 0.0000 0.0000 0.0000
# 3 17.5665 30.3372 99.9105 0.0000 0.0000 0.0000
# 4 0.0000 0.0000 0.0000 28.0847 0.0000 0.0000
# 5 0.0000 0.0000 0.0000 0.0000 30.8107 0.0000
# 6 0.0000 0.0000 0.0000 0.0000 0.0000 24.2609
#
#
#
# Elastic Compliance Matrix: (Units=1/GPa)
#
#
# Indices 1 2 3 4 5 6 
#
# 1 0.021133 -0.005776 -0.001962 0.000000 0.000000 0.000000
# 2 -0.005776 0.012201 -0.002689 0.000000 0.000000 0.000000
# 3 -0.001962 -0.002689 0.011170 0.000000 0.000000 0.000000
# 4 0.000000 0.000000 0.000000 0.035607 0.000000 0.000000
# 5 0.000000 0.000000 0.000000 0.000000 0.032456 0.000000
# 6 0.000000 0.000000 0.000000 0.000000 0.000000 0.041219
#
#
# Mechanical properties :
#
#
# Convention : Reuss Voigt Hill
#
# Bulk Modulus (GPa) = 42.28241 46.51525 44.39883
# Shear Modulus (GPa) = 27.39362 28.74683 28.07022
#
# Velocity S-wave (km/s) = 3.69714 3.78736 3.74252
# Velocity P-wave (km/s) = 6.27082 6.50658 6.38979
#
# Compressibility (1/GPa) = 0.02365049
#
# Stress axis : x y z
#
# Youngs Moduli (GPa) = 47.31911 81.95825 89.52171
#
# Poissons Ratio (x) = 0.47340 0.17562
# Poissons Ratio (y) = 0.27332 0.24075
# Poissons Ratio (z) = 0.09283 0.22041
#
# Static dielectric constant tensor:
#      x y z
#    x 1.758320 0.000000 0.000000 
#    y 0.000000 1.853170 0.000000 
#    z 0.000000 0.000000 1.814210 
# 
# From -- ./inp_files/21190.got.cif
#   From: 2010.05.17/outbox.cif.g08.bks.cpg/sg70_11_cif.got.tgz:21190.got - 2010.06.03 15:57:51.
