data_PCOD9515277
_publ_section_title
;
Structure prediction by ZEFSAII (Michael W. Deem and Ramdas Pophale) SiO2 
 PCOD9515277
Probable space group: F D D D
;
_chemical_formula_sum "Si O2"
_cell_formula_units_Z 216
_cell_length_a 23.729221
_cell_length_b 22.307507
_cell_length_c 20.725946
_cell_angle_alpha 90.000000
_cell_angle_beta 90.000000
_cell_angle_gamma 90.000000
_cell_volume 10971.067355
_symmetry_space_group_name_H-M "F D D D"
_symmetry_group_IT_number 70
_space_group.IT_coordinate_system_code '2'
_symmetry_cell_setting 'orthorhombic'
loop_
_space_group_symop_operation_xyz
x,y,z
1/4-x,1/4-y,z
x,1/4-y,1/4-z
1/4-x,y,1/4-z
-x,-y,-z
3/4+x,3/4+y,-z
-x,3/4+y,3/4+z
3/4+x,-y,3/4+z
x,1/2+y,1/2+z
1/4-x,3/4-y,1/2+z
x,3/4-y,3/4-z
1/4-x,1/2+y,3/4-z
-x,1/2-y,1/2-z
3/4+x,1/4+y,1/2-z
-x,1/4+y,1/4+z
3/4+x,1/2-y,1/4+z
1/2+x,y,1/2+z
3/4-x,1/4-y,1/2+z
1/2+x,1/4-y,3/4-z
3/4-x,y,3/4-z
1/2-x,-y,1/2-z
1/4+x,3/4+y,1/2-z
1/2-x,3/4+y,1/4+z
1/4+x,-y,1/4+z
1/2+x,1/2+y,z
3/4-x,3/4-y,z
1/2+x,3/4-y,1/4-z
3/4-x,1/2+y,1/4-z
1/2-x,1/2-y,-z
1/4+x,1/4+y,-z
1/2-x,1/4+y,3/4+z
1/4+x,1/2-y,3/4+z
loop_
_atom_site_type_symbol
_atom_site_label
_atom_site_fract_x
_atom_site_fract_y
_atom_site_fract_z
Si Si1 0.941503 0.476498 0.527573
Si Si2 0.125000 0.346753 0.125000
Si Si3 0.714511 0.330336 0.201949
Si Si4 0.043243 0.138325 0.049915
Si Si5 0.961275 0.440387 0.778098
Si Si6 0.309049 0.890777 0.113814
Si Si7 0.625000 0.625000 0.625000
Si Si8 0.577675 0.976078 0.738068
O O1 0.926543 0.416346 0.486612
O O2 0.951080 0.453417 0.599475
O O3 0.888672 0.519835 0.520746
O O4 0.000000 0.500000 0.500000
O O5 0.087846 0.387740 0.170349
O O6 0.164799 0.306703 0.169819
O O7 0.731357 0.363088 0.268249
O O8 0.700323 0.261826 0.217994
O O9 0.767080 0.343685 0.150960
O O10 0.046846 0.125000 0.125000
O O11 0.060593 0.205505 0.029584
O O12 0.950870 0.404392 0.711311
O O13 0.918761 0.412188 0.830209
O O14 0.030041 0.443377 0.780890
O O15 0.375000 0.875000 0.123153
#
# Coordination Sequence:
#
# PCOD9515277 Si02
#       8
#    32  16  32  32  32  32   8  32
#     4  11  23  37  63  99 137 180 220 271 348 436
#     4  12  21  40  61  93 132 179 216 268 354 400
#     4  10  23  40  65  94 134 171 221 278 342 420
#     4  10  21  35  57  94 129 173 219 261 325 417
#     4  11  24  44  71  96 129 178 232 302 354 418
#     4  11  21  43  68  97 134 179 232 281 354 429
#     4  12  26  52  72 100 124 178 258 316 368 412
#     4  11  22  38  62  92 133 177 217 278 338 418
#
# _framework density 19.688148000000002
#
# number of rings (size 3 to 8) (size 9 to 14) (size 15 to 20)
#    0.000    1.185    2.222    6.222    4.148    0.593 
#    0.000    3.704    1.630    0.000    0.000    0.000 
#    0.000    0.000    0.000    0.000    0.000    0.000 
#
# Total GULP energy -300957.423977 kJ/mol
# GULP energy per Si atom -5573.285629 kJ/mol
# Density = 1.964334 g / cm^3
# Si number density = 19.688148 Si / 1000 Ang^3
#
#
#
# Elastic Constant Matrix: (Units=GPa)
#
#
# Indices 1 2 3 4 5 6 
#
# 1 129.9755 28.3570 23.1450 0.0000 0.0000 0.0000
# 2 28.3570 64.4321 14.3772 0.0000 0.0000 0.0000
# 3 23.1450 14.3772 81.3239 0.0000 0.0000 0.0000
# 4 0.0000 0.0000 0.0000 23.8530 0.0000 0.0000
# 5 0.0000 0.0000 0.0000 0.0000 29.6298 0.0000
# 6 0.0000 0.0000 0.0000 0.0000 0.0000 31.1005
#
#
#
# Elastic Compliance Matrix: (Units=1/GPa)
#
#
# Indices 1 2 3 4 5 6 
#
# 1 0.008782 -0.003443 -0.001891 0.000000 0.000000 0.000000
# 2 -0.003443 0.017507 -0.002115 0.000000 0.000000 0.000000
# 3 -0.001891 -0.002115 0.013209 0.000000 0.000000 0.000000
# 4 0.000000 0.000000 0.000000 0.041924 0.000000 0.000000
# 5 0.000000 0.000000 0.000000 0.000000 0.033750 0.000000
# 6 0.000000 0.000000 0.000000 0.000000 0.000000 0.032154
#
#
# Mechanical properties :
#
#
# Convention : Reuss Voigt Hill
#
# Bulk Modulus (GPa) = 40.65048 45.27665 42.96356
# Shear Modulus (GPa) = 29.33889 30.90682 30.12286
#
# Velocity S-wave (km/s) = 3.86447 3.96639 3.91576
# Velocity P-wave (km/s) = 6.37214 6.63500 6.50490
#
# Compressibility (1/GPa) = 0.02459996
#
# Stress axis : x y z
#
# Youngs Moduli (GPa) = 113.87482 57.11848 75.70868
#
# Poissons Ratio (x) = 0.19666 0.14313
# Poissons Ratio (y) = 0.39207 0.16014
# Poissons Ratio (z) = 0.21529 0.12082
#
# Static dielectric constant tensor:
#      x y z
#    x 1.779170 0.000000 0.000000 
#    y 0.000000 1.702900 0.000000 
#    z 0.000000 0.000000 1.704510 
# 
# From -- ./inp_files/46078.got.cif
#   From: 2010.05.17/outbox.cif.g08.bks.cpg/sg70_24_cif.got.tgz:46078.got - 2010.06.03 15:57:51.
