data_PCOD9515066
_publ_section_title
;
Structure prediction by ZEFSAII (Michael W. Deem and Ramdas Pophale) SiO2 
 PCOD9515066
Probable space group: F D D D
;
_chemical_formula_sum "Si O2"
_cell_formula_units_Z 120
_cell_length_a 13.540555
_cell_length_b 16.471130
_cell_length_c 29.305689
_cell_angle_alpha 90.000000
_cell_angle_beta 90.000000
_cell_angle_gamma 90.000000
_cell_volume 6535.996289
_symmetry_space_group_name_H-M "F D D D"
_symmetry_group_IT_number 70
_space_group.IT_coordinate_system_code '2'
_symmetry_cell_setting 'orthorhombic'
loop_
_space_group_symop_operation_xyz
x,y,z
1/4-x,1/4-y,z
x,1/4-y,1/4-z
1/4-x,y,1/4-z
-x,-y,-z
3/4+x,3/4+y,-z
-x,3/4+y,3/4+z
3/4+x,-y,3/4+z
x,1/2+y,1/2+z
1/4-x,3/4-y,1/2+z
x,3/4-y,3/4-z
1/4-x,1/2+y,3/4-z
-x,1/2-y,1/2-z
3/4+x,1/4+y,1/2-z
-x,1/4+y,1/4+z
3/4+x,1/2-y,1/4+z
1/2+x,y,1/2+z
3/4-x,1/4-y,1/2+z
1/2+x,1/4-y,3/4-z
3/4-x,y,3/4-z
1/2-x,-y,1/2-z
1/4+x,3/4+y,1/2-z
1/2-x,3/4+y,1/4+z
1/4+x,-y,1/4+z
1/2+x,1/2+y,z
3/4-x,3/4-y,z
1/2+x,3/4-y,1/4-z
3/4-x,1/2+y,1/4-z
1/2-x,1/2-y,-z
1/4+x,1/4+y,-z
1/2-x,1/4+y,3/4+z
1/4+x,1/2-y,3/4+z
loop_
_atom_site_type_symbol
_atom_site_label
_atom_site_fract_x
_atom_site_fract_y
_atom_site_fract_z
Si Si1 0.164741 0.357072 0.175876
Si Si2 0.611670 0.221402 0.742772
Si Si3 0.375000 0.875000 0.875000
Si Si4 0.047870 0.738135 0.044724
Si Si5 0.875000 0.875000 0.215126
O O1 0.125000 0.354879 0.125000
O O2 0.150903 0.269652 0.198746
O O3 0.096705 0.424104 0.200154
O O4 0.277742 0.384859 0.184197
O O5 0.625000 0.125000 0.738751
O O6 0.500000 0.250000 0.750000
O O7 0.682799 0.252212 0.783452
O O8 0.433719 0.816029 0.910027
O O9 0.100536 0.697000 0.000863
#
# Coordination Sequence:
#
# PCOD9515066 Si02
#       5
#    32  32   8  32  16
#     4  11  22  39  62  92 125 164 211 266 318 376
#     4  11  23  42  65  88 128 175 213 252 323 402
#     4  10  20  40  64 100 120 148 220 280 316 356
#     4  10  20  39  65  92 124 165 210 266 323 376
#     4   9  22  37  62  90 126 162 212 259 318 385
#
# _framework density 18.359864999999999
#
# number of rings (size 3 to 8) (size 9 to 14) (size 15 to 20)
#    0.000    1.600    4.000    0.800    0.000    2.667 
#    0.000    0.000    0.000    0.000    0.000    0.000 
#    0.000    0.000    0.000    0.000    0.000    0.000 
#
# Total GULP energy -167303.355724 kJ/mol
# GULP energy per Si atom -5576.778524 kJ/mol
# Density = 1.831808 g / cm^3
# Si number density = 18.359865 Si / 1000 Ang^3
#
#
#
# Elastic Constant Matrix: (Units=GPa)
#
#
# Indices 1 2 3 4 5 6 
#
# 1 178.0394 52.5954 70.6380 0.0000 0.0000 0.0000
# 2 52.5954 129.0932 47.5788 0.0000 0.0000 0.0000
# 3 70.6380 47.5788 114.1851 0.0000 0.0000 0.0000
# 4 0.0000 0.0000 0.0000 4.7107 0.0000 0.0000
# 5 0.0000 0.0000 0.0000 0.0000 22.9709 0.0000
# 6 0.0000 0.0000 0.0000 0.0000 0.0000 22.9440
#
#
#
# Elastic Compliance Matrix: (Units=1/GPa)
#
#
# Indices 1 2 3 4 5 6 
#
# 1 0.007726 -0.001638 -0.004097 0.000000 0.000000 0.000000
# 2 -0.001638 0.009499 -0.002945 0.000000 0.000000 0.000000
# 3 -0.004097 -0.002945 0.012519 0.000000 0.000000 0.000000
# 4 0.000000 0.000000 0.000000 0.212285 0.000000 0.000000
# 5 0.000000 0.000000 0.000000 0.000000 0.043533 0.000000
# 6 0.000000 0.000000 0.000000 0.000000 0.000000 0.043584
#
#
# Mechanical properties :
#
#
# Convention : Reuss Voigt Hill
#
# Bulk Modulus (GPa) = 80.74352 84.77135 82.75744
# Shear Modulus (GPa) = 14.25986 26.82547 20.54266
#
# Velocity S-wave (km/s) = 2.78993 3.82657 3.34861
# Velocity P-wave (km/s) = 7.37916 8.11147 7.75396
#
# Compressibility (1/GPa) = 0.01238489
#
# Stress axis : x y z
#
# Youngs Moduli (GPa) = 129.43112 105.27463 79.87592
#
# Poissons Ratio (x) = 0.17241 0.32727
# Poissons Ratio (y) = 0.21197 0.23523
# Poissons Ratio (z) = 0.53030 0.31002
#
# Static dielectric constant tensor:
#      x y z
#    x 1.640170 0.000000 0.000000 
#    y 0.000000 1.633200 0.000000 
#    z 0.000000 0.000000 1.622560 
# 
# From -- ./inp_files/20262.got.cif
#   From: 2010.05.17/outbox.cif.g08.bks.cpg/sg70_11_cif.got.tgz:20262.got - 2010.06.03 15:57:51.
