data_PCOD9515123
_publ_section_title
;
Structure prediction by ZEFSAII (Michael W. Deem and Ramdas Pophale) SiO2 
 PCOD9515123
Probable space group: F D D D
;
_chemical_formula_sum "Si O2"
_cell_formula_units_Z 104
_cell_length_a 13.876331
_cell_length_b 29.323205
_cell_length_c 9.790286
_cell_angle_alpha 90.000000
_cell_angle_beta 90.000000
_cell_angle_gamma 90.000000
_cell_volume 3983.652674
_symmetry_space_group_name_H-M "F D D D"
_symmetry_group_IT_number 70
_space_group.IT_coordinate_system_code '2'
_symmetry_cell_setting 'orthorhombic'
loop_
_space_group_symop_operation_xyz
x,y,z
1/4-x,1/4-y,z
x,1/4-y,1/4-z
1/4-x,y,1/4-z
-x,-y,-z
3/4+x,3/4+y,-z
-x,3/4+y,3/4+z
3/4+x,-y,3/4+z
x,1/2+y,1/2+z
1/4-x,3/4-y,1/2+z
x,3/4-y,3/4-z
1/4-x,1/2+y,3/4-z
-x,1/2-y,1/2-z
3/4+x,1/4+y,1/2-z
-x,1/4+y,1/4+z
3/4+x,1/2-y,1/4+z
1/2+x,y,1/2+z
3/4-x,1/4-y,1/2+z
1/2+x,1/4-y,3/4-z
3/4-x,y,3/4-z
1/2-x,-y,1/2-z
1/4+x,3/4+y,1/2-z
1/2-x,3/4+y,1/4+z
1/4+x,-y,1/4+z
1/2+x,1/2+y,z
3/4-x,3/4-y,z
1/2+x,3/4-y,1/4-z
3/4-x,1/2+y,1/4-z
1/2-x,1/2-y,-z
1/4+x,1/4+y,-z
1/2-x,1/4+y,3/4+z
1/4+x,1/2-y,3/4+z
loop_
_atom_site_type_symbol
_atom_site_label
_atom_site_fract_x
_atom_site_fract_y
_atom_site_fract_z
Si Si1 0.491431 0.669305 0.854512
Si Si2 0.023375 0.424390 0.552778
Si Si3 0.625000 0.125000 0.125000
Si Si4 0.483292 0.987481 0.314552
O O1 0.375000 0.672055 0.875000
O O2 0.520350 0.625615 0.949728
O O3 0.549186 0.655060 0.717075
O O4 0.520223 0.718290 0.913976
O O5 0.125000 0.417207 0.625000
O O6 0.976879 0.462500 0.652752
O O7 0.035317 0.449742 0.409328
O O8 0.375000 0.987053 0.375000
#
# Coordination Sequence:
#
# PCOD9515123 Si02
#       4
#    32  32   8  32
#     4  11  25  43  69 102 147 199 242 313 384 440
#     4   9  20  37  68  99 140 180 243 307 374 459
#     4  12  28  48  66 114 148 196 268 314 368 470
#     4  10  20  40  67 102 134 189 244 305 380 456
#
# _framework density 26.106694000000001
#
# number of rings (size 3 to 8) (size 9 to 14) (size 15 to 20)
#    0.000    1.846    0.000    2.769    8.615    1.231 
#    2.769    1.538    0.000    0.000    0.000    0.000 
#    0.000    0.000    0.000    0.000    0.000    0.000 
#
# Total GULP energy -144891.431755 kJ/mol
# GULP energy per Si atom -5572.747375 kJ/mol
# Density = 2.604727 g / cm^3
# Si number density = 26.106694 Si / 1000 Ang^3
#
#
#
# Elastic Constant Matrix: (Units=GPa)
#
#
# Indices 1 2 3 4 5 6 
#
# 1 170.3716 -24.2775 20.0476 0.0000 0.0000 0.0000
# 2 -24.2775 86.5526 18.3388 0.0000 0.0000 0.0000
# 3 20.0476 18.3388 106.3902 0.0000 0.0000 0.0000
# 4 0.0000 0.0000 0.0000 57.0003 0.0000 0.0000
# 5 0.0000 0.0000 0.0000 0.0000 39.7458 0.0000
# 6 0.0000 0.0000 0.0000 0.0000 0.0000 9.0271
#
#
#
# Elastic Compliance Matrix: (Units=1/GPa)
#
#
# Indices 1 2 3 4 5 6 
#
# 1 0.006354 0.002113 -0.001562 0.000000 0.000000 0.000000
# 2 0.002113 0.012694 -0.002586 0.000000 0.000000 0.000000
# 3 -0.001562 -0.002586 0.010139 0.000000 0.000000 0.000000
# 4 0.000000 0.000000 0.000000 0.017544 0.000000 0.000000
# 5 0.000000 0.000000 0.000000 0.000000 0.025160 0.000000
# 6 0.000000 0.000000 0.000000 0.000000 0.000000 0.110778
#
#
# Mechanical properties :
#
#
# Convention : Reuss Voigt Hill
#
# Bulk Modulus (GPa) = 39.81092 43.50358 41.65725
# Shear Modulus (GPa) = 25.62628 44.43499 35.03063
#
# Velocity S-wave (km/s) = 3.13645 4.13007 3.66707
# Velocity P-wave (km/s) = 5.32905 6.28039 5.82418
#
# Compressibility (1/GPa) = 0.02511874
#
# Stress axis : x y z
#
# Youngs Moduli (GPa) = 157.37085 78.77468 98.62461
#
# Poissons Ratio (x) = -0.16647 0.15402
# Poissons Ratio (y) = -0.33257 0.25508
# Poissons Ratio (z) = 0.24576 0.20374
#
# Static dielectric constant tensor:
#      x y z
#    x 2.402340 0.000000 0.000000 
#    y 0.000000 2.090810 0.000000 
#    z 0.000000 0.000000 -5.635860 
# 
# From -- ./inp_files/16436.got.cif
#   From: 2010.05.17/outbox.cif.g08.bks.cpg/sg70_9_cif.got.tgz:16436.got - 2010.06.03 15:57:51.
