data_PCOD9515433
_publ_section_title
;
Structure prediction by ZEFSAII (Michael W. Deem and Ramdas Pophale) SiO2 
 PCOD9515433
Probable space group: F D D D
;
_chemical_formula_sum "Si O2"
_cell_formula_units_Z 136
_cell_length_a 24.629053
_cell_length_b 17.892768
_cell_length_c 14.063479
_cell_angle_alpha 90.000000
_cell_angle_beta 90.000000
_cell_angle_gamma 90.000000
_cell_volume 6197.521088
_symmetry_space_group_name_H-M "F D D D"
_symmetry_group_IT_number 70
_space_group.IT_coordinate_system_code '2'
_symmetry_cell_setting 'orthorhombic'
loop_
_space_group_symop_operation_xyz
x,y,z
1/4-x,1/4-y,z
x,1/4-y,1/4-z
1/4-x,y,1/4-z
-x,-y,-z
3/4+x,3/4+y,-z
-x,3/4+y,3/4+z
3/4+x,-y,3/4+z
x,1/2+y,1/2+z
1/4-x,3/4-y,1/2+z
x,3/4-y,3/4-z
1/4-x,1/2+y,3/4-z
-x,1/2-y,1/2-z
3/4+x,1/4+y,1/2-z
-x,1/4+y,1/4+z
3/4+x,1/2-y,1/4+z
1/2+x,y,1/2+z
3/4-x,1/4-y,1/2+z
1/2+x,1/4-y,3/4-z
3/4-x,y,3/4-z
1/2-x,-y,1/2-z
1/4+x,3/4+y,1/2-z
1/2-x,3/4+y,1/4+z
1/4+x,-y,1/4+z
1/2+x,1/2+y,z
3/4-x,3/4-y,z
1/2+x,3/4-y,1/4-z
3/4-x,1/2+y,1/4-z
1/2-x,1/2-y,-z
1/4+x,1/4+y,-z
1/2-x,1/4+y,3/4+z
1/4+x,1/2-y,3/4+z
loop_
_atom_site_type_symbol
_atom_site_label
_atom_site_fract_x
_atom_site_fract_y
_atom_site_fract_z
Si Si1 0.060196 0.526037 0.470168
Si Si2 0.765625 0.907060 0.135219
Si Si3 0.813096 0.554330 0.690722
Si Si4 0.342997 0.626657 0.780416
Si Si5 0.625000 0.125000 0.625000
O O1 0.050606 0.582244 0.381800
O O2 0.089667 0.445759 0.462277
O O3 0.088338 0.573924 0.554623
O O4 0.000000 0.500000 0.500000
O O5 0.733893 0.922814 0.233474
O O6 0.717225 0.902985 0.057949
O O7 0.802644 0.980086 0.130842
O O8 0.813958 0.625000 0.625000
O O9 0.870093 0.555295 0.745563
O O10 0.375000 0.599214 0.875000
#
# Coordination Sequence:
#
# PCOD9515433 Si02
#       5
#    32  32  32  32   8
#     4  10  22  40  63  97 134 170 214 277 337 402
#     4   9  21  40  61  91 128 167 216 266 319 390
#     4  10  21  39  63  87 126 173 214 263 318 383
#     4   9  18  39  65  91 126 165 212 270 332 383
#     4  12  24  40  68 100 138 172 222 280 348 406
#
# _framework density 21.944258000000001
#
# number of rings (size 3 to 8) (size 9 to 14) (size 15 to 20)
#    0.000    2.353    1.176    0.000    3.294    0.000 
#   12.706    0.000    0.000    4.941    0.000    0.000 
#    0.000    0.000    0.000    0.000    0.000    0.000 
#
# Total GULP energy -189563.810609 kJ/mol
# GULP energy per Si atom -5575.406194 kJ/mol
# Density = 2.189431 g / cm^3
# Si number density = 21.944258 Si / 1000 Ang^3
#
#
#
# Elastic Constant Matrix: (Units=GPa)
#
#
# Indices 1 2 3 4 5 6 
#
# 1 96.5564 60.8172 21.2235 0.0000 0.0000 0.0000
# 2 60.8172 158.2566 34.0096 0.0000 0.0000 0.0000
# 3 21.2235 34.0096 42.2176 0.0000 0.0000 0.0000
# 4 0.0000 0.0000 0.0000 38.8601 0.0000 0.0000
# 5 0.0000 0.0000 0.0000 0.0000 11.2173 0.0000
# 6 0.0000 0.0000 0.0000 0.0000 0.0000 7.7049
#
#
#
# Elastic Compliance Matrix: (Units=1/GPa)
#
#
# Indices 1 2 3 4 5 6 
#
# 1 0.014029 -0.004687 -0.003277 0.000000 0.000000 0.000000
# 2 -0.004687 0.009208 -0.005061 0.000000 0.000000 0.000000
# 3 -0.003277 -0.005061 0.029411 0.000000 0.000000 0.000000
# 4 0.000000 0.000000 0.000000 0.025733 0.000000 0.000000
# 5 0.000000 0.000000 0.000000 0.000000 0.089148 0.000000
# 6 0.000000 0.000000 0.000000 0.000000 0.000000 0.129787
#
#
# Mechanical properties :
#
#
# Convention : Reuss Voigt Hill
#
# Bulk Modulus (GPa) = 37.59706 58.79236 48.19471
# Shear Modulus (GPa) = 15.04967 23.62182 19.33575
#
# Velocity S-wave (km/s) = 2.62165 3.28448 2.97160
# Velocity P-wave (km/s) = 5.13169 6.42134 5.81239
#
# Compressibility (1/GPa) = 0.02659782
#
# Stress axis : x y z
#
# Youngs Moduli (GPa) = 71.28015 108.60382 34.00039
#
# Poissons Ratio (x) = 0.50904 0.11141
# Poissons Ratio (y) = 0.33410 0.17209
# Poissons Ratio (z) = 0.23357 0.54968
#
# Static dielectric constant tensor:
#      x y z
#    x 1.893560 0.000000 0.000000 
#    y 0.000000 1.779220 0.000000 
#    z 0.000000 0.000000 1.853910 
# 
# From -- ./inp_files/29672.got.cif
#   From: 2010.05.17/outbox.cif.g08.bks.cpg/sg70_15_cif.got.tgz:29672.got - 2010.06.03 15:57:51.
