data_PCOD9515932
_publ_section_title
;
Structure prediction by ZEFSAII (Michael W. Deem and Ramdas Pophale) SiO2 
 PCOD9515932
Probable space group: F D D D
;
_chemical_formula_sum "Si O2"
_cell_formula_units_Z 136
_cell_length_a 23.328658
_cell_length_b 17.809604
_cell_length_c 13.503898
_cell_angle_alpha 90.000000
_cell_angle_beta 90.000000
_cell_angle_gamma 90.000000
_cell_volume 5610.520690
_symmetry_space_group_name_H-M "F D D D"
_symmetry_group_IT_number 70
_space_group.IT_coordinate_system_code '2'
_symmetry_cell_setting 'orthorhombic'
loop_
_space_group_symop_operation_xyz
x,y,z
1/4-x,1/4-y,z
x,1/4-y,1/4-z
1/4-x,y,1/4-z
-x,-y,-z
3/4+x,3/4+y,-z
-x,3/4+y,3/4+z
3/4+x,-y,3/4+z
x,1/2+y,1/2+z
1/4-x,3/4-y,1/2+z
x,3/4-y,3/4-z
1/4-x,1/2+y,3/4-z
-x,1/2-y,1/2-z
3/4+x,1/4+y,1/2-z
-x,1/4+y,1/4+z
3/4+x,1/2-y,1/4+z
1/2+x,y,1/2+z
3/4-x,1/4-y,1/2+z
1/2+x,1/4-y,3/4-z
3/4-x,y,3/4-z
1/2-x,-y,1/2-z
1/4+x,3/4+y,1/2-z
1/2-x,3/4+y,1/4+z
1/4+x,-y,1/4+z
1/2+x,1/2+y,z
3/4-x,3/4-y,z
1/2+x,3/4-y,1/4-z
3/4-x,1/2+y,1/4-z
1/2-x,1/2-y,-z
1/4+x,1/4+y,-z
1/2-x,1/4+y,3/4+z
1/4+x,1/2-y,3/4+z
loop_
_atom_site_type_symbol
_atom_site_label
_atom_site_fract_x
_atom_site_fract_y
_atom_site_fract_z
Si Si1 0.125000 0.125000 0.625000
Si Si2 0.902820 0.749338 0.650604
Si Si3 0.913308 0.140906 0.972770
Si Si4 0.276106 0.411903 0.509326
Si Si5 0.529108 0.037347 0.851329
O O1 0.083451 0.170918 0.555349
O O2 0.887922 0.692655 0.559810
O O3 0.915247 0.695029 0.741943
O O4 0.957536 0.795750 0.611108
O O5 0.846381 0.798980 0.667860
O O6 0.875000 0.148030 0.875000
O O7 0.977895 0.170880 0.956899
O O8 0.269255 0.324839 0.539555
O O9 0.229548 0.452397 0.441148
#
# Coordination Sequence:
#
# PCOD9515932 Si02
#       5
#     8  32  32  32  32
#     4  12  24  44  64 100 138 176 228 306 356 428
#     4  10  22  43  64  99 143 181 240 308 355 440
#     4  10  23  39  65 100 138 185 246 300 362 443
#     4  11  25  42  69 101 140 180 242 297 362 448
#     4  11  23  42  68  97 137 191 230 297 379 417
#
# _framework density 24.240175000000001
#
# number of rings (size 3 to 8) (size 9 to 14) (size 15 to 20)
#    0.000    1.412    2.353    1.412    6.588    6.588 
#    0.000    4.706    0.000    1.412    0.000    0.000 
#    0.000    0.000    0.000    0.000    0.000    0.000 
#
# Total GULP energy -189683.733984 kJ/mol
# GULP energy per Si atom -5578.933352 kJ/mol
# Density = 2.418500 g / cm^3
# Si number density = 24.240175 Si / 1000 Ang^3
#
#
#
# Elastic Constant Matrix: (Units=GPa)
#
#
# Indices 1 2 3 4 5 6 
#
# 1 100.1160 41.4182 43.1318 0.0000 0.0000 0.0000
# 2 41.4182 124.0966 31.6411 0.0000 0.0000 0.0000
# 3 43.1318 31.6411 52.9936 0.0000 0.0000 0.0000
# 4 0.0000 0.0000 0.0000 43.6842 0.0000 0.0000
# 5 0.0000 0.0000 0.0000 0.0000 26.6289 0.0000
# 6 0.0000 0.0000 0.0000 0.0000 0.0000 33.7258
#
#
#
# Elastic Compliance Matrix: (Units=1/GPa)
#
#
# Indices 1 2 3 4 5 6 
#
# 1 0.015954 -0.002376 -0.011567 0.000000 0.000000 0.000000
# 2 -0.002376 0.009859 -0.003953 0.000000 0.000000 0.000000
# 3 -0.011567 -0.003953 0.030645 0.000000 0.000000 0.000000
# 4 0.000000 0.000000 0.000000 0.022892 0.000000 0.000000
# 5 0.000000 0.000000 0.000000 0.000000 0.037553 0.000000
# 6 0.000000 0.000000 0.000000 0.000000 0.000000 0.029651
#
#
# Mechanical properties :
#
#
# Convention : Reuss Voigt Hill
#
# Bulk Modulus (GPa) = 48.38619 56.62093 52.50356
# Shear Modulus (GPa) = 26.42225 31.54211 28.98218
#
# Velocity S-wave (km/s) = 3.30513 3.61117 3.46153
# Velocity P-wave (km/s) = 5.87959 6.38721 6.13865
#
# Compressibility (1/GPa) = 0.02066706
#
# Stress axis : x y z
#
# Youngs Moduli (GPa) = 62.67826 101.42971 32.63192
#
# Poissons Ratio (x) = 0.24096 0.37745
# Poissons Ratio (y) = 0.14890 0.12899
# Poissons Ratio (z) = 0.72500 0.40095
#
# Static dielectric constant tensor:
#      x y z
#    x 1.926560 0.000000 0.000000 
#    y 0.000000 2.099990 0.000000 
#    z 0.000000 0.000000 1.970470 
# 
# From -- ./inp_files/27462.got.cif
#   From: 2010.05.17/outbox.cif.g08.bks.cpg/sg70_14_cif.got.tgz:27462.got - 2010.06.03 15:57:51.
