data_PCOD9515083
_publ_section_title
;
Structure prediction by ZEFSAII (Michael W. Deem and Ramdas Pophale) SiO2 
 PCOD9515083
Probable space group: F D D D
;
_chemical_formula_sum "Si O2"
_cell_formula_units_Z 176
_cell_length_a 16.009132
_cell_length_b 28.335937
_cell_length_c 16.605658
_cell_angle_alpha 90.000000
_cell_angle_beta 90.000000
_cell_angle_gamma 90.000000
_cell_volume 7532.887006
_symmetry_space_group_name_H-M "F D D D"
_symmetry_group_IT_number 70
_space_group.IT_coordinate_system_code '2'
_symmetry_cell_setting 'orthorhombic'
loop_
_space_group_symop_operation_xyz
x,y,z
1/4-x,1/4-y,z
x,1/4-y,1/4-z
1/4-x,y,1/4-z
-x,-y,-z
3/4+x,3/4+y,-z
-x,3/4+y,3/4+z
3/4+x,-y,3/4+z
x,1/2+y,1/2+z
1/4-x,3/4-y,1/2+z
x,3/4-y,3/4-z
1/4-x,1/2+y,3/4-z
-x,1/2-y,1/2-z
3/4+x,1/4+y,1/2-z
-x,1/4+y,1/4+z
3/4+x,1/2-y,1/4+z
1/2+x,y,1/2+z
3/4-x,1/4-y,1/2+z
1/2+x,1/4-y,3/4-z
3/4-x,y,3/4-z
1/2-x,-y,1/2-z
1/4+x,3/4+y,1/2-z
1/2-x,3/4+y,1/4+z
1/4+x,-y,1/4+z
1/2+x,1/2+y,z
3/4-x,3/4-y,z
1/2+x,3/4-y,1/4-z
3/4-x,1/2+y,1/4-z
1/2-x,1/2-y,-z
1/4+x,1/4+y,-z
1/2-x,1/4+y,3/4+z
1/4+x,1/2-y,3/4+z
loop_
_atom_site_type_symbol
_atom_site_label
_atom_site_fract_x
_atom_site_fract_y
_atom_site_fract_z
Si Si1 0.375000 0.875000 0.532523
Si Si2 0.375000 0.511219 0.875000
Si Si3 0.587847 0.875000 0.375000
Si Si4 0.517773 0.559638 0.206879
Si Si5 0.069965 0.351560 0.708422
Si Si6 0.380530 0.246081 0.464415
Si Si7 0.044192 0.183038 0.407495
O O1 0.452478 0.861498 0.479176
O O2 0.395394 0.919468 0.586069
O O3 0.403992 0.473870 0.807602
O O4 0.290337 0.541930 0.873286
O O5 0.540509 0.926434 0.368848
O O6 0.638928 0.877297 0.290392
O O7 0.462061 0.537638 0.276297
O O8 0.125000 0.356316 0.625000
O O9 0.060063 0.294984 0.724253
O O10 0.988666 0.383477 0.693848
O O11 0.375000 0.266282 0.375000
O O12 0.404549 0.284709 0.530506
#
# Coordination Sequence:
#
# PCOD9515083 Si02
#       7
#    16  16  16  32  32  32  32
#     4  12  24  41  67  98 138 176 222 281 354 411
#     4  10  22  41  62  98 130 170 224 273 338 420
#     4  10  20  39  70  97 132 176 230 276 340 421
#     4  10  21  38  63  98 130 170 216 279 349 403
#     4  10  20  42  71  95 136 182 221 286 348 404
#     4   9  20  42  64  90 132 176 232 280 336 409
#     4  11  23  42  65  97 131 179 228 277 339 411
#
# _framework density 23.364215999999999
#
# number of rings (size 3 to 8) (size 9 to 14) (size 15 to 20)
#    0.000    1.818    0.909    4.364    0.000    0.727 
#   22.909    1.818    0.000    0.000    0.000    0.000 
#    0.000    0.000    0.000    0.000    0.000    0.000 
#
# Total GULP energy -244973.137226 kJ/mol
# GULP energy per Si atom -5567.571301 kJ/mol
# Density = 2.331104 g / cm^3
# Si number density = 23.364216 Si / 1000 Ang^3
#
#
#
# Elastic Constant Matrix: (Units=GPa)
#
#
# Indices 1 2 3 4 5 6 
#
# 1 46.5590 18.8317 23.0390 0.0000 0.0000 0.0000
# 2 18.8317 89.6279 22.6655 0.0000 0.0000 0.0000
# 3 23.0390 22.6655 97.7476 0.0000 0.0000 0.0000
# 4 0.0000 0.0000 0.0000 247.0973 0.0000 0.0000
# 5 0.0000 0.0000 0.0000 0.0000 40.9929 0.0000
# 6 0.0000 0.0000 0.0000 0.0000 0.0000 52.6404
#
#
#
# Elastic Compliance Matrix: (Units=1/GPa)
#
#
# Indices 1 2 3 4 5 6 
#
# 1 0.025659 -0.004102 -0.005097 0.000000 0.000000 0.000000
# 2 -0.004102 0.012508 -0.001933 0.000000 0.000000 0.000000
# 3 -0.005097 -0.001933 0.011880 0.000000 0.000000 0.000000
# 4 0.000000 0.000000 0.000000 0.004047 0.000000 0.000000
# 5 0.000000 0.000000 0.000000 0.000000 0.024394 0.000000
# 6 0.000000 0.000000 0.000000 0.000000 0.000000 0.018997
#
#
# Mechanical properties :
#
#
# Convention : Reuss Voigt Hill
#
# Bulk Modulus (GPa) = 35.99378 40.33412 38.16395
# Shear Modulus (GPa) = 38.75619 79.43935 59.09777
#
# Velocity S-wave (km/s) = 4.07724 5.83732 5.03478
# Velocity P-wave (km/s) = 6.13222 7.92042 7.08298
#
# Compressibility (1/GPa) = 0.02778258
#
# Stress axis : x y z
#
# Youngs Moduli (GPa) = 38.97207 79.94802 84.17497
#
# Poissons Ratio (x) = 0.32798 0.42901
# Poissons Ratio (y) = 0.15988 0.16275
# Poissons Ratio (z) = 0.19863 0.15457
#
# Static dielectric constant tensor:
#      x y z
#    x 2.033490 0.000000 0.000000 
#    y 0.000000 1.959140 0.000000 
#    z 0.000000 0.000000 1.872510 
# 
# From -- ./inp_files/35477.got.cif
#   From: 2010.05.17/outbox.cif.g08.bks.cpg/sg70_18_cif.got.tgz:35477.got - 2010.06.03 15:57:51.
