data_PCOD9515203
_publ_section_title
;
Structure prediction by ZEFSAII (Michael W. Deem and Ramdas Pophale) SiO2 
 PCOD9515203
Probable space group: F D D D
;
_chemical_formula_sum "Si O2"
_cell_formula_units_Z 160
_cell_length_a 31.904436
_cell_length_b 13.164537
_cell_length_c 16.681821
_cell_angle_alpha 90.000000
_cell_angle_beta 90.000000
_cell_angle_gamma 90.000000
_cell_volume 7006.483731
_symmetry_space_group_name_H-M "F D D D"
_symmetry_group_IT_number 70
_space_group.IT_coordinate_system_code '2'
_symmetry_cell_setting 'orthorhombic'
loop_
_space_group_symop_operation_xyz
x,y,z
1/4-x,1/4-y,z
x,1/4-y,1/4-z
1/4-x,y,1/4-z
-x,-y,-z
3/4+x,3/4+y,-z
-x,3/4+y,3/4+z
3/4+x,-y,3/4+z
x,1/2+y,1/2+z
1/4-x,3/4-y,1/2+z
x,3/4-y,3/4-z
1/4-x,1/2+y,3/4-z
-x,1/2-y,1/2-z
3/4+x,1/4+y,1/2-z
-x,1/4+y,1/4+z
3/4+x,1/2-y,1/4+z
1/2+x,y,1/2+z
3/4-x,1/4-y,1/2+z
1/2+x,1/4-y,3/4-z
3/4-x,y,3/4-z
1/2-x,-y,1/2-z
1/4+x,3/4+y,1/2-z
1/2-x,3/4+y,1/4+z
1/4+x,-y,1/4+z
1/2+x,1/2+y,z
3/4-x,3/4-y,z
1/2+x,3/4-y,1/4-z
3/4-x,1/2+y,1/4-z
1/2-x,1/2-y,-z
1/4+x,1/4+y,-z
1/2-x,1/4+y,3/4+z
1/4+x,1/2-y,3/4+z
loop_
_atom_site_type_symbol
_atom_site_label
_atom_site_fract_x
_atom_site_fract_y
_atom_site_fract_z
Si Si1 0.231419 0.637060 0.220094
Si Si2 0.748925 0.108182 0.528589
Si Si3 0.180781 0.796219 0.016603
Si Si4 0.875000 0.677455 0.875000
Si Si5 0.071691 0.013562 0.986982
Si Si6 0.627977 0.375000 0.375000
O O1 0.238307 0.625000 0.125000
O O2 0.232721 0.750312 0.253177
O O3 0.188936 0.574195 0.235601
O O4 0.272350 0.589116 0.260946
O O5 0.744855 0.125000 0.625000
O O6 0.783395 0.186581 0.496206
O O7 0.703096 0.129867 0.489163
O O8 0.160121 0.850229 0.092524
O O9 0.151634 0.832568 0.944384
O O10 0.855478 0.748259 0.943467
O O11 0.093400 0.967339 0.908138
#
# Coordination Sequence:
#
# PCOD9515203 Si02
#       6
#    32  32  32  16  32  16
#     4  11  23  43  71 102 137 191 240 289 352 435
#     4  11  23  43  71 102 137 191 240 289 352 435
#     4  10  22  41  70  98 145 177 233 292 353 423
#     4  10  20  42  70 106 144 186 228 300 360 422
#     4  10  22  41  70  98 145 177 233 292 353 423
#     4  10  20  46  66 110 138 180 228 300 356 414
#
# _framework density 22.835992000000001
#
# number of rings (size 3 to 8) (size 9 to 14) (size 15 to 20)
#    0.000    1.600    2.000    2.400    0.000    4.800 
#    0.000   21.000    0.000    0.000    0.000    0.000 
#    0.000    0.000    0.000    0.000    0.000    0.000 
#
# Total GULP energy -223485.083841 kJ/mol
# GULP energy per Si atom -5587.127096 kJ/mol
# Density = 2.278402 g / cm^3
# Si number density = 22.835992 Si / 1000 Ang^3
#
#
#
# Elastic Constant Matrix: (Units=GPa)
#
#
# Indices 1 2 3 4 5 6 
#
# 1 72.1039 -0.0313 -5.3124 0.0000 0.0000 0.0000
# 2 -0.0313 76.6546 -7.7665 0.0000 0.0000 0.0000
# 3 -5.3124 -7.7665 48.9998 0.0000 0.0000 0.0000
# 4 0.0000 0.0000 0.0000 14.4305 0.0000 0.0000
# 5 0.0000 0.0000 0.0000 0.0000 -21.4538 0.0000
# 6 0.0000 0.0000 0.0000 0.0000 0.0000 20.2324
#
#
#
# Elastic Compliance Matrix: (Units=1/GPa)
#
#
# Indices 1 2 3 4 5 6 
#
# 1 0.013983 0.000162 0.001542 0.000000 0.000000 0.000000
# 2 0.000162 0.013260 0.002119 0.000000 0.000000 0.000000
# 3 0.001542 0.002119 0.020911 0.000000 0.000000 0.000000
# 4 0.000000 0.000000 0.000000 0.069298 0.000000 0.000000
# 5 0.000000 0.000000 0.000000 0.000000 -0.046612 0.000000
# 6 0.000000 0.000000 0.000000 0.000000 0.000000 0.049426
#
#
# Mechanical properties :
#
#
# Convention : Reuss Voigt Hill
#
# Bulk Modulus (GPa) = 17.92122 19.05976 18.49049
# Shear Modulus (GPa) = 38.10398 16.69973 27.40185
#
# Velocity S-wave (km/s) = 4.08927 2.70717 3.46778
# Velocity P-wave (km/s) = 5.49191 4.25866 4.91412
#
# Compressibility (1/GPa) = 0.05579979
#
# Stress axis : x y z
#
# Youngs Moduli (GPa) = 71.51780 75.41294 47.82106
#
# Poissons Ratio (x) = -0.01221 -0.07372
# Poissons Ratio (y) = -0.01158 -0.10135
# Poissons Ratio (z) = -0.11025 -0.15982
#
# Static dielectric constant tensor:
#      x y z
#    x 1.849400 0.000000 0.000000 
#    y 0.000000 2.213530 0.000000 
#    z 0.000000 0.000000 1.863910 
# 
# From -- ./inp_files/39539.got.cif
#   From: 2010.05.17/outbox.cif.g08.bks.cpg/sg70_20_cif.got.tgz:39539.got - 2010.06.03 15:57:51.
