data_PCOD9515077
_publ_section_title
;
Structure prediction by ZEFSAII (Michael W. Deem and Ramdas Pophale) SiO2 
 PCOD9515077
Probable space group: F D D D
;
_chemical_formula_sum "Si O2"
_cell_formula_units_Z 208
_cell_length_a 18.477587
_cell_length_b 19.103346
_cell_length_c 25.410686
_cell_angle_alpha 90.000000
_cell_angle_beta 90.000000
_cell_angle_gamma 90.000000
_cell_volume 8969.558922
_symmetry_space_group_name_H-M "F D D D"
_symmetry_group_IT_number 70
_space_group.IT_coordinate_system_code '2'
_symmetry_cell_setting 'orthorhombic'
loop_
_space_group_symop_operation_xyz
x,y,z
1/4-x,1/4-y,z
x,1/4-y,1/4-z
1/4-x,y,1/4-z
-x,-y,-z
3/4+x,3/4+y,-z
-x,3/4+y,3/4+z
3/4+x,-y,3/4+z
x,1/2+y,1/2+z
1/4-x,3/4-y,1/2+z
x,3/4-y,3/4-z
1/4-x,1/2+y,3/4-z
-x,1/2-y,1/2-z
3/4+x,1/4+y,1/2-z
-x,1/4+y,1/4+z
3/4+x,1/2-y,1/4+z
1/2+x,y,1/2+z
3/4-x,1/4-y,1/2+z
1/2+x,1/4-y,3/4-z
3/4-x,y,3/4-z
1/2-x,-y,1/2-z
1/4+x,3/4+y,1/2-z
1/2-x,3/4+y,1/4+z
1/4+x,-y,1/4+z
1/2+x,1/2+y,z
3/4-x,3/4-y,z
1/2+x,3/4-y,1/4-z
3/4-x,1/2+y,1/4-z
1/2-x,1/2-y,-z
1/4+x,1/4+y,-z
1/2-x,1/4+y,3/4+z
1/4+x,1/2-y,3/4+z
loop_
_atom_site_type_symbol
_atom_site_label
_atom_site_fract_x
_atom_site_fract_y
_atom_site_fract_z
Si Si1 0.860884 0.292880 0.704639
Si Si2 0.487117 0.207229 0.402609
Si Si3 0.125000 0.125000 0.253714
Si Si4 0.580339 0.301877 0.208537
Si Si5 0.331655 0.963594 0.321765
Si Si6 0.796204 0.707349 0.751261
Si Si7 0.808494 0.803096 0.095246
O O1 0.875000 0.375000 0.710997
O O2 0.778652 0.274852 0.719695
O O3 0.859010 0.278149 0.642605
O O4 0.912577 0.253327 0.744484
O O5 0.467885 0.223613 0.341441
O O6 0.410633 0.191424 0.432423
O O7 0.525842 0.265109 0.441375
O O8 0.525101 0.130852 0.396996
O O9 0.063118 0.142393 0.210852
O O10 0.143123 0.064542 0.294481
O O11 0.558052 0.374873 0.236426
O O12 0.375000 0.952071 0.375000
O O13 0.388522 0.006904 0.285143
O O14 0.258343 0.003474 0.333552
#
# Coordination Sequence:
#
# PCOD9515077 Si02
#       7
#    32  32  16  32  32  32  32
#     4  11  24  41  68 101 140 187 232 290 358 432
#     4  10  20  39  69 104 140 184 233 294 366 440
#     4  12  27  42  66 102 146 179 232 290 356 430
#     4  10  21  40  69 104 139 181 240 297 356 435
#     4  12  23  42  69 101 136 187 235 286 353 425
#     4  11  21  40  72 101 137 183 237 297 359 433
#     4  12  22  42  70  98 142 187 230 286 365 435
#
# _framework density 23.189546
#
# number of rings (size 3 to 8) (size 9 to 14) (size 15 to 20)
#    0.000    0.923    6.923    0.692    0.000    0.615 
#    0.000    6.154    3.385    0.000    0.000    0.000 
#    0.000    0.000    0.000    0.000    0.000    0.000 
#
# Total GULP energy -289550.783672 kJ/mol
# GULP energy per Si atom -5568.284301 kJ/mol
# Density = 2.313677 g / cm^3
# Si number density = 23.189546 Si / 1000 Ang^3
#
#
#
# Elastic Constant Matrix: (Units=GPa)
#
#
# Indices 1 2 3 4 5 6 
#
# 1 89.6977 41.8081 61.1900 0.0000 0.0000 0.0000
# 2 41.8081 98.7765 97.3558 0.0000 0.0000 0.0000
# 3 61.1900 97.3558 237.4357 0.0000 0.0000 0.0000
# 4 0.0000 0.0000 0.0000 30.1548 0.0000 0.0000
# 5 0.0000 0.0000 0.0000 0.0000 20.7585 0.0000
# 6 0.0000 0.0000 0.0000 0.0000 0.0000 30.4485
#
#
#
# Elastic Compliance Matrix: (Units=1/GPa)
#
#
# Indices 1 2 3 4 5 6 
#
# 1 0.014455 -0.004106 -0.002042 0.000000 0.000000 0.000000
# 2 -0.004106 0.018156 -0.006387 0.000000 0.000000 0.000000
# 3 -0.002042 -0.006387 0.007357 0.000000 0.000000 0.000000
# 4 0.000000 0.000000 0.000000 0.033162 0.000000 0.000000
# 5 0.000000 0.000000 0.000000 0.000000 0.048173 0.000000
# 6 0.000000 0.000000 0.000000 0.000000 0.000000 0.032842
#
#
# Mechanical properties :
#
#
# Convention : Reuss Voigt Hill
#
# Bulk Modulus (GPa) = 67.11531 91.84638 79.48085
# Shear Modulus (GPa) = 27.14728 31.30944 29.22836
#
# Velocity S-wave (km/s) = 3.42522 3.67843 3.55408
# Velocity P-wave (km/s) = 6.68189 7.59828 7.15477
#
# Compressibility (1/GPa) = 0.01489973
#
# Stress axis : x y z
#
# Youngs Moduli (GPa) = 69.17952 55.07695 135.93408
#
# Poissons Ratio (x) = 0.22614 0.27754
# Poissons Ratio (y) = 0.28405 0.86815
# Poissons Ratio (z) = 0.14124 0.35175
#
# Static dielectric constant tensor:
#      x y z
#    x 2.075660 0.000000 0.000000 
#    y 0.000000 2.091120 0.000000 
#    z 0.000000 0.000000 1.914950 
# 
# From -- ./inp_files/59725.got.cif
#   From: 2010.05.17/outbox.cif.g08.bks.cpg/sg70_30_cif.got.tgz:59725.got - 2010.06.03 15:57:51.
