data_PCOD9515244
_publ_section_title
;
Structure prediction by ZEFSAII (Michael W. Deem and Ramdas Pophale) SiO2 
 PCOD9515244
Probable space group: F D D D
;
_chemical_formula_sum "Si O2"
_cell_formula_units_Z 120
_cell_length_a 16.077998
_cell_length_b 44.170346
_cell_length_c 7.410848
_cell_angle_alpha 90.000000
_cell_angle_beta 90.000000
_cell_angle_gamma 90.000000
_cell_volume 5262.967369
_symmetry_space_group_name_H-M "F D D D"
_symmetry_group_IT_number 70
_space_group.IT_coordinate_system_code '2'
_symmetry_cell_setting 'orthorhombic'
loop_
_space_group_symop_operation_xyz
x,y,z
1/4-x,1/4-y,z
x,1/4-y,1/4-z
1/4-x,y,1/4-z
-x,-y,-z
3/4+x,3/4+y,-z
-x,3/4+y,3/4+z
3/4+x,-y,3/4+z
x,1/2+y,1/2+z
1/4-x,3/4-y,1/2+z
x,3/4-y,3/4-z
1/4-x,1/2+y,3/4-z
-x,1/2-y,1/2-z
3/4+x,1/4+y,1/2-z
-x,1/4+y,1/4+z
3/4+x,1/2-y,1/4+z
1/2+x,y,1/2+z
3/4-x,1/4-y,1/2+z
1/2+x,1/4-y,3/4-z
3/4-x,y,3/4-z
1/2-x,-y,1/2-z
1/4+x,3/4+y,1/2-z
1/2-x,3/4+y,1/4+z
1/4+x,-y,1/4+z
1/2+x,1/2+y,z
3/4-x,3/4-y,z
1/2+x,3/4-y,1/4-z
3/4-x,1/2+y,1/4-z
1/2-x,1/2-y,-z
1/4+x,1/4+y,-z
1/2-x,1/4+y,3/4+z
1/4+x,1/2-y,3/4+z
loop_
_atom_site_type_symbol
_atom_site_label
_atom_site_fract_x
_atom_site_fract_y
_atom_site_fract_z
Si Si1 0.844285 0.625000 0.625000
Si Si2 0.375000 0.375000 0.875000
Si Si3 0.032474 0.577818 0.178013
Si Si4 0.765761 0.581865 0.971683
Si Si5 0.462292 0.966830 0.483325
O O1 0.779418 0.645292 0.743207
O O2 0.907451 0.602361 0.719469
O O3 0.315852 0.352359 0.763841
O O4 0.257407 0.570108 0.267138
O O5 0.041296 0.551312 0.325793
O O6 0.125000 0.588309 0.125000
O O7 0.768614 0.553697 0.105145
O O8 0.375000 0.968099 0.375000
O O9 0.500000 0.000000 0.500000
#
# Coordination Sequence:
#
# PCOD9515244 Si02
#       5
#    16   8  32  32  32
#     4  11  29  43  79 126 164 202 263 333 413 505
#     4  10  20  44  80 104 168 196 250 318 408 490
#     4  12  26  48  77 113 159 211 259 329 419 479
#     4  11  25  48  73 119 155 206 259 328 405 484
#     4  12  29  53  77 107 153 217 278 334 392 483
#
# _framework density 22.800826000000001
#
# number of rings (size 3 to 8) (size 9 to 14) (size 15 to 20)
#    0.000    0.533    4.000    1.200   18.667    1.067 
#    0.000    0.000    0.000    0.000    0.000    0.000 
#    0.000    0.000    0.000    0.000    0.000    0.000 
#
# Total GULP energy -167675.320967 kJ/mol
# GULP energy per Si atom -5589.177366 kJ/mol
# Density = 2.274893 g / cm^3
# Si number density = 22.800826 Si / 1000 Ang^3
#
#
#
# Elastic Constant Matrix: (Units=GPa)
#
#
# Indices 1 2 3 4 5 6 
#
# 1 173.0751 93.7741 67.3135 0.0000 0.0000 0.0000
# 2 93.7741 203.5421 103.4601 0.0000 0.0000 0.0000
# 3 67.3135 103.4601 182.3363 0.0000 -0.0001 0.0000
# 4 0.0000 0.0000 0.0000 29.3310 0.0000 0.0000
# 5 0.0000 0.0000 -0.0001 0.0000 32.8642 0.0000
# 6 0.0000 0.0000 0.0000 0.0000 0.0000 20.3301
#
#
#
# Elastic Compliance Matrix: (Units=1/GPa)
#
#
# Indices 1 2 3 4 5 6 
#
# 1 0.007880 -0.003024 -0.001193 0.000000 0.000000 0.000000
# 2 -0.003024 0.008065 -0.003460 0.000000 0.000000 0.000000
# 3 -0.001193 -0.003460 0.007888 0.000000 0.000000 0.000000
# 4 0.000000 0.000000 0.000000 0.034094 0.000000 0.000000
# 5 0.000000 0.000000 0.000000 0.000000 0.030428 0.000000
# 6 0.000000 0.000000 0.000000 0.000000 0.000000 0.049188
#
#
# Mechanical properties :
#
#
# Convention : Reuss Voigt Hill
#
# Bulk Modulus (GPa) = 117.93757 120.89433 119.41595
# Shear Modulus (GPa) = 32.10819 36.13212 34.12015
#
# Velocity S-wave (km/s) = 3.75667 3.98513 3.87259
# Velocity P-wave (km/s) = 8.40561 8.62044 8.51370
#
# Compressibility (1/GPa) = 0.00847906
#
# Stress axis : x y z
#
# Youngs Moduli (GPa) = 126.89692 123.99691 126.77511
#
# Poissons Ratio (x) = 0.37497 0.15129
# Poissons Ratio (y) = 0.38374 0.43860
# Poissons Ratio (z) = 0.15143 0.42899
#
# Static dielectric constant tensor:
#      x y z
#    x 1.890020 0.000000 0.000000 
#    y 0.000000 1.814090 0.000000 
#    z 0.000000 0.000000 2.022440 
# 
# From -- ./inp_files/10844.got.cif
#   From: 2010.05.17/outbox.cif.g08.bks.cpg/sg70_6_cif.got.tgz:10844.got - 2010.06.03 15:57:51.
