data_PCOD9515564
_publ_section_title
;
Structure prediction by ZEFSAII (Michael W. Deem and Ramdas Pophale) SiO2 
 PCOD9515564
Probable space group: F D D D
;
_chemical_formula_sum "Si O2"
_cell_formula_units_Z 192
_cell_length_a 23.535591
_cell_length_b 14.829722
_cell_length_c 24.046238
_cell_angle_alpha 90.000000
_cell_angle_beta 90.000000
_cell_angle_gamma 90.000000
_cell_volume 8392.768796
_symmetry_space_group_name_H-M "F D D D"
_symmetry_group_IT_number 70
_space_group.IT_coordinate_system_code '2'
_symmetry_cell_setting 'orthorhombic'
loop_
_space_group_symop_operation_xyz
x,y,z
1/4-x,1/4-y,z
x,1/4-y,1/4-z
1/4-x,y,1/4-z
-x,-y,-z
3/4+x,3/4+y,-z
-x,3/4+y,3/4+z
3/4+x,-y,3/4+z
x,1/2+y,1/2+z
1/4-x,3/4-y,1/2+z
x,3/4-y,3/4-z
1/4-x,1/2+y,3/4-z
-x,1/2-y,1/2-z
3/4+x,1/4+y,1/2-z
-x,1/4+y,1/4+z
3/4+x,1/2-y,1/4+z
1/2+x,y,1/2+z
3/4-x,1/4-y,1/2+z
1/2+x,1/4-y,3/4-z
3/4-x,y,3/4-z
1/2-x,-y,1/2-z
1/4+x,3/4+y,1/2-z
1/2-x,3/4+y,1/4+z
1/4+x,-y,1/4+z
1/2+x,1/2+y,z
3/4-x,3/4-y,z
1/2+x,3/4-y,1/4-z
3/4-x,1/2+y,1/4-z
1/2-x,1/2-y,-z
1/4+x,1/4+y,-z
1/2-x,1/4+y,3/4+z
1/4+x,1/2-y,3/4+z
loop_
_atom_site_type_symbol
_atom_site_label
_atom_site_fract_x
_atom_site_fract_y
_atom_site_fract_z
Si Si1 0.545919 0.630167 0.511370
Si Si2 0.338172 0.284739 0.150292
Si Si3 0.746364 0.492780 0.592944
Si Si4 0.188880 0.944493 0.707067
Si Si5 0.841939 0.125000 0.125000
Si Si6 0.259534 0.710729 0.437939
Si Si7 0.625000 0.313989 0.625000
O O1 0.557794 0.684278 0.455996
O O2 0.548783 0.690970 0.565412
O O3 0.582013 0.539251 0.518202
O O4 0.480468 0.599017 0.502038
O O5 0.375000 0.375000 0.134513
O O6 0.370569 0.191521 0.162092
O O7 0.293105 0.263652 0.101863
O O8 0.730172 0.472716 0.656025
O O9 0.804110 0.549500 0.594480
O O10 0.745083 0.398675 0.560733
O O11 0.146921 0.876503 0.676225
O O12 0.250000 0.750000 0.500000
O O13 0.318972 0.732309 0.403886
#
# Coordination Sequence:
#
# PCOD9515564 Si02
#       7
#    32  32  32  32  16  32  16
#     4  11  22  40  71 102 145 185 234 307 383 451
#     4  12  26  46  69 110 151 189 255 315 379 470
#     4  11  22  46  71 104 146 198 244 309 387 462
#     4  10  21  41  70 102 146 184 238 309 388 460
#     4  12  24  44  74 100 154 202 246 316 376 460
#     4  11  26  51  74 109 154 200 258 324 385 472
#     4  10  22  48  77 109 154 198 260 314 382 478
#
# _framework density 22.876836999999998
#
# number of rings (size 3 to 8) (size 9 to 14) (size 15 to 20)
#    0.000    1.000    6.667    0.000    4.667    4.000 
#    0.000    3.333    0.000    1.000    0.000    0.000 
#    0.000    0.000    0.000    0.000    0.000    0.000 
#
# Total GULP energy -267984.534407 kJ/mol
# GULP energy per Si atom -5583.011133 kJ/mol
# Density = 2.282477 g / cm^3
# Si number density = 22.876837 Si / 1000 Ang^3
#
#
#
# Elastic Constant Matrix: (Units=GPa)
#
#
# Indices 1 2 3 4 5 6 
#
# 1 63.7538 17.0228 -6.8974 0.0000 0.0000 0.0000
# 2 17.0228 97.4455 25.4949 0.0000 0.0000 0.0000
# 3 -6.8974 25.4949 84.3502 0.0000 0.0000 0.0000
# 4 0.0000 0.0000 0.0000 48.5394 0.0000 0.0000
# 5 0.0000 0.0000 0.0000 0.0000 33.0238 0.0000
# 6 0.0000 0.0000 0.0000 0.0000 0.0000 26.3348
#
#
#
# Elastic Compliance Matrix: (Units=1/GPa)
#
#
# Indices 1 2 3 4 5 6 
#
# 1 0.016914 -0.003601 0.002472 0.000000 0.000000 0.000000
# 2 -0.003601 0.011910 -0.003894 0.000000 0.000000 0.000000
# 3 0.002472 -0.003894 0.013235 0.000000 0.000000 0.000000
# 4 0.000000 0.000000 0.000000 0.020602 0.000000 0.000000
# 5 0.000000 0.000000 0.000000 0.000000 0.030281 0.000000
# 6 0.000000 0.000000 0.000000 0.000000 0.000000 0.037973
#
#
# Mechanical properties :
#
#
# Convention : Reuss Voigt Hill
#
# Bulk Modulus (GPa) = 31.23948 35.19888 33.21918
# Shear Modulus (GPa) = 32.97432 35.57489 34.27460
#
# Velocity S-wave (km/s) = 3.80068 3.94770 3.87489
# Velocity P-wave (km/s) = 5.73980 6.01655 5.87980
#
# Compressibility (1/GPa) = 0.03201077
#
# Stress axis : x y z
#
# Youngs Moduli (GPa) = 59.12137 83.96184 75.55997
#
# Poissons Ratio (x) = 0.30238 -0.18676
# Poissons Ratio (y) = 0.21292 0.29426
# Poissons Ratio (z) = -0.14613 0.32698
#
# Static dielectric constant tensor:
#      x y z
#    x 1.968980 0.000000 0.000000 
#    y 0.000000 1.890950 0.000000 
#    z 0.000000 0.000000 2.000120 
# 
# From -- ./inp_files/54361.got.cif
#   From: 2010.05.17/outbox.cif.g08.bks.cpg/sg70_28_cif.got.tgz:54361.got - 2010.06.03 15:57:51.
