data_PCOD9515958
_publ_section_title
;
Structure prediction by ZEFSAII (Michael W. Deem and Ramdas Pophale) SiO2 
 PCOD9515958
Probable space group: F D D D
;
_chemical_formula_sum "Si O2"
_cell_formula_units_Z 112
_cell_length_a 21.483243
_cell_length_b 23.483466
_cell_length_c 8.088374
_cell_angle_alpha 90.000000
_cell_angle_beta 90.000000
_cell_angle_gamma 90.000000
_cell_volume 4080.592824
_symmetry_space_group_name_H-M "F D D D"
_symmetry_group_IT_number 70
_space_group.IT_coordinate_system_code '2'
_symmetry_cell_setting 'orthorhombic'
loop_
_space_group_symop_operation_xyz
x,y,z
1/4-x,1/4-y,z
x,1/4-y,1/4-z
1/4-x,y,1/4-z
-x,-y,-z
3/4+x,3/4+y,-z
-x,3/4+y,3/4+z
3/4+x,-y,3/4+z
x,1/2+y,1/2+z
1/4-x,3/4-y,1/2+z
x,3/4-y,3/4-z
1/4-x,1/2+y,3/4-z
-x,1/2-y,1/2-z
3/4+x,1/4+y,1/2-z
-x,1/4+y,1/4+z
3/4+x,1/2-y,1/4+z
1/2+x,y,1/2+z
3/4-x,1/4-y,1/2+z
1/2+x,1/4-y,3/4-z
3/4-x,y,3/4-z
1/2-x,-y,1/2-z
1/4+x,3/4+y,1/2-z
1/2-x,3/4+y,1/4+z
1/4+x,-y,1/4+z
1/2+x,1/2+y,z
3/4-x,3/4-y,z
1/2+x,3/4-y,1/4-z
3/4-x,1/2+y,1/4-z
1/2-x,1/2-y,-z
1/4+x,1/4+y,-z
1/2-x,1/4+y,3/4+z
1/4+x,1/2-y,3/4+z
loop_
_atom_site_type_symbol
_atom_site_label
_atom_site_fract_x
_atom_site_fract_y
_atom_site_fract_z
Si Si1 0.191530 0.032203 0.659301
Si Si2 0.049429 0.329824 0.020953
Si Si3 0.283738 0.125000 0.125000
Si Si4 0.426391 0.950262 0.249011
O O1 0.125000 0.001783 0.625000
O O2 0.226045 0.061749 0.506204
O O3 0.250000 0.000000 0.750000
O O4 0.171962 0.072028 0.812484
O O5 0.080775 0.268727 0.993266
O O6 0.063016 0.355326 0.201466
O O7 0.062087 0.375000 0.875000
O O8 0.241715 0.070985 0.071608
O O9 0.375000 0.930969 0.375000
#
# Coordination Sequence:
#
# PCOD9515958 Si02
#       4
#    32  32  16  32
#     4  10  22  43  72 105 149 197 254 322 395 471
#     4  11  24  46  70 108 150 201 254 323 400 478
#     4  12  23  42  76 102 150 194 260 336 393 476
#     4  11  24  44  69 111 149 197 261 323 402 481
#
# _framework density 27.446992999999999
#
# number of rings (size 3 to 8) (size 9 to 14) (size 15 to 20)
#    0.000    1.143    2.857    3.000    0.000    2.857 
#    2.571    1.429    0.000    0.000    0.000    0.000 
#    0.000    0.000    0.000    0.000    0.000    0.000 
#
# Total GULP energy -156327.326541 kJ/mol
# GULP energy per Si atom -5583.118805 kJ/mol
# Density = 2.738452 g / cm^3
# Si number density = 27.446993 Si / 1000 Ang^3
#
#
#
# Elastic Constant Matrix: (Units=GPa)
#
#
# Indices 1 2 3 4 5 6 
#
# 1 132.3846 22.8453 28.5093 0.0008 -0.0010 -0.0003
# 2 22.8453 178.5982 17.6586 0.0011 -0.0013 -0.0005
# 3 28.5093 17.6586 147.3790 0.0034 -0.0042 -0.0014
# 4 0.0008 0.0011 0.0034 33.9339 -0.0020 -0.0006
# 5 -0.0010 -0.0013 -0.0042 -0.0020 57.1398 0.0007
# 6 -0.0003 -0.0005 -0.0014 -0.0006 0.0007 37.1037
#
#
#
# Elastic Compliance Matrix: (Units=1/GPa)
#
#
# Indices 1 2 3 4 5 6 
#
# 1 0.008017 -0.000883 -0.001445 0.000000 0.000000 0.000000
# 2 -0.000883 0.005763 -0.000520 0.000000 0.000000 0.000000
# 3 -0.001445 -0.000520 0.007127 -0.000001 0.000000 0.000000
# 4 0.000000 0.000000 -0.000001 0.029469 0.000001 0.000000
# 5 0.000000 0.000000 0.000000 0.000001 0.017501 0.000000
# 6 0.000000 0.000000 0.000000 0.000000 0.000000 0.026951
#
#
# Mechanical properties :
#
#
# Convention : Reuss Voigt Hill
#
# Bulk Modulus (GPa) = 65.73490 66.26535 66.00012
# Shear Modulus (GPa) = 47.35058 51.59206 49.47132
#
# Velocity S-wave (km/s) = 4.15802 4.34025 4.25011
# Velocity P-wave (km/s) = 6.85958 7.02229 6.94141
#
# Compressibility (1/GPa) = 0.01521262
#
# Stress axis : x y z
#
# Youngs Moduli (GPa) = 124.73070 173.50691 140.31035
#
# Poissons Ratio (x) = 0.15314 0.20277
# Poissons Ratio (y) = 0.11009 0.07294
# Poissons Ratio (z) = 0.18025 0.09019
#
# Static dielectric constant tensor:
#      x y z
#    x 2.361130 0.000000 0.000000 
#    y 0.000000 2.152320 0.000000 
#    z 0.000000 0.000000 2.195740 
# 
# From -- ./inp_files/9488.got.cif
#   From: 2010.05.17/outbox.cif.g08.bks.cpg/sg70_5_cif.got.tgz:9488.got - 2010.06.03 15:57:51.
