data_PCOD9515519
_publ_section_title
;
Structure prediction by ZEFSAII (Michael W. Deem and Ramdas Pophale) SiO2 
 PCOD9515519
Probable space group: F D D D
;
_chemical_formula_sum "Si O2"
_cell_formula_units_Z 160
_cell_length_a 30.724654
_cell_length_b 12.454553
_cell_length_c 15.027930
_cell_angle_alpha 90.000000
_cell_angle_beta 90.000000
_cell_angle_gamma 90.000000
_cell_volume 5750.615220
_symmetry_space_group_name_H-M "F D D D"
_symmetry_group_IT_number 70
_space_group.IT_coordinate_system_code '2'
_symmetry_cell_setting 'orthorhombic'
loop_
_space_group_symop_operation_xyz
x,y,z
1/4-x,1/4-y,z
x,1/4-y,1/4-z
1/4-x,y,1/4-z
-x,-y,-z
3/4+x,3/4+y,-z
-x,3/4+y,3/4+z
3/4+x,-y,3/4+z
x,1/2+y,1/2+z
1/4-x,3/4-y,1/2+z
x,3/4-y,3/4-z
1/4-x,1/2+y,3/4-z
-x,1/2-y,1/2-z
3/4+x,1/4+y,1/2-z
-x,1/4+y,1/4+z
3/4+x,1/2-y,1/4+z
1/2+x,y,1/2+z
3/4-x,1/4-y,1/2+z
1/2+x,1/4-y,3/4-z
3/4-x,y,3/4-z
1/2-x,-y,1/2-z
1/4+x,3/4+y,1/2-z
1/2-x,3/4+y,1/4+z
1/4+x,-y,1/4+z
1/2+x,1/2+y,z
3/4-x,3/4-y,z
1/2+x,3/4-y,1/4-z
3/4-x,1/2+y,1/4-z
1/2-x,1/2-y,-z
1/4+x,1/4+y,-z
1/2-x,1/4+y,3/4+z
1/4+x,1/2-y,3/4+z
loop_
_atom_site_type_symbol
_atom_site_label
_atom_site_fract_x
_atom_site_fract_y
_atom_site_fract_z
Si Si1 0.078288 0.976921 0.581926
Si Si2 0.741557 0.545531 0.852932
Si Si3 0.148985 0.501698 0.364020
Si Si4 0.177463 0.005080 0.134906
Si Si5 0.052388 0.255922 0.340116
O O1 0.125000 0.988043 0.625000
O O2 0.086938 0.028111 0.486796
O O3 0.067572 0.849869 0.573481
O O4 0.036450 0.004578 0.642342
O O5 0.750000 0.500000 0.750000
O O6 0.697859 0.508514 0.904343
O O7 0.732771 0.673256 0.869215
O O8 0.139066 0.375000 0.375000
O O9 0.100339 0.543903 0.386264
O O10 0.195413 0.125000 0.125000
O O11 0.125000 0.016956 0.125000
O O12 0.192928 0.979397 0.234522
O O13 0.045571 0.375000 0.375000
#
# Coordination Sequence:
#
# PCOD9515519 Si02
#       5
#    32  32  32  32  32
#     4  10  21  43  62  94 146 185 246 313 386 436
#     4  10  24  43  67 104 143 192 260 313 377 466
#     4  10  21  40  70 100 139 196 248 303 377 467
#     4  10  22  37  66 102 141 187 246 311 379 454
#     4  11  23  42  75 105 145 201 252 317 388 465
#
# _framework density 27.823111000000001
#
# number of rings (size 3 to 8) (size 9 to 14) (size 15 to 20)
#    0.000    1.800    0.000    5.400    8.400    1.600 
#   14.400    0.000    0.000    4.800    0.000    0.000 
#    0.000    0.000    0.000    0.000    0.000    0.000 
#
# Total GULP energy -222751.738018 kJ/mol
# GULP energy per Si atom -5568.793450 kJ/mol
# Density = 2.775978 g / cm^3
# Si number density = 27.823111 Si / 1000 Ang^3
#
#
#
# Elastic Constant Matrix: (Units=GPa)
#
#
# Indices 1 2 3 4 5 6 
#
# 1 252.7223 7.6931 16.1921 0.0000 0.0000 0.0000
# 2 7.6931 121.8536 57.3221 0.0000 0.0000 0.0000
# 3 16.1921 57.3221 133.2182 0.0000 0.0000 0.0000
# 4 0.0000 0.0000 0.0000 48.0254 0.0000 0.0000
# 5 0.0000 0.0000 0.0000 0.0000 13.7604 0.0000
# 6 0.0000 0.0000 0.0000 0.0000 0.0000 2.6938
#
#
#
# Elastic Compliance Matrix: (Units=1/GPa)
#
#
# Indices 1 2 3 4 5 6 
#
# 1 0.003988 -0.000030 -0.000472 0.000000 0.000000 0.000000
# 2 -0.000030 0.010289 -0.004424 0.000000 0.000000 0.000000
# 3 -0.000472 -0.004424 0.009467 0.000000 0.000000 0.000000
# 4 0.000000 0.000000 0.000000 0.020822 0.000000 0.000000
# 5 0.000000 0.000000 0.000000 0.000000 0.072672 0.000000
# 6 0.000000 0.000000 0.000000 0.000000 0.000000 0.371216
#
#
# Mechanical properties :
#
#
# Convention : Reuss Voigt Hill
#
# Bulk Modulus (GPa) = 71.97420 74.46763 73.22091
# Shear Modulus (GPa) = 9.94159 41.33504 25.63831
#
# Velocity S-wave (km/s) = 1.89233 3.85858 3.03887
# Velocity P-wave (km/s) = 5.54068 6.83186 6.21987
#
# Compressibility (1/GPa) = 0.01389387
#
# Stress axis : x y z
#
# Youngs Moduli (GPa) = 250.74877 97.18650 105.62608
#
# Poissons Ratio (x) = 0.00289 0.04985
# Poissons Ratio (y) = 0.00747 0.46727
# Poissons Ratio (z) = 0.11833 0.42994
#
# Static dielectric constant tensor:
#      x y z
#    x 2.688710 0.000000 0.000000 
#    y 0.000000 2.446660 0.000000 
#    z 0.000000 0.000000 2.074270 
# 
# From -- ./inp_files/54263.got.cif
#   From: 2010.05.17/outbox.cif.g08.bks.cpg/sg70_28_cif.got.tgz:54263.got - 2010.06.03 15:57:51.
