data_PCOD9515264
_publ_section_title
;
Structure prediction by ZEFSAII (Michael W. Deem and Ramdas Pophale) SiO2 
 PCOD9515264
Probable space group: F D D D
;
_chemical_formula_sum "Si O2"
_cell_formula_units_Z 160
_cell_length_a 15.886353
_cell_length_b 20.315903
_cell_length_c 23.186427
_cell_angle_alpha 90.000000
_cell_angle_beta 90.000000
_cell_angle_gamma 90.000000
_cell_volume 7483.317446
_symmetry_space_group_name_H-M "F D D D"
_symmetry_group_IT_number 70
_space_group.IT_coordinate_system_code '2'
_symmetry_cell_setting 'orthorhombic'
loop_
_space_group_symop_operation_xyz
x,y,z
1/4-x,1/4-y,z
x,1/4-y,1/4-z
1/4-x,y,1/4-z
-x,-y,-z
3/4+x,3/4+y,-z
-x,3/4+y,3/4+z
3/4+x,-y,3/4+z
x,1/2+y,1/2+z
1/4-x,3/4-y,1/2+z
x,3/4-y,3/4-z
1/4-x,1/2+y,3/4-z
-x,1/2-y,1/2-z
3/4+x,1/4+y,1/2-z
-x,1/4+y,1/4+z
3/4+x,1/2-y,1/4+z
1/2+x,y,1/2+z
3/4-x,1/4-y,1/2+z
1/2+x,1/4-y,3/4-z
3/4-x,y,3/4-z
1/2-x,-y,1/2-z
1/4+x,3/4+y,1/2-z
1/2-x,3/4+y,1/4+z
1/4+x,-y,1/4+z
1/2+x,1/2+y,z
3/4-x,3/4-y,z
1/2+x,3/4-y,1/4-z
3/4-x,1/2+y,1/4-z
1/2-x,1/2-y,-z
1/4+x,1/4+y,-z
1/2-x,1/4+y,3/4+z
1/4+x,1/2-y,3/4+z
loop_
_atom_site_type_symbol
_atom_site_label
_atom_site_fract_x
_atom_site_fract_y
_atom_site_fract_z
Si Si1 0.724088 0.629899 0.409952
Si Si2 0.248981 0.882122 0.309993
Si Si3 0.590882 0.402118 0.254388
Si Si4 0.562110 0.205901 0.455010
Si Si5 0.740882 0.785651 0.070565
O O1 0.625000 0.625000 0.423386
O O2 0.778498 0.642535 0.467035
O O3 0.731476 0.678151 0.353811
O O4 0.760210 0.559335 0.386874
O O5 0.277640 0.875000 0.375000
O O6 0.148334 0.869430 0.303814
O O7 0.288934 0.834833 0.262351
O O8 0.266659 0.959938 0.304048
O O9 0.547711 0.467245 0.280915
O O10 0.666318 0.426523 0.211712
O O11 0.661660 0.197507 0.443304
#
# Coordination Sequence:
#
# PCOD9515264 Si02
#       5
#    32  32  32  32  32
#     4  10  21  37  60  82 115 158 196 244 298 348
#     4  11  22  35  55  86 126 153 183 240 306 360
#     4  11  22  37  59  85 114 154 202 238 295 364
#     4  10  21  35  56  86 124 149 188 237 296 369
#     4  10  21  34  56  86 116 148 191 237 299 369
#
# _framework density 21.380891999999999
#
# number of rings (size 3 to 8) (size 9 to 14) (size 15 to 20)
#    0.000    1.600    2.000    4.200    5.600    0.000 
#    0.000    5.000    0.000   24.600    0.000    0.000 
#    0.000    0.000    0.000    0.000    0.000    0.000 
#
# Total GULP energy -222945.911357 kJ/mol
# GULP energy per Si atom -5573.647784 kJ/mol
# Density = 2.133223 g / cm^3
# Si number density = 21.380892 Si / 1000 Ang^3
#
#
#
# Elastic Constant Matrix: (Units=GPa)
#
#
# Indices 1 2 3 4 5 6 
#
# 1 73.2873 21.2090 45.6582 0.0000 0.0000 0.0000
# 2 21.2090 37.4108 12.0431 0.0000 0.0000 0.0000
# 3 45.6582 12.0431 89.1989 0.0000 0.0000 0.0000
# 4 0.0000 0.0000 0.0000 19.1128 0.0000 0.0000
# 5 0.0000 0.0000 0.0000 0.0000 29.9490 0.0000
# 6 0.0000 0.0000 0.0000 0.0000 0.0000 25.5668
#
#
#
# Elastic Compliance Matrix: (Units=1/GPa)
#
#
# Indices 1 2 3 4 5 6 
#
# 1 0.022940 -0.009644 -0.010440 0.000000 0.000000 0.000000
# 2 -0.009644 0.031999 0.000616 0.000000 0.000000 0.000000
# 3 -0.010440 0.000616 0.016472 0.000000 0.000000 0.000000
# 4 0.000000 0.000000 0.000000 0.052321 0.000000 0.000000
# 5 0.000000 0.000000 0.000000 0.000000 0.033390 0.000000
# 6 0.000000 0.000000 0.000000 0.000000 0.000000 0.039113
#
#
# Mechanical properties :
#
#
# Convention : Reuss Voigt Hill
#
# Bulk Modulus (GPa) = 30.79321 39.74639 35.26980
# Shear Modulus (GPa) = 20.32540 22.99152 21.65846
#
# Velocity S-wave (km/s) = 3.08658 3.28278 3.18619
# Velocity P-wave (km/s) = 5.20923 5.74447 5.48338
#
# Compressibility (1/GPa) = 0.03247469
#
# Stress axis : x y z
#
# Youngs Moduli (GPa) = 43.59127 31.25051 60.70989
#
# Poissons Ratio (x) = 0.30139 0.63383
# Poissons Ratio (y) = 0.42041 -0.03742
# Poissons Ratio (z) = 0.45511 -0.01926
#
# Static dielectric constant tensor:
#      x y z
#    x 1.818740 0.000000 0.000000 
#    y 0.000000 1.886860 0.000000 
#    z 0.000000 0.000000 1.984820 
# 
# From -- ./inp_files/58527.got.cif
#   From: 2010.05.17/outbox.cif.g08.bks.cpg/sg70_30_cif.got.tgz:58527.got - 2010.06.03 15:57:51.
