data_PCOD9515185
_publ_section_title
;
Structure prediction by ZEFSAII (Michael W. Deem and Ramdas Pophale) SiO2 
 PCOD9515185
Probable space group: F D D D
;
_chemical_formula_sum "Si O2"
_cell_formula_units_Z 160
_cell_length_a 24.861104
_cell_length_b 15.191908
_cell_length_c 19.808921
_cell_angle_alpha 90.000000
_cell_angle_beta 90.000000
_cell_angle_gamma 90.000000
_cell_volume 7481.583925
_symmetry_space_group_name_H-M "F D D D"
_symmetry_group_IT_number 70
_space_group.IT_coordinate_system_code '2'
_symmetry_cell_setting 'orthorhombic'
loop_
_space_group_symop_operation_xyz
x,y,z
1/4-x,1/4-y,z
x,1/4-y,1/4-z
1/4-x,y,1/4-z
-x,-y,-z
3/4+x,3/4+y,-z
-x,3/4+y,3/4+z
3/4+x,-y,3/4+z
x,1/2+y,1/2+z
1/4-x,3/4-y,1/2+z
x,3/4-y,3/4-z
1/4-x,1/2+y,3/4-z
-x,1/2-y,1/2-z
3/4+x,1/4+y,1/2-z
-x,1/4+y,1/4+z
3/4+x,1/2-y,1/4+z
1/2+x,y,1/2+z
3/4-x,1/4-y,1/2+z
1/2+x,1/4-y,3/4-z
3/4-x,y,3/4-z
1/2-x,-y,1/2-z
1/4+x,3/4+y,1/2-z
1/2-x,3/4+y,1/4+z
1/4+x,-y,1/4+z
1/2+x,1/2+y,z
3/4-x,3/4-y,z
1/2+x,3/4-y,1/4-z
3/4-x,1/2+y,1/4-z
1/2-x,1/2-y,-z
1/4+x,1/4+y,-z
1/2-x,1/4+y,3/4+z
1/4+x,1/2-y,3/4+z
loop_
_atom_site_type_symbol
_atom_site_label
_atom_site_fract_x
_atom_site_fract_y
_atom_site_fract_z
Si Si1 0.836154 0.001793 0.228185
Si Si2 0.788358 0.625000 0.125000
Si Si3 0.308453 0.060877 0.979341
Si Si4 0.989029 0.451572 0.570393
Si Si5 0.125000 0.625000 0.862062
Si Si6 0.254238 0.366742 0.295616
O O1 0.859634 0.957494 0.160170
O O2 0.794725 0.929894 0.255619
O O3 0.884098 0.016755 0.280769
O O4 0.804497 0.092120 0.215759
O O5 0.816271 0.611335 0.051886
O O6 0.757209 0.717082 0.120958
O O7 0.284967 0.128209 0.924827
O O8 0.265367 0.981624 0.979481
O O9 0.929818 0.406312 0.574672
O O10 0.000000 0.500000 0.500000
O O11 0.265655 0.375000 0.375000
#
# Coordination Sequence:
#
# PCOD9515185 Si02
#       6
#    32  16  32  32  16  32
#     4  11  23  40  69  97 130 187 225 273 354 417
#     4  10  20  42  64  87 134 168 223 280 326 414
#     4  11  22  40  64 101 129 173 233 277 343 414
#     4  10  23  37  67  98 128 172 229 286 336 405
#     4  12  20  46  69  93 130 182 234 276 344 436
#     4  11  24  40  63 101 140 172 225 291 342 409
#
# _framework density 21.385846999999998
#
# number of rings (size 3 to 8) (size 9 to 14) (size 15 to 20)
#    0.000    1.200    4.000    1.200    1.400    6.400 
#    0.000    0.000    0.000   30.000    0.000    0.000 
#    0.000    0.000    0.000    0.000    0.000    0.000 
#
# Total GULP energy -222989.658070 kJ/mol
# GULP energy per Si atom -5574.741452 kJ/mol
# Density = 2.133717 g / cm^3
# Si number density = 21.385847 Si / 1000 Ang^3
#
#
#
# Elastic Constant Matrix: (Units=GPa)
#
#
# Indices 1 2 3 4 5 6 
#
# 1 106.4643 42.6362 16.5773 0.0000 0.0000 0.0000
# 2 42.6362 112.1424 -8.3154 0.0000 0.0000 0.0000
# 3 16.5773 -8.3154 47.7853 0.0000 0.0000 0.0000
# 4 0.0000 0.0000 0.0000 36.9307 0.0000 0.0000
# 5 0.0000 0.0000 0.0000 0.0000 17.4577 0.0000
# 6 0.0000 0.0000 0.0000 0.0000 0.0000 22.0611
#
#
#
# Elastic Compliance Matrix: (Units=1/GPa)
#
#
# Indices 1 2 3 4 5 6 
#
# 1 0.012196 -0.005015 -0.005104 0.000000 0.000000 0.000000
# 2 -0.005015 0.011096 0.003671 0.000000 0.000000 0.000000
# 3 -0.005104 0.003671 0.023336 0.000000 0.000000 0.000000
# 4 0.000000 0.000000 0.000000 0.027078 0.000000 0.000000
# 5 0.000000 0.000000 0.000000 0.000000 0.057281 0.000000
# 6 0.000000 0.000000 0.000000 0.000000 0.000000 0.045329
#
#
# Mechanical properties :
#
#
# Convention : Reuss Voigt Hill
#
# Bulk Modulus (GPa) = 29.64541 40.90980 35.27760
# Shear Modulus (GPa) = 24.94306 29.65617 27.29962
#
# Velocity S-wave (km/s) = 3.41887 3.72791 3.57673
# Velocity P-wave (km/s) = 5.42929 6.14008 5.79559
#
# Compressibility (1/GPa) = 0.03373204
#
# Stress axis : x y z
#
# Youngs Moduli (GPa) = 81.99407 90.12069 42.85183
#
# Poissons Ratio (x) = 0.45198 0.21870
# Poissons Ratio (y) = 0.41123 -0.15730
# Poissons Ratio (z) = 0.41847 -0.33081
#
# Static dielectric constant tensor:
#      x y z
#    x 1.800580 0.000000 0.000000 
#    y 0.000000 1.879010 0.000000 
#    z 0.000000 0.000000 1.828120 
# 
# From -- ./inp_files/43857.got.cif
#   From: 2010.05.17/outbox.cif.g08.bks.cpg/sg70_22_cif.got.tgz:43857.got - 2010.06.03 15:57:51.
