data_PCOD9515024
_publ_section_title
;
Structure prediction by ZEFSAII (Michael W. Deem and Ramdas Pophale) SiO2 
 PCOD9515024
Probable space group: F D D D
;
_chemical_formula_sum "Si O2"
_cell_formula_units_Z 216
_cell_length_a 14.235176
_cell_length_b 21.957992
_cell_length_c 27.988124
_cell_angle_alpha 90.000000
_cell_angle_beta 90.000000
_cell_angle_gamma 90.000000
_cell_volume 8748.412509
_symmetry_space_group_name_H-M "F D D D"
_symmetry_group_IT_number 70
_space_group.IT_coordinate_system_code '2'
_symmetry_cell_setting 'orthorhombic'
loop_
_space_group_symop_operation_xyz
x,y,z
1/4-x,1/4-y,z
x,1/4-y,1/4-z
1/4-x,y,1/4-z
-x,-y,-z
3/4+x,3/4+y,-z
-x,3/4+y,3/4+z
3/4+x,-y,3/4+z
x,1/2+y,1/2+z
1/4-x,3/4-y,1/2+z
x,3/4-y,3/4-z
1/4-x,1/2+y,3/4-z
-x,1/2-y,1/2-z
3/4+x,1/4+y,1/2-z
-x,1/4+y,1/4+z
3/4+x,1/2-y,1/4+z
1/2+x,y,1/2+z
3/4-x,1/4-y,1/2+z
1/2+x,1/4-y,3/4-z
3/4-x,y,3/4-z
1/2-x,-y,1/2-z
1/4+x,3/4+y,1/2-z
1/2-x,3/4+y,1/4+z
1/4+x,-y,1/4+z
1/2+x,1/2+y,z
3/4-x,3/4-y,z
1/2+x,3/4-y,1/4-z
3/4-x,1/2+y,1/4-z
1/2-x,1/2-y,-z
1/4+x,1/4+y,-z
1/2-x,1/4+y,3/4+z
1/4+x,1/2-y,3/4+z
loop_
_atom_site_type_symbol
_atom_site_label
_atom_site_fract_x
_atom_site_fract_y
_atom_site_fract_z
Si Si1 0.949318 0.184450 0.799064
Si Si2 0.347165 0.031099 0.131071
Si Si3 0.747534 0.235559 0.789438
Si Si4 0.875000 0.875000 0.375000
Si Si5 0.279217 0.184720 0.559579
Si Si6 0.476493 0.021678 0.446966
Si Si7 0.625000 0.625000 0.960549
Si Si8 0.741486 0.304466 0.692136
O O1 0.843940 0.207062 0.809575
O O2 0.013315 0.243026 0.805676
O O3 0.991575 0.125177 0.822796
O O4 0.952659 0.163781 0.743579
O O5 0.434701 0.013970 0.167201
O O6 0.259612 0.035976 0.165839
O O7 0.306236 0.979880 0.095182
O O8 0.382665 0.079108 0.092678
O O9 0.688996 0.178764 0.767050
O O10 0.769213 0.283101 0.746531
O O11 0.809599 0.838757 0.411507
O O12 0.543935 0.080950 0.437212
O O13 0.368769 0.037294 0.439404
O O14 0.500000 0.000000 0.500000
#
# Coordination Sequence:
#
# PCOD9515024 Si02
#       8
#    32  32  32   8  32  32  16  32
#     4  11  26  47  74 103 149 193 246 317 384 456
#     4  11  25  44  70 105 144 190 254 303 373 466
#     4  11  23  44  70 104 147 189 249 317 378 457
#     4  12  28  48  76 110 158 200 256 320 388 464
#     4  11  27  47  71 109 142 197 249 308 389 458
#     4  11  22  41  69 100 145 195 245 314 378 448
#     4  10  20  38  68  96 136 192 238 293 391 436
#     4  12  24  44  74 105 144 201 254 310 394 462
#
# _framework density 24.690194000000002
#
# number of rings (size 3 to 8) (size 9 to 14) (size 15 to 20)
#    0.000    0.889    5.926    1.333    4.148    5.333 
#    5.333    0.000    0.000    0.889    0.000    0.000 
#    0.000    0.000    0.000    0.000    0.000    0.000 
#
# Total GULP energy -301315.994453 kJ/mol
# GULP energy per Si atom -5579.925823 kJ/mol
# Density = 2.463400 g / cm^3
# Si number density = 24.690194 Si / 1000 Ang^3
#
#
#
# Elastic Constant Matrix: (Units=GPa)
#
#
# Indices 1 2 3 4 5 6 
#
# 1 57.1544 -12.7065 1.3637 0.0000 0.0000 0.0000
# 2 -12.7065 38.7353 -8.2793 0.0000 0.0000 0.0000
# 3 1.3637 -8.2793 95.1746 0.0000 0.0000 0.0000
# 4 0.0000 0.0000 0.0000 29.8551 0.0000 0.0000
# 5 0.0000 0.0000 0.0000 0.0000 32.7447 0.0000
# 6 0.0000 0.0000 0.0000 0.0000 0.0000-1107.2594
#
#
#
# Elastic Compliance Matrix: (Units=1/GPa)
#
#
# Indices 1 2 3 4 5 6 
#
# 1 0.018880 0.006252 0.000273 0.000000 0.000000 0.000000
# 2 0.006252 0.028375 0.002379 0.000000 0.000000 0.000000
# 3 0.000273 0.002379 0.010710 0.000000 0.000000 0.000000
# 4 0.000000 0.000000 0.000000 0.033495 0.000000 0.000000
# 5 0.000000 0.000000 0.000000 0.000000 0.030539 0.000000
# 6 0.000000 0.000000 0.000000 0.000000 0.000000 -0.000903
#
#
# Mechanical properties :
#
#
# Convention : Reuss Voigt Hill
#
# Bulk Modulus (GPa) = 13.19734 16.86890 15.03312
# Shear Modulus (GPa) = 38.89638 -194.88616 -77.99489
#
# Velocity S-wave (km/s) = 3.97341 -8.89404 -5.62654
# Velocity P-wave (km/s) = 5.13881 9.93101 6.00906
#
# Compressibility (1/GPa) = 0.07577284
#
# Stress axis : x y z
#
# Youngs Moduli (GPa) = 52.96665 35.24175 93.37048
#
# Poissons Ratio (x) = -0.22032 -0.02552
# Poissons Ratio (y) = -0.33113 -0.22211
# Poissons Ratio (z) = -0.01448 -0.08383
#
# Static dielectric constant tensor:
#      x y z
#    x 2.003760 0.000000 0.000000 
#    y 0.000000 2.090650 0.000000 
#    z 0.000000 0.000000 2.097760 
# 
# From -- ./inp_files/58804.got.cif
#   From: 2010.05.17/outbox.cif.g08.bks.cpg/sg70_30_cif.got.tgz:58804.got - 2010.06.03 15:57:51.
