data_PCOD9515545
_publ_section_title
;
Structure prediction by ZEFSAII (Michael W. Deem and Ramdas Pophale) SiO2 
 PCOD9515545
Probable space group: F D D D
;
_chemical_formula_sum "Si O2"
_cell_formula_units_Z 192
_cell_length_a 11.542175
_cell_length_b 27.959833
_cell_length_c 29.331065
_cell_angle_alpha 90.000000
_cell_angle_beta 90.000000
_cell_angle_gamma 90.000000
_cell_volume 9465.641676
_symmetry_space_group_name_H-M "F D D D"
_symmetry_group_IT_number 70
_space_group.IT_coordinate_system_code '2'
_symmetry_cell_setting 'orthorhombic'
loop_
_space_group_symop_operation_xyz
x,y,z
1/4-x,1/4-y,z
x,1/4-y,1/4-z
1/4-x,y,1/4-z
-x,-y,-z
3/4+x,3/4+y,-z
-x,3/4+y,3/4+z
3/4+x,-y,3/4+z
x,1/2+y,1/2+z
1/4-x,3/4-y,1/2+z
x,3/4-y,3/4-z
1/4-x,1/2+y,3/4-z
-x,1/2-y,1/2-z
3/4+x,1/4+y,1/2-z
-x,1/4+y,1/4+z
3/4+x,1/2-y,1/4+z
1/2+x,y,1/2+z
3/4-x,1/4-y,1/2+z
1/2+x,1/4-y,3/4-z
3/4-x,y,3/4-z
1/2-x,-y,1/2-z
1/4+x,3/4+y,1/2-z
1/2-x,3/4+y,1/4+z
1/4+x,-y,1/4+z
1/2+x,1/2+y,z
3/4-x,3/4-y,z
1/2+x,3/4-y,1/4-z
3/4-x,1/2+y,1/4-z
1/2-x,1/2-y,-z
1/4+x,1/4+y,-z
1/2-x,1/4+y,3/4+z
1/4+x,1/2-y,3/4+z
loop_
_atom_site_type_symbol
_atom_site_label
_atom_site_fract_x
_atom_site_fract_y
_atom_site_fract_z
Si Si1 0.259295 0.184865 0.702988
Si Si2 0.432880 0.297744 0.044986
Si Si3 0.375000 0.875000 0.875000
Si Si4 0.543553 0.288295 0.666984
Si Si5 0.891690 0.138653 0.821307
Si Si6 0.774181 0.935560 0.792316
Si Si7 0.875000 0.375000 0.724393
Si Si8 0.875000 0.375000 0.375000
O O1 0.272994 0.242567 0.703424
O O2 0.205189 0.159414 0.657463
O O3 0.391614 0.168826 0.712597
O O4 0.177787 0.165774 0.743085
O O5 0.341260 0.304137 0.087152
O O6 0.546875 0.329217 0.047274
O O7 0.359787 0.317041 0.001061
O O8 0.625000 0.274132 0.625000
O O9 0.610558 0.333298 0.686853
O O10 0.529936 0.242296 0.698176
O O11 0.875000 0.146360 0.875000
O O12 0.021605 0.146390 0.805335
O O13 0.811521 0.909412 0.838862
#
# Coordination Sequence:
#
# PCOD9515545 Si02
#       8
#    32  32   8  32  32  32  16   8
#     4  10  23  44  68  98 134 182 223 275 346 401
#     4  11  24  42  69  99 136 176 226 282 337 410
#     4  10  22  44  72  92 146 182 228 286 324 416
#     4  10  21  41  65  94 135 174 214 273 339 397
#     4  11  26  41  65  97 131 178 226 275 336 408
#     4  11  23  44  66 102 134 174 225 283 342 409
#     4  11  24  45  65  92 134 180 225 275 344 403
#     4  12  26  36  70 104 130 170 234 276 342 402
#
# _framework density 20.283887
#
# number of rings (size 3 to 8) (size 9 to 14) (size 15 to 20)
#    0.000    1.333    0.833    5.000   10.500    0.667 
#    0.000    0.000    0.000    0.000    0.000    0.000 
#    0.000    0.000    0.000    0.000    0.000    0.000 
#
# Total GULP energy -267554.486579 kJ/mol
# GULP energy per Si atom -5574.051804 kJ/mol
# Density = 2.023772 g / cm^3
# Si number density = 20.283887 Si / 1000 Ang^3
#
#
#
# Elastic Constant Matrix: (Units=GPa)
#
#
# Indices 1 2 3 4 5 6 
#
# 1 197.2530 53.5059 96.9348 0.0000 0.0000 0.0000
# 2 53.5059 83.1429 39.9033 0.0000 0.0000 0.0000
# 3 96.9348 39.9033 134.8316 0.0000 0.0000 0.0000
# 4 0.0000 0.0000 0.0000 11.1208 0.0000 0.0000
# 5 0.0000 0.0000 0.0000 0.0000 41.3379 0.0000
# 6 0.0000 0.0000 0.0000 0.0000 0.0000 8.8746
#
#
#
# Elastic Compliance Matrix: (Units=1/GPa)
#
#
# Indices 1 2 3 4 5 6 
#
# 1 0.008408 -0.002925 -0.005179 0.000000 0.000000 0.000000
# 2 -0.002925 0.015036 -0.002347 0.000000 0.000000 0.000000
# 3 -0.005179 -0.002347 0.011835 0.000000 0.000000 0.000000
# 4 0.000000 0.000000 0.000000 0.089921 0.000000 0.000000
# 5 0.000000 0.000000 0.000000 0.000000 0.024191 0.000000
# 6 0.000000 0.000000 0.000000 0.000000 0.000000 0.112682
#
#
# Mechanical properties :
#
#
# Convention : Reuss Voigt Hill
#
# Bulk Modulus (GPa) = 69.55795 88.43506 78.99651
# Shear Modulus (GPa) = 17.37507 27.25889 22.31698
#
# Velocity S-wave (km/s) = 2.92994 3.66986 3.32057
# Velocity P-wave (km/s) = 6.76851 7.85178 7.33018
#
# Compressibility (1/GPa) = 0.01437650
#
# Stress axis : x y z
#
# Youngs Moduli (GPa) = 118.92879 66.50502 84.49683
#
# Poissons Ratio (x) = 0.19456 0.43763
# Poissons Ratio (y) = 0.34792 0.19830
# Poissons Ratio (z) = 0.61597 0.15608
#
# Static dielectric constant tensor:
#      x y z
#    x 1.767760 0.000000 0.000000 
#    y 0.000000 1.749210 0.000000 
#    z 0.000000 0.000000 1.777760 
# 
# From -- ./inp_files/65012.got.cif
#   From: 2010.05.17/outbox.cif.g08.bks.cpg/sg70_33_cif.got.tgz:65012.got - 2010.06.03 15:57:51.
