data_PCOD9515865
_publ_section_title
;
Structure prediction by ZEFSAII (Michael W. Deem and Ramdas Pophale) SiO2 
 PCOD9515865
Probable space group: F D D D
;
_chemical_formula_sum "Si O2"
_cell_formula_units_Z 176
_cell_length_a 27.909138
_cell_length_b 11.542983
_cell_length_c 26.811338
_cell_angle_alpha 90.000000
_cell_angle_beta 90.000000
_cell_angle_gamma 90.000000
_cell_volume 8637.398697
_symmetry_space_group_name_H-M "F D D D"
_symmetry_group_IT_number 70
_space_group.IT_coordinate_system_code '2'
_symmetry_cell_setting 'orthorhombic'
loop_
_space_group_symop_operation_xyz
x,y,z
1/4-x,1/4-y,z
x,1/4-y,1/4-z
1/4-x,y,1/4-z
-x,-y,-z
3/4+x,3/4+y,-z
-x,3/4+y,3/4+z
3/4+x,-y,3/4+z
x,1/2+y,1/2+z
1/4-x,3/4-y,1/2+z
x,3/4-y,3/4-z
1/4-x,1/2+y,3/4-z
-x,1/2-y,1/2-z
3/4+x,1/4+y,1/2-z
-x,1/4+y,1/4+z
3/4+x,1/2-y,1/4+z
1/2+x,y,1/2+z
3/4-x,1/4-y,1/2+z
1/2+x,1/4-y,3/4-z
3/4-x,y,3/4-z
1/2-x,-y,1/2-z
1/4+x,3/4+y,1/2-z
1/2-x,3/4+y,1/4+z
1/4+x,-y,1/4+z
1/2+x,1/2+y,z
3/4-x,3/4-y,z
1/2+x,3/4-y,1/4-z
3/4-x,1/2+y,1/4-z
1/2-x,1/2-y,-z
1/4+x,1/4+y,-z
1/2-x,1/4+y,3/4+z
1/4+x,1/2-y,3/4+z
loop_
_atom_site_type_symbol
_atom_site_label
_atom_site_fract_x
_atom_site_fract_y
_atom_site_fract_z
Si Si1 0.873717 0.238117 0.743491
Si Si2 0.470785 0.122003 0.208903
Si Si3 0.793596 0.875000 0.875000
Si Si4 0.336521 0.136071 0.913303
Si Si5 0.509368 0.030606 0.872257
Si Si6 0.774464 0.765410 0.194011
O O1 0.875000 0.375000 0.759444
O O2 0.925581 0.200741 0.723290
O O3 0.860391 0.141909 0.784497
O O4 0.828182 0.229666 0.707002
O O5 0.502225 0.197352 0.169601
O O6 0.498603 0.073402 0.257177
O O7 0.455835 0.021719 0.169717
O O8 0.823969 0.766993 0.896516
O O9 0.760474 0.831209 0.829248
O O10 0.375000 0.088437 0.875000
O O11 0.287979 0.064504 0.907645
O O12 0.528510 0.143161 0.899338
#
# Coordination Sequence:
#
# PCOD9515865 Si02
#       6
#    32  32  16  32  32  32
#     4  12  25  40  69 104 139 183 240 297 353 426
#     4  11  23  42  68  99 142 179 226 294 360 416
#     4  10  25  46  72  92 144 186 228 290 355 422
#     4  11  24  42  70 105 132 181 239 293 352 427
#     4  10  22  41  68  95 135 184 220 287 366 407
#     4  11  23  45  69  97 139 182 235 290 348 428
#
# _framework density 20.376505000000002
#
# number of rings (size 3 to 8) (size 9 to 14) (size 15 to 20)
#    0.000    1.091    3.636    3.000    2.545    2.545 
#    0.000    0.000    4.000    0.000    0.000    0.000 
#    0.000    0.000    0.000    0.000    0.000    0.000 
#
# Total GULP energy -245263.673788 kJ/mol
# GULP energy per Si atom -5574.174404 kJ/mol
# Density = 2.033013 g / cm^3
# Si number density = 20.376505 Si / 1000 Ang^3
#
#
#
# Elastic Constant Matrix: (Units=GPa)
#
#
# Indices 1 2 3 4 5 6 
#
# 1 66.1640 35.3806 22.0823 0.0000 0.0000 0.0000
# 2 35.3806 51.3538 26.5845 0.0000 0.0000 0.0000
# 3 22.0823 26.5845 65.3306 0.0000 0.0000 0.0000
# 4 0.0000 0.0000 0.0000 26.7271 0.0000 0.0000
# 5 0.0000 0.0000 0.0000 0.0000 13.2805 0.0000
# 6 0.0000 0.0000 0.0000 0.0000 0.0000 13.7646
#
#
#
# Elastic Compliance Matrix: (Units=1/GPa)
#
#
# Indices 1 2 3 4 5 6 
#
# 1 0.024089 -0.015685 -0.001760 0.000000 0.000000 0.000000
# 2 -0.015685 0.034883 -0.008893 0.000000 0.000000 0.000000
# 3 -0.001760 -0.008893 0.019520 0.000000 0.000000 0.000000
# 4 0.000000 0.000000 0.000000 0.037415 0.000000 0.000000
# 5 0.000000 0.000000 0.000000 0.000000 0.075298 0.000000
# 6 0.000000 0.000000 0.000000 0.000000 0.000000 0.072650
#
#
# Mechanical properties :
#
#
# Convention : Reuss Voigt Hill
#
# Bulk Modulus (GPa) = 38.73492 38.99368 38.86430
# Shear Modulus (GPa) = 15.37817 17.34118 16.35967
#
# Velocity S-wave (km/s) = 2.75016 2.92042 2.83657
# Velocity P-wave (km/s) = 5.39772 5.52720 5.46284
#
# Compressibility (1/GPa) = 0.02581650
#
# Stress axis : x y z
#
# Youngs Moduli (GPa) = 41.51314 28.66743 51.22906
#
# Poissons Ratio (x) = 0.44966 0.09014
# Poissons Ratio (y) = 0.65114 0.45557
# Poissons Ratio (z) = 0.07304 0.25493
#
# Static dielectric constant tensor:
#      x y z
#    x 1.708000 0.000000 0.000000 
#    y 0.000000 1.852320 0.000000 
#    z 0.000000 0.000000 1.691310 
# 
# From -- ./inp_files/20951.got.cif
#   From: 2010.05.17/outbox.cif.g08.bks.cpg/sg70_11_cif.got.tgz:20951.got - 2010.06.03 15:57:51.
