data_PCOD9515223
_publ_section_title
;
Structure prediction by ZEFSAII (Michael W. Deem and Ramdas Pophale) SiO2 
 PCOD9515223
Probable space group: F D D D
;
_chemical_formula_sum "Si O2"
_cell_formula_units_Z 112
_cell_length_a 13.618790
_cell_length_b 25.284348
_cell_length_c 13.163615
_cell_angle_alpha 90.000000
_cell_angle_beta 90.000000
_cell_angle_gamma 90.000000
_cell_volume 4532.788487
_symmetry_space_group_name_H-M "F D D D"
_symmetry_group_IT_number 70
_space_group.IT_coordinate_system_code '2'
_symmetry_cell_setting 'orthorhombic'
loop_
_space_group_symop_operation_xyz
x,y,z
1/4-x,1/4-y,z
x,1/4-y,1/4-z
1/4-x,y,1/4-z
-x,-y,-z
3/4+x,3/4+y,-z
-x,3/4+y,3/4+z
3/4+x,-y,3/4+z
x,1/2+y,1/2+z
1/4-x,3/4-y,1/2+z
x,3/4-y,3/4-z
1/4-x,1/2+y,3/4-z
-x,1/2-y,1/2-z
3/4+x,1/4+y,1/2-z
-x,1/4+y,1/4+z
3/4+x,1/2-y,1/4+z
1/2+x,y,1/2+z
3/4-x,1/4-y,1/2+z
1/2+x,1/4-y,3/4-z
3/4-x,y,3/4-z
1/2-x,-y,1/2-z
1/4+x,3/4+y,1/2-z
1/2-x,3/4+y,1/4+z
1/4+x,-y,1/4+z
1/2+x,1/2+y,z
3/4-x,3/4-y,z
1/2+x,3/4-y,1/4-z
3/4-x,1/2+y,1/4-z
1/2-x,1/2-y,-z
1/4+x,1/4+y,-z
1/2-x,1/4+y,3/4+z
1/4+x,1/2-y,3/4+z
loop_
_atom_site_type_symbol
_atom_site_label
_atom_site_fract_x
_atom_site_fract_y
_atom_site_fract_z
Si Si1 0.847286 0.125000 0.125000
Si Si2 0.575582 0.068217 0.496090
Si Si3 0.027793 0.287286 0.453433
Si Si4 0.550920 0.575712 0.773573
O O1 0.909596 0.090665 0.205348
O O2 0.781121 0.164095 0.190570
O O3 0.625000 0.125000 0.522262
O O4 0.676905 0.035797 0.482742
O O5 0.512974 0.042620 0.586462
O O6 0.518146 0.075934 0.391584
O O7 0.086882 0.234923 0.483775
O O8 0.625000 0.625000 0.762936
#
# Coordination Sequence:
#
# PCOD9515223 Si02
#       4
#    16  32  32  32
#     4  12  25  45  74 104 142 196 240 281 369 436
#     4  10  20  43  70 107 140 171 238 313 355 406
#     4  11  21  44  74 102 138 184 246 298 346 423
#     4  11  26  43  65 102 149 191 230 297 355 425
#
# _framework density 24.708850999999999
#
# number of rings (size 3 to 8) (size 9 to 14) (size 15 to 20)
#    0.000    1.143    2.857    3.857    0.000    4.571 
#    0.000    5.714    0.000    0.000    0.000    0.000 
#    0.000    0.000    0.000    0.000    0.000    0.000 
#
# Total GULP energy -156260.903653 kJ/mol
# GULP energy per Si atom -5580.746559 kJ/mol
# Density = 2.465261 g / cm^3
# Si number density = 24.708851 Si / 1000 Ang^3
#
#
#
# Elastic Constant Matrix: (Units=GPa)
#
#
# Indices 1 2 3 4 5 6 
#
# 1 39.2807 25.3253 14.6288 0.0000 0.0000 0.0000
# 2 25.3253 175.7742 -12.1304 0.0000 0.0000 0.0000
# 3 14.6288 -12.1304 86.9745 0.0000 0.0000 0.0000
# 4 0.0000 0.0000 0.0000 27.7142 0.0000 0.0000
# 5 0.0000 0.0000 0.0000 0.0000 12.2825 0.0000
# 6 0.0000 0.0000 0.0000 0.0000 0.0000 30.7498
#
#
#
# Elastic Compliance Matrix: (Units=1/GPa)
#
#
# Indices 1 2 3 4 5 6 
#
# 1 0.030752 -0.004834 -0.005847 0.000000 0.000000 0.000000
# 2 -0.004834 0.006504 0.001720 0.000000 0.000000 0.000000
# 3 -0.005847 0.001720 0.012721 0.000000 0.000000 0.000000
# 4 0.000000 0.000000 0.000000 0.036083 0.000000 0.000000
# 5 0.000000 0.000000 0.000000 0.000000 0.081417 0.000000
# 6 0.000000 0.000000 0.000000 0.000000 0.000000 0.032521
#
#
# Mechanical properties :
#
#
# Convention : Reuss Voigt Hill
#
# Bulk Modulus (GPa) = 31.19529 39.74188 35.46858
# Shear Modulus (GPa) = 21.87193 32.42968 27.15080
#
# Velocity S-wave (km/s) = 2.97844 3.62674 3.31846
# Velocity P-wave (km/s) = 4.94779 5.80143 5.39153
#
# Compressibility (1/GPa) = 0.03205612
#
# Stress axis : x y z
#
# Youngs Moduli (GPa) = 32.51837 153.74364 78.61067
#
# Poissons Ratio (x) = 0.74322 0.45960
# Poissons Ratio (y) = 0.15720 -0.13523
# Poissons Ratio (z) = 0.19012 -0.26448
#
# Static dielectric constant tensor:
#      x y z
#    x 1.992350 0.000000 0.000000 
#    y 0.000000 2.078590 0.000000 
#    z 0.000000 0.000000 1.946530 
# 
# From -- ./inp_files/25336.got.cif
#   From: 2010.05.17/outbox.cif.g08.bks.cpg/sg70_13_cif.got.tgz:25336.got - 2010.06.03 15:57:51.
