data_PCOD9515876
_publ_section_title
;
Structure prediction by ZEFSAII (Michael W. Deem and Ramdas Pophale) SiO2 
 PCOD9515876
Probable space group: F D D D
;
_chemical_formula_sum "Si O2"
_cell_formula_units_Z 160
_cell_length_a 18.236773
_cell_length_b 20.336623
_cell_length_c 18.586136
_cell_angle_alpha 90.000000
_cell_angle_beta 90.000000
_cell_angle_gamma 90.000000
_cell_volume 6893.121614
_symmetry_space_group_name_H-M "F D D D"
_symmetry_group_IT_number 70
_space_group.IT_coordinate_system_code '2'
_symmetry_cell_setting 'orthorhombic'
loop_
_space_group_symop_operation_xyz
x,y,z
1/4-x,1/4-y,z
x,1/4-y,1/4-z
1/4-x,y,1/4-z
-x,-y,-z
3/4+x,3/4+y,-z
-x,3/4+y,3/4+z
3/4+x,-y,3/4+z
x,1/2+y,1/2+z
1/4-x,3/4-y,1/2+z
x,3/4-y,3/4-z
1/4-x,1/2+y,3/4-z
-x,1/2-y,1/2-z
3/4+x,1/4+y,1/2-z
-x,1/4+y,1/4+z
3/4+x,1/2-y,1/4+z
1/2+x,y,1/2+z
3/4-x,1/4-y,1/2+z
1/2+x,1/4-y,3/4-z
3/4-x,y,3/4-z
1/2-x,-y,1/2-z
1/4+x,3/4+y,1/2-z
1/2-x,3/4+y,1/4+z
1/4+x,-y,1/4+z
1/2+x,1/2+y,z
3/4-x,3/4-y,z
1/2+x,3/4-y,1/4-z
3/4-x,1/2+y,1/4-z
1/2-x,1/2-y,-z
1/4+x,1/4+y,-z
1/2-x,1/4+y,3/4+z
1/4+x,1/2-y,3/4+z
loop_
_atom_site_type_symbol
_atom_site_label
_atom_site_fract_x
_atom_site_fract_y
_atom_site_fract_z
Si Si1 0.219453 0.202415 0.335906
Si Si2 0.875000 0.996021 0.375000
Si Si3 0.446089 0.939402 0.011268
Si Si4 0.556423 0.490235 0.063430
Si Si5 0.375000 0.375000 0.983622
Si Si6 0.453741 0.188104 0.967640
O O1 0.304124 0.208472 0.359781
O O2 0.168708 0.199065 0.407085
O O3 0.193637 0.144327 0.284342
O O4 0.208782 0.266707 0.287856
O O5 0.859035 0.950188 0.305059
O O6 0.254284 0.875748 0.015808
O O7 0.500000 0.000000 0.000000
O O8 0.523774 0.473254 0.141946
O O9 0.615926 0.433304 0.044703
O O10 0.500000 0.500000 0.000000
O O11 0.600410 0.559805 0.058257
#
# Coordination Sequence:
#
# PCOD9515876 Si02
#       6
#    32  16  32  32  16  32
#     4  10  23  41  68 101 139 184 234 294 354 429
#     4  10  24  43  68 100 134 188 234 285 360 436
#     4  10  23  42  66  97 137 180 227 288 352 426
#     4  10  22  41  71 100 139 191 236 300 366 433
#     4  10  22  43  70 105 142 184 240 295 362 430
#     4  10  23  41  64 102 137 175 238 296 355 425
#
# _framework density 23.211545000000001
#
# number of rings (size 3 to 8) (size 9 to 14) (size 15 to 20)
#    0.000    2.000    0.000    1.200    0.000   25.600 
#    0.000    2.000    0.000   48.000    0.000    0.000 
#    0.000    0.000    0.000    0.000    0.000    0.000 
#
# Total GULP energy -223119.332055 kJ/mol
# GULP energy per Si atom -5577.983301 kJ/mol
# Density = 2.315871 g / cm^3
# Si number density = 23.211545 Si / 1000 Ang^3
#
#
#
# Elastic Constant Matrix: (Units=GPa)
#
#
# Indices 1 2 3 4 5 6 
#
# 1 113.0330 42.6427 67.4869 0.0000 0.0000 0.0000
# 2 42.6427 125.9403 69.2116 0.0000 0.0000 0.0000
# 3 67.4869 69.2116 197.4366 0.0000 0.0000 0.0000
# 4 0.0000 0.0000 0.0000 29.3561 0.0000 0.0000
# 5 0.0000 0.0000 0.0000 0.0000 41.4418 0.0000
# 6 0.0000 0.0000 0.0000 0.0000 0.0000 44.0142
#
#
#
# Elastic Compliance Matrix: (Units=1/GPa)
#
#
# Indices 1 2 3 4 5 6 
#
# 1 0.011571 -0.002161 -0.003198 0.000000 0.000000 0.000000
# 2 -0.002161 0.010238 -0.002851 0.000000 0.000000 0.000000
# 3 -0.003198 -0.002851 0.007157 0.000000 0.000000 0.000000
# 4 0.000000 0.000000 0.000000 0.034064 0.000000 0.000000
# 5 0.000000 0.000000 0.000000 0.000000 0.024130 0.000000
# 6 0.000000 0.000000 0.000000 0.000000 0.000000 0.022720
#
#
# Mechanical properties :
#
#
# Convention : Reuss Voigt Hill
#
# Bulk Modulus (GPa) = 79.68768 88.34357 84.01563
# Shear Modulus (GPa) = 38.31928 40.10036 39.20982
#
# Velocity S-wave (km/s) = 4.06750 4.16095 4.11449
# Velocity P-wave (km/s) = 7.51432 7.82480 7.67113
#
# Compressibility (1/GPa) = 0.01254899
#
# Stress axis : x y z
#
# Youngs Moduli (GPa) = 86.42006 97.67178 139.71812
#
# Poissons Ratio (x) = 0.21103 0.44680
# Poissons Ratio (y) = 0.18672 0.39827
# Poissons Ratio (z) = 0.27636 0.27842
#
# Static dielectric constant tensor:
#      x y z
#    x 1.956290 0.000000 0.000000 
#    y 0.000000 1.880540 0.000000 
#    z 0.000000 0.000000 1.963460 
# 
# From -- ./inp_files/35179.got.cif
#   From: 2010.05.17/outbox.cif.g08.bks.cpg/sg70_18_cif.got.tgz:35179.got - 2010.06.03 15:57:51.
