data_PCOD9515422
_publ_section_title
;
Structure prediction by ZEFSAII (Michael W. Deem and Ramdas Pophale) SiO2 
 PCOD9515422
Probable space group: F D D D
;
_chemical_formula_sum "Si O2"
_cell_formula_units_Z 176
_cell_length_a 25.190476
_cell_length_b 28.735992
_cell_length_c 12.380924
_cell_angle_alpha 90.000000
_cell_angle_beta 90.000000
_cell_angle_gamma 90.000000
_cell_volume 8962.220521
_symmetry_space_group_name_H-M "F D D D"
_symmetry_group_IT_number 70
_space_group.IT_coordinate_system_code '2'
_symmetry_cell_setting 'orthorhombic'
loop_
_space_group_symop_operation_xyz
x,y,z
1/4-x,1/4-y,z
x,1/4-y,1/4-z
1/4-x,y,1/4-z
-x,-y,-z
3/4+x,3/4+y,-z
-x,3/4+y,3/4+z
3/4+x,-y,3/4+z
x,1/2+y,1/2+z
1/4-x,3/4-y,1/2+z
x,3/4-y,3/4-z
1/4-x,1/2+y,3/4-z
-x,1/2-y,1/2-z
3/4+x,1/4+y,1/2-z
-x,1/4+y,1/4+z
3/4+x,1/2-y,1/4+z
1/2+x,y,1/2+z
3/4-x,1/4-y,1/2+z
1/2+x,1/4-y,3/4-z
3/4-x,y,3/4-z
1/2-x,-y,1/2-z
1/4+x,3/4+y,1/2-z
1/2-x,3/4+y,1/4+z
1/4+x,-y,1/4+z
1/2+x,1/2+y,z
3/4-x,3/4-y,z
1/2+x,3/4-y,1/4-z
3/4-x,1/2+y,1/4-z
1/2-x,1/2-y,-z
1/4+x,1/4+y,-z
1/2-x,1/4+y,3/4+z
1/4+x,1/2-y,3/4+z
loop_
_atom_site_type_symbol
_atom_site_label
_atom_site_fract_x
_atom_site_fract_y
_atom_site_fract_z
Si Si1 0.329876 0.965468 0.516937
Si Si2 0.953219 0.556370 0.132618
Si Si3 0.676349 0.864771 0.553130
Si Si4 0.551060 0.532703 0.018517
Si Si5 0.703924 0.124125 0.880144
Si Si6 0.203208 0.125000 0.625000
O O1 0.389898 0.985690 0.511379
O O2 0.306915 0.958364 0.396693
O O3 0.327753 0.916031 0.575306
O O4 0.296723 0.003613 0.582421
O O5 0.931002 0.588997 0.228858
O O6 0.010696 0.578803 0.111451
O O7 0.921292 0.570266 0.025723
O O8 0.625000 0.868484 0.625000
O O9 0.733401 0.862229 0.611444
O O10 0.500000 0.500000 0.000000
O O11 0.546218 0.578548 0.944689
O O12 0.682475 0.117369 0.003102
#
# Coordination Sequence:
#
# PCOD9515422 Si02
#       6
#    32  32  32  32  32  16
#     4  11  23  39  62  88 125 159 202 270 306 376
#     4   8  18  35  55  85 113 159 198 242 320 365
#     4   9  19  35  59  85 122 160 203 259 308 377
#     4  11  24  40  60  88 121 166 207 251 321 379
#     4  10  21  39  60  87 120 162 209 254 320 375
#     4   8  18  38  61  82 118 158 196 251 306 372
#
# _framework density 19.637989999999999
#
# number of rings (size 3 to 8) (size 9 to 14) (size 15 to 20)
#    0.000    2.909    0.000    3.273    5.091    5.818 
#    3.273    3.636    0.000    0.000    0.000    0.000 
#    0.000    0.000    0.000    0.000    0.000    0.000 
#
# Total GULP energy -245030.753947 kJ/mol
# GULP energy per Si atom -5568.880772 kJ/mol
# Density = 1.959329 g / cm^3
# Si number density = 19.637990 Si / 1000 Ang^3
#
#
#
# Elastic Constant Matrix: (Units=GPa)
#
#
# Indices 1 2 3 4 5 6 
#
# 1 100.8996 14.6815 32.7652 0.0000 0.0000 0.0000
# 2 14.6815 113.6474 44.8689 0.0000 0.0000 0.0000
# 3 32.7652 44.8689 75.9493 0.0001 -0.0001 0.0000
# 4 0.0000 0.0000 0.0001 24.0596 0.0000 0.0000
# 5 0.0000 0.0000 -0.0001 0.0000 16.1320 0.0000
# 6 0.0000 0.0000 0.0000 0.0000 0.0000 10.3763
#
#
#
# Elastic Compliance Matrix: (Units=1/GPa)
#
#
# Indices 1 2 3 4 5 6 
#
# 1 0.011559 0.000620 -0.005353 0.000000 0.000000 0.000000
# 2 0.000620 0.011509 -0.007067 0.000000 0.000000 0.000000
# 3 -0.005353 -0.007067 0.019651 0.000000 0.000000 0.000000
# 4 0.000000 0.000000 0.000000 0.041564 0.000000 0.000000
# 5 0.000000 0.000000 0.000000 0.000000 0.061989 0.000000
# 6 0.000000 0.000000 0.000000 0.000000 0.000000 0.096374
#
#
# Mechanical properties :
#
#
# Convention : Reuss Voigt Hill
#
# Bulk Modulus (GPa) = 52.30237 52.79195 52.54716
# Shear Modulus (GPa) = 18.34072 23.32560 20.83316
#
# Velocity S-wave (km/s) = 3.05936 3.45016 3.26062
# Velocity P-wave (km/s) = 6.25865 6.54312 6.40246
#
# Compressibility (1/GPa) = 0.01911959
#
# Stress axis : x y z
#
# Youngs Moduli (GPa) = 86.51349 86.88802 50.88823
#
# Poissons Ratio (x) = -0.05389 0.27240
# Poissons Ratio (y) = -0.05365 0.35962
# Poissons Ratio (z) = 0.46311 0.61402
#
# Static dielectric constant tensor:
#      x y z
#    x 1.732290 0.000000 0.000000 
#    y 0.000000 1.687750 0.000000 
#    z 0.000000 0.000000 1.719510 
# 
# From -- ./inp_files/20964.got.cif
#   From: 2010.05.17/outbox.cif.g08.bks.cpg/sg70_11_cif.got.tgz:20964.got - 2010.06.03 15:57:51.
