data_PCOD9515313
_publ_section_title
;
Structure prediction by ZEFSAII (Michael W. Deem and Ramdas Pophale) SiO2 
 PCOD9515313
Probable space group: F D D D
;
_chemical_formula_sum "Si O2"
_cell_formula_units_Z 120
_cell_length_a 27.325677
_cell_length_b 9.553338
_cell_length_c 22.302738
_cell_angle_alpha 90.000000
_cell_angle_beta 90.000000
_cell_angle_gamma 90.000000
_cell_volume 5822.161613
_symmetry_space_group_name_H-M "F D D D"
_symmetry_group_IT_number 70
_space_group.IT_coordinate_system_code '2'
_symmetry_cell_setting 'orthorhombic'
loop_
_space_group_symop_operation_xyz
x,y,z
1/4-x,1/4-y,z
x,1/4-y,1/4-z
1/4-x,y,1/4-z
-x,-y,-z
3/4+x,3/4+y,-z
-x,3/4+y,3/4+z
3/4+x,-y,3/4+z
x,1/2+y,1/2+z
1/4-x,3/4-y,1/2+z
x,3/4-y,3/4-z
1/4-x,1/2+y,3/4-z
-x,1/2-y,1/2-z
3/4+x,1/4+y,1/2-z
-x,1/4+y,1/4+z
3/4+x,1/2-y,1/4+z
1/2+x,y,1/2+z
3/4-x,1/4-y,1/2+z
1/2+x,1/4-y,3/4-z
3/4-x,y,3/4-z
1/2-x,-y,1/2-z
1/4+x,3/4+y,1/2-z
1/2-x,3/4+y,1/4+z
1/4+x,-y,1/4+z
1/2+x,1/2+y,z
3/4-x,3/4-y,z
1/2+x,3/4-y,1/4-z
3/4-x,1/2+y,1/4-z
1/2-x,1/2-y,-z
1/4+x,1/4+y,-z
1/2-x,1/4+y,3/4+z
1/4+x,1/2-y,3/4+z
loop_
_atom_site_type_symbol
_atom_site_label
_atom_site_fract_x
_atom_site_fract_y
_atom_site_fract_z
Si Si1 0.926332 0.088823 0.541095
Si Si2 0.923014 0.646229 0.344546
Si Si3 0.375000 0.375000 0.875000
Si Si4 0.415140 0.125000 0.625000
Si Si5 0.722429 0.657679 0.355995
O O1 0.930172 0.049391 0.472137
O O2 0.871699 0.092117 0.569492
O O3 0.951018 0.240032 0.555004
O O4 0.954731 0.979460 0.582352
O O5 0.875000 0.709707 0.375000
O O6 0.908506 0.481376 0.337753
O O7 0.969226 0.656547 0.388137
O O8 0.448323 0.255454 0.644298
#
# Coordination Sequence:
#
# PCOD9515313 Si02
#       5
#    32  32   8  16  32
#     4  10  21  39  61  86 123 151 202 251 299 359
#     4  10  22  38  59  87 124 157 202 252 297 356
#     4   8  22  36  56  86 120 152 204 236 306 340
#     4  10  21  36  63  86 115 158 200 243 302 358
#     4  10  21  39  60  90 115 161 197 246 306 358
#
# _framework density 20.610903
#
# number of rings (size 3 to 8) (size 9 to 14) (size 15 to 20)
#    0.800    1.600    0.000    4.800    3.733    2.133 
#    0.000   12.000    0.000    0.000    0.000    0.000 
#    0.000    0.000    0.000    0.000    0.000    0.000 
#
# Total GULP energy -167302.875173 kJ/mol
# GULP energy per Si atom -5576.762506 kJ/mol
# Density = 2.056399 g / cm^3
# Si number density = 20.610903 Si / 1000 Ang^3
#
#
#
# Elastic Constant Matrix: (Units=GPa)
#
#
# Indices 1 2 3 4 5 6 
#
# 1 147.2874 8.3301 10.0305 0.0000 0.0000 0.0000
# 2 8.3301 55.6477 -19.7390 0.0000 0.0000 0.0000
# 3 10.0305 -19.7390 56.2196 0.0000 0.0000 0.0000
# 4 0.0000 0.0000 0.0000 -2.0772 0.0000 0.0000
# 5 0.0000 0.0000 0.0000 0.0000 -1.9689 0.0000
# 6 0.0000 0.0000 0.0000 0.0000 0.0000 -35.1742
#
#
#
# Elastic Compliance Matrix: (Units=1/GPa)
#
#
# Indices 1 2 3 4 5 6 
#
# 1 0.007012 -0.001706 -0.001850 0.000000 0.000000 0.000000
# 2 -0.001706 0.020942 0.007657 0.000000 0.000000 0.000000
# 3 -0.001850 0.007657 0.020806 0.000000 0.000000 0.000000
# 4 0.000000 0.000000 0.000000 -0.481411 0.000000 0.000000
# 5 0.000000 0.000000 0.000000 0.000000 -0.507903 0.000000
# 6 0.000000 0.000000 0.000000 0.000000 0.000000 -0.028430
#
#
# Mechanical properties :
#
#
# Convention : Reuss Voigt Hill
#
# Bulk Modulus (GPa) = 17.55560 28.48866 23.02213
# Shear Modulus (GPa) = -5.21812 9.52481 2.15335
#
# Velocity S-wave (km/s) = -1.59287 2.15204 1.02324
# Velocity P-wave (km/s) = 2.27006 4.47517 3.54826
#
# Compressibility (1/GPa) = 0.05696187
#
# Stress axis : x y z
#
# Youngs Moduli (GPa) = 142.61450 47.75183 48.06332
#
# Poissons Ratio (x) = 0.08146 0.08892
# Poissons Ratio (y) = 0.24328 -0.36802
# Poissons Ratio (z) = 0.26383 -0.36564
#
# Static dielectric constant tensor:
#      x y z
#    x 1.767110 0.000000 0.000000 
#    y 0.000000 1.775770 0.000000 
#    z 0.000000 0.000000 1.694950 
# 
# From -- ./inp_files/47445.got.cif
#   From: 2010.05.17/outbox.cif.g08.bks.cpg/sg70_24_cif.got.tgz:47445.got - 2010.06.03 15:57:51.
