data_PCOD9515605
_publ_section_title
;
Structure prediction by ZEFSAII (Michael W. Deem and Ramdas Pophale) SiO2 
 PCOD9515605
Probable space group: F D D D
;
_chemical_formula_sum "Si O2"
_cell_formula_units_Z 160
_cell_length_a 12.882101
_cell_length_b 25.699097
_cell_length_c 22.116234
_cell_angle_alpha 90.000000
_cell_angle_beta 90.000000
_cell_angle_gamma 90.000000
_cell_volume 7321.764227
_symmetry_space_group_name_H-M "F D D D"
_symmetry_group_IT_number 70
_space_group.IT_coordinate_system_code '2'
_symmetry_cell_setting 'orthorhombic'
loop_
_space_group_symop_operation_xyz
x,y,z
1/4-x,1/4-y,z
x,1/4-y,1/4-z
1/4-x,y,1/4-z
-x,-y,-z
3/4+x,3/4+y,-z
-x,3/4+y,3/4+z
3/4+x,-y,3/4+z
x,1/2+y,1/2+z
1/4-x,3/4-y,1/2+z
x,3/4-y,3/4-z
1/4-x,1/2+y,3/4-z
-x,1/2-y,1/2-z
3/4+x,1/4+y,1/2-z
-x,1/4+y,1/4+z
3/4+x,1/2-y,1/4+z
1/2+x,y,1/2+z
3/4-x,1/4-y,1/2+z
1/2+x,1/4-y,3/4-z
3/4-x,y,3/4-z
1/2-x,-y,1/2-z
1/4+x,3/4+y,1/2-z
1/2-x,3/4+y,1/4+z
1/4+x,-y,1/4+z
1/2+x,1/2+y,z
3/4-x,3/4-y,z
1/2+x,3/4-y,1/4-z
3/4-x,1/2+y,1/4-z
1/2-x,1/2-y,-z
1/4+x,1/4+y,-z
1/2-x,1/4+y,3/4+z
1/4+x,1/2-y,3/4+z
loop_
_atom_site_type_symbol
_atom_site_label
_atom_site_fract_x
_atom_site_fract_y
_atom_site_fract_z
Si Si1 0.112478 0.008100 0.467779
Si Si2 0.462247 0.930426 0.823663
Si Si3 0.841440 0.755375 0.086882
Si Si4 0.635730 0.859867 0.806981
Si Si5 0.305732 0.426027 0.778430
O O1 0.154819 0.949147 0.460432
O O2 0.171002 0.044111 0.513871
O O3 0.138475 0.031796 0.401608
O O4 0.000000 0.000000 0.500000
O O5 0.375000 0.933909 0.875000
O O6 0.514221 0.874607 0.809226
O O7 0.562624 0.964904 0.839815
O O8 0.735078 0.721519 0.074817
O O9 0.849937 0.794077 0.029873
O O10 0.674319 0.875000 0.875000
O O11 0.696741 0.897801 0.762278
O O12 0.375000 0.375000 0.796809
#
# Coordination Sequence:
#
# PCOD9515605 Si02
#       5
#    32  32  32  32  32
#     4  12  23  42  69  96 134 180 228 289 344 408
#     4  11  22  42  68  96 134 177 225 288 340 409
#     4  10  22  44  64 102 138 171 234 278 344 423
#     4  11  22  43  65  98 130 178 239 271 342 429
#     4  10  21  42  69  95 139 179 220 289 345 415
#
# _framework density 21.852657000000001
#
# number of rings (size 3 to 8) (size 9 to 14) (size 15 to 20)
#    0.000    1.200    6.000    1.200    0.000    3.200 
#    7.200    8.000    0.000    0.000    0.000    0.000 
#    0.000    0.000    0.000    0.000    0.000    0.000 
#
# Total GULP energy -222695.122067 kJ/mol
# GULP energy per Si atom -5567.378052 kJ/mol
# Density = 2.180292 g / cm^3
# Si number density = 21.852657 Si / 1000 Ang^3
#
#
#
# Elastic Constant Matrix: (Units=GPa)
#
#
# Indices 1 2 3 4 5 6 
#
# 1 93.3682 28.3943 57.6341 0.0000 0.0000 0.0000
# 2 28.3943 72.6759 23.5558 0.0000 0.0000 0.0000
# 3 57.6341 23.5558 127.9402 0.0000 0.0000 0.0000
# 4 0.0000 0.0000 0.0000 26.5556 0.0000 0.0000
# 5 0.0000 0.0000 0.0000 0.0000 35.7247 0.0000
# 6 0.0000 0.0000 0.0000 0.0000 0.0000 54.6817
#
#
#
# Elastic Compliance Matrix: (Units=1/GPa)
#
#
# Indices 1 2 3 4 5 6 
#
# 1 0.015929 -0.004145 -0.006413 0.000000 0.000000 0.000000
# 2 -0.004145 0.015712 -0.001025 0.000000 0.000000 0.000000
# 3 -0.006413 -0.001025 0.010894 0.000000 0.000000 0.000000
# 4 0.000000 0.000000 0.000000 0.037657 0.000000 0.000000
# 5 0.000000 0.000000 0.000000 0.000000 0.027992 0.000000
# 6 0.000000 0.000000 0.000000 0.000000 0.000000 0.018288
#
#
# Mechanical properties :
#
#
# Convention : Reuss Voigt Hill
#
# Bulk Modulus (GPa) = 51.63101 57.01697 54.32399
# Shear Modulus (GPa) = 32.03217 35.68573 33.85895
#
# Velocity S-wave (km/s) = 3.83276 4.04544 3.94054
# Velocity P-wave (km/s) = 6.57761 6.92597 6.75403
#
# Compressibility (1/GPa) = 0.01936821
#
# Stress axis : x y z
#
# Youngs Moduli (GPa) = 62.77786 63.64742 91.79637
#
# Poissons Ratio (x) = 0.26382 0.58865
# Poissons Ratio (y) = 0.26022 0.09414
# Poissons Ratio (z) = 0.40257 0.06527
#
# Static dielectric constant tensor:
#      x y z
#    x 1.911420 0.000000 0.000000 
#    y 0.000000 1.842240 0.000000 
#    z 0.000000 0.000000 1.889790 
# 
# From -- ./inp_files/50297.got.cif
#   From: 2010.05.17/outbox.cif.g08.bks.cpg/sg70_26_cif.got.tgz:50297.got - 2010.06.03 15:57:51.
