data_PCOD9515442
_publ_section_title
;
Structure prediction by ZEFSAII (Michael W. Deem and Ramdas Pophale) SiO2 
 PCOD9515442
Probable space group: F D D D
;
_chemical_formula_sum "Si O2"
_cell_formula_units_Z 160
_cell_length_a 19.506145
_cell_length_b 20.634824
_cell_length_c 17.010206
_cell_angle_alpha 90.000000
_cell_angle_beta 90.000000
_cell_angle_gamma 90.000000
_cell_volume 6846.707748
_symmetry_space_group_name_H-M "F D D D"
_symmetry_group_IT_number 70
_space_group.IT_coordinate_system_code '2'
_symmetry_cell_setting 'orthorhombic'
loop_
_space_group_symop_operation_xyz
x,y,z
1/4-x,1/4-y,z
x,1/4-y,1/4-z
1/4-x,y,1/4-z
-x,-y,-z
3/4+x,3/4+y,-z
-x,3/4+y,3/4+z
3/4+x,-y,3/4+z
x,1/2+y,1/2+z
1/4-x,3/4-y,1/2+z
x,3/4-y,3/4-z
1/4-x,1/2+y,3/4-z
-x,1/2-y,1/2-z
3/4+x,1/4+y,1/2-z
-x,1/4+y,1/4+z
3/4+x,1/2-y,1/4+z
1/2+x,y,1/2+z
3/4-x,1/4-y,1/2+z
1/2+x,1/4-y,3/4-z
3/4-x,y,3/4-z
1/2-x,-y,1/2-z
1/4+x,3/4+y,1/2-z
1/2-x,3/4+y,1/4+z
1/4+x,-y,1/4+z
1/2+x,1/2+y,z
3/4-x,3/4-y,z
1/2+x,3/4-y,1/4-z
3/4-x,1/2+y,1/4-z
1/2-x,1/2-y,-z
1/4+x,1/4+y,-z
1/2-x,1/4+y,3/4+z
1/4+x,1/2-y,3/4+z
loop_
_atom_site_type_symbol
_atom_site_label
_atom_site_fract_x
_atom_site_fract_y
_atom_site_fract_z
Si Si1 0.579512 0.436292 0.006071
Si Si2 0.971117 0.364815 0.622336
Si Si3 0.090216 0.558031 0.726361
Si Si4 0.160616 0.315432 0.540854
Si Si5 0.807474 0.008113 0.582908
O O1 0.521434 0.398722 0.055526
O O2 0.643977 0.389320 0.015589
O O3 0.602606 0.504425 0.041310
O O4 0.564238 0.454696 0.916456
O O5 0.010199 0.319242 0.684796
O O6 0.922612 0.319712 0.569750
O O7 0.945527 0.430209 0.663167
O O8 0.125000 0.625000 0.702072
O O9 0.015865 0.535231 0.697650
O O10 0.125000 0.301077 0.625000
O O11 0.120239 0.276351 0.474567
#
# Coordination Sequence:
#
# PCOD9515442 Si02
#       5
#    32  32  32  32  32
#     4  11  23  41  62  98 132 175 214 267 338 402
#     4  11  24  45  62  97 146 166 217 285 323 399
#     4  12  25  39  64  97 135 170 217 267 343 388
#     4  10  21  39  65  91 129 177 214 265 329 389
#     4  12  23  40  66  92 134 180 214 266 337 402
#
# _framework density 23.368894999999998
#
# number of rings (size 3 to 8) (size 9 to 14) (size 15 to 20)
#    0.000    0.800    8.000    1.200    0.000    0.000 
#    3.600    1.000    0.000    0.000    0.000    0.000 
#    0.000    0.000    0.000    0.000    0.000    0.000 
#
# Total GULP energy -223392.556217 kJ/mol
# GULP energy per Si atom -5584.813905 kJ/mol
# Density = 2.331571 g / cm^3
# Si number density = 23.368895 Si / 1000 Ang^3
#
#
#
# Elastic Constant Matrix: (Units=GPa)
#
#
# Indices 1 2 3 4 5 6 
#
# 1 85.9205 16.4617 46.7585 0.0000 0.0000 0.0000
# 2 16.4617 57.7716 20.5003 0.0000 0.0000 0.0000
# 3 46.7585 20.5003 128.3118 0.0000 0.0000 0.0000
# 4 0.0000 0.0000 0.0000 21.5278 0.0000 0.0000
# 5 0.0000 0.0000 0.0000 0.0000 41.3713 0.0000
# 6 0.0000 0.0000 0.0000 0.0000 0.0000 39.2832
#
#
#
# Elastic Compliance Matrix: (Units=1/GPa)
#
#
# Indices 1 2 3 4 5 6 
#
# 1 0.014837 -0.002448 -0.005016 0.000000 0.000000 0.000000
# 2 -0.002448 0.018754 -0.002104 0.000000 0.000000 0.000000
# 3 -0.005016 -0.002104 0.009958 0.000000 0.000000 0.000000
# 4 0.000000 0.000000 0.000000 0.046451 0.000000 0.000000
# 5 0.000000 0.000000 0.000000 0.000000 0.024171 0.000000
# 6 0.000000 0.000000 0.000000 0.000000 0.000000 0.025456
#
#
# Mechanical properties :
#
#
# Convention : Reuss Voigt Hill
#
# Bulk Modulus (GPa) = 40.96236 48.82722 44.89479
# Shear Modulus (GPa) = 29.95788 32.98870 31.47329
#
# Velocity S-wave (km/s) = 3.58432 3.76127 3.67386
# Velocity P-wave (km/s) = 5.89037 6.30891 6.10323
#
# Compressibility (1/GPa) = 0.02441265
#
# Stress axis : x y z
#
# Youngs Moduli (GPa) = 67.39774 53.32268 100.42658
#
# Poissons Ratio (x) = 0.13053 0.50372
# Poissons Ratio (y) = 0.16499 0.21132
# Poissons Ratio (z) = 0.33805 0.11220
#
# Static dielectric constant tensor:
#      x y z
#    x 2.016910 0.000000 0.000000 
#    y 0.000000 1.869680 0.000000 
#    z 0.000000 0.000000 1.923840 
# 
# From -- ./inp_files/28639.got.cif
#   From: 2010.05.17/outbox.cif.g08.bks.cpg/sg70_15_cif.got.tgz:28639.got - 2010.06.03 15:57:51.
