data_PCOD9515985
_publ_section_title
;
Structure prediction by ZEFSAII (Michael W. Deem and Ramdas Pophale) SiO2 
 PCOD9515985
Probable space group: F D D D
;
_chemical_formula_sum "Si O2"
_cell_formula_units_Z 72
_cell_length_a 23.127876
_cell_length_b 6.998500
_cell_length_c 22.177299
_cell_angle_alpha 90.000000
_cell_angle_beta 90.000000
_cell_angle_gamma 90.000000
_cell_volume 3589.627378
_symmetry_space_group_name_H-M "F D D D"
_symmetry_group_IT_number 70
_space_group.IT_coordinate_system_code '2'
_symmetry_cell_setting 'orthorhombic'
loop_
_space_group_symop_operation_xyz
x,y,z
1/4-x,1/4-y,z
x,1/4-y,1/4-z
1/4-x,y,1/4-z
-x,-y,-z
3/4+x,3/4+y,-z
-x,3/4+y,3/4+z
3/4+x,-y,3/4+z
x,1/2+y,1/2+z
1/4-x,3/4-y,1/2+z
x,3/4-y,3/4-z
1/4-x,1/2+y,3/4-z
-x,1/2-y,1/2-z
3/4+x,1/4+y,1/2-z
-x,1/4+y,1/4+z
3/4+x,1/2-y,1/4+z
1/2+x,y,1/2+z
3/4-x,1/4-y,1/2+z
1/2+x,1/4-y,3/4-z
3/4-x,y,3/4-z
1/2-x,-y,1/2-z
1/4+x,3/4+y,1/2-z
1/2-x,3/4+y,1/4+z
1/4+x,-y,1/4+z
1/2+x,1/2+y,z
3/4-x,3/4-y,z
1/2+x,3/4-y,1/4-z
3/4-x,1/2+y,1/4-z
1/2-x,1/2-y,-z
1/4+x,1/4+y,-z
1/2-x,1/4+y,3/4+z
1/4+x,1/2-y,3/4+z
loop_
_atom_site_type_symbol
_atom_site_label
_atom_site_fract_x
_atom_site_fract_y
_atom_site_fract_z
Si Si1 0.125000 0.125000 0.280584
Si Si2 0.698716 0.784962 0.174400
Si Si3 0.058802 0.375000 0.375000
Si Si4 0.375000 0.875000 0.875000
O O1 0.175956 0.206787 0.237903
O O2 0.097048 0.280968 0.323762
O O3 0.681243 0.625000 0.125000
O O4 0.767106 0.778889 0.159659
O O5 0.666827 0.983815 0.162103
#
# Coordination Sequence:
#
# PCOD9515985 Si02
#       4
#    16  32  16   8
#     4  12  21  49  68  94 150 174 222 296 322 406
#     4  10  22  44  69 101 135 173 228 278 333 401
#     4  10  26  42  68 104 134 184 226 276 344 398
#     4  12  18  40  80 102 122 190 218 264 370 384
#
# _framework density 20.057791999999999
#
# number of rings (size 3 to 8) (size 9 to 14) (size 15 to 20)
#    1.333    0.000    4.444    1.333    0.000    3.556 
#    0.000    6.667    0.000    0.000    0.000    0.000 
#    0.000    0.000    0.000    0.000    0.000    0.000 
#
# Total GULP energy -100210.496981 kJ/mol
# GULP energy per Si atom -5567.249832 kJ/mol
# Density = 2.001214 g / cm^3
# Si number density = 20.057792 Si / 1000 Ang^3
#
#
#
# Elastic Constant Matrix: (Units=GPa)
#
#
# Indices 1 2 3 4 5 6 
#
# 1 69.6466 19.3122 49.6481 0.0000 0.0000 -0.0001
# 2 19.3122 100.0086 54.7385 -0.0001 0.0003 0.0000
# 3 49.6481 54.7385 155.4247 0.0000 0.0001 0.0001
# 4 0.0000 -0.0001 0.0000 33.1159 0.0001 0.0001
# 5 0.0000 0.0003 0.0001 0.0001 129.3406 -0.0003
# 6 -0.0001 0.0000 0.0001 0.0001 -0.0003 -26.0986
#
#
#
# Elastic Compliance Matrix: (Units=1/GPa)
#
#
# Indices 1 2 3 4 5 6 
#
# 1 0.018606 -0.000421 -0.005795 0.000000 0.000000 0.000000
# 2 -0.000421 0.012396 -0.004231 0.000000 0.000000 0.000000
# 3 -0.005795 -0.004231 0.009775 0.000000 0.000000 0.000000
# 4 0.000000 0.000000 0.000000 0.030197 0.000000 0.000000
# 5 0.000000 0.000000 0.000000 0.000000 0.007732 0.000000
# 6 0.000000 0.000000 0.000000 0.000000 0.000000 -0.038316
#
#
# Mechanical properties :
#
#
# Convention : Reuss Voigt Hill
#
# Bulk Modulus (GPa) = 50.29476 63.60863 56.95169
# Shear Modulus (GPa) = 73.62381 40.69698 57.16039
#
# Velocity S-wave (km/s) = 6.06511 4.50931 5.34413
# Velocity P-wave (km/s) = 8.61259 7.67420 8.15690
#
# Compressibility (1/GPa) = 0.01988279
#
# Stress axis : x y z
#
# Youngs Moduli (GPa) = 53.74595 80.66845 102.29780
#
# Poissons Ratio (x) = 0.03396 0.59283
# Poissons Ratio (y) = 0.02263 0.43286
# Poissons Ratio (z) = 0.31147 0.34134
#
# Static dielectric constant tensor:
#      x y z
#    x 1.833000 0.000000 0.000000 
#    y 0.000000 1.684650 0.000000 
#    z 0.000000 0.000000 1.647750 
# 
# From -- ./inp_files/1750.got.cif
#   From: 2010.05.17/outbox.cif.g08.bks.cpg/sg70_1_cif.got.tgz:1750.got - 2010.06.03 15:57:51.
