data_PCOD9515334
_publ_section_title
;
Structure prediction by ZEFSAII (Michael W. Deem and Ramdas Pophale) SiO2 
 PCOD9515334
Probable space group: F D D D
;
_chemical_formula_sum "Si O2"
_cell_formula_units_Z 168
_cell_length_a 16.349631
_cell_length_b 23.502852
_cell_length_c 20.472252
_cell_angle_alpha 90.000000
_cell_angle_beta 90.000000
_cell_angle_gamma 90.000000
_cell_volume 7866.728103
_symmetry_space_group_name_H-M "F D D D"
_symmetry_group_IT_number 70
_space_group.IT_coordinate_system_code '2'
_symmetry_cell_setting 'orthorhombic'
loop_
_space_group_symop_operation_xyz
x,y,z
1/4-x,1/4-y,z
x,1/4-y,1/4-z
1/4-x,y,1/4-z
-x,-y,-z
3/4+x,3/4+y,-z
-x,3/4+y,3/4+z
3/4+x,-y,3/4+z
x,1/2+y,1/2+z
1/4-x,3/4-y,1/2+z
x,3/4-y,3/4-z
1/4-x,1/2+y,3/4-z
-x,1/2-y,1/2-z
3/4+x,1/4+y,1/2-z
-x,1/4+y,1/4+z
3/4+x,1/2-y,1/4+z
1/2+x,y,1/2+z
3/4-x,1/4-y,1/2+z
1/2+x,1/4-y,3/4-z
3/4-x,y,3/4-z
1/2-x,-y,1/2-z
1/4+x,3/4+y,1/2-z
1/2-x,3/4+y,1/4+z
1/4+x,-y,1/4+z
1/2+x,1/2+y,z
3/4-x,3/4-y,z
1/2+x,3/4-y,1/4-z
3/4-x,1/2+y,1/4-z
1/2-x,1/2-y,-z
1/4+x,1/4+y,-z
1/2-x,1/4+y,3/4+z
1/4+x,1/2-y,3/4+z
loop_
_atom_site_type_symbol
_atom_site_label
_atom_site_fract_x
_atom_site_fract_y
_atom_site_fract_z
Si Si1 0.054642 0.247932 0.419968
Si Si2 0.418249 0.932247 0.304469
Si Si3 0.930706 0.646616 0.934545
Si Si4 0.837222 0.024011 0.724499
Si Si5 0.947925 0.942556 0.496991
Si Si6 0.625000 0.125000 0.125000
O O1 0.093047 0.267164 0.352213
O O2 0.114454 0.213848 0.467847
O O3 0.014496 0.308572 0.440442
O O4 0.980693 0.202372 0.408303
O O5 0.375000 0.943476 0.375000
O O6 0.375000 0.875000 0.283167
O O7 0.398659 0.978031 0.251469
O O8 0.875000 0.624243 0.875000
O O9 0.868755 0.668484 0.991392
O O10 0.998119 0.603399 0.962765
O O11 0.750000 0.000000 0.750000
O O12 0.926349 0.914930 0.426038
O O13 0.000000 0.000000 0.500000
#
# Coordination Sequence:
#
# PCOD9515334 Si02
#       6
#    32  32  32  32  32   8
#     4  11  22  46  68 102 144 189 246 299 397 451
#     4  10  21  37  61 102 144 179 232 305 374 457
#     4  11  23  46  72 106 150 187 251 320 377 464
#     4  11  20  38  69 100 140 186 225 306 382 446
#     4  12  30  49  77 106 145 215 261 325 381 469
#     4  12  28  60  76 108 164 192 276 324 378 472
#
# _framework density 21.355765999999999
#
# number of rings (size 3 to 8) (size 9 to 14) (size 15 to 20)
#    0.000    0.952    5.714    1.143    4.000    3.048 
#    0.000    0.000    0.000    0.000    0.000    0.000 
#    0.000    0.000    0.000    0.000    0.000    0.000 
#
# Total GULP energy -233899.846036 kJ/mol
# GULP energy per Si atom -5569.043953 kJ/mol
# Density = 2.130716 g / cm^3
# Si number density = 21.355766 Si / 1000 Ang^3
#
#
#
# Elastic Constant Matrix: (Units=GPa)
#
#
# Indices 1 2 3 4 5 6 
#
# 1 70.4746 28.1084 36.8825 0.0000 0.0000 0.0000
# 2 28.1084 107.7613 39.8584 0.0000 0.0000 0.0000
# 3 36.8825 39.8584 118.0652 0.0000 0.0000 0.0000
# 4 0.0000 0.0000 0.0000 18.9141 0.0000 0.0000
# 5 0.0000 0.0000 0.0000 0.0000 41.5655 0.0000
# 6 0.0000 0.0000 0.0000 0.0000 0.0000 31.5679
#
#
#
# Elastic Compliance Matrix: (Units=1/GPa)
#
#
# Indices 1 2 3 4 5 6 
#
# 1 0.017745 -0.002946 -0.004549 0.000000 0.000000 0.000000
# 2 -0.002946 0.011093 -0.002825 0.000000 0.000000 0.000000
# 3 -0.004549 -0.002825 0.010844 0.000000 0.000000 0.000000
# 4 0.000000 0.000000 0.000000 0.052871 0.000000 0.000000
# 5 0.000000 0.000000 0.000000 0.000000 0.024058 0.000000
# 6 0.000000 0.000000 0.000000 0.000000 0.000000 0.031678
#
#
# Mechanical properties :
#
#
# Convention : Reuss Voigt Hill
#
# Bulk Modulus (GPa) = 52.51134 56.22220 54.36677
# Shear Modulus (GPa) = 28.52635 31.17294 29.84965
#
# Velocity S-wave (km/s) = 3.65878 3.82474 3.74268
# Velocity P-wave (km/s) = 6.51852 6.77410 6.64754
#
# Compressibility (1/GPa) = 0.01904351
#
# Stress axis : x y z
#
# Youngs Moduli (GPa) = 56.35338 90.14698 92.21278
#
# Poissons Ratio (x) = 0.26559 0.41946
# Poissons Ratio (y) = 0.16602 0.26047
# Poissons Ratio (z) = 0.25634 0.25463
#
# Static dielectric constant tensor:
#      x y z
#    x 1.561030 0.000000 0.000000 
#    y 0.000000 1.841230 0.000000 
#    z 0.000000 0.000000 1.521690 
# 
# From -- ./inp_files/42816.got.cif
#   From: 2010.05.17/outbox.cif.g08.bks.cpg/sg70_22_cif.got.tgz:42816.got - 2010.06.03 15:57:51.
