data_PCOD9515283
_publ_section_title
;
Structure prediction by ZEFSAII (Michael W. Deem and Ramdas Pophale) SiO2 
 PCOD9515283
Probable space group: F D D D
;
_chemical_formula_sum "Si O2"
_cell_formula_units_Z 240
_cell_length_a 26.230669
_cell_length_b 16.990466
_cell_length_c 26.199733
_cell_angle_alpha 90.000000
_cell_angle_beta 90.000000
_cell_angle_gamma 90.000000
_cell_volume 11676.468799
_symmetry_space_group_name_H-M "F D D D"
_symmetry_group_IT_number 70
_space_group.IT_coordinate_system_code '2'
_symmetry_cell_setting 'orthorhombic'
loop_
_space_group_symop_operation_xyz
x,y,z
1/4-x,1/4-y,z
x,1/4-y,1/4-z
1/4-x,y,1/4-z
-x,-y,-z
3/4+x,3/4+y,-z
-x,3/4+y,3/4+z
3/4+x,-y,3/4+z
x,1/2+y,1/2+z
1/4-x,3/4-y,1/2+z
x,3/4-y,3/4-z
1/4-x,1/2+y,3/4-z
-x,1/2-y,1/2-z
3/4+x,1/4+y,1/2-z
-x,1/4+y,1/4+z
3/4+x,1/2-y,1/4+z
1/2+x,y,1/2+z
3/4-x,1/4-y,1/2+z
1/2+x,1/4-y,3/4-z
3/4-x,y,3/4-z
1/2-x,-y,1/2-z
1/4+x,3/4+y,1/2-z
1/2-x,3/4+y,1/4+z
1/4+x,-y,1/4+z
1/2+x,1/2+y,z
3/4-x,3/4-y,z
1/2+x,3/4-y,1/4-z
3/4-x,1/2+y,1/4-z
1/2-x,1/2-y,-z
1/4+x,1/4+y,-z
1/2-x,1/4+y,3/4+z
1/4+x,1/2-y,3/4+z
loop_
_atom_site_type_symbol
_atom_site_label
_atom_site_fract_x
_atom_site_fract_y
_atom_site_fract_z
Si Si1 0.369507 0.281550 0.113589
Si Si2 0.409891 0.751952 0.945578
Si Si3 0.222389 0.483057 0.803612
Si Si4 0.965780 0.966376 0.576062
Si Si5 0.548433 0.299447 0.948251
Si Si6 0.447032 0.920234 0.961348
Si Si7 0.625000 0.372591 0.625000
Si Si8 0.724262 0.308000 0.651431
O O1 0.375000 0.375000 0.121491
O O2 0.335305 0.267713 0.062724
O O3 0.426353 0.255486 0.130367
O O4 0.334137 0.237219 0.154595
O O5 0.444678 0.829833 0.943433
O O6 0.352810 0.785888 0.940275
O O7 0.411582 0.679884 0.907069
O O8 0.421451 0.713996 0.999953
O O9 0.250000 0.500000 0.750000
O O10 0.215373 0.389663 0.809876
O O11 0.258716 0.518452 0.847996
O O12 0.941614 0.932289 0.522868
O O13 0.997838 0.891977 0.595333
O O14 0.002898 0.035999 0.558123
O O15 0.497556 0.246998 0.945404
O O16 0.664174 0.320389 0.656782
#
# Coordination Sequence:
#
# PCOD9515283 Si02
#       8
#    32  32  32  32  32  32  16  32
#     4  11  19  38  75 104 132 175 234 290 358 418
#     4  11  21  39  63  92 142 183 220 274 349 416
#     4  11  25  45  68  99 139 180 232 296 357 415
#     4  11  19  38  69 104 135 183 231 285 353 422
#     4  11  22  43  73  98 129 186 233 291 352 421
#     4  10  21  35  66  99 144 180 226 278 339 436
#     4  12  26  41  63  98 136 184 226 284 351 426
#     4  11  22  43  69  94 131 178 235 287 354 419
#
# _framework density 20.554158999999999
#
# number of rings (size 3 to 8) (size 9 to 14) (size 15 to 20)
#    0.000    1.067    6.667    2.400    0.000    1.067 
#    0.000    6.667    0.000    0.000    0.000    0.000 
#    0.000    0.000    0.000    0.000    0.000    0.000 
#
# Total GULP energy -334677.862963 kJ/mol
# GULP energy per Si atom -5577.964383 kJ/mol
# Density = 2.050738 g / cm^3
# Si number density = 20.554159 Si / 1000 Ang^3
#
#
#
# Elastic Constant Matrix: (Units=GPa)
#
#
# Indices 1 2 3 4 5 6 
#
# 1 93.6873 46.1321 19.6480 0.0000 0.0000 0.0000
# 2 46.1321 81.9671 6.8114 0.0000 0.0000 0.0000
# 3 19.6480 6.8114 63.4701 0.0000 0.0000 0.0000
# 4 0.0000 0.0000 0.0000 25.8382 0.0000 0.0000
# 5 0.0000 0.0000 0.0000 0.0000 38.9412 0.0000
# 6 0.0000 0.0000 0.0000 0.0000 0.0000 24.7602
#
#
#
# Elastic Compliance Matrix: (Units=1/GPa)
#
#
# Indices 1 2 3 4 5 6 
#
# 1 0.015687 -0.008501 -0.003944 0.000000 0.000000 0.000000
# 2 -0.008501 0.016917 0.000816 0.000000 0.000000 0.000000
# 3 -0.003944 0.000816 0.016889 0.000000 0.000000 0.000000
# 4 0.000000 0.000000 0.000000 0.038702 0.000000 0.000000
# 5 0.000000 0.000000 0.000000 0.000000 0.025680 0.000000
# 6 0.000000 0.000000 0.000000 0.000000 0.000000 0.040387
#
#
# Mechanical properties :
#
#
# Convention : Reuss Voigt Hill
#
# Bulk Modulus (GPa) = 38.11706 42.70083 40.40894
# Shear Modulus (GPa) = 26.84361 29.01012 27.92686
#
# Velocity S-wave (km/s) = 3.61777 3.76093 3.69005
# Velocity P-wave (km/s) = 6.00300 6.29916 6.15286
#
# Compressibility (1/GPa) = 0.02623497
#
# Stress axis : x y z
#
# Youngs Moduli (GPa) = 63.74763 59.11321 59.21114
#
# Poissons Ratio (x) = 0.50252 0.23352
# Poissons Ratio (y) = 0.54192 -0.04833
# Poissons Ratio (z) = 0.25141 -0.04825
#
# Static dielectric constant tensor:
#      x y z
#    x 1.780690 0.000000 0.000000 
#    y 0.000000 1.738500 0.000000 
#    z 0.000000 0.000000 1.787260 
# 
# From -- ./inp_files/61866.got.cif
#   From: 2010.05.17/outbox.cif.g08.bks.cpg/sg70_31_cif.got.tgz:61866.got - 2010.06.03 15:57:51.
