data_PCOD9515618
_publ_section_title
;
Structure prediction by ZEFSAII (Michael W. Deem and Ramdas Pophale) SiO2 
 PCOD9515618
Probable space group: F D D D
;
_chemical_formula_sum "Si O2"
_cell_formula_units_Z 160
_cell_length_a 20.853561
_cell_length_b 16.645003
_cell_length_c 18.995546
_cell_angle_alpha 90.000000
_cell_angle_beta 90.000000
_cell_angle_gamma 90.000000
_cell_volume 6593.498106
_symmetry_space_group_name_H-M "F D D D"
_symmetry_group_IT_number 70
_space_group.IT_coordinate_system_code '2'
_symmetry_cell_setting 'orthorhombic'
loop_
_space_group_symop_operation_xyz
x,y,z
1/4-x,1/4-y,z
x,1/4-y,1/4-z
1/4-x,y,1/4-z
-x,-y,-z
3/4+x,3/4+y,-z
-x,3/4+y,3/4+z
3/4+x,-y,3/4+z
x,1/2+y,1/2+z
1/4-x,3/4-y,1/2+z
x,3/4-y,3/4-z
1/4-x,1/2+y,3/4-z
-x,1/2-y,1/2-z
3/4+x,1/4+y,1/2-z
-x,1/4+y,1/4+z
3/4+x,1/2-y,1/4+z
1/2+x,y,1/2+z
3/4-x,1/4-y,1/2+z
1/2+x,1/4-y,3/4-z
3/4-x,y,3/4-z
1/2-x,-y,1/2-z
1/4+x,3/4+y,1/2-z
1/2-x,3/4+y,1/4+z
1/4+x,-y,1/4+z
1/2+x,1/2+y,z
3/4-x,3/4-y,z
1/2+x,3/4-y,1/4-z
3/4-x,1/2+y,1/4-z
1/2-x,1/2-y,-z
1/4+x,1/4+y,-z
1/2-x,1/4+y,3/4+z
1/4+x,1/2-y,3/4+z
loop_
_atom_site_type_symbol
_atom_site_label
_atom_site_fract_x
_atom_site_fract_y
_atom_site_fract_z
Si Si1 0.197486 0.595258 0.995016
Si Si2 0.673454 0.372048 0.790854
Si Si3 0.575856 0.807673 0.562322
Si Si4 0.751888 0.457630 0.152605
Si Si5 0.607072 0.030997 0.517603
O O1 0.125000 0.625000 0.986350
O O2 0.219244 0.550522 0.924119
O O3 0.257132 0.652420 0.013801
O O4 0.196386 0.533026 0.059605
O O5 0.670400 0.375000 0.875000
O O6 0.616154 0.423968 0.757859
O O7 0.661496 0.284172 0.753229
O O8 0.625000 0.822916 0.625000
O O9 0.518144 0.868797 0.571692
O O10 0.686836 0.508829 0.164199
O O11 0.807020 0.486561 0.204337
O O12 0.625000 0.125000 0.518247
#
# Coordination Sequence:
#
# PCOD9515618 Si02
#       5
#    32  32  32  32  32
#     4  12  27  43  70 100 138 192 245 285 357 429
#     4  11  25  45  68 104 146 185 238 294 356 424
#     4  11  24  45  72  98 143 183 230 301 358 422
#     4  10  22  45  69 106 145 182 232 296 367 432
#     4  10  21  42  76 107 141 186 236 294 369 439
#
# _framework density 24.266328999999999
#
# number of rings (size 3 to 8) (size 9 to 14) (size 15 to 20)
#    0.000    1.200    2.000    3.000    2.800    2.400 
#    0.000   10.000    0.000    0.000    0.000    0.000 
#    0.000    0.000    0.000    0.000    0.000    0.000 
#
# Total GULP energy -223689.746868 kJ/mol
# GULP energy per Si atom -5592.243672 kJ/mol
# Density = 2.421110 g / cm^3
# Si number density = 24.266329 Si / 1000 Ang^3
#
#
#
# Elastic Constant Matrix: (Units=GPa)
#
#
# Indices 1 2 3 4 5 6 
#
# 1 147.8860 36.4203 38.3101 0.0000 0.0000 0.0000
# 2 36.4203 101.7104 0.1123 0.0000 0.0000 0.0000
# 3 38.3101 0.1123 97.1097 0.0000 0.0000 0.0000
# 4 0.0000 0.0000 0.0000 55.1552 0.0000 0.0000
# 5 0.0000 0.0000 0.0000 0.0000 24.0996 0.0000
# 6 0.0000 0.0000 0.0000 0.0000 0.0000 29.6432
#
#
#
# Elastic Compliance Matrix: (Units=1/GPa)
#
#
# Indices 1 2 3 4 5 6 
#
# 1 0.008350 -0.002986 -0.003291 0.000000 0.000000 0.000000
# 2 -0.002986 0.010900 0.001165 0.000000 0.000000 0.000000
# 3 -0.003291 0.001165 0.011594 0.000000 0.000000 0.000000
# 4 0.000000 0.000000 0.000000 0.018131 0.000000 0.000000
# 5 0.000000 0.000000 0.000000 0.000000 0.041495 0.000000
# 6 0.000000 0.000000 0.000000 0.000000 0.000000 0.033735
#
#
# Mechanical properties :
#
#
# Convention : Reuss Voigt Hill
#
# Bulk Modulus (GPa) = 48.49332 55.15463 51.82398
# Shear Modulus (GPa) = 35.38559 39.90380 37.64470
#
# Velocity S-wave (km/s) = 3.82280 4.05953 3.94295
# Velocity P-wave (km/s) = 6.28588 6.68964 6.49090
#
# Compressibility (1/GPa) = 0.02062140
#
# Stress axis : x y z
#
# Youngs Moduli (GPa) = 119.76289 91.74430 86.24831
#
# Poissons Ratio (x) = 0.27397 0.28381
# Poissons Ratio (y) = 0.35764 -0.10052
# Poissons Ratio (z) = 0.39409 -0.10693
#
# Static dielectric constant tensor:
#      x y z
#    x 1.938140 0.000000 0.000000 
#    y 0.000000 1.942170 0.000000 
#    z 0.000000 0.000000 1.911340 
# 
# From -- ./inp_files/44707.got.cif
#   From: 2010.05.17/outbox.cif.g08.bks.cpg/sg70_23_cif.got.tgz:44707.got - 2010.06.03 15:57:51.
