data_PCOD9515381
_publ_section_title
;
Structure prediction by ZEFSAII (Michael W. Deem and Ramdas Pophale) SiO2 
 PCOD9515381
Probable space group: F D D D
;
_chemical_formula_sum "Si O2"
_cell_formula_units_Z 160
_cell_length_a 12.989503
_cell_length_b 25.804592
_cell_length_c 19.670771
_cell_angle_alpha 90.000000
_cell_angle_beta 90.000000
_cell_angle_gamma 90.000000
_cell_volume 6593.422622
_symmetry_space_group_name_H-M "F D D D"
_symmetry_group_IT_number 70
_space_group.IT_coordinate_system_code '2'
_symmetry_cell_setting 'orthorhombic'
loop_
_space_group_symop_operation_xyz
x,y,z
1/4-x,1/4-y,z
x,1/4-y,1/4-z
1/4-x,y,1/4-z
-x,-y,-z
3/4+x,3/4+y,-z
-x,3/4+y,3/4+z
3/4+x,-y,3/4+z
x,1/2+y,1/2+z
1/4-x,3/4-y,1/2+z
x,3/4-y,3/4-z
1/4-x,1/2+y,3/4-z
-x,1/2-y,1/2-z
3/4+x,1/4+y,1/2-z
-x,1/4+y,1/4+z
3/4+x,1/2-y,1/4+z
1/2+x,y,1/2+z
3/4-x,1/4-y,1/2+z
1/2+x,1/4-y,3/4-z
3/4-x,y,3/4-z
1/2-x,-y,1/2-z
1/4+x,3/4+y,1/2-z
1/2-x,3/4+y,1/4+z
1/4+x,-y,1/4+z
1/2+x,1/2+y,z
3/4-x,3/4-y,z
1/2+x,3/4-y,1/4-z
3/4-x,1/2+y,1/4-z
1/2-x,1/2-y,-z
1/4+x,1/4+y,-z
1/2-x,1/4+y,3/4+z
1/4+x,1/2-y,3/4+z
loop_
_atom_site_type_symbol
_atom_site_label
_atom_site_fract_x
_atom_site_fract_y
_atom_site_fract_z
Si Si1 0.563207 0.818763 0.267904
Si Si2 0.359058 0.315110 0.574924
Si Si3 0.982439 0.652356 0.195893
Si Si4 0.355384 0.296569 0.718042
Si Si5 0.537583 0.462908 0.835000
O O1 0.655534 0.860197 0.268769
O O2 0.613223 0.761951 0.261119
O O3 0.466096 0.825452 0.218123
O O4 0.510809 0.811630 0.342626
O O5 0.375000 0.375000 0.590386
O O6 0.310294 0.321288 0.499485
O O7 0.302064 0.297139 0.644404
O O8 0.455494 0.275196 0.577316
O O9 0.017429 0.625000 0.125000
O O10 0.905998 0.697663 0.174591
O O11 0.278950 0.313190 0.776801
#
# Coordination Sequence:
#
# PCOD9515381 Si02
#       5
#    32  32  32  32  32
#     4   9  20  39  63  90 127 170 214 264 329 395
#     4  11  24  40  60  93 129 167 217 269 332 395
#     4  10  22  41  63  88 121 169 221 260 318 392
#     4  10  21  38  61  94 130 164 210 273 331 387
#     4  10  21  39  64  92 126 168 219 267 325 398
#
# _framework density 24.266608000000002
#
# number of rings (size 3 to 8) (size 9 to 14) (size 15 to 20)
#    0.000    2.000    0.000    2.400    2.800    1.200 
#    0.000    7.000    0.000    0.000    0.000    0.000 
#    0.000    0.000    0.000    0.000    0.000    0.000 
#
# Total GULP energy -222845.447986 kJ/mol
# GULP energy per Si atom -5571.136200 kJ/mol
# Density = 2.421138 g / cm^3
# Si number density = 24.266608 Si / 1000 Ang^3
#
#
#
# Elastic Constant Matrix: (Units=GPa)
#
#
# Indices 1 2 3 4 5 6 
#
# 1 44.0942 4.9594 40.3813 0.0000 0.0000 0.0000
# 2 4.9594 86.7943 -7.1328 0.0000 0.0000 0.0000
# 3 40.3813 -7.1328 148.4558 0.0000 0.0000 0.0000
# 4 0.0000 0.0000 0.0000 30.2266 0.0000 0.0000
# 5 0.0000 0.0000 0.0000 0.0000 41.1446 0.0000
# 6 0.0000 0.0000 0.0000 0.0000 0.0000 6.0647
#
#
#
# Elastic Compliance Matrix: (Units=1/GPa)
#
#
# Indices 1 2 3 4 5 6 
#
# 1 0.030713 -0.002451 -0.008472 0.000000 0.000000 0.000000
# 2 -0.002451 0.011763 0.001232 0.000000 0.000000 0.000000
# 3 -0.008472 0.001232 0.009100 0.000000 0.000000 0.000000
# 4 0.000000 0.000000 0.000000 0.033083 0.000000 0.000000
# 5 0.000000 0.000000 0.000000 0.000000 0.024305 0.000000
# 6 0.000000 0.000000 0.000000 0.000000 0.000000 0.164889
#
#
# Mechanical properties :
#
#
# Convention : Reuss Voigt Hill
#
# Bulk Modulus (GPa) = 31.06270 39.52890 35.29580
# Shear Modulus (GPa) = 16.44921 31.56295 24.00608
#
# Velocity S-wave (km/s) = 2.60639 3.61040 3.14867
# Velocity P-wave (km/s) = 4.67825 5.80558 5.27213
#
# Compressibility (1/GPa) = 0.03219296
#
# Stress axis : x y z
#
# Youngs Moduli (GPa) = 32.55950 85.01384 109.89432
#
# Poissons Ratio (x) = 0.20838 0.93102
# Poissons Ratio (y) = 0.07981 -0.13538
# Poissons Ratio (z) = 0.27584 -0.10473
#
# Static dielectric constant tensor:
#      x y z
#    x 1.957020 0.000000 0.000000 
#    y 0.000000 2.036430 0.000000 
#    z 0.000000 0.000000 2.052970 
# 
# From -- ./inp_files/51277.got.cif
#   From: 2010.05.17/outbox.cif.g08.bks.cpg/sg70_26_cif.got.tgz:51277.got - 2010.06.03 15:57:51.
