data_PCOD9515759
_publ_section_title
;
Structure prediction by ZEFSAII (Michael W. Deem and Ramdas Pophale) SiO2 
 PCOD9515759
Probable space group: F D D D
;
_chemical_formula_sum "Si O2"
_cell_formula_units_Z 144
_cell_length_a 26.168287
_cell_length_b 11.965401
_cell_length_c 22.841677
_cell_angle_alpha 90.000000
_cell_angle_beta 90.000000
_cell_angle_gamma 90.000000
_cell_volume 7152.049936
_symmetry_space_group_name_H-M "F D D D"
_symmetry_group_IT_number 70
_space_group.IT_coordinate_system_code '2'
_symmetry_cell_setting 'orthorhombic'
loop_
_space_group_symop_operation_xyz
x,y,z
1/4-x,1/4-y,z
x,1/4-y,1/4-z
1/4-x,y,1/4-z
-x,-y,-z
3/4+x,3/4+y,-z
-x,3/4+y,3/4+z
3/4+x,-y,3/4+z
x,1/2+y,1/2+z
1/4-x,3/4-y,1/2+z
x,3/4-y,3/4-z
1/4-x,1/2+y,3/4-z
-x,1/2-y,1/2-z
3/4+x,1/4+y,1/2-z
-x,1/4+y,1/4+z
3/4+x,1/2-y,1/4+z
1/2+x,y,1/2+z
3/4-x,1/4-y,1/2+z
1/2+x,1/4-y,3/4-z
3/4-x,y,3/4-z
1/2-x,-y,1/2-z
1/4+x,3/4+y,1/2-z
1/2-x,3/4+y,1/4+z
1/4+x,-y,1/4+z
1/2+x,1/2+y,z
3/4-x,3/4-y,z
1/2+x,3/4-y,1/4-z
3/4-x,1/2+y,1/4-z
1/2-x,1/2-y,-z
1/4+x,1/4+y,-z
1/2-x,1/4+y,3/4+z
1/4+x,1/2-y,3/4+z
loop_
_atom_site_type_symbol
_atom_site_label
_atom_site_fract_x
_atom_site_fract_y
_atom_site_fract_z
Si Si1 0.573652 0.834197 0.165841
Si Si2 0.320969 0.030498 0.037283
Si Si3 0.430820 0.263224 0.217169
Si Si4 0.035384 0.517880 0.090309
Si Si5 0.236615 0.125000 0.125000
O O1 0.625000 0.838421 0.125000
O O2 0.575674 0.887202 0.231002
O O3 0.549580 0.711636 0.159645
O O4 0.533478 0.916268 0.134394
O O5 0.275196 0.068739 0.078587
O O6 0.378592 0.024502 0.062856
O O7 0.312340 0.897677 0.026405
O O8 0.430472 0.231251 0.285450
O O9 0.479556 0.210695 0.185977
O O10 0.055731 0.625000 0.125000
#
# Coordination Sequence:
#
# PCOD9515759 Si02
#       5
#    32  32  32  32  16
#     4  12  24  44  68  94 130 181 226 269 324 399
#     4  11  23  42  67  92 132 171 223 271 332 387
#     4  10  22  39  64 100 129 164 210 278 332 389
#     4  11  21  38  67  98 129 161 214 274 335 385
#     4  12  27  46  62  96 140 182 217 274 326 402
#
# _framework density 20.134087999999998
#
# number of rings (size 3 to 8) (size 9 to 14) (size 15 to 20)
#    0.000    0.889    6.667    1.000    1.556    0.444 
#    0.000    0.000    4.889    0.000    0.000    0.000 
#    0.000    0.000    0.000    0.000    0.000    0.000 
#
# Total GULP energy -200601.833519 kJ/mol
# GULP energy per Si atom -5572.273153 kJ/mol
# Density = 2.008826 g / cm^3
# Si number density = 20.134088 Si / 1000 Ang^3
#
#
#
# Elastic Constant Matrix: (Units=GPa)
#
#
# Indices 1 2 3 4 5 6 
#
# 1 81.7977 8.6006 29.8390 0.0000 0.0000 0.0000
# 2 8.6006 72.2911 22.6396 0.0000 0.0000 0.0000
# 3 29.8390 22.6396 59.7776 0.0000 0.0000 0.0000
# 4 0.0000 0.0000 0.0000 20.1036 0.0000 0.0000
# 5 0.0000 0.0000 0.0000 0.0000 12.6999 0.0000
# 6 0.0000 0.0000 0.0000 0.0000 0.0000 7.1161
#
#
#
# Elastic Compliance Matrix: (Units=1/GPa)
#
#
# Indices 1 2 3 4 5 6 
#
# 1 0.014973 0.000635 -0.007714 0.000000 0.000000 0.000000
# 2 0.000635 0.015721 -0.006271 0.000000 0.000000 0.000000
# 3 -0.007714 -0.006271 0.022954 0.000000 0.000000 0.000000
# 4 0.000000 0.000000 0.000000 0.049742 0.000000 0.000000
# 5 0.000000 0.000000 0.000000 0.000000 0.078740 0.000000
# 6 0.000000 0.000000 0.000000 0.000000 0.000000 0.140526
#
#
# Mechanical properties :
#
#
# Convention : Reuss Voigt Hill
#
# Bulk Modulus (GPa) = 37.10953 37.33608 37.22281
# Shear Modulus (GPa) = 13.95320 18.16974 16.06147
#
# Velocity S-wave (km/s) = 2.63537 3.00732 2.82747
# Velocity P-wave (km/s) = 5.26607 5.53557 5.40250
#
# Compressibility (1/GPa) = 0.02694725
#
# Stress axis : x y z
#
# Youngs Moduli (GPa) = 66.78867 63.60775 43.56485
#
# Poissons Ratio (x) = -0.04036 0.33606
# Poissons Ratio (y) = -0.04238 0.27319
# Poissons Ratio (z) = 0.51522 0.39888
#
# Static dielectric constant tensor:
#      x y z
#    x 1.722740 0.000000 0.000000 
#    y 0.000000 1.733800 0.000000 
#    z 0.000000 0.000000 1.746630 
# 
# From -- ./inp_files/54188.got.cif
#   From: 2010.05.17/outbox.cif.g08.bks.cpg/sg70_28_cif.got.tgz:54188.got - 2010.06.03 15:57:51.
