data_PCOD9515222
_publ_section_title
;
Structure prediction by ZEFSAII (Michael W. Deem and Ramdas Pophale) SiO2 
 PCOD9515222
Probable space group: F D D D
;
_chemical_formula_sum "Si O2"
_cell_formula_units_Z 168
_cell_length_a 26.205078
_cell_length_b 19.890406
_cell_length_c 13.936745
_cell_angle_alpha 90.000000
_cell_angle_beta 90.000000
_cell_angle_gamma 90.000000
_cell_volume 7264.244589
_symmetry_space_group_name_H-M "F D D D"
_symmetry_group_IT_number 70
_space_group.IT_coordinate_system_code '2'
_symmetry_cell_setting 'orthorhombic'
loop_
_space_group_symop_operation_xyz
x,y,z
1/4-x,1/4-y,z
x,1/4-y,1/4-z
1/4-x,y,1/4-z
-x,-y,-z
3/4+x,3/4+y,-z
-x,3/4+y,3/4+z
3/4+x,-y,3/4+z
x,1/2+y,1/2+z
1/4-x,3/4-y,1/2+z
x,3/4-y,3/4-z
1/4-x,1/2+y,3/4-z
-x,1/2-y,1/2-z
3/4+x,1/4+y,1/2-z
-x,1/4+y,1/4+z
3/4+x,1/2-y,1/4+z
1/2+x,y,1/2+z
3/4-x,1/4-y,1/2+z
1/2+x,1/4-y,3/4-z
3/4-x,y,3/4-z
1/2-x,-y,1/2-z
1/4+x,3/4+y,1/2-z
1/2-x,3/4+y,1/4+z
1/4+x,-y,1/4+z
1/2+x,1/2+y,z
3/4-x,3/4-y,z
1/2+x,3/4-y,1/4-z
3/4-x,1/2+y,1/4-z
1/2-x,1/2-y,-z
1/4+x,1/4+y,-z
1/2-x,1/4+y,3/4+z
1/4+x,1/2-y,3/4+z
loop_
_atom_site_type_symbol
_atom_site_label
_atom_site_fract_x
_atom_site_fract_y
_atom_site_fract_z
Si Si1 0.960264 0.316612 0.016483
Si Si2 0.319426 0.118029 0.479587
Si Si3 0.571422 0.216469 0.585272
Si Si4 0.625000 0.125000 0.125000
Si Si5 0.728036 0.162970 0.491702
Si Si6 0.177722 0.334440 0.738166
O O1 0.962108 0.328033 0.131339
O O2 0.011055 0.359097 0.983293
O O3 0.913071 0.337948 0.949349
O O4 0.955570 0.235740 0.009436
O O5 0.319120 0.156184 0.377505
O O6 0.369504 0.154283 0.524544
O O7 0.329871 0.038869 0.462102
O O8 0.625000 0.195303 0.625000
O O9 0.550228 0.157084 0.520320
O O10 0.538077 0.219471 0.682272
O O11 0.786381 0.145723 0.517652
#
# Coordination Sequence:
#
# PCOD9515222 Si02
#       6
#    32  32  32   8  32  32
#     4  11  25  47  72  99 142 192 251 303 359 432
#     4  10  21  43  72 102 145 186 238 308 358 433
#     4  11  21  42  69 106 150 182 226 293 378 452
#     4  12  28  48  68  90 136 200 264 310 350 418
#     4  10  23  40  69 105 145 185 229 294 371 447
#     4  10  20  43  70 100 139 184 234 293 364 438
#
# _framework density 23.126975999999999
#
# number of rings (size 3 to 8) (size 9 to 14) (size 15 to 20)
#    0.000    1.524    3.810    2.286    2.667    3.048 
#    0.000   12.381    0.000    0.000    0.000    0.000 
#    0.000    0.000    0.000    0.000    0.000    0.000 
#
# Total GULP energy -233892.053590 kJ/mol
# GULP energy per Si atom -5568.858419 kJ/mol
# Density = 2.307434 g / cm^3
# Si number density = 23.126976 Si / 1000 Ang^3
#
#
#
# Elastic Constant Matrix: (Units=GPa)
#
#
# Indices 1 2 3 4 5 6 
#
# 1 155.7929 20.3673 26.3555 0.0000 0.0000 0.0000
# 2 20.3673 82.5925 41.2424 0.0000 0.0000 0.0000
# 3 26.3555 41.2424 106.6083 0.0000 0.0000 0.0000
# 4 0.0000 0.0000 0.0000 14.4701 0.0000 0.0000
# 5 0.0000 0.0000 0.0000 0.0000 30.2195 0.0000
# 6 0.0000 0.0000 0.0000 0.0000 0.0000 41.8235
#
#
#
# Elastic Compliance Matrix: (Units=1/GPa)
#
#
# Indices 1 2 3 4 5 6 
#
# 1 0.006769 -0.001033 -0.001274 0.000000 0.000000 0.000000
# 2 -0.001033 0.015164 -0.005611 0.000000 0.000000 0.000000
# 3 -0.001274 -0.005611 0.011866 0.000000 0.000000 0.000000
# 4 0.000000 0.000000 0.000000 0.069108 0.000000 0.000000
# 5 0.000000 0.000000 0.000000 0.000000 0.033091 0.000000
# 6 0.000000 0.000000 0.000000 0.000000 0.000000 0.023910
#
#
# Mechanical properties :
#
#
# Convention : Reuss Voigt Hill
#
# Bulk Modulus (GPa) = 55.66921 57.88045 56.77483
# Shear Modulus (GPa) = 27.51296 34.43784 30.97540
#
# Velocity S-wave (km/s) = 3.45287 3.86304 3.66370
# Velocity P-wave (km/s) = 6.32612 6.70664 6.51916
#
# Compressibility (1/GPa) = 0.01796325
#
# Stress axis : x y z
#
# Youngs Moduli (GPa) = 147.72477 65.94447 84.27659
#
# Poissons Ratio (x) = 0.06814 0.10735
# Poissons Ratio (y) = 0.15264 0.47288
# Poissons Ratio (z) = 0.18817 0.37001
#
# Static dielectric constant tensor:
#      x y z
#    x 2.034290 0.000000 0.000000 
#    y 0.000000 2.000660 0.000000 
#    z 0.000000 0.000000 1.895400 
# 
# From -- ./inp_files/31081.got.cif
#   From: 2010.05.17/outbox.cif.g08.bks.cpg/sg70_16_cif.got.tgz:31081.got - 2010.06.03 15:57:51.
