data_PCOD9515506
_publ_section_title
;
Structure prediction by ZEFSAII (Michael W. Deem and Ramdas Pophale) SiO2 
 PCOD9515506
Probable space group: F D D D
;
_chemical_formula_sum "Si O2"
_cell_formula_units_Z 160
_cell_length_a 20.732279
_cell_length_b 23.999835
_cell_length_c 14.475848
_cell_angle_alpha 90.000000
_cell_angle_beta 90.000000
_cell_angle_gamma 90.000000
_cell_volume 7202.766149
_symmetry_space_group_name_H-M "F D D D"
_symmetry_group_IT_number 70
_space_group.IT_coordinate_system_code '2'
_symmetry_cell_setting 'orthorhombic'
loop_
_space_group_symop_operation_xyz
x,y,z
1/4-x,1/4-y,z
x,1/4-y,1/4-z
1/4-x,y,1/4-z
-x,-y,-z
3/4+x,3/4+y,-z
-x,3/4+y,3/4+z
3/4+x,-y,3/4+z
x,1/2+y,1/2+z
1/4-x,3/4-y,1/2+z
x,3/4-y,3/4-z
1/4-x,1/2+y,3/4-z
-x,1/2-y,1/2-z
3/4+x,1/4+y,1/2-z
-x,1/4+y,1/4+z
3/4+x,1/2-y,1/4+z
1/2+x,y,1/2+z
3/4-x,1/4-y,1/2+z
1/2+x,1/4-y,3/4-z
3/4-x,y,3/4-z
1/2-x,-y,1/2-z
1/4+x,3/4+y,1/2-z
1/2-x,3/4+y,1/4+z
1/4+x,-y,1/4+z
1/2+x,1/2+y,z
3/4-x,3/4-y,z
1/2+x,3/4-y,1/4-z
3/4-x,1/2+y,1/4-z
1/2-x,1/2-y,-z
1/4+x,1/4+y,-z
1/2-x,1/4+y,3/4+z
1/4+x,1/2-y,3/4+z
loop_
_atom_site_type_symbol
_atom_site_label
_atom_site_fract_x
_atom_site_fract_y
_atom_site_fract_z
Si Si1 0.927619 0.250444 0.956393
Si Si2 0.195370 0.121495 0.486447
Si Si3 0.310244 0.937450 0.550186
Si Si4 0.604313 0.960526 0.403426
Si Si5 0.758603 0.875000 0.875000
Si Si6 0.206181 0.875000 0.875000
O O1 0.875000 0.256601 0.875000
O O2 0.992526 0.218671 0.929499
O O3 0.956356 0.306163 0.003541
O O4 0.893954 0.219501 0.042644
O O5 0.125000 0.125000 0.528763
O O6 0.188837 0.144698 0.384825
O O7 0.246879 0.152763 0.549870
O O8 0.300220 0.904662 0.454525
O O9 0.371036 0.980610 0.553464
O O10 0.537921 0.924873 0.417104
O O11 0.660250 0.917225 0.427668
#
# Coordination Sequence:
#
# PCOD9515506 Si02
#       6
#    32  32  32  32  16  16
#     4  11  22  39  63  95 129 169 210 266 325 385
#     4  12  23  34  61  96 133 160 213 257 322 403
#     4  11  23  43  67  90 133 174 213 274 327 377
#     4  10  21  40  66  93 127 168 218 267 318 392
#     4   9  24  46  68  92 130 170 228 271 320 392
#     4  11  21  36  61  94 133 166 201 263 332 384
#
# _framework density 22.213688000000001
#
# number of rings (size 3 to 8) (size 9 to 14) (size 15 to 20)
#    0.000    1.200    4.000    2.700    0.000    1.600 
#    0.000    4.500    8.800    0.000    0.000    0.000 
#    0.000    0.000    0.000    0.000    0.000    0.000 
#
# Total GULP energy -222959.725156 kJ/mol
# GULP energy per Si atom -5573.993129 kJ/mol
# Density = 2.216313 g / cm^3
# Si number density = 22.213688 Si / 1000 Ang^3
#
#
#
# Elastic Constant Matrix: (Units=GPa)
#
#
# Indices 1 2 3 4 5 6 
#
# 1 76.1477 36.1998 31.8639 0.0000 0.0000 0.0000
# 2 36.1998 115.9490 57.2365 0.0000 0.0000 0.0000
# 3 31.8639 57.2365 83.6413 0.0000 0.0000 0.0000
# 4 0.0000 0.0000 0.0000 39.7476 0.0000 0.0000
# 5 0.0000 0.0000 0.0000 0.0000 20.7519 0.0000
# 6 0.0000 0.0000 0.0000 0.0000 0.0000 20.2914
#
#
#
# Elastic Compliance Matrix: (Units=1/GPa)
#
#
# Indices 1 2 3 4 5 6 
#
# 1 0.016311 -0.003058 -0.004121 0.000000 0.000000 0.000000
# 2 -0.003058 0.013597 -0.008140 0.000000 0.000000 0.000000
# 3 -0.004121 -0.008140 0.019096 0.000000 0.000000 0.000000
# 4 0.000000 0.000000 0.000000 0.025159 0.000000 0.000000
# 5 0.000000 0.000000 0.000000 0.000000 0.048188 0.000000
# 6 0.000000 0.000000 0.000000 0.000000 0.000000 0.049282
#
#
# Mechanical properties :
#
#
# Convention : Reuss Voigt Hill
#
# Bulk Modulus (GPa) = 54.44804 58.48204 56.46504
# Shear Modulus (GPa) = 23.99322 26.18738 25.09030
#
# Velocity S-wave (km/s) = 3.29007 3.43721 3.36445
# Velocity P-wave (km/s) = 6.24476 6.49128 6.36921
#
# Compressibility (1/GPa) = 0.01836613
#
# Stress axis : x y z
#
# Youngs Moduli (GPa) = 61.31001 73.54433 52.36723
#
# Poissons Ratio (x) = 0.22489 0.21581
# Poissons Ratio (y) = 0.18748 0.42626
# Poissons Ratio (z) = 0.25267 0.59863
#
# Static dielectric constant tensor:
#      x y z
#    x 1.884550 0.000000 0.000000 
#    y 0.000000 2.132710 0.000000 
#    z 0.000000 0.000000 1.870440 
# 
# From -- ./inp_files/28697.got.cif
#   From: 2010.05.17/outbox.cif.g08.bks.cpg/sg70_15_cif.got.tgz:28697.got - 2010.06.03 15:57:51.
