data_PCOD9515893
_publ_section_title
;
Structure prediction by ZEFSAII (Michael W. Deem and Ramdas Pophale) SiO2 
 PCOD9515893
Probable space group: F D D D
;
_chemical_formula_sum "Si O2"
_cell_formula_units_Z 128
_cell_length_a 25.417906
_cell_length_b 7.372200
_cell_length_c 28.542342
_cell_angle_alpha 90.000000
_cell_angle_beta 90.000000
_cell_angle_gamma 90.000000
_cell_volume 5348.432062
_symmetry_space_group_name_H-M "F D D D"
_symmetry_group_IT_number 70
_space_group.IT_coordinate_system_code '2'
_symmetry_cell_setting 'orthorhombic'
loop_
_space_group_symop_operation_xyz
x,y,z
1/4-x,1/4-y,z
x,1/4-y,1/4-z
1/4-x,y,1/4-z
-x,-y,-z
3/4+x,3/4+y,-z
-x,3/4+y,3/4+z
3/4+x,-y,3/4+z
x,1/2+y,1/2+z
1/4-x,3/4-y,1/2+z
x,3/4-y,3/4-z
1/4-x,1/2+y,3/4-z
-x,1/2-y,1/2-z
3/4+x,1/4+y,1/2-z
-x,1/4+y,1/4+z
3/4+x,1/2-y,1/4+z
1/2+x,y,1/2+z
3/4-x,1/4-y,1/2+z
1/2+x,1/4-y,3/4-z
3/4-x,y,3/4-z
1/2-x,-y,1/2-z
1/4+x,3/4+y,1/2-z
1/2-x,3/4+y,1/4+z
1/4+x,-y,1/4+z
1/2+x,1/2+y,z
3/4-x,3/4-y,z
1/2+x,3/4-y,1/4-z
3/4-x,1/2+y,1/4-z
1/2-x,1/2-y,-z
1/4+x,1/4+y,-z
1/2-x,1/4+y,3/4+z
1/4+x,1/2-y,3/4+z
loop_
_atom_site_type_symbol
_atom_site_label
_atom_site_fract_x
_atom_site_fract_y
_atom_site_fract_z
Si Si1 0.009350 0.223757 0.966151
Si Si2 0.315041 0.655699 0.869002
Si Si3 0.625000 0.625000 0.953642
Si Si4 0.770758 0.857643 0.187159
Si Si5 0.905066 0.625000 0.625000
O O1 0.066682 0.134176 0.976026
O O2 0.021709 0.428586 0.948109
O O3 0.971636 0.130028 0.927258
O O4 0.977141 0.252388 0.013998
O O5 0.375000 0.595838 0.875000
O O6 0.284885 0.572374 0.912856
O O7 0.315748 0.875000 0.875000
O O8 0.624836 0.795346 0.918673
O O9 0.811246 0.786446 0.148483
#
# Coordination Sequence:
#
# PCOD9515893 Si02
#       5
#    32  32  16  32  16
#     4  10  22  42  68  95 128 172 220 266 324 395
#     4   9  18  38  65  88 124 171 216 260 311 382
#     4  12  24  40  66  97 134 166 217 268 332 384
#     4  10  22  42  64  95 131 171 221 262 326 391
#     4  12  24  40  65  96 129 178 208 276 322 390
#
# _framework density 23.932247
#
# number of rings (size 3 to 8) (size 9 to 14) (size 15 to 20)
#    0.000    1.750    2.500    1.500    1.750    3.000 
#    4.500    7.500    0.000    0.000    0.000    0.000 
#    0.000    0.000    0.000    0.000    0.000    0.000 
#
# Total GULP energy -178652.663649 kJ/mol
# GULP energy per Si atom -5582.895739 kJ/mol
# Density = 2.387778 g / cm^3
# Si number density = 23.932247 Si / 1000 Ang^3
#
#
#
# Elastic Constant Matrix: (Units=GPa)
#
#
# Indices 1 2 3 4 5 6 
#
# 1 129.0371 19.3365 37.2994 0.0000 0.0000 0.0003
# 2 19.3365 79.6087 22.4020 0.0001 0.0001 0.0007
# 3 37.2994 22.4020 107.3458 0.0000 0.0000 0.0000
# 4 0.0000 0.0001 0.0000 16.4612 0.0000 0.0000
# 5 0.0000 0.0001 0.0000 0.0000 15.8440 0.0000
# 6 0.0003 0.0007 0.0000 0.0000 0.0000 30.9717
#
#
#
# Elastic Compliance Matrix: (Units=1/GPa)
#
#
# Indices 1 2 3 4 5 6 
#
# 1 0.008749 -0.001349 -0.002759 0.000000 0.000000 0.000000
# 2 -0.001349 0.013553 -0.002360 0.000000 0.000000 0.000000
# 3 -0.002759 -0.002360 0.010767 0.000000 0.000000 0.000000
# 4 0.000000 0.000000 0.000000 0.060749 0.000000 0.000000
# 5 0.000000 0.000000 0.000000 0.000000 0.063115 0.000000
# 6 0.000000 0.000000 0.000000 0.000000 0.000000 0.032288
#
#
# Mechanical properties :
#
#
# Convention : Reuss Voigt Hill
#
# Bulk Modulus (GPa) = 49.66561 52.67415 51.16988
# Shear Modulus (GPa) = 23.93873 28.45231 26.19552
#
# Velocity S-wave (km/s) = 3.16614 3.45174 3.31202
# Velocity P-wave (km/s) = 5.84496 6.15983 6.00446
#
# Compressibility (1/GPa) = 0.02013465
#
# Stress axis : x y z
#
# Youngs Moduli (GPa) = 114.29567 73.78392 92.87925
#
# Poissons Ratio (x) = 0.09952 0.25622
# Poissons Ratio (y) = 0.15417 0.21917
# Poissons Ratio (z) = 0.31530 0.17411
#
# Static dielectric constant tensor:
#      x y z
#    x 1.931850 0.000000 0.000000 
#    y 0.000000 1.983740 0.000000 
#    z 0.000000 0.000000 1.873620 
# 
# From -- ./inp_files/63688.got.cif
#   From: 2010.05.17/outbox.cif.g08.bks.cpg/sg70_32_cif.got.tgz:63688.got - 2010.06.03 15:57:51.
