data_PCOD9515941
_publ_section_title
;
Structure prediction by ZEFSAII (Michael W. Deem and Ramdas Pophale) SiO2 
 PCOD9515941
Probable space group: F D D D
;
_chemical_formula_sum "Si O2"
_cell_formula_units_Z 208
_cell_length_a 22.741591
_cell_length_b 23.321354
_cell_length_c 18.182113
_cell_angle_alpha 90.000000
_cell_angle_beta 90.000000
_cell_angle_gamma 90.000000
_cell_volume 9643.150802
_symmetry_space_group_name_H-M "F D D D"
_symmetry_group_IT_number 70
_space_group.IT_coordinate_system_code '2'
_symmetry_cell_setting 'orthorhombic'
loop_
_space_group_symop_operation_xyz
x,y,z
1/4-x,1/4-y,z
x,1/4-y,1/4-z
1/4-x,y,1/4-z
-x,-y,-z
3/4+x,3/4+y,-z
-x,3/4+y,3/4+z
3/4+x,-y,3/4+z
x,1/2+y,1/2+z
1/4-x,3/4-y,1/2+z
x,3/4-y,3/4-z
1/4-x,1/2+y,3/4-z
-x,1/2-y,1/2-z
3/4+x,1/4+y,1/2-z
-x,1/4+y,1/4+z
3/4+x,1/2-y,1/4+z
1/2+x,y,1/2+z
3/4-x,1/4-y,1/2+z
1/2+x,1/4-y,3/4-z
3/4-x,y,3/4-z
1/2-x,-y,1/2-z
1/4+x,3/4+y,1/2-z
1/2-x,3/4+y,1/4+z
1/4+x,-y,1/4+z
1/2+x,1/2+y,z
3/4-x,3/4-y,z
1/2+x,3/4-y,1/4-z
3/4-x,1/2+y,1/4-z
1/2-x,1/2-y,-z
1/4+x,1/4+y,-z
1/2-x,1/4+y,3/4+z
1/4+x,1/2-y,3/4+z
loop_
_atom_site_type_symbol
_atom_site_label
_atom_site_fract_x
_atom_site_fract_y
_atom_site_fract_z
Si Si1 0.464952 0.471593 0.835724
Si Si2 0.528886 0.047983 0.057913
Si Si3 0.092650 0.780931 0.295292
Si Si4 0.125000 0.625000 0.125000
Si Si5 0.930467 0.088781 0.915776
Si Si6 0.081502 0.814545 0.834724
Si Si7 0.625000 0.125000 0.625000
Si Si8 0.959630 0.709621 0.444190
O O1 0.445647 0.532734 0.868440
O O2 0.515468 0.450540 0.892065
O O3 0.416762 0.420715 0.832635
O O4 0.495200 0.478915 0.757025
O O5 0.463002 0.074403 0.052768
O O6 0.579999 0.091922 0.074315
O O7 0.536414 0.001871 0.125024
O O8 0.552050 0.020817 0.981964
O O9 0.123864 0.772763 0.373377
O O10 0.145255 0.790251 0.236223
O O11 0.875000 0.115694 0.875000
O O12 0.973172 0.143294 0.923807
O O13 0.914348 0.068797 0.998010
O O14 0.094429 0.875000 0.875000
#
# Coordination Sequence:
#
# PCOD9515941 Si02
#       8
#    32  32  32   8  32  32   8  32
#     4  11  24  42  68 100 136 190 228 286 365 408
#     4  11  24  43  68  99 136 183 225 291 356 412
#     4  10  22  43  67  93 133 188 224 277 360 411
#     4  12  24  40  68 102 132 176 218 296 348 428
#     4  12  24  40  71 103 128 184 242 275 343 432
#     4  11  22  42  67  96 140 179 223 286 347 413
#     4  12  20  44  60  98 148 168 232 310 348 400
#     4  11  23  48  65  97 150 178 235 304 339 427
#
# _framework density 21.569714999999999
#
# number of rings (size 3 to 8) (size 9 to 14) (size 15 to 20)
#    0.000    0.923    6.154    1.385    3.231    0.000 
#    5.538    0.000    0.000    1.846    0.000    0.000 
#    0.000    0.000    0.000    0.000    0.000    0.000 
#
# Total GULP energy -289897.044370 kJ/mol
# GULP energy per Si atom -5574.943161 kJ/mol
# Density = 2.152062 g / cm^3
# Si number density = 21.569715 Si / 1000 Ang^3
#
#
#
# Elastic Constant Matrix: (Units=GPa)
#
#
# Indices 1 2 3 4 5 6 
#
# 1 121.9829 22.0254 34.4857 0.0000 0.0000 0.0000
# 2 22.0254 78.4942 41.5289 0.0000 0.0000 0.0000
# 3 34.4857 41.5289 114.8930 0.0000 0.0000 0.0000
# 4 0.0000 0.0000 0.0000 33.7818 0.0000 0.0000
# 5 0.0000 0.0000 0.0000 0.0000 28.4877 0.0000
# 6 0.0000 0.0000 0.0000 0.0000 0.0000 17.7665
#
#
#
# Elastic Compliance Matrix: (Units=1/GPa)
#
#
# Indices 1 2 3 4 5 6 
#
# 1 0.009075 -0.001367 -0.002230 0.000000 0.000000 0.000000
# 2 -0.001367 0.015958 -0.005358 0.000000 0.000000 0.000000
# 3 -0.002230 -0.005358 0.011310 0.000000 0.000000 0.000000
# 4 0.000000 0.000000 0.000000 0.029602 0.000000 0.000000
# 5 0.000000 0.000000 0.000000 0.000000 0.035103 0.000000
# 6 0.000000 0.000000 0.000000 0.000000 0.000000 0.056286
#
#
# Mechanical properties :
#
#
# Convention : Reuss Voigt Hill
#
# Bulk Modulus (GPa) = 54.24830 56.82779 55.53804
# Shear Modulus (GPa) = 27.56543 30.49589 29.03066
#
# Velocity S-wave (km/s) = 3.57875 3.76417 3.67263
# Velocity P-wave (km/s) = 6.50241 6.73018 6.61728
#
# Compressibility (1/GPa) = 0.01843376
#
# Stress axis : x y z
#
# Youngs Moduli (GPa) = 110.19210 62.66451 88.41943
#
# Poissons Ratio (x) = 0.08564 0.19717
# Poissons Ratio (y) = 0.15059 0.47374
# Poissons Ratio (z) = 0.24572 0.33575
#
# Static dielectric constant tensor:
#      x y z
#    x 1.837340 0.000000 0.000000 
#    y 0.000000 2.151820 0.000000 
#    z 0.000000 0.000000 1.843390 
# 
# From -- ./inp_files/37755.got.cif
#   From: 2010.05.17/outbox.cif.g08.bks.cpg/sg70_19_cif.got.tgz:37755.got - 2010.06.03 15:57:51.
