data_PCOD9515640
_publ_section_title
;
Structure prediction by ZEFSAII (Michael W. Deem and Ramdas Pophale) SiO2 
 PCOD9515640
Probable space group: F D D D
;
_chemical_formula_sum "Si O2"
_cell_formula_units_Z 176
_cell_length_a 20.088491
_cell_length_b 15.301270
_cell_length_c 23.750740
_cell_angle_alpha 90.000000
_cell_angle_beta 90.000000
_cell_angle_gamma 90.000000
_cell_volume 7300.488797
_symmetry_space_group_name_H-M "F D D D"
_symmetry_group_IT_number 70
_space_group.IT_coordinate_system_code '2'
_symmetry_cell_setting 'orthorhombic'
loop_
_space_group_symop_operation_xyz
x,y,z
1/4-x,1/4-y,z
x,1/4-y,1/4-z
1/4-x,y,1/4-z
-x,-y,-z
3/4+x,3/4+y,-z
-x,3/4+y,3/4+z
3/4+x,-y,3/4+z
x,1/2+y,1/2+z
1/4-x,3/4-y,1/2+z
x,3/4-y,3/4-z
1/4-x,1/2+y,3/4-z
-x,1/2-y,1/2-z
3/4+x,1/4+y,1/2-z
-x,1/4+y,1/4+z
3/4+x,1/2-y,1/4+z
1/2+x,y,1/2+z
3/4-x,1/4-y,1/2+z
1/2+x,1/4-y,3/4-z
3/4-x,y,3/4-z
1/2-x,-y,1/2-z
1/4+x,3/4+y,1/2-z
1/2-x,3/4+y,1/4+z
1/4+x,-y,1/4+z
1/2+x,1/2+y,z
3/4-x,3/4-y,z
1/2+x,3/4-y,1/4-z
3/4-x,1/2+y,1/4-z
1/2-x,1/2-y,-z
1/4+x,1/4+y,-z
1/2-x,1/4+y,3/4+z
1/4+x,1/2-y,3/4+z
loop_
_atom_site_type_symbol
_atom_site_label
_atom_site_fract_x
_atom_site_fract_y
_atom_site_fract_z
Si Si1 0.093370 0.900715 0.064688
Si Si2 0.526239 0.288223 0.192006
Si Si3 0.732941 0.875000 0.375000
Si Si4 0.025392 0.625000 0.625000
Si Si5 0.875000 0.375000 0.281825
Si Si6 0.284248 0.441350 0.621618
Si Si7 0.361145 0.232218 0.703109
O O1 0.125000 0.938777 0.125000
O O2 0.148053 0.823507 0.057109
O O3 0.017031 0.898976 0.083145
O O4 0.092512 0.937797 0.000647
O O5 0.500000 0.250000 0.250000
O O6 0.521670 0.209390 0.147322
O O7 0.476767 0.369845 0.176828
O O8 0.687040 0.837471 0.324610
O O9 0.070263 0.661973 0.675677
O O10 0.987375 0.710420 0.603648
O O11 0.915458 0.442370 0.243909
O O12 0.351953 0.466266 0.653213
#
# Coordination Sequence:
#
# PCOD9515640 Si02
#       7
#    32  32  16  16  16  32  32
#     4  10  21  43  73 101 146 192 249 314 375 462
#     4  11  24  48  75 105 152 212 262 314 373 466
#     4  12  27  46  76 108 151 215 259 314 388 456
#     4  11  23  38  69 110 140 185 243 300 399 458
#     4  11  22  36  66 100 140 186 229 306 380 458
#     4  11  24  44  73 112 150 191 252 319 392 464
#     4  12  23  43  69 107 152 187 244 324 388 456
#
# _framework density 24.107975
#
# number of rings (size 3 to 8) (size 9 to 14) (size 15 to 20)
#    0.000    0.909    3.636    4.364    2.545    0.000 
#    0.000    5.909   12.000    0.000    0.000    0.000 
#    0.000    0.000    0.000    0.000    0.000    0.000 
#
# Total GULP energy -245065.019962 kJ/mol
# GULP energy per Si atom -5569.659545 kJ/mol
# Density = 2.405310 g / cm^3
# Si number density = 24.107975 Si / 1000 Ang^3
#
#
#
# Elastic Constant Matrix: (Units=GPa)
#
#
# Indices 1 2 3 4 5 6 
#
# 1 38.8117 22.6338 0.0443 0.0000 0.0000 0.0000
# 2 22.6338 156.3106 49.5900 0.0000 0.0000 0.0000
# 3 0.0443 49.5900 90.5749 0.0000 0.0000 0.0000
# 4 0.0000 0.0000 0.0000 65.9031 0.0000 0.0000
# 5 0.0000 0.0000 0.0000 0.0000 30.0853 0.0000
# 6 0.0000 0.0000 0.0000 0.0000 0.0000 27.8415
#
#
#
# Elastic Compliance Matrix: (Units=1/GPa)
#
#
# Indices 1 2 3 4 5 6 
#
# 1 0.028691 -0.005022 0.002736 0.000000 0.000000 0.000000
# 2 -0.005022 0.008622 -0.004718 0.000000 0.000000 0.000000
# 3 0.002736 -0.004718 0.013622 0.000000 0.000000 0.000000
# 4 0.000000 0.000000 0.000000 0.015174 0.000000 0.000000
# 5 0.000000 0.000000 0.000000 0.000000 0.033239 0.000000
# 6 0.000000 0.000000 0.000000 0.000000 0.000000 0.035918
#
#
# Mechanical properties :
#
#
# Convention : Reuss Voigt Hill
#
# Bulk Modulus (GPa) = 27.08117 47.80371 37.44244
# Shear Modulus (GPa) = 30.94387 38.99459 34.96923
#
# Velocity S-wave (km/s) = 3.58656 4.02618 3.81271
# Velocity P-wave (km/s) = 5.33000 6.44092 5.91161
#
# Compressibility (1/GPa) = 0.03692603
#
# Stress axis : x y z
#
# Youngs Moduli (GPa) = 34.85383 115.98882 73.40911
#
# Poissons Ratio (x) = 0.58255 -0.20083
# Poissons Ratio (y) = 0.17505 0.34633
# Poissons Ratio (z) = -0.09535 0.54722
#
# Static dielectric constant tensor:
#      x y z
#    x 2.003980 0.000000 0.000000 
#    y 0.000000 2.105230 0.000000 
#    z 0.000000 0.000000 1.850110 
# 
# From -- ./inp_files/28811.got.cif
#   From: 2010.05.17/outbox.cif.g08.bks.cpg/sg70_15_cif.got.tgz:28811.got - 2010.06.03 15:57:51.
