data_PCOD9515959
_publ_section_title
;
Structure prediction by ZEFSAII (Michael W. Deem and Ramdas Pophale) SiO2 
 PCOD9515959
Probable space group: F D D D
;
_chemical_formula_sum "Si O2"
_cell_formula_units_Z 168
_cell_length_a 20.308645
_cell_length_b 14.195076
_cell_length_c 25.931180
_cell_angle_alpha 90.000000
_cell_angle_beta 90.000000
_cell_angle_gamma 90.000000
_cell_volume 7475.512121
_symmetry_space_group_name_H-M "F D D D"
_symmetry_group_IT_number 70
_space_group.IT_coordinate_system_code '2'
_symmetry_cell_setting 'orthorhombic'
loop_
_space_group_symop_operation_xyz
x,y,z
1/4-x,1/4-y,z
x,1/4-y,1/4-z
1/4-x,y,1/4-z
-x,-y,-z
3/4+x,3/4+y,-z
-x,3/4+y,3/4+z
3/4+x,-y,3/4+z
x,1/2+y,1/2+z
1/4-x,3/4-y,1/2+z
x,3/4-y,3/4-z
1/4-x,1/2+y,3/4-z
-x,1/2-y,1/2-z
3/4+x,1/4+y,1/2-z
-x,1/4+y,1/4+z
3/4+x,1/2-y,1/4+z
1/2+x,y,1/2+z
3/4-x,1/4-y,1/2+z
1/2+x,1/4-y,3/4-z
3/4-x,y,3/4-z
1/2-x,-y,1/2-z
1/4+x,3/4+y,1/2-z
1/2-x,3/4+y,1/4+z
1/4+x,-y,1/4+z
1/2+x,1/2+y,z
3/4-x,3/4-y,z
1/2+x,3/4-y,1/4-z
3/4-x,1/2+y,1/4-z
1/2-x,1/2-y,-z
1/4+x,1/4+y,-z
1/2-x,1/4+y,3/4+z
1/4+x,1/2-y,3/4+z
loop_
_atom_site_type_symbol
_atom_site_label
_atom_site_fract_x
_atom_site_fract_y
_atom_site_fract_z
Si Si1 0.875000 0.375000 0.875000
Si Si2 0.700861 0.614428 0.409630
Si Si3 0.495173 0.293185 0.835755
Si Si4 0.815182 0.642994 0.982892
Si Si5 0.212231 0.900639 0.751107
Si Si6 0.995470 0.986741 0.332199
O O1 0.924425 0.308192 0.906064
O O2 0.625000 0.625000 0.424166
O O3 0.712921 0.531018 0.369299
O O4 0.745797 0.593601 0.458833
O O5 0.724967 0.710954 0.381868
O O6 0.473102 0.375000 0.875000
O O7 0.541416 0.330919 0.789859
O O8 0.438913 0.233752 0.805284
O O9 0.887029 0.597384 0.983791
O O10 0.764057 0.569403 0.958999
O O11 0.214428 0.846853 0.805544
O O12 0.250000 0.000000 0.750000
#
# Coordination Sequence:
#
# PCOD9515959 Si02
#       6
#     8  32  32  32  32  32
#     4  12  24  44  68  96 134 180 232 282 348 404
#     4  11  25  43  65  98 135 177 229 277 349 421
#     4  10  22  43  72  98 133 186 225 293 345 429
#     4  10  23  44  66  99 139 172 235 286 353 421
#     4  12  26  40  68 100 134 183 225 292 348 414
#     4  11  23  43  65  94 133 175 222 287 343 411
#
# _framework density 22.473375999999998
#
# number of rings (size 3 to 8) (size 9 to 14) (size 15 to 20)
#    0.000    1.143    0.000    5.714    6.667    2.286 
#    3.429    9.524    0.000    0.000    0.000    0.000 
#    0.000    0.000    0.000    0.000    0.000    0.000 
#
# Total GULP energy -234907.625422 kJ/mol
# GULP energy per Si atom -5593.038701 kJ/mol
# Density = 2.242223 g / cm^3
# Si number density = 22.473376 Si / 1000 Ang^3
#
#
#
# Elastic Constant Matrix: (Units=GPa)
#
#
# Indices 1 2 3 4 5 6 
#
# 1 69.9625 6.6554 -8.1975 0.0000 0.0000 0.0000
# 2 6.6554 115.6525 38.5509 0.0000 0.0000 0.0000
# 3 -8.1975 38.5509 87.5804 0.0000 0.0000 0.0000
# 4 0.0000 0.0000 0.0000 57.4285 0.0000 0.0000
# 5 0.0000 0.0000 0.0000 0.0000 22.8917 0.0000
# 6 0.0000 0.0000 0.0000 0.0000 0.0000 24.1211
#
#
#
# Elastic Compliance Matrix: (Units=1/GPa)
#
#
# Indices 1 2 3 4 5 6 
#
# 1 0.014678 -0.001527 0.002046 0.000000 0.000000 0.000000
# 2 -0.001527 0.010292 -0.004673 0.000000 0.000000 0.000000
# 3 0.002046 -0.004673 0.013667 0.000000 0.000000 0.000000
# 4 0.000000 0.000000 0.000000 0.017413 0.000000 0.000000
# 5 0.000000 0.000000 0.000000 0.000000 0.043684 0.000000
# 6 0.000000 0.000000 0.000000 0.000000 0.000000 0.041458
#
#
# Mechanical properties :
#
#
# Convention : Reuss Voigt Hill
#
# Bulk Modulus (GPa) = 32.97167 38.57922 35.77544
# Shear Modulus (GPa) = 31.32647 36.63403 33.98025
#
# Velocity S-wave (km/s) = 3.73760 4.04184 3.89269
# Velocity P-wave (km/s) = 5.77317 6.24387 6.01312
#
# Compressibility (1/GPa) = 0.03032907
#
# Stress axis : x y z
#
# Youngs Moduli (GPa) = 68.12769 97.16089 73.17086
#
# Poissons Ratio (x) = 0.14833 -0.14970
# Poissons Ratio (y) = 0.10401 0.34195
# Poissons Ratio (z) = -0.13938 0.45406
#
# Static dielectric constant tensor:
#      x y z
#    x 1.828980 0.000000 0.000000 
#    y 0.000000 1.880470 0.000000 
#    z 0.000000 0.000000 1.871910 
# 
# From -- ./inp_files/42825.got.cif
#   From: 2010.05.17/outbox.cif.g08.bks.cpg/sg70_22_cif.got.tgz:42825.got - 2010.06.03 15:57:51.
