data_PCOD9515450
_publ_section_title
;
Structure prediction by ZEFSAII (Michael W. Deem and Ramdas Pophale) SiO2 
 PCOD9515450
Probable space group: F D D D
;
_chemical_formula_sum "Si O2"
_cell_formula_units_Z 168
_cell_length_a 26.006725
_cell_length_b 14.921398
_cell_length_c 19.041097
_cell_angle_alpha 90.000000
_cell_angle_beta 90.000000
_cell_angle_gamma 90.000000
_cell_volume 7389.025160
_symmetry_space_group_name_H-M "F D D D"
_symmetry_group_IT_number 70
_space_group.IT_coordinate_system_code '2'
_symmetry_cell_setting 'orthorhombic'
loop_
_space_group_symop_operation_xyz
x,y,z
1/4-x,1/4-y,z
x,1/4-y,1/4-z
1/4-x,y,1/4-z
-x,-y,-z
3/4+x,3/4+y,-z
-x,3/4+y,3/4+z
3/4+x,-y,3/4+z
x,1/2+y,1/2+z
1/4-x,3/4-y,1/2+z
x,3/4-y,3/4-z
1/4-x,1/2+y,3/4-z
-x,1/2-y,1/2-z
3/4+x,1/4+y,1/2-z
-x,1/4+y,1/4+z
3/4+x,1/2-y,1/4+z
1/2+x,y,1/2+z
3/4-x,1/4-y,1/2+z
1/2+x,1/4-y,3/4-z
3/4-x,y,3/4-z
1/2-x,-y,1/2-z
1/4+x,3/4+y,1/2-z
1/2-x,3/4+y,1/4+z
1/4+x,-y,1/4+z
1/2+x,1/2+y,z
3/4-x,3/4-y,z
1/2+x,3/4-y,1/4-z
3/4-x,1/2+y,1/4-z
1/2-x,1/2-y,-z
1/4+x,1/4+y,-z
1/2-x,1/4+y,3/4+z
1/4+x,1/2-y,3/4+z
loop_
_atom_site_type_symbol
_atom_site_label
_atom_site_fract_x
_atom_site_fract_y
_atom_site_fract_z
Si Si1 0.158771 0.329424 0.771303
Si Si2 0.875000 0.375000 0.375000
Si Si3 0.625000 0.265593 0.125000
Si Si4 0.083134 0.048239 0.401092
Si Si5 0.347402 0.239935 0.753419
Si Si6 0.741616 0.675058 0.773675
Si Si7 0.455212 0.375000 0.375000
O O1 0.151430 0.314605 0.688510
O O2 0.110146 0.288174 0.814024
O O3 0.148887 0.436850 0.772840
O O4 0.208919 0.267822 0.791658
O O5 0.898974 0.307885 0.432178
O O6 0.582199 0.199903 0.157192
O O7 0.125000 0.125000 0.415144
O O8 0.077686 0.036699 0.317770
O O9 0.032712 0.090278 0.436231
O O10 0.302406 0.176446 0.782950
O O11 0.735289 0.662784 0.690200
#
# Coordination Sequence:
#
# PCOD9515450 Si02
#       7
#    32   8  16  32  32  32  16
#     4  10  21  39  67 101 135 174 221 270 344 416
#     4  12  30  56  62  86 134 192 248 290 316 386
#     4   9  15  32  59  93 140 176 194 254 336 409
#     4  10  21  44  66  99 140 171 213 286 351 401
#     4  12  26  46  70  92 131 188 235 285 337 401
#     4  10  23  40  69 106 138 173 221 279 353 417
#     4   9  16  32  60  99 142 167 190 262 348 415
#
# _framework density 22.736422000000001
#
# number of rings (size 3 to 8) (size 9 to 14) (size 15 to 20)
#    0.000    1.714    2.857    1.143    2.667    5.333 
#    6.857    1.905    0.000    0.000    0.000    0.000 
#    0.000    0.000    0.000    0.000    0.000    0.000 
#
# Total GULP energy -233976.715797 kJ/mol
# GULP energy per Si atom -5570.874186 kJ/mol
# Density = 2.268467 g / cm^3
# Si number density = 22.736422 Si / 1000 Ang^3
#
#
#
# Elastic Constant Matrix: (Units=GPa)
#
#
# Indices 1 2 3 4 5 6 
#
# 1 45.9375 13.5037 -0.2599 0.0000 0.0000 0.0000
# 2 13.5037 56.3739 17.0716 0.0000 0.0000 0.0000
# 3 -0.2599 17.0716 113.2587 0.0000 0.0000 0.0000
# 4 0.0000 0.0000 0.0000 28.2415 0.0000 0.0000
# 5 0.0000 0.0000 0.0000 0.0000 -1.7508 0.0000
# 6 0.0000 0.0000 0.0000 0.0000 0.0000 98.4925
#
#
#
# Elastic Compliance Matrix: (Units=1/GPa)
#
#
# Indices 1 2 3 4 5 6 
#
# 1 0.023514 -0.005919 0.000946 0.000000 0.000000 0.000000
# 2 -0.005919 0.020077 -0.003040 0.000000 0.000000 0.000000
# 3 0.000946 -0.003040 0.009290 0.000000 0.000000 0.000000
# 4 0.000000 0.000000 0.000000 0.035409 0.000000 0.000000
# 5 0.000000 0.000000 0.000000 0.000000 -0.571162 0.000000
# 6 0.000000 0.000000 0.000000 0.000000 0.000000 0.010153
#
#
# Mechanical properties :
#
#
# Convention : Reuss Voigt Hill
#
# Bulk Modulus (GPa) = 27.13308 30.68900 28.91104
# Shear Modulus (GPa) = -11.25091 37.34695 13.04802
#
# Velocity S-wave (km/s) = -2.22692 4.05730 2.39818
# Velocity P-wave (km/s) = 2.31246 5.95617 4.51793
#
# Compressibility (1/GPa) = 0.03685538
#
# Stress axis : x y z
#
# Youngs Moduli (GPa) = 42.52787 49.80804 107.64600
#
# Poissons Ratio (x) = 0.29481 -0.10185
# Poissons Ratio (y) = 0.25172 0.32722
# Poissons Ratio (z) = -0.04024 0.15141
#
# Static dielectric constant tensor:
#      x y z
#    x 1.884100 0.000000 0.000000 
#    y 0.000000 2.026180 0.000000 
#    z 0.000000 0.000000 1.806450 
# 
# From -- ./inp_files/46804.got.cif
#   From: 2010.05.17/outbox.cif.g08.bks.cpg/sg70_24_cif.got.tgz:46804.got - 2010.06.03 15:57:51.
