data_PCOD9515165
_publ_section_title
;
Structure prediction by ZEFSAII (Michael W. Deem and Ramdas Pophale) SiO2 
 PCOD9515165
Probable space group: F D D D
;
_chemical_formula_sum "Si O2"
_cell_formula_units_Z 160
_cell_length_a 33.358714
_cell_length_b 7.701452
_cell_length_c 28.931599
_cell_angle_alpha 90.000000
_cell_angle_beta 90.000000
_cell_angle_gamma 90.000000
_cell_volume 7432.832567
_symmetry_space_group_name_H-M "F D D D"
_symmetry_group_IT_number 70
_space_group.IT_coordinate_system_code '2'
_symmetry_cell_setting 'orthorhombic'
loop_
_space_group_symop_operation_xyz
x,y,z
1/4-x,1/4-y,z
x,1/4-y,1/4-z
1/4-x,y,1/4-z
-x,-y,-z
3/4+x,3/4+y,-z
-x,3/4+y,3/4+z
3/4+x,-y,3/4+z
x,1/2+y,1/2+z
1/4-x,3/4-y,1/2+z
x,3/4-y,3/4-z
1/4-x,1/2+y,3/4-z
-x,1/2-y,1/2-z
3/4+x,1/4+y,1/2-z
-x,1/4+y,1/4+z
3/4+x,1/2-y,1/4+z
1/2+x,y,1/2+z
3/4-x,1/4-y,1/2+z
1/2+x,1/4-y,3/4-z
3/4-x,y,3/4-z
1/2-x,-y,1/2-z
1/4+x,3/4+y,1/2-z
1/2-x,3/4+y,1/4+z
1/4+x,-y,1/4+z
1/2+x,1/2+y,z
3/4-x,3/4-y,z
1/2+x,3/4-y,1/4-z
3/4-x,1/2+y,1/4-z
1/2-x,1/2-y,-z
1/4+x,1/4+y,-z
1/2-x,1/4+y,3/4+z
1/4+x,1/2-y,3/4+z
loop_
_atom_site_type_symbol
_atom_site_label
_atom_site_fract_x
_atom_site_fract_y
_atom_site_fract_z
Si Si1 0.553522 0.125000 0.625000
Si Si2 0.000849 0.337531 0.673011
Si Si3 0.375000 0.375000 0.947566
Si Si4 0.993865 0.986137 0.724157
Si Si5 0.932870 0.544678 0.506796
Si Si6 0.417489 0.464463 0.159086
O O1 0.526156 0.294736 0.613536
O O2 0.585584 0.106828 0.666823
O O3 0.006902 0.433339 0.723386
O O4 0.955762 0.343481 0.653675
O O5 0.005513 0.136349 0.687805
O O6 0.359500 0.227869 0.981794
O O7 0.030713 0.851036 0.723528
O O8 0.952038 0.878719 0.719344
O O9 0.925053 0.699210 0.541528
O O10 0.419769 0.625000 0.125000
O O11 0.375000 0.375000 0.155054
#
# Coordination Sequence:
#
# PCOD9515165 Si02
#       6
#    16  32  16  32  32  32
#     4  11  22  42  66 102 138 186 240 286 356 415
#     4  10  20  41  68  98 136 183 234 292 349 429
#     4  11  24  38  68  96 140 188 228 290 342 423
#     4   9  20  39  70  99 129 188 240 278 356 426
#     4  10  22  41  65  99 137 183 237 286 352 431
#     4  11  26  41  63  97 135 173 231 299 355 414
#
# _framework density 21.526114
#
# number of rings (size 3 to 8) (size 9 to 14) (size 15 to 20)
#    0.000    1.800    3.000    0.000    4.200    1.600 
#    0.000    3.000    0.000    2.400    0.000    0.000 
#    0.000    0.000    0.000    0.000    0.000    0.000 
#
# Total GULP energy -222672.791001 kJ/mol
# GULP energy per Si atom -5566.819775 kJ/mol
# Density = 2.147712 g / cm^3
# Si number density = 21.526114 Si / 1000 Ang^3
#
#
#
# Elastic Constant Matrix: (Units=GPa)
#
#
# Indices 1 2 3 4 5 6 
#
# 1 103.4473 32.7830 23.8489 -0.0001 0.0000 0.0002
# 2 32.7830 98.6086 20.2572 -0.0001 0.0003 0.0002
# 3 23.8489 20.2572 51.8106 0.0000 -0.0001 -0.0002
# 4 -0.0001 -0.0001 0.0000 33.8876 0.0001 0.0001
# 5 0.0000 0.0003 -0.0001 0.0001 36.2322 -0.0001
# 6 0.0002 0.0002 -0.0002 0.0001 -0.0001 57.7539
#
#
#
# Elastic Compliance Matrix: (Units=1/GPa)
#
#
# Indices 1 2 3 4 5 6 
#
# 1 0.011574 -0.002994 -0.004157 0.000000 0.000000 0.000000
# 2 -0.002994 0.011801 -0.003236 0.000000 0.000000 0.000000
# 3 -0.004157 -0.003236 0.022480 0.000000 0.000000 0.000000
# 4 0.000000 0.000000 0.000000 0.029509 0.000000 0.000000
# 5 0.000000 0.000000 0.000000 0.000000 0.027600 0.000000
# 6 0.000000 0.000000 0.000000 0.000000 0.000000 0.017315
#
#
# Mechanical properties :
#
#
# Convention : Reuss Voigt Hill
#
# Bulk Modulus (GPa) = 39.87054 45.29385 42.58220
# Shear Modulus (GPa) = 33.46431 37.37323 35.41877
#
# Velocity S-wave (km/s) = 3.94711 4.17127 4.06074
# Velocity P-wave (km/s) = 6.27176 6.65480 6.46612
#
# Compressibility (1/GPa) = 0.02508117
#
# Stress axis : x y z
#
# Youngs Moduli (GPa) = 86.40148 84.73719 44.48436
#
# Poissons Ratio (x) = 0.25369 0.18492
# Poissons Ratio (y) = 0.25867 0.14395
# Poissons Ratio (z) = 0.35917 0.27421
#
# Static dielectric constant tensor:
#      x y z
#    x 1.809080 0.000000 0.000000 
#    y 0.000000 1.730000 0.000000 
#    z 0.000000 0.000000 1.854470 
# 
# From -- ./inp_files/68857.got.cif
#   From: 2010.05.17/outbox.cif.g08.bks.cpg/sg70_35_cif.got.tgz:68857.got - 2010.06.03 15:57:51.
