data_PCOD9515507
_publ_section_title
;
Structure prediction by ZEFSAII (Michael W. Deem and Ramdas Pophale) SiO2 
 PCOD9515507
Probable space group: F D D D
;
_chemical_formula_sum "Si O2"
_cell_formula_units_Z 96
_cell_length_a 8.927512
_cell_length_b 20.746525
_cell_length_c 22.866349
_cell_angle_alpha 90.000000
_cell_angle_beta 90.000000
_cell_angle_gamma 90.000000
_cell_volume 4235.187421
_symmetry_space_group_name_H-M "F D D D"
_symmetry_group_IT_number 70
_space_group.IT_coordinate_system_code '2'
_symmetry_cell_setting 'orthorhombic'
loop_
_space_group_symop_operation_xyz
x,y,z
1/4-x,1/4-y,z
x,1/4-y,1/4-z
1/4-x,y,1/4-z
-x,-y,-z
3/4+x,3/4+y,-z
-x,3/4+y,3/4+z
3/4+x,-y,3/4+z
x,1/2+y,1/2+z
1/4-x,3/4-y,1/2+z
x,3/4-y,3/4-z
1/4-x,1/2+y,3/4-z
-x,1/2-y,1/2-z
3/4+x,1/4+y,1/2-z
-x,1/4+y,1/4+z
3/4+x,1/2-y,1/4+z
1/2+x,y,1/2+z
3/4-x,1/4-y,1/2+z
1/2+x,1/4-y,3/4-z
3/4-x,y,3/4-z
1/2-x,-y,1/2-z
1/4+x,3/4+y,1/2-z
1/2-x,3/4+y,1/4+z
1/4+x,-y,1/4+z
1/2+x,1/2+y,z
3/4-x,3/4-y,z
1/2+x,3/4-y,1/4-z
3/4-x,1/2+y,1/4-z
1/2-x,1/2-y,-z
1/4+x,1/4+y,-z
1/2-x,1/4+y,3/4+z
1/4+x,1/2-y,3/4+z
loop_
_atom_site_type_symbol
_atom_site_label
_atom_site_fract_x
_atom_site_fract_y
_atom_site_fract_z
Si Si1 0.526384 0.846654 0.170699
Si Si2 0.703091 0.787395 0.863958
Si Si3 0.802560 0.133267 0.214839
O O1 0.625000 0.888139 0.125000
O O2 0.375000 0.875000 0.195233
O O3 0.468350 0.787683 0.130041
O O4 0.629738 0.835786 0.226612
O O5 0.636631 0.815897 0.803513
O O6 0.596619 0.818819 0.912615
O O7 0.875000 0.808907 0.875000
O O8 0.625000 0.125000 0.219162
#
# Coordination Sequence:
#
# PCOD9515507 Si02
#       3
#    32  32  32
#     4  11  24  42  62  93 132 173 217 266 320 382
#     4  10  21  40  66  95 127 171 219 266 320 381
#     4  11  22  40  66  98 131 170 216 268 324 385
#
# _framework density 22.667237
#
# number of rings (size 3 to 8) (size 9 to 14) (size 15 to 20)
#    0.000    1.333    0.000    8.000    0.000    5.333 
#    0.000   10.000    0.000    0.000    0.000    0.000 
#    0.000    0.000    0.000    0.000    0.000    0.000 
#
# Total GULP energy -133724.344812 kJ/mol
# GULP energy per Si atom -5571.847701 kJ/mol
# Density = 2.261565 g / cm^3
# Si number density = 22.667237 Si / 1000 Ang^3
#
#
#
# Elastic Constant Matrix: (Units=GPa)
#
#
# Indices 1 2 3 4 5 6 
#
# 1 169.2117 41.2309 9.4731 0.0000 0.0000 0.0000
# 2 41.2309 38.9980 22.2948 0.0000 0.0000 0.0000
# 3 9.4731 22.2948 92.1610 0.0000 0.0000 0.0000
# 4 0.0000 0.0000 0.0000 -1.9980 0.0000 0.0000
# 5 0.0000 0.0000 0.0000 0.0000 46.5178 0.0000
# 6 0.0000 0.0000 0.0000 0.0000 0.0000 30.0239
#
#
#
# Elastic Compliance Matrix: (Units=1/GPa)
#
#
# Indices 1 2 3 4 5 6 
#
# 1 0.008122 -0.009412 0.001442 0.000000 0.000000 0.000000
# 2 -0.009412 0.040664 -0.008870 0.000000 0.000000 0.000000
# 3 0.001442 -0.008870 0.012848 0.000000 0.000000 0.000000
# 4 0.000000 0.000000 0.000000 -0.500510 0.000000 0.000000
# 5 0.000000 0.000000 0.000000 0.000000 0.021497 0.000000
# 6 0.000000 0.000000 0.000000 0.000000 0.000000 0.033307
#
#
# Mechanical properties :
#
#
# Convention : Reuss Voigt Hill
#
# Bulk Modulus (GPa) = 35.77152 49.59649 42.68400
# Shear Modulus (GPa) = -14.65952 30.06686 7.70367
#
# Velocity S-wave (km/s) = -2.54584 3.64599 1.84553
# Velocity P-wave (km/s) = 2.67837 6.29699 4.83869
#
# Compressibility (1/GPa) = 0.02795520
#
# Stress axis : x y z
#
# Youngs Moduli (GPa) = 123.11715 24.59198 77.83298
#
# Poissons Ratio (x) = 0.23145 -0.11223
# Poissons Ratio (y) = 1.15875 0.69035
# Poissons Ratio (z) = -0.17753 0.21812
#
# Static dielectric constant tensor:
#      x y z
#    x 1.944780 0.000000 0.000000 
#    y 0.000000 1.981320 0.000000 
#    z 0.000000 0.000000 1.285850 
# 
# From -- ./inp_files/8084.got.cif
#   From: 2010.05.17/outbox.cif.g08.bks.cpg/sg70_5_cif.got.tgz:8084.got - 2010.06.03 15:57:51.
