data_PCOD9515362
_publ_section_title
;
Structure prediction by ZEFSAII (Michael W. Deem and Ramdas Pophale) SiO2 
 PCOD9515362
Probable space group: F D D D
;
_chemical_formula_sum "Si O2"
_cell_formula_units_Z 160
_cell_length_a 18.500585
_cell_length_b 28.188578
_cell_length_c 17.534788
_cell_angle_alpha 90.000000
_cell_angle_beta 90.000000
_cell_angle_gamma 90.000000
_cell_volume 9144.482830
_symmetry_space_group_name_H-M "F D D D"
_symmetry_group_IT_number 70
_space_group.IT_coordinate_system_code '2'
_symmetry_cell_setting 'orthorhombic'
loop_
_space_group_symop_operation_xyz
x,y,z
1/4-x,1/4-y,z
x,1/4-y,1/4-z
1/4-x,y,1/4-z
-x,-y,-z
3/4+x,3/4+y,-z
-x,3/4+y,3/4+z
3/4+x,-y,3/4+z
x,1/2+y,1/2+z
1/4-x,3/4-y,1/2+z
x,3/4-y,3/4-z
1/4-x,1/2+y,3/4-z
-x,1/2-y,1/2-z
3/4+x,1/4+y,1/2-z
-x,1/4+y,1/4+z
3/4+x,1/2-y,1/4+z
1/2+x,y,1/2+z
3/4-x,1/4-y,1/2+z
1/2+x,1/4-y,3/4-z
3/4-x,y,3/4-z
1/2-x,-y,1/2-z
1/4+x,3/4+y,1/2-z
1/2-x,3/4+y,1/4+z
1/4+x,-y,1/4+z
1/2+x,1/2+y,z
3/4-x,3/4-y,z
1/2+x,3/4-y,1/4-z
3/4-x,1/2+y,1/4-z
1/2-x,1/2-y,-z
1/4+x,1/4+y,-z
1/2-x,1/4+y,3/4+z
1/4+x,1/2-y,3/4+z
loop_
_atom_site_type_symbol
_atom_site_label
_atom_site_fract_x
_atom_site_fract_y
_atom_site_fract_z
Si Si1 0.373362 0.615868 0.750615
Si Si2 0.351232 0.700683 0.109792
Si Si3 0.060322 0.573661 0.081805
Si Si4 0.751500 0.627401 0.876433
Si Si5 0.362163 0.940375 0.659924
O O1 0.386069 0.572138 0.693022
O O2 0.365708 0.663072 0.699597
O O3 0.443994 0.622796 0.804149
O O4 0.303180 0.610121 0.803155
O O5 0.265949 0.700730 0.091245
O O6 0.375937 0.754140 0.098900
O O7 0.052171 0.625000 0.125000
O O8 0.125000 0.547483 0.125000
O O9 0.087096 0.574684 0.995135
O O10 0.707339 0.578264 0.887768
O O11 0.685881 0.663711 0.861847
#
# Coordination Sequence:
#
# PCOD9515362 Si02
#       5
#    32  32  32  32  32
#     4  10  21  38  58  79 117 152 192 240 294 354
#     4  11  21  37  56  86 115 151 197 242 298 352
#     4  11  19  32  57  86 121 148 176 236 310 367
#     4  10  21  38  56  81 114 154 189 238 294 353
#     4  11  22  36  57  85 117 150 198 239 297 356
#
# _framework density 17.496888999999999
#
# number of rings (size 3 to 8) (size 9 to 14) (size 15 to 20)
#    0.000    1.400    4.000    4.200    0.000    4.000 
#    0.000    0.000    0.000    9.600    0.000    0.000 
#    0.000    0.000    0.000    0.000    0.000    0.000 
#
# Total GULP energy -223020.204390 kJ/mol
# GULP energy per Si atom -5575.505110 kJ/mol
# Density = 1.745707 g / cm^3
# Si number density = 17.496889 Si / 1000 Ang^3
#
#
#
# Elastic Constant Matrix: (Units=GPa)
#
#
# Indices 1 2 3 4 5 6 
#
# 1 115.2522 25.9410 54.2207 0.0000 0.0000 0.0000
# 2 25.9410 113.4546 36.1862 0.0000 0.0000 0.0000
# 3 54.2207 36.1862 96.9874 0.0000 0.0000 0.0000
# 4 0.0000 0.0000 0.0000 7.6114 0.0000 0.0000
# 5 0.0000 0.0000 0.0000 0.0000 33.2823 0.0000
# 6 0.0000 0.0000 0.0000 0.0000 0.0000 5.3124
#
#
#
# Elastic Compliance Matrix: (Units=1/GPa)
#
#
# Indices 1 2 3 4 5 6 
#
# 1 0.011818 -0.000675 -0.006355 0.000000 0.000000 0.000000
# 2 -0.000675 0.010043 -0.003370 0.000000 0.000000 0.000000
# 3 -0.006355 -0.003370 0.015121 0.000000 0.000000 0.000000
# 4 0.000000 0.000000 0.000000 0.131382 0.000000 0.000000
# 5 0.000000 0.000000 0.000000 0.000000 0.030046 0.000000
# 6 0.000000 0.000000 0.000000 0.000000 0.000000 0.188238
#
#
# Mechanical properties :
#
#
# Convention : Reuss Voigt Hill
#
# Bulk Modulus (GPa) = 61.79619 62.04333 61.91976
# Shear Modulus (GPa) = 12.11116 23.19765 17.65440
#
# Velocity S-wave (km/s) = 2.63380 3.64513 3.17993
# Velocity P-wave (km/s) = 6.68164 7.29743 6.99631
#
# Compressibility (1/GPa) = 0.01618223
#
# Stress axis : x y z
#
# Youngs Moduli (GPa) = 84.61386 99.56948 66.13471
#
# Poissons Ratio (x) = 0.06724 0.42029
# Poissons Ratio (y) = 0.05714 0.22285
# Poissons Ratio (z) = 0.53773 0.33551
#
# Static dielectric constant tensor:
#      x y z
#    x 1.598700 0.000000 0.000000 
#    y 0.000000 1.625630 0.000000 
#    z 0.000000 0.000000 1.626530 
# 
# From -- ./inp_files/35390.got.cif
#   From: 2010.05.17/outbox.cif.g08.bks.cpg/sg70_18_cif.got.tgz:35390.got - 2010.06.03 15:57:51.
