data_PCOD9515767
_publ_section_title
;
Structure prediction by ZEFSAII (Michael W. Deem and Ramdas Pophale) SiO2 
 PCOD9515767
Probable space group: F D D D
;
_chemical_formula_sum "Si O2"
_cell_formula_units_Z 152
_cell_length_a 19.563170
_cell_length_b 13.826388
_cell_length_c 25.057937
_cell_angle_alpha 90.000000
_cell_angle_beta 90.000000
_cell_angle_gamma 90.000000
_cell_volume 6777.870735
_symmetry_space_group_name_H-M "F D D D"
_symmetry_group_IT_number 70
_space_group.IT_coordinate_system_code '2'
_symmetry_cell_setting 'orthorhombic'
loop_
_space_group_symop_operation_xyz
x,y,z
1/4-x,1/4-y,z
x,1/4-y,1/4-z
1/4-x,y,1/4-z
-x,-y,-z
3/4+x,3/4+y,-z
-x,3/4+y,3/4+z
3/4+x,-y,3/4+z
x,1/2+y,1/2+z
1/4-x,3/4-y,1/2+z
x,3/4-y,3/4-z
1/4-x,1/2+y,3/4-z
-x,1/2-y,1/2-z
3/4+x,1/4+y,1/2-z
-x,1/4+y,1/4+z
3/4+x,1/2-y,1/4+z
1/2+x,y,1/2+z
3/4-x,1/4-y,1/2+z
1/2+x,1/4-y,3/4-z
3/4-x,y,3/4-z
1/2-x,-y,1/2-z
1/4+x,3/4+y,1/2-z
1/2-x,3/4+y,1/4+z
1/4+x,-y,1/4+z
1/2+x,1/2+y,z
3/4-x,3/4-y,z
1/2+x,3/4-y,1/4-z
3/4-x,1/2+y,1/4-z
1/2-x,1/2-y,-z
1/4+x,1/4+y,-z
1/2-x,1/4+y,3/4+z
1/4+x,1/2-y,3/4+z
loop_
_atom_site_type_symbol
_atom_site_label
_atom_site_fract_x
_atom_site_fract_y
_atom_site_fract_z
Si Si1 0.582768 0.375000 0.875000
Si Si2 0.802378 0.901681 0.751004
Si Si3 0.162254 0.373190 0.987401
Si Si4 0.125000 0.625000 0.125000
Si Si5 0.700434 0.155272 0.375427
Si Si6 0.953405 0.223726 0.801831
O O1 0.624578 0.373240 0.819823
O O2 0.544349 0.271935 0.872821
O O3 0.875000 0.875000 0.775162
O O4 0.739410 0.840080 0.774264
O O5 0.798791 0.875944 0.687854
O O6 0.812483 0.017802 0.755497
O O7 0.115361 0.424066 0.029289
O O8 0.075064 0.688127 0.162814
O O9 0.625000 0.125000 0.354686
O O10 0.755329 0.099705 0.340057
O O11 0.000000 0.250000 0.750000
#
# Coordination Sequence:
#
# PCOD9515767 Si02
#       6
#    16  32  32   8  32  32
#     4  10  22  39  69 102 144 184 252 310 368 469
#     4   9  20  39  66  94 133 187 230 301 367 439
#     4  10  22  40  64 100 138 181 243 296 373 450
#     4  12  32  54  72 118 154 208 278 320 404 478
#     4  10  22  42  67 104 146 191 253 308 380 466
#     4  12  28  45  78 106 157 204 253 333 391 477
#
# _framework density 22.425923000000001
#
# number of rings (size 3 to 8) (size 9 to 14) (size 15 to 20)
#    0.000    1.684    0.000    2.526    7.368    6.737 
#    0.000    0.526    0.000    0.000    0.000    0.000 
#    0.000    0.000    0.000    0.000    0.000    0.000 
#
# Total GULP energy -211674.321712 kJ/mol
# GULP energy per Si atom -5570.376887 kJ/mol
# Density = 2.237488 g / cm^3
# Si number density = 22.425923 Si / 1000 Ang^3
#
#
#
# Elastic Constant Matrix: (Units=GPa)
#
#
# Indices 1 2 3 4 5 6 
#
# 1 128.6247 42.6906 46.9224 0.0000 0.0000 0.0000
# 2 42.6906 100.9384 49.3106 0.0000 0.0000 0.0000
# 3 46.9224 49.3106 94.4719 0.0000 0.0000 0.0000
# 4 0.0000 0.0000 0.0000 25.1173 0.0000 0.0000
# 5 0.0000 0.0000 0.0000 0.0000 27.1670 0.0000
# 6 0.0000 0.0000 0.0000 0.0000 0.0000 17.2663
#
#
#
# Elastic Compliance Matrix: (Units=1/GPa)
#
#
# Indices 1 2 3 4 5 6 
#
# 1 0.009909 -0.002398 -0.003670 0.000000 0.000000 0.000000
# 2 -0.002398 0.013878 -0.006053 0.000000 0.000000 0.000000
# 3 -0.003670 -0.006053 0.015567 0.000000 0.000000 0.000000
# 4 0.000000 0.000000 0.000000 0.039813 0.000000 0.000000
# 5 0.000000 0.000000 0.000000 0.000000 0.036809 0.000000
# 6 0.000000 0.000000 0.000000 0.000000 0.000000 0.057916
#
#
# Mechanical properties :
#
#
# Convention : Reuss Voigt Hill
#
# Bulk Modulus (GPa) = 66.16842 66.87580 66.52211
# Shear Modulus (GPa) = 24.60957 26.25091 25.43024
#
# Velocity S-wave (km/s) = 3.31625 3.42506 3.37109
# Velocity P-wave (km/s) = 6.65077 6.74736 6.69924
#
# Compressibility (1/GPa) = 0.01511295
#
# Stress axis : x y z
#
# Youngs Moduli (GPa) = 100.91498 72.05550 64.23724
#
# Poissons Ratio (x) = 0.17280 0.23575
# Poissons Ratio (y) = 0.24201 0.38881
# Poissons Ratio (z) = 0.37036 0.43613
#
# Static dielectric constant tensor:
#      x y z
#    x -0.462950 0.000000 0.000000 
#    y 0.000000 1.653150 0.000000 
#    z 0.000000 0.000000 1.859700 
# 
# From -- ./inp_files/60261.got.cif
#   From: 2010.05.17/outbox.cif.g08.bks.cpg/sg70_31_cif.got.tgz:60261.got - 2010.06.03 15:57:51.
