data_PCOD9515375
_publ_section_title
;
Structure prediction by ZEFSAII (Michael W. Deem and Ramdas Pophale) SiO2 
 PCOD9515375
Probable space group: F D D D
;
_chemical_formula_sum "Si O2"
_cell_formula_units_Z 240
_cell_length_a 14.175012
_cell_length_b 21.439665
_cell_length_c 31.659065
_cell_angle_alpha 90.000000
_cell_angle_beta 90.000000
_cell_angle_gamma 90.000000
_cell_volume 9621.427570
_symmetry_space_group_name_H-M "F D D D"
_symmetry_group_IT_number 70
_space_group.IT_coordinate_system_code '2'
_symmetry_cell_setting 'orthorhombic'
loop_
_space_group_symop_operation_xyz
x,y,z
1/4-x,1/4-y,z
x,1/4-y,1/4-z
1/4-x,y,1/4-z
-x,-y,-z
3/4+x,3/4+y,-z
-x,3/4+y,3/4+z
3/4+x,-y,3/4+z
x,1/2+y,1/2+z
1/4-x,3/4-y,1/2+z
x,3/4-y,3/4-z
1/4-x,1/2+y,3/4-z
-x,1/2-y,1/2-z
3/4+x,1/4+y,1/2-z
-x,1/4+y,1/4+z
3/4+x,1/2-y,1/4+z
1/2+x,y,1/2+z
3/4-x,1/4-y,1/2+z
1/2+x,1/4-y,3/4-z
3/4-x,y,3/4-z
1/2-x,-y,1/2-z
1/4+x,3/4+y,1/2-z
1/2-x,3/4+y,1/4+z
1/4+x,-y,1/4+z
1/2+x,1/2+y,z
3/4-x,3/4-y,z
1/2+x,3/4-y,1/4-z
3/4-x,1/2+y,1/4-z
1/2-x,1/2-y,-z
1/4+x,1/4+y,-z
1/2-x,1/4+y,3/4+z
1/4+x,1/2-y,3/4+z
loop_
_atom_site_type_symbol
_atom_site_label
_atom_site_fract_x
_atom_site_fract_y
_atom_site_fract_z
Si Si1 0.471506 0.931392 0.535763
Si Si2 0.002045 0.784112 0.893454
Si Si3 0.625000 0.958220 0.125000
Si Si4 0.242966 0.707498 0.802046
Si Si5 0.062544 0.054420 0.057527
Si Si6 0.768524 0.356464 0.655598
Si Si7 0.623933 0.470816 0.778393
Si Si8 0.534558 0.149107 0.255012
O O1 0.370984 0.962871 0.549176
O O2 0.498086 0.867777 0.559072
O O3 0.460441 0.912491 0.486388
O O4 0.550501 0.982685 0.542675
O O5 0.914604 0.810297 0.920935
O O6 0.005954 0.814492 0.847459
O O7 0.987638 0.709461 0.886553
O O8 0.089514 0.786071 0.924163
O O9 0.693357 0.988524 0.089102
O O10 0.697986 0.913060 0.148690
O O11 0.292559 0.723029 0.757441
O O12 0.875000 0.375000 0.642190
O O13 0.771683 0.351291 0.706507
O O14 0.685765 0.533642 0.774218
O O15 0.688696 0.411382 0.768416
O O16 0.625000 0.125000 0.229423
#
# Coordination Sequence:
#
# PCOD9515375 Si02
#       8
#    32  32  16  32  32  32  32  32
#     4  10  22  39  59  88 129 167 209 256 338 396
#     4  11  20  36  62  90 124 163 215 268 321 394
#     4  12  24  36  58  92 129 164 207 268 342 384
#     4  11  23  38  58  90 125 167 207 269 321 398
#     4  10  22  38  60  90 124 168 207 265 328 402
#     4  11  21  35  57  90 124 157 206 271 330 387
#     4  11  21  38  61  91 127 165 215 269 330 397
#     4  10  21  38  60  91 122 166 213 268 331 393
#
# _framework density 24.944323000000001
#
# number of rings (size 3 to 8) (size 9 to 14) (size 15 to 20)
#    0.000    1.333    5.333    2.400    3.733    0.000 
#    0.000    0.667    0.000    0.000    3.467    0.467 
#    0.000    0.000    0.000    0.000    0.000    0.000 
#
# Total GULP energy -335531.927162 kJ/mol
# GULP energy per Si atom -5592.198786 kJ/mol
# Density = 2.488755 g / cm^3
# Si number density = 24.944323 Si / 1000 Ang^3
#
#
#
# Elastic Constant Matrix: (Units=GPa)
#
#
# Indices 1 2 3 4 5 6 
#
# 1 85.2766 4.7625 34.3718 0.0000 0.0000 0.0000
# 2 4.7625 47.8627 7.1782 0.0000 0.0000 0.0000
# 3 34.3718 7.1782 137.5180 0.0000 0.0000 0.0000
# 4 0.0000 0.0000 0.0000 34.2899 0.0000 0.0000
# 5 0.0000 0.0000 0.0000 0.0000 45.3369 0.0000
# 6 0.0000 0.0000 0.0000 0.0000 0.0000 33.4223
#
#
#
# Elastic Compliance Matrix: (Units=1/GPa)
#
#
# Indices 1 2 3 4 5 6 
#
# 1 0.013072 -0.000817 -0.003225 0.000000 0.000000 0.000000
# 2 -0.000817 0.021109 -0.000898 0.000000 0.000000 0.000000
# 3 -0.003225 -0.000898 0.008125 0.000000 0.000000 0.000000
# 4 0.000000 0.000000 0.000000 0.029163 0.000000 0.000000
# 5 0.000000 0.000000 0.000000 0.000000 0.022057 0.000000
# 6 0.000000 0.000000 0.000000 0.000000 0.000000 0.029920
#
#
# Mechanical properties :
#
#
# Convention : Reuss Voigt Hill
#
# Bulk Modulus (GPa) = 30.83858 40.36468 35.60163
# Shear Modulus (GPa) = 34.69010 37.56615 36.12813
#
# Velocity S-wave (km/s) = 3.73326 3.88493 3.80985
# Velocity P-wave (km/s) = 5.56532 6.02832 5.80144
#
# Compressibility (1/GPa) = 0.03242691
#
# Stress axis : x y z
#
# Youngs Moduli (GPa) = 76.50007 47.37312 123.08305
#
# Poissons Ratio (x) = 0.03871 0.39689
# Poissons Ratio (y) = 0.06251 0.11048
# Poissons Ratio (z) = 0.24668 0.04252
#
# Static dielectric constant tensor:
#      x y z
#    x 1.998650 0.000000 0.000000 
#    y 0.000000 2.046600 0.000000 
#    z 0.000000 0.000000 2.045290 
# 
# From -- ./inp_files/66134.got.cif
#   From: 2010.05.17/outbox.cif.g08.bks.cpg/sg70_34_cif.got.tgz:66134.got - 2010.06.03 15:57:51.
