data_PCOD9515658
_publ_section_title
;
Structure prediction by ZEFSAII (Michael W. Deem and Ramdas Pophale) SiO2 
 PCOD9515658
Probable space group: F D D D
;
_chemical_formula_sum "Si O2"
_cell_formula_units_Z 160
_cell_length_a 14.919580
_cell_length_b 13.406671
_cell_length_c 31.635733
_cell_angle_alpha 90.000000
_cell_angle_beta 90.000000
_cell_angle_gamma 90.000000
_cell_volume 6327.839439
_symmetry_space_group_name_H-M "F D D D"
_symmetry_group_IT_number 70
_space_group.IT_coordinate_system_code '2'
_symmetry_cell_setting 'orthorhombic'
loop_
_space_group_symop_operation_xyz
x,y,z
1/4-x,1/4-y,z
x,1/4-y,1/4-z
1/4-x,y,1/4-z
-x,-y,-z
3/4+x,3/4+y,-z
-x,3/4+y,3/4+z
3/4+x,-y,3/4+z
x,1/2+y,1/2+z
1/4-x,3/4-y,1/2+z
x,3/4-y,3/4-z
1/4-x,1/2+y,3/4-z
-x,1/2-y,1/2-z
3/4+x,1/4+y,1/2-z
-x,1/4+y,1/4+z
3/4+x,1/2-y,1/4+z
1/2+x,y,1/2+z
3/4-x,1/4-y,1/2+z
1/2+x,1/4-y,3/4-z
3/4-x,y,3/4-z
1/2-x,-y,1/2-z
1/4+x,3/4+y,1/2-z
1/2-x,3/4+y,1/4+z
1/4+x,-y,1/4+z
1/2+x,1/2+y,z
3/4-x,3/4-y,z
1/2+x,3/4-y,1/4-z
3/4-x,1/2+y,1/4-z
1/2-x,1/2-y,-z
1/4+x,1/4+y,-z
1/2-x,1/4+y,3/4+z
1/4+x,1/2-y,3/4+z
loop_
_atom_site_type_symbol
_atom_site_label
_atom_site_fract_x
_atom_site_fract_y
_atom_site_fract_z
Si Si1 0.081104 0.879481 0.019783
Si Si2 0.861708 0.009529 0.126564
Si Si3 0.018199 0.743668 0.200042
Si Si4 0.465064 0.719505 0.543819
Si Si5 0.937025 0.272861 0.342095
O O1 0.147729 0.817661 0.051451
O O2 0.006935 0.796230 0.010609
O O3 0.050010 0.973105 0.046907
O O4 0.130354 0.916449 0.977908
O O5 0.835179 0.125000 0.125000
O O6 0.812131 0.967920 0.085074
O O7 0.967142 0.017319 0.116443
O O8 0.813849 0.972161 0.169400
O O9 0.028031 0.624221 0.194475
O O10 0.000000 0.750000 0.250000
O O11 0.875000 0.214106 0.375000
O O12 0.875000 0.375000 0.335312
#
# Coordination Sequence:
#
# PCOD9515658 Si02
#       5
#    32  32  32  32  32
#     4  11  25  44  71 108 148 203 251 306 386 454
#     4  10  21  44  70 103 145 190 252 314 377 445
#     4   9  21  44  75 106 145 191 248 315 380 452
#     4  10  24  43  73 108 151 193 252 314 379 448
#     4  11  25  45  69  99 148 197 253 310 382 445
#
# _framework density 25.285091999999999
#
# number of rings (size 3 to 8) (size 9 to 14) (size 15 to 20)
#    0.000    1.800    2.000    0.600    5.600    3.200 
#    0.000    7.000    0.000    0.000    0.000    0.000 
#    0.000    0.000    0.000    0.000    0.000    0.000 
#
# Total GULP energy -222776.407814 kJ/mol
# GULP energy per Si atom -5569.410195 kJ/mol
# Density = 2.522754 g / cm^3
# Si number density = 25.285092 Si / 1000 Ang^3
#
#
#
# Elastic Constant Matrix: (Units=GPa)
#
#
# Indices 1 2 3 4 5 6 
#
# 1 118.7525 24.0965 47.7968 0.0000 0.0000 0.0000
# 2 24.0965 85.9752 12.4428 0.0000 0.0000 0.0000
# 3 47.7968 12.4428 112.0201 0.0000 0.0000 0.0000
# 4 0.0000 0.0000 0.0000 29.4704 0.0000 0.0000
# 5 0.0000 0.0000 0.0000 0.0000 42.0628 0.0000
# 6 0.0000 0.0000 0.0000 0.0000 0.0000 31.6241
#
#
#
# Elastic Compliance Matrix: (Units=1/GPa)
#
#
# Indices 1 2 3 4 5 6 
#
# 1 0.010617 -0.002358 -0.004268 0.000000 0.000000 0.000000
# 2 -0.002358 0.012345 -0.000365 0.000000 0.000000 0.000000
# 3 -0.004268 -0.000365 0.010789 0.000000 0.000000 0.000000
# 4 0.000000 0.000000 0.000000 0.033932 0.000000 0.000000
# 5 0.000000 0.000000 0.000000 0.000000 0.023774 0.000000
# 6 0.000000 0.000000 0.000000 0.000000 0.000000 0.031621
#
#
# Mechanical properties :
#
#
# Convention : Reuss Voigt Hill
#
# Bulk Modulus (GPa) = 50.58633 53.93556 52.26094
# Shear Modulus (GPa) = 34.80659 36.12558 35.46609
#
# Velocity S-wave (km/s) = 3.71424 3.78396 3.74926
# Velocity P-wave (km/s) = 6.20031 6.36148 6.28141
#
# Compressibility (1/GPa) = 0.01976819
#
# Stress axis : x y z
#
# Youngs Moduli (GPa) = 94.18609 81.00453 92.68953
#
# Poissons Ratio (x) = 0.19101 0.39562
# Poissons Ratio (y) = 0.22209 0.03384
# Poissons Ratio (z) = 0.40201 0.02958
#
# Static dielectric constant tensor:
#      x y z
#    x 2.079630 0.000000 0.000000 
#    y 0.000000 2.074850 0.000000 
#    z 0.000000 0.000000 2.041470 
# 
# From -- ./inp_files/59408.got.cif
#   From: 2010.05.17/outbox.cif.g08.bks.cpg/sg70_30_cif.got.tgz:59408.got - 2010.06.03 15:57:51.
