data_PCOD9515751
_publ_section_title
;
Structure prediction by ZEFSAII (Michael W. Deem and Ramdas Pophale) SiO2 
 PCOD9515751
Probable space group: F D D D
;
_chemical_formula_sum "Si O2"
_cell_formula_units_Z 112
_cell_length_a 5.143644
_cell_length_b 34.616722
_cell_length_c 26.710649
_cell_angle_alpha 90.000000
_cell_angle_beta 90.000000
_cell_angle_gamma 90.000000
_cell_volume 4755.993840
_symmetry_space_group_name_H-M "F D D D"
_symmetry_group_IT_number 70
_space_group.IT_coordinate_system_code '2'
_symmetry_cell_setting 'orthorhombic'
loop_
_space_group_symop_operation_xyz
x,y,z
1/4-x,1/4-y,z
x,1/4-y,1/4-z
1/4-x,y,1/4-z
-x,-y,-z
3/4+x,3/4+y,-z
-x,3/4+y,3/4+z
3/4+x,-y,3/4+z
x,1/2+y,1/2+z
1/4-x,3/4-y,1/2+z
x,3/4-y,3/4-z
1/4-x,1/2+y,3/4-z
-x,1/2-y,1/2-z
3/4+x,1/4+y,1/2-z
-x,1/4+y,1/4+z
3/4+x,1/2-y,1/4+z
1/2+x,y,1/2+z
3/4-x,1/4-y,1/2+z
1/2+x,1/4-y,3/4-z
3/4-x,y,3/4-z
1/2-x,-y,1/2-z
1/4+x,3/4+y,1/2-z
1/2-x,3/4+y,1/4+z
1/4+x,-y,1/4+z
1/2+x,1/2+y,z
3/4-x,3/4-y,z
1/2+x,3/4-y,1/4-z
3/4-x,1/2+y,1/4-z
1/2-x,1/2-y,-z
1/4+x,1/4+y,-z
1/2-x,1/4+y,3/4+z
1/4+x,1/2-y,3/4+z
loop_
_atom_site_type_symbol
_atom_site_label
_atom_site_fract_x
_atom_site_fract_y
_atom_site_fract_z
Si Si1 0.737992 0.258024 0.815706
Si Si2 0.625000 0.125000 0.279950
Si Si3 0.232068 0.209580 0.796624
Si Si4 0.125000 0.625000 0.709255
Si Si5 0.625000 0.562500 0.125000
O O1 0.516827 0.224647 0.811436
O O2 0.769038 0.281787 0.763346
O O3 0.615293 0.287524 0.855263
O O4 0.011131 0.236454 0.820653
O O5 0.654131 0.165634 0.308500
O O6 0.372946 0.123376 0.244707
O O7 0.067000 0.589365 0.672400
#
# Coordination Sequence:
#
# PCOD9515751 Si02
#       5
#    32  16  32  16  16
#     4  10  22  39  61  89 126 170 211 260 311 394
#     4  12  22  43  62  94 129 167 212 273 317 396
#     4  10  22  39  62  88 124 171 218 256 312 379
#     4  11  26  36  62  98 133 169 192 267 353 402
#     4  11  24  42  60  96 138 166 208 264 342 402
#
# _framework density 23.549233000000001
#
# number of rings (size 3 to 8) (size 9 to 14) (size 15 to 20)
#    0.000    1.429    2.857    1.714    8.000    5.714 
#    0.000    0.000    0.000    3.429    0.000    0.000 
#    0.000    0.000    0.000    0.000    0.000    0.000 
#
# Total GULP energy -156624.062438 kJ/mol
# GULP energy per Si atom -5593.716516 kJ/mol
# Density = 2.349563 g / cm^3
# Si number density = 23.549233 Si / 1000 Ang^3
#
#
#
# Elastic Constant Matrix: (Units=GPa)
#
#
# Indices 1 2 3 4 5 6 
#
# 1 128.0803 5.9893 42.4770 0.0000 0.0000 0.0000
# 2 5.9893 138.7423 39.0439 0.0000 0.0000 0.0000
# 3 42.4770 39.0439 42.7511 0.0000 0.0000 0.0000
# 4 0.0000 0.0000 0.0000-1016.1907 0.0000 0.0000
# 5 0.0000 0.0000 0.0000 0.0000 35.5355 0.0000
# 6 0.0000 0.0000 0.0000 0.0000 0.0000 24.2908
#
#
#
# Elastic Compliance Matrix: (Units=1/GPa)
#
#
# Indices 1 2 3 4 5 6 
#
# 1 0.013256 0.004218 -0.017024 0.000000 0.000000 0.000000
# 2 0.004218 0.011043 -0.014277 0.000000 0.000000 0.000000
# 3 -0.017024 -0.014277 0.053345 0.000000 0.000000 0.000000
# 4 0.000000 0.000000 0.000000 -0.000984 0.000000 0.000000
# 5 0.000000 0.000000 0.000000 0.000000 0.028141 0.000000
# 6 0.000000 0.000000 0.000000 0.000000 0.000000 0.041168
#
#
# Mechanical properties :
#
#
# Convention : Reuss Voigt Hill
#
# Bulk Modulus (GPa) = 42.59033 53.84379 48.21706
# Shear Modulus (GPa) = 24.04304 -176.46864 -76.21280
#
# Velocity S-wave (km/s) = 3.19873 -8.66595 -5.69504
# Velocity P-wave (km/s) = 5.63626 8.78736 4.76709
#
# Compressibility (1/GPa) = 0.02347951
#
# Stress axis : x y z
#
# Youngs Moduli (GPa) = 75.43650 90.55309 18.74592
#
# Poissons Ratio (x) = -0.38200 0.31913
# Poissons Ratio (y) = -0.31823 0.26764
# Poissons Ratio (z) = 1.28422 1.29283
#
# Static dielectric constant tensor:
#      x y z
#    x 1.764730 0.000000 0.000000 
#    y 0.000000 1.911260 0.000000 
#    z 0.000000 0.000000 2.025130 
# 
# From -- ./inp_files/62955.got.cif
#   From: 2010.05.17/outbox.cif.g08.bks.cpg/sg70_32_cif.got.tgz:62955.got - 2010.06.03 15:57:51.
