data_PCOD9515171
_publ_section_title
;
Structure prediction by ZEFSAII (Michael W. Deem and Ramdas Pophale) SiO2 
 PCOD9515171
Probable space group: F D D D
;
_chemical_formula_sum "Si O2"
_cell_formula_units_Z 96
_cell_length_a 19.899157
_cell_length_b 8.167383
_cell_length_c 25.408811
_cell_angle_alpha 90.000000
_cell_angle_beta 90.000000
_cell_angle_gamma 90.000000
_cell_volume 4129.542529
_symmetry_space_group_name_H-M "F D D D"
_symmetry_group_IT_number 70
_space_group.IT_coordinate_system_code '2'
_symmetry_cell_setting 'orthorhombic'
loop_
_space_group_symop_operation_xyz
x,y,z
1/4-x,1/4-y,z
x,1/4-y,1/4-z
1/4-x,y,1/4-z
-x,-y,-z
3/4+x,3/4+y,-z
-x,3/4+y,3/4+z
3/4+x,-y,3/4+z
x,1/2+y,1/2+z
1/4-x,3/4-y,1/2+z
x,3/4-y,3/4-z
1/4-x,1/2+y,3/4-z
-x,1/2-y,1/2-z
3/4+x,1/4+y,1/2-z
-x,1/4+y,1/4+z
3/4+x,1/2-y,1/4+z
1/2+x,y,1/2+z
3/4-x,1/4-y,1/2+z
1/2+x,1/4-y,3/4-z
3/4-x,y,3/4-z
1/2-x,-y,1/2-z
1/4+x,3/4+y,1/2-z
1/2-x,3/4+y,1/4+z
1/4+x,-y,1/4+z
1/2+x,1/2+y,z
3/4-x,3/4-y,z
1/2+x,3/4-y,1/4-z
3/4-x,1/2+y,1/4-z
1/2-x,1/2-y,-z
1/4+x,1/4+y,-z
1/2-x,1/4+y,3/4+z
1/4+x,1/2-y,3/4+z
loop_
_atom_site_type_symbol
_atom_site_label
_atom_site_fract_x
_atom_site_fract_y
_atom_site_fract_z
Si Si1 0.875000 0.129397 0.875000
Si Si2 0.752732 0.461115 0.312372
Si Si3 0.375000 0.875000 0.203877
Si Si4 0.203868 0.874535 0.030748
O O1 0.835417 0.215150 0.922129
O O2 0.819579 0.026036 0.841140
O O3 0.750000 0.500000 0.250000
O O4 0.684977 0.549239 0.330348
O O5 0.754202 0.265783 0.310811
O O6 0.344155 0.729268 0.241011
O O7 0.250000 0.750000 0.000000
#
# Coordination Sequence:
#
# PCOD9515171 Si02
#       4
#    16  32  16  32
#     4  12  21  46  79 100 143 217 244 291 400 447
#     4  10  20  41  71 101 139 195 243 307 365 445
#     4  10  22  45  64  98 158 184 240 331 350 440
#     4  11  22  39  71 107 141 192 253 310 371 446
#
# _framework density 23.247128
#
# number of rings (size 3 to 8) (size 9 to 14) (size 15 to 20)
#    0.000    1.333    6.667    2.000    0.000    1.333 
#    0.000   20.000    0.000    0.000    0.000    0.000 
#    0.000    0.000    0.000    0.000    0.000    0.000 
#
# Total GULP energy -133816.513484 kJ/mol
# GULP energy per Si atom -5575.688062 kJ/mol
# Density = 2.319422 g / cm^3
# Si number density = 23.247128 Si / 1000 Ang^3
#
#
#
# Elastic Constant Matrix: (Units=GPa)
#
#
# Indices 1 2 3 4 5 6 
#
# 1 184.8255 69.2108 77.1619 0.0000 0.0000 0.0000
# 2 69.2108 69.9108 42.3873 0.0000 0.0000 0.0000
# 3 77.1619 42.3873 149.4272 0.0000 0.0000 0.0000
# 4 0.0000 0.0000 0.0000 21.8021 0.0000 0.0000
# 5 0.0000 0.0000 0.0000 0.0000 72.6995 0.0000
# 6 0.0000 0.0000 0.0000 0.0000 0.0000 51.7297
#
#
#
# Elastic Compliance Matrix: (Units=1/GPa)
#
#
# Indices 1 2 3 4 5 6 
#
# 1 0.009408 -0.007691 -0.002676 0.000000 0.000000 0.000000
# 2 -0.007691 0.023562 -0.002712 0.000000 0.000000 0.000000
# 3 -0.002676 -0.002712 0.008844 0.000000 0.000000 0.000000
# 4 0.000000 0.000000 0.000000 0.045867 0.000000 0.000000
# 5 0.000000 0.000000 0.000000 0.000000 0.013755 0.000000
# 6 0.000000 0.000000 0.000000 0.000000 0.000000 0.019331
#
#
# Mechanical properties :
#
#
# Convention : Reuss Voigt Hill
#
# Bulk Modulus (GPa) = 63.87931 86.85371 75.36651
# Shear Modulus (GPa) = 32.86334 43.60649 38.23492
#
# Velocity S-wave (km/s) = 3.76393 4.33573 4.05991
# Velocity P-wave (km/s) = 6.81378 7.90613 7.38019
#
# Compressibility (1/GPa) = 0.01565452
#
# Stress axis : x y z
#
# Youngs Moduli (GPa) = 106.29393 42.44049 113.07502
#
# Poissons Ratio (x) = 0.32641 0.30264
# Poissons Ratio (y) = 0.81750 0.30670
# Poissons Ratio (z) = 0.28449 0.11511
#
# Static dielectric constant tensor:
#      x y z
#    x 2.019490 0.000000 0.000000 
#    y 0.000000 1.928340 0.000000 
#    z 0.000000 0.000000 1.964960 
# 
# From -- ./inp_files/60020.got.cif
#   From: 2010.05.17/outbox.cif.g08.bks.cpg/sg70_31_cif.got.tgz:60020.got - 2010.06.03 15:57:51.
