data_PCOD9515262
_publ_section_title
;
Structure prediction by ZEFSAII (Michael W. Deem and Ramdas Pophale) SiO2 
 PCOD9515262
Probable space group: F D D D
;
_chemical_formula_sum "Si O2"
_cell_formula_units_Z 192
_cell_length_a 13.880199
_cell_length_b 22.415905
_cell_length_c 24.623328
_cell_angle_alpha 90.000000
_cell_angle_beta 90.000000
_cell_angle_gamma 90.000000
_cell_volume 7661.233874
_symmetry_space_group_name_H-M "F D D D"
_symmetry_group_IT_number 70
_space_group.IT_coordinate_system_code '2'
_symmetry_cell_setting 'orthorhombic'
loop_
_space_group_symop_operation_xyz
x,y,z
1/4-x,1/4-y,z
x,1/4-y,1/4-z
1/4-x,y,1/4-z
-x,-y,-z
3/4+x,3/4+y,-z
-x,3/4+y,3/4+z
3/4+x,-y,3/4+z
x,1/2+y,1/2+z
1/4-x,3/4-y,1/2+z
x,3/4-y,3/4-z
1/4-x,1/2+y,3/4-z
-x,1/2-y,1/2-z
3/4+x,1/4+y,1/2-z
-x,1/4+y,1/4+z
3/4+x,1/2-y,1/4+z
1/2+x,y,1/2+z
3/4-x,1/4-y,1/2+z
1/2+x,1/4-y,3/4-z
3/4-x,y,3/4-z
1/2-x,-y,1/2-z
1/4+x,3/4+y,1/2-z
1/2-x,3/4+y,1/4+z
1/4+x,-y,1/4+z
1/2+x,1/2+y,z
3/4-x,3/4-y,z
1/2+x,3/4-y,1/4-z
3/4-x,1/2+y,1/4-z
1/2-x,1/2-y,-z
1/4+x,1/4+y,-z
1/2-x,1/4+y,3/4+z
1/4+x,1/2-y,3/4+z
loop_
_atom_site_type_symbol
_atom_site_label
_atom_site_fract_x
_atom_site_fract_y
_atom_site_fract_z
Si Si1 0.588236 0.944981 0.456397
Si Si2 0.897323 0.805936 0.087064
Si Si3 0.275842 0.125000 0.625000
Si Si4 0.946529 0.678594 0.505085
Si Si5 0.959194 0.083288 0.418009
Si Si6 0.747467 0.045538 0.959861
Si Si7 0.125000 0.125000 0.540738
O O1 0.659755 0.919432 0.409811
O O2 0.526441 0.886765 0.471984
O O3 0.648359 0.956656 0.511266
O O4 0.564699 0.009876 0.431973
O O5 0.875000 0.875000 0.081443
O O6 0.983362 0.799530 0.042830
O O7 0.947992 0.797982 0.146085
O O8 0.204518 0.153556 0.580504
O O9 0.839932 0.676805 0.477001
O O10 0.961364 0.728996 0.550470
O O11 0.875000 0.073072 0.375000
O O12 0.990157 0.153134 0.415413
O O13 0.674492 0.075712 0.003343
#
# Coordination Sequence:
#
# PCOD9515262 Si02
#       7
#    32  32  16  32  32  32  16
#     4   9  19  35  51  76 109 147 187 218 278 337
#     4  10  21  34  55  82 106 141 191 238 274 329
#     4   9  18  32  48  76 113 146 172 218 269 328
#     4   9  19  37  57  76 110 150 180 229 283 334
#     4   9  19  35  54  82 114 149 183 231 281 325
#     4   9  18  33  53  80 110 146 186 220 274 334
#     4   9  18  30  50  80 114 144 174 220 262 333
#
# _framework density 25.061236999999998
#
# number of rings (size 3 to 8) (size 9 to 14) (size 15 to 20)
#    0.000    2.833    0.000    0.000    3.500    2.000 
#    0.000    2.500    0.000    0.000    0.000    3.500 
#    0.000    0.000    0.000    0.000    0.000    0.000 
#
# Total GULP energy -267687.034581 kJ/mol
# GULP energy per Si atom -5576.813220 kJ/mol
# Density = 2.500420 g / cm^3
# Si number density = 25.061237 Si / 1000 Ang^3
#
#
#
# Elastic Constant Matrix: (Units=GPa)
#
#
# Indices 1 2 3 4 5 6 
#
# 1 32.9961 8.1364 12.0852 0.0000 0.0000 0.0000
# 2 8.1364 118.7067 -7.1501 0.0000 0.0000 0.0000
# 3 12.0852 -7.1501 48.1732 0.0000 0.0000 0.0000
# 4 0.0000 0.0000 0.0000 28.0158 0.0000 0.0000
# 5 0.0000 0.0000 0.0000 0.0000 16.0522 0.0000
# 6 0.0000 0.0000 0.0000 0.0000 0.0000 27.4248
#
#
#
# Elastic Compliance Matrix: (Units=1/GPa)
#
#
# Indices 1 2 3 4 5 6 
#
# 1 0.034333 -0.002898 -0.009043 0.000000 0.000000 0.000000
# 2 -0.002898 0.008745 0.002025 0.000000 0.000000 0.000000
# 3 -0.009043 0.002025 0.023328 0.000000 0.000000 0.000000
# 4 0.000000 0.000000 0.000000 0.035694 0.000000 0.000000
# 5 0.000000 0.000000 0.000000 0.000000 0.062297 0.000000
# 6 0.000000 0.000000 0.000000 0.000000 0.000000 0.036463
#
#
# Mechanical properties :
#
#
# Convention : Reuss Voigt Hill
#
# Bulk Modulus (GPa) = 21.47165 25.11322 23.29243
# Shear Modulus (GPa) = 21.16697 26.75220 23.95959
#
# Velocity S-wave (km/s) = 2.90937 3.27077 3.09535
# Velocity P-wave (km/s) = 4.45782 4.93015 4.69992
#
# Compressibility (1/GPa) = 0.04657305
#
# Stress axis : x y z
#
# Youngs Moduli (GPa) = 29.12615 114.35458 42.86748
#
# Poissons Ratio (x) = 0.33140 0.38767
# Poissons Ratio (y) = 0.08441 -0.08680
# Poissons Ratio (z) = 0.26340 -0.23156
#
# Static dielectric constant tensor:
#      x y z
#    x 2.040550 0.000000 0.000000 
#    y 0.000000 2.046080 0.000000 
#    z 0.000000 0.000000 2.030590 
# 
# From -- ./inp_files/53014.got.cif
#   From: 2010.05.17/outbox.cif.g08.bks.cpg/sg70_27_cif.got.tgz:53014.got - 2010.06.03 15:57:51.
