data_PCOD9515087
_publ_section_title
;
Structure prediction by ZEFSAII (Michael W. Deem and Ramdas Pophale) SiO2 
 PCOD9515087
Probable space group: F D D D
;
_chemical_formula_sum "Si O2"
_cell_formula_units_Z 208
_cell_length_a 21.463282
_cell_length_b 18.904359
_cell_length_c 26.690328
_cell_angle_alpha 90.000000
_cell_angle_beta 90.000000
_cell_angle_gamma 90.000000
_cell_volume 10829.589596
_symmetry_space_group_name_H-M "F D D D"
_symmetry_group_IT_number 70
_space_group.IT_coordinate_system_code '2'
_symmetry_cell_setting 'orthorhombic'
loop_
_space_group_symop_operation_xyz
x,y,z
1/4-x,1/4-y,z
x,1/4-y,1/4-z
1/4-x,y,1/4-z
-x,-y,-z
3/4+x,3/4+y,-z
-x,3/4+y,3/4+z
3/4+x,-y,3/4+z
x,1/2+y,1/2+z
1/4-x,3/4-y,1/2+z
x,3/4-y,3/4-z
1/4-x,1/2+y,3/4-z
-x,1/2-y,1/2-z
3/4+x,1/4+y,1/2-z
-x,1/4+y,1/4+z
3/4+x,1/2-y,1/4+z
1/2+x,y,1/2+z
3/4-x,1/4-y,1/2+z
1/2+x,1/4-y,3/4-z
3/4-x,y,3/4-z
1/2-x,-y,1/2-z
1/4+x,3/4+y,1/2-z
1/2-x,3/4+y,1/4+z
1/4+x,-y,1/4+z
1/2+x,1/2+y,z
3/4-x,3/4-y,z
1/2+x,3/4-y,1/4-z
3/4-x,1/2+y,1/4-z
1/2-x,1/2-y,-z
1/4+x,1/4+y,-z
1/2-x,1/4+y,3/4+z
1/4+x,1/2-y,3/4+z
loop_
_atom_site_type_symbol
_atom_site_label
_atom_site_fract_x
_atom_site_fract_y
_atom_site_fract_z
Si Si1 0.998671 0.149365 0.372117
Si Si2 0.375000 0.375000 0.687884
Si Si3 0.298936 0.741355 0.835483
Si Si4 0.302528 0.451626 0.890576
Si Si5 0.520867 0.388691 0.514944
Si Si6 0.813919 0.965222 0.307358
Si Si7 0.311110 0.755727 0.244987
O O1 0.063574 0.134267 0.345179
O O2 0.948301 0.092011 0.351525
O O3 0.978498 0.230131 0.365149
O O4 0.005924 0.135595 0.431465
O O5 0.363792 0.304975 0.721092
O O6 0.362960 0.778658 0.819270
O O7 0.280497 0.778015 0.888350
O O8 0.248669 0.742292 0.791584
O O9 0.276980 0.375000 0.875000
O O10 0.375000 0.453032 0.875000
O O11 0.297508 0.462980 0.950198
O O12 0.466862 0.402251 0.474127
O O13 0.551840 0.464061 0.525113
O O14 0.570600 0.328440 0.500423
#
# Coordination Sequence:
#
# PCOD9515087 Si02
#       7
#    32  16  32  32  32  32  32
#     4   9  20  35  60  80 114 156 193 232 298 347
#     4  10  20  40  55  82 116 157 188 246 298 356
#     4   9  19  34  56  85 114 147 196 233 285 364
#     4  10  21  38  59  85 113 149 198 253 294 350
#     4   9  19  34  56  83 112 150 188 236 288 350
#     4   9  18  35  57  85 114 150 188 230 291 359
#     4  10  21  37  55  82 115 148 196 247 296 344
#
# _framework density 19.206637000000001
#
# number of rings (size 3 to 8) (size 9 to 14) (size 15 to 20)
#    0.000    2.615    0.000    0.923    6.462    3.692 
#    2.769    3.846    0.000    0.000    0.000    0.000 
#    0.000    0.000    0.000    0.000    0.000    0.000 
#
# Total GULP energy -289725.035015 kJ/mol
# GULP energy per Si atom -5571.635289 kJ/mol
# Density = 1.916292 g / cm^3
# Si number density = 19.206637 Si / 1000 Ang^3
#
#
#
# Elastic Constant Matrix: (Units=GPa)
#
#
# Indices 1 2 3 4 5 6 
#
# 1 42.3122 14.3864 18.2264 0.0000 0.0000 0.0000
# 2 14.3864 124.5260 27.9914 0.0000 0.0000 0.0000
# 3 18.2264 27.9914 77.3917 0.0000 0.0000 0.0000
# 4 0.0000 0.0000 0.0000 26.1460 0.0000 0.0000
# 5 0.0000 0.0000 0.0000 0.0000 23.4342 0.0000
# 6 0.0000 0.0000 0.0000 0.0000 0.0000 29.9357
#
#
#
# Elastic Compliance Matrix: (Units=1/GPa)
#
#
# Indices 1 2 3 4 5 6 
#
# 1 0.026675 -0.001817 -0.005625 0.000000 0.000000 0.000000
# 2 -0.001817 0.008865 -0.002778 0.000000 0.000000 0.000000
# 3 -0.005625 -0.002778 0.015251 0.000000 0.000000 0.000000
# 4 0.000000 0.000000 0.000000 0.038247 0.000000 0.000000
# 5 0.000000 0.000000 0.000000 0.000000 0.042673 0.000000
# 6 0.000000 0.000000 0.000000 0.000000 0.000000 0.033405
#
#
# Mechanical properties :
#
#
# Convention : Reuss Voigt Hill
#
# Bulk Modulus (GPa) = 32.94942 40.60425 36.77684
# Shear Modulus (GPa) = 25.55292 28.14489 26.84891
#
# Velocity S-wave (km/s) = 3.65145 3.83217 3.74290
# Velocity P-wave (km/s) = 5.91354 6.38493 6.15375
#
# Compressibility (1/GPa) = 0.03034955
#
# Stress axis : x y z
#
# Youngs Moduli (GPa) = 37.48871 112.80406 65.57014
#
# Poissons Ratio (x) = 0.20500 0.36882
# Poissons Ratio (y) = 0.06813 0.18217
# Poissons Ratio (z) = 0.21087 0.31341
#
# Static dielectric constant tensor:
#      x y z
#    x 1.643510 0.000000 0.000000 
#    y 0.000000 1.729570 0.000000 
#    z 0.000000 0.000000 1.682400 
# 
# From -- ./inp_files/61265.got.cif
#   From: 2010.05.17/outbox.cif.g08.bks.cpg/sg70_31_cif.got.tgz:61265.got - 2010.06.03 15:57:51.
