data_PCOD9515643
_publ_section_title
;
Structure prediction by ZEFSAII (Michael W. Deem and Ramdas Pophale) SiO2 
 PCOD9515643
Probable space group: F D D D
;
_chemical_formula_sum "Si O2"
_cell_formula_units_Z 136
_cell_length_a 11.139330
_cell_length_b 23.773681
_cell_length_c 19.113444
_cell_angle_alpha 90.000000
_cell_angle_beta 90.000000
_cell_angle_gamma 90.000000
_cell_volume 5061.677248
_symmetry_space_group_name_H-M "F D D D"
_symmetry_group_IT_number 70
_space_group.IT_coordinate_system_code '2'
_symmetry_cell_setting 'orthorhombic'
loop_
_space_group_symop_operation_xyz
x,y,z
1/4-x,1/4-y,z
x,1/4-y,1/4-z
1/4-x,y,1/4-z
-x,-y,-z
3/4+x,3/4+y,-z
-x,3/4+y,3/4+z
3/4+x,-y,3/4+z
x,1/2+y,1/2+z
1/4-x,3/4-y,1/2+z
x,3/4-y,3/4-z
1/4-x,1/2+y,3/4-z
-x,1/2-y,1/2-z
3/4+x,1/4+y,1/2-z
-x,1/4+y,1/4+z
3/4+x,1/2-y,1/4+z
1/2+x,y,1/2+z
3/4-x,1/4-y,1/2+z
1/2+x,1/4-y,3/4-z
3/4-x,y,3/4-z
1/2-x,-y,1/2-z
1/4+x,3/4+y,1/2-z
1/2-x,3/4+y,1/4+z
1/4+x,-y,1/4+z
1/2+x,1/2+y,z
3/4-x,3/4-y,z
1/2+x,3/4-y,1/4-z
3/4-x,1/2+y,1/4-z
1/2-x,1/2-y,-z
1/4+x,1/4+y,-z
1/2-x,1/4+y,3/4+z
1/4+x,1/2-y,3/4+z
loop_
_atom_site_type_symbol
_atom_site_label
_atom_site_fract_x
_atom_site_fract_y
_atom_site_fract_z
Si Si1 0.684492 0.285371 0.880992
Si Si2 0.261144 0.063855 0.959982
Si Si3 0.375000 0.875000 0.875000
Si Si4 0.217891 0.080157 0.804982
Si Si5 0.807361 0.286495 0.438931
O O1 0.748189 0.250617 0.817255
O O2 0.666014 0.233301 0.935050
O O3 0.561302 0.310345 0.849830
O O4 0.647809 0.329075 0.024297
O O5 0.235508 0.096640 0.887723
O O6 0.163248 0.069896 0.020887
O O7 0.279370 0.919469 0.843868
O O8 0.125000 0.125000 0.775753
O O9 0.875000 0.255355 0.375000
O O10 0.750000 0.250000 0.500000
#
# Coordination Sequence:
#
# PCOD9515643 Si02
#       5
#    32  32   8  32  32
#     4   9  19  36  69 110 148 210 252 319 406 471
#     4   8  17  38  64 106 156 191 270 317 400 471
#     4  12  16  40  78 104 172 196 266 318 406 496
#     4   9  16  35  66 108 159 197 261 333 396 469
#     4  10  21  43  76 107 155 209 265 333 395 500
#
# _framework density 26.868565
#
# number of rings (size 3 to 8) (size 9 to 14) (size 15 to 20)
#    1.412    1.412    2.353    0.000    0.000    0.000 
#    4.235    4.118    2.588   11.294    0.000    0.000 
#    0.000    0.000    0.000    0.000    0.000    0.000 
#
# Total GULP energy -189547.839808 kJ/mol
# GULP energy per Si atom -5574.936465 kJ/mol
# Density = 2.680741 g / cm^3
# Si number density = 26.868565 Si / 1000 Ang^3
#
#
#
# Elastic Constant Matrix: (Units=GPa)
#
#
# Indices 1 2 3 4 5 6 
#
# 1 298.3789 96.8640 114.2398 0.0000 0.0000 0.0000
# 2 96.8640 137.3834 52.9942 0.0000 0.0000 0.0000
# 3 114.2398 52.9942 117.4123 0.0000 0.0000 0.0000
# 4 0.0000 0.0000 0.0000 16.2773 0.0000 0.0000
# 5 0.0000 0.0000 0.0000 0.0000 -47.5586 0.0000
# 6 0.0000 0.0000 0.0000 0.0000 0.0000 58.0611
#
#
#
# Elastic Compliance Matrix: (Units=1/GPa)
#
#
# Indices 1 2 3 4 5 6 
#
# 1 0.005912 -0.002361 -0.004687 0.000000 0.000000 0.000000
# 2 -0.002361 0.009756 -0.002107 0.000000 0.000000 0.000000
# 3 -0.004687 -0.002107 0.014028 0.000000 0.000000 0.000000
# 4 0.000000 0.000000 0.000000 0.061435 0.000000 0.000000
# 5 0.000000 0.000000 0.000000 0.000000 -0.021027 0.000000
# 6 0.000000 0.000000 0.000000 0.000000 0.000000 0.017223
#
#
# Mechanical properties :
#
#
# Convention : Reuss Voigt Hill
#
# Bulk Modulus (GPa) = 87.81191 120.15228 103.98210
# Shear Modulus (GPa) = 45.69023 24.62773 35.15898
#
# Velocity S-wave (km/s) = 4.12820 3.03083 3.62132
# Velocity P-wave (km/s) = 7.44820 7.55404 7.50130
#
# Compressibility (1/GPa) = 0.01138798
#
# Stress axis : x y z
#
# Youngs Moduli (GPa) = 169.13867 102.50305 71.28468
#
# Poissons Ratio (x) = 0.24196 0.33412
# Poissons Ratio (y) = 0.39926 0.15016
# Poissons Ratio (z) = 0.79277 0.21593
#
# Static dielectric constant tensor:
#      x y z
#    x 2.056550 0.000000 0.000000 
#    y 0.000000 2.076150 0.000000 
#    z 0.000000 0.000000 1.933690 
# 
# From -- ./inp_files/35347.got.cif
#   From: 2010.05.17/outbox.cif.g08.bks.cpg/sg70_18_cif.got.tgz:35347.got - 2010.06.03 15:57:51.
