data_PCOD9515948
_publ_section_title
;
Structure prediction by ZEFSAII (Michael W. Deem and Ramdas Pophale) SiO2 
 PCOD9515948
Probable space group: F D D D
;
_chemical_formula_sum "Si O2"
_cell_formula_units_Z 128
_cell_length_a 24.826190
_cell_length_b 13.391738
_cell_length_c 17.295199
_cell_angle_alpha 90.000000
_cell_angle_beta 90.000000
_cell_angle_gamma 90.000000
_cell_volume 5750.062725
_symmetry_space_group_name_H-M "F D D D"
_symmetry_group_IT_number 70
_space_group.IT_coordinate_system_code '2'
_symmetry_cell_setting 'orthorhombic'
loop_
_space_group_symop_operation_xyz
x,y,z
1/4-x,1/4-y,z
x,1/4-y,1/4-z
1/4-x,y,1/4-z
-x,-y,-z
3/4+x,3/4+y,-z
-x,3/4+y,3/4+z
3/4+x,-y,3/4+z
x,1/2+y,1/2+z
1/4-x,3/4-y,1/2+z
x,3/4-y,3/4-z
1/4-x,1/2+y,3/4-z
-x,1/2-y,1/2-z
3/4+x,1/4+y,1/2-z
-x,1/4+y,1/4+z
3/4+x,1/2-y,1/4+z
1/2+x,y,1/2+z
3/4-x,1/4-y,1/2+z
1/2+x,1/4-y,3/4-z
3/4-x,y,3/4-z
1/2-x,-y,1/2-z
1/4+x,3/4+y,1/2-z
1/2-x,3/4+y,1/4+z
1/4+x,-y,1/4+z
1/2+x,1/2+y,z
3/4-x,3/4-y,z
1/2+x,3/4-y,1/4-z
3/4-x,1/2+y,1/4-z
1/2-x,1/2-y,-z
1/4+x,1/4+y,-z
1/2-x,1/4+y,3/4+z
1/4+x,1/2-y,3/4+z
loop_
_atom_site_type_symbol
_atom_site_label
_atom_site_fract_x
_atom_site_fract_y
_atom_site_fract_z
Si Si1 0.977211 0.617439 0.409139
Si Si2 0.680186 0.493891 0.885582
Si Si3 0.567685 0.283930 0.818405
Si Si4 0.875000 0.216005 0.875000
Si Si5 0.375000 0.375000 0.245728
O O1 0.951002 0.574887 0.486796
O O2 0.927196 0.648656 0.355132
O O3 0.015258 0.712957 0.420496
O O4 0.021915 0.533343 0.391502
O O5 0.687039 0.375000 0.875000
O O6 0.627053 0.512213 0.937328
O O7 0.665600 0.560713 0.808895
O O8 0.575801 0.375000 0.875000
O O9 0.856057 0.287819 0.804796
#
# Coordination Sequence:
#
# PCOD9515948 Si02
#       5
#    32  32  32  16  16
#     4  11  24  42  67 101 135 177 223 279 332 397
#     4  11  23  44  69  96 131 185 221 268 346 403
#     4  10  22  43  69  95 134 180 222 272 330 408
#     4  11  26  42  63 104 140 167 230 288 327 394
#     4  11  24  46  64  96 139 170 222 282 333 402
#
# _framework density 22.260626999999999
#
# number of rings (size 3 to 8) (size 9 to 14) (size 15 to 20)
#    0.000    1.250    2.500    3.000    3.500    5.000 
#    0.000    3.125    0.000    0.000    0.000    0.000 
#    0.000    0.000    0.000    0.000    0.000    0.000 
#
# Total GULP energy -178302.028558 kJ/mol
# GULP energy per Si atom -5571.938392 kJ/mol
# Density = 2.220996 g / cm^3
# Si number density = 22.260627 Si / 1000 Ang^3
#
#
#
# Elastic Constant Matrix: (Units=GPa)
#
#
# Indices 1 2 3 4 5 6 
#
# 1 181.4670 57.5958 15.0500 0.0000 0.0000 0.0000
# 2 57.5958 132.3493 18.9275 0.0000 0.0000 0.0000
# 3 15.0500 18.9275 50.9575 0.0000 0.0000 0.0000
# 4 0.0000 0.0000 0.0000 23.8347 0.0000 0.0000
# 5 0.0000 0.0000 0.0000 0.0000 18.8831 0.0000
# 6 0.0000 0.0000 0.0000 0.0000 0.0000 34.5953
#
#
#
# Elastic Compliance Matrix: (Units=1/GPa)
#
#
# Indices 1 2 3 4 5 6 
#
# 1 0.006433 -0.002670 -0.000908 0.000000 0.000000 0.000000
# 2 -0.002670 0.009088 -0.002587 0.000000 0.000000 0.000000
# 3 -0.000908 -0.002587 0.020853 0.000000 0.000000 0.000000
# 4 0.000000 0.000000 0.000000 0.041956 0.000000 0.000000
# 5 0.000000 0.000000 0.000000 0.000000 0.052957 0.000000
# 6 0.000000 0.000000 0.000000 0.000000 0.000000 0.028906
#
#
# Mechanical properties :
#
#
# Convention : Reuss Voigt Hill
#
# Bulk Modulus (GPa) = 41.59032 60.88004 51.23518
# Shear Modulus (GPa) = 27.69501 33.67598 30.68550
#
# Velocity S-wave (km/s) = 3.53104 3.89370 3.71680
# Velocity P-wave (km/s) = 5.94544 6.90092 6.44092
#
# Compressibility (1/GPa) = 0.02404406
#
# Stress axis : x y z
#
# Youngs Moduli (GPa) = 155.44042 110.04067 47.95381
#
# Poissons Ratio (x) = 0.29378 0.04356
# Poissons Ratio (y) = 0.41499 0.12405
# Poissons Ratio (z) = 0.14120 0.28467
#
# Static dielectric constant tensor:
#      x y z
#    x 1.826440 0.000000 0.000000 
#    y 0.000000 1.929410 0.000000 
#    z 0.000000 0.000000 1.826820 
# 
# From -- ./inp_files/38333.got.cif
#   From: 2010.05.17/outbox.cif.g08.bks.cpg/sg70_20_cif.got.tgz:38333.got - 2010.06.03 15:57:51.
