data_PCOD9515401
_publ_section_title
;
Structure prediction by ZEFSAII (Michael W. Deem and Ramdas Pophale) SiO2 
 PCOD9515401
Probable space group: F D D D
;
_chemical_formula_sum "Si O2"
_cell_formula_units_Z 168
_cell_length_a 18.830133
_cell_length_b 12.799590
_cell_length_c 30.950989
_cell_angle_alpha 90.000000
_cell_angle_beta 90.000000
_cell_angle_gamma 90.000000
_cell_volume 7459.744911
_symmetry_space_group_name_H-M "F D D D"
_symmetry_group_IT_number 70
_space_group.IT_coordinate_system_code '2'
_symmetry_cell_setting 'orthorhombic'
loop_
_space_group_symop_operation_xyz
x,y,z
1/4-x,1/4-y,z
x,1/4-y,1/4-z
1/4-x,y,1/4-z
-x,-y,-z
3/4+x,3/4+y,-z
-x,3/4+y,3/4+z
3/4+x,-y,3/4+z
x,1/2+y,1/2+z
1/4-x,3/4-y,1/2+z
x,3/4-y,3/4-z
1/4-x,1/2+y,3/4-z
-x,1/2-y,1/2-z
3/4+x,1/4+y,1/2-z
-x,1/4+y,1/4+z
3/4+x,1/2-y,1/4+z
1/2+x,y,1/2+z
3/4-x,1/4-y,1/2+z
1/2+x,1/4-y,3/4-z
3/4-x,y,3/4-z
1/2-x,-y,1/2-z
1/4+x,3/4+y,1/2-z
1/2-x,3/4+y,1/4+z
1/4+x,-y,1/4+z
1/2+x,1/2+y,z
3/4-x,3/4-y,z
1/2+x,3/4-y,1/4-z
3/4-x,1/2+y,1/4-z
1/2-x,1/2-y,-z
1/4+x,1/4+y,-z
1/2-x,1/4+y,3/4+z
1/4+x,1/2-y,3/4+z
loop_
_atom_site_type_symbol
_atom_site_label
_atom_site_fract_x
_atom_site_fract_y
_atom_site_fract_z
Si Si1 0.133643 0.481849 0.696211
Si Si2 0.983751 0.472051 0.167181
Si Si3 0.625000 0.941575 0.125000
Si Si4 0.375000 0.875000 0.375000
Si Si5 0.625000 0.125000 0.893509
Si Si6 0.363683 0.102330 0.077627
Si Si7 0.261902 0.372456 0.762208
O O1 0.114160 0.377817 0.669253
O O2 0.166411 0.548873 0.656167
O O3 0.190229 0.522375 0.731912
O O4 0.061799 0.531953 0.715141
O O5 0.941742 0.385668 0.138853
O O6 0.931571 0.679462 0.075634
O O7 0.999213 0.418213 0.213247
O O8 0.053485 0.500040 0.139455
O O9 0.629999 0.229451 0.921353
O O10 0.331745 0.125000 0.125000
O O11 0.309233 0.121926 0.039914
#
# Coordination Sequence:
#
# PCOD9515401 Si02
#       7
#    32  32  16   8  16  32  32
#     4   9  19  33  59 100 142 187 224 286 371 414
#     4  11  25  42  69 109 142 187 240 303 365 426
#     4  11  24  39  65  98 149 198 234 279 369 450
#     4   6  12  26  44  80 134 168 212 258 326 414
#     4  10  22  49  72  94 137 197 244 282 360 445
#     4  10  24  43  71  98 141 189 240 291 357 436
#     4  10  21  38  65 105 147 172 235 315 355 416
#
# _framework density 22.520876000000001
#
# number of rings (size 3 to 8) (size 9 to 14) (size 15 to 20)
#    0.000    2.286    0.000    2.286   16.000    0.762 
#    0.000    5.238    8.381    0.000    0.000    0.000 
#    0.000    0.000    0.000    0.000    0.000    0.000 
#
# Total GULP energy -233945.196292 kJ/mol
# GULP energy per Si atom -5570.123721 kJ/mol
# Density = 2.246962 g / cm^3
# Si number density = 22.520876 Si / 1000 Ang^3
#
#
#
# Elastic Constant Matrix: (Units=GPa)
#
#
# Indices 1 2 3 4 5 6 
#
# 1 176.6060 61.0781 83.8458 0.0000 0.0000 0.0000
# 2 61.0781 130.6385 57.9156 0.0000 0.0000 0.0000
# 3 83.8458 57.9156 149.1232 0.0000 0.0000 0.0000
# 4 0.0000 0.0000 0.0000 15.1244 0.0000 0.0000
# 5 0.0000 0.0000 0.0000 0.0000 40.6271 0.0000
# 6 0.0000 0.0000 0.0000 0.0000 0.0000 19.4512
#
#
#
# Elastic Compliance Matrix: (Units=1/GPa)
#
#
# Indices 1 2 3 4 5 6 
#
# 1 0.008200 -0.002162 -0.003771 0.000000 0.000000 0.000000
# 2 -0.002162 0.009817 -0.002597 0.000000 0.000000 0.000000
# 3 -0.003771 -0.002597 0.009835 0.000000 0.000000 0.000000
# 4 0.000000 0.000000 0.000000 0.066118 0.000000 0.000000
# 5 0.000000 0.000000 0.000000 0.000000 0.024614 0.000000
# 6 0.000000 0.000000 0.000000 0.000000 0.000000 0.051411
#
#
# Mechanical properties :
#
#
# Convention : Reuss Voigt Hill
#
# Bulk Modulus (GPa) = 92.66304 95.78299 94.22301
# Shear Modulus (GPa) = 26.22566 31.94241 29.08404
#
# Velocity S-wave (km/s) = 3.41619 3.77018 3.59754
# Velocity P-wave (km/s) = 7.53626 7.84700 7.69320
#
# Compressibility (1/GPa) = 0.01079179
#
# Stress axis : x y z
#
# Youngs Moduli (GPa) = 121.94464 101.86521 101.68041
#
# Poissons Ratio (x) = 0.22025 0.38344
# Poissons Ratio (y) = 0.26367 0.26406
# Poissons Ratio (z) = 0.45986 0.26454
#
# Static dielectric constant tensor:
#      x y z
#    x 1.962410 0.000000 0.000000 
#    y 0.000000 1.989160 0.000000 
#    z 0.000000 0.000000 1.945620 
# 
# From -- ./inp_files/67231.got.cif
#   From: 2010.05.17/outbox.cif.g08.bks.cpg/sg70_34_cif.got.tgz:67231.got - 2010.06.03 15:57:51.
