data_PCOD9515000
_publ_section_title
;
Structure prediction by ZEFSAII (Michael W. Deem and Ramdas Pophale) SiO2 
 PCOD9515000
Probable space group: F D D D
;
_chemical_formula_sum "Si O2"
_cell_formula_units_Z 160
_cell_length_a 27.306588
_cell_length_b 16.596242
_cell_length_c 16.418815
_cell_angle_alpha 90.000000
_cell_angle_beta 90.000000
_cell_angle_gamma 90.000000
_cell_volume 7440.789288
_symmetry_space_group_name_H-M "F D D D"
_symmetry_group_IT_number 70
_space_group.IT_coordinate_system_code '2'
_symmetry_cell_setting 'orthorhombic'
loop_
_space_group_symop_operation_xyz
x,y,z
1/4-x,1/4-y,z
x,1/4-y,1/4-z
1/4-x,y,1/4-z
-x,-y,-z
3/4+x,3/4+y,-z
-x,3/4+y,3/4+z
3/4+x,-y,3/4+z
x,1/2+y,1/2+z
1/4-x,3/4-y,1/2+z
x,3/4-y,3/4-z
1/4-x,1/2+y,3/4-z
-x,1/2-y,1/2-z
3/4+x,1/4+y,1/2-z
-x,1/4+y,1/4+z
3/4+x,1/2-y,1/4+z
1/2+x,y,1/2+z
3/4-x,1/4-y,1/2+z
1/2+x,1/4-y,3/4-z
3/4-x,y,3/4-z
1/2-x,-y,1/2-z
1/4+x,3/4+y,1/2-z
1/2-x,3/4+y,1/4+z
1/4+x,-y,1/4+z
1/2+x,1/2+y,z
3/4-x,3/4-y,z
1/2+x,3/4-y,1/4-z
3/4-x,1/2+y,1/4-z
1/2-x,1/2-y,-z
1/4+x,1/4+y,-z
1/2-x,1/4+y,3/4+z
1/4+x,1/2-y,3/4+z
loop_
_atom_site_type_symbol
_atom_site_label
_atom_site_fract_x
_atom_site_fract_y
_atom_site_fract_z
Si Si1 0.551167 0.353325 0.752253
Si Si2 0.820527 0.700266 0.395210
Si Si3 0.206379 0.542003 0.644690
Si Si4 0.366408 0.125000 0.625000
Si Si5 0.546927 0.125000 0.125000
Si Si6 0.211552 0.818519 0.764290
O O1 0.537881 0.415390 0.679894
O O2 0.506250 0.322190 0.808539
O O3 0.568312 0.272148 0.705196
O O4 0.594420 0.394093 0.803892
O O5 0.875000 0.671245 0.375000
O O6 0.823281 0.795771 0.407920
O O7 0.802547 0.654031 0.473984
O O8 0.179776 0.625000 0.625000
O O9 0.214108 0.495168 0.559214
O O10 0.330032 0.191251 0.665470
O O11 0.512673 0.085757 0.193404
#
# Coordination Sequence:
#
# PCOD9515000 Si02
#       6
#    32  32  32  16  16  32
#     4  10  21  36  66  87 121 166 201 250 316 373
#     4  11  21  40  62  87 118 164 205 248 314 365
#     4  10  20  38  63  96 121 156 212 260 305 371
#     4  11  20  40  61  82 121 173 194 241 312 384
#     4  11  23  36  59  90 122 154 208 263 282 367
#     4  10  23  38  62  87 124 165 200 244 318 371
#
# _framework density 21.503095999999999
#
# number of rings (size 3 to 8) (size 9 to 14) (size 15 to 20)
#    0.000    1.600    3.000    2.100    0.000    0.000 
#    0.000    2.000    4.400    0.000    0.000    0.000 
#    0.000    0.000    0.000    0.000    0.000    0.000 
#
# Total GULP energy -222760.332859 kJ/mol
# GULP energy per Si atom -5569.008321 kJ/mol
# Density = 2.145415 g / cm^3
# Si number density = 21.503096 Si / 1000 Ang^3
#
#
#
# Elastic Constant Matrix: (Units=GPa)
#
#
# Indices 1 2 3 4 5 6 
#
# 1 56.7606 5.2833 16.0694 0.0000 0.0000 0.0000
# 2 5.2833 147.8724 32.8552 0.0000 0.0000 0.0000
# 3 16.0694 32.8552 108.5161 0.0000 0.0000 0.0000
# 4 0.0000 0.0000 0.0000 33.0725 0.0000 0.0000
# 5 0.0000 0.0000 0.0000 0.0000 24.8852 0.0000
# 6 0.0000 0.0000 0.0000 0.0000 0.0000**********
#
#
#
# Elastic Compliance Matrix: (Units=1/GPa)
#
#
# Indices 1 2 3 4 5 6 
#
# 1 0.018389 -0.000056 -0.002706 0.000000 0.000000 0.000000
# 2 -0.000056 0.007250 -0.002187 0.000000 0.000000 0.000000
# 3 -0.002706 -0.002187 0.010278 0.000000 0.000000 0.000000
# 4 0.000000 0.000000 0.000000 0.030237 0.000000 0.000000
# 5 0.000000 0.000000 0.000000 0.000000 0.040185 0.000000
# 6 0.000000 0.000000 0.000000 0.000000 0.000000 -0.000097
#
#
# Mechanical properties :
#
#
# Convention : Reuss Voigt Hill
#
# Bulk Modulus (GPa) = 38.43213 46.84056 42.63634
# Shear Modulus (GPa) = 40.05976 -2039.64074 -999.79049
#
# Velocity S-wave (km/s) = 4.32090 -30.83168 -21.58614
# Velocity P-wave (km/s) = 6.54257 35.29343 24.52367
#
# Compressibility (1/GPa) = 0.02601989
#
# Stress axis : x y z
#
# Youngs Moduli (GPa) = 54.37976 137.92172 97.29408
#
# Poissons Ratio (x) = 0.00769 0.26330
# Poissons Ratio (y) = 0.00303 0.21278
# Poissons Ratio (z) = 0.14717 0.30163
#
# Static dielectric constant tensor:
#      x y z
#    x 1.819780 0.000000 0.000000 
#    y 0.000000 1.780840 0.000000 
#    z 0.000000 0.000000 1.843590 
# 
# From -- ./inp_files/39542.got.cif
#   From: 2010.05.17/outbox.cif.g08.bks.cpg/sg70_20_cif.got.tgz:39542.got - 2010.06.03 15:57:51.
