data_PCOD9515622
_publ_section_title
;
Structure prediction by ZEFSAII (Michael W. Deem and Ramdas Pophale) SiO2 
 PCOD9515622
Probable space group: F D D D
;
_chemical_formula_sum "Si O2"
_cell_formula_units_Z 152
_cell_length_a 22.752834
_cell_length_b 25.049607
_cell_length_c 13.569140
_cell_angle_alpha 90.000000
_cell_angle_beta 90.000000
_cell_angle_gamma 90.000000
_cell_volume 7733.725235
_symmetry_space_group_name_H-M "F D D D"
_symmetry_group_IT_number 70
_space_group.IT_coordinate_system_code '2'
_symmetry_cell_setting 'orthorhombic'
loop_
_space_group_symop_operation_xyz
x,y,z
1/4-x,1/4-y,z
x,1/4-y,1/4-z
1/4-x,y,1/4-z
-x,-y,-z
3/4+x,3/4+y,-z
-x,3/4+y,3/4+z
3/4+x,-y,3/4+z
x,1/2+y,1/2+z
1/4-x,3/4-y,1/2+z
x,3/4-y,3/4-z
1/4-x,1/2+y,3/4-z
-x,1/2-y,1/2-z
3/4+x,1/4+y,1/2-z
-x,1/4+y,1/4+z
3/4+x,1/2-y,1/4+z
1/2+x,y,1/2+z
3/4-x,1/4-y,1/2+z
1/2+x,1/4-y,3/4-z
3/4-x,y,3/4-z
1/2-x,-y,1/2-z
1/4+x,3/4+y,1/2-z
1/2-x,3/4+y,1/4+z
1/4+x,-y,1/4+z
1/2+x,1/2+y,z
3/4-x,3/4-y,z
1/2+x,3/4-y,1/4-z
3/4-x,1/2+y,1/4-z
1/2-x,1/2-y,-z
1/4+x,1/4+y,-z
1/2-x,1/4+y,3/4+z
1/4+x,1/2-y,3/4+z
loop_
_atom_site_type_symbol
_atom_site_label
_atom_site_fract_x
_atom_site_fract_y
_atom_site_fract_z
Si Si1 0.815613 0.903917 0.995055
Si Si2 0.809772 0.806898 0.542729
Si Si3 0.996983 0.054630 0.061836
Si Si4 0.829274 0.559991 0.784766
Si Si5 0.875000 0.375000 0.875000
Si Si6 0.391314 0.625000 0.125000
O O1 0.875000 0.875000 0.966154
O O2 0.831730 0.929519 0.098709
O O3 0.769425 0.854960 0.002986
O O4 0.788024 0.942640 0.910962
O O5 0.828619 0.746694 0.520342
O O6 0.739850 0.816010 0.556202
O O7 0.834919 0.840728 0.450687
O O8 0.933069 0.074661 0.097513
O O9 0.000000 0.000000 0.000000
O O10 0.875000 0.556971 0.875000
O O11 0.851601 0.607180 0.715511
#
# Coordination Sequence:
#
# PCOD9515622 Si02
#       6
#    32  32  32  32   8  16
#     4  10  21  43  63  93 134 166 222 272 327 406
#     4  11  24  41  69  94 132 182 225 285 338 407
#     4  10  22  41  66  97 130 169 212 278 346 407
#     4  11  23  45  63  93 135 176 222 284 343 404
#     4  12  22  44  68 106 128 182 240 270 344 424
#     4  10  23  42  63  95 132 165 218 276 328 414
#
# _framework density 19.654177000000001
#
# number of rings (size 3 to 8) (size 9 to 14) (size 15 to 20)
#    0.000    1.684    2.105    4.421    2.947    0.000 
#   15.158    0.000    0.000    0.000    0.000    0.000 
#    0.000    0.000    0.000    0.000    0.000    0.000 
#
# Total GULP energy -211710.998736 kJ/mol
# GULP energy per Si atom -5571.342072 kJ/mol
# Density = 1.960944 g / cm^3
# Si number density = 19.654177 Si / 1000 Ang^3
#
#
#
# Elastic Constant Matrix: (Units=GPa)
#
#
# Indices 1 2 3 4 5 6 
#
# 1 95.7867 24.8152 48.8676 0.0000 0.0000 0.0000
# 2 24.8152 70.3423 50.3345 0.0000 0.0000 0.0000
# 3 48.8676 50.3345 150.6967 0.0000 0.0000 0.0000
# 4 0.0000 0.0000 0.0000 48.0830 0.0000 0.0000
# 5 0.0000 0.0000 0.0000 0.0000 271.2662 0.0000
# 6 0.0000 0.0000 0.0000 0.0000 0.0000 4.7378
#
#
#
# Elastic Compliance Matrix: (Units=1/GPa)
#
#
# Indices 1 2 3 4 5 6 
#
# 1 0.012724 -0.002019 -0.003452 0.000000 0.000000 0.000000
# 2 -0.002019 0.019001 -0.005692 0.000000 0.000000 0.000000
# 3 -0.003452 -0.005692 0.009656 0.000000 0.000000 0.000000
# 4 0.000000 0.000000 0.000000 0.020797 0.000000 0.000000
# 5 0.000000 0.000000 0.000000 0.000000 0.003686 0.000000
# 6 0.000000 0.000000 0.000000 0.000000 0.000000 0.211069
#
#
# Mechanical properties :
#
#
# Convention : Reuss Voigt Hill
#
# Bulk Modulus (GPa) = 52.47551 62.76225 57.61888
# Shear Modulus (GPa) = 16.36063 77.67127 47.01595
#
# Velocity S-wave (km/s) = 2.88831 6.29323 4.89628
# Velocity P-wave (km/s) = 6.15471 9.20918 7.83229
#
# Compressibility (1/GPa) = 0.01905651
#
# Stress axis : x y z
#
# Youngs Moduli (GPa) = 78.59252 52.62774 103.55821
#
# Poissons Ratio (x) = 0.10624 0.35746
# Poissons Ratio (y) = 0.15866 0.58946
# Poissons Ratio (z) = 0.27129 0.29956
#
# Static dielectric constant tensor:
#      x y z
#    x 1.708950 0.000000 0.000000 
#    y 0.000000 1.737860 0.000000 
#    z 0.000000 0.000000 1.724610 
# 
# From -- ./inp_files/27636.got.cif
#   From: 2010.05.17/outbox.cif.g08.bks.cpg/sg70_14_cif.got.tgz:27636.got - 2010.06.03 15:57:51.
