data_PCOD9515575
_publ_section_title
;
Structure prediction by ZEFSAII (Michael W. Deem and Ramdas Pophale) SiO2 
 PCOD9515575
Probable space group: F D D D
;
_chemical_formula_sum "Si O2"
_cell_formula_units_Z 168
_cell_length_a 17.717331
_cell_length_b 22.839720
_cell_length_c 21.066724
_cell_angle_alpha 90.000000
_cell_angle_beta 90.000000
_cell_angle_gamma 90.000000
_cell_volume 8524.836922
_symmetry_space_group_name_H-M "F D D D"
_symmetry_group_IT_number 70
_space_group.IT_coordinate_system_code '2'
_symmetry_cell_setting 'orthorhombic'
loop_
_space_group_symop_operation_xyz
x,y,z
1/4-x,1/4-y,z
x,1/4-y,1/4-z
1/4-x,y,1/4-z
-x,-y,-z
3/4+x,3/4+y,-z
-x,3/4+y,3/4+z
3/4+x,-y,3/4+z
x,1/2+y,1/2+z
1/4-x,3/4-y,1/2+z
x,3/4-y,3/4-z
1/4-x,1/2+y,3/4-z
-x,1/2-y,1/2-z
3/4+x,1/4+y,1/2-z
-x,1/4+y,1/4+z
3/4+x,1/2-y,1/4+z
1/2+x,y,1/2+z
3/4-x,1/4-y,1/2+z
1/2+x,1/4-y,3/4-z
3/4-x,y,3/4-z
1/2-x,-y,1/2-z
1/4+x,3/4+y,1/2-z
1/2-x,3/4+y,1/4+z
1/4+x,-y,1/4+z
1/2+x,1/2+y,z
3/4-x,3/4-y,z
1/2+x,3/4-y,1/4-z
3/4-x,1/2+y,1/4-z
1/2-x,1/2-y,-z
1/4+x,1/4+y,-z
1/2-x,1/4+y,3/4+z
1/4+x,1/2-y,3/4+z
loop_
_atom_site_type_symbol
_atom_site_label
_atom_site_fract_x
_atom_site_fract_y
_atom_site_fract_z
Si Si1 0.875000 0.875000 0.375000
Si Si2 0.179928 0.866821 0.270372
Si Si3 0.952483 0.406506 0.587725
Si Si4 0.061382 0.900572 0.580365
Si Si5 0.592988 0.785169 0.375955
Si Si6 0.237148 0.525413 0.177774
O O1 0.818977 0.919058 0.334432
O O2 0.239897 0.887271 0.217858
O O3 0.098759 0.855096 0.237801
O O4 0.199038 0.808374 0.310358
O O5 0.169729 0.917427 0.321463
O O6 0.875000 0.375000 0.572722
O O7 0.937443 0.474446 0.599006
O O8 0.984578 0.382027 0.654547
O O9 0.125000 0.872233 0.625000
O O10 0.049294 0.967039 0.602430
O O11 0.681568 0.783535 0.394599
O O12 0.250000 0.500000 0.250000
#
# Coordination Sequence:
#
# PCOD9515575 Si02
#       6
#     8  32  32  32  32  32
#     4  12  28  44  72 104 136 184 226 274 354 404
#     4  10  23  43  65  92 135 174 219 282 336 405
#     4  11  23  40  67  96 129 179 228 277 338 403
#     4  10  21  42  62  92 135 172 217 276 338 400
#     4  11  23  43  65  98 133 175 230 277 340 403
#     4  12  24  42  65 100 134 173 227 279 335 414
#
# _framework density 19.707122999999999
#
# number of rings (size 3 to 8) (size 9 to 14) (size 15 to 20)
#    0.000    1.143    4.762    1.714    0.000    3.048 
#    0.000    3.810    0.000    0.000    0.000    0.000 
#    0.000    0.000    0.000    0.000    0.000    0.000 
#
# Total GULP energy -233939.476789 kJ/mol
# GULP energy per Si atom -5569.987543 kJ/mol
# Density = 1.966227 g / cm^3
# Si number density = 19.707123 Si / 1000 Ang^3
#
#
#
# Elastic Constant Matrix: (Units=GPa)
#
#
# Indices 1 2 3 4 5 6 
#
# 1 120.1684 53.7419 51.5481 0.0000 0.0000 0.0000
# 2 53.7419 142.0883 41.7281 0.0000 0.0000 0.0000
# 3 51.5481 41.7281 93.4821 0.0000 0.0000 0.0000
# 4 0.0000 0.0000 0.0000 6.2882 0.0000 0.0000
# 5 0.0000 0.0000 0.0000 0.0000 27.8264 0.0000
# 6 0.0000 0.0000 0.0000 0.0000 0.0000 37.9496
#
#
#
# Elastic Compliance Matrix: (Units=1/GPa)
#
#
# Indices 1 2 3 4 5 6 
#
# 1 0.011891 -0.002960 -0.005236 0.000000 0.000000 0.000000
# 2 -0.002960 0.008836 -0.002312 0.000000 0.000000 0.000000
# 3 -0.005236 -0.002312 0.014617 0.000000 0.000000 0.000000
# 4 0.000000 0.000000 0.000000 0.159028 0.000000 0.000000
# 5 0.000000 0.000000 0.000000 0.000000 0.035937 0.000000
# 6 0.000000 0.000000 0.000000 0.000000 0.000000 0.026351
#
#
# Mechanical properties :
#
#
# Convention : Reuss Voigt Hill
#
# Bulk Modulus (GPa) = 69.79226 72.19724 70.99475
# Shear Modulus (GPa) = 17.70208 28.32756 23.01482
#
# Velocity S-wave (km/s) = 3.00035 3.79546 3.42108
# Velocity P-wave (km/s) = 6.89162 7.47810 7.19084
#
# Compressibility (1/GPa) = 0.01432824
#
# Stress axis : x y z
#
# Youngs Moduli (GPa) = 84.09379 113.16734 68.41564
#
# Poissons Ratio (x) = 0.33498 0.35822
# Poissons Ratio (y) = 0.24892 0.15819
# Poissons Ratio (z) = 0.44031 0.26166
#
# Static dielectric constant tensor:
#      x y z
#    x 1.686390 0.000000 0.000000 
#    y 0.000000 1.711790 0.000000 
#    z 0.000000 0.000000 1.790320 
# 
# From -- ./inp_files/52243.got.cif
#   From: 2010.05.17/outbox.cif.g08.bks.cpg/sg70_27_cif.got.tgz:52243.got - 2010.06.03 15:57:51.
