data_PCOD9515386
_publ_section_title
;
Structure prediction by ZEFSAII (Michael W. Deem and Ramdas Pophale) SiO2 
 PCOD9515386
Probable space group: F D D D
;
_chemical_formula_sum "Si O2"
_cell_formula_units_Z 144
_cell_length_a 33.096705
_cell_length_b 7.322476
_cell_length_c 28.017334
_cell_angle_alpha 90.000000
_cell_angle_beta 90.000000
_cell_angle_gamma 90.000000
_cell_volume 6789.996077
_symmetry_space_group_name_H-M "F D D D"
_symmetry_group_IT_number 70
_space_group.IT_coordinate_system_code '2'
_symmetry_cell_setting 'orthorhombic'
loop_
_space_group_symop_operation_xyz
x,y,z
1/4-x,1/4-y,z
x,1/4-y,1/4-z
1/4-x,y,1/4-z
-x,-y,-z
3/4+x,3/4+y,-z
-x,3/4+y,3/4+z
3/4+x,-y,3/4+z
x,1/2+y,1/2+z
1/4-x,3/4-y,1/2+z
x,3/4-y,3/4-z
1/4-x,1/2+y,3/4-z
-x,1/2-y,1/2-z
3/4+x,1/4+y,1/2-z
-x,1/4+y,1/4+z
3/4+x,1/2-y,1/4+z
1/2+x,y,1/2+z
3/4-x,1/4-y,1/2+z
1/2+x,1/4-y,3/4-z
3/4-x,y,3/4-z
1/2-x,-y,1/2-z
1/4+x,3/4+y,1/2-z
1/2-x,3/4+y,1/4+z
1/4+x,-y,1/4+z
1/2+x,1/2+y,z
3/4-x,3/4-y,z
1/2+x,3/4-y,1/4-z
3/4-x,1/2+y,1/4-z
1/2-x,1/2-y,-z
1/4+x,1/4+y,-z
1/2-x,1/4+y,3/4+z
1/4+x,1/2-y,3/4+z
loop_
_atom_site_type_symbol
_atom_site_label
_atom_site_fract_x
_atom_site_fract_y
_atom_site_fract_z
Si Si1 0.803355 0.949661 0.183525
Si Si2 0.310325 0.371583 0.078077
Si Si3 0.514134 0.602244 0.178161
Si Si4 0.375000 0.375000 0.493281
Si Si5 0.840312 0.001030 0.768695
O O1 0.822082 0.871711 0.133861
O O2 0.761000 0.835848 0.189049
O O3 0.836810 0.929965 0.224195
O O4 0.798577 0.167680 0.180816
O O5 0.270515 0.252723 0.073074
O O6 0.339146 0.275596 0.039169
O O7 0.532475 0.625000 0.125000
O O8 0.547892 0.667792 0.214827
O O9 0.354879 0.547456 0.467126
O O10 0.875000 0.875000 0.788833
#
# Coordination Sequence:
#
# PCOD9515386 Si02
#       5
#    32  32  32  16  32
#     4  10  22  37  63  94 127 166 204 259 324 382
#     4  10  21  38  62  94 125 163 210 259 316 384
#     4  10  23  44  65  87 125 173 217 260 316 380
#     4  12  24  36  60  99 132 164 201 262 324 378
#     4  12  25  40  61  96 130 169 213 262 318 377
#
# _framework density 21.20767
#
# number of rings (size 3 to 8) (size 9 to 14) (size 15 to 20)
#    0.000    1.333    4.444    0.667    1.556    3.111 
#    0.000    0.000    0.000    1.333    0.000    0.000 
#    0.000    0.000    0.000    0.000    0.000    0.000 
#
# Total GULP energy -200560.293161 kJ/mol
# GULP energy per Si atom -5571.119254 kJ/mol
# Density = 2.115940 g / cm^3
# Si number density = 21.207670 Si / 1000 Ang^3
#
#
#
# Elastic Constant Matrix: (Units=GPa)
#
#
# Indices 1 2 3 4 5 6 
#
# 1 26.3348 4.1619 -6.5333 -0.0001 -0.0002 -0.0002
# 2 4.1619 107.2433 -8.6031 0.0000 -0.0005 0.0000
# 3 -6.5333 -8.6031 27.0342 0.0004 0.0000 0.0001
# 4 -0.0001 0.0000 0.0004 -126.1646 0.0001 0.0011
# 5 -0.0002 -0.0005 0.0000 0.0001 -1.9061 0.0002
# 6 -0.0002 0.0000 0.0001 0.0011 0.0002 28.8214
#
#
#
# Elastic Compliance Matrix: (Units=1/GPa)
#
#
# Indices 1 2 3 4 5 6 
#
# 1 0.040462 -0.000806 0.009522 0.000000 -0.000005 0.000000
# 2 -0.000806 0.009585 0.002855 0.000000 -0.000002 0.000000
# 3 0.009522 0.002855 0.040200 0.000000 -0.000002 0.000000
# 4 0.000000 0.000000 0.000000 -0.007926 -0.000001 0.000000
# 5 -0.000005 -0.000002 -0.000002 -0.000001 -0.524644 0.000003
# 6 0.000000 0.000000 0.000000 0.000000 0.000003 0.034696
#
#
# Mechanical properties :
#
#
# Convention : Reuss Voigt Hill
#
# Bulk Modulus (GPa) = 8.81925 15.40705 12.11315
# Shear Modulus (GPa) = -12.72355 -8.41073 -10.56714
#
# Velocity S-wave (km/s) = -2.45205 -1.99361 -2.23462
# Velocity P-wave (km/s) = 1.96193 1.40758 0.96640
#
# Compressibility (1/GPa) = 0.11338837
#
# Stress axis : x y z
#
# Youngs Moduli (GPa) = 24.71439 104.33033 24.87569
#
# Poissons Ratio (x) = 0.08414 -0.23686
# Poissons Ratio (y) = 0.01993 -0.07103
# Poissons Ratio (z) = -0.23532 -0.29790
#
# Static dielectric constant tensor:
#      x y z
#    x 1.839700 0.000000 0.000000 
#    y 0.000000 1.736900 0.000000 
#    z 0.000000 0.000000 1.924390 
# 
# From -- ./inp_files/68775.got.cif
#   From: 2010.05.17/outbox.cif.g08.bks.cpg/sg70_35_cif.got.tgz:68775.got - 2010.06.03 15:57:51.
