data_PCOD9515521
_publ_section_title
;
Structure prediction by ZEFSAII (Michael W. Deem and Ramdas Pophale) SiO2 
 PCOD9515521
Probable space group: F D D D
;
_chemical_formula_sum "Si O2"
_cell_formula_units_Z 176
_cell_length_a 22.453040
_cell_length_b 15.660752
_cell_length_c 23.962245
_cell_angle_alpha 90.000000
_cell_angle_beta 90.000000
_cell_angle_gamma 90.000000
_cell_volume 8425.879939
_symmetry_space_group_name_H-M "F D D D"
_symmetry_group_IT_number 70
_space_group.IT_coordinate_system_code '2'
_symmetry_cell_setting 'orthorhombic'
loop_
_space_group_symop_operation_xyz
x,y,z
1/4-x,1/4-y,z
x,1/4-y,1/4-z
1/4-x,y,1/4-z
-x,-y,-z
3/4+x,3/4+y,-z
-x,3/4+y,3/4+z
3/4+x,-y,3/4+z
x,1/2+y,1/2+z
1/4-x,3/4-y,1/2+z
x,3/4-y,3/4-z
1/4-x,1/2+y,3/4-z
-x,1/2-y,1/2-z
3/4+x,1/4+y,1/2-z
-x,1/4+y,1/4+z
3/4+x,1/2-y,1/4+z
1/2+x,y,1/2+z
3/4-x,1/4-y,1/2+z
1/2+x,1/4-y,3/4-z
3/4-x,y,3/4-z
1/2-x,-y,1/2-z
1/4+x,3/4+y,1/2-z
1/2-x,3/4+y,1/4+z
1/4+x,-y,1/4+z
1/2+x,1/2+y,z
3/4-x,3/4-y,z
1/2+x,3/4-y,1/4-z
3/4-x,1/2+y,1/4-z
1/2-x,1/2-y,-z
1/4+x,1/4+y,-z
1/2-x,1/4+y,3/4+z
1/4+x,1/2-y,3/4+z
loop_
_atom_site_type_symbol
_atom_site_label
_atom_site_fract_x
_atom_site_fract_y
_atom_site_fract_z
Si Si1 0.860966 0.517071 0.470844
Si Si2 0.151947 0.376293 0.808996
Si Si3 0.875000 0.158749 0.875000
Si Si4 0.223827 0.537049 0.159686
Si Si5 0.214090 0.616123 0.691537
Si Si6 0.088259 0.541652 0.969324
O O1 0.858902 0.554825 0.532228
O O2 0.867984 0.594828 0.427546
O O3 0.803498 0.459729 0.462034
O O4 0.916593 0.453369 0.461475
O O5 0.147850 0.375000 0.875000
O O6 0.218641 0.403439 0.792953
O O7 0.134762 0.286107 0.782830
O O8 0.932173 0.221049 0.874542
O O9 0.232410 0.625000 0.125000
O O10 0.189166 0.554495 0.218610
O O11 0.284612 0.489587 0.178816
O O12 0.209050 0.625000 0.625000
O O13 0.125000 0.625000 0.951787
#
# Coordination Sequence:
#
# PCOD9515521 Si02
#       6
#    32  32  16  32  32  32
#     4  11  21  41  66 102 126 177 223 276 332 408
#     4  11  25  43  64  95 141 178 215 275 346 410
#     4  12  21  39  72  98 126 170 238 279 333 400
#     4  11  25  44  69  99 136 180 232 290 338 410
#     4  10  21  40  70  97 137 166 221 282 342 403
#     4  11  25  44  68  99 135 181 229 283 350 411
#
# _framework density 20.888027000000001
#
# number of rings (size 3 to 8) (size 9 to 14) (size 15 to 20)
#    0.000    1.091    3.636    3.000    2.545    0.000 
#    6.545    0.000    0.000    0.000    0.000    0.000 
#    0.000    0.000    0.000    0.000    0.000    0.000 
#
# Total GULP energy -245878.039047 kJ/mol
# GULP energy per Si atom -5588.137251 kJ/mol
# Density = 2.084048 g / cm^3
# Si number density = 20.888027 Si / 1000 Ang^3
#
#
#
# Elastic Constant Matrix: (Units=GPa)
#
#
# Indices 1 2 3 4 5 6 
#
# 1 31.1061 24.4140 20.8800 0.0000 0.0000 0.0000
# 2 24.4140 126.9207 41.8733 0.0000 0.0000 0.0000
# 3 20.8800 41.8733 71.1326 0.0000 0.0000 0.0000
# 4 0.0000 0.0000 0.0000 26.1928 0.0000 0.0000
# 5 0.0000 0.0000 0.0000 0.0000 19.9486 0.0000
# 6 0.0000 0.0000 0.0000 0.0000 0.0000 31.9970
#
#
#
# Elastic Compliance Matrix: (Units=1/GPa)
#
#
# Indices 1 2 3 4 5 6 
#
# 1 0.042481 -0.005035 -0.009505 0.000000 0.000000 0.000000
# 2 -0.005035 0.010375 -0.004629 0.000000 0.000000 0.000000
# 3 -0.009505 -0.004629 0.019574 0.000000 0.000000 0.000000
# 4 0.000000 0.000000 0.000000 0.038178 0.000000 0.000000
# 5 0.000000 0.000000 0.000000 0.000000 0.050129 0.000000
# 6 0.000000 0.000000 0.000000 0.000000 0.000000 0.031253
#
#
# Mechanical properties :
#
#
# Convention : Reuss Voigt Hill
#
# Bulk Modulus (GPa) = 29.33512 44.83266 37.08389
# Shear Modulus (GPa) = 20.68746 25.09380 22.89063
#
# Velocity S-wave (km/s) = 3.15047 3.46981 3.31399
# Velocity P-wave (km/s) = 5.22575 6.12884 5.69522
#
# Compressibility (1/GPa) = 0.03408883
#
# Stress axis : x y z
#
# Youngs Moduli (GPa) = 23.54014 96.38762 51.08948
#
# Poissons Ratio (x) = 0.48535 0.48563
# Poissons Ratio (y) = 0.11853 0.23650
# Poissons Ratio (z) = 0.22376 0.44620
#
# Static dielectric constant tensor:
#      x y z
#    x 1.752450 0.000000 0.000000 
#    y 0.000000 1.709370 0.000000 
#    z 0.000000 0.000000 1.844010 
# 
# From -- ./inp_files/53631.got.cif
#   From: 2010.05.17/outbox.cif.g08.bks.cpg/sg70_27_cif.got.tgz:53631.got - 2010.06.03 15:57:51.
