data_PCOD9515396
_publ_section_title
;
Structure prediction by ZEFSAII (Michael W. Deem and Ramdas Pophale) SiO2 
 PCOD9515396
Probable space group: F D D D
;
_chemical_formula_sum "Si O2"
_cell_formula_units_Z 160
_cell_length_a 18.590589
_cell_length_b 16.588459
_cell_length_c 20.416676
_cell_angle_alpha 90.000000
_cell_angle_beta 90.000000
_cell_angle_gamma 90.000000
_cell_volume 6296.282856
_symmetry_space_group_name_H-M "F D D D"
_symmetry_group_IT_number 70
_space_group.IT_coordinate_system_code '2'
_symmetry_cell_setting 'orthorhombic'
loop_
_space_group_symop_operation_xyz
x,y,z
1/4-x,1/4-y,z
x,1/4-y,1/4-z
1/4-x,y,1/4-z
-x,-y,-z
3/4+x,3/4+y,-z
-x,3/4+y,3/4+z
3/4+x,-y,3/4+z
x,1/2+y,1/2+z
1/4-x,3/4-y,1/2+z
x,3/4-y,3/4-z
1/4-x,1/2+y,3/4-z
-x,1/2-y,1/2-z
3/4+x,1/4+y,1/2-z
-x,1/4+y,1/4+z
3/4+x,1/2-y,1/4+z
1/2+x,y,1/2+z
3/4-x,1/4-y,1/2+z
1/2+x,1/4-y,3/4-z
3/4-x,y,3/4-z
1/2-x,-y,1/2-z
1/4+x,3/4+y,1/2-z
1/2-x,3/4+y,1/4+z
1/4+x,-y,1/4+z
1/2+x,1/2+y,z
3/4-x,3/4-y,z
1/2+x,3/4-y,1/4-z
3/4-x,1/2+y,1/4-z
1/2-x,1/2-y,-z
1/4+x,1/4+y,-z
1/2-x,1/4+y,3/4+z
1/4+x,1/2-y,3/4+z
loop_
_atom_site_type_symbol
_atom_site_label
_atom_site_fract_x
_atom_site_fract_y
_atom_site_fract_z
Si Si1 0.574522 0.558850 0.523172
Si Si2 0.046643 0.718724 0.603677
Si Si3 0.092040 0.793939 0.830818
Si Si4 0.306263 0.076638 0.985643
Si Si5 0.725866 0.209179 0.889766
O O1 0.625000 0.625000 0.553127
O O2 0.624944 0.482038 0.507678
O O3 0.545322 0.592261 0.453658
O O4 0.512214 0.534505 0.572436
O O5 0.051456 0.625000 0.625000
O O6 0.125000 0.752027 0.625000
O O7 0.980389 0.750796 0.647019
O O8 0.009785 0.709349 0.530998
O O9 0.101379 0.875000 0.875000
O O10 0.079377 0.835231 0.761070
O O11 0.157787 0.736891 0.847639
O O12 0.282622 0.075055 0.910756
#
# Coordination Sequence:
#
# PCOD9515396 Si02
#       5
#    32  32  32  32  32
#     4  11  25  40  61  95 136 174 220 269 335 402
#     4   8  15  34  61  88 119 162 212 261 322 392
#     4   9  18  38  64  91 125 171 212 272 333 387
#     4  10  21  38  63  95 124 171 229 268 326 404
#     4  11  23  41  66  95 132 175 220 279 332 397
#
# _framework density 25.411819000000001
#
# number of rings (size 3 to 8) (size 9 to 14) (size 15 to 20)
#    0.000    2.600    4.000    0.600    2.800    0.800 
#    7.200    3.000    0.000    0.000    0.000    0.000 
#    0.000    0.000    0.000    0.000    0.000    0.000 
#
# Total GULP energy -223453.987564 kJ/mol
# GULP energy per Si atom -5586.349689 kJ/mol
# Density = 2.535398 g / cm^3
# Si number density = 25.411819 Si / 1000 Ang^3
#
#
#
# Elastic Constant Matrix: (Units=GPa)
#
#
# Indices 1 2 3 4 5 6 
#
# 1 168.4628 20.3830 56.0022 0.0000 0.0000 0.0000
# 2 20.3830 36.4348 22.4201 0.0000 0.0000 0.0000
# 3 56.0022 22.4201 172.7793 0.0000 0.0000 0.0000
# 4 0.0000 0.0000 0.0000 11.0438 0.0000 0.0000
# 5 0.0000 0.0000 0.0000 0.0000 28.1615 0.0000
# 6 0.0000 0.0000 0.0000 0.0000 0.0000 26.7400
#
#
#
# Elastic Compliance Matrix: (Units=1/GPa)
#
#
# Indices 1 2 3 4 5 6 
#
# 1 0.006888 -0.002695 -0.001883 0.000000 0.000000 0.000000
# 2 -0.002695 0.030882 -0.003134 0.000000 0.000000 0.000000
# 3 -0.001883 -0.003134 0.006805 0.000000 0.000000 0.000000
# 4 0.000000 0.000000 0.000000 0.090548 0.000000 0.000000
# 5 0.000000 0.000000 0.000000 0.000000 0.035509 0.000000
# 6 0.000000 0.000000 0.000000 0.000000 0.000000 0.037397
#
#
# Mechanical properties :
#
#
# Convention : Reuss Voigt Hill
#
# Bulk Modulus (GPa) = 34.30315 63.92081 49.11198
# Shear Modulus (GPa) = 21.44357 31.78052 26.61204
#
# Velocity S-wave (km/s) = 2.90805 3.54025 3.23961
# Velocity P-wave (km/s) = 4.98035 6.47454 5.77597
#
# Compressibility (1/GPa) = 0.02915184
#
# Stress axis : x y z
#
# Youngs Moduli (GPa) = 145.17976 32.38107 146.95757
#
# Poissons Ratio (x) = 0.08726 0.27671
# Poissons Ratio (y) = 0.39123 0.46055
# Poissons Ratio (z) = 0.27336 0.10148
#
# Static dielectric constant tensor:
#      x y z
#    x 2.061340 0.000000 0.000000 
#    y 0.000000 2.041280 0.000000 
#    z 0.000000 0.000000 2.074080 
# 
# From -- ./inp_files/36296.got.cif
#   From: 2010.05.17/outbox.cif.g08.bks.cpg/sg70_19_cif.got.tgz:36296.got - 2010.06.03 15:57:51.
