data_PCOD9515390
_publ_section_title
;
Structure prediction by ZEFSAII (Michael W. Deem and Ramdas Pophale) SiO2 
 PCOD9515390
Probable space group: F D D D
;
_chemical_formula_sum "Si O2"
_cell_formula_units_Z 96
_cell_length_a 31.767664
_cell_length_b 16.302187
_cell_length_c 6.428304
_cell_angle_alpha 90.000000
_cell_angle_beta 90.000000
_cell_angle_gamma 90.000000
_cell_volume 3329.105498
_symmetry_space_group_name_H-M "F D D D"
_symmetry_group_IT_number 70
_space_group.IT_coordinate_system_code '2'
_symmetry_cell_setting 'orthorhombic'
loop_
_space_group_symop_operation_xyz
x,y,z
1/4-x,1/4-y,z
x,1/4-y,1/4-z
1/4-x,y,1/4-z
-x,-y,-z
3/4+x,3/4+y,-z
-x,3/4+y,3/4+z
3/4+x,-y,3/4+z
x,1/2+y,1/2+z
1/4-x,3/4-y,1/2+z
x,3/4-y,3/4-z
1/4-x,1/2+y,3/4-z
-x,1/2-y,1/2-z
3/4+x,1/4+y,1/2-z
-x,1/4+y,1/4+z
3/4+x,1/2-y,1/4+z
1/2+x,y,1/2+z
3/4-x,1/4-y,1/2+z
1/2+x,1/4-y,3/4-z
3/4-x,y,3/4-z
1/2-x,-y,1/2-z
1/4+x,3/4+y,1/2-z
1/2-x,3/4+y,1/4+z
1/4+x,-y,1/4+z
1/2+x,1/2+y,z
3/4-x,3/4-y,z
1/2+x,3/4-y,1/4-z
3/4-x,1/2+y,1/4-z
1/2-x,1/2-y,-z
1/4+x,1/4+y,-z
1/2-x,1/4+y,3/4+z
1/4+x,1/2-y,3/4+z
loop_
_atom_site_type_symbol
_atom_site_label
_atom_site_fract_x
_atom_site_fract_y
_atom_site_fract_z
Si Si1 0.099254 0.209047 0.826793
Si Si2 0.565314 0.939260 0.546474
Si Si3 0.276310 0.351488 0.117150
O O1 0.125000 0.125000 0.889817
O O2 0.125000 0.237998 0.625000
O O3 0.091798 0.273093 0.011301
O O4 0.052501 0.174794 0.777733
O O5 0.582045 0.875000 0.375000
O O6 0.523048 0.904377 0.655078
O O7 0.548621 0.013352 0.398726
O O8 0.278836 0.375000 0.875000
#
# Coordination Sequence:
#
# PCOD9515390 Si02
#       3
#    32  32  32
#     4  10  21  38  63 104 170 229 263 316 428 522
#     4   9  17  34  67 110 149 205 281 352 399 472
#     4   8  16  33  64 105 152 206 269 339 412 495
#
# _framework density 28.836576999999998
#
# number of rings (size 3 to 8) (size 9 to 14) (size 15 to 20)
#    0.000    3.000    0.000    2.000    0.000    6.000 
#    0.000    6.667    7.333    6.000    0.000    0.000 
#    0.000   12.000    0.000   87.333    0.000    0.000 
#
# Total GULP energy -134248.372135 kJ/mol
# GULP energy per Si atom -5593.682172 kJ/mol
# Density = 2.877094 g / cm^3
# Si number density = 28.836577 Si / 1000 Ang^3
#
#
#
# Elastic Constant Matrix: (Units=GPa)
#
#
# Indices 1 2 3 4 5 6 
#
# 1 186.5695 74.9011 97.9720 0.0000 0.0000 0.0000
# 2 74.9011 159.0254 120.2344 0.0000 0.0000 0.0000
# 3 97.9720 120.2344 235.2801 0.0001 0.0001 -0.0001
# 4 0.0000 0.0000 0.0001 88.0293 0.0000 0.0000
# 5 0.0000 0.0000 0.0001 0.0000 29.2810 0.0000
# 6 0.0000 0.0000 -0.0001 0.0000 0.0000 33.1091
#
#
#
# Elastic Compliance Matrix: (Units=1/GPa)
#
#
# Indices 1 2 3 4 5 6 
#
# 1 0.007171 -0.001825 -0.002053 0.000000 0.000000 0.000000
# 2 -0.001825 0.010712 -0.004714 0.000000 0.000000 0.000000
# 3 -0.002053 -0.004714 0.007514 0.000000 0.000000 0.000000
# 4 0.000000 0.000000 0.000000 0.011360 0.000000 0.000000
# 5 0.000000 0.000000 0.000000 0.000000 0.034152 0.000000
# 6 0.000000 0.000000 0.000000 0.000000 0.000000 0.030203
#
#
# Mechanical properties :
#
#
# Convention : Reuss Voigt Hill
#
# Bulk Modulus (GPa) = 121.77015 129.67668 125.72342
# Shear Modulus (GPa) = 41.31034 49.26838 45.28936
#
# Velocity S-wave (km/s) = 3.78903 4.13793 3.96732
# Velocity P-wave (km/s) = 7.83975 8.23997 8.04235
#
# Compressibility (1/GPa) = 0.00821219
#
# Stress axis : x y z
#
# Youngs Moduli (GPa) = 139.45294 93.35147 133.07764
#
# Poissons Ratio (x) = 0.17037 0.27326
# Poissons Ratio (y) = 0.25450 0.62737
# Poissons Ratio (z) = 0.28635 0.44008
#
# Static dielectric constant tensor:
#      x y z
#    x 2.370610 0.000000 0.000000 
#    y 0.000000 2.270240 0.000000 
#    z 0.000000 0.000000 2.367210 
# 
# From -- ./inp_files/20134.got.cif
#   From: 2010.05.17/outbox.cif.g08.bks.cpg/sg70_11_cif.got.tgz:20134.got - 2010.06.03 15:57:51.
