data_PCOD9515010
_publ_section_title
;
Structure prediction by ZEFSAII (Michael W. Deem and Ramdas Pophale) SiO2 
 PCOD9515010
Probable space group: F D D D
;
_chemical_formula_sum "Si O2"
_cell_formula_units_Z 176
_cell_length_a 23.967941
_cell_length_b 26.691892
_cell_length_c 14.678488
_cell_angle_alpha 90.000000
_cell_angle_beta 90.000000
_cell_angle_gamma 90.000000
_cell_volume 9390.558186
_symmetry_space_group_name_H-M "F D D D"
_symmetry_group_IT_number 70
_space_group.IT_coordinate_system_code '2'
_symmetry_cell_setting 'orthorhombic'
loop_
_space_group_symop_operation_xyz
x,y,z
1/4-x,1/4-y,z
x,1/4-y,1/4-z
1/4-x,y,1/4-z
-x,-y,-z
3/4+x,3/4+y,-z
-x,3/4+y,3/4+z
3/4+x,-y,3/4+z
x,1/2+y,1/2+z
1/4-x,3/4-y,1/2+z
x,3/4-y,3/4-z
1/4-x,1/2+y,3/4-z
-x,1/2-y,1/2-z
3/4+x,1/4+y,1/2-z
-x,1/4+y,1/4+z
3/4+x,1/2-y,1/4+z
1/2+x,y,1/2+z
3/4-x,1/4-y,1/2+z
1/2+x,1/4-y,3/4-z
3/4-x,y,3/4-z
1/2-x,-y,1/2-z
1/4+x,3/4+y,1/2-z
1/2-x,3/4+y,1/4+z
1/4+x,-y,1/4+z
1/2+x,1/2+y,z
3/4-x,3/4-y,z
1/2+x,3/4-y,1/4-z
3/4-x,1/2+y,1/4-z
1/2-x,1/2-y,-z
1/4+x,1/4+y,-z
1/2-x,1/4+y,3/4+z
1/4+x,1/2-y,3/4+z
loop_
_atom_site_type_symbol
_atom_site_label
_atom_site_fract_x
_atom_site_fract_y
_atom_site_fract_z
Si Si1 0.664972 0.375000 0.375000
Si Si2 0.375000 0.554500 0.375000
Si Si3 0.522598 0.368980 0.066105
Si Si4 0.875000 0.785512 0.875000
Si Si5 0.258512 0.017114 0.354627
Si Si6 0.597781 0.174922 0.433264
Si Si7 0.358048 0.232026 0.177186
O O1 0.702404 0.378327 0.284553
O O2 0.631519 0.323147 0.365315
O O3 0.320618 0.590117 0.378672
O O4 0.372650 0.522275 0.466875
O O5 0.507792 0.422863 0.107788
O O6 0.467423 0.335881 0.057527
O O7 0.930825 0.752666 0.882544
O O8 0.876348 0.817049 0.782115
O O9 0.250000 0.000000 0.250000
O O10 0.207741 0.993600 0.411643
O O11 0.625000 0.125000 0.391355
O O12 0.610135 0.224154 0.374983
#
# Coordination Sequence:
#
# PCOD9515010 Si02
#       7
#    16  16  32  16  32  32  32
#     4  10  20  38  65  90 130 161 206 266 332 380
#     4  10  25  44  63  85 130 184 229 258 306 382
#     4  11  22  38  63  94 124 171 210 269 325 392
#     4  12  22  34  62  97 132 167 197 255 344 414
#     4  12  21  39  63  99 133 164 207 270 329 389
#     4  12  24  37  64  97 130 162 209 268 339 393
#     4  11  23  43  63  92 132 172 214 269 317 381
#
# _framework density 18.742229999999999
#
# number of rings (size 3 to 8) (size 9 to 14) (size 15 to 20)
#    0.000    0.727    5.455    3.000    2.545    2.182 
#    0.000    0.455    0.000    2.182    0.000    0.000 
#    0.000    0.000    0.000    0.000    0.000    0.000 
#
# Total GULP energy -245954.413929 kJ/mol
# GULP energy per Si atom -5589.873044 kJ/mol
# Density = 1.869957 g / cm^3
# Si number density = 18.742230 Si / 1000 Ang^3
#
#
#
# Elastic Constant Matrix: (Units=GPa)
#
#
# Indices 1 2 3 4 5 6 
#
# 1 72.6156 26.3624 33.4355 0.0000 0.0000 0.0000
# 2 26.3624 150.0509 58.8583 0.0000 0.0000 0.0000
# 3 33.4355 58.8583 115.7006 0.0000 0.0000 0.0000
# 4 0.0000 0.0000 0.0000 25.2513 0.0000 0.0000
# 5 0.0000 0.0000 0.0000 0.0000 29.0554 0.0000
# 6 0.0000 0.0000 0.0000 0.0000 0.0000 26.7792
#
#
#
# Elastic Compliance Matrix: (Units=1/GPa)
#
#
# Indices 1 2 3 4 5 6 
#
# 1 0.016071 -0.001251 -0.004008 0.000000 0.000000 0.000000
# 2 -0.001251 0.008423 -0.003923 0.000000 0.000000 0.000000
# 3 -0.004008 -0.003923 0.011797 0.000000 0.000000 0.000000
# 4 0.000000 0.000000 0.000000 0.039602 0.000000 0.000000
# 5 0.000000 0.000000 0.000000 0.000000 0.034417 0.000000
# 6 0.000000 0.000000 0.000000 0.000000 0.000000 0.037342
#
#
# Mechanical properties :
#
#
# Convention : Reuss Voigt Hill
#
# Bulk Modulus (GPa) = 55.78423 63.96438 59.87430
# Shear Modulus (GPa) = 29.07107 30.86458 29.96783
#
# Velocity S-wave (km/s) = 3.94267 4.06247 4.00302
# Velocity P-wave (km/s) = 7.11019 7.49717 7.30624
#
# Compressibility (1/GPa) = 0.01792621
#
# Stress axis : x y z
#
# Youngs Moduli (GPa) = 62.22495 118.71922 84.76760
#
# Poissons Ratio (x) = 0.14858 0.33971
# Poissons Ratio (y) = 0.07787 0.33257
# Poissons Ratio (z) = 0.24937 0.46578
#
# Static dielectric constant tensor:
#      x y z
#    x 1.655030 0.000000 0.000000 
#    y 0.000000 1.669730 0.000000 
#    z 0.000000 0.000000 1.636770 
# 
# From -- ./inp_files/28992.got.cif
#   From: 2010.05.17/outbox.cif.g08.bks.cpg/sg70_15_cif.got.tgz:28992.got - 2010.06.03 15:57:51.
