data_PCOD9515267
_publ_section_title
;
Structure prediction by ZEFSAII (Michael W. Deem and Ramdas Pophale) SiO2 
 PCOD9515267
Probable space group: F D D D
;
_chemical_formula_sum "Si O2"
_cell_formula_units_Z 176
_cell_length_a 24.047507
_cell_length_b 12.699986
_cell_length_c 29.265100
_cell_angle_alpha 90.000000
_cell_angle_beta 90.000000
_cell_angle_gamma 90.000000
_cell_volume 8937.649401
_symmetry_space_group_name_H-M "F D D D"
_symmetry_group_IT_number 70
_space_group.IT_coordinate_system_code '2'
_symmetry_cell_setting 'orthorhombic'
loop_
_space_group_symop_operation_xyz
x,y,z
1/4-x,1/4-y,z
x,1/4-y,1/4-z
1/4-x,y,1/4-z
-x,-y,-z
3/4+x,3/4+y,-z
-x,3/4+y,3/4+z
3/4+x,-y,3/4+z
x,1/2+y,1/2+z
1/4-x,3/4-y,1/2+z
x,3/4-y,3/4-z
1/4-x,1/2+y,3/4-z
-x,1/2-y,1/2-z
3/4+x,1/4+y,1/2-z
-x,1/4+y,1/4+z
3/4+x,1/2-y,1/4+z
1/2+x,y,1/2+z
3/4-x,1/4-y,1/2+z
1/2+x,1/4-y,3/4-z
3/4-x,y,3/4-z
1/2-x,-y,1/2-z
1/4+x,3/4+y,1/2-z
1/2-x,3/4+y,1/4+z
1/4+x,-y,1/4+z
1/2+x,1/2+y,z
3/4-x,3/4-y,z
1/2+x,3/4-y,1/4-z
3/4-x,1/2+y,1/4-z
1/2-x,1/2-y,-z
1/4+x,1/4+y,-z
1/2-x,1/4+y,3/4+z
1/4+x,1/2-y,3/4+z
loop_
_atom_site_type_symbol
_atom_site_label
_atom_site_fract_x
_atom_site_fract_y
_atom_site_fract_z
Si Si1 0.233297 0.629607 0.457764
Si Si2 0.092362 0.940595 0.991419
Si Si3 0.901457 0.491385 0.328794
Si Si4 0.125000 0.625000 0.894705
Si Si5 0.073277 0.306512 0.916416
Si Si6 0.024090 0.495117 0.362105
O O1 0.180760 0.692351 0.478954
O O2 0.285427 0.636638 0.491818
O O3 0.219783 0.509084 0.446668
O O4 0.241140 0.694176 0.409898
O O5 0.129672 0.896021 0.949980
O O6 0.132175 0.946465 0.034793
O O7 0.875000 0.538558 0.375000
O O8 0.875000 0.375000 0.325494
O O9 0.967249 0.483941 0.334277
O O10 0.104249 0.533482 0.861819
O O11 0.069692 0.682164 0.914127
O O12 0.049122 0.375000 0.875000
O O13 0.041767 0.375000 0.375000
#
# Coordination Sequence:
#
# PCOD9515267 Si02
#       6
#    32  32  32  16  32  32
#     4  10  21  34  58  89 128 165 201 247 323 392
#     4  11  20  36  56  91 129 158 199 257 321 386
#     4  11  19  31  54  93 128 155 192 252 334 390
#     4  10  22  36  52  82 117 170 211 242 306 378
#     4  11  21  38  57  85 122 164 209 251 313 377
#     4  11  19  34  55  88 123 164 202 252 315 378
#
# _framework density 19.691977999999999
#
# number of rings (size 3 to 8) (size 9 to 14) (size 15 to 20)
#    0.000    1.273    7.273    1.636    0.000    1.455 
#    0.000    0.000    0.000    4.364    0.000    6.364 
#    0.000    0.000    0.000    0.000    0.000    0.000 
#
# Total GULP energy -245257.194790 kJ/mol
# GULP energy per Si atom -5574.027154 kJ/mol
# Density = 1.964716 g / cm^3
# Si number density = 19.691978 Si / 1000 Ang^3
#
#
#
# Elastic Constant Matrix: (Units=GPa)
#
#
# Indices 1 2 3 4 5 6 
#
# 1 133.8087 37.0281 41.8442 0.0000 0.0000 0.0000
# 2 37.0281 43.7913 27.6822 0.0000 0.0000 0.0000
# 3 41.8442 27.6822 87.2641 0.0000 0.0000 0.0000
# 4 0.0000 0.0000 0.0000 30.5858 0.0000 0.0000
# 5 0.0000 0.0000 0.0000 0.0000 -1.3871 0.0000
# 6 0.0000 0.0000 0.0000 0.0000 0.0000 28.9384
#
#
#
# Elastic Compliance Matrix: (Units=1/GPa)
#
#
# Indices 1 2 3 4 5 6 
#
# 1 0.010243 -0.006950 -0.002707 0.000000 0.000000 0.000000
# 2 -0.006950 0.033279 -0.007224 0.000000 0.000000 0.000000
# 3 -0.002707 -0.007224 0.015049 0.000000 0.000000 0.000000
# 4 0.000000 0.000000 0.000000 0.032695 0.000000 0.000000
# 5 0.000000 0.000000 0.000000 0.000000 -0.720946 0.000000
# 6 0.000000 0.000000 0.000000 0.000000 0.000000 0.034556
#
#
# Mechanical properties :
#
#
# Convention : Reuss Voigt Hill
#
# Bulk Modulus (GPa) = 40.30827 53.10813 46.70820
# Shear Modulus (GPa) = -9.04010 22.18139 6.57065
#
# Velocity S-wave (km/s) = -2.14493 3.35986 1.82865
# Velocity P-wave (km/s) = 3.79204 6.48687 5.31314
#
# Compressibility (1/GPa) = 0.02480880
#
# Stress axis : x y z
#
# Youngs Moduli (GPa) = 97.62682 30.04908 66.44864
#
# Poissons Ratio (x) = 0.20884 0.17988
# Poissons Ratio (y) = 0.67850 0.48004
# Poissons Ratio (z) = 0.26428 0.21708
#
# Static dielectric constant tensor:
#      x y z
#    x 1.772720 0.000000 0.000000 
#    y 0.000000 3.306770 0.000000 
#    z 0.000000 0.000000 1.748710 
# 
# From -- ./inp_files/61104.got.cif
#   From: 2010.05.17/outbox.cif.g08.bks.cpg/sg70_31_cif.got.tgz:61104.got - 2010.06.03 15:57:51.
