data_PCOD9515549
_publ_section_title
;
Structure prediction by ZEFSAII (Michael W. Deem and Ramdas Pophale) SiO2 
 PCOD9515549
Probable space group: F D D D
;
_chemical_formula_sum "Si O2"
_cell_formula_units_Z 176
_cell_length_a 26.782649
_cell_length_b 26.267056
_cell_length_c 10.136401
_cell_angle_alpha 90.000000
_cell_angle_beta 90.000000
_cell_angle_gamma 90.000000
_cell_volume 7130.971698
_symmetry_space_group_name_H-M "F D D D"
_symmetry_group_IT_number 70
_space_group.IT_coordinate_system_code '2'
_symmetry_cell_setting 'orthorhombic'
loop_
_space_group_symop_operation_xyz
x,y,z
1/4-x,1/4-y,z
x,1/4-y,1/4-z
1/4-x,y,1/4-z
-x,-y,-z
3/4+x,3/4+y,-z
-x,3/4+y,3/4+z
3/4+x,-y,3/4+z
x,1/2+y,1/2+z
1/4-x,3/4-y,1/2+z
x,3/4-y,3/4-z
1/4-x,1/2+y,3/4-z
-x,1/2-y,1/2-z
3/4+x,1/4+y,1/2-z
-x,1/4+y,1/4+z
3/4+x,1/2-y,1/4+z
1/2+x,y,1/2+z
3/4-x,1/4-y,1/2+z
1/2+x,1/4-y,3/4-z
3/4-x,y,3/4-z
1/2-x,-y,1/2-z
1/4+x,3/4+y,1/2-z
1/2-x,3/4+y,1/4+z
1/4+x,-y,1/4+z
1/2+x,1/2+y,z
3/4-x,3/4-y,z
1/2+x,3/4-y,1/4-z
3/4-x,1/2+y,1/4-z
1/2-x,1/2-y,-z
1/4+x,1/4+y,-z
1/2-x,1/4+y,3/4+z
1/4+x,1/2-y,3/4+z
loop_
_atom_site_type_symbol
_atom_site_label
_atom_site_fract_x
_atom_site_fract_y
_atom_site_fract_z
Si Si1 0.712235 0.625000 0.625000
Si Si2 0.045129 0.951652 0.651612
Si Si3 0.583575 0.159199 0.853476
Si Si4 0.723013 0.903856 0.735618
Si Si5 0.143879 0.474621 0.845142
Si Si6 0.714498 0.971795 0.389611
O O1 0.679312 0.619030 0.492536
O O2 0.746903 0.675172 0.634434
O O3 0.088169 0.957533 0.758748
O O4 0.051341 0.980354 0.513320
O O5 0.039292 0.891227 0.632301
O O6 0.993734 0.979649 0.700060
O O7 0.625000 0.125000 0.783851
O O8 0.530077 0.167485 0.786697
O O9 0.606234 0.215061 0.859611
O O10 0.719058 0.875000 0.875000
O O11 0.685510 0.950738 0.748562
O O12 0.088892 0.457826 0.800596
#
# Coordination Sequence:
#
# PCOD9515549 Si02
#       6
#    16  32  32  32  32  32
#     4  12  25  42  68 104 142 170 233 294 352 426
#     4  10  21  41  66  95 137 179 230 284 345 424
#     4  12  25  45  71 100 137 181 231 292 350 416
#     4  10  23  44  67  95 136 181 231 280 335 423
#     4  11  24  41  68 100 137 182 234 284 353 413
#     4  11  23  40  67  98 138 181 226 291 356 412
#
# _framework density 24.681069000000001
#
# number of rings (size 3 to 8) (size 9 to 14) (size 15 to 20)
#    0.000    1.091    3.636    2.455    6.364    1.818 
#    0.000    0.909    0.000    0.000    0.000    0.000 
#    0.000    0.000    0.000    0.000    0.000    0.000 
#
# Total GULP energy -245944.243569 kJ/mol
# GULP energy per Si atom -5589.641899 kJ/mol
# Density = 2.462489 g / cm^3
# Si number density = 24.681069 Si / 1000 Ang^3
#
#
#
# Elastic Constant Matrix: (Units=GPa)
#
#
# Indices 1 2 3 4 5 6 
#
# 1 175.3693 42.2686 19.8133 0.0004 -0.0069 -0.0003
# 2 42.2686 120.4266 9.3716 0.0007 -0.0067 -0.0008
# 3 19.8133 9.3716 69.4053 0.0045 -0.0345 -0.0025
# 4 0.0004 0.0007 0.0045 -11.5754 -0.0152 -0.0015
# 5 -0.0069 -0.0067 -0.0345 -0.0152 -417.8019 0.0137
# 6 -0.0003 -0.0008 -0.0025 -0.0015 0.0137 40.5288
#
#
#
# Elastic Compliance Matrix: (Units=1/GPa)
#
#
# Indices 1 2 3 4 5 6 
#
# 1 0.006387 -0.002122 -0.001537 -0.000001 0.000000 0.000000
# 2 -0.002122 0.009097 -0.000622 0.000000 0.000000 0.000000
# 3 -0.001537 -0.000622 0.014931 0.000006 -0.000001 0.000001
# 4 -0.000001 0.000000 0.000006 -0.086390 0.000003 -0.000003
# 5 0.000000 0.000000 -0.000001 0.000003 -0.002393 0.000001
# 6 0.000000 0.000000 0.000001 -0.000003 0.000001 0.024674
#
#
# Mechanical properties :
#
#
# Convention : Reuss Voigt Hill
#
# Bulk Modulus (GPa) = 45.76213 56.45648 51.10930
# Shear Modulus (GPa) = -280.15900 -58.18651 -169.17276
#
# Velocity S-wave (km/s) = -10.66575 -4.86071 -8.28808
# Velocity P-wave (km/s) = 11.53672 2.92882 8.41647
#
# Compressibility (1/GPa) = 0.02185213
#
# Stress axis : x y z
#
# Youngs Moduli (GPa) = 156.55762 109.92426 66.97515
#
# Poissons Ratio (x) = 0.23330 0.10293
# Poissons Ratio (y) = 0.33227 0.04169
# Poissons Ratio (z) = 0.24061 0.06843
#
# Static dielectric constant tensor:
#      x y z
#    x 2.062680 0.000000 0.000000 
#    y 0.000000 1.981070 0.000000 
#    z 0.000000 0.000000 2.080840 
# 
# From -- ./inp_files/21001.got.cif
#   From: 2010.05.17/outbox.cif.g08.bks.cpg/sg70_11_cif.got.tgz:21001.got - 2010.06.03 15:57:51.
