data_PCOD9515170
_publ_section_title
;
Structure prediction by ZEFSAII (Michael W. Deem and Ramdas Pophale) SiO2 
 PCOD9515170
Probable space group: F D D D
;
_chemical_formula_sum "Si O2"
_cell_formula_units_Z 240
_cell_length_a 20.986674
_cell_length_b 17.445266
_cell_length_c 29.693366
_cell_angle_alpha 90.000000
_cell_angle_beta 90.000000
_cell_angle_gamma 90.000000
_cell_volume 10871.279051
_symmetry_space_group_name_H-M "F D D D"
_symmetry_group_IT_number 70
_space_group.IT_coordinate_system_code '2'
_symmetry_cell_setting 'orthorhombic'
loop_
_space_group_symop_operation_xyz
x,y,z
1/4-x,1/4-y,z
x,1/4-y,1/4-z
1/4-x,y,1/4-z
-x,-y,-z
3/4+x,3/4+y,-z
-x,3/4+y,3/4+z
3/4+x,-y,3/4+z
x,1/2+y,1/2+z
1/4-x,3/4-y,1/2+z
x,3/4-y,3/4-z
1/4-x,1/2+y,3/4-z
-x,1/2-y,1/2-z
3/4+x,1/4+y,1/2-z
-x,1/4+y,1/4+z
3/4+x,1/2-y,1/4+z
1/2+x,y,1/2+z
3/4-x,1/4-y,1/2+z
1/2+x,1/4-y,3/4-z
3/4-x,y,3/4-z
1/2-x,-y,1/2-z
1/4+x,3/4+y,1/2-z
1/2-x,3/4+y,1/4+z
1/4+x,-y,1/4+z
1/2+x,1/2+y,z
3/4-x,3/4-y,z
1/2+x,3/4-y,1/4-z
3/4-x,1/2+y,1/4-z
1/2-x,1/2-y,-z
1/4+x,1/4+y,-z
1/2-x,1/4+y,3/4+z
1/4+x,1/2-y,3/4+z
loop_
_atom_site_type_symbol
_atom_site_label
_atom_site_fract_x
_atom_site_fract_y
_atom_site_fract_z
Si Si1 0.583791 0.495119 0.829638
Si Si2 0.670323 0.375141 0.774566
Si Si3 0.437183 0.027010 0.844470
Si Si4 0.058541 0.591300 0.528696
Si Si5 0.308152 0.418222 0.493023
Si Si6 0.819763 0.213941 0.141669
Si Si7 0.509364 0.125000 0.625000
Si Si8 0.691273 0.908834 0.714943
O O1 0.631670 0.443032 0.798930
O O2 0.549483 0.547404 0.793160
O O3 0.633455 0.523012 0.867283
O O4 0.536501 0.444655 0.860041
O O5 0.745909 0.382991 0.768122
O O6 0.664497 0.298637 0.805754
O O7 0.630098 0.363274 0.729813
O O8 0.375000 0.018017 0.875000
O O9 0.451456 0.115239 0.831813
O O10 0.434466 0.981836 0.796448
O O11 0.498403 0.989691 0.867502
O O12 0.125000 0.625000 0.511016
O O13 0.057129 0.499707 0.531825
O O14 0.049688 0.614573 0.580362
O O15 0.996993 0.617642 0.499683
O O16 0.375000 0.375000 0.493661
O O17 0.825583 0.125000 0.125000
#
# Coordination Sequence:
#
# PCOD9515170 Si02
#       8
#    32  32  32  32  32  32  16  32
#     4  11  20  43  69  91 129 173 224 266 335 400
#     4  10  20  41  70  89 127 175 213 270 320 400
#     4  11  25  40  64  94 136 172 219 280 326 397
#     4  11  26  43  73  98 133 171 222 280 333 404
#     4  11  26  40  64 101 131 174 226 271 325 395
#     4   9  20  37  66  95 120 178 219 264 330 397
#     4  12  21  44  66 100 127 170 222 274 327 406
#     4  11  24  47  66 100 129 177 222 272 341 397
#
# _framework density 22.076519000000001
#
# number of rings (size 3 to 8) (size 9 to 14) (size 15 to 20)
#    0.000    1.333    4.667    0.200   11.200    2.667 
#    2.400    0.000    0.000    0.000    0.000    0.000 
#    0.000    0.000    0.000    0.000    0.000    0.000 
#
# Total GULP energy -334612.385492 kJ/mol
# GULP energy per Si atom -5576.873092 kJ/mol
# Density = 2.202627 g / cm^3
# Si number density = 22.076519 Si / 1000 Ang^3
#
#
#
# Elastic Constant Matrix: (Units=GPa)
#
#
# Indices 1 2 3 4 5 6 
#
# 1 108.4389 10.9880 13.0358 0.0000 0.0000 0.0000
# 2 10.9880 31.3780 -12.0018 0.0000 0.0000 0.0000
# 3 13.0358 -12.0018 38.0268 0.0000 0.0000 0.0000
# 4 0.0000 0.0000 0.0000 12.5192 0.0000 0.0000
# 5 0.0000 0.0000 0.0000 0.0000 -541.8575 0.0000
# 6 0.0000 0.0000 0.0000 0.0000 0.0000 34.7408
#
#
#
# Elastic Compliance Matrix: (Units=1/GPa)
#
#
# Indices 1 2 3 4 5 6 
#
# 1 0.010449 -0.005720 -0.005387 0.000000 0.000000 0.000000
# 2 -0.005720 0.039376 0.014388 0.000000 0.000000 0.000000
# 3 -0.005387 0.014388 0.032685 0.000000 0.000000 0.000000
# 4 0.000000 0.000000 0.000000 0.079877 0.000000 0.000000
# 5 0.000000 0.000000 0.000000 0.000000 -0.001846 0.000000
# 6 0.000000 0.000000 0.000000 0.000000 0.000000 0.028785
#
#
# Mechanical properties :
#
#
# Convention : Reuss Voigt Hill
#
# Bulk Modulus (GPa) = 11.22679 22.43199 16.82939
# Shear Modulus (GPa) = 23.53454 -87.86470 -32.16508
#
# Velocity S-wave (km/s) = 3.26858 -6.31557 -3.82118
# Velocity P-wave (km/s) = 4.39786 6.55735 3.43931
#
# Compressibility (1/GPa) = 0.08907269
#
# Stress axis : x y z
#
# Youngs Moduli (GPa) = 95.70349 25.39641 30.59499
#
# Poissons Ratio (x) = 0.14526 0.16482
# Poissons Ratio (y) = 0.54738 -0.44021
# Poissons Ratio (z) = 0.51557 -0.36541
#
# Static dielectric constant tensor:
#      x y z
#    x 1.824630 0.000000 0.000000 
#    y 0.000000 1.865390 0.000000 
#    z 0.000000 0.000000 1.893670 
# 
# From -- ./inp_files/67387.got.cif
#   From: 2010.05.17/outbox.cif.g08.bks.cpg/sg70_34_cif.got.tgz:67387.got - 2010.06.03 15:57:51.
