data_PCOD9515517
_publ_section_title
;
Structure prediction by ZEFSAII (Michael W. Deem and Ramdas Pophale) SiO2 
 PCOD9515517
Probable space group: F D D D
;
_chemical_formula_sum "Si O2"
_cell_formula_units_Z 96
_cell_length_a 6.652725
_cell_length_b 18.565313
_cell_length_c 28.425028
_cell_angle_alpha 90.000000
_cell_angle_beta 90.000000
_cell_angle_gamma 90.000000
_cell_volume 3510.772989
_symmetry_space_group_name_H-M "F D D D"
_symmetry_group_IT_number 70
_space_group.IT_coordinate_system_code '2'
_symmetry_cell_setting 'orthorhombic'
loop_
_space_group_symop_operation_xyz
x,y,z
1/4-x,1/4-y,z
x,1/4-y,1/4-z
1/4-x,y,1/4-z
-x,-y,-z
3/4+x,3/4+y,-z
-x,3/4+y,3/4+z
3/4+x,-y,3/4+z
x,1/2+y,1/2+z
1/4-x,3/4-y,1/2+z
x,3/4-y,3/4-z
1/4-x,1/2+y,3/4-z
-x,1/2-y,1/2-z
3/4+x,1/4+y,1/2-z
-x,1/4+y,1/4+z
3/4+x,1/2-y,1/4+z
1/2+x,y,1/2+z
3/4-x,1/4-y,1/2+z
1/2+x,1/4-y,3/4-z
3/4-x,y,3/4-z
1/2-x,-y,1/2-z
1/4+x,3/4+y,1/2-z
1/2-x,3/4+y,1/4+z
1/4+x,-y,1/4+z
1/2+x,1/2+y,z
3/4-x,3/4-y,z
1/2+x,3/4-y,1/4-z
3/4-x,1/2+y,1/4-z
1/2-x,1/2-y,-z
1/4+x,1/4+y,-z
1/2-x,1/4+y,3/4+z
1/4+x,1/2-y,3/4+z
loop_
_atom_site_type_symbol
_atom_site_label
_atom_site_fract_x
_atom_site_fract_y
_atom_site_fract_z
Si Si1 0.099303 0.400238 0.233385
Si Si2 0.230327 0.495652 0.557154
Si Si3 0.194222 0.751684 0.847942
O O1 0.218564 0.326821 0.223849
O O2 0.875000 0.375000 0.242482
O O3 0.126150 0.449772 0.279277
O O4 0.060549 0.445680 0.185493
O O5 0.322027 0.473286 0.606936
O O6 0.002249 0.526003 0.567068
O O7 0.375000 0.794230 0.875000
#
# Coordination Sequence:
#
# PCOD9515517 Si02
#       3
#    32  32  32
#     4  10  21  40  68  96 137 181 236 295 367 424
#     4  10  23  42  65 100 137 182 239 300 362 430
#     4  10  22  38  67  98 129 186 241 290 353 439
#
# _framework density 27.344407
#
# number of rings (size 3 to 8) (size 9 to 14) (size 15 to 20)
#    0.000    2.000    0.000    4.000   14.000    1.333 
#    0.000   18.333    0.000    8.000    0.000    0.000 
#    0.000    0.000    0.000    0.000    0.000    0.000 
#
# Total GULP energy -133658.334585 kJ/mol
# GULP energy per Si atom -5569.097274 kJ/mol
# Density = 2.728217 g / cm^3
# Si number density = 27.344407 Si / 1000 Ang^3
#
#
#
# Elastic Constant Matrix: (Units=GPa)
#
#
# Indices 1 2 3 4 5 6 
#
# 1 109.4504 13.1730 26.7752 0.0000 0.0000 0.0000
# 2 13.1730 89.1729 83.5587 0.0000 0.0000 0.0000
# 3 26.7752 83.5587 191.8456 0.0000 0.0000 0.0000
# 4 0.0000 0.0000 0.0000 -5.6925 0.0000 0.0000
# 5 0.0000 0.0000 0.0000 0.0000 75.5047 0.0000
# 6 0.0000 0.0000 0.0000 0.0000 0.0000 34.4880
#
#
#
# Elastic Compliance Matrix: (Units=1/GPa)
#
#
# Indices 1 2 3 4 5 6 
#
# 1 0.009463 -0.000271 -0.001203 0.000000 0.000000 0.000000
# 2 -0.000271 0.018955 -0.008218 0.000000 0.000000 0.000000
# 3 -0.001203 -0.008218 0.008960 0.000000 0.000000 0.000000
# 4 0.000000 0.000000 0.000000 -0.175671 0.000000 0.000000
# 5 0.000000 0.000000 0.000000 0.000000 0.013244 0.000000
# 6 0.000000 0.000000 0.000000 0.000000 0.000000 0.028996
#
#
# Mechanical properties :
#
#
# Convention : Reuss Voigt Hill
#
# Bulk Modulus (GPa) = 55.57231 70.83141 63.20186
# Shear Modulus (GPa) = -70.74963 38.65752 -16.04605
#
# Velocity S-wave (km/s) = -5.09212 3.76403 -2.42505
# Velocity P-wave (km/s) = 3.76905 6.69704 3.91437
#
# Compressibility (1/GPa) = 0.01799457
#
# Stress axis : x y z
#
# Youngs Moduli (GPa) = 105.67027 52.75718 111.61039
#
# Poissons Ratio (x) = 0.01429 0.13424
# Poissons Ratio (y) = 0.02863 0.91721
# Poissons Ratio (z) = 0.12710 0.43356
#
# Static dielectric constant tensor:
#      x y z
#    x 2.152350 0.000000 0.000000 
#    y 0.000000 2.407180 0.000000 
#    z 0.000000 0.000000 2.152550 
# 
# From -- ./inp_files/48886.got.cif
#   From: 2010.05.17/outbox.cif.g08.bks.cpg/sg70_25_cif.got.tgz:48886.got - 2010.06.03 15:57:51.
