data_PCOD9515863
_publ_section_title
;
Structure prediction by ZEFSAII (Michael W. Deem and Ramdas Pophale) SiO2 
 PCOD9515863
Probable space group: F D D D
;
_chemical_formula_sum "Si O2"
_cell_formula_units_Z 208
_cell_length_a 20.656820
_cell_length_b 29.559856
_cell_length_c 17.197465
_cell_angle_alpha 90.000000
_cell_angle_beta 90.000000
_cell_angle_gamma 90.000000
_cell_volume 10500.989240
_symmetry_space_group_name_H-M "F D D D"
_symmetry_group_IT_number 70
_space_group.IT_coordinate_system_code '2'
_symmetry_cell_setting 'orthorhombic'
loop_
_space_group_symop_operation_xyz
x,y,z
1/4-x,1/4-y,z
x,1/4-y,1/4-z
1/4-x,y,1/4-z
-x,-y,-z
3/4+x,3/4+y,-z
-x,3/4+y,3/4+z
3/4+x,-y,3/4+z
x,1/2+y,1/2+z
1/4-x,3/4-y,1/2+z
x,3/4-y,3/4-z
1/4-x,1/2+y,3/4-z
-x,1/2-y,1/2-z
3/4+x,1/4+y,1/2-z
-x,1/4+y,1/4+z
3/4+x,1/2-y,1/4+z
1/2+x,y,1/2+z
3/4-x,1/4-y,1/2+z
1/2+x,1/4-y,3/4-z
3/4-x,y,3/4-z
1/2-x,-y,1/2-z
1/4+x,3/4+y,1/2-z
1/2-x,3/4+y,1/4+z
1/4+x,-y,1/4+z
1/2+x,1/2+y,z
3/4-x,3/4-y,z
1/2+x,3/4-y,1/4-z
3/4-x,1/2+y,1/4-z
1/2-x,1/2-y,-z
1/4+x,1/4+y,-z
1/2-x,1/4+y,3/4+z
1/4+x,1/2-y,3/4+z
loop_
_atom_site_type_symbol
_atom_site_label
_atom_site_fract_x
_atom_site_fract_y
_atom_site_fract_z
Si Si1 0.492699 0.875000 0.375000
Si Si2 0.625000 0.391305 0.125000
Si Si3 0.565704 0.223065 0.824961
Si Si4 0.388328 0.321332 0.221331
Si Si5 0.940492 0.685509 0.743145
Si Si6 0.266004 0.065238 0.872680
Si Si7 0.125000 0.738328 0.125000
Si Si8 0.085663 0.578455 0.739378
O O1 0.533503 0.857967 0.302665
O O2 0.446368 0.914568 0.343840
O O3 0.631716 0.421392 0.202204
O O4 0.687272 0.358719 0.119103
O O5 0.594520 0.199340 0.901175
O O6 0.568700 0.277011 0.823564
O O7 0.495582 0.204648 0.801310
O O8 0.612187 0.209921 0.752884
O O9 0.375000 0.375000 0.228405
O O10 0.463215 0.314661 0.196087
O O11 0.374364 0.293419 0.299168
O O12 0.312400 0.021502 0.873697
O O13 0.221333 0.069521 0.949168
O O14 0.125000 0.625000 0.757991
#
# Coordination Sequence:
#
# PCOD9515863 Si02
#       8
#    16  16  32  32  32  32  16  32
#     4  12  23  36  66  96 128 160 217 264 302 400
#     4  11  20  42  61  90 132 182 205 268 320 383
#     4  10  23  40  61  94 128 169 206 267 316 400
#     4  11  23  45  69  91 129 168 222 262 327 388
#     4  11  24  38  61  95 134 165 215 256 331 375
#     4  10  22  41  68  91 130 168 216 257 331 377
#     4  11  25  42  69  98 122 170 217 290 305 381
#     4  11  20  39  63  95 122 172 207 254 323 387
#
# _framework density 19.807656999999999
#
# number of rings (size 3 to 8) (size 9 to 14) (size 15 to 20)
#    0.000    1.231    3.077    3.692    2.154    2.462 
#    8.308    0.000    0.000    0.000    0.000    0.000 
#    0.000    0.000    0.000    0.000    0.000    0.000 
#
# Total GULP energy -290369.072041 kJ/mol
# GULP energy per Si atom -5584.020616 kJ/mol
# Density = 1.976257 g / cm^3
# Si number density = 19.807657 Si / 1000 Ang^3
#
#
#
# Elastic Constant Matrix: (Units=GPa)
#
#
# Indices 1 2 3 4 5 6 
#
# 1 86.7134 33.2459 25.3845 0.0000 0.0000 0.0000
# 2 33.2459 107.9648 40.2112 0.0000 0.0000 0.0000
# 3 25.3845 40.2112 99.9990 0.0000 0.0000 0.0000
# 4 0.0000 0.0000 0.0000 28.5685 0.0000 0.0000
# 5 0.0000 0.0000 0.0000 0.0000 26.6416 0.0000
# 6 0.0000 0.0000 0.0000 0.0000 0.0000 12.5739
#
#
#
# Elastic Compliance Matrix: (Units=1/GPa)
#
#
# Indices 1 2 3 4 5 6 
#
# 1 0.013425 -0.003369 -0.002053 0.000000 0.000000 0.000000
# 2 -0.003369 0.011739 -0.003865 0.000000 0.000000 0.000000
# 3 -0.002053 -0.003865 0.012076 0.000000 0.000000 0.000000
# 4 0.000000 0.000000 0.000000 0.035004 0.000000 0.000000
# 5 0.000000 0.000000 0.000000 0.000000 0.037535 0.000000
# 6 0.000000 0.000000 0.000000 0.000000 0.000000 0.079530
#
#
# Mechanical properties :
#
#
# Convention : Reuss Voigt Hill
#
# Bulk Modulus (GPa) = 53.57730 54.70673 54.14201
# Shear Modulus (GPa) = 23.35296 26.61251 24.98273
#
# Velocity S-wave (km/s) = 3.43736 3.66942 3.55528
# Velocity P-wave (km/s) = 6.54687 6.75513 6.65181
#
# Compressibility (1/GPa) = 0.01866462
#
# Stress axis : x y z
#
# Youngs Moduli (GPa) = 74.48754 85.18294 82.81186
#
# Poissons Ratio (x) = 0.28701 0.17002
# Poissons Ratio (y) = 0.25098 0.32009
# Poissons Ratio (z) = 0.15293 0.32926
#
# Static dielectric constant tensor:
#      x y z
#    x 1.687390 0.000000 0.000000 
#    y 0.000000 1.789350 0.000000 
#    z 0.000000 0.000000 1.681950 
# 
# From -- ./inp_files/36915.got.cif
#   From: 2010.05.17/outbox.cif.g08.bks.cpg/sg70_19_cif.got.tgz:36915.got - 2010.06.03 15:57:51.
