data_PCOD9515872
_publ_section_title
;
Structure prediction by ZEFSAII (Michael W. Deem and Ramdas Pophale) SiO2 
 PCOD9515872
Probable space group: F D D D
;
_chemical_formula_sum "Si O2"
_cell_formula_units_Z 112
_cell_length_a 27.245899
_cell_length_b 11.890141
_cell_length_c 15.106249
_cell_angle_alpha 90.000000
_cell_angle_beta 90.000000
_cell_angle_gamma 90.000000
_cell_volume 4893.783881
_symmetry_space_group_name_H-M "F D D D"
_symmetry_group_IT_number 70
_space_group.IT_coordinate_system_code '2'
_symmetry_cell_setting 'orthorhombic'
loop_
_space_group_symop_operation_xyz
x,y,z
1/4-x,1/4-y,z
x,1/4-y,1/4-z
1/4-x,y,1/4-z
-x,-y,-z
3/4+x,3/4+y,-z
-x,3/4+y,3/4+z
3/4+x,-y,3/4+z
x,1/2+y,1/2+z
1/4-x,3/4-y,1/2+z
x,3/4-y,3/4-z
1/4-x,1/2+y,3/4-z
-x,1/2-y,1/2-z
3/4+x,1/4+y,1/2-z
-x,1/4+y,1/4+z
3/4+x,1/2-y,1/4+z
1/2+x,y,1/2+z
3/4-x,1/4-y,1/2+z
1/2+x,1/4-y,3/4-z
3/4-x,y,3/4-z
1/2-x,-y,1/2-z
1/4+x,3/4+y,1/2-z
1/2-x,3/4+y,1/4+z
1/4+x,-y,1/4+z
1/2+x,1/2+y,z
3/4-x,3/4-y,z
1/2+x,3/4-y,1/4-z
3/4-x,1/2+y,1/4-z
1/2-x,1/2-y,-z
1/4+x,1/4+y,-z
1/2-x,1/4+y,3/4+z
1/4+x,1/2-y,3/4+z
loop_
_atom_site_type_symbol
_atom_site_label
_atom_site_fract_x
_atom_site_fract_y
_atom_site_fract_z
Si Si1 0.875000 0.875000 0.573379
Si Si2 0.188367 0.775882 0.431687
Si Si3 0.699165 0.933898 0.277020
Si Si4 0.802245 0.247453 0.377834
O O1 0.915896 0.834859 0.642401
O O2 0.845613 0.775629 0.522259
O O3 0.166098 0.875000 0.375000
O O4 0.176795 0.803705 0.532273
O O5 0.245232 0.764068 0.405776
O O6 0.702664 0.875000 0.375000
O O7 0.693074 0.831840 0.206391
O O8 0.750000 0.000000 0.250000
O O9 0.821294 0.375000 0.375000
#
# Coordination Sequence:
#
# PCOD9515872 Si02
#       4
#    16  32  32  32
#     4  12  24  48  72 112 158 198 264 336 392 478
#     4  10  22  41  70 101 142 192 253 315 378 463
#     4  12  27  48  77 114 159 210 265 333 408 478
#     4  10  22  44  74 101 142 203 252 309 395 469
#
# _framework density 22.886175999999999
#
# number of rings (size 3 to 8) (size 9 to 14) (size 15 to 20)
#    0.000    1.143    2.857    2.571    8.000    0.000 
#    0.000   21.429    0.000    0.000    0.000    0.000 
#    0.000    0.000    0.000    0.000    0.000    0.000 
#
# Total GULP energy -156131.628235 kJ/mol
# GULP energy per Si atom -5576.129580 kJ/mol
# Density = 2.283409 g / cm^3
# Si number density = 22.886176 Si / 1000 Ang^3
#
#
#
# Elastic Constant Matrix: (Units=GPa)
#
#
# Indices 1 2 3 4 5 6 
#
# 1 117.8684 43.8660 26.9570 0.0000 0.0000 0.0000
# 2 43.8660 144.0149 114.6732 0.0000 0.0000 0.0000
# 3 26.9570 114.6732 233.4820 0.0000 0.0000 0.0000
# 4 0.0000 0.0000 0.0000 13.2969 0.0000 0.0000
# 5 0.0000 0.0000 0.0000 0.0000 8.8441 0.0000
# 6 0.0000 0.0000 0.0000 0.0000 0.0000 23.7172
#
#
#
# Elastic Compliance Matrix: (Units=1/GPa)
#
#
# Indices 1 2 3 4 5 6 
#
# 1 0.009610 -0.003356 0.000539 0.000000 0.000000 0.000000
# 2 -0.003356 0.012575 -0.005789 0.000000 0.000000 0.000000
# 3 0.000539 -0.005789 0.007064 0.000000 0.000000 0.000000
# 4 0.000000 0.000000 0.000000 0.075205 0.000000 0.000000
# 5 0.000000 0.000000 0.000000 0.000000 0.113069 0.000000
# 6 0.000000 0.000000 0.000000 0.000000 0.000000 0.042164
#
#
# Mechanical properties :
#
#
# Convention : Reuss Voigt Hill
#
# Bulk Modulus (GPa) = 83.07818 96.26198 89.67008
# Shear Modulus (GPa) = 17.79916 29.82958 23.81437
#
# Velocity S-wave (km/s) = 2.79180 3.61416 3.22927
# Velocity P-wave (km/s) = 6.83898 7.71808 7.29179
#
# Compressibility (1/GPa) = 0.01203686
#
# Stress axis : x y z
#
# Youngs Moduli (GPa) = 104.06010 79.52027 141.56427
#
# Poissons Ratio (x) = 0.26688 -0.07628
# Poissons Ratio (y) = 0.34924 0.81949
# Poissons Ratio (z) = -0.05607 0.46033
#
# Static dielectric constant tensor:
#      x y z
#    x 1.962310 0.000000 0.000000 
#    y 0.000000 1.946170 0.000000 
#    z 0.000000 0.000000 1.866400 
# 
# From -- ./inp_files/15064.got.cif
#   From: 2010.05.17/outbox.cif.g08.bks.cpg/sg70_8_cif.got.tgz:15064.got - 2010.06.03 15:57:51.
