data_PCOD9515108
_publ_section_title
;
Structure prediction by ZEFSAII (Michael W. Deem and Ramdas Pophale) SiO2 
 PCOD9515108
Probable space group: F D D D
;
_chemical_formula_sum "Si O2"
_cell_formula_units_Z 216
_cell_length_a 28.920254
_cell_length_b 11.893628
_cell_length_c 29.655341
_cell_angle_alpha 90.000000
_cell_angle_beta 90.000000
_cell_angle_gamma 90.000000
_cell_volume 10200.451049
_symmetry_space_group_name_H-M "F D D D"
_symmetry_group_IT_number 70
_space_group.IT_coordinate_system_code '2'
_symmetry_cell_setting 'orthorhombic'
loop_
_space_group_symop_operation_xyz
x,y,z
1/4-x,1/4-y,z
x,1/4-y,1/4-z
1/4-x,y,1/4-z
-x,-y,-z
3/4+x,3/4+y,-z
-x,3/4+y,3/4+z
3/4+x,-y,3/4+z
x,1/2+y,1/2+z
1/4-x,3/4-y,1/2+z
x,3/4-y,3/4-z
1/4-x,1/2+y,3/4-z
-x,1/2-y,1/2-z
3/4+x,1/4+y,1/2-z
-x,1/4+y,1/4+z
3/4+x,1/2-y,1/4+z
1/2+x,y,1/2+z
3/4-x,1/4-y,1/2+z
1/2+x,1/4-y,3/4-z
3/4-x,y,3/4-z
1/2-x,-y,1/2-z
1/4+x,3/4+y,1/2-z
1/2-x,3/4+y,1/4+z
1/4+x,-y,1/4+z
1/2+x,1/2+y,z
3/4-x,3/4-y,z
1/2+x,3/4-y,1/4-z
3/4-x,1/2+y,1/4-z
1/2-x,1/2-y,-z
1/4+x,1/4+y,-z
1/2-x,1/4+y,3/4+z
1/4+x,1/2-y,3/4+z
loop_
_atom_site_type_symbol
_atom_site_label
_atom_site_fract_x
_atom_site_fract_y
_atom_site_fract_z
Si Si1 0.081630 0.972443 0.702603
Si Si2 0.230369 0.155744 0.441596
Si Si3 0.875000 0.375000 0.026193
Si Si4 0.986336 0.648586 0.040292
Si Si5 0.425282 0.846509 0.549684
Si Si6 0.984505 0.739428 0.637695
Si Si7 0.375000 0.875000 0.875000
Si Si8 0.295324 0.478057 0.782024
O O1 0.075994 0.839313 0.709410
O O2 0.113135 0.020899 0.743099
O O3 0.099254 0.036726 0.658082
O O4 0.029252 0.017568 0.705335
O O5 0.174295 0.144782 0.448844
O O6 0.258731 0.134891 0.487738
O O7 0.240364 0.285732 0.430456
O O8 0.245847 0.064000 0.405608
O O9 0.940977 0.718259 0.052051
O O10 0.375000 0.875000 0.566475
O O11 0.457640 0.924123 0.580454
O O12 0.429236 0.885326 0.497648
O O13 0.957755 0.625000 0.625000
O O14 0.026272 0.695766 0.669021
O O15 0.250000 0.500000 0.750000
#
# Coordination Sequence:
#
# PCOD9515108 Si02
#       8
#    32  32  16  32  32  32   8  32
#     4  10  20  40  64  90 130 168 212 258 333 395
#     4  10  23  38  66  98 126 163 213 273 326 390
#     4   9  22  37  62  94 122 168 200 268 329 378
#     4  10  21  42  65  91 129 171 211 261 330 404
#     4  11  25  42  65  95 124 176 222 269 328 394
#     4  11  24  40  64  95 127 172 214 270 326 390
#     4  10  24  36  64 108 130 164 212 288 332 390
#     4  10  21  42  65  87 120 180 216 250 319 398
#
# _framework density 21.175535
#
# number of rings (size 3 to 8) (size 9 to 14) (size 15 to 20)
#    0.000    1.778    2.963    0.889   11.407    0.593 
#    0.000    1.481    0.000    0.889    0.000    0.000 
#    0.000    0.000    0.000    0.000    0.000    0.000 
#
# Total GULP energy -300977.218668 kJ/mol
# GULP energy per Si atom -5573.652198 kJ/mol
# Density = 2.112734 g / cm^3
# Si number density = 21.175535 Si / 1000 Ang^3
#
#
#
# Elastic Constant Matrix: (Units=GPa)
#
#
# Indices 1 2 3 4 5 6 
#
# 1 13.4818 3.6481 -7.3985 0.0000 0.0000 0.0000
# 2 3.6481 114.5723 22.9149 0.0000 0.0000 0.0000
# 3 -7.3985 22.9149 67.7454 0.0000 0.0000 0.0000
# 4 0.0000 0.0000 0.0000 36.0347 0.0000 0.0000
# 5 0.0000 0.0000 0.0000 0.0000 2.1944 0.0000
# 6 0.0000 0.0000 0.0000 0.0000 0.0000 25.9263
#
#
#
# Elastic Compliance Matrix: (Units=1/GPa)
#
#
# Indices 1 2 3 4 5 6 
#
# 1 0.081171 -0.004674 0.010446 0.000000 0.000000 0.000000
# 2 -0.004674 0.009631 -0.003768 0.000000 0.000000 0.000000
# 3 0.010446 -0.003768 0.017176 0.000000 0.000000 0.000000
# 4 0.000000 0.000000 0.000000 0.027751 0.000000 0.000000
# 5 0.000000 0.000000 0.000000 0.000000 0.455711 0.000000
# 6 0.000000 0.000000 0.000000 0.000000 0.000000 0.038571
#
#
# Mechanical properties :
#
#
# Convention : Reuss Voigt Hill
#
# Bulk Modulus (GPa) = 8.92970 26.01427 17.47198
# Shear Modulus (GPa) = 7.53771 24.60675 16.07223
#
# Velocity S-wave (km/s) = 1.88875 3.41256 2.75798
# Velocity P-wave (km/s) = 2.99710 5.27629 4.29079
#
# Compressibility (1/GPa) = 0.11198590
#
# Stress axis : x y z
#
# Youngs Moduli (GPa) = 12.31965 103.83641 58.21935
#
# Poissons Ratio (x) = 0.48530 -0.60813
# Poissons Ratio (y) = 0.05758 0.21937
# Poissons Ratio (z) = -0.12869 0.39125
#
# Static dielectric constant tensor:
#      x y z
#    x 1.803810 0.000000 0.000000 
#    y 0.000000 1.764250 0.000000 
#    z 0.000000 0.000000 1.803480 
# 
# From -- ./inp_files/69031.got.cif
#   From: 2010.05.17/outbox.cif.g08.bks.cpg/sg70_35_cif.got.tgz:69031.got - 2010.06.03 15:57:51.
