data_PCOD9515408
_publ_section_title
;
Structure prediction by ZEFSAII (Michael W. Deem and Ramdas Pophale) SiO2 
 PCOD9515408
Probable space group: F D D D
;
_chemical_formula_sum "Si O2"
_cell_formula_units_Z 136
_cell_length_a 11.342627
_cell_length_b 19.892030
_cell_length_c 26.378432
_cell_angle_alpha 90.000000
_cell_angle_beta 90.000000
_cell_angle_gamma 90.000000
_cell_volume 5951.709599
_symmetry_space_group_name_H-M "F D D D"
_symmetry_group_IT_number 70
_space_group.IT_coordinate_system_code '2'
_symmetry_cell_setting 'orthorhombic'
loop_
_space_group_symop_operation_xyz
x,y,z
1/4-x,1/4-y,z
x,1/4-y,1/4-z
1/4-x,y,1/4-z
-x,-y,-z
3/4+x,3/4+y,-z
-x,3/4+y,3/4+z
3/4+x,-y,3/4+z
x,1/2+y,1/2+z
1/4-x,3/4-y,1/2+z
x,3/4-y,3/4-z
1/4-x,1/2+y,3/4-z
-x,1/2-y,1/2-z
3/4+x,1/4+y,1/2-z
-x,1/4+y,1/4+z
3/4+x,1/2-y,1/4+z
1/2+x,y,1/2+z
3/4-x,1/4-y,1/2+z
1/2+x,1/4-y,3/4-z
3/4-x,y,3/4-z
1/2-x,-y,1/2-z
1/4+x,3/4+y,1/2-z
1/2-x,3/4+y,1/4+z
1/4+x,-y,1/4+z
1/2+x,1/2+y,z
3/4-x,3/4-y,z
1/2+x,3/4-y,1/4-z
3/4-x,1/2+y,1/4-z
1/2-x,1/2-y,-z
1/4+x,1/4+y,-z
1/2-x,1/4+y,3/4+z
1/4+x,1/2-y,3/4+z
loop_
_atom_site_type_symbol
_atom_site_label
_atom_site_fract_x
_atom_site_fract_y
_atom_site_fract_z
Si Si1 0.469191 0.561584 0.539280
Si Si2 0.332401 0.693930 0.267282
Si Si3 0.500391 0.523514 0.144617
Si Si4 0.625000 0.125000 0.125000
Si Si5 0.343776 0.801490 0.550415
O O1 0.500000 0.500000 0.500000
O O2 0.474439 0.629413 0.506712
O O3 0.341057 0.559076 0.567537
O O4 0.554628 0.575187 0.587044
O O5 0.289804 0.707974 0.323721
O O6 0.314521 0.762611 0.235356
O O7 0.473462 0.685845 0.269268
O O8 0.625000 0.553846 0.125000
O O9 0.431526 0.500282 0.095153
O O10 0.375000 0.875000 0.569833
#
# Coordination Sequence:
#
# PCOD9515408 Si02
#       5
#    32  32  32   8  32
#     4  12  26  45  73 101 154 199 241 322 390 464
#     4  10  22  42  62 102 134 176 242 297 362 450
#     4  10  23  43  68 100 133 183 244 294 362 453
#     4  12  28  48  66 112 148 192 266 298 388 490
#     4  10  21  38  67  93 135 176 229 294 360 426
#
# _framework density 22.850577999999999
#
# number of rings (size 3 to 8) (size 9 to 14) (size 15 to 20)
#    0.000    1.412    0.000    4.235    3.294    1.882 
#    2.118   15.882    0.000    0.000    0.000    0.000 
#    0.000    0.000    0.000    0.000    0.000    0.000 
#
# Total GULP energy -189706.020648 kJ/mol
# GULP energy per Si atom -5579.588843 kJ/mol
# Density = 2.279857 g / cm^3
# Si number density = 22.850578 Si / 1000 Ang^3
#
#
#
# Elastic Constant Matrix: (Units=GPa)
#
#
# Indices 1 2 3 4 5 6 
#
# 1 85.0749 22.6034 49.3836 0.0000 0.0000 0.0000
# 2 22.6034 83.8820 40.9552 0.0000 0.0000 0.0000
# 3 49.3836 40.9552 146.1995 0.0000 0.0000 0.0000
# 4 0.0000 0.0000 0.0000 2.7130 0.0000 0.0000
# 5 0.0000 0.0000 0.0000 0.0000 52.0922 0.0000
# 6 0.0000 0.0000 0.0000 0.0000 0.0000 17.6128
#
#
#
# Elastic Compliance Matrix: (Units=1/GPa)
#
#
# Indices 1 2 3 4 5 6 
#
# 1 0.014852 -0.001799 -0.004513 0.000000 0.000000 0.000000
# 2 -0.001799 0.014028 -0.003322 0.000000 0.000000 0.000000
# 3 -0.004513 -0.003322 0.009295 0.000000 0.000000 0.000000
# 4 0.000000 0.000000 0.000000 0.368600 0.000000 0.000000
# 5 0.000000 0.000000 0.000000 0.000000 0.019197 0.000000
# 6 0.000000 0.000000 0.000000 0.000000 0.000000 0.056777
#
#
# Mechanical properties :
#
#
# Convention : Reuss Voigt Hill
#
# Bulk Modulus (GPa) = 52.88871 60.11564 56.50217
# Shear Modulus (GPa) = 9.83634 27.96454 18.90044
#
# Velocity S-wave (km/s) = 2.07701 3.50208 2.87911
# Velocity P-wave (km/s) = 5.38030 6.53590 5.98605
#
# Compressibility (1/GPa) = 0.01890763
#
# Stress axis : x y z
#
# Youngs Moduli (GPa) = 67.33187 71.28468 107.58511
#
# Poissons Ratio (x) = 0.12822 0.48551
# Poissons Ratio (y) = 0.12111 0.35742
# Poissons Ratio (z) = 0.30386 0.23682
#
# Static dielectric constant tensor:
#      x y z
#    x 1.983910 0.000000 0.000000 
#    y 0.000000 1.837260 0.000000 
#    z 0.000000 0.000000 1.835290 
# 
# From -- ./inp_files/17681.got.cif
#   From: 2010.05.17/outbox.cif.g08.bks.cpg/sg70_9_cif.got.tgz:17681.got - 2010.06.03 15:57:51.
