data_PCOD9515648
_publ_section_title
;
Structure prediction by ZEFSAII (Michael W. Deem and Ramdas Pophale) SiO2 
 PCOD9515648
Probable space group: F D D D
;
_chemical_formula_sum "Si O2"
_cell_formula_units_Z 128
_cell_length_a 18.756655
_cell_length_b 21.227755
_cell_length_c 15.634094
_cell_angle_alpha 90.000000
_cell_angle_beta 90.000000
_cell_angle_gamma 90.000000
_cell_volume 6224.897085
_symmetry_space_group_name_H-M "F D D D"
_symmetry_group_IT_number 70
_space_group.IT_coordinate_system_code '2'
_symmetry_cell_setting 'orthorhombic'
loop_
_space_group_symop_operation_xyz
x,y,z
1/4-x,1/4-y,z
x,1/4-y,1/4-z
1/4-x,y,1/4-z
-x,-y,-z
3/4+x,3/4+y,-z
-x,3/4+y,3/4+z
3/4+x,-y,3/4+z
x,1/2+y,1/2+z
1/4-x,3/4-y,1/2+z
x,3/4-y,3/4-z
1/4-x,1/2+y,3/4-z
-x,1/2-y,1/2-z
3/4+x,1/4+y,1/2-z
-x,1/4+y,1/4+z
3/4+x,1/2-y,1/4+z
1/2+x,y,1/2+z
3/4-x,1/4-y,1/2+z
1/2+x,1/4-y,3/4-z
3/4-x,y,3/4-z
1/2-x,-y,1/2-z
1/4+x,3/4+y,1/2-z
1/2-x,3/4+y,1/4+z
1/4+x,-y,1/4+z
1/2+x,1/2+y,z
3/4-x,3/4-y,z
1/2+x,3/4-y,1/4-z
3/4-x,1/2+y,1/4-z
1/2-x,1/2-y,-z
1/4+x,1/4+y,-z
1/2-x,1/4+y,3/4+z
1/4+x,1/2-y,3/4+z
loop_
_atom_site_type_symbol
_atom_site_label
_atom_site_fract_x
_atom_site_fract_y
_atom_site_fract_z
Si Si1 0.331713 0.002348 0.219352
Si Si2 0.813299 0.055037 0.151564
Si Si3 0.985194 0.565791 0.909648
Si Si4 0.875000 0.875000 0.117445
Si Si5 0.375000 0.082681 0.375000
O O1 0.352043 0.931647 0.194335
O O2 0.250000 0.000000 0.250000
O O3 0.357973 0.040379 0.135061
O O4 0.377286 0.036921 0.293452
O O5 0.792472 0.125000 0.125000
O O6 0.807561 0.051518 0.253806
O O7 0.758862 0.000642 0.118439
O O8 0.940290 0.619000 0.861345
O O9 0.060809 0.599643 0.925251
#
# Coordination Sequence:
#
# PCOD9515648 Si02
#       5
#    32  32  32  16  16
#     4  11  23  43  68  96 136 178 222 283 342 413
#     4  10  21  44  65  93 131 176 226 271 339 402
#     4  10  22  42  67  95 133 175 226 283 332 399
#     4  10  22  45  65  98 138 174 234 282 336 404
#     4  12  22  43  67  98 134 176 222 282 350 396
#
# _framework density 20.562588999999999
#
# number of rings (size 3 to 8) (size 9 to 14) (size 15 to 20)
#    0.000    1.500    5.000    0.000    0.000    0.500 
#   27.000    0.000    0.000    0.000    0.000    0.000 
#    0.000    0.000    0.000    0.000    0.000    0.000 
#
# Total GULP energy -178190.647538 kJ/mol
# GULP energy per Si atom -5568.457736 kJ/mol
# Density = 2.051579 g / cm^3
# Si number density = 20.562589 Si / 1000 Ang^3
#
#
#
# Elastic Constant Matrix: (Units=GPa)
#
#
# Indices 1 2 3 4 5 6 
#
# 1 98.9823 36.0803 35.2101 0.0000 0.0000 0.0000
# 2 36.0803 145.5725 35.3561 0.0000 0.0000 0.0000
# 3 35.2101 35.3561 61.5251 0.0000 0.0000 0.0000
# 4 0.0000 0.0000 0.0000 22.8916 0.0000 0.0000
# 5 0.0000 0.0000 0.0000 0.0000 32.9495 0.0000
# 6 0.0000 0.0000 0.0000 0.0000 0.0000 20.9843
#
#
#
# Elastic Compliance Matrix: (Units=1/GPa)
#
#
# Indices 1 2 3 4 5 6 
#
# 1 0.013016 -0.001647 -0.006503 0.000000 0.000000 0.000000
# 2 -0.001647 0.008192 -0.003765 0.000000 0.000000 0.000000
# 3 -0.006503 -0.003765 0.022139 0.000000 0.000000 0.000000
# 4 0.000000 0.000000 0.000000 0.043684 0.000000 0.000000
# 5 0.000000 0.000000 0.000000 0.000000 0.030349 0.000000
# 6 0.000000 0.000000 0.000000 0.000000 0.000000 0.047655
#
#
# Mechanical properties :
#
#
# Convention : Reuss Voigt Hill
#
# Bulk Modulus (GPa) = 51.23588 57.70810 54.47199
# Shear Modulus (GPa) = 25.59240 28.66065 27.12653
#
# Velocity S-wave (km/s) = 3.53173 3.73745 3.63604
# Velocity P-wave (km/s) = 6.44996 6.83741 6.64651
#
# Compressibility (1/GPa) = 0.01951757
#
# Stress axis : x y z
#
# Youngs Moduli (GPa) = 76.82716 122.06941 45.16976
#
# Poissons Ratio (x) = 0.20101 0.29373
# Poissons Ratio (y) = 0.12651 0.17008
# Poissons Ratio (z) = 0.49959 0.45962
#
# Static dielectric constant tensor:
#      x y z
#    x 1.789390 0.000000 0.000000 
#    y 0.000000 1.752320 0.000000 
#    z 0.000000 0.000000 1.739880 
# 
# From -- ./inp_files/27283.got.cif
#   From: 2010.05.17/outbox.cif.g08.bks.cpg/sg70_14_cif.got.tgz:27283.got - 2010.06.03 15:57:51.
