data_PCOD9515887
_publ_section_title
;
Structure prediction by ZEFSAII (Michael W. Deem and Ramdas Pophale) SiO2 
 PCOD9515887
Probable space group: F D D D
;
_chemical_formula_sum "Si O2"
_cell_formula_units_Z 104
_cell_length_a 6.997744
_cell_length_b 23.768856
_cell_length_c 27.790586
_cell_angle_alpha 90.000000
_cell_angle_beta 90.000000
_cell_angle_gamma 90.000000
_cell_volume 4622.362856
_symmetry_space_group_name_H-M "F D D D"
_symmetry_group_IT_number 70
_space_group.IT_coordinate_system_code '2'
_symmetry_cell_setting 'orthorhombic'
loop_
_space_group_symop_operation_xyz
x,y,z
1/4-x,1/4-y,z
x,1/4-y,1/4-z
1/4-x,y,1/4-z
-x,-y,-z
3/4+x,3/4+y,-z
-x,3/4+y,3/4+z
3/4+x,-y,3/4+z
x,1/2+y,1/2+z
1/4-x,3/4-y,1/2+z
x,3/4-y,3/4-z
1/4-x,1/2+y,3/4-z
-x,1/2-y,1/2-z
3/4+x,1/4+y,1/2-z
-x,1/4+y,1/4+z
3/4+x,1/2-y,1/4+z
1/2+x,y,1/2+z
3/4-x,1/4-y,1/2+z
1/2+x,1/4-y,3/4-z
3/4-x,y,3/4-z
1/2-x,-y,1/2-z
1/4+x,3/4+y,1/2-z
1/2-x,3/4+y,1/4+z
1/4+x,-y,1/4+z
1/2+x,1/2+y,z
3/4-x,3/4-y,z
1/2+x,3/4-y,1/4-z
3/4-x,1/2+y,1/4-z
1/2-x,1/2-y,-z
1/4+x,1/4+y,-z
1/2-x,1/4+y,3/4+z
1/4+x,1/2-y,3/4+z
loop_
_atom_site_type_symbol
_atom_site_label
_atom_site_fract_x
_atom_site_fract_y
_atom_site_fract_z
Si Si1 0.401121 0.310973 0.631153
Si Si2 0.375000 0.875000 0.375000
Si Si3 0.070772 0.724111 0.973397
Si Si4 0.189584 0.290863 0.945888
O O1 0.375000 0.375000 0.647737
O O2 0.901386 0.269795 0.462541
O O3 0.344334 0.303069 0.575415
O O4 0.342187 0.262686 0.668588
O O5 0.237121 0.912585 0.342740
O O6 0.946103 0.687324 0.011225
O O7 0.250000 0.750000 0.000000
O O8 0.375000 0.198329 0.875000
#
# Coordination Sequence:
#
# PCOD9515887 Si02
#       4
#    32   8  32  32
#     4  10  22  42  63  96 128 173 218 270 336 383
#     4  12  20  48  70  88 148 178 220 274 350 420
#     4  10  22  42  65  96 130 169 233 272 336 401
#     4  10  23  44  65  95 132 181 215 276 342 396
#
# _framework density 22.499316
#
# number of rings (size 3 to 8) (size 9 to 14) (size 15 to 20)
#    0.000    1.846    4.615    0.000    4.308    2.462 
#   19.385    1.538    0.000    0.000    0.000    0.000 
#    0.000    0.000    0.000    0.000    0.000    0.000 
#
# Total GULP energy -144923.084523 kJ/mol
# GULP energy per Si atom -5573.964789 kJ/mol
# Density = 2.244811 g / cm^3
# Si number density = 22.499316 Si / 1000 Ang^3
#
#
#
# Elastic Constant Matrix: (Units=GPa)
#
#
# Indices 1 2 3 4 5 6 
#
# 1 84.5488 10.9379 18.0958 0.0000 0.0000 0.0000
# 2 10.9379 76.7293 37.1491 0.0000 0.0000 0.0000
# 3 18.0958 37.1491 92.9850 0.0000 0.0000 0.0000
# 4 0.0000 0.0000 0.0000 785.4542 0.0000 0.0000
# 5 0.0000 0.0000 0.0000 0.0000 24.0568 0.0000
# 6 0.0000 0.0000 0.0000 0.0000 0.0000 16.7525
#
#
#
# Elastic Compliance Matrix: (Units=1/GPa)
#
#
# Indices 1 2 3 4 5 6 
#
# 1 0.012375 -0.000742 -0.002112 0.000000 0.000000 0.000000
# 2 -0.000742 0.016203 -0.006329 0.000000 0.000000 0.000000
# 3 -0.002112 -0.006329 0.013694 0.000000 0.000000 0.000000
# 4 0.000000 0.000000 0.000000 0.001273 0.000000 0.000000
# 5 0.000000 0.000000 0.000000 0.000000 0.041568 0.000000
# 6 0.000000 0.000000 0.000000 0.000000 0.000000 0.059692
#
#
# Mechanical properties :
#
#
# Convention : Reuss Voigt Hill
#
# Bulk Modulus (GPa) = 41.82883 42.95874 42.39378
# Shear Modulus (GPa) = 29.21578 177.79138 103.50358
#
# Velocity S-wave (km/s) = 3.60741 8.89901 6.78991
# Velocity P-wave (km/s) = 5.99856 11.16802 8.96402
#
# Compressibility (1/GPa) = 0.02390695
#
# Stress axis : x y z
#
# Youngs Moduli (GPa) = 80.80494 61.71786 73.02475
#
# Poissons Ratio (x) = 0.04577 0.15424
# Poissons Ratio (y) = 0.05992 0.46217
# Poissons Ratio (z) = 0.17067 0.39061
#
# Static dielectric constant tensor:
#      x y z
#    x 1.801300 0.000000 0.000000 
#    y 0.000000 -9.100770 0.000000 
#    z 0.000000 0.000000 2.025430 
# 
# From -- ./inp_files/8435.got.cif
#   From: 2010.05.17/outbox.cif.g08.bks.cpg/sg70_5_cif.got.tgz:8435.got - 2010.06.03 15:57:51.
