data_PCOD9515076
_publ_section_title
;
Structure prediction by ZEFSAII (Michael W. Deem and Ramdas Pophale) SiO2 
 PCOD9515076
Probable space group: F D D D
;
_chemical_formula_sum "Si O2"
_cell_formula_units_Z 112
_cell_length_a 23.791005
_cell_length_b 7.247875
_cell_length_c 28.258772
_cell_angle_alpha 90.000000
_cell_angle_beta 90.000000
_cell_angle_gamma 90.000000
_cell_volume 4872.779601
_symmetry_space_group_name_H-M "F D D D"
_symmetry_group_IT_number 70
_space_group.IT_coordinate_system_code '2'
_symmetry_cell_setting 'orthorhombic'
loop_
_space_group_symop_operation_xyz
x,y,z
1/4-x,1/4-y,z
x,1/4-y,1/4-z
1/4-x,y,1/4-z
-x,-y,-z
3/4+x,3/4+y,-z
-x,3/4+y,3/4+z
3/4+x,-y,3/4+z
x,1/2+y,1/2+z
1/4-x,3/4-y,1/2+z
x,3/4-y,3/4-z
1/4-x,1/2+y,3/4-z
-x,1/2-y,1/2-z
3/4+x,1/4+y,1/2-z
-x,1/4+y,1/4+z
3/4+x,1/2-y,1/4+z
1/2+x,y,1/2+z
3/4-x,1/4-y,1/2+z
1/2+x,1/4-y,3/4-z
3/4-x,y,3/4-z
1/2-x,-y,1/2-z
1/4+x,3/4+y,1/2-z
1/2-x,3/4+y,1/4+z
1/4+x,-y,1/4+z
1/2+x,1/2+y,z
3/4-x,3/4-y,z
1/2+x,3/4-y,1/4-z
3/4-x,1/2+y,1/4-z
1/2-x,1/2-y,-z
1/4+x,1/4+y,-z
1/2-x,1/4+y,3/4+z
1/4+x,1/2-y,3/4+z
loop_
_atom_site_type_symbol
_atom_site_label
_atom_site_fract_x
_atom_site_fract_y
_atom_site_fract_z
Si Si1 0.375000 0.375000 0.731430
Si Si2 0.273041 0.842309 0.169402
Si Si3 0.337389 0.718776 0.777182
Si Si4 0.059977 0.661284 0.320800
O O1 0.322493 0.434564 0.699308
O O2 0.380510 0.557496 0.762572
O O3 0.212505 0.862440 0.192125
O O4 0.292470 0.627034 0.177023
O O5 0.274529 0.908950 0.115432
O O6 0.375000 0.875000 0.801621
O O7 0.308713 0.820863 0.731220
O O8 0.125000 0.625000 0.335061
#
# Coordination Sequence:
#
# PCOD9515076 Si02
#       4
#    16  32  32  32
#     4  12  22  38  66  99 126 164 226 271 334 390
#     4  11  22  39  66 101 125 172 224 274 336 394
#     4  11  24  42  67  93 138 173 218 276 337 400
#     4  10  20  39  68  95 123 173 227 275 322 388
#
# _framework density 22.984826999999999
#
# number of rings (size 3 to 8) (size 9 to 14) (size 15 to 20)
#    0.000    1.143    7.143    1.714    0.000    1.143 
#    0.000    2.857    0.000    1.714    0.000    0.000 
#    0.000    0.000    0.000    0.000    0.000    0.000 
#
# Total GULP energy -156181.798480 kJ/mol
# GULP energy per Si atom -5577.921374 kJ/mol
# Density = 2.293251 g / cm^3
# Si number density = 22.984827 Si / 1000 Ang^3
#
#
#
# Elastic Constant Matrix: (Units=GPa)
#
#
# Indices 1 2 3 4 5 6 
#
# 1 75.8584 -40.6064 28.9860 0.0000 0.0000 0.0001
# 2 -40.6064 55.0390 -25.9486 -0.0001 0.0003 0.0005
# 3 28.9860 -25.9486 65.1762 0.0000 0.0000 0.0000
# 4 0.0000 -0.0001 0.0000 2.9591 0.0001 0.0001
# 5 0.0000 0.0003 0.0000 0.0001 4.0915 -0.0001
# 6 0.0001 0.0005 0.0000 0.0001 -0.0001 26.5919
#
#
#
# Elastic Compliance Matrix: (Units=1/GPa)
#
#
# Indices 1 2 3 4 5 6 
#
# 1 0.022691 0.014752 -0.004218 0.000001 -0.000001 0.000000
# 2 0.014752 0.031958 0.006163 0.000001 -0.000002 -0.000001
# 3 -0.004218 0.006163 0.019673 0.000000 0.000000 0.000000
# 4 0.000001 0.000001 0.000000 0.337939 -0.000008 -0.000001
# 5 -0.000001 -0.000002 0.000000 -0.000008 0.244412 0.000001
# 6 0.000000 -0.000001 0.000000 -0.000001 0.000001 0.037605
#
#
# Mechanical properties :
#
#
# Convention : Reuss Voigt Hill
#
# Bulk Modulus (GPa) = 9.28376 13.43730 11.36053
# Shear Modulus (GPa) = 7.17577 22.30467 14.74022
#
# Velocity S-wave (km/s) = 1.76882 3.11852 2.53514
# Velocity P-wave (km/s) = 2.86697 4.33886 3.67731
#
# Compressibility (1/GPa) = 0.10771494
#
# Stress axis : x y z
#
# Youngs Moduli (GPa) = 44.07047 31.29096 50.83226
#
# Poissons Ratio (x) = -0.46161 0.21442
# Poissons Ratio (y) = -0.65013 -0.31326
# Poissons Ratio (z) = 0.18590 -0.19284
#
# Static dielectric constant tensor:
#      x y z
#    x 1.894280 0.000000 0.000000 
#    y 0.000000 2.867720 0.000000 
#    z 0.000000 0.000000 1.943930 
# 
# From -- ./inp_files/9742.got.cif
#   From: 2010.05.17/outbox.cif.g08.bks.cpg/sg70_5_cif.got.tgz:9742.got - 2010.06.03 15:57:51.
