data_PCOD9515610
_publ_section_title
;
Structure prediction by ZEFSAII (Michael W. Deem and Ramdas Pophale) SiO2 
 PCOD9515610
Probable space group: F D D D
;
_chemical_formula_sum "Si O2"
_cell_formula_units_Z 176
_cell_length_a 23.191029
_cell_length_b 30.778758
_cell_length_c 11.741571
_cell_angle_alpha 90.000000
_cell_angle_beta 90.000000
_cell_angle_gamma 90.000000
_cell_volume 8381.028520
_symmetry_space_group_name_H-M "F D D D"
_symmetry_group_IT_number 70
_space_group.IT_coordinate_system_code '2'
_symmetry_cell_setting 'orthorhombic'
loop_
_space_group_symop_operation_xyz
x,y,z
1/4-x,1/4-y,z
x,1/4-y,1/4-z
1/4-x,y,1/4-z
-x,-y,-z
3/4+x,3/4+y,-z
-x,3/4+y,3/4+z
3/4+x,-y,3/4+z
x,1/2+y,1/2+z
1/4-x,3/4-y,1/2+z
x,3/4-y,3/4-z
1/4-x,1/2+y,3/4-z
-x,1/2-y,1/2-z
3/4+x,1/4+y,1/2-z
-x,1/4+y,1/4+z
3/4+x,1/2-y,1/4+z
1/2+x,y,1/2+z
3/4-x,1/4-y,1/2+z
1/2+x,1/4-y,3/4-z
3/4-x,y,3/4-z
1/2-x,-y,1/2-z
1/4+x,3/4+y,1/2-z
1/2-x,3/4+y,1/4+z
1/4+x,-y,1/4+z
1/2+x,1/2+y,z
3/4-x,3/4-y,z
1/2+x,3/4-y,1/4-z
3/4-x,1/2+y,1/4-z
1/2-x,1/2-y,-z
1/4+x,1/4+y,-z
1/2-x,1/4+y,3/4+z
1/4+x,1/2-y,3/4+z
loop_
_atom_site_type_symbol
_atom_site_label
_atom_site_fract_x
_atom_site_fract_y
_atom_site_fract_z
Si Si1 0.253279 0.457528 0.545224
Si Si2 0.632050 0.177001 0.906777
Si Si3 0.734870 0.578637 0.688960
Si Si4 0.815554 0.959276 0.922156
Si Si5 0.745606 0.625000 0.125000
Si Si6 0.443481 0.628914 0.885724
O O1 0.319499 0.447734 0.576002
O O2 0.244196 0.453578 0.408835
O O3 0.233043 0.504553 0.583339
O O4 0.215208 0.419149 0.600189
O O5 0.625000 0.125000 0.895275
O O6 0.667030 0.193985 0.798137
O O7 0.673124 0.185103 0.014039
O O8 0.728218 0.625000 0.625000
O O9 0.776406 0.588281 0.795809
O O10 0.875000 0.978092 0.875000
O O11 0.795022 0.916628 0.854183
O O12 0.783660 0.635708 0.235933
O O13 0.375000 0.632164 0.875000
#
# Coordination Sequence:
#
# PCOD9515610 Si02
#       6
#    32  32  32  32  16  32
#     4  11  25  41  69 104 142 179 235 291 354 419
#     4  12  21  44  74 103 133 187 242 283 348 424
#     4  10  21  42  71 101 130 179 234 279 347 416
#     4  12  26  44  67 103 143 188 234 300 353 426
#     4  12  25  48  72  98 140 187 248 286 356 436
#     4  11  24  42  68 102 136 188 229 284 355 425
#
# _framework density 20.99981
#
# number of rings (size 3 to 8) (size 9 to 14) (size 15 to 20)
#    0.000    0.727    5.455    3.545    3.818    5.091 
#    0.000    0.000    0.000    0.000    0.000    0.000 
#    0.000    0.000    0.000    0.000    0.000    0.000 
#
# Total GULP energy -246175.589768 kJ/mol
# GULP energy per Si atom -5594.899767 kJ/mol
# Density = 2.095201 g / cm^3
# Si number density = 20.999810 Si / 1000 Ang^3
#
#
#
# Elastic Constant Matrix: (Units=GPa)
#
#
# Indices 1 2 3 4 5 6 
#
# 1 164.9258 39.0514 32.5135 0.0000 0.0000 0.0000
# 2 39.0514 78.7791 -10.6893 0.0000 0.0000 0.0000
# 3 32.5135 -10.6893 89.1741 0.0000 0.0000 0.0000
# 4 0.0000 0.0000 0.0000 2.2944 0.0000 0.0000
# 5 0.0000 0.0000 0.0000 0.0000 18.7456 0.0000
# 6 0.0000 0.0000 0.0000 0.0000 0.0000 -3.4107
#
#
#
# Elastic Compliance Matrix: (Units=1/GPa)
#
#
# Indices 1 2 3 4 5 6 
#
# 1 0.007736 -0.004287 -0.003334 0.000000 0.000000 0.000000
# 2 -0.004287 0.015279 0.003395 0.000000 0.000000 0.000000
# 3 -0.003334 0.003395 0.012837 0.000000 0.000000 0.000000
# 4 0.000000 0.000000 0.000000 0.435848 0.000000 -0.000002
# 5 0.000000 0.000000 0.000000 0.000000 0.053346 0.000000
# 6 0.000000 0.000000 0.000000 -0.000002 0.000000 -0.293195
#
#
# Mechanical properties :
#
#
# Convention : Reuss Voigt Hill
#
# Bulk Modulus (GPa) = 36.49873 50.51448 43.50661
# Shear Modulus (GPa) = 20.04509 21.65942 20.85226
#
# Velocity S-wave (km/s) = 3.09291 3.21504 3.15457
# Velocity P-wave (km/s) = 5.49300 6.15540 5.83361
#
# Compressibility (1/GPa) = 0.02739821
#
# Stress axis : x y z
#
# Youngs Moduli (GPa) = 129.26922 65.44723 77.90167
#
# Poissons Ratio (x) = 0.28058 0.25976
# Poissons Ratio (y) = 0.55419 -0.26445
# Poissons Ratio (z) = 0.43104 -0.22217
#
# Static dielectric constant tensor:
#      x y z
#    x 1.724860 0.000000 0.000000 
#    y 0.000000 1.735120 0.000000 
#    z 0.000000 0.000000 1.807100 
# 
# From -- ./inp_files/20967.got.cif
#   From: 2010.05.17/outbox.cif.g08.bks.cpg/sg70_11_cif.got.tgz:20967.got - 2010.06.03 15:57:51.
