data_PCOD9515288
_publ_section_title
;
Structure prediction by ZEFSAII (Michael W. Deem and Ramdas Pophale) SiO2 
 PCOD9515288
Probable space group: F D D D
;
_chemical_formula_sum "Si O2"
_cell_formula_units_Z 128
_cell_length_a 11.737951
_cell_length_b 25.269076
_cell_length_c 22.066312
_cell_angle_alpha 90.000000
_cell_angle_beta 90.000000
_cell_angle_gamma 90.000000
_cell_volume 6545.026485
_symmetry_space_group_name_H-M "F D D D"
_symmetry_group_IT_number 70
_space_group.IT_coordinate_system_code '2'
_symmetry_cell_setting 'orthorhombic'
loop_
_space_group_symop_operation_xyz
x,y,z
1/4-x,1/4-y,z
x,1/4-y,1/4-z
1/4-x,y,1/4-z
-x,-y,-z
3/4+x,3/4+y,-z
-x,3/4+y,3/4+z
3/4+x,-y,3/4+z
x,1/2+y,1/2+z
1/4-x,3/4-y,1/2+z
x,3/4-y,3/4-z
1/4-x,1/2+y,3/4-z
-x,1/2-y,1/2-z
3/4+x,1/4+y,1/2-z
-x,1/4+y,1/4+z
3/4+x,1/2-y,1/4+z
1/2+x,y,1/2+z
3/4-x,1/4-y,1/2+z
1/2+x,1/4-y,3/4-z
3/4-x,y,3/4-z
1/2-x,-y,1/2-z
1/4+x,3/4+y,1/2-z
1/2-x,3/4+y,1/4+z
1/4+x,-y,1/4+z
1/2+x,1/2+y,z
3/4-x,3/4-y,z
1/2+x,3/4-y,1/4-z
3/4-x,1/2+y,1/4-z
1/2-x,1/2-y,-z
1/4+x,1/4+y,-z
1/2-x,1/4+y,3/4+z
1/4+x,1/2-y,3/4+z
loop_
_atom_site_type_symbol
_atom_site_label
_atom_site_fract_x
_atom_site_fract_y
_atom_site_fract_z
Si Si1 0.076072 0.068542 0.057375
Si Si2 0.601112 0.684042 0.725029
Si Si3 0.847564 0.016143 0.039919
Si Si4 0.003827 0.279646 0.653175
O O1 0.125000 0.125000 0.035641
O O2 0.125000 0.061993 0.125000
O O3 0.939288 0.061981 0.054209
O O4 0.116910 0.020687 0.015574
O O5 0.625000 0.625000 0.703978
O O6 0.723963 0.711543 0.725826
O O7 0.542246 0.685833 0.791180
O O8 0.526280 0.720947 0.681097
O O9 0.834328 0.978918 0.098976
O O10 0.125000 0.297912 0.625000
#
# Coordination Sequence:
#
# PCOD9515288 Si02
#       4
#    32  32  32  32
#     4  10  22  38  58  81 109 149 191 235 287 340
#     4  10  21  36  57  84 113 150 188 231 286 340
#     4  10  21  37  56  82 113 144 188 238 282 340
#     4   9  20  37  56  81 116 148 186 235 283 339
#
# _framework density 19.556835
#
# number of rings (size 3 to 8) (size 9 to 14) (size 15 to 20)
#    0.000    2.250    0.000    1.500    0.000   15.500 
#    0.000    3.750    0.000    0.000    0.000    0.000 
#    0.000    0.000    0.000    0.000    0.000    0.000 
#
# Total GULP energy -178531.133429 kJ/mol
# GULP energy per Si atom -5579.097920 kJ/mol
# Density = 1.951232 g / cm^3
# Si number density = 19.556835 Si / 1000 Ang^3
#
#
#
# Elastic Constant Matrix: (Units=GPa)
#
#
# Indices 1 2 3 4 5 6 
#
# 1 42.9422 3.5314 17.8451 0.0000 0.0000 0.0000
# 2 3.5314 54.7831 2.8057 0.0000 0.0000 0.0000
# 3 17.8451 2.8057 69.9147 0.0000 0.0000 0.0000
# 4 0.0000 0.0000 0.0000 -0.1741 0.0000 0.0000
# 5 0.0000 0.0000 0.0000 0.0000 19.0103 0.0000
# 6 0.0000 0.0000 0.0000 0.0000 0.0000 17.4328
#
#
#
# Elastic Compliance Matrix: (Units=1/GPa)
#
#
# Indices 1 2 3 4 5 6 
#
# 1 0.026149 -0.001347 -0.006620 0.000000 0.000000 0.000000
# 2 -0.001347 0.018361 -0.000393 0.000000 0.000000 0.000000
# 3 -0.006620 -0.000393 0.016009 0.000000 0.000000 0.000000
# 4 0.000000 0.000000 0.000000 -5.743568 0.000000 0.000000
# 5 0.000000 0.000000 0.000000 0.000000 0.052603 0.000000
# 6 0.000000 0.000000 0.000000 0.000000 0.000000 0.057363
#
#
# Mechanical properties :
#
#
# Convention : Reuss Voigt Hill
#
# Bulk Modulus (GPa) = 22.83182 24.00049 23.41615
# Shear Modulus (GPa) = -0.90224 16.81766 7.95771
#
# Velocity S-wave (km/s) = -0.67996 2.93565 2.01937
# Velocity P-wave (km/s) = 3.32919 4.87745 4.17571
#
# Compressibility (1/GPa) = 0.04379852
#
# Stress axis : x y z
#
# Youngs Moduli (GPa) = 38.24246 54.46402 62.46610
#
# Poissons Ratio (x) = 0.07334 0.41354
# Poissons Ratio (y) = 0.05150 0.02456
# Poissons Ratio (z) = 0.25317 0.02141
#
# Static dielectric constant tensor:
#      x y z
#    x 1.733970 0.000000 0.000000 
#    y 0.000000 1.670090 0.000000 
#    z 0.000000 0.000000 1.695880 
# 
# From -- ./inp_files/18808.got.cif
#   From: 2010.05.17/outbox.cif.g08.bks.cpg/sg70_10_cif.got.tgz:18808.got - 2010.06.03 15:57:51.
