data_PCOD9515624
_publ_section_title
;
Structure prediction by ZEFSAII (Michael W. Deem and Ramdas Pophale) SiO2 
 PCOD9515624
Probable space group: F D D D
;
_chemical_formula_sum "Si O2"
_cell_formula_units_Z 240
_cell_length_a 23.275519
_cell_length_b 27.298354
_cell_length_c 20.597427
_cell_angle_alpha 90.000000
_cell_angle_beta 90.000000
_cell_angle_gamma 90.000000
_cell_volume 13087.262317
_symmetry_space_group_name_H-M "F D D D"
_symmetry_group_IT_number 70
_space_group.IT_coordinate_system_code '2'
_symmetry_cell_setting 'orthorhombic'
loop_
_space_group_symop_operation_xyz
x,y,z
1/4-x,1/4-y,z
x,1/4-y,1/4-z
1/4-x,y,1/4-z
-x,-y,-z
3/4+x,3/4+y,-z
-x,3/4+y,3/4+z
3/4+x,-y,3/4+z
x,1/2+y,1/2+z
1/4-x,3/4-y,1/2+z
x,3/4-y,3/4-z
1/4-x,1/2+y,3/4-z
-x,1/2-y,1/2-z
3/4+x,1/4+y,1/2-z
-x,1/4+y,1/4+z
3/4+x,1/2-y,1/4+z
1/2+x,y,1/2+z
3/4-x,1/4-y,1/2+z
1/2+x,1/4-y,3/4-z
3/4-x,y,3/4-z
1/2-x,-y,1/2-z
1/4+x,3/4+y,1/2-z
1/2-x,3/4+y,1/4+z
1/4+x,-y,1/4+z
1/2+x,1/2+y,z
3/4-x,3/4-y,z
1/2+x,3/4-y,1/4-z
3/4-x,1/2+y,1/4-z
1/2-x,1/2-y,-z
1/4+x,1/4+y,-z
1/2-x,1/4+y,3/4+z
1/4+x,1/2-y,3/4+z
loop_
_atom_site_type_symbol
_atom_site_label
_atom_site_fract_x
_atom_site_fract_y
_atom_site_fract_z
Si Si1 0.785845 0.092007 0.212330
Si Si2 0.180219 0.159161 0.711336
Si Si3 0.854533 0.571104 0.482447
Si Si4 0.722921 0.944890 0.153534
Si Si5 0.323965 0.239933 0.640800
Si Si6 0.211526 0.836055 0.602632
Si Si7 0.125000 0.239085 0.625000
Si Si8 0.087392 0.674543 0.887768
O O1 0.737635 0.131103 0.191538
O O2 0.837364 0.125128 0.240531
O O3 0.754624 0.066355 0.274086
O O4 0.809152 0.053475 0.160385
O O5 0.125000 0.125000 0.701763
O O6 0.166153 0.206115 0.668721
O O7 0.182563 0.170923 0.787403
O O8 0.839387 0.533739 0.539937
O O9 0.919702 0.571696 0.456192
O O10 0.815130 0.562793 0.418586
O O11 0.708563 0.894387 0.117365
O O12 0.768167 0.975331 0.111964
O O13 0.666188 0.976375 0.165996
O O14 0.374929 0.276840 0.620616
O O15 0.278757 0.824201 0.596451
O O16 0.125000 0.625000 0.874674
#
# Coordination Sequence:
#
# PCOD9515624 Si02
#       8
#    32  32  32  32  32  32  16  32
#     4  11  21  40  56  85 130 165 196 247 306 371
#     4  11  21  36  52  81 127 169 195 236 296 357
#     4  10  22  39  59  88 116 161 201 254 312 360
#     4  11  20  36  57  86 119 164 205 238 295 374
#     4  12  23  35  62  93 122 153 211 261 302 357
#     4  10  21  43  64  77 120 163 202 254 313 373
#     4  12  23  30  54  92 118 160 208 236 287 368
#     4  11  21  41  60  86 116 159 208 252 302 363
#
# _framework density 18.338442000000001
#
# number of rings (size 3 to 8) (size 9 to 14) (size 15 to 20)
#    0.000    1.067    4.000    5.800    0.000    1.600 
#    0.000    0.000    0.000    0.000    0.000    1.867 
#    0.000    0.000    0.000    0.000    0.000    0.000 
#
# Total GULP energy -335083.426761 kJ/mol
# GULP energy per Si atom -5584.723779 kJ/mol
# Density = 1.829670 g / cm^3
# Si number density = 18.338442 Si / 1000 Ang^3
#
#
#
# Elastic Constant Matrix: (Units=GPa)
#
#
# Indices 1 2 3 4 5 6 
#
# 1 130.4274 52.7209 44.4958 0.0000 0.0000 0.0000
# 2 52.7209 94.2600 48.1878 0.0000 0.0000 0.0000
# 3 44.4958 48.1878 98.3021 0.0000 0.0000 0.0000
# 4 0.0000 0.0000 0.0000 11.8866 0.0000 0.0000
# 5 0.0000 0.0000 0.0000 0.0000 -460.4680 0.0000
# 6 0.0000 0.0000 0.0000 0.0000 0.0000 41.6653
#
#
#
# Elastic Compliance Matrix: (Units=1/GPa)
#
#
# Indices 1 2 3 4 5 6 
#
# 1 0.010335 -0.004522 -0.002461 0.000000 0.000000 0.000000
# 2 -0.004522 0.016135 -0.005863 0.000000 0.000000 0.000000
# 3 -0.002461 -0.005863 0.014161 0.000000 0.000000 0.000000
# 4 0.000000 0.000000 0.000000 0.084129 0.000000 0.000000
# 5 0.000000 0.000000 0.000000 0.000000 -0.002172 0.000000
# 6 0.000000 0.000000 0.000000 0.000000 0.000000 0.024001
#
#
# Mechanical properties :
#
#
# Convention : Reuss Voigt Hill
#
# Bulk Modulus (GPa) = 66.93994 68.19981 67.56988
# Shear Modulus (GPa) = 28.20719 -69.54423 -20.66852
#
# Velocity S-wave (km/s) = 3.92617 -6.16482 -3.36081
# Velocity P-wave (km/s) = 7.55876 3.66101 4.67610
#
# Compressibility (1/GPa) = 0.01493876
#
# Stress axis : x y z
#
# Youngs Moduli (GPa) = 96.76190 61.97568 70.61823
#
# Poissons Ratio (x) = 0.28026 0.17380
# Poissons Ratio (y) = 0.43757 0.41401
# Poissons Ratio (z) = 0.23815 0.36334
#
# Static dielectric constant tensor:
#      x y z
#    x 1.666340 0.000000 0.000000 
#    y 0.000000 1.652550 0.000000 
#    z 0.000000 0.000000 1.664040 
# 
# From -- ./inp_files/46164.got.cif
#   From: 2010.05.17/outbox.cif.g08.bks.cpg/sg70_24_cif.got.tgz:46164.got - 2010.06.03 15:57:51.
