data_PCOD9515240
_publ_section_title
;
Structure prediction by ZEFSAII (Michael W. Deem and Ramdas Pophale) SiO2 
 PCOD9515240
Probable space group: F D D D
;
_chemical_formula_sum "Si O2"
_cell_formula_units_Z 120
_cell_length_a 16.008964
_cell_length_b 12.808207
_cell_length_c 23.290983
_cell_angle_alpha 90.000000
_cell_angle_beta 90.000000
_cell_angle_gamma 90.000000
_cell_volume 4775.725806
_symmetry_space_group_name_H-M "F D D D"
_symmetry_group_IT_number 70
_space_group.IT_coordinate_system_code '2'
_symmetry_cell_setting 'orthorhombic'
loop_
_space_group_symop_operation_xyz
x,y,z
1/4-x,1/4-y,z
x,1/4-y,1/4-z
1/4-x,y,1/4-z
-x,-y,-z
3/4+x,3/4+y,-z
-x,3/4+y,3/4+z
3/4+x,-y,3/4+z
x,1/2+y,1/2+z
1/4-x,3/4-y,1/2+z
x,3/4-y,3/4-z
1/4-x,1/2+y,3/4-z
-x,1/2-y,1/2-z
3/4+x,1/4+y,1/2-z
-x,1/4+y,1/4+z
3/4+x,1/2-y,1/4+z
1/2+x,y,1/2+z
3/4-x,1/4-y,1/2+z
1/2+x,1/4-y,3/4-z
3/4-x,y,3/4-z
1/2-x,-y,1/2-z
1/4+x,3/4+y,1/2-z
1/2-x,3/4+y,1/4+z
1/4+x,-y,1/4+z
1/2+x,1/2+y,z
3/4-x,3/4-y,z
1/2+x,3/4-y,1/4-z
3/4-x,1/2+y,1/4-z
1/2-x,1/2-y,-z
1/4+x,1/4+y,-z
1/2-x,1/4+y,3/4+z
1/4+x,1/2-y,3/4+z
loop_
_atom_site_type_symbol
_atom_site_label
_atom_site_fract_x
_atom_site_fract_y
_atom_site_fract_z
Si Si1 0.965433 0.327668 0.574981
Si Si2 0.151026 0.375000 0.375000
Si Si3 0.875000 0.707423 0.375000
Si Si4 0.736731 0.271914 0.296076
Si Si5 0.875000 0.875000 0.273217
Si Si6 0.375000 0.375000 0.875000
O O1 0.875000 0.375000 0.585113
O O2 0.955524 0.205883 0.589765
O O3 0.042028 0.359589 0.614489
O O4 0.994222 0.341754 0.510301
O O5 0.092287 0.313954 0.418847
O O6 0.889908 0.778738 0.317907
O O7 0.701594 0.162893 0.268219
O O8 0.816351 0.302760 0.334808
#
# Coordination Sequence:
#
# PCOD9515240 Si02
#       6
#    32  16  16  32  16   8
#     4  11  23  47  75 104 147 193 238 304 376 428
#     4  11  26  44  68 105 150 184 250 306 347 457
#     4   9  20  44  73 112 142 180 249 307 356 456
#     4  10  22  44  68 105 144 193 247 301 364 437
#     4   9  18  40  75 106 147 186 238 311 374 424
#     4  10  20  44  68 104 150 200 252 304 348 458
#
# _framework density 25.127071000000001
#
# number of rings (size 3 to 8) (size 9 to 14) (size 15 to 20)
#    0.000    1.867    1.333    3.200    1.867    1.067 
#    9.600   12.000    0.000    1.600    0.000    0.000 
#    0.000    0.000    0.000    0.000    0.000    0.000 
#
# Total GULP energy -167631.380234 kJ/mol
# GULP energy per Si atom -5587.712674 kJ/mol
# Density = 2.506988 g / cm^3
# Si number density = 25.127071 Si / 1000 Ang^3
#
#
#
# Elastic Constant Matrix: (Units=GPa)
#
#
# Indices 1 2 3 4 5 6 
#
# 1 178.1162 29.8552 82.8905 0.0000 0.0000 0.0000
# 2 29.8552 69.1621 51.8034 0.0000 0.0000 0.0000
# 3 82.8905 51.8034 177.5924 0.0000 0.0000 0.0000
# 4 0.0000 0.0000 0.0000 -15.9540 0.0000 0.0000
# 5 0.0000 0.0000 0.0000 0.0000 118.7770 0.0000
# 6 0.0000 0.0000 0.0000 0.0000 0.000092622.5814
#
#
#
# Elastic Compliance Matrix: (Units=1/GPa)
#
#
# Indices 1 2 3 4 5 6 
#
# 1 0.007203 -0.000756 -0.003141 0.000000 0.000000 0.000000
# 2 -0.000756 0.018580 -0.005067 0.000000 0.000000 0.000000
# 3 -0.003141 -0.005067 0.008575 0.000000 0.000000 0.000000
# 4 0.000000 0.000000 0.000000 -0.062680 0.000000 0.000000
# 5 0.000000 0.000000 0.000000 0.000000 0.008419 0.000000
# 6 0.000000 0.000000 0.000000 0.000000 0.000000 0.000011
#
#
# Mechanical properties :
#
#
# Convention : Reuss Voigt Hill
#
# Bulk Modulus (GPa) = 60.86670 83.77431 72.32050
# Shear Modulus (GPa) = 1423.06086 18562.43566 9992.74826
#
# Velocity S-wave (km/s) = 23.82384 86.04338 63.13097
# Velocity P-wave (km/s) = 27.94715 99.52234 73.09494
#
# Compressibility (1/GPa) = 0.01642935
#
# Stress axis : x y z
#
# Youngs Moduli (GPa) = 138.83131 53.82012 116.61742
#
# Poissons Ratio (x) = 0.04071 0.36633
# Poissons Ratio (y) = 0.10501 0.59088
# Poissons Ratio (z) = 0.43611 0.27270
#
# Static dielectric constant tensor:
#      x y z
#    x 2.014360 0.000000 0.000000 
#    y 0.000000 2.025910 0.000000 
#    z 0.000000 0.000000 1.949200 
# 
# From -- ./inp_files/59288.got.cif
#   From: 2010.05.17/outbox.cif.g08.bks.cpg/sg70_30_cif.got.tgz:59288.got - 2010.06.03 15:57:51.
