data_PCOD9515364
_publ_section_title
;
Structure prediction by ZEFSAII (Michael W. Deem and Ramdas Pophale) SiO2 
 PCOD9515364
Probable space group: F D D D
;
_chemical_formula_sum "Si O2"
_cell_formula_units_Z 192
_cell_length_a 19.327427
_cell_length_b 20.670525
_cell_length_c 21.853121
_cell_angle_alpha 90.000000
_cell_angle_beta 90.000000
_cell_angle_gamma 90.000000
_cell_volume 8730.498041
_symmetry_space_group_name_H-M "F D D D"
_symmetry_group_IT_number 70
_space_group.IT_coordinate_system_code '2'
_symmetry_cell_setting 'orthorhombic'
loop_
_space_group_symop_operation_xyz
x,y,z
1/4-x,1/4-y,z
x,1/4-y,1/4-z
1/4-x,y,1/4-z
-x,-y,-z
3/4+x,3/4+y,-z
-x,3/4+y,3/4+z
3/4+x,-y,3/4+z
x,1/2+y,1/2+z
1/4-x,3/4-y,1/2+z
x,3/4-y,3/4-z
1/4-x,1/2+y,3/4-z
-x,1/2-y,1/2-z
3/4+x,1/4+y,1/2-z
-x,1/4+y,1/4+z
3/4+x,1/2-y,1/4+z
1/2+x,y,1/2+z
3/4-x,1/4-y,1/2+z
1/2+x,1/4-y,3/4-z
3/4-x,y,3/4-z
1/2-x,-y,1/2-z
1/4+x,3/4+y,1/2-z
1/2-x,3/4+y,1/4+z
1/4+x,-y,1/4+z
1/2+x,1/2+y,z
3/4-x,3/4-y,z
1/2+x,3/4-y,1/4-z
3/4-x,1/2+y,1/4-z
1/2-x,1/2-y,-z
1/4+x,1/4+y,-z
1/2-x,1/4+y,3/4+z
1/4+x,1/2-y,3/4+z
loop_
_atom_site_type_symbol
_atom_site_label
_atom_site_fract_x
_atom_site_fract_y
_atom_site_fract_z
Si Si1 0.125000 0.125000 0.535132
Si Si2 0.132713 0.876159 0.940771
Si Si3 0.778384 0.939941 0.565834
Si Si4 0.040584 0.009203 0.282228
Si Si5 0.414774 0.585638 0.435642
Si Si6 0.763998 0.466239 0.840191
Si Si7 0.125000 0.625000 0.414846
O O1 0.178791 0.089703 0.490616
O O2 0.170110 0.174103 0.573827
O O3 0.093605 0.875000 0.875000
O O4 0.198524 0.829231 0.924502
O O5 0.154251 0.949321 0.959625
O O6 0.114189 0.845654 0.006740
O O7 0.709227 0.899219 0.578030
O O8 0.829979 0.925047 0.622281
O O9 0.747602 0.004201 0.533468
O O10 0.075460 0.077954 0.296417
O O11 0.992736 0.989959 0.340091
O O12 0.375000 0.567224 0.375000
O O13 0.474277 0.532287 0.446920
#
# Coordination Sequence:
#
# PCOD9515364 Si02
#       7
#    16  32  32  32  32  32  16
#     4  11  22  30  56  86 138 184 200 255 330 415
#     4   9  20  37  55  80 131 172 214 268 319 404
#     4  10  23  40  54  94 132 176 224 271 338 404
#     4  10  21  38  56  87 131 177 226 261 335 409
#     4  11  22  35  58  89 131 177 224 270 329 401
#     4  11  21  34  54  90 137 175 212 258 328 422
#     4  11  22  41  66  91 137 186 217 293 334 415
#
# _framework density 21.991872999999998
#
# number of rings (size 3 to 8) (size 9 to 14) (size 15 to 20)
#    0.000    1.667    5.000    0.500    2.333    2.667 
#    0.000    0.000    0.000    4.000    0.000   18.667 
#    0.000    0.000    0.000    2.417    0.000    0.000 
#
# Total GULP energy -267441.784187 kJ/mol
# GULP energy per Si atom -5571.703837 kJ/mol
# Density = 2.194182 g / cm^3
# Si number density = 21.991873 Si / 1000 Ang^3
#
#
#
# Elastic Constant Matrix: (Units=GPa)
#
#
# Indices 1 2 3 4 5 6 
#
# 1 43.5642 21.0848 13.1918 0.0000 0.0000 0.0000
# 2 21.0848 84.4289 40.5417 0.0000 0.0000 0.0000
# 3 13.1918 40.5417 95.0309 0.0000 0.0000 0.0000
# 4 0.0000 0.0000 0.0000 27.2555 0.0000 0.0000
# 5 0.0000 0.0000 0.0000 0.0000 16.9391 0.0000
# 6 0.0000 0.0000 0.0000 0.0000 0.0000 30.8769
#
#
#
# Elastic Compliance Matrix: (Units=1/GPa)
#
#
# Indices 1 2 3 4 5 6 
#
# 1 0.026196 -0.006031 -0.001063 0.000000 0.000000 0.000000
# 2 -0.006031 0.016284 -0.006110 0.000000 0.000000 0.000000
# 3 -0.001063 -0.006110 0.013277 0.000000 0.000000 0.000000
# 4 0.000000 0.000000 0.000000 0.036690 0.000000 0.000000
# 5 0.000000 0.000000 0.000000 0.000000 0.059035 0.000000
# 6 0.000000 0.000000 0.000000 0.000000 0.000000 0.032387
#
#
# Mechanical properties :
#
#
# Convention : Reuss Voigt Hill
#
# Bulk Modulus (GPa) = 34.07383 41.40673 37.74028
# Shear Modulus (GPa) = 22.72098 24.89468 23.80783
#
# Velocity S-wave (km/s) = 3.21776 3.36816 3.29382
# Velocity P-wave (km/s) = 5.41597 5.83053 5.62707
#
# Compressibility (1/GPa) = 0.02934803
#
# Stress axis : x y z
#
# Youngs Moduli (GPa) = 38.17408 61.40818 75.31760
#
# Poissons Ratio (x) = 0.37038 0.08008
# Poissons Ratio (y) = 0.23024 0.46019
# Poissons Ratio (z) = 0.04059 0.37520
#
# Static dielectric constant tensor:
#      x y z
#    x 1.840120 0.000000 0.000000 
#    y 0.000000 2.044400 0.000000 
#    z 0.000000 0.000000 1.890280 
# 
# From -- ./inp_files/53006.got.cif
#   From: 2010.05.17/outbox.cif.g08.bks.cpg/sg70_27_cif.got.tgz:53006.got - 2010.06.03 15:57:51.
