data_PCOD9515053
_publ_section_title
;
Structure prediction by ZEFSAII (Michael W. Deem and Ramdas Pophale) SiO2 
 PCOD9515053
Probable space group: F D D D
;
_chemical_formula_sum "Si O2"
_cell_formula_units_Z 136
_cell_length_a 31.839988
_cell_length_b 20.568964
_cell_length_c 11.619088
_cell_angle_alpha 90.000000
_cell_angle_beta 90.000000
_cell_angle_gamma 90.000000
_cell_volume 7609.521605
_symmetry_space_group_name_H-M "F D D D"
_symmetry_group_IT_number 70
_space_group.IT_coordinate_system_code '2'
_symmetry_cell_setting 'orthorhombic'
loop_
_space_group_symop_operation_xyz
x,y,z
1/4-x,1/4-y,z
x,1/4-y,1/4-z
1/4-x,y,1/4-z
-x,-y,-z
3/4+x,3/4+y,-z
-x,3/4+y,3/4+z
3/4+x,-y,3/4+z
x,1/2+y,1/2+z
1/4-x,3/4-y,1/2+z
x,3/4-y,3/4-z
1/4-x,1/2+y,3/4-z
-x,1/2-y,1/2-z
3/4+x,1/4+y,1/2-z
-x,1/4+y,1/4+z
3/4+x,1/2-y,1/4+z
1/2+x,y,1/2+z
3/4-x,1/4-y,1/2+z
1/2+x,1/4-y,3/4-z
3/4-x,y,3/4-z
1/2-x,-y,1/2-z
1/4+x,3/4+y,1/2-z
1/2-x,3/4+y,1/4+z
1/4+x,-y,1/4+z
1/2+x,1/2+y,z
3/4-x,3/4-y,z
1/2+x,3/4-y,1/4-z
3/4-x,1/2+y,1/4-z
1/2-x,1/2-y,-z
1/4+x,1/4+y,-z
1/2-x,1/4+y,3/4+z
1/4+x,1/2-y,3/4+z
loop_
_atom_site_type_symbol
_atom_site_label
_atom_site_fract_x
_atom_site_fract_y
_atom_site_fract_z
Si Si1 0.529861 0.655426 0.747524
Si Si2 0.904735 0.185936 0.047372
Si Si3 0.875000 0.875000 0.875000
Si Si4 0.061911 0.800467 0.209142
Si Si5 0.412137 0.421944 0.097857
O O1 0.541750 0.625000 0.625000
O O2 0.550961 0.726707 0.747375
O O3 0.479706 0.660818 0.756493
O O4 0.546648 0.611497 0.851534
O O5 0.918380 0.125000 0.125000
O O6 0.908811 0.254416 0.112587
O O7 0.929996 0.193530 0.927746
O O8 0.855447 0.177742 0.016229
O O9 0.845898 0.916080 0.788597
O O10 0.375000 0.375000 0.147354
#
# Coordination Sequence:
#
# PCOD9515053 Si02
#       5
#    32  32   8  32  32
#     4  11  20  37  66  92 119 150 212 259 308 355
#     4  11  22  39  59  90 124 161 207 245 313 369
#     4   8  20  36  58  88 116 160 210 238 300 348
#     4  10  22  37  59  93 122 156 199 264 310 356
#     4  10  20  39  63  88 116 166 203 251 298 377
#
# _framework density 17.872344999999999
#
# number of rings (size 3 to 8) (size 9 to 14) (size 15 to 20)
#    0.706    0.941    4.706    0.706    0.000    2.353 
#    2.118    1.176    0.000    0.000    0.000    0.000 
#    0.000    0.000    0.000    0.000    0.000    0.000 
#
# Total GULP energy -189456.500400 kJ/mol
# GULP energy per Si atom -5572.250012 kJ/mol
# Density = 1.783167 g / cm^3
# Si number density = 17.872345 Si / 1000 Ang^3
#
#
#
# Elastic Constant Matrix: (Units=GPa)
#
#
# Indices 1 2 3 4 5 6 
#
# 1 49.6282 12.5916 13.0268 0.0000 0.0000 0.0000
# 2 12.5916 106.0934 46.0321 0.0000 0.0000 0.0000
# 3 13.0268 46.0321 117.0338 0.0000 0.0000 0.0000
# 4 0.0000 0.0000 0.0000 24.1203 0.0000 0.0000
# 5 0.0000 0.0000 0.0000 0.0000 19.4199 0.0000
# 6 0.0000 0.0000 0.0000 0.0000 0.0000 7.0703
#
#
#
# Elastic Compliance Matrix: (Units=1/GPa)
#
#
# Indices 1 2 3 4 5 6 
#
# 1 0.021033 -0.001785 -0.001639 0.000000 0.000000 0.000000
# 2 -0.001785 0.011517 -0.004331 0.000000 0.000000 0.000000
# 3 -0.001639 -0.004331 0.010430 0.000000 0.000000 0.000000
# 4 0.000000 0.000000 0.000000 0.041459 0.000000 0.000000
# 5 0.000000 0.000000 0.000000 0.000000 0.051494 0.000000
# 6 0.000000 0.000000 0.000000 0.000000 0.000000 0.141437
#
#
# Mechanical properties :
#
#
# Convention : Reuss Voigt Hill
#
# Bulk Modulus (GPa) = 36.40374 46.22849 41.31612
# Shear Modulus (GPa) = 16.55429 23.52910 20.04169
#
# Velocity S-wave (km/s) = 3.04674 3.63231 3.35233
# Velocity P-wave (km/s) = 5.72624 6.59649 6.17671
#
# Compressibility (1/GPa) = 0.02746971
#
# Stress axis : x y z
#
# Youngs Moduli (GPa) = 47.54441 86.83040 95.87277
#
# Poissons Ratio (x) = 0.15500 0.15714
# Poissons Ratio (y) = 0.08487 0.41523
# Poissons Ratio (z) = 0.07793 0.37607
#
# Static dielectric constant tensor:
#      x y z
#    x 1.612540 0.000000 0.000000 
#    y 0.000000 1.596360 0.000000 
#    z 0.000000 0.000000 1.598470 
# 
# From -- ./inp_files/17848.got.cif
#   From: 2010.05.17/outbox.cif.g08.bks.cpg/sg70_9_cif.got.tgz:17848.got - 2010.06.03 15:57:51.
