data_PCOD9515081
_publ_section_title
;
Structure prediction by ZEFSAII (Michael W. Deem and Ramdas Pophale) SiO2 
 PCOD9515081
Probable space group: F D D D
;
_chemical_formula_sum "Si O2"
_cell_formula_units_Z 176
_cell_length_a 29.941048
_cell_length_b 11.725880
_cell_length_c 21.955433
_cell_angle_alpha 90.000000
_cell_angle_beta 90.000000
_cell_angle_gamma 90.000000
_cell_volume 7708.226179
_symmetry_space_group_name_H-M "F D D D"
_symmetry_group_IT_number 70
_space_group.IT_coordinate_system_code '2'
_symmetry_cell_setting 'orthorhombic'
loop_
_space_group_symop_operation_xyz
x,y,z
1/4-x,1/4-y,z
x,1/4-y,1/4-z
1/4-x,y,1/4-z
-x,-y,-z
3/4+x,3/4+y,-z
-x,3/4+y,3/4+z
3/4+x,-y,3/4+z
x,1/2+y,1/2+z
1/4-x,3/4-y,1/2+z
x,3/4-y,3/4-z
1/4-x,1/2+y,3/4-z
-x,1/2-y,1/2-z
3/4+x,1/4+y,1/2-z
-x,1/4+y,1/4+z
3/4+x,1/2-y,1/4+z
1/2+x,y,1/2+z
3/4-x,1/4-y,1/2+z
1/2+x,1/4-y,3/4-z
3/4-x,y,3/4-z
1/2-x,-y,1/2-z
1/4+x,3/4+y,1/2-z
1/2-x,3/4+y,1/4+z
1/4+x,-y,1/4+z
1/2+x,1/2+y,z
3/4-x,3/4-y,z
1/2+x,3/4-y,1/4-z
3/4-x,1/2+y,1/4-z
1/2-x,1/2-y,-z
1/4+x,1/4+y,-z
1/2-x,1/4+y,3/4+z
1/4+x,1/2-y,3/4+z
loop_
_atom_site_type_symbol
_atom_site_label
_atom_site_fract_x
_atom_site_fract_y
_atom_site_fract_z
Si Si1 0.363141 0.501645 0.303903
Si Si2 0.676652 0.631003 0.197581
Si Si3 0.498015 0.696125 0.485200
Si Si4 0.124372 0.875000 0.875000
Si Si5 0.047829 0.267930 0.799244
Si Si6 0.316909 0.094079 0.239699
O O1 0.375000 0.499407 0.375000
O O2 0.375000 0.375000 0.280370
O O3 0.315669 0.517267 0.271233
O O4 0.393505 0.603103 0.279879
O O5 0.625000 0.625000 0.217046
O O6 0.678318 0.625000 0.125000
O O7 0.702165 0.745217 0.214842
O O8 0.699150 0.521558 0.229080
O O9 0.522394 0.601380 0.442821
O O10 0.485174 0.627253 0.547172
O O11 0.531410 0.803307 0.488700
O O12 0.158958 0.960979 0.841180
O O13 0.090892 0.822386 0.825082
#
# Coordination Sequence:
#
# PCOD9515081 Si02
#       6
#    32  32  32  16  32  32
#     4  10  20  39  70 101 132 179 231 290 357 425
#     4  11  26  46  69  99 141 192 240 297 368 442
#     4  11  24  46  69 102 146 184 246 308 362 448
#     4  10  24  46  72 108 151 201 244 314 384 462
#     4  10  23  46  68 106 144 186 242 305 372 428
#     4  11  24  45  73 105 142 192 247 300 378 448
#
# _framework density 22.832749
#
# number of rings (size 3 to 8) (size 9 to 14) (size 15 to 20)
#    0.000    1.455    1.818    2.727    6.364    1.455 
#   13.091    0.000    0.000    0.000    0.000    0.000 
#    0.000    0.000    0.000    0.000    0.000    0.000 
#
# Total GULP energy -245448.157363 kJ/mol
# GULP energy per Si atom -5578.367213 kJ/mol
# Density = 2.278078 g / cm^3
# Si number density = 22.832749 Si / 1000 Ang^3
#
#
#
# Elastic Constant Matrix: (Units=GPa)
#
#
# Indices 1 2 3 4 5 6 
#
# 1 114.8258 56.5770 25.1325 0.0000 0.0000 0.0000
# 2 56.5770 172.2197 38.0179 0.0000 0.0000 0.0000
# 3 25.1325 38.0179 78.8940 0.0000 0.0000 0.0000
# 4 0.0000 0.0000 0.0000 14.4365 0.0000 0.0000
# 5 0.0000 0.0000 0.0000 0.0000 -35.9354 0.0000
# 6 0.0000 0.0000 0.0000 0.0000 0.0000 146.9280
#
#
#
# Elastic Compliance Matrix: (Units=1/GPa)
#
#
# Indices 1 2 3 4 5 6 
#
# 1 0.010641 -0.003075 -0.001908 0.000000 0.000000 0.000000
# 2 -0.003075 0.007386 -0.002580 0.000000 0.000000 0.000000
# 3 -0.001908 -0.002580 0.014526 0.000000 0.000000 0.000000
# 4 0.000000 0.000000 0.000000 0.069269 0.000000 0.000000
# 5 0.000000 0.000000 0.000000 0.000000 -0.027828 0.000000
# 6 0.000000 0.000000 0.000000 0.000000 0.000000 0.006806
#
#
# Mechanical properties :
#
#
# Convention : Reuss Voigt Hill
#
# Bulk Modulus (GPa) = 57.37771 67.26604 62.32188
# Shear Modulus (GPa) = 49.14684 41.49998 45.32341
#
# Velocity S-wave (km/s) = 4.64451 4.26791 4.46019
# Velocity P-wave (km/s) = 7.34480 7.33560 7.34020
#
# Compressibility (1/GPa) = 0.01742837
#
# Stress axis : x y z
#
# Youngs Moduli (GPa) = 93.97208 135.38940 68.84053
#
# Poissons Ratio (x) = 0.41627 0.13137
# Poissons Ratio (y) = 0.28893 0.17760
# Poissons Ratio (z) = 0.17933 0.34928
#
# Static dielectric constant tensor:
#      x y z
#    x 1.941840 0.000000 0.000000 
#    y 0.000000 1.916230 0.000000 
#    z 0.000000 0.000000 1.948720 
# 
# From -- ./inp_files/54950.got.cif
#   From: 2010.05.17/outbox.cif.g08.bks.cpg/sg70_28_cif.got.tgz:54950.got - 2010.06.03 15:57:51.
