data_PCOD9515676
_publ_section_title
;
Structure prediction by ZEFSAII (Michael W. Deem and Ramdas Pophale) SiO2 
 PCOD9515676
Probable space group: F D D D
;
_chemical_formula_sum "Si O2"
_cell_formula_units_Z 144
_cell_length_a 18.569737
_cell_length_b 22.461438
_cell_length_c 13.566935
_cell_angle_alpha 90.000000
_cell_angle_beta 90.000000
_cell_angle_gamma 90.000000
_cell_volume 5658.809239
_symmetry_space_group_name_H-M "F D D D"
_symmetry_group_IT_number 70
_space_group.IT_coordinate_system_code '2'
_symmetry_cell_setting 'orthorhombic'
loop_
_space_group_symop_operation_xyz
x,y,z
1/4-x,1/4-y,z
x,1/4-y,1/4-z
1/4-x,y,1/4-z
-x,-y,-z
3/4+x,3/4+y,-z
-x,3/4+y,3/4+z
3/4+x,-y,3/4+z
x,1/2+y,1/2+z
1/4-x,3/4-y,1/2+z
x,3/4-y,3/4-z
1/4-x,1/2+y,3/4-z
-x,1/2-y,1/2-z
3/4+x,1/4+y,1/2-z
-x,1/4+y,1/4+z
3/4+x,1/2-y,1/4+z
1/2+x,y,1/2+z
3/4-x,1/4-y,1/2+z
1/2+x,1/4-y,3/4-z
3/4-x,y,3/4-z
1/2-x,-y,1/2-z
1/4+x,3/4+y,1/2-z
1/2-x,3/4+y,1/4+z
1/4+x,-y,1/4+z
1/2+x,1/2+y,z
3/4-x,3/4-y,z
1/2+x,3/4-y,1/4-z
3/4-x,1/2+y,1/4-z
1/2-x,1/2-y,-z
1/4+x,1/4+y,-z
1/2-x,1/4+y,3/4+z
1/4+x,1/2-y,3/4+z
loop_
_atom_site_type_symbol
_atom_site_label
_atom_site_fract_x
_atom_site_fract_y
_atom_site_fract_z
Si Si1 0.941434 0.265228 0.664680
Si Si2 0.250146 0.182043 0.749490
Si Si3 0.375000 0.875000 0.875000
Si Si4 0.279093 0.364743 0.062809
Si Si5 0.375000 0.375000 0.875000
Si Si6 0.135322 0.344379 0.775608
O O1 0.933337 0.333394 0.630769
O O2 0.876682 0.225169 0.706583
O O3 0.000000 0.250000 0.750000
O O4 0.964068 0.234523 0.561705
O O5 0.178815 0.163770 0.690401
O O6 0.233647 0.190318 0.864239
O O7 0.309238 0.127997 0.743389
O O8 0.319318 0.349989 0.959923
O O9 0.199728 0.392331 0.047009
O O10 0.161105 0.375000 0.875000
#
# Coordination Sequence:
#
# PCOD9515676 Si02
#       6
#    32  32   8  32   8  32
#     4  11  23  42  71 115 134 168 240 295 365 426
#     4  11  23  40  69 104 137 182 223 288 373 415
#     4  12  18  38  64  98 146 158 214 300 344 420
#     4  12  25  47  71  94 146 190 236 295 346 431
#     4  12  30  50  60  98 142 206 242 284 348 408
#     4  10  21  46  68  99 138 182 227 288 358 423
#
# _framework density 25.447050000000001
#
# number of rings (size 3 to 8) (size 9 to 14) (size 15 to 20)
#    0.000    0.889    6.667    1.333    0.000    5.333 
#    8.000    2.222    0.000    0.000    0.000    0.000 
#    0.000    0.000    0.000    0.000    0.000    0.000 
#
# Total GULP energy -201038.490406 kJ/mol
# GULP energy per Si atom -5584.402511 kJ/mol
# Density = 2.538913 g / cm^3
# Si number density = 25.447050 Si / 1000 Ang^3
#
#
#
# Elastic Constant Matrix: (Units=GPa)
#
#
# Indices 1 2 3 4 5 6 
#
# 1 144.4280 29.4853 33.7949 0.0000 0.0000 0.0000
# 2 29.4853 96.7057 34.4615 0.0000 0.0000 0.0000
# 3 33.7949 34.4615 188.6753 0.0000 0.0000 0.0000
# 4 0.0000 0.0000 0.0000 24.6535 0.0000 0.0000
# 5 0.0000 0.0000 0.0000 0.0000 55.9192 0.0000
# 6 0.0000 0.0000 0.0000 0.0000 0.0000 6.2659
#
#
#
# Elastic Compliance Matrix: (Units=1/GPa)
#
#
# Indices 1 2 3 4 5 6 
#
# 1 0.007555 -0.001948 -0.000997 0.000000 0.000000 0.000000
# 2 -0.001948 0.011563 -0.001763 0.000000 0.000000 0.000000
# 3 -0.000997 -0.001763 0.005801 0.000000 0.000000 0.000000
# 4 0.000000 0.000000 0.000000 0.040562 0.000000 0.000000
# 5 0.000000 0.000000 0.000000 0.000000 0.017883 0.000000
# 6 0.000000 0.000000 0.000000 0.000000 0.000000 0.159595
#
#
# Mechanical properties :
#
#
# Convention : Reuss Voigt Hill
#
# Bulk Modulus (GPa) = 64.50937 69.47695 66.99316
# Shear Modulus (GPa) = 19.41423 39.50553 29.45988
#
# Velocity S-wave (km/s) = 2.76511 3.94440 3.40618
# Velocity P-wave (km/s) = 5.96657 6.93587 6.46939
#
# Compressibility (1/GPa) = 0.01550162
#
# Stress axis : x y z
#
# Youngs Moduli (GPa) = 132.36358 86.48368 172.39062
#
# Poissons Ratio (x) = 0.16847 0.17194
# Poissons Ratio (y) = 0.25785 0.30393
# Poissons Ratio (z) = 0.13202 0.15247
#
# Static dielectric constant tensor:
#      x y z
#    x 2.102730 0.000000 0.000000 
#    y 0.000000 2.021310 0.000000 
#    z 0.000000 0.000000 2.099260 
# 
# From -- ./inp_files/26634.got.cif
#   From: 2010.05.17/outbox.cif.g08.bks.cpg/sg70_14_cif.got.tgz:26634.got - 2010.06.03 15:57:51.
