data_PCOD9515129
_publ_section_title
;
Structure prediction by ZEFSAII (Michael W. Deem and Ramdas Pophale) SiO2 
 PCOD9515129
Probable space group: F D D D
;
_chemical_formula_sum "Si O2"
_cell_formula_units_Z 176
_cell_length_a 10.670754
_cell_length_b 32.736403
_cell_length_c 25.664685
_cell_angle_alpha 90.000000
_cell_angle_beta 90.000000
_cell_angle_gamma 90.000000
_cell_volume 8965.241744
_symmetry_space_group_name_H-M "F D D D"
_symmetry_group_IT_number 70
_space_group.IT_coordinate_system_code '2'
_symmetry_cell_setting 'orthorhombic'
loop_
_space_group_symop_operation_xyz
x,y,z
1/4-x,1/4-y,z
x,1/4-y,1/4-z
1/4-x,y,1/4-z
-x,-y,-z
3/4+x,3/4+y,-z
-x,3/4+y,3/4+z
3/4+x,-y,3/4+z
x,1/2+y,1/2+z
1/4-x,3/4-y,1/2+z
x,3/4-y,3/4-z
1/4-x,1/2+y,3/4-z
-x,1/2-y,1/2-z
3/4+x,1/4+y,1/2-z
-x,1/4+y,1/4+z
3/4+x,1/2-y,1/4+z
1/2+x,y,1/2+z
3/4-x,1/4-y,1/2+z
1/2+x,1/4-y,3/4-z
3/4-x,y,3/4-z
1/2-x,-y,1/2-z
1/4+x,3/4+y,1/2-z
1/2-x,3/4+y,1/4+z
1/4+x,-y,1/4+z
1/2+x,1/2+y,z
3/4-x,3/4-y,z
1/2+x,3/4-y,1/4-z
3/4-x,1/2+y,1/4-z
1/2-x,1/2-y,-z
1/4+x,1/4+y,-z
1/2-x,1/4+y,3/4+z
1/4+x,1/2-y,3/4+z
loop_
_atom_site_type_symbol
_atom_site_label
_atom_site_fract_x
_atom_site_fract_y
_atom_site_fract_z
Si Si1 0.199519 0.690915 0.176826
Si Si2 0.624791 0.395916 0.186989
Si Si3 0.875000 0.375000 0.003686
Si Si4 0.891357 0.515712 0.260204
Si Si5 0.125000 0.625000 0.492537
Si Si6 0.626228 0.375000 0.375000
Si Si7 0.193622 0.060601 0.071171
O O1 0.125000 0.704526 0.125000
O O2 0.115345 0.665911 0.218151
O O3 0.282598 0.723902 0.207382
O O4 0.292748 0.655009 0.158899
O O5 0.625000 0.394366 0.125000
O O6 0.499052 0.377333 0.211547
O O7 0.622213 0.442719 0.207035
O O8 0.749080 0.373734 0.208834
O O9 0.750000 0.500000 0.250000
O O10 0.969539 0.481747 0.292400
O O11 0.110940 0.586061 0.530253
O O12 0.704484 0.405754 0.411517
O O13 0.125000 0.050601 0.125000
#
# Coordination Sequence:
#
# PCOD9515129 Si02
#       7
#    32  32  16  32  16  16  32
#     4  11  22  40  71  99 137 181 232 290 352 423
#     4  11  24  42  67  93 136 182 227 284 351 422
#     4  10  20  40  68  98 130 178 232 280 340 414
#     4  11  23  42  63  97 142 179 225 288 371 412
#     4  12  22  40  68  96 128 174 244 282 338 416
#     4  12  20  38  70 100 128 176 242 290 336 410
#     4  12  22  37  64 101 129 169 229 297 339 405
#
# _framework density 19.631371999999999
#
# number of rings (size 3 to 8) (size 9 to 14) (size 15 to 20)
#    0.000    0.727    5.455    4.364    0.000    0.000 
#    0.000    1.818    4.000    0.000    0.000    0.000 
#    0.000    0.000    0.000    0.000    0.000    0.000 
#
# Total GULP energy -245685.240547 kJ/mol
# GULP energy per Si atom -5583.755467 kJ/mol
# Density = 1.958669 g / cm^3
# Si number density = 19.631372 Si / 1000 Ang^3
#
#
#
# Elastic Constant Matrix: (Units=GPa)
#
#
# Indices 1 2 3 4 5 6 
#
# 1 125.0742 48.4561 80.2661 0.0000 0.0000 0.0000
# 2 48.4561 94.1987 54.2789 0.0000 0.0000 0.0000
# 3 80.2661 54.2789 171.6129 0.0000 0.0000 0.0000
# 4 0.0000 0.0000 0.0000 53.2557 0.0000 0.0000
# 5 0.0000 0.0000 0.0000 0.0000 29.5874 0.0000
# 6 0.0000 0.0000 0.0000 0.0000 0.0000 20.5598
#
#
#
# Elastic Compliance Matrix: (Units=1/GPa)
#
#
# Indices 1 2 3 4 5 6 
#
# 1 0.012403 -0.003714 -0.004626 0.000000 0.000000 0.000000
# 2 -0.003714 0.014094 -0.002720 0.000000 0.000000 0.000000
# 3 -0.004626 -0.002720 0.008851 0.000000 0.000000 0.000000
# 4 0.000000 0.000000 0.000000 0.018777 0.000000 0.000000
# 5 0.000000 0.000000 0.000000 0.000000 0.033798 0.000000
# 6 0.000000 0.000000 0.000000 0.000000 0.000000 0.048639
#
#
# Mechanical properties :
#
#
# Convention : Reuss Voigt Hill
#
# Bulk Modulus (GPa) = 75.60785 84.09868 79.85326
# Shear Modulus (GPa) = 30.65708 34.53955 32.59831
#
# Velocity S-wave (km/s) = 3.95604 4.19908 4.07937
# Velocity P-wave (km/s) = 7.71132 8.15117 7.93429
#
# Compressibility (1/GPa) = 0.01322614
#
# Stress axis : x y z
#
# Youngs Moduli (GPa) = 80.62377 70.95117 112.97714
#
# Poissons Ratio (x) = 0.26355 0.52267
# Poissons Ratio (y) = 0.29948 0.30735
# Poissons Ratio (z) = 0.37300 0.19302
#
# Static dielectric constant tensor:
#      x y z
#    x 1.742130 0.000000 0.000000 
#    y 0.000000 1.687360 0.000000 
#    z 0.000000 0.000000 1.726440 
# 
# From -- ./inp_files/57799.got.cif
#   From: 2010.05.17/outbox.cif.g08.bks.cpg/sg70_29_cif.got.tgz:57799.got - 2010.06.03 15:57:51.
