data_PCOD9515368
_publ_section_title
;
Structure prediction by ZEFSAII (Michael W. Deem and Ramdas Pophale) SiO2 
 PCOD9515368
Probable space group: F D D D
;
_chemical_formula_sum "Si O2"
_cell_formula_units_Z 160
_cell_length_a 23.171706
_cell_length_b 15.404670
_cell_length_c 21.690119
_cell_angle_alpha 90.000000
_cell_angle_beta 90.000000
_cell_angle_gamma 90.000000
_cell_volume 7742.341861
_symmetry_space_group_name_H-M "F D D D"
_symmetry_group_IT_number 70
_space_group.IT_coordinate_system_code '2'
_symmetry_cell_setting 'orthorhombic'
loop_
_space_group_symop_operation_xyz
x,y,z
1/4-x,1/4-y,z
x,1/4-y,1/4-z
1/4-x,y,1/4-z
-x,-y,-z
3/4+x,3/4+y,-z
-x,3/4+y,3/4+z
3/4+x,-y,3/4+z
x,1/2+y,1/2+z
1/4-x,3/4-y,1/2+z
x,3/4-y,3/4-z
1/4-x,1/2+y,3/4-z
-x,1/2-y,1/2-z
3/4+x,1/4+y,1/2-z
-x,1/4+y,1/4+z
3/4+x,1/2-y,1/4+z
1/2+x,y,1/2+z
3/4-x,1/4-y,1/2+z
1/2+x,1/4-y,3/4-z
3/4-x,y,3/4-z
1/2-x,-y,1/2-z
1/4+x,3/4+y,1/2-z
1/2-x,3/4+y,1/4+z
1/4+x,-y,1/4+z
1/2+x,1/2+y,z
3/4-x,3/4-y,z
1/2+x,3/4-y,1/4-z
3/4-x,1/2+y,1/4-z
1/2-x,1/2-y,-z
1/4+x,1/4+y,-z
1/2-x,1/4+y,3/4+z
1/4+x,1/2-y,3/4+z
loop_
_atom_site_type_symbol
_atom_site_label
_atom_site_fract_x
_atom_site_fract_y
_atom_site_fract_z
Si Si1 0.971393 0.375000 0.375000
Si Si2 0.717630 0.408271 0.503499
Si Si3 0.895576 0.062906 0.567739
Si Si4 0.625000 0.625000 0.455780
Si Si5 0.440367 0.069992 0.375228
Si Si6 0.750716 0.352984 0.752583
O O1 0.938694 0.284117 0.378236
O O2 0.006707 0.374360 0.310882
O O3 0.649900 0.420273 0.487295
O O4 0.721831 0.346893 0.561989
O O5 0.747360 0.500633 0.519727
O O6 0.882974 0.125000 0.625000
O O7 0.959758 0.087862 0.544701
O O8 0.881672 0.962829 0.583564
O O9 0.567699 0.622436 0.497580
O O10 0.375000 0.103643 0.375000
O O11 0.475031 0.104910 0.316485
#
# Coordination Sequence:
#
# PCOD9515368 Si02
#       6
#    16  32  32  16  32  32
#     4  10  21  38  58  92 126 169 216 266 326 400
#     4  10  21  39  61  92 127 168 207 272 329 388
#     4  11  22  42  66  93 131 169 217 270 328 391
#     4  10  24  44  65  92 130 173 218 278 322 380
#     4  11  21  38  62  89 129 168 215 269 328 387
#     4  10  23  41  64  92 127 169 223 266 324 390
#
# _framework density 20.665581
#
# number of rings (size 3 to 8) (size 9 to 14) (size 15 to 20)
#    0.000    1.600    3.000    1.500    2.800    0.000 
#    0.000    0.500    0.000    0.000    0.000    0.000 
#    0.000    0.000    0.000    0.000    0.000    0.000 
#
# Total GULP energy -223147.515635 kJ/mol
# GULP energy per Si atom -5578.687891 kJ/mol
# Density = 2.061855 g / cm^3
# Si number density = 20.665581 Si / 1000 Ang^3
#
#
#
# Elastic Constant Matrix: (Units=GPa)
#
#
# Indices 1 2 3 4 5 6 
#
# 1 116.2395 22.7404 20.5088 0.0000 0.0000 0.0000
# 2 22.7404 101.7925 48.4960 0.0000 0.0000 0.0000
# 3 20.5088 48.4960 91.2662 0.0000 0.0000 0.0000
# 4 0.0000 0.0000 0.0000 22.4998 0.0000 0.0000
# 5 0.0000 0.0000 0.0000 0.0000 0.5235 0.0000
# 6 0.0000 0.0000 0.0000 0.0000 0.0000 9.1147
#
#
#
# Elastic Compliance Matrix: (Units=1/GPa)
#
#
# Indices 1 2 3 4 5 6 
#
# 1 0.009109 -0.001419 -0.001293 0.000000 0.000000 0.000000
# 2 -0.001419 0.013375 -0.006788 0.000000 0.000000 0.000000
# 3 -0.001293 -0.006788 0.014854 0.000000 0.000000 0.000000
# 4 0.000000 0.000000 0.000000 0.044445 0.000000 0.000000
# 5 0.000000 0.000000 0.000000 0.000000 1.910173 0.000000
# 6 0.000000 0.000000 0.000000 0.000000 0.000000 0.109713
#
#
# Mechanical properties :
#
#
# Convention : Reuss Voigt Hill
#
# Bulk Modulus (GPa) = 54.53112 54.75428 54.64270
# Shear Modulus (GPa) = 2.35097 20.93114 11.64105
#
# Velocity S-wave (km/s) = 1.06775 3.18598 2.37598
# Velocity P-wave (km/s) = 5.28818 6.33142 5.83317
#
# Compressibility (1/GPa) = 0.01833815
#
# Stress axis : x y z
#
# Youngs Moduli (GPa) = 109.78604 74.76693 67.31971
#
# Poissons Ratio (x) = 0.10609 0.08704
# Poissons Ratio (y) = 0.15578 0.45698
# Poissons Ratio (z) = 0.14194 0.50753
#
# Static dielectric constant tensor:
#      x y z
#    x 1.766360 0.000000 0.000000 
#    y 0.000000 1.772450 0.000000 
#    z 0.000000 0.000000 1.690530 
# 
# From -- ./inp_files/35182.got.cif
#   From: 2010.05.17/outbox.cif.g08.bks.cpg/sg70_18_cif.got.tgz:35182.got - 2010.06.03 15:57:51.
