data_PCOD9515632
_publ_section_title
;
Structure prediction by ZEFSAII (Michael W. Deem and Ramdas Pophale) SiO2 
 PCOD9515632
Probable space group: F D D D
;
_chemical_formula_sum "Si O2"
_cell_formula_units_Z 160
_cell_length_a 28.581263
_cell_length_b 25.443865
_cell_length_c 9.727169
_cell_angle_alpha 90.000000
_cell_angle_beta 90.000000
_cell_angle_gamma 90.000000
_cell_volume 7073.770414
_symmetry_space_group_name_H-M "F D D D"
_symmetry_group_IT_number 70
_space_group.IT_coordinate_system_code '2'
_symmetry_cell_setting 'orthorhombic'
loop_
_space_group_symop_operation_xyz
x,y,z
1/4-x,1/4-y,z
x,1/4-y,1/4-z
1/4-x,y,1/4-z
-x,-y,-z
3/4+x,3/4+y,-z
-x,3/4+y,3/4+z
3/4+x,-y,3/4+z
x,1/2+y,1/2+z
1/4-x,3/4-y,1/2+z
x,3/4-y,3/4-z
1/4-x,1/2+y,3/4-z
-x,1/2-y,1/2-z
3/4+x,1/4+y,1/2-z
-x,1/4+y,1/4+z
3/4+x,1/2-y,1/4+z
1/2+x,y,1/2+z
3/4-x,1/4-y,1/2+z
1/2+x,1/4-y,3/4-z
3/4-x,y,3/4-z
1/2-x,-y,1/2-z
1/4+x,3/4+y,1/2-z
1/2-x,3/4+y,1/4+z
1/4+x,-y,1/4+z
1/2+x,1/2+y,z
3/4-x,3/4-y,z
1/2+x,3/4-y,1/4-z
3/4-x,1/2+y,1/4-z
1/2-x,1/2-y,-z
1/4+x,1/4+y,-z
1/2-x,1/4+y,3/4+z
1/4+x,1/2-y,3/4+z
loop_
_atom_site_type_symbol
_atom_site_label
_atom_site_fract_x
_atom_site_fract_y
_atom_site_fract_z
Si Si1 0.345497 0.125000 0.125000
Si Si2 0.565759 0.767536 0.474813
Si Si3 0.715677 0.241888 0.692817
Si Si4 0.375000 0.875000 0.125302
Si Si5 0.625000 0.308302 0.625000
Si Si6 0.416585 0.478595 0.531900
Si Si7 0.308767 0.875000 0.375000
O O1 0.315469 0.170097 0.199805
O O2 0.375154 0.096454 0.243033
O O3 0.518957 0.741206 0.414537
O O4 0.570057 0.751059 0.634424
O O5 0.616277 0.750631 0.418377
O O6 0.672792 0.273639 0.624228
O O7 0.704430 0.244525 0.855565
O O8 0.714362 0.179699 0.664803
O O9 0.403605 0.916859 0.035233
O O10 0.337599 0.893829 0.239512
#
# Coordination Sequence:
#
# PCOD9515632 Si02
#       7
#    16  32  32  16  16  32  16
#     4  12  27  48  67 105 142 191 230 289 348 421
#     4  11  24  42  69  95 141 183 232 282 346 416
#     4  11  22  44  70 105 132 182 234 290 348 410
#     4   9  18  37  66  94 130 172 216 284 360 390
#     4  12  26  47  76  98 148 185 234 288 352 416
#     4  10  21  43  67  98 140 177 226 291 343 415
#     4   9  19  36  67 100 132 162 230 299 338 402
#
# _framework density 22.618770999999999
#
# number of rings (size 3 to 8) (size 9 to 14) (size 15 to 20)
#    0.000    1.400    2.000    4.800    0.000    2.400 
#    7.200    0.000    0.000    0.000    0.000    0.000 
#    0.000    0.000    0.000    0.000    0.000    0.000 
#
# Total GULP energy -223067.862643 kJ/mol
# GULP energy per Si atom -5576.696566 kJ/mol
# Density = 2.256729 g / cm^3
# Si number density = 22.618771 Si / 1000 Ang^3
#
#
#
# Elastic Constant Matrix: (Units=GPa)
#
#
# Indices 1 2 3 4 5 6 
#
# 1 149.0031 30.6855 15.1251 0.0012 -0.0008 -0.0010
# 2 30.6855 83.9486 48.5280 0.0026 -0.0017 -0.0016
# 3 15.1251 48.5280 105.3674 0.0065 -0.0047 -0.0056
# 4 0.0012 0.0026 0.0065 44.0735 -0.0026 -0.0030
# 5 -0.0008 -0.0017 -0.0047 -0.0026 -7.0676 0.0058
# 6 -0.0010 -0.0016 -0.0056 -0.0030 0.0058 -8.6545
#
#
#
# Elastic Compliance Matrix: (Units=1/GPa)
#
#
# Indices 1 2 3 4 5 6 
#
# 1 0.007262 -0.002796 0.000245 0.000000 0.000000 0.000000
# 2 -0.002796 0.017311 -0.007571 0.000000 0.000001 0.000002
# 3 0.000245 -0.007571 0.012942 -0.000001 -0.000007 -0.000007
# 4 0.000000 0.000000 -0.000001 0.022689 -0.000008 -0.000008
# 5 0.000000 0.000001 -0.000007 -0.000008 -0.141491 -0.000095
# 6 0.000000 0.000002 -0.000007 -0.000008 -0.000095 -0.115547
#
#
# Mechanical properties :
#
#
# Convention : Reuss Voigt Hill
#
# Bulk Modulus (GPa) = 57.90046 58.55516 58.22781
# Shear Modulus (GPa) = -29.26865 21.93564 -3.66651
#
# Velocity S-wave (km/s) = -3.60112 3.11754 -1.27457
# Velocity P-wave (km/s) = 2.89192 6.23721 4.86138
#
# Compressibility (1/GPa) = 0.01727102
#
# Stress axis : x y z
#
# Youngs Moduli (GPa) = 137.69836 57.76684 77.26536
#
# Poissons Ratio (x) = 0.16154 -0.01897
# Poissons Ratio (y) = 0.38507 0.58500
# Poissons Ratio (z) = -0.03380 0.43737
#
# Static dielectric constant tensor:
#      x y z
#    x 1.871110 0.000000 0.000000 
#    y 0.000000 1.900850 0.000000 
#    z 0.000000 0.000000 1.859780 
# 
# From -- ./inp_files/22242.got.cif
#   From: 2010.05.17/outbox.cif.g08.bks.cpg/sg70_12_cif.got.tgz:22242.got - 2010.06.03 15:57:51.
