data_PCOD9515536
_publ_section_title
;
Structure prediction by ZEFSAII (Michael W. Deem and Ramdas Pophale) SiO2 
 PCOD9515536
Probable space group: F D D D
;
_chemical_formula_sum "Si O2"
_cell_formula_units_Z 192
_cell_length_a 15.374423
_cell_length_b 25.229147
_cell_length_c 22.493382
_cell_angle_alpha 90.000000
_cell_angle_beta 90.000000
_cell_angle_gamma 90.000000
_cell_volume 8724.813489
_symmetry_space_group_name_H-M "F D D D"
_symmetry_group_IT_number 70
_space_group.IT_coordinate_system_code '2'
_symmetry_cell_setting 'orthorhombic'
loop_
_space_group_symop_operation_xyz
x,y,z
1/4-x,1/4-y,z
x,1/4-y,1/4-z
1/4-x,y,1/4-z
-x,-y,-z
3/4+x,3/4+y,-z
-x,3/4+y,3/4+z
3/4+x,-y,3/4+z
x,1/2+y,1/2+z
1/4-x,3/4-y,1/2+z
x,3/4-y,3/4-z
1/4-x,1/2+y,3/4-z
-x,1/2-y,1/2-z
3/4+x,1/4+y,1/2-z
-x,1/4+y,1/4+z
3/4+x,1/2-y,1/4+z
1/2+x,y,1/2+z
3/4-x,1/4-y,1/2+z
1/2+x,1/4-y,3/4-z
3/4-x,y,3/4-z
1/2-x,-y,1/2-z
1/4+x,3/4+y,1/2-z
1/2-x,3/4+y,1/4+z
1/4+x,-y,1/4+z
1/2+x,1/2+y,z
3/4-x,3/4-y,z
1/2+x,3/4-y,1/4-z
3/4-x,1/2+y,1/4-z
1/2-x,1/2-y,-z
1/4+x,1/4+y,-z
1/2-x,1/4+y,3/4+z
1/4+x,1/2-y,3/4+z
loop_
_atom_site_type_symbol
_atom_site_label
_atom_site_fract_x
_atom_site_fract_y
_atom_site_fract_z
Si Si1 0.875000 0.375000 0.875000
Si Si2 0.925957 0.785329 0.282641
Si Si3 0.742549 0.030993 0.655675
Si Si4 0.349733 0.694973 0.488581
Si Si5 0.467254 0.953684 0.689297
Si Si6 0.125000 0.299298 0.625000
Si Si7 0.625000 0.125000 0.625000
Si Si8 0.724692 0.125272 0.420278
O O1 0.930459 0.414994 0.919499
O O2 0.866568 0.803953 0.228472
O O3 0.878077 0.739455 0.319195
O O4 0.000000 0.750000 0.250000
O O5 0.828286 0.035529 0.695748
O O6 0.689493 0.085047 0.657966
O O7 0.681995 0.988976 0.690765
O O8 0.765246 0.011885 0.589227
O O9 0.449952 0.686077 0.477266
O O10 0.290166 0.645221 0.471334
O O11 0.462810 0.918990 0.630629
O O12 0.215206 0.331703 0.635834
O O13 0.625000 0.125000 0.444376
#
# Coordination Sequence:
#
# PCOD9515536 Si02
#       8
#     8  32  32  32  32  16   8  32
#     4  10  28  52  74 116 160 200 262 350 386 472
#     4  11  27  47  78 105 149 201 253 318 397 460
#     4  10  22  37  63  95 139 178 235 284 374 447
#     4  10  21  41  63  95 138 189 226 303 369 446
#     4  11  22  45  67  94 142 191 233 305 379 457
#     4  11  24  44  64 112 138 170 258 305 350 476
#     4  12  20  38  62  96 144 172 232 312 352 446
#     4  11  22  39  70 101 136 184 246 299 371 455
#
# _framework density 22.006201000000001
#
# number of rings (size 3 to 8) (size 9 to 14) (size 15 to 20)
#    0.000    1.333    3.333    2.000    4.667    8.000 
#    0.000    1.667    0.000    0.000    0.000    0.000 
#    0.000    0.000    0.000    0.000    0.000    0.000 
#
# Total GULP energy -267329.767865 kJ/mol
# GULP energy per Si atom -5569.370164 kJ/mol
# Density = 2.195611 g / cm^3
# Si number density = 22.006201 Si / 1000 Ang^3
#
#
#
# Elastic Constant Matrix: (Units=GPa)
#
#
# Indices 1 2 3 4 5 6 
#
# 1 103.4516 15.2632 27.0546 0.0000 0.0000 0.0000
# 2 15.2632 85.9114 16.1696 0.0000 0.0000 0.0000
# 3 27.0546 16.1696 75.7126 0.0000 0.0000 0.0000
# 4 0.0000 0.0000 0.0000 8.7033 0.0000 0.0000
# 5 0.0000 0.0000 0.0000 0.0000 20.1483 0.0000
# 6 0.0000 0.0000 0.0000 0.0000 0.0000 20.8000
#
#
#
# Elastic Compliance Matrix: (Units=1/GPa)
#
#
# Indices 1 2 3 4 5 6 
#
# 1 0.010788 -0.001241 -0.003590 0.000000 0.000000 0.000000
# 2 -0.001241 0.012270 -0.002177 0.000000 0.000000 0.000000
# 3 -0.003590 -0.002177 0.014956 0.000000 0.000000 0.000000
# 4 0.000000 0.000000 0.000000 0.114899 0.000000 0.000000
# 5 0.000000 0.000000 0.000000 0.000000 0.049632 0.000000
# 6 0.000000 0.000000 0.000000 0.000000 0.000000 0.048077
#
#
# Mechanical properties :
#
#
# Convention : Reuss Voigt Hill
#
# Bulk Modulus (GPa) = 41.67012 42.45005 42.06009
# Shear Modulus (GPa) = 18.33942 23.70288 21.02115
#
# Velocity S-wave (km/s) = 2.88996 3.28548 3.09404
# Velocity P-wave (km/s) = 5.48749 5.80727 5.64964
#
# Compressibility (1/GPa) = 0.02399801
#
# Stress axis : x y z
#
# Youngs Moduli (GPa) = 92.69298 81.49877 66.86453
#
# Poissons Ratio (x) = 0.10114 0.24004
# Poissons Ratio (y) = 0.11503 0.14557
# Poissons Ratio (z) = 0.33277 0.17743
#
# Static dielectric constant tensor:
#      x y z
#    x 1.924410 0.000000 0.000000 
#    y 0.000000 1.912570 0.000000 
#    z 0.000000 0.000000 1.857960 
# 
# From -- ./inp_files/29009.got.cif
#   From: 2010.05.17/outbox.cif.g08.bks.cpg/sg70_15_cif.got.tgz:29009.got - 2010.06.03 15:57:51.
