data_PCOD9515004
_publ_section_title
;
Structure prediction by ZEFSAII (Michael W. Deem and Ramdas Pophale) SiO2 
 PCOD9515004
Probable space group: F D D D
;
_chemical_formula_sum "Si O2"
_cell_formula_units_Z 208
_cell_length_a 25.696437
_cell_length_b 23.111215
_cell_length_c 18.653776
_cell_angle_alpha 90.000000
_cell_angle_beta 90.000000
_cell_angle_gamma 90.000000
_cell_volume 11078.027642
_symmetry_space_group_name_H-M "F D D D"
_symmetry_group_IT_number 70
_space_group.IT_coordinate_system_code '2'
_symmetry_cell_setting 'orthorhombic'
loop_
_space_group_symop_operation_xyz
x,y,z
1/4-x,1/4-y,z
x,1/4-y,1/4-z
1/4-x,y,1/4-z
-x,-y,-z
3/4+x,3/4+y,-z
-x,3/4+y,3/4+z
3/4+x,-y,3/4+z
x,1/2+y,1/2+z
1/4-x,3/4-y,1/2+z
x,3/4-y,3/4-z
1/4-x,1/2+y,3/4-z
-x,1/2-y,1/2-z
3/4+x,1/4+y,1/2-z
-x,1/4+y,1/4+z
3/4+x,1/2-y,1/4+z
1/2+x,y,1/2+z
3/4-x,1/4-y,1/2+z
1/2+x,1/4-y,3/4-z
3/4-x,y,3/4-z
1/2-x,-y,1/2-z
1/4+x,3/4+y,1/2-z
1/2-x,3/4+y,1/4+z
1/4+x,-y,1/4+z
1/2+x,1/2+y,z
3/4-x,3/4-y,z
1/2+x,3/4-y,1/4-z
3/4-x,1/2+y,1/4-z
1/2-x,1/2-y,-z
1/4+x,1/4+y,-z
1/2-x,1/4+y,3/4+z
1/4+x,1/2-y,3/4+z
loop_
_atom_site_type_symbol
_atom_site_label
_atom_site_fract_x
_atom_site_fract_y
_atom_site_fract_z
Si Si1 0.459457 0.655165 0.240137
Si Si2 0.424651 0.210778 0.184901
Si Si3 0.997457 0.325047 0.109315
Si Si4 0.945793 0.042015 0.159568
Si Si5 0.148805 0.867263 0.698194
Si Si6 0.318195 0.405420 0.230824
Si Si7 0.754515 0.875000 0.375000
O O1 0.495513 0.674193 0.305219
O O2 0.461730 0.586894 0.221406
O O3 0.469338 0.686772 0.165648
O O4 0.399370 0.663839 0.263493
O O5 0.366566 0.207410 0.152767
O O6 0.422556 0.165937 0.251052
O O7 0.431638 0.275170 0.217403
O O8 0.466406 0.181792 0.130202
O O9 0.965787 0.271695 0.078394
O O10 0.966843 0.381158 0.083632
O O11 0.054920 0.325881 0.075873
O O12 0.125000 0.893642 0.625000
O O13 0.375000 0.375000 0.228113
O O14 0.290537 0.384442 0.304809
#
# Coordination Sequence:
#
# PCOD9515004 Si02
#       7
#    32  32  32  32  32  32  16
#     4   9  20  38  62  92 115 158 207 253 303 371
#     4  11  22  42  61  88 126 166 213 256 307 378
#     4  11  21  38  59  89 123 157 202 255 314 358
#     4  10  20  38  64  88 124 156 204 257 308 371
#     4   9  19  36  61  89 115 153 211 251 297 361
#     4  12  26  43  58  92 132 165 208 262 321 376
#     4  12  25  40  66  86 120 176 221 252 314 374
#
# _framework density 18.775905999999999
#
# number of rings (size 3 to 8) (size 9 to 14) (size 15 to 20)
#    0.000    1.538    3.077    3.000    0.000    2.462 
#    0.000    0.000    0.000    0.000    0.000    8.615 
#    0.000    0.000    0.000    0.000    0.000    0.000 
#
# Total GULP energy -289906.711785 kJ/mol
# GULP energy per Si atom -5575.129073 kJ/mol
# Density = 1.873317 g / cm^3
# Si number density = 18.775906 Si / 1000 Ang^3
#
#
#
# Elastic Constant Matrix: (Units=GPa)
#
#
# Indices 1 2 3 4 5 6 
#
# 1 63.5840 10.3584 14.7321 0.0000 0.0000 0.0000
# 2 10.3584 55.1271 5.9512 0.0000 0.0000 0.0000
# 3 14.7321 5.9512 60.8329 0.0000 0.0000 0.0000
# 4 0.0000 0.0000 0.0000 13.1331 0.0000 0.0000
# 5 0.0000 0.0000 0.0000 0.0000 26.3171 0.0000
# 6 0.0000 0.0000 0.0000 0.0000 0.0000 21.2815
#
#
#
# Elastic Compliance Matrix: (Units=1/GPa)
#
#
# Indices 1 2 3 4 5 6 
#
# 1 0.017077 -0.002792 -0.003862 0.000000 0.000000 0.000000
# 2 -0.002792 0.018790 -0.001162 0.000000 0.000000 0.000000
# 3 -0.003862 -0.001162 0.017488 0.000000 0.000000 0.000000
# 4 0.000000 0.000000 0.000000 0.076144 0.000000 0.000000
# 5 0.000000 0.000000 0.000000 0.000000 0.037998 0.000000
# 6 0.000000 0.000000 0.000000 0.000000 0.000000 0.046989
#
#
# Mechanical properties :
#
#
# Convention : Reuss Voigt Hill
#
# Bulk Modulus (GPa) = 26.50992 26.84748 26.67870
# Shear Modulus (GPa) = 20.60222 22.04647 21.32435
#
# Velocity S-wave (km/s) = 3.31610 3.43036 3.37371
# Velocity P-wave (km/s) = 5.36766 5.47903 5.42363
#
# Compressibility (1/GPa) = 0.03772173
#
# Stress axis : x y z
#
# Youngs Moduli (GPa) = 58.55842 53.21997 57.18351
#
# Poissons Ratio (x) = 0.14858 0.22087
# Poissons Ratio (y) = 0.16348 0.06645
# Poissons Ratio (z) = 0.22618 0.06185
#
# Static dielectric constant tensor:
#      x y z
#    x 1.667750 0.000000 0.000000 
#    y 0.000000 1.657820 0.000000 
#    z 0.000000 0.000000 1.671550 
# 
# From -- ./inp_files/38744.got.cif
#   From: 2010.05.17/outbox.cif.g08.bks.cpg/sg70_20_cif.got.tgz:38744.got - 2010.06.03 15:57:51.
