data_PCOD9515851
_publ_section_title
;
Structure prediction by ZEFSAII (Michael W. Deem and Ramdas Pophale) SiO2 
 PCOD9515851
Probable space group: F D D D
;
_chemical_formula_sum "Si O2"
_cell_formula_units_Z 192
_cell_length_a 34.217416
_cell_length_b 11.112204
_cell_length_c 24.223505
_cell_angle_alpha 90.000000
_cell_angle_beta 90.000000
_cell_angle_gamma 90.000000
_cell_volume 9210.525276
_symmetry_space_group_name_H-M "F D D D"
_symmetry_group_IT_number 70
_space_group.IT_coordinate_system_code '2'
_symmetry_cell_setting 'orthorhombic'
loop_
_space_group_symop_operation_xyz
x,y,z
1/4-x,1/4-y,z
x,1/4-y,1/4-z
1/4-x,y,1/4-z
-x,-y,-z
3/4+x,3/4+y,-z
-x,3/4+y,3/4+z
3/4+x,-y,3/4+z
x,1/2+y,1/2+z
1/4-x,3/4-y,1/2+z
x,3/4-y,3/4-z
1/4-x,1/2+y,3/4-z
-x,1/2-y,1/2-z
3/4+x,1/4+y,1/2-z
-x,1/4+y,1/4+z
3/4+x,1/2-y,1/4+z
1/2+x,y,1/2+z
3/4-x,1/4-y,1/2+z
1/2+x,1/4-y,3/4-z
3/4-x,y,3/4-z
1/2-x,-y,1/2-z
1/4+x,3/4+y,1/2-z
1/2-x,3/4+y,1/4+z
1/4+x,-y,1/4+z
1/2+x,1/2+y,z
3/4-x,3/4-y,z
1/2+x,3/4-y,1/4-z
3/4-x,1/2+y,1/4-z
1/2-x,1/2-y,-z
1/4+x,1/4+y,-z
1/2-x,1/4+y,3/4+z
1/4+x,1/2-y,3/4+z
loop_
_atom_site_type_symbol
_atom_site_label
_atom_site_fract_x
_atom_site_fract_y
_atom_site_fract_z
Si Si1 0.738037 0.131838 0.269665
Si Si2 0.625000 0.125000 0.125000
Si Si3 0.434952 0.569312 0.829371
Si Si4 0.375000 0.875000 0.562150
Si Si5 0.821816 0.493816 0.649095
Si Si6 0.123880 0.383812 0.989443
Si Si7 0.625000 0.125000 0.625000
Si Si8 0.938700 0.721838 0.438258
O O1 0.774867 0.200669 0.296637
O O2 0.723064 0.202522 0.215708
O O3 0.750000 0.000000 0.250000
O O4 0.706146 0.092703 0.315359
O O5 0.654733 0.196266 0.163175
O O6 0.408081 0.649980 0.788517
O O7 0.405221 0.460721 0.842365
O O8 0.446600 0.631792 0.887454
O O9 0.411363 0.839981 0.600994
O O10 0.372628 0.755408 0.526431
O O11 0.806302 0.625000 0.625000
O O12 0.857338 0.538896 0.688634
O O13 0.166789 0.413773 0.010080
#
# Coordination Sequence:
#
# PCOD9515851 Si02
#       8
#    32   8  32  16  32  32   8  32
#     4  12  26  43  66 104 148 183 229 304 374 423
#     4  12  18  38  68 102 138 182 228 296 344 406
#     4  12  25  45  73 101 137 191 233 306 357 432
#     4  10  23  39  71  94 135 192 227 291 356 422
#     4  10  22  41  65  97 142 181 234 289 362 432
#     4  11  20  43  69 100 132 187 241 286 350 430
#     4  12  24  52  72 102 142 186 258 290 356 446
#     4  12  24  40  69 105 140 178 247 293 352 432
#
# _framework density 20.845717
#
# number of rings (size 3 to 8) (size 9 to 14) (size 15 to 20)
#    0.000    0.667    5.000    3.500    2.333    0.000 
#    3.000    0.833    0.000    0.000    0.000    0.000 
#    0.000    0.000    0.000    0.000    0.000    0.000 
#
# Total GULP energy -267747.790187 kJ/mol
# GULP energy per Si atom -5578.078962 kJ/mol
# Density = 2.079827 g / cm^3
# Si number density = 20.845717 Si / 1000 Ang^3
#
#
#
# Elastic Constant Matrix: (Units=GPa)
#
#
# Indices 1 2 3 4 5 6 
#
# 1 87.7711 49.2790 46.3594 0.0000 0.0000 0.0000
# 2 49.2790 68.5996 47.4402 0.0000 0.0000 0.0000
# 3 46.3594 47.4402 96.4278 0.0000 0.0000 0.0000
# 4 0.0000 0.0000 0.0000 13.9765 0.0000 0.0000
# 5 0.0000 0.0000 0.0000 0.0000 30.2889 0.0000
# 6 0.0000 0.0000 0.0000 0.0000 0.0000 -489.1116
#
#
#
# Elastic Compliance Matrix: (Units=1/GPa)
#
#
# Indices 1 2 3 4 5 6 
#
# 1 0.020000 -0.011697 -0.003860 0.000000 0.000000 0.000000
# 2 -0.011697 0.028936 -0.008612 0.000000 0.000000 0.000000
# 3 -0.003860 -0.008612 0.016463 0.000000 0.000000 0.000000
# 4 0.000000 0.000000 0.000000 0.071549 0.000000 0.000000
# 5 0.000000 0.000000 0.000000 0.000000 0.033015 0.000000
# 6 0.000000 0.000000 0.000000 0.000000 0.000000 -0.002045
#
#
# Mechanical properties :
#
#
# Convention : Reuss Voigt Hill
#
# Bulk Modulus (GPa) = 58.61881 59.88396 59.25138
# Shear Modulus (GPa) = 22.52812 -81.65460 -29.56324
#
# Velocity S-wave (km/s) = 3.29098 -6.26546 -3.76997
# Velocity P-wave (km/s) = 6.52856 4.85301 3.08791
#
# Compressibility (1/GPa) = 0.01705937
#
# Stress axis : x y z
#
# Youngs Moduli (GPa) = 50.00067 34.55918 60.74082
#
# Poissons Ratio (x) = 0.40425 0.23449
# Poissons Ratio (y) = 0.58487 0.52311
# Poissons Ratio (z) = 0.19303 0.29763
#
# Static dielectric constant tensor:
#      x y z
#    x 1.731760 0.000000 0.000000 
#    y 0.000000 1.805950 0.000000 
#    z 0.000000 0.000000 2.109980 
# 
# From -- ./inp_files/21259.got.cif
#   From: 2010.05.17/outbox.cif.g08.bks.cpg/sg70_11_cif.got.tgz:21259.got - 2010.06.03 15:57:51.
