data_PCOD9515398
_publ_section_title
;
Structure prediction by ZEFSAII (Michael W. Deem and Ramdas Pophale) SiO2 
 PCOD9515398
Probable space group: F D D D
;
_chemical_formula_sum "Si O2"
_cell_formula_units_Z 224
_cell_length_a 17.496650
_cell_length_b 29.598249
_cell_length_c 21.043851
_cell_angle_alpha 90.000000
_cell_angle_beta 90.000000
_cell_angle_gamma 90.000000
_cell_volume 10897.983397
_symmetry_space_group_name_H-M "F D D D"
_symmetry_group_IT_number 70
_space_group.IT_coordinate_system_code '2'
_symmetry_cell_setting 'orthorhombic'
loop_
_space_group_symop_operation_xyz
x,y,z
1/4-x,1/4-y,z
x,1/4-y,1/4-z
1/4-x,y,1/4-z
-x,-y,-z
3/4+x,3/4+y,-z
-x,3/4+y,3/4+z
3/4+x,-y,3/4+z
x,1/2+y,1/2+z
1/4-x,3/4-y,1/2+z
x,3/4-y,3/4-z
1/4-x,1/2+y,3/4-z
-x,1/2-y,1/2-z
3/4+x,1/4+y,1/2-z
-x,1/4+y,1/4+z
3/4+x,1/2-y,1/4+z
1/2+x,y,1/2+z
3/4-x,1/4-y,1/2+z
1/2+x,1/4-y,3/4-z
3/4-x,y,3/4-z
1/2-x,-y,1/2-z
1/4+x,3/4+y,1/2-z
1/2-x,3/4+y,1/4+z
1/4+x,-y,1/4+z
1/2+x,1/2+y,z
3/4-x,3/4-y,z
1/2+x,3/4-y,1/4-z
3/4-x,1/2+y,1/4-z
1/2-x,1/2-y,-z
1/4+x,1/4+y,-z
1/2-x,1/4+y,3/4+z
1/4+x,1/2-y,3/4+z
loop_
_atom_site_type_symbol
_atom_site_label
_atom_site_fract_x
_atom_site_fract_y
_atom_site_fract_z
Si Si1 0.696412 0.026659 0.703493
Si Si2 0.741723 0.038946 0.343785
Si Si3 0.375000 0.469078 0.375000
Si Si4 0.466046 0.383208 0.010136
Si Si5 0.988506 0.143096 0.406198
Si Si6 0.093237 0.204669 0.488239
Si Si7 0.625000 0.459321 0.125000
Si Si8 0.223408 0.715195 0.757935
O O1 0.723673 0.078106 0.706937
O O2 0.609230 0.026340 0.727928
O O3 0.750000 0.000000 0.750000
O O4 0.691995 0.994120 0.643436
O O5 0.771978 0.089964 0.331911
O O6 0.673166 0.031389 0.294475
O O7 0.710504 0.037479 0.416032
O O8 0.809091 0.002330 0.347355
O O9 0.350858 0.441623 0.437438
O O10 0.375000 0.375000 0.017840
O O11 0.495772 0.397684 0.080002
O O12 0.500634 0.335277 0.990255
O O13 0.057477 0.164690 0.445858
O O14 0.914969 0.173914 0.422712
O O15 0.035210 0.247185 0.490800
#
# Coordination Sequence:
#
# PCOD9515398 Si02
#       8
#    32  32  16  32  32  32  16  32
#     4  11  20  34  54  82 119 156 188 244 298 347
#     4  10  21  38  64  86 115 154 198 249 300 351
#     4  10  23  40  59  90 115 157 194 243 304 367
#     4   9  18  35  57  79 111 156 200 238 291 348
#     4  11  20  36  59  91 113 148 203 250 288 350
#     4  11  20  37  61  89 120 151 199 245 304 357
#     4  12  23  32  57  92 119 151 200 246 297 353
#     4   9  20  36  57  88 115 153 203 244 287 360
#
# _framework density 20.554262000000001
#
# number of rings (size 3 to 8) (size 9 to 14) (size 15 to 20)
#    0.000    1.714    2.857    3.857    0.000    0.000 
#    0.000    4.643    0.000    0.000    7.429    0.000 
#    0.000    0.000    0.000    0.000    0.000    0.000 
#
# Total GULP energy -312151.778271 kJ/mol
# GULP energy per Si atom -5574.138898 kJ/mol
# Density = 2.050748 g / cm^3
# Si number density = 20.554262 Si / 1000 Ang^3
#
#
#
# Elastic Constant Matrix: (Units=GPa)
#
#
# Indices 1 2 3 4 5 6 
#
# 1 46.9882 9.7142 26.3537 0.0000 0.0000 0.0000
# 2 9.7142 84.0993 32.5671 0.0000 0.0000 0.0000
# 3 26.3537 32.5671 64.9376 0.0000 0.0000 0.0000
# 4 0.0000 0.0000 0.0000 23.9035 0.0000 0.0000
# 5 0.0000 0.0000 0.0000 0.0000 30.8138 0.0000
# 6 0.0000 0.0000 0.0000 0.0000 0.0000 22.4767
#
#
#
# Elastic Compliance Matrix: (Units=1/GPa)
#
#
# Indices 1 2 3 4 5 6 
#
# 1 0.027692 0.001431 -0.011956 0.000000 0.000000 0.000000
# 2 0.001431 0.014831 -0.008019 0.000000 0.000000 0.000000
# 3 -0.011956 -0.008019 0.024273 0.000000 0.000000 0.000000
# 4 0.000000 0.000000 0.000000 0.041835 0.000000 0.000000
# 5 0.000000 0.000000 0.000000 0.000000 0.032453 0.000000
# 6 0.000000 0.000000 0.000000 0.000000 0.000000 0.044490
#
#
# Mechanical properties :
#
#
# Convention : Reuss Voigt Hill
#
# Bulk Modulus (GPa) = 33.66029 37.03280 35.34655
# Shear Modulus (GPa) = 21.49957 23.93148 22.71553
#
# Velocity S-wave (km/s) = 3.23769 3.41590 3.32798
# Velocity P-wave (km/s) = 5.51259 5.79776 5.65697
#
# Compressibility (1/GPa) = 0.02970859
#
# Stress axis : x y z
#
# Youngs Moduli (GPa) = 36.11199 67.42845 41.19817
#
# Poissons Ratio (x) = -0.09651 0.49256
# Poissons Ratio (y) = -0.05169 0.33035
# Poissons Ratio (z) = 0.43175 0.54068
#
# Static dielectric constant tensor:
#      x y z
#    x 1.688220 0.000000 0.000000 
#    y 0.000000 1.797510 0.000000 
#    z 0.000000 0.000000 1.894740 
# 
# From -- ./inp_files/44114.got.cif
#   From: 2010.05.17/outbox.cif.g08.bks.cpg/sg70_23_cif.got.tgz:44114.got - 2010.06.03 15:57:51.
