data_PCOD9515806
_publ_section_title
;
Structure prediction by ZEFSAII (Michael W. Deem and Ramdas Pophale) SiO2 
 PCOD9515806
Probable space group: F D D D
;
_chemical_formula_sum "Si O2"
_cell_formula_units_Z 112
_cell_length_a 28.046063
_cell_length_b 7.473429
_cell_length_c 23.557688
_cell_angle_alpha 90.000000
_cell_angle_beta 90.000000
_cell_angle_gamma 90.000000
_cell_volume 4937.697543
_symmetry_space_group_name_H-M "F D D D"
_symmetry_group_IT_number 70
_space_group.IT_coordinate_system_code '2'
_symmetry_cell_setting 'orthorhombic'
loop_
_space_group_symop_operation_xyz
x,y,z
1/4-x,1/4-y,z
x,1/4-y,1/4-z
1/4-x,y,1/4-z
-x,-y,-z
3/4+x,3/4+y,-z
-x,3/4+y,3/4+z
3/4+x,-y,3/4+z
x,1/2+y,1/2+z
1/4-x,3/4-y,1/2+z
x,3/4-y,3/4-z
1/4-x,1/2+y,3/4-z
-x,1/2-y,1/2-z
3/4+x,1/4+y,1/2-z
-x,1/4+y,1/4+z
3/4+x,1/2-y,1/4+z
1/2+x,y,1/2+z
3/4-x,1/4-y,1/2+z
1/2+x,1/4-y,3/4-z
3/4-x,y,3/4-z
1/2-x,-y,1/2-z
1/4+x,3/4+y,1/2-z
1/2-x,3/4+y,1/4+z
1/4+x,-y,1/4+z
1/2+x,1/2+y,z
3/4-x,3/4-y,z
1/2+x,3/4-y,1/4-z
3/4-x,1/2+y,1/4-z
1/2-x,1/2-y,-z
1/4+x,1/4+y,-z
1/2-x,1/4+y,3/4+z
1/4+x,1/2-y,3/4+z
loop_
_atom_site_type_symbol
_atom_site_label
_atom_site_fract_x
_atom_site_fract_y
_atom_site_fract_z
Si Si1 0.648824 0.875000 0.375000
Si Si2 0.161234 0.275253 0.763429
Si Si3 0.575120 0.420207 0.104561
Si Si4 0.774930 0.830822 0.146311
O O1 0.617181 0.896344 0.318179
O O2 0.683698 0.704089 0.369593
O O3 0.174895 0.408040 0.713450
O O4 0.208991 0.184542 0.788364
O O5 0.125000 0.125000 0.741019
O O6 0.575512 0.625000 0.125000
O O7 0.625000 0.339946 0.125000
O O8 0.526884 0.342985 0.131690
O O9 0.775134 0.625000 0.125000
#
# Coordination Sequence:
#
# PCOD9515806 Si02
#       4
#    16  32  32  32
#     4  10  22  42  69 100 131 182 226 280 340 392
#     4  10  22  42  67 100 136 175 229 282 332 410
#     4  10  24  42  62  97 135 178 222 276 344 396
#     4  10  22  40  65  97 131 177 228 273 332 402
#
# _framework density 22.682635999999999
#
# number of rings (size 3 to 8) (size 9 to 14) (size 15 to 20)
#    0.000    2.000    1.429    0.000    0.000   14.286 
#    0.000    5.714    0.000    0.000    0.000    0.000 
#    0.000    0.000    0.000    0.000    0.000    0.000 
#
# Total GULP energy -156272.147743 kJ/mol
# GULP energy per Si atom -5581.148134 kJ/mol
# Density = 2.263101 g / cm^3
# Si number density = 22.682636 Si / 1000 Ang^3
#
#
#
# Elastic Constant Matrix: (Units=GPa)
#
#
# Indices 1 2 3 4 5 6 
#
# 1 201.3354 28.9394 83.5484 -0.0002 0.0000 -0.0002
# 2 28.9394 100.6216 40.3676 -0.0004 0.0000 -0.0003
# 3 83.5484 40.3676 140.5100 0.0000 0.0000 0.0000
# 4 -0.0002 -0.0004 0.0000 -24.3049 0.0001 0.0004
# 5 0.0000 0.0000 0.0000 0.0001 16.1819 0.0000
# 6 -0.0002 -0.0003 0.0000 0.0004 0.0000 -28.8071
#
#
#
# Elastic Compliance Matrix: (Units=1/GPa)
#
#
# Indices 1 2 3 4 5 6 
#
# 1 0.006606 -0.000366 -0.003823 0.000000 0.000000 0.000000
# 2 -0.000366 0.011253 -0.003015 0.000000 0.000000 0.000000
# 3 -0.003823 -0.003015 0.010256 0.000000 0.000000 0.000000
# 4 0.000000 0.000000 0.000000 -0.041144 0.000000 -0.000001
# 5 0.000000 0.000000 0.000000 0.000000 0.061798 0.000000
# 6 0.000000 0.000000 0.000000 -0.000001 0.000000 -0.034714
#
#
# Mechanical properties :
#
#
# Convention : Reuss Voigt Hill
#
# Bulk Modulus (GPa) = 72.95572 83.13088 78.04330
# Shear Modulus (GPa) = 151.36771 11.92141 81.64456
#
# Velocity S-wave (km/s) = 8.17788 2.29503 6.00603
# Velocity P-wave (km/s) = 11.01834 6.61453 9.08724
#
# Compressibility (1/GPa) = 0.01370694
#
# Stress axis : x y z
#
# Youngs Moduli (GPa) = 151.38306 88.86359 97.50274
#
# Poissons Ratio (x) = 0.03255 0.37271
# Poissons Ratio (y) = 0.05545 0.29399
# Poissons Ratio (z) = 0.57868 0.26794
#
# Static dielectric constant tensor:
#      x y z
#    x 1.933130 0.000000 0.000000 
#    y 0.000000 1.892470 0.000000 
#    z 0.000000 0.000000 1.833460 
# 
# From -- ./inp_files/9479.got.cif
#   From: 2010.05.17/outbox.cif.g08.bks.cpg/sg70_5_cif.got.tgz:9479.got - 2010.06.03 15:57:51.
