data_PCOD9515713
_publ_section_title
;
Structure prediction by ZEFSAII (Michael W. Deem and Ramdas Pophale) SiO2 
 PCOD9515713
Probable space group: F D D D
;
_chemical_formula_sum "Si O2"
_cell_formula_units_Z 168
_cell_length_a 21.098021
_cell_length_b 14.382833
_cell_length_c 24.551683
_cell_angle_alpha 90.000000
_cell_angle_beta 90.000000
_cell_angle_gamma 90.000000
_cell_volume 7450.191331
_symmetry_space_group_name_H-M "F D D D"
_symmetry_group_IT_number 70
_space_group.IT_coordinate_system_code '2'
_symmetry_cell_setting 'orthorhombic'
loop_
_space_group_symop_operation_xyz
x,y,z
1/4-x,1/4-y,z
x,1/4-y,1/4-z
1/4-x,y,1/4-z
-x,-y,-z
3/4+x,3/4+y,-z
-x,3/4+y,3/4+z
3/4+x,-y,3/4+z
x,1/2+y,1/2+z
1/4-x,3/4-y,1/2+z
x,3/4-y,3/4-z
1/4-x,1/2+y,3/4-z
-x,1/2-y,1/2-z
3/4+x,1/4+y,1/2-z
-x,1/4+y,1/4+z
3/4+x,1/2-y,1/4+z
1/2+x,y,1/2+z
3/4-x,1/4-y,1/2+z
1/2+x,1/4-y,3/4-z
3/4-x,y,3/4-z
1/2-x,-y,1/2-z
1/4+x,3/4+y,1/2-z
1/2-x,3/4+y,1/4+z
1/4+x,-y,1/4+z
1/2+x,1/2+y,z
3/4-x,3/4-y,z
1/2+x,3/4-y,1/4-z
3/4-x,1/2+y,1/4-z
1/2-x,1/2-y,-z
1/4+x,1/4+y,-z
1/2-x,1/4+y,3/4+z
1/4+x,1/2-y,3/4+z
loop_
_atom_site_type_symbol
_atom_site_label
_atom_site_fract_x
_atom_site_fract_y
_atom_site_fract_z
Si Si1 0.118578 0.966046 0.542269
Si Si2 0.802939 0.360978 0.128043
Si Si3 0.375000 0.875000 0.875000
Si Si4 0.015546 0.513608 0.772147
Si Si5 0.314027 0.526489 0.907468
Si Si6 0.809384 0.572386 0.679023
O O1 0.093499 0.871622 0.568417
O O2 0.098629 0.968860 0.479336
O O3 0.097691 0.051367 0.580867
O O4 0.194249 0.962284 0.538236
O O5 0.875000 0.375000 0.107853
O O6 0.808299 0.327216 0.189746
O O7 0.750885 0.442231 0.123291
O O8 0.777969 0.269882 0.095762
O O9 0.037110 0.526673 0.710265
O O10 0.022450 0.406147 0.791315
O O11 0.375000 0.485816 0.875000
O O12 0.838266 0.625000 0.625000
#
# Coordination Sequence:
#
# PCOD9515713 Si02
#       6
#    32  32   8  32  32  32
#     4  11  22  37  58  93 133 171 209 264 332 406
#     4  11  22  40  63  94 127 172 226 268 330 401
#     4  12  24  28  56 100 136 164 206 254 338 412
#     4  10  22  37  63  88 129 171 213 274 329 393
#     4  11  22  40  61  90 131 170 220 268 329 393
#     4   9  22  38  58  87 127 173 220 270 319 396
#
# _framework density 22.549758000000001
#
# number of rings (size 3 to 8) (size 9 to 14) (size 15 to 20)
#    0.000    1.524    2.857    1.143   10.667    1.524 
#    0.000    0.952    4.190    0.000    0.000    0.000 
#    0.000    0.000    0.000    0.000    0.000    0.000 
#
# Total GULP energy -233924.284574 kJ/mol
# GULP energy per Si atom -5569.625823 kJ/mol
# Density = 2.249843 g / cm^3
# Si number density = 22.549758 Si / 1000 Ang^3
#
#
#
# Elastic Constant Matrix: (Units=GPa)
#
#
# Indices 1 2 3 4 5 6 
#
# 1 132.4314 20.8734 21.3646 0.0000 0.0000 0.0000
# 2 20.8734 29.9315 23.5966 0.0000 0.0000 0.0000
# 3 21.3646 23.5966 104.2531 0.0000 0.0000 0.0000
# 4 0.0000 0.0000 0.0000 16.8600 0.0000 0.0000
# 5 0.0000 0.0000 0.0000 0.0000 19.0309 0.0000
# 6 0.0000 0.0000 0.0000 0.0000 0.0000 17.4740
#
#
#
# Elastic Compliance Matrix: (Units=1/GPa)
#
#
# Indices 1 2 3 4 5 6 
#
# 1 0.008504 -0.005546 -0.000487 0.000000 0.000000 0.000000
# 2 -0.005546 0.044283 -0.008886 0.000000 0.000000 0.000000
# 3 -0.000487 -0.008886 0.011703 0.000000 0.000000 0.000000
# 4 0.000000 0.000000 0.000000 0.059312 0.000000 0.000000
# 5 0.000000 0.000000 0.000000 0.000000 0.052546 0.000000
# 6 0.000000 0.000000 0.000000 0.000000 0.000000 0.057228
#
#
# Mechanical properties :
#
#
# Convention : Reuss Voigt Hill
#
# Bulk Modulus (GPa) = 28.85981 44.25390 36.55686
# Shear Modulus (GPa) = 18.18406 24.05841 21.12123
#
# Velocity S-wave (km/s) = 2.84279 3.26989 3.06379
# Velocity P-wave (km/s) = 4.85812 5.82442 5.36308
#
# Compressibility (1/GPa) = 0.03465026
#
# Stress axis : x y z
#
# Youngs Moduli (GPa) = 117.59358 22.58202 85.44613
#
# Poissons Ratio (x) = 0.12524 0.04165
# Poissons Ratio (y) = 0.65219 0.75931
# Poissons Ratio (z) = 0.05731 0.20067
#
# Static dielectric constant tensor:
#      x y z
#    x 1.940190 0.000000 0.000000 
#    y 0.000000 1.831760 0.000000 
#    z 0.000000 0.000000 2.100110 
# 
# From -- ./inp_files/38628.got.cif
#   From: 2010.05.17/outbox.cif.g08.bks.cpg/sg70_20_cif.got.tgz:38628.got - 2010.06.03 15:57:51.
