data_PCOD9515629
_publ_section_title
;
Structure prediction by ZEFSAII (Michael W. Deem and Ramdas Pophale) SiO2 
 PCOD9515629
Probable space group: F D D D
;
_chemical_formula_sum "Si O2"
_cell_formula_units_Z 192
_cell_length_a 19.398642
_cell_length_b 18.260632
_cell_length_c 24.626718
_cell_angle_alpha 90.000000
_cell_angle_beta 90.000000
_cell_angle_gamma 90.000000
_cell_volume 8723.558343
_symmetry_space_group_name_H-M "F D D D"
_symmetry_group_IT_number 70
_space_group.IT_coordinate_system_code '2'
_symmetry_cell_setting 'orthorhombic'
loop_
_space_group_symop_operation_xyz
x,y,z
1/4-x,1/4-y,z
x,1/4-y,1/4-z
1/4-x,y,1/4-z
-x,-y,-z
3/4+x,3/4+y,-z
-x,3/4+y,3/4+z
3/4+x,-y,3/4+z
x,1/2+y,1/2+z
1/4-x,3/4-y,1/2+z
x,3/4-y,3/4-z
1/4-x,1/2+y,3/4-z
-x,1/2-y,1/2-z
3/4+x,1/4+y,1/2-z
-x,1/4+y,1/4+z
3/4+x,1/2-y,1/4+z
1/2+x,y,1/2+z
3/4-x,1/4-y,1/2+z
1/2+x,1/4-y,3/4-z
3/4-x,y,3/4-z
1/2-x,-y,1/2-z
1/4+x,3/4+y,1/2-z
1/2-x,3/4+y,1/4+z
1/4+x,-y,1/4+z
1/2+x,1/2+y,z
3/4-x,3/4-y,z
1/2+x,3/4-y,1/4-z
3/4-x,1/2+y,1/4-z
1/2-x,1/2-y,-z
1/4+x,1/4+y,-z
1/2-x,1/4+y,3/4+z
1/4+x,1/2-y,3/4+z
loop_
_atom_site_type_symbol
_atom_site_label
_atom_site_fract_x
_atom_site_fract_y
_atom_site_fract_z
Si Si1 0.927428 0.724505 0.690103
Si Si2 0.302821 0.895371 0.273236
Si Si3 0.551911 0.544283 0.822494
Si Si4 0.954404 0.468747 0.050075
Si Si5 0.300176 0.460392 0.388010
Si Si6 0.964132 0.244945 0.518629
O O1 0.935948 0.779196 0.741204
O O2 0.940646 0.770285 0.635270
O O3 0.848223 0.702459 0.701961
O O4 0.983032 0.659327 0.693526
O O5 0.375000 0.875000 0.302207
O O6 0.294501 0.832181 0.227878
O O7 0.623308 0.512484 0.797260
O O8 0.546989 0.631054 0.809879
O O9 0.481760 0.515402 0.794617
O O10 0.991145 0.502093 0.102755
O O11 0.000000 0.500000 0.000000
O O12 0.301183 0.375000 0.375000
O O13 0.375000 0.492220 0.375000
O O14 0.281963 0.469998 0.450356
#
# Coordination Sequence:
#
# PCOD9515629 Si02
#       6
#    32  32  32  32  32  32
#     4  10  21  43  66  95 128 181 229 278 350 415
#     4   9  21  41  68  90 130 171 221 287 345 405
#     4  11  24  41  67  96 135 180 226 282 348 414
#     4  11  23  42  65  96 133 178 229 284 343 412
#     4  11  23  39  61  91 132 177 222 284 347 410
#     4  11  22  39  62  95 130 172 226 281 341 413
#
# _framework density 22.009367000000001
#
# number of rings (size 3 to 8) (size 9 to 14) (size 15 to 20)
#    0.000    1.500    1.667    3.000    4.667    7.333 
#    0.000   11.667    0.000    0.000    0.000    0.000 
#    0.000    0.000    0.000    0.000    0.000    0.000 
#
# Total GULP energy -267565.430316 kJ/mol
# GULP energy per Si atom -5574.279798 kJ/mol
# Density = 2.195927 g / cm^3
# Si number density = 22.009367 Si / 1000 Ang^3
#
#
#
# Elastic Constant Matrix: (Units=GPa)
#
#
# Indices 1 2 3 4 5 6 
#
# 1 163.4554 41.6536 52.8882 0.0000 0.0000 0.0000
# 2 41.6536 49.0859 -3.8838 0.0000 0.0000 0.0000
# 3 52.8882 -3.8838 71.0751 0.0000 0.0000 0.0000
# 4 0.0000 0.0000 0.0000 32.4847 0.0000 0.0000
# 5 0.0000 0.0000 0.0000 0.0000 34.2664 0.0000
# 6 0.0000 0.0000 0.0000 0.0000 0.0000 32.1527
#
#
#
# Elastic Compliance Matrix: (Units=1/GPa)
#
#
# Indices 1 2 3 4 5 6 
#
# 1 0.011976 -0.010915 -0.009508 0.000000 0.000000 0.000000
# 2 -0.010915 0.030409 0.009783 0.000000 0.000000 0.000000
# 3 -0.009508 0.009783 0.021679 0.000000 0.000000 0.000000
# 4 0.000000 0.000000 0.000000 0.030784 0.000000 0.000000
# 5 0.000000 0.000000 0.000000 0.000000 0.029183 0.000000
# 6 0.000000 0.000000 0.000000 0.000000 0.000000 0.031102
#
#
# Mechanical properties :
#
#
# Convention : Reuss Voigt Hill
#
# Bulk Modulus (GPa) = 23.37243 51.65916 37.51580
# Shear Modulus (GPa) = 26.22316 32.64467 29.43391
#
# Velocity S-wave (km/s) = 3.45549 3.85543 3.66093
# Velocity P-wave (km/s) = 5.15392 6.58343 5.91204
#
# Compressibility (1/GPa) = 0.04278544
#
# Stress axis : x y z
#
# Youngs Moduli (GPa) = 83.50309 32.88549 46.12745
#
# Poissons Ratio (x) = 0.35893 0.43856
# Poissons Ratio (y) = 0.91140 -0.45128
# Poissons Ratio (z) = 0.79392 -0.32173
#
# Static dielectric constant tensor:
#      x y z
#    x 2.079330 0.000000 0.000000 
#    y 0.000000 1.823780 0.000000 
#    z 0.000000 0.000000 1.847900 
# 
# From -- ./inp_files/52982.got.cif
#   From: 2010.05.17/outbox.cif.g08.bks.cpg/sg70_27_cif.got.tgz:52982.got - 2010.06.03 15:57:51.
