data_PCOD9515590
_publ_section_title
;
Structure prediction by ZEFSAII (Michael W. Deem and Ramdas Pophale) SiO2 
 PCOD9515590
Probable space group: F D D D
;
_chemical_formula_sum "Si O2"
_cell_formula_units_Z 216
_cell_length_a 15.030767
_cell_length_b 31.148228
_cell_length_c 22.819358
_cell_angle_alpha 90.000000
_cell_angle_beta 90.000000
_cell_angle_gamma 90.000000
_cell_volume 10683.607134
_symmetry_space_group_name_H-M "F D D D"
_symmetry_group_IT_number 70
_space_group.IT_coordinate_system_code '2'
_symmetry_cell_setting 'orthorhombic'
loop_
_space_group_symop_operation_xyz
x,y,z
1/4-x,1/4-y,z
x,1/4-y,1/4-z
1/4-x,y,1/4-z
-x,-y,-z
3/4+x,3/4+y,-z
-x,3/4+y,3/4+z
3/4+x,-y,3/4+z
x,1/2+y,1/2+z
1/4-x,3/4-y,1/2+z
x,3/4-y,3/4-z
1/4-x,1/2+y,3/4-z
-x,1/2-y,1/2-z
3/4+x,1/4+y,1/2-z
-x,1/4+y,1/4+z
3/4+x,1/2-y,1/4+z
1/2+x,y,1/2+z
3/4-x,1/4-y,1/2+z
1/2+x,1/4-y,3/4-z
3/4-x,y,3/4-z
1/2-x,-y,1/2-z
1/4+x,3/4+y,1/2-z
1/2-x,3/4+y,1/4+z
1/4+x,-y,1/4+z
1/2+x,1/2+y,z
3/4-x,3/4-y,z
1/2+x,3/4-y,1/4-z
3/4-x,1/2+y,1/4-z
1/2-x,1/2-y,-z
1/4+x,1/4+y,-z
1/2-x,1/4+y,3/4+z
1/4+x,1/2-y,3/4+z
loop_
_atom_site_type_symbol
_atom_site_label
_atom_site_fract_x
_atom_site_fract_y
_atom_site_fract_z
Si Si1 0.538898 0.319219 0.000142
Si Si2 0.113715 0.043405 0.934393
Si Si3 0.625000 0.125000 0.350562
Si Si4 0.503156 0.163175 0.721538
Si Si5 0.211344 0.721942 0.085466
Si Si6 0.005229 0.937536 0.538401
Si Si7 0.625000 0.125000 0.625000
Si Si8 0.605347 0.951819 0.378200
O O1 0.507298 0.368297 0.004420
O O2 0.548859 0.307641 0.930935
O O3 0.462489 0.293241 0.035142
O O4 0.639483 0.316724 0.024532
O O5 0.103485 0.084367 0.891682
O O6 0.092340 0.000468 0.899362
O O7 0.042955 0.051423 0.986153
O O8 0.706699 0.104940 0.312566
O O9 0.570737 0.154854 0.668550
O O10 0.415613 0.174061 0.685411
O O11 0.125000 0.718969 0.125000
O O12 0.244304 0.771482 0.081754
O O13 0.292534 0.695392 0.111639
O O14 0.202604 0.704698 0.019058
#
# Coordination Sequence:
#
# PCOD9515590 Si02
#       8
#    32  32  16  32  32  32   8  32
#     4  11  22  42  67  93 126 177 220 260 329 406
#     4  12  23  42  66  95 133 174 212 273 334 391
#     4  12  23  44  63  93 130 167 210 272 324 388
#     4  12  21  40  66  96 128 171 222 265 333 392
#     4  10  21  42  66  92 125 173 216 268 325 390
#     4  10  24  39  64  94 125 169 219 262 325 389
#     4  12  18  40  72  88 126 182 212 264 322 412
#     4  11  23  39  66  98 127 161 223 281 316 387
#
# _framework density 20.217891000000002
#
# number of rings (size 3 to 8) (size 9 to 14) (size 15 to 20)
#    0.000    0.889    5.926    1.333    0.000    1.185 
#    2.667    1.852    0.000    0.000    0.000    0.000 
#    0.000    0.000    0.000    0.000    0.000    0.000 
#
# Total GULP energy -301347.667608 kJ/mol
# GULP energy per Si atom -5580.512363 kJ/mol
# Density = 2.017187 g / cm^3
# Si number density = 20.217891 Si / 1000 Ang^3
#
#
#
# Elastic Constant Matrix: (Units=GPa)
#
#
# Indices 1 2 3 4 5 6 
#
# 1 77.7311 -1.3913 35.7550 0.0000 0.0000 0.0000
# 2 -1.3913 39.3525 6.7141 0.0000 0.0000 0.0000
# 3 35.7550 6.7141 79.7378 0.0000 0.0000 0.0000
# 4 0.0000 0.0000 0.0000 36.3088 0.0000 0.0000
# 5 0.0000 0.0000 0.0000 0.0000 46.8874 0.0000
# 6 0.0000 0.0000 0.0000 0.0000 0.0000 18.8467
#
#
#
# Elastic Compliance Matrix: (Units=1/GPa)
#
#
# Indices 1 2 3 4 5 6 
#
# 1 0.016340 0.001854 -0.007483 0.000000 0.000000 0.000000
# 2 0.001854 0.025992 -0.003020 0.000000 0.000000 0.000000
# 3 -0.007483 -0.003020 0.016151 0.000000 0.000000 0.000000
# 4 0.000000 0.000000 0.000000 0.027542 0.000000 0.000000
# 5 0.000000 0.000000 0.000000 0.000000 0.021328 0.000000
# 6 0.000000 0.000000 0.000000 0.000000 0.000000 0.053060
#
#
# Mechanical properties :
#
#
# Convention : Reuss Voigt Hill
#
# Bulk Modulus (GPa) = 24.28039 30.99745 27.63892
# Shear Modulus (GPa) = 26.11805 30.79149 28.45477
#
# Velocity S-wave (km/s) = 3.59810 3.90677 3.75561
# Velocity P-wave (km/s) = 5.41269 5.97624 5.70143
#
# Compressibility (1/GPa) = 0.04118551
#
# Stress axis : x y z
#
# Youngs Moduli (GPa) = 61.19874 38.47305 61.91593
#
# Poissons Ratio (x) = -0.07135 0.46333
# Poissons Ratio (y) = -0.11349 0.18700
# Poissons Ratio (z) = 0.45796 0.11619
#
# Static dielectric constant tensor:
#      x y z
#    x 1.798520 0.000000 0.000000 
#    y 0.000000 1.771070 0.000000 
#    z 0.000000 0.000000 1.743570 
# 
# From -- ./inp_files/51620.got.cif
#   From: 2010.05.17/outbox.cif.g08.bks.cpg/sg70_26_cif.got.tgz:51620.got - 2010.06.03 15:57:51.
