data_PCOD9515883
_publ_section_title
;
Structure prediction by ZEFSAII (Michael W. Deem and Ramdas Pophale) SiO2 
 PCOD9515883
Probable space group: F D D D
;
_chemical_formula_sum "Si O2"
_cell_formula_units_Z 192
_cell_length_a 24.233425
_cell_length_b 19.596465
_cell_length_c 16.491447
_cell_angle_alpha 90.000000
_cell_angle_beta 90.000000
_cell_angle_gamma 90.000000
_cell_volume 7831.614440
_symmetry_space_group_name_H-M "F D D D"
_symmetry_group_IT_number 70
_space_group.IT_coordinate_system_code '2'
_symmetry_cell_setting 'orthorhombic'
loop_
_space_group_symop_operation_xyz
x,y,z
1/4-x,1/4-y,z
x,1/4-y,1/4-z
1/4-x,y,1/4-z
-x,-y,-z
3/4+x,3/4+y,-z
-x,3/4+y,3/4+z
3/4+x,-y,3/4+z
x,1/2+y,1/2+z
1/4-x,3/4-y,1/2+z
x,3/4-y,3/4-z
1/4-x,1/2+y,3/4-z
-x,1/2-y,1/2-z
3/4+x,1/4+y,1/2-z
-x,1/4+y,1/4+z
3/4+x,1/2-y,1/4+z
1/2+x,y,1/2+z
3/4-x,1/4-y,1/2+z
1/2+x,1/4-y,3/4-z
3/4-x,y,3/4-z
1/2-x,-y,1/2-z
1/4+x,3/4+y,1/2-z
1/2-x,3/4+y,1/4+z
1/4+x,-y,1/4+z
1/2+x,1/2+y,z
3/4-x,3/4-y,z
1/2+x,3/4-y,1/4-z
3/4-x,1/2+y,1/4-z
1/2-x,1/2-y,-z
1/4+x,1/4+y,-z
1/2-x,1/4+y,3/4+z
1/4+x,1/2-y,3/4+z
loop_
_atom_site_type_symbol
_atom_site_label
_atom_site_fract_x
_atom_site_fract_y
_atom_site_fract_z
Si Si1 0.291410 0.798763 0.780622
Si Si2 0.554719 0.754600 0.348990
Si Si3 0.683046 0.336161 0.148097
Si Si4 0.777865 0.432182 0.716002
Si Si5 0.265770 0.386730 0.773335
Si Si6 0.075910 0.234610 0.945704
O O1 0.307244 0.773455 0.690036
O O2 0.319756 0.745745 0.841512
O O3 0.301634 0.879266 0.780093
O O4 0.226203 0.784639 0.795924
O O5 0.507685 0.814010 0.345404
O O6 0.536932 0.693718 0.289969
O O7 0.615228 0.771480 0.311608
O O8 0.625000 0.366259 0.125000
O O9 0.726781 0.354271 0.079431
O O10 0.710006 0.358934 0.231888
O O11 0.750000 0.500000 0.750000
O O12 0.818850 0.449551 0.642812
O O13 0.311975 0.325915 0.761944
#
# Coordination Sequence:
#
# PCOD9515883 Si02
#       6
#    32  32  32  32  32  32
#     4  10  22  42  64  95 126 168 226 268 328 419
#     4  11  20  39  70  92 126 182 211 269 345 383
#     4  10  23  40  60  96 130 164 210 279 330 388
#     4  10  22  42  62  89 129 161 214 272 322 399
#     4   9  21  38  61  96 131 161 223 269 315 421
#     4  10  23  39  63  98 129 171 216 273 330 396
#
# _framework density 24.516017000000002
#
# number of rings (size 3 to 8) (size 9 to 14) (size 15 to 20)
#    0.000    2.333    3.333    0.500    4.667    5.333 
#    0.000    6.667    0.000    8.000    0.000    0.000 
#    0.000    0.000    0.000    0.000    0.000    0.000 
#
# Total GULP energy -267623.826876 kJ/mol
# GULP energy per Si atom -5575.496393 kJ/mol
# Density = 2.446022 g / cm^3
# Si number density = 24.516017 Si / 1000 Ang^3
#
#
#
# Elastic Constant Matrix: (Units=GPa)
#
#
# Indices 1 2 3 4 5 6 
#
# 1 98.6358 -9.5977 18.9822 0.0000 0.0000 0.0000
# 2 -9.5977 56.3936 6.3257 0.0000 0.0000 0.0000
# 3 18.9822 6.3257 62.3400 0.0000 0.0000 0.0000
# 4 0.0000 0.0000 0.0000 42.4298 0.0000 0.0000
# 5 0.0000 0.0000 0.0000 0.0000 0.4864 0.0000
# 6 0.0000 0.0000 0.0000 0.0000 0.0000 5.0443
#
#
#
# Elastic Compliance Matrix: (Units=1/GPa)
#
#
# Indices 1 2 3 4 5 6 
#
# 1 0.011053 0.002285 -0.003597 0.000000 0.000000 0.000000
# 2 0.002285 0.018409 -0.002564 0.000000 0.000000 0.000000
# 3 -0.003597 -0.002564 0.017397 0.000000 0.000000 0.000000
# 4 0.000000 0.000000 0.000000 0.023568 0.000000 0.000000
# 5 0.000000 0.000000 0.000000 0.000000 2.055802 0.000000
# 6 0.000000 0.000000 0.000000 0.000000 0.000000 0.198244
#
#
# Mechanical properties :
#
#
# Convention : Reuss Voigt Hill
#
# Bulk Modulus (GPa) = 25.57176 27.64331 26.60753
# Shear Modulus (GPa) = 2.13196 23.03605 12.58400
#
# Velocity S-wave (km/s) = 0.93355 3.06867 2.26806
# Velocity P-wave (km/s) = 3.40812 4.88423 4.21135
#
# Compressibility (1/GPa) = 0.03910564
#
# Stress axis : x y z
#
# Youngs Moduli (GPa) = 90.47387 54.32155 57.48257
#
# Poissons Ratio (x) = -0.12411 0.20679
# Poissons Ratio (y) = -0.20670 0.14736
# Poissons Ratio (z) = 0.32547 0.13926
#
# Static dielectric constant tensor:
#      x y z
#    x 1.990520 0.000000 0.000000 
#    y 0.000000 2.013160 0.000000 
#    z 0.000000 0.000000 2.030370 
# 
# From -- ./inp_files/47013.got.cif
#   From: 2010.05.17/outbox.cif.g08.bks.cpg/sg70_24_cif.got.tgz:47013.got - 2010.06.03 15:57:51.
