data_PCOD9515758
_publ_section_title
;
Structure prediction by ZEFSAII (Michael W. Deem and Ramdas Pophale) SiO2 
 PCOD9515758
Probable space group: F D D D
;
_chemical_formula_sum "Si O2"
_cell_formula_units_Z 240
_cell_length_a 28.409463
_cell_length_b 19.668582
_cell_length_c 22.190350
_cell_angle_alpha 90.000000
_cell_angle_beta 90.000000
_cell_angle_gamma 90.000000
_cell_volume 12399.387360
_symmetry_space_group_name_H-M "F D D D"
_symmetry_group_IT_number 70
_space_group.IT_coordinate_system_code '2'
_symmetry_cell_setting 'orthorhombic'
loop_
_space_group_symop_operation_xyz
x,y,z
1/4-x,1/4-y,z
x,1/4-y,1/4-z
1/4-x,y,1/4-z
-x,-y,-z
3/4+x,3/4+y,-z
-x,3/4+y,3/4+z
3/4+x,-y,3/4+z
x,1/2+y,1/2+z
1/4-x,3/4-y,1/2+z
x,3/4-y,3/4-z
1/4-x,1/2+y,3/4-z
-x,1/2-y,1/2-z
3/4+x,1/4+y,1/2-z
-x,1/4+y,1/4+z
3/4+x,1/2-y,1/4+z
1/2+x,y,1/2+z
3/4-x,1/4-y,1/2+z
1/2+x,1/4-y,3/4-z
3/4-x,y,3/4-z
1/2-x,-y,1/2-z
1/4+x,3/4+y,1/2-z
1/2-x,3/4+y,1/4+z
1/4+x,-y,1/4+z
1/2+x,1/2+y,z
3/4-x,3/4-y,z
1/2+x,3/4-y,1/4-z
3/4-x,1/2+y,1/4-z
1/2-x,1/2-y,-z
1/4+x,1/4+y,-z
1/2-x,1/4+y,3/4+z
1/4+x,1/2-y,3/4+z
loop_
_atom_site_type_symbol
_atom_site_label
_atom_site_fract_x
_atom_site_fract_y
_atom_site_fract_z
Si Si1 0.318909 0.431421 0.751594
Si Si2 0.392110 0.704447 0.639816
Si Si3 0.242373 0.830254 0.717487
Si Si4 0.960649 0.495134 0.616386
Si Si5 0.177428 0.143185 0.555690
Si Si6 0.923934 0.779371 0.024068
Si Si7 0.773892 0.375000 0.375000
Si Si8 0.051008 0.282439 0.737208
O O1 0.290660 0.481178 0.705696
O O2 0.316568 0.359145 0.716591
O O3 0.371093 0.465177 0.754807
O O4 0.303336 0.405058 0.818059
O O5 0.385218 0.625000 0.625000
O O6 0.342373 0.742385 0.638170
O O7 0.421121 0.739376 0.586519
O O8 0.419230 0.712037 0.701974
O O9 0.266914 0.815603 0.654170
O O10 0.282405 0.855893 0.765251
O O11 0.212660 0.763524 0.737289
O O12 0.206335 0.892678 0.712096
O O13 0.989498 0.561665 0.636021
O O14 0.125000 0.125000 0.534338
O O15 0.184887 0.125000 0.625000
O O16 0.177415 0.224917 0.554057
O O17 0.000000 0.250000 0.750000
#
# Coordination Sequence:
#
# PCOD9515758 Si02
#       8
#    32  32  32  32  32  32  16  32
#     4  10  24  42  65  93 131 163 226 274 338 407
#     4  11  21  39  65  90 133 166 223 274 328 398
#     4  11  22  39  66  96 128 168 227 266 339 390
#     4  11  24  41  64  97 125 172 219 278 332 405
#     4  10  23  41  61  89 134 177 212 264 333 393
#     4  10  22  39  63  97 121 176 213 279 334 396
#     4  12  22  45  68  90 126 172 210 276 345 404
#     4  10  23  36  62  96 124 170 215 274 322 391
#
# _framework density 19.355795000000001
#
# number of rings (size 3 to 8) (size 9 to 14) (size 15 to 20)
#    0.000    1.467    3.333    1.200    7.467    1.067 
#    0.000    0.000    5.867    0.000    0.000    0.000 
#    0.000    0.000    0.000    0.000    0.000    0.000 
#
# Total GULP energy -334190.342017 kJ/mol
# GULP energy per Si atom -5569.839034 kJ/mol
# Density = 1.931174 g / cm^3
# Si number density = 19.355795 Si / 1000 Ang^3
#
#
#
# Elastic Constant Matrix: (Units=GPa)
#
#
# Indices 1 2 3 4 5 6 
#
# 1 81.4950 40.8526 54.8525 0.0000 0.0000 0.0000
# 2 40.8526 82.0311 31.7960 0.0000 0.0000 0.0000
# 3 54.8525 31.7960 109.4097 0.0000 0.0000 0.0000
# 4 0.0000 0.0000 0.0000 34.6258 0.0000 0.0000
# 5 0.0000 0.0000 0.0000 0.0000 47.8259 0.0000
# 6 0.0000 0.0000 0.0000 0.0000 0.0000 23.2912
#
#
#
# Elastic Compliance Matrix: (Units=1/GPa)
#
#
# Indices 1 2 3 4 5 6 
#
# 1 0.021993 -0.007527 -0.008839 0.000000 0.000000 0.000000
# 2 -0.007527 0.016314 -0.000968 0.000000 0.000000 0.000000
# 3 -0.008839 -0.000968 0.013852 0.000000 0.000000 0.000000
# 4 0.000000 0.000000 0.000000 0.028880 0.000000 0.000000
# 5 0.000000 0.000000 0.000000 0.000000 0.020909 0.000000
# 6 0.000000 0.000000 0.000000 0.000000 0.000000 0.042935
#
#
# Mechanical properties :
#
#
# Convention : Reuss Voigt Hill
#
# Bulk Modulus (GPa) = 57.16504 58.65978 57.91241
# Shear Modulus (GPa) = 26.97153 30.84424 28.90788
#
# Velocity S-wave (km/s) = 3.73696 3.99625 3.86878
# Velocity P-wave (km/s) = 6.94390 7.18785 7.06693
#
# Compressibility (1/GPa) = 0.01749321
#
# Stress axis : x y z
#
# Youngs Moduli (GPa) = 45.46904 61.29713 72.18952
#
# Poissons Ratio (x) = 0.46137 0.63807
# Poissons Ratio (y) = 0.34224 0.06984
# Poissons Ratio (z) = 0.40189 0.05931
#
# Static dielectric constant tensor:
#      x y z
#    x 1.704630 0.000000 0.000000 
#    y 0.000000 1.688650 0.000000 
#    z 0.000000 0.000000 1.666480 
# 
# From -- ./inp_files/47112.got.cif
#   From: 2010.05.17/outbox.cif.g08.bks.cpg/sg70_24_cif.got.tgz:47112.got - 2010.06.03 15:57:51.
