data_PCOD9515291
_publ_section_title
;
Structure prediction by ZEFSAII (Michael W. Deem and Ramdas Pophale) SiO2 
 PCOD9515291
Probable space group: F D D D
;
_chemical_formula_sum "Si O2"
_cell_formula_units_Z 176
_cell_length_a 32.128929
_cell_length_b 12.757651
_cell_length_c 22.822965
_cell_angle_alpha 90.000000
_cell_angle_beta 90.000000
_cell_angle_gamma 90.000000
_cell_volume 9354.897437
_symmetry_space_group_name_H-M "F D D D"
_symmetry_group_IT_number 70
_space_group.IT_coordinate_system_code '2'
_symmetry_cell_setting 'orthorhombic'
loop_
_space_group_symop_operation_xyz
x,y,z
1/4-x,1/4-y,z
x,1/4-y,1/4-z
1/4-x,y,1/4-z
-x,-y,-z
3/4+x,3/4+y,-z
-x,3/4+y,3/4+z
3/4+x,-y,3/4+z
x,1/2+y,1/2+z
1/4-x,3/4-y,1/2+z
x,3/4-y,3/4-z
1/4-x,1/2+y,3/4-z
-x,1/2-y,1/2-z
3/4+x,1/4+y,1/2-z
-x,1/4+y,1/4+z
3/4+x,1/2-y,1/4+z
1/2+x,y,1/2+z
3/4-x,1/4-y,1/2+z
1/2+x,1/4-y,3/4-z
3/4-x,y,3/4-z
1/2-x,-y,1/2-z
1/4+x,3/4+y,1/2-z
1/2-x,3/4+y,1/4+z
1/4+x,-y,1/4+z
1/2+x,1/2+y,z
3/4-x,3/4-y,z
1/2+x,3/4-y,1/4-z
3/4-x,1/2+y,1/4-z
1/2-x,1/2-y,-z
1/4+x,1/4+y,-z
1/2-x,1/4+y,3/4+z
1/4+x,1/2-y,3/4+z
loop_
_atom_site_type_symbol
_atom_site_label
_atom_site_fract_x
_atom_site_fract_y
_atom_site_fract_z
Si Si1 0.269960 0.808344 0.702397
Si Si2 0.181912 0.372157 0.515716
Si Si3 0.543290 0.268900 0.355558
Si Si4 0.629176 0.246563 0.805404
Si Si5 0.190112 0.875000 0.375000
Si Si6 0.422354 0.348659 0.307238
O O1 0.222072 0.806587 0.722626
O O2 0.284982 0.703439 0.668909
O O3 0.297547 0.842752 0.759693
O O4 0.272796 0.907261 0.657109
O O5 0.189119 0.304785 0.456707
O O6 0.141693 0.440713 0.502766
O O7 0.177879 0.277040 0.559495
O O8 0.519017 0.375000 0.375000
O O9 0.581440 0.255432 0.400202
O O10 0.625000 0.125000 0.793294
O O11 0.589979 0.299738 0.836756
O O12 0.427212 0.375000 0.375000
O O13 0.375000 0.375000 0.288242
#
# Coordination Sequence:
#
# PCOD9515291 Si02
#       6
#    32  32  32  32  16  32
#     4  11  23  35  59  94 130 159 201 260 327 377
#     4  10  21  36  57  88 126 155 199 258 317 372
#     4   9  17  31  59  90 118 150 196 248 322 361
#     4  11  20  36  63  92 117 163 208 261 315 377
#     4  12  22  38  62  96 127 162 211 272 308 386
#     4  10  21  37  62  88 119 161 204 254 312 376
#
# _framework density 18.813676000000001
#
# number of rings (size 3 to 8) (size 9 to 14) (size 15 to 20)
#    0.000    1.636    4.545    3.273    2.545    5.818 
#    0.000    0.909    8.000    0.000    0.000    0.000 
#    0.000    0.000    0.000    0.000    0.000    0.000 
#
# Total GULP energy -245008.838002 kJ/mol
# GULP energy per Si atom -5568.382682 kJ/mol
# Density = 1.877086 g / cm^3
# Si number density = 18.813676 Si / 1000 Ang^3
#
#
#
# Elastic Constant Matrix: (Units=GPa)
#
#
# Indices 1 2 3 4 5 6 
#
# 1 72.3249 23.6696 18.5792 0.0000 0.0000 0.0000
# 2 23.6696 138.0652 45.3557 0.0000 0.0000 0.0000
# 3 18.5792 45.3557 75.8150 0.0000 0.0000 0.0000
# 4 0.0000 0.0000 0.0000 25.5027 0.0000 0.0000
# 5 0.0000 0.0000 0.0000 0.0000 -28.8314 0.0000
# 6 0.0000 0.0000 0.0000 0.0000 0.0000 43.7278
#
#
#
# Elastic Compliance Matrix: (Units=1/GPa)
#
#
# Indices 1 2 3 4 5 6 
#
# 1 0.015071 -0.001706 -0.002673 0.000000 0.000000 0.000000
# 2 -0.001706 0.009208 -0.005090 0.000000 0.000000 0.000000
# 3 -0.002673 -0.005090 0.016890 0.000000 0.000000 0.000000
# 4 0.000000 0.000000 0.000000 0.039211 0.000000 0.000000
# 5 0.000000 0.000000 0.000000 0.000000 -0.034684 0.000000
# 6 0.000000 0.000000 0.000000 0.000000 0.000000 0.022869
#
#
# Mechanical properties :
#
#
# Convention : Reuss Voigt Hill
#
# Bulk Modulus (GPa) = 44.98182 51.26823 48.12503
# Shear Modulus (GPa) = 52.67948 21.31986 36.99967
#
# Velocity S-wave (km/s) = 5.29730 3.36997 4.43949
# Velocity P-wave (km/s) = 7.83430 6.51552 7.20514
#
# Compressibility (1/GPa) = 0.02223120
#
# Stress axis : x y z
#
# Youngs Moduli (GPa) = 66.35095 108.60573 59.20549
#
# Poissons Ratio (x) = 0.18525 0.15825
# Poissons Ratio (y) = 0.11318 0.30138
# Poissons Ratio (z) = 0.17735 0.55284
#
# Static dielectric constant tensor:
#      x y z
#    x 1.692510 0.000000 0.000000 
#    y 0.000000 1.706430 0.000000 
#    z 0.000000 0.000000 1.694970 
# 
# From -- ./inp_files/22269.got.cif
#   From: 2010.05.17/outbox.cif.g08.bks.cpg/sg70_12_cif.got.tgz:22269.got - 2010.06.03 15:57:51.
