data_PCOD9515542
_publ_section_title
;
Structure prediction by ZEFSAII (Michael W. Deem and Ramdas Pophale) SiO2 
 PCOD9515542
Probable space group: F D D D
;
_chemical_formula_sum "Si O2"
_cell_formula_units_Z 160
_cell_length_a 17.394892
_cell_length_b 25.749799
_cell_length_c 18.057791
_cell_angle_alpha 90.000000
_cell_angle_beta 90.000000
_cell_angle_gamma 90.000000
_cell_volume 8088.354961
_symmetry_space_group_name_H-M "F D D D"
_symmetry_group_IT_number 70
_space_group.IT_coordinate_system_code '2'
_symmetry_cell_setting 'orthorhombic'
loop_
_space_group_symop_operation_xyz
x,y,z
1/4-x,1/4-y,z
x,1/4-y,1/4-z
1/4-x,y,1/4-z
-x,-y,-z
3/4+x,3/4+y,-z
-x,3/4+y,3/4+z
3/4+x,-y,3/4+z
x,1/2+y,1/2+z
1/4-x,3/4-y,1/2+z
x,3/4-y,3/4-z
1/4-x,1/2+y,3/4-z
-x,1/2-y,1/2-z
3/4+x,1/4+y,1/2-z
-x,1/4+y,1/4+z
3/4+x,1/2-y,1/4+z
1/2+x,y,1/2+z
3/4-x,1/4-y,1/2+z
1/2+x,1/4-y,3/4-z
3/4-x,y,3/4-z
1/2-x,-y,1/2-z
1/4+x,3/4+y,1/2-z
1/2-x,3/4+y,1/4+z
1/4+x,-y,1/4+z
1/2+x,1/2+y,z
3/4-x,3/4-y,z
1/2+x,3/4-y,1/4-z
3/4-x,1/2+y,1/4-z
1/2-x,1/2-y,-z
1/4+x,1/4+y,-z
1/2-x,1/4+y,3/4+z
1/4+x,1/2-y,3/4+z
loop_
_atom_site_type_symbol
_atom_site_label
_atom_site_fract_x
_atom_site_fract_y
_atom_site_fract_z
Si Si1 0.836300 0.322500 0.293221
Si Si2 0.082903 0.966252 0.792722
Si Si3 0.840270 0.618730 0.540656
Si Si4 0.330941 0.518699 0.717952
Si Si5 0.917462 0.824914 0.455357
O O1 0.875000 0.317234 0.375000
O O2 0.875000 0.375000 0.262947
O O3 0.744489 0.319304 0.291086
O O4 0.859487 0.272579 0.247691
O O5 0.150108 0.927636 0.763351
O O6 0.086572 0.981490 0.879260
O O7 0.083331 0.019803 0.746986
O O8 0.867959 0.625000 0.625000
O O9 0.894826 0.575783 0.504030
O O10 0.755772 0.594184 0.547362
O O11 0.250000 0.500000 0.750000
O O12 0.875000 0.818869 0.375000
O O13 0.875000 0.875000 0.491594
#
# Coordination Sequence:
#
# PCOD9515542 Si02
#       5
#    32  32  32  32  32
#     4  11  22  38  62  93 129 169 210 254 320 392
#     4  11  24  40  66  96 125 168 219 265 321 390
#     4  10  21  41  65  90 125 169 212 256 324 394
#     4  11  21  38  65  95 132 167 209 264 322 385
#     4  11  23  45  67  90 126 174 218 269 329 380
#
# _framework density 19.781525999999999
#
# number of rings (size 3 to 8) (size 9 to 14) (size 15 to 20)
#    0.000    1.200    6.000    1.200    5.600    1.600 
#    0.000    5.000    0.000    0.000    0.000    0.000 
#    0.000    0.000    0.000    0.000    0.000    0.000 
#
# Total GULP energy -222803.430896 kJ/mol
# GULP energy per Si atom -5570.085772 kJ/mol
# Density = 1.973650 g / cm^3
# Si number density = 19.781526 Si / 1000 Ang^3
#
#
#
# Elastic Constant Matrix: (Units=GPa)
#
#
# Indices 1 2 3 4 5 6 
#
# 1 96.4828 57.2322 25.2926 0.0000 0.0000 0.0000
# 2 57.2322 195.8826 53.5626 0.0000 0.0000 0.0000
# 3 25.2926 53.5626 41.7935 0.0000 0.0000 0.0000
# 4 0.0000 0.0000 0.0000 34.2577 0.0000 0.0000
# 5 0.0000 0.0000 0.0000 0.0000 20.0816 0.0000
# 6 0.0000 0.0000 0.0000 0.0000 0.0000 40.8968
#
#
#
# Elastic Compliance Matrix: (Units=1/GPa)
#
#
# Indices 1 2 3 4 5 6 
#
# 1 0.013100 -0.002555 -0.004653 0.000000 0.000000 0.000000
# 2 -0.002555 0.008358 -0.009165 0.000000 0.000000 0.000000
# 3 -0.004653 -0.009165 0.038489 0.000000 0.000000 0.000000
# 4 0.000000 0.000000 0.000000 0.029191 0.000000 0.000000
# 5 0.000000 0.000000 0.000000 0.000000 0.049797 0.000000
# 6 0.000000 0.000000 0.000000 0.000000 0.000000 0.024452
#
#
# Mechanical properties :
#
#
# Convention : Reuss Voigt Hill
#
# Bulk Modulus (GPa) = 36.76451 67.37042 52.06747
# Shear Modulus (GPa) = 24.36656 32.25199 28.30927
#
# Velocity S-wave (km/s) = 3.51348 4.04221 3.78709
# Velocity P-wave (km/s) = 5.92326 7.47778 6.74545
#
# Compressibility (1/GPa) = 0.02720014
#
# Stress axis : x y z
#
# Youngs Moduli (GPa) = 76.33568 119.64966 25.98142
#
# Poissons Ratio (x) = 0.30572 0.12090
# Poissons Ratio (y) = 0.19505 0.23812
# Poissons Ratio (z) = 0.35521 1.09659
#
# Static dielectric constant tensor:
#      x y z
#    x 1.827170 0.000000 0.000000 
#    y 0.000000 1.759410 0.000000 
#    z 0.000000 0.000000 1.677210 
# 
# From -- ./inp_files/43640.got.cif
#   From: 2010.05.17/outbox.cif.g08.bks.cpg/sg70_22_cif.got.tgz:43640.got - 2010.06.03 15:57:51.
