data_PCOD9515018
_publ_section_title
;
Structure prediction by ZEFSAII (Michael W. Deem and Ramdas Pophale) SiO2 
 PCOD9515018
Probable space group: F D D D
;
_chemical_formula_sum "Si O2"
_cell_formula_units_Z 168
_cell_length_a 13.133452
_cell_length_b 19.985714
_cell_length_c 23.836811
_cell_angle_alpha 90.000000
_cell_angle_beta 90.000000
_cell_angle_gamma 90.000000
_cell_volume 6256.719892
_symmetry_space_group_name_H-M "F D D D"
_symmetry_group_IT_number 70
_space_group.IT_coordinate_system_code '2'
_symmetry_cell_setting 'orthorhombic'
loop_
_space_group_symop_operation_xyz
x,y,z
1/4-x,1/4-y,z
x,1/4-y,1/4-z
1/4-x,y,1/4-z
-x,-y,-z
3/4+x,3/4+y,-z
-x,3/4+y,3/4+z
3/4+x,-y,3/4+z
x,1/2+y,1/2+z
1/4-x,3/4-y,1/2+z
x,3/4-y,3/4-z
1/4-x,1/2+y,3/4-z
-x,1/2-y,1/2-z
3/4+x,1/4+y,1/2-z
-x,1/4+y,1/4+z
3/4+x,1/2-y,1/4+z
1/2+x,y,1/2+z
3/4-x,1/4-y,1/2+z
1/2+x,1/4-y,3/4-z
3/4-x,y,3/4-z
1/2-x,-y,1/2-z
1/4+x,3/4+y,1/2-z
1/2-x,3/4+y,1/4+z
1/4+x,-y,1/4+z
1/2+x,1/2+y,z
3/4-x,3/4-y,z
1/2+x,3/4-y,1/4-z
3/4-x,1/2+y,1/4-z
1/2-x,1/2-y,-z
1/4+x,1/4+y,-z
1/2-x,1/4+y,3/4+z
1/4+x,1/2-y,3/4+z
loop_
_atom_site_type_symbol
_atom_site_label
_atom_site_fract_x
_atom_site_fract_y
_atom_site_fract_z
Si Si1 0.613855 0.731300 0.712626
Si Si2 0.518451 0.815008 0.141657
Si Si3 0.092786 0.881838 0.757550
Si Si4 0.125000 0.125000 0.226875
Si Si5 0.586857 0.750103 0.941253
Si Si6 0.875000 0.375000 0.691307
Si Si7 0.625000 0.125000 0.125000
O O1 0.589784 0.803145 0.742200
O O2 0.717577 0.755952 0.681092
O O3 0.633753 0.687923 0.768168
O O4 0.569196 0.677180 0.667927
O O5 0.625000 0.781921 0.125000
O O6 0.548415 0.851774 0.199219
O O7 0.423565 0.764387 0.145884
O O8 0.473388 0.870349 0.099226
O O9 0.156968 0.823743 0.784738
O O10 0.989845 0.882839 0.796664
O O11 0.130385 0.194444 0.262730
#
# Coordination Sequence:
#
# PCOD9515018 Si02
#       7
#    32  32  32  16  32  16   8
#     4  10  23  45  68  98 138 184 238 300 362 432
#     4  11  22  39  69 102 142 185 233 299 365 432
#     4  10  20  38  66  95 128 185 233 278 351 422
#     4   8  15  30  61  88 128 167 218 274 332 411
#     4  10  20  41  66 100 136 185 236 288 356 435
#     4  11  23  43  64 102 141 179 241 304 357 437
#     4  10  24  48  70  92 138 186 240 290 362 424
#
# _framework density 26.851129
#
# number of rings (size 3 to 8) (size 9 to 14) (size 15 to 20)
#    0.000    1.905    0.000    6.857    1.333    1.524 
#   10.286    2.857    0.000    8.000    0.000    0.000 
#    0.000    0.000    0.000    0.000    0.000    0.000 
#
# Total GULP energy -233879.389751 kJ/mol
# GULP energy per Si atom -5568.556899 kJ/mol
# Density = 2.679002 g / cm^3
# Si number density = 26.851129 Si / 1000 Ang^3
#
#
#
# Elastic Constant Matrix: (Units=GPa)
#
#
# Indices 1 2 3 4 5 6 
#
# 1 111.6956 15.0596 1.4966 0.0000 0.0000 0.0000
# 2 15.0596 163.8565 13.4756 0.0000 0.0000 0.0000
# 3 1.4966 13.4756 74.6886 0.0000 0.0000 0.0000
# 4 0.0000 0.0000 0.0000 25.3489 0.0000 0.0000
# 5 0.0000 0.0000 0.0000 0.0000 26.2350 0.0000
# 6 0.0000 0.0000 0.0000 0.0000 0.0000 19.4641
#
#
#
# Elastic Compliance Matrix: (Units=1/GPa)
#
#
# Indices 1 2 3 4 5 6 
#
# 1 0.009065 -0.000831 -0.000032 0.000000 0.000000 0.000000
# 2 -0.000831 0.006271 -0.001115 0.000000 0.000000 0.000000
# 3 -0.000032 -0.001115 0.013591 0.000000 0.000000 0.000000
# 4 0.000000 0.000000 0.000000 0.039449 0.000000 0.000000
# 5 0.000000 0.000000 0.000000 0.000000 0.038117 0.000000
# 6 0.000000 0.000000 0.000000 0.000000 0.000000 0.051377
#
#
# Mechanical properties :
#
#
# Convention : Reuss Voigt Hill
#
# Bulk Modulus (GPa) = 40.04380 45.58937 42.81658
# Shear Modulus (GPa) = 29.38611 35.55687 32.47149
#
# Velocity S-wave (km/s) = 3.31177 3.64293 3.48129
# Velocity P-wave (km/s) = 5.43778 5.89152 5.66919
#
# Compressibility (1/GPa) = 0.02497266
#
# Stress axis : x y z
#
# Youngs Moduli (GPa) = 110.31059 159.46642 73.57978
#
# Poissons Ratio (x) = 0.13245 0.00234
# Poissons Ratio (y) = 0.09162 0.08203
# Poissons Ratio (z) = 0.00351 0.17777
#
# Static dielectric constant tensor:
#      x y z
#    x 2.378020 0.000000 0.000000 
#    y 0.000000 2.127030 0.000000 
#    z 0.000000 0.000000 2.169800 
# 
# From -- ./inp_files/52190.got.cif
#   From: 2010.05.17/outbox.cif.g08.bks.cpg/sg70_27_cif.got.tgz:52190.got - 2010.06.03 15:57:51.
