data_PCOD9515901
_publ_section_title
;
Structure prediction by ZEFSAII (Michael W. Deem and Ramdas Pophale) SiO2 
 PCOD9515901
Probable space group: F D D D
;
_chemical_formula_sum "Si O2"
_cell_formula_units_Z 144
_cell_length_a 10.378337
_cell_length_b 20.686764
_cell_length_c 31.364049
_cell_angle_alpha 90.000000
_cell_angle_beta 90.000000
_cell_angle_gamma 90.000000
_cell_volume 6733.679667
_symmetry_space_group_name_H-M "F D D D"
_symmetry_group_IT_number 70
_space_group.IT_coordinate_system_code '2'
_symmetry_cell_setting 'orthorhombic'
loop_
_space_group_symop_operation_xyz
x,y,z
1/4-x,1/4-y,z
x,1/4-y,1/4-z
1/4-x,y,1/4-z
-x,-y,-z
3/4+x,3/4+y,-z
-x,3/4+y,3/4+z
3/4+x,-y,3/4+z
x,1/2+y,1/2+z
1/4-x,3/4-y,1/2+z
x,3/4-y,3/4-z
1/4-x,1/2+y,3/4-z
-x,1/2-y,1/2-z
3/4+x,1/4+y,1/2-z
-x,1/4+y,1/4+z
3/4+x,1/2-y,1/4+z
1/2+x,y,1/2+z
3/4-x,1/4-y,1/2+z
1/2+x,1/4-y,3/4-z
3/4-x,y,3/4-z
1/2-x,-y,1/2-z
1/4+x,3/4+y,1/2-z
1/2-x,3/4+y,1/4+z
1/4+x,-y,1/4+z
1/2+x,1/2+y,z
3/4-x,3/4-y,z
1/2+x,3/4-y,1/4-z
3/4-x,1/2+y,1/4-z
1/2-x,1/2-y,-z
1/4+x,1/4+y,-z
1/2-x,1/4+y,3/4+z
1/4+x,1/2-y,3/4+z
loop_
_atom_site_type_symbol
_atom_site_label
_atom_site_fract_x
_atom_site_fract_y
_atom_site_fract_z
Si Si1 0.194917 0.525617 0.205809
Si Si2 0.103874 0.377509 0.426127
Si Si3 0.013031 0.167835 0.863456
Si Si4 0.375000 0.375000 0.982821
Si Si5 0.653613 0.233932 0.799688
O O1 0.250000 0.500000 0.250000
O O2 0.264910 0.592820 0.192713
O O3 0.231082 0.477391 0.167219
O O4 0.042257 0.515947 0.211492
O O5 0.101278 0.375000 0.375000
O O6 0.077600 0.451947 0.438518
O O7 0.986897 0.346459 0.452492
O O8 0.125000 0.125000 0.842848
O O9 0.072114 0.194053 0.907249
O O10 0.875000 0.135534 0.875000
O O11 0.403463 0.434769 0.015169
#
# Coordination Sequence:
#
# PCOD9515901 Si02
#       5
#    32  32  32  16  32
#     4  11  23  44  66  98 133 171 235 280 328 415
#     4  12  25  45  69 100 138 181 229 283 351 404
#     4  10  22  42  66  97 136 175 227 281 344 410
#     4  12  25  46  66 102 144 176 224 284 349 430
#     4  11  23  43  71  95 132 182 225 281 343 404
#
# _framework density 21.385038999999999
#
# number of rings (size 3 to 8) (size 9 to 14) (size 15 to 20)
#    0.000    0.889    5.556    1.667    0.000    2.667 
#    4.000    0.000    0.000    0.000    0.000    0.000 
#    0.000    0.000    0.000    0.000    0.000    0.000 
#
# Total GULP energy -200671.533603 kJ/mol
# GULP energy per Si atom -5574.209267 kJ/mol
# Density = 2.133637 g / cm^3
# Si number density = 21.385039 Si / 1000 Ang^3
#
#
#
# Elastic Constant Matrix: (Units=GPa)
#
#
# Indices 1 2 3 4 5 6 
#
# 1 43.5302 8.8669 4.1892 0.0000 0.0000 0.0000
# 2 8.8669 90.0500 17.8492 0.0000 0.0000 0.0000
# 3 4.1892 17.8492 134.7132 0.0000 0.0000 0.0000
# 4 0.0000 0.0000 0.0000 6.8490 0.0000 0.0000
# 5 0.0000 0.0000 0.0000 0.0000 20.4635 0.0000
# 6 0.0000 0.0000 0.0000 0.0000 0.0000 30.6109
#
#
#
# Elastic Compliance Matrix: (Units=1/GPa)
#
#
# Indices 1 2 3 4 5 6 
#
# 1 0.023468 -0.002225 -0.000435 0.000000 0.000000 0.000000
# 2 -0.002225 0.011615 -0.001470 0.000000 0.000000 0.000000
# 3 -0.000435 -0.001470 0.007631 0.000000 0.000000 0.000000
# 4 0.000000 0.000000 0.000000 0.146007 0.000000 0.000000
# 5 0.000000 0.000000 0.000000 0.000000 0.048867 0.000000
# 6 0.000000 0.000000 0.000000 0.000000 0.000000 0.032668
#
#
# Mechanical properties :
#
#
# Convention : Reuss Voigt Hill
#
# Bulk Modulus (GPa) = 29.02293 36.67824 32.85058
# Shear Modulus (GPa) = 17.24135 27.41056 22.32595
#
# Velocity S-wave (km/s) = 2.84251 3.58406 3.23460
# Velocity P-wave (km/s) = 4.93702 5.85797 5.41711
#
# Compressibility (1/GPa) = 0.03445552
#
# Stress axis : x y z
#
# Youngs Moduli (GPa) = 42.61204 86.09313 131.03660
#
# Poissons Ratio (x) = 0.19152 0.05700
# Poissons Ratio (y) = 0.09479 0.19260
# Poissons Ratio (z) = 0.01854 0.12654
#
# Static dielectric constant tensor:
#      x y z
#    x 1.887040 0.000000 0.000000 
#    y 0.000000 1.857060 0.000000 
#    z 0.000000 0.000000 1.727560 
# 
# From -- ./inp_files/57389.got.cif
#   From: 2010.05.17/outbox.cif.g08.bks.cpg/sg70_29_cif.got.tgz:57389.got - 2010.06.03 15:57:51.
