data_PCOD9515400
_publ_section_title
;
Structure prediction by ZEFSAII (Michael W. Deem and Ramdas Pophale) SiO2 
 PCOD9515400
Probable space group: F D D D
;
_chemical_formula_sum "Si O2"
_cell_formula_units_Z 192
_cell_length_a 24.840544
_cell_length_b 15.712943
_cell_length_c 24.997611
_cell_angle_alpha 90.000000
_cell_angle_beta 90.000000
_cell_angle_gamma 90.000000
_cell_volume 9757.018829
_symmetry_space_group_name_H-M "F D D D"
_symmetry_group_IT_number 70
_space_group.IT_coordinate_system_code '2'
_symmetry_cell_setting 'orthorhombic'
loop_
_space_group_symop_operation_xyz
x,y,z
1/4-x,1/4-y,z
x,1/4-y,1/4-z
1/4-x,y,1/4-z
-x,-y,-z
3/4+x,3/4+y,-z
-x,3/4+y,3/4+z
3/4+x,-y,3/4+z
x,1/2+y,1/2+z
1/4-x,3/4-y,1/2+z
x,3/4-y,3/4-z
1/4-x,1/2+y,3/4-z
-x,1/2-y,1/2-z
3/4+x,1/4+y,1/2-z
-x,1/4+y,1/4+z
3/4+x,1/2-y,1/4+z
1/2+x,y,1/2+z
3/4-x,1/4-y,1/2+z
1/2+x,1/4-y,3/4-z
3/4-x,y,3/4-z
1/2-x,-y,1/2-z
1/4+x,3/4+y,1/2-z
1/2-x,3/4+y,1/4+z
1/4+x,-y,1/4+z
1/2+x,1/2+y,z
3/4-x,3/4-y,z
1/2+x,3/4-y,1/4-z
3/4-x,1/2+y,1/4-z
1/2-x,1/2-y,-z
1/4+x,1/4+y,-z
1/2-x,1/4+y,3/4+z
1/4+x,1/2-y,3/4+z
loop_
_atom_site_type_symbol
_atom_site_label
_atom_site_fract_x
_atom_site_fract_y
_atom_site_fract_z
Si Si1 0.130252 0.497689 0.822373
Si Si2 0.125000 0.125000 0.832698
Si Si3 0.436457 0.076197 0.357458
Si Si4 0.245400 0.307625 0.924527
Si Si5 0.944391 0.125000 0.625000
Si Si6 0.075606 0.574579 0.723875
Si Si7 0.765650 0.465622 0.691375
O O1 0.139716 0.546779 0.878012
O O2 0.189067 0.474297 0.802747
O O3 0.095452 0.413928 0.831103
O O4 0.094212 0.553674 0.783213
O O5 0.178819 0.090174 0.804111
O O6 0.375000 0.095908 0.375000
O O7 0.471153 0.156150 0.337189
O O8 0.468582 0.020406 0.402129
O O9 0.433246 0.011975 0.307390
O O10 0.236692 0.375000 0.875000
O O11 0.275741 0.363507 0.968382
O O12 0.975230 0.203252 0.652251
O O13 0.125000 0.625000 0.696427
O O14 0.750000 0.500000 0.750000
#
# Coordination Sequence:
#
# PCOD9515400 Si02
#       7
#    32  16  32  32  16  32  32
#     4  11  20  41  63  95 129 168 215 268 329 394
#     4  10  22  40  70  91 125 172 214 276 336 388
#     4  11  22  42  65  94 135 179 212 267 344 398
#     4  10  21  38  64  91 132 178 206 257 338 402
#     4  10  24  44  67  94 127 174 232 284 320 386
#     4  11  22  35  60  99 136 163 209 269 321 404
#     4  11  24  46  69  97 131 178 232 284 328 397
#
# _framework density 19.678142000000001
#
# number of rings (size 3 to 8) (size 9 to 14) (size 15 to 20)
#    0.000    1.333    5.000    1.000    0.000    0.667 
#    9.000    0.000    0.000    0.000    0.000    0.000 
#    0.000    0.000    0.000    0.000    0.000    0.000 
#
# Total GULP energy -267928.670540 kJ/mol
# GULP energy per Si atom -5581.847303 kJ/mol
# Density = 1.963335 g / cm^3
# Si number density = 19.678142 Si / 1000 Ang^3
#
#
#
# Elastic Constant Matrix: (Units=GPa)
#
#
# Indices 1 2 3 4 5 6 
#
# 1 98.3907 40.2975 42.6990 0.0000 0.0000 0.0000
# 2 40.2975 109.7242 32.5724 0.0000 0.0000 0.0000
# 3 42.6990 32.5724 74.2073 0.0000 0.0000 0.0000
# 4 0.0000 0.0000 0.0000 30.1341 0.0000 0.0000
# 5 0.0000 0.0000 0.0000 0.0000 11.9821 0.0000
# 6 0.0000 0.0000 0.0000 0.0000 0.0000 42.0390
#
#
#
# Elastic Compliance Matrix: (Units=1/GPa)
#
#
# Indices 1 2 3 4 5 6 
#
# 1 0.014503 -0.003276 -0.006907 0.000000 0.000000 0.000000
# 2 -0.003276 0.011219 -0.003040 0.000000 0.000000 0.000000
# 3 -0.006907 -0.003040 0.018784 0.000000 0.000000 0.000000
# 4 0.000000 0.000000 0.000000 0.033185 0.000000 0.000000
# 5 0.000000 0.000000 0.000000 0.000000 0.083458 0.000000
# 6 0.000000 0.000000 0.000000 0.000000 0.000000 0.023787
#
#
# Mechanical properties :
#
#
# Convention : Reuss Voigt Hill
#
# Bulk Modulus (GPa) = 55.36715 57.05110 56.20912
# Shear Modulus (GPa) = 22.99890 27.94793 25.47341
#
# Velocity S-wave (km/s) = 3.42241 3.77271 3.60182
# Velocity P-wave (km/s) = 6.61926 6.93057 6.77671
#
# Compressibility (1/GPa) = 0.01806125
#
# Stress axis : x y z
#
# Youngs Moduli (GPa) = 68.95271 89.13298 53.23620
#
# Poissons Ratio (x) = 0.29199 0.36770
# Poissons Ratio (y) = 0.22588 0.16182
# Poissons Ratio (z) = 0.47625 0.27093
#
# Static dielectric constant tensor:
#      x y z
#    x 1.715160 0.000000 0.000000 
#    y 0.000000 1.712950 0.000000 
#    z 0.000000 0.000000 1.712660 
# 
# From -- ./inp_files/51448.got.cif
#   From: 2010.05.17/outbox.cif.g08.bks.cpg/sg70_26_cif.got.tgz:51448.got - 2010.06.03 15:57:51.
