data_PCOD9515143
_publ_section_title
;
Structure prediction by ZEFSAII (Michael W. Deem and Ramdas Pophale) SiO2 
 PCOD9515143
Probable space group: F D D D
;
_chemical_formula_sum "Si O2"
_cell_formula_units_Z 176
_cell_length_a 12.363215
_cell_length_b 26.675020
_cell_length_c 23.615085
_cell_angle_alpha 90.000000
_cell_angle_beta 90.000000
_cell_angle_gamma 90.000000
_cell_volume 7787.995442
_symmetry_space_group_name_H-M "F D D D"
_symmetry_group_IT_number 70
_space_group.IT_coordinate_system_code '2'
_symmetry_cell_setting 'orthorhombic'
loop_
_space_group_symop_operation_xyz
x,y,z
1/4-x,1/4-y,z
x,1/4-y,1/4-z
1/4-x,y,1/4-z
-x,-y,-z
3/4+x,3/4+y,-z
-x,3/4+y,3/4+z
3/4+x,-y,3/4+z
x,1/2+y,1/2+z
1/4-x,3/4-y,1/2+z
x,3/4-y,3/4-z
1/4-x,1/2+y,3/4-z
-x,1/2-y,1/2-z
3/4+x,1/4+y,1/2-z
-x,1/4+y,1/4+z
3/4+x,1/2-y,1/4+z
1/2+x,y,1/2+z
3/4-x,1/4-y,1/2+z
1/2+x,1/4-y,3/4-z
3/4-x,y,3/4-z
1/2-x,-y,1/2-z
1/4+x,3/4+y,1/2-z
1/2-x,3/4+y,1/4+z
1/4+x,-y,1/4+z
1/2+x,1/2+y,z
3/4-x,3/4-y,z
1/2+x,3/4-y,1/4-z
3/4-x,1/2+y,1/4-z
1/2-x,1/2-y,-z
1/4+x,1/4+y,-z
1/2-x,1/4+y,3/4+z
1/4+x,1/2-y,3/4+z
loop_
_atom_site_type_symbol
_atom_site_label
_atom_site_fract_x
_atom_site_fract_y
_atom_site_fract_z
Si Si1 0.157363 0.704799 0.327945
Si Si2 0.875000 0.570495 0.375000
Si Si3 0.375000 0.375000 0.971695
Si Si4 0.798929 0.195461 0.073410
Si Si5 0.125000 0.625000 0.238499
Si Si6 0.244393 0.914467 0.572351
Si Si7 0.724658 0.875000 0.875000
Si Si8 0.625000 0.994877 0.125000
O O1 0.275796 0.713433 0.353794
O O2 0.098043 0.752423 0.300012
O O3 0.180769 0.664490 0.279833
O O4 0.076268 0.680551 0.376032
O O5 0.813058 0.610927 0.333933
O O6 0.457087 0.398962 0.926468
O O7 0.310477 0.410989 0.014523
O O8 0.717314 0.157219 0.042855
O O9 0.899453 0.165558 0.096231
O O10 0.725754 0.218482 0.123184
O O11 0.149976 0.956128 0.574253
#
# Coordination Sequence:
#
# PCOD9515143 Si02
#       8
#    32  16  16  32  16  32  16  16
#     4  11  23  40  68 112 139 176 242 293 348 436
#     4  11  18  36  70 100 142 170 226 300 345 414
#     4  11  23  44  67  92 127 194 225 275 350 410
#     4  11  25  45  66 100 143 189 232 288 353 420
#     4  12  23  41  71 100 147 187 227 290 366 412
#     4  10  20  40  72  97 138 181 229 292 354 405
#     4  11  28  45  66  86 142 185 240 287 346 422
#     4   9  22  43  68 105 138 173 238 295 337 432
#
# _framework density 22.598884000000002
#
# number of rings (size 3 to 8) (size 9 to 14) (size 15 to 20)
#    0.000    1.273    3.636    1.636    2.545    2.909 
#    0.000    3.636    0.000    0.000    0.000    0.000 
#    0.000    0.000    0.000    0.000    0.000    0.000 
#
# Total GULP energy -245236.998709 kJ/mol
# GULP energy per Si atom -5573.568152 kJ/mol
# Density = 2.254745 g / cm^3
# Si number density = 22.598884 Si / 1000 Ang^3
#
#
#
# Elastic Constant Matrix: (Units=GPa)
#
#
# Indices 1 2 3 4 5 6 
#
# 1 138.0208 32.1270 47.7744 0.0000 0.0000 0.0000
# 2 32.1270 89.9620 35.9951 0.0000 0.0000 0.0000
# 3 47.7744 35.9951 104.3722 0.0000 0.0000 0.0000
# 4 0.0000 0.0000 0.0000 -6.0924 0.0000 0.0000
# 5 0.0000 0.0000 0.0000 0.0000 -1.1868 0.0000
# 6 0.0000 0.0000 0.0000 0.0000 0.0000 29.4869
#
#
#
# Elastic Compliance Matrix: (Units=1/GPa)
#
#
# Indices 1 2 3 4 5 6 
#
# 1 0.008850 -0.001786 -0.003435 0.000000 0.000000 0.000000
# 2 -0.001786 0.013256 -0.003754 0.000000 0.000000 0.000000
# 3 -0.003435 -0.003754 0.012448 0.000000 0.000000 0.000000
# 4 0.000000 0.000000 0.000000 -0.164138 0.000000 0.000000
# 5 0.000000 0.000000 0.000000 0.000000 -0.842585 0.000000
# 6 0.000000 0.000000 0.000000 0.000000 0.000000 0.033913
#
#
# Mechanical properties :
#
#
# Convention : Reuss Voigt Hill
#
# Bulk Modulus (GPa) = 60.22773 62.68314 61.45543
# Shear Modulus (GPa) = -5.46585 18.87210 6.70313
#
# Velocity S-wave (km/s) = -1.55688 2.89293 1.72411
# Velocity P-wave (km/s) = 4.84528 6.24149 5.58717
#
# Compressibility (1/GPa) = 0.01660365
#
# Stress axis : x y z
#
# Youngs Moduli (GPa) = 112.99425 75.43942 80.33416
#
# Poissons Ratio (x) = 0.13474 0.27594
# Poissons Ratio (y) = 0.20182 0.30157
# Poissons Ratio (z) = 0.38813 0.28320
#
# Static dielectric constant tensor:
#      x y z
#    x 1.919000 0.000000 0.000000 
#    y 0.000000 1.842700 0.000000 
#    z 0.000000 0.000000 1.871440 
# 
# From -- ./inp_files/57816.got.cif
#   From: 2010.05.17/outbox.cif.g08.bks.cpg/sg70_29_cif.got.tgz:57816.got - 2010.06.03 15:57:51.
