data_PCOD9515861
_publ_section_title
;
Structure prediction by ZEFSAII (Michael W. Deem and Ramdas Pophale) SiO2 
 PCOD9515861
Probable space group: F D D D
;
_chemical_formula_sum "Si O2"
_cell_formula_units_Z 104
_cell_length_a 32.512970
_cell_length_b 21.155525
_cell_length_c 7.075264
_cell_angle_alpha 90.000000
_cell_angle_beta 90.000000
_cell_angle_gamma 90.000000
_cell_volume 4866.571406
_symmetry_space_group_name_H-M "F D D D"
_symmetry_group_IT_number 70
_space_group.IT_coordinate_system_code '2'
_symmetry_cell_setting 'orthorhombic'
loop_
_space_group_symop_operation_xyz
x,y,z
1/4-x,1/4-y,z
x,1/4-y,1/4-z
1/4-x,y,1/4-z
-x,-y,-z
3/4+x,3/4+y,-z
-x,3/4+y,3/4+z
3/4+x,-y,3/4+z
x,1/2+y,1/2+z
1/4-x,3/4-y,1/2+z
x,3/4-y,3/4-z
1/4-x,1/2+y,3/4-z
-x,1/2-y,1/2-z
3/4+x,1/4+y,1/2-z
-x,1/4+y,1/4+z
3/4+x,1/2-y,1/4+z
1/2+x,y,1/2+z
3/4-x,1/4-y,1/2+z
1/2+x,1/4-y,3/4-z
3/4-x,y,3/4-z
1/2-x,-y,1/2-z
1/4+x,3/4+y,1/2-z
1/2-x,3/4+y,1/4+z
1/4+x,-y,1/4+z
1/2+x,1/2+y,z
3/4-x,3/4-y,z
1/2+x,3/4-y,1/4-z
3/4-x,1/2+y,1/4-z
1/2-x,1/2-y,-z
1/4+x,1/4+y,-z
1/2-x,1/4+y,3/4+z
1/4+x,1/2-y,3/4+z
loop_
_atom_site_type_symbol
_atom_site_label
_atom_site_fract_x
_atom_site_fract_y
_atom_site_fract_z
Si Si1 0.077698 0.889018 0.093333
Si Si2 0.125000 0.625000 0.625000
Si Si3 0.765574 0.213685 0.818714
Si Si4 0.443096 0.970100 0.465959
O O1 0.125000 0.871261 0.125000
O O2 0.043063 0.841634 0.165180
O O3 0.071150 0.963046 0.127579
O O4 0.070616 0.875000 0.875000
O O5 0.155635 0.671759 0.514529
O O6 0.790327 0.259480 0.672474
O O7 0.728040 0.194097 0.677953
O O8 0.750000 0.250000 0.000000
#
# Coordination Sequence:
#
# PCOD9515861 Si02
#       4
#    32   8  32  32
#     4  10  22  41  67  95 130 173 220 273 337 402
#     4  12  24  44  70  96 148 186 216 298 354 404
#     4  10  24  42  71  97 128 176 232 283 337 412
#     4  10  24  44  64  98 134 180 222 275 349 410
#
# _framework density 21.370280000000001
#
# number of rings (size 3 to 8) (size 9 to 14) (size 15 to 20)
#    0.000    1.846    1.538    0.000   15.077    0.000 
#    0.000    1.538    0.000    0.000    0.000    0.000 
#    0.000    0.000    0.000    0.000    0.000    0.000 
#
# Total GULP energy -144868.774988 kJ/mol
# GULP energy per Si atom -5571.875961 kJ/mol
# Density = 2.132164 g / cm^3
# Si number density = 21.370280 Si / 1000 Ang^3
#
#
#
# Elastic Constant Matrix: (Units=GPa)
#
#
# Indices 1 2 3 4 5 6 
#
# 1 152.0850 95.2272 31.7994 -0.0001 0.0000 0.0000
# 2 95.2272 154.7331 42.4448 0.0004 0.0000 0.0000
# 3 31.7994 42.4448 84.7871 0.0007 -0.0002 -0.0001
# 4 -0.0001 0.0004 0.0007 24.9460 -0.0001 -0.0001
# 5 0.0000 0.0000 -0.0002 -0.0001 27.8588 0.0000
# 6 0.0000 0.0000 -0.0001 -0.0001 0.0000 75.6424
#
#
#
# Elastic Compliance Matrix: (Units=1/GPa)
#
#
# Indices 1 2 3 4 5 6 
#
# 1 0.010748 -0.006386 -0.000834 0.000000 0.000000 0.000000
# 2 -0.006386 0.011286 -0.003255 0.000000 0.000000 0.000000
# 3 -0.000834 -0.003255 0.013736 0.000000 0.000000 0.000000
# 4 0.000000 0.000000 0.000000 0.040087 0.000000 0.000000
# 5 0.000000 0.000000 0.000000 0.000000 0.035895 0.000000
# 6 0.000000 0.000000 0.000000 0.000000 0.000000 0.013220
#
#
# Mechanical properties :
#
#
# Convention : Reuss Voigt Hill
#
# Bulk Modulus (GPa) = 67.47353 81.17199 74.32276
# Shear Modulus (GPa) = 33.14291 40.49837 36.82064
#
# Velocity S-wave (km/s) = 3.94240 4.35797 4.15539
# Velocity P-wave (km/s) = 7.23640 7.96170 7.60770
#
# Compressibility (1/GPa) = 0.01482063
#
# Stress axis : x y z
#
# Youngs Moduli (GPa) = 93.03874 88.60876 72.79926
#
# Poissons Ratio (x) = 0.56585 0.06074
# Poissons Ratio (y) = 0.59414 0.23693
# Poissons Ratio (z) = 0.07762 0.28838
#
# Static dielectric constant tensor:
#      x y z
#    x 1.765630 0.000000 0.000000 
#    y 0.000000 1.908180 0.000000 
#    z 0.000000 0.000000 1.729490 
# 
# From -- ./inp_files/11822.got.cif
#   From: 2010.05.17/outbox.cif.g08.bks.cpg/sg70_6_cif.got.tgz:11822.got - 2010.06.03 15:57:51.
