data_PCOD9515880
_publ_section_title
;
Structure prediction by ZEFSAII (Michael W. Deem and Ramdas Pophale) SiO2 
 PCOD9515880
Probable space group: F D D D
;
_chemical_formula_sum "Si O2"
_cell_formula_units_Z 176
_cell_length_a 25.530239
_cell_length_b 11.672908
_cell_length_c 24.126767
_cell_angle_alpha 90.000000
_cell_angle_beta 90.000000
_cell_angle_gamma 90.000000
_cell_volume 7190.069249
_symmetry_space_group_name_H-M "F D D D"
_symmetry_group_IT_number 70
_space_group.IT_coordinate_system_code '2'
_symmetry_cell_setting 'orthorhombic'
loop_
_space_group_symop_operation_xyz
x,y,z
1/4-x,1/4-y,z
x,1/4-y,1/4-z
1/4-x,y,1/4-z
-x,-y,-z
3/4+x,3/4+y,-z
-x,3/4+y,3/4+z
3/4+x,-y,3/4+z
x,1/2+y,1/2+z
1/4-x,3/4-y,1/2+z
x,3/4-y,3/4-z
1/4-x,1/2+y,3/4-z
-x,1/2-y,1/2-z
3/4+x,1/4+y,1/2-z
-x,1/4+y,1/4+z
3/4+x,1/2-y,1/4+z
1/2+x,y,1/2+z
3/4-x,1/4-y,1/2+z
1/2+x,1/4-y,3/4-z
3/4-x,y,3/4-z
1/2-x,-y,1/2-z
1/4+x,3/4+y,1/2-z
1/2-x,3/4+y,1/4+z
1/4+x,-y,1/4+z
1/2+x,1/2+y,z
3/4-x,3/4-y,z
1/2+x,3/4-y,1/4-z
3/4-x,1/2+y,1/4-z
1/2-x,1/2-y,-z
1/4+x,1/4+y,-z
1/2-x,1/4+y,3/4+z
1/4+x,1/2-y,3/4+z
loop_
_atom_site_type_symbol
_atom_site_label
_atom_site_fract_x
_atom_site_fract_y
_atom_site_fract_z
Si Si1 0.448907 0.414644 0.501261
Si Si2 0.182940 0.393279 0.126536
Si Si3 0.962360 0.513030 0.264262
Si Si4 0.046075 0.625000 0.125000
Si Si5 0.560083 0.746397 0.232568
Si Si6 0.359842 0.613154 0.190316
O O1 0.500000 0.500000 0.500000
O O2 0.475556 0.293517 0.520408
O O3 0.432151 0.391294 0.438062
O O4 0.405540 0.485532 0.536512
O O5 0.125000 0.447435 0.125000
O O6 0.188506 0.333560 0.184933
O O7 0.224896 0.494520 0.119744
O O8 0.185583 0.302468 0.077713
O O9 0.934958 0.390318 0.268985
O O10 0.942134 0.565605 0.206817
O O11 0.500000 0.750000 0.250000
O O12 0.595696 0.820132 0.274436
O O13 0.370009 0.625000 0.125000
#
# Coordination Sequence:
#
# PCOD9515880 Si02
#       6
#    32  32  32  16  32  32
#     4  10  22  41  73 111 150 201 260 324 408 468
#     4  12  24  43  74 102 148 198 269 324 396 479
#     4  11  24  46  75 109 149 207 256 319 408 474
#     4  12  21  42  70 108 150 196 262 328 384 474
#     4  12  27  48  71 113 153 204 257 332 402 484
#     4  11  25  47  78 109 156 206 266 332 412 483
#
# _framework density 24.478207000000001
#
# number of rings (size 3 to 8) (size 9 to 14) (size 15 to 20)
#    0.000    0.727    5.455    2.455    5.091    3.636 
#    0.000    8.182    0.000    0.000    0.000    0.000 
#    0.000    0.000    0.000    0.000    0.000    0.000 
#
# Total GULP energy -245229.119459 kJ/mol
# GULP energy per Si atom -5573.389079 kJ/mol
# Density = 2.442249 g / cm^3
# Si number density = 24.478207 Si / 1000 Ang^3
#
#
#
# Elastic Constant Matrix: (Units=GPa)
#
#
# Indices 1 2 3 4 5 6 
#
# 1 127.4570 44.6383 42.6486 0.0000 0.0000 0.0000
# 2 44.6383 190.9773 60.0060 0.0000 0.0000 0.0000
# 3 42.6486 60.0060 181.0015 0.0000 0.0000 0.0000
# 4 0.0000 0.0000 0.0000 44.6969 0.0000 0.0000
# 5 0.0000 0.0000 0.0000 0.0000 21.6944 0.0000
# 6 0.0000 0.0000 0.0000 0.0000 0.0000 39.6464
#
#
#
# Elastic Compliance Matrix: (Units=1/GPa)
#
#
# Indices 1 2 3 4 5 6 
#
# 1 0.008931 -0.001592 -0.001577 0.000000 0.000000 0.000000
# 2 -0.001592 0.006129 -0.001657 0.000000 0.000000 0.000000
# 3 -0.001577 -0.001657 0.006446 0.000000 0.000000 0.000000
# 4 0.000000 0.000000 0.000000 0.022373 0.000000 0.000000
# 5 0.000000 0.000000 0.000000 0.000000 0.046095 0.000000
# 6 0.000000 0.000000 0.000000 0.000000 0.000000 0.025223
#
#
# Mechanical properties :
#
#
# Convention : Reuss Voigt Hill
#
# Bulk Modulus (GPa) = 84.35546 88.22461 86.29004
# Shear Modulus (GPa) = 38.82037 44.68373 41.75205
#
# Velocity S-wave (km/s) = 3.98668 4.27716 4.13447
# Velocity P-wave (km/s) = 7.46510 7.77898 7.62365
#
# Compressibility (1/GPa) = 0.01185460
#
# Stress axis : x y z
#
# Youngs Moduli (GPa) = 111.97073 163.16114 155.14636
#
# Poissons Ratio (x) = 0.25977 0.24459
# Poissons Ratio (y) = 0.17827 0.25703
# Poissons Ratio (z) = 0.17652 0.27031
#
# Static dielectric constant tensor:
#      x y z
#    x 2.153630 0.000000 0.000000 
#    y 0.000000 1.717400 0.000000 
#    z 0.000000 0.000000 1.842990 
# 
# From -- ./inp_files/54986.got.cif
#   From: 2010.05.17/outbox.cif.g08.bks.cpg/sg70_28_cif.got.tgz:54986.got - 2010.06.03 15:57:51.
