data_PCOD9515064
_publ_section_title
;
Structure prediction by ZEFSAII (Michael W. Deem and Ramdas Pophale) SiO2 
 PCOD9515064
Probable space group: F D D D
;
_chemical_formula_sum "Si O2"
_cell_formula_units_Z 160
_cell_length_a 25.716781
_cell_length_b 16.954530
_cell_length_c 16.064168
_cell_angle_alpha 90.000000
_cell_angle_beta 90.000000
_cell_angle_gamma 90.000000
_cell_volume 7004.233230
_symmetry_space_group_name_H-M "F D D D"
_symmetry_group_IT_number 70
_space_group.IT_coordinate_system_code '2'
_symmetry_cell_setting 'orthorhombic'
loop_
_space_group_symop_operation_xyz
x,y,z
1/4-x,1/4-y,z
x,1/4-y,1/4-z
1/4-x,y,1/4-z
-x,-y,-z
3/4+x,3/4+y,-z
-x,3/4+y,3/4+z
3/4+x,-y,3/4+z
x,1/2+y,1/2+z
1/4-x,3/4-y,1/2+z
x,3/4-y,3/4-z
1/4-x,1/2+y,3/4-z
-x,1/2-y,1/2-z
3/4+x,1/4+y,1/2-z
-x,1/4+y,1/4+z
3/4+x,1/2-y,1/4+z
1/2+x,y,1/2+z
3/4-x,1/4-y,1/2+z
1/2+x,1/4-y,3/4-z
3/4-x,y,3/4-z
1/2-x,-y,1/2-z
1/4+x,3/4+y,1/2-z
1/2-x,3/4+y,1/4+z
1/4+x,-y,1/4+z
1/2+x,1/2+y,z
3/4-x,3/4-y,z
1/2+x,3/4-y,1/4-z
3/4-x,1/2+y,1/4-z
1/2-x,1/2-y,-z
1/4+x,1/4+y,-z
1/2-x,1/4+y,3/4+z
1/4+x,1/2-y,3/4+z
loop_
_atom_site_type_symbol
_atom_site_label
_atom_site_fract_x
_atom_site_fract_y
_atom_site_fract_z
Si Si1 0.460396 0.579108 0.251654
Si Si2 0.226024 0.428781 0.196916
Si Si3 0.924897 0.411326 0.245992
Si Si4 0.426509 0.830401 0.066893
Si Si5 0.362930 0.588883 0.033739
O O1 0.470688 0.555722 0.348125
O O2 0.517994 0.589113 0.214879
O O3 0.428194 0.511106 0.204230
O O4 0.423158 0.654968 0.244195
O O5 0.250000 0.500000 0.250000
O O6 0.268717 0.361846 0.216002
O O7 0.170792 0.396161 0.225330
O O8 0.875000 0.375000 0.290624
O O9 0.928848 0.356251 0.163283
O O10 0.910077 0.501004 0.221519
O O11 0.375000 0.875000 0.033239
O O12 0.356251 0.625000 0.125000
#
# Coordination Sequence:
#
# PCOD9515064 Si02
#       5
#    32  32  32  32  32
#     4  11  23  42  68 100 135 185 231 288 356 422
#     4  11  23  39  65 101 144 180 228 291 354 426
#     4  10  22  42  66  98 134 179 230 291 343 414
#     4  10  20  39  64  98 136 174 227 282 348 420
#     4  12  23  41  69  99 139 184 235 285 353 423
#
# _framework density 22.843329000000001
#
# number of rings (size 3 to 8) (size 9 to 14) (size 15 to 20)
#    0.000    1.200    2.000    6.600    0.000    0.800 
#    0.000    1.000    0.000    0.000    0.000    0.000 
#    0.000    0.000    0.000    0.000    0.000    0.000 
#
# Total GULP energy -223425.226326 kJ/mol
# GULP energy per Si atom -5585.630658 kJ/mol
# Density = 2.279134 g / cm^3
# Si number density = 22.843329 Si / 1000 Ang^3
#
#
#
# Elastic Constant Matrix: (Units=GPa)
#
#
# Indices 1 2 3 4 5 6 
#
# 1 195.4459 49.0437 16.3780 0.0000 0.0000 0.0000
# 2 49.0437 81.6976 47.0543 0.0000 0.0000 0.0000
# 3 16.3780 47.0543 98.4783 0.0000 0.0000 0.0000
# 4 0.0000 0.0000 0.0000 16.0914 0.0000 0.0000
# 5 0.0000 0.0000 0.0000 0.0000 18.2803 0.0000
# 6 0.0000 0.0000 0.0000 0.0000 0.0000 40.0260
#
#
#
# Elastic Compliance Matrix: (Units=1/GPa)
#
#
# Indices 1 2 3 4 5 6 
#
# 1 0.006096 -0.004244 0.001014 0.000000 0.000000 0.000000
# 2 -0.004244 0.019842 -0.008775 0.000000 0.000000 0.000000
# 3 0.001014 -0.008775 0.014179 0.000000 0.000000 0.000000
# 4 0.000000 0.000000 0.000000 0.062145 0.000000 0.000000
# 5 0.000000 0.000000 0.000000 0.000000 0.054704 0.000000
# 6 0.000000 0.000000 0.000000 0.000000 0.000000 0.024984
#
#
# Mechanical properties :
#
#
# Convention : Reuss Voigt Hill
#
# Bulk Modulus (GPa) = 62.08356 66.73043 64.40700
# Shear Modulus (GPa) = 23.65992 32.42259 28.04125
#
# Velocity S-wave (km/s) = 3.22179 3.77151 3.50744
# Velocity P-wave (km/s) = 6.40913 6.94560 6.68275
#
# Compressibility (1/GPa) = 0.01610732
#
# Stress axis : x y z
#
# Youngs Moduli (GPa) = 164.03094 50.39892 70.52841
#
# Poissons Ratio (x) = 0.21387 -0.07150
# Poissons Ratio (y) = 0.69608 0.61888
# Poissons Ratio (z) = -0.16629 0.44224
#
# Static dielectric constant tensor:
#      x y z
#    x 1.928820 0.000000 0.000000 
#    y 0.000000 1.941990 0.000000 
#    z 0.000000 0.000000 1.862260 
# 
# From -- ./inp_files/38443.got.cif
#   From: 2010.05.17/outbox.cif.g08.bks.cpg/sg70_20_cif.got.tgz:38443.got - 2010.06.03 15:57:51.
