data_PCOD9515577
_publ_section_title
;
Structure prediction by ZEFSAII (Michael W. Deem and Ramdas Pophale) SiO2 
 PCOD9515577
Probable space group: F D D D
;
_chemical_formula_sum "Si O2"
_cell_formula_units_Z 216
_cell_length_a 23.074517
_cell_length_b 30.087576
_cell_length_c 13.943541
_cell_angle_alpha 90.000000
_cell_angle_beta 90.000000
_cell_angle_gamma 90.000000
_cell_volume 9680.390959
_symmetry_space_group_name_H-M "F D D D"
_symmetry_group_IT_number 70
_space_group.IT_coordinate_system_code '2'
_symmetry_cell_setting 'orthorhombic'
loop_
_space_group_symop_operation_xyz
x,y,z
1/4-x,1/4-y,z
x,1/4-y,1/4-z
1/4-x,y,1/4-z
-x,-y,-z
3/4+x,3/4+y,-z
-x,3/4+y,3/4+z
3/4+x,-y,3/4+z
x,1/2+y,1/2+z
1/4-x,3/4-y,1/2+z
x,3/4-y,3/4-z
1/4-x,1/2+y,3/4-z
-x,1/2-y,1/2-z
3/4+x,1/4+y,1/2-z
-x,1/4+y,1/4+z
3/4+x,1/2-y,1/4+z
1/2+x,y,1/2+z
3/4-x,1/4-y,1/2+z
1/2+x,1/4-y,3/4-z
3/4-x,y,3/4-z
1/2-x,-y,1/2-z
1/4+x,3/4+y,1/2-z
1/2-x,3/4+y,1/4+z
1/4+x,-y,1/4+z
1/2+x,1/2+y,z
3/4-x,3/4-y,z
1/2+x,3/4-y,1/4-z
3/4-x,1/2+y,1/4-z
1/2-x,1/2-y,-z
1/4+x,1/4+y,-z
1/2-x,1/4+y,3/4+z
1/4+x,1/2-y,3/4+z
loop_
_atom_site_type_symbol
_atom_site_label
_atom_site_fract_x
_atom_site_fract_y
_atom_site_fract_z
Si Si1 0.965383 0.824688 0.250886
Si Si2 0.625000 0.125000 0.125000
Si Si3 0.586799 0.235488 0.406943
Si Si4 0.418900 0.929417 0.463985
Si Si5 0.506881 0.355730 0.657044
Si Si6 0.337244 0.575858 0.170299
Si Si7 0.804895 0.012260 0.891759
Si Si8 0.375000 0.651249 0.875000
O O1 0.912067 0.842727 0.309381
O O2 0.947519 0.783577 0.183762
O O3 0.983066 0.864301 0.178537
O O4 0.017985 0.818361 0.325343
O O5 0.631344 0.198394 0.446817
O O6 0.614516 0.283722 0.383560
O O7 0.547692 0.245902 0.499571
O O8 0.375000 0.920444 0.375000
O O9 0.462312 0.892360 0.504170
O O10 0.456905 0.970571 0.425966
O O11 0.516376 0.304782 0.627753
O O12 0.572141 0.373106 0.669084
O O13 0.348415 0.625000 0.125000
O O14 0.353379 0.572924 0.282226
O O15 0.875000 0.021501 0.875000
#
# Coordination Sequence:
#
# PCOD9515577 Si02
#       8
#    32   8  32  32  32  32  32  16
#     4  11  24  39  64  91 124 178 220 273 331 392
#     4  12  24  42  60  92 126 184 232 248 340 400
#     4  10  21  42  62  95 134 163 219 278 324 403
#     4   9  21  39  66  96 130 179 215 271 337 399
#     4  11  20  42  65  94 133 173 220 274 329 404
#     4  11  23  44  66  93 132 170 219 279 342 392
#     4   9  19  37  68  91 126 173 217 265 335 394
#     4  10  24  39  68  98 126 179 225 272 339 402
#
# _framework density 22.313148000000002
#
# number of rings (size 3 to 8) (size 9 to 14) (size 15 to 20)
#    0.000    2.074    1.481    3.556    2.074    0.593 
#    5.333    8.889    0.000    0.000    0.000    0.000 
#    0.000    0.000    0.000    0.000    0.000    0.000 
#
# Total GULP energy -301450.896171 kJ/mol
# GULP energy per Si atom -5582.424003 kJ/mol
# Density = 2.226236 g / cm^3
# Si number density = 22.313148 Si / 1000 Ang^3
#
#
#
# Elastic Constant Matrix: (Units=GPa)
#
#
# Indices 1 2 3 4 5 6 
#
# 1 80.5226 16.6790 28.5111 0.0000 0.0000 0.0000
# 2 16.6790 86.5760 17.7677 0.0000 0.0000 0.0000
# 3 28.5111 17.7677 71.3103 0.0000 0.0000 0.0000
# 4 0.0000 0.0000 0.0000 50.4277 0.0000 0.0000
# 5 0.0000 0.0000 0.0000 0.0000 13.9191 0.0000
# 6 0.0000 0.0000 0.0000 0.0000 0.0000 19.4218
#
#
#
# Elastic Compliance Matrix: (Units=1/GPa)
#
#
# Indices 1 2 3 4 5 6 
#
# 1 0.014704 -0.001714 -0.005452 0.000000 0.000000 0.000000
# 2 -0.001714 0.012373 -0.002398 0.000000 0.000000 0.000000
# 3 -0.005452 -0.002398 0.016800 0.000000 0.000000 0.000000
# 4 0.000000 0.000000 0.000000 0.019830 0.000000 0.000000
# 5 0.000000 0.000000 0.000000 0.000000 0.071844 0.000000
# 6 0.000000 0.000000 0.000000 0.000000 0.000000 0.051489
#
#
# Mechanical properties :
#
#
# Convention : Reuss Voigt Hill
#
# Bulk Modulus (GPa) = 40.40315 40.48051 40.44183
# Shear Modulus (GPa) = 23.31902 28.45047 25.88474
#
# Velocity S-wave (km/s) = 3.23628 3.57466 3.40967
# Velocity P-wave (km/s) = 5.66668 5.93456 5.80217
#
# Compressibility (1/GPa) = 0.02475055
#
# Stress axis : x y z
#
# Youngs Moduli (GPa) = 68.00730 80.82260 59.52239
#
# Poissons Ratio (x) = 0.13852 0.32452
# Poissons Ratio (y) = 0.11656 0.14271
# Poissons Ratio (z) = 0.37078 0.19378
#
# Static dielectric constant tensor:
#      x y z
#    x 1.898520 0.000000 0.000000 
#    y 0.000000 1.854200 0.000000 
#    z 0.000000 0.000000 1.814440 
# 
# From -- ./inp_files/29130.got.cif
#   From: 2010.05.17/outbox.cif.g08.bks.cpg/sg70_15_cif.got.tgz:29130.got - 2010.06.03 15:57:51.
