data_PCOD9515724
_publ_section_title
;
Structure prediction by ZEFSAII (Michael W. Deem and Ramdas Pophale) SiO2 
 PCOD9515724
Probable space group: F D D D
;
_chemical_formula_sum "Si O2"
_cell_formula_units_Z 120
_cell_length_a 22.170656
_cell_length_b 17.787970
_cell_length_c 15.019879
_cell_angle_alpha 90.000000
_cell_angle_beta 90.000000
_cell_angle_gamma 90.000000
_cell_volume 5923.404158
_symmetry_space_group_name_H-M "F D D D"
_symmetry_group_IT_number 70
_space_group.IT_coordinate_system_code '2'
_symmetry_cell_setting 'orthorhombic'
loop_
_space_group_symop_operation_xyz
x,y,z
1/4-x,1/4-y,z
x,1/4-y,1/4-z
1/4-x,y,1/4-z
-x,-y,-z
3/4+x,3/4+y,-z
-x,3/4+y,3/4+z
3/4+x,-y,3/4+z
x,1/2+y,1/2+z
1/4-x,3/4-y,1/2+z
x,3/4-y,3/4-z
1/4-x,1/2+y,3/4-z
-x,1/2-y,1/2-z
3/4+x,1/4+y,1/2-z
-x,1/4+y,1/4+z
3/4+x,1/2-y,1/4+z
1/2+x,y,1/2+z
3/4-x,1/4-y,1/2+z
1/2+x,1/4-y,3/4-z
3/4-x,y,3/4-z
1/2-x,-y,1/2-z
1/4+x,3/4+y,1/2-z
1/2-x,3/4+y,1/4+z
1/4+x,-y,1/4+z
1/2+x,1/2+y,z
3/4-x,3/4-y,z
1/2+x,3/4-y,1/4-z
3/4-x,1/2+y,1/4-z
1/2-x,1/2-y,-z
1/4+x,1/4+y,-z
1/2-x,1/4+y,3/4+z
1/4+x,1/2-y,3/4+z
loop_
_atom_site_type_symbol
_atom_site_label
_atom_site_fract_x
_atom_site_fract_y
_atom_site_fract_z
Si Si1 0.375000 0.375000 0.875000
Si Si2 0.027644 0.625000 0.125000
Si Si3 0.574772 0.875000 0.375000
Si Si4 0.474008 0.486954 0.902305
Si Si5 0.175462 0.365004 0.233766
Si Si6 0.875000 0.999767 0.375000
O O1 0.419603 0.430245 0.924491
O O2 0.070149 0.695021 0.102276
O O3 0.983816 0.634412 0.208361
O O4 0.527578 0.808041 0.400350
O O5 0.620270 0.908206 0.450259
O O6 0.446472 0.555412 0.842795
O O7 0.500000 0.500000 0.000000
O O8 0.150146 0.443003 0.197190
#
# Coordination Sequence:
#
# PCOD9515724 Si02
#       6
#     8  16  16  32  32  16
#     4  10  22  38  58  90 124 154 204 254 306 366
#     4  10  24  40  60  88 118 154 202 248 302 366
#     4  10  22  38  60  90 124 160 206 254 310 370
#     4  11  22  39  62  91 123 162 206 257 309 366
#     4  11  22  40  62  87 120 161 201 250 307 368
#     4  11  21  40  61  85 118 154 196 247 299 360
#
# _framework density 20.258620000000001
#
# number of rings (size 3 to 8) (size 9 to 14) (size 15 to 20)
#    0.000    1.333    0.000    6.400    0.000    2.133 
#    0.000    5.333    0.000    0.000    0.000    0.000 
#    0.000    0.000    0.000    0.000    0.000    0.000 
#
# Total GULP energy -167042.414229 kJ/mol
# GULP energy per Si atom -5568.080474 kJ/mol
# Density = 2.021251 g / cm^3
# Si number density = 20.258620 Si / 1000 Ang^3
#
#
#
# Elastic Constant Matrix: (Units=GPa)
#
#
# Indices 1 2 3 4 5 6 
#
# 1 182.1556 79.3103 63.5579 0.0000 0.0000 0.0000
# 2 79.3103 123.2383 55.4712 0.0000 0.0000 0.0000
# 3 63.5579 55.4712 97.0186 0.0000 0.0000 0.0000
# 4 0.0000 0.0000 0.0000 18.5531 0.0000 0.0000
# 5 0.0000 0.0000 0.0000 0.0000 89.4834 0.0000
# 6 0.0000 0.0000 0.0000 0.0000 0.0000 25.4954
#
#
#
# Elastic Compliance Matrix: (Units=1/GPa)
#
#
# Indices 1 2 3 4 5 6 
#
# 1 0.008310 -0.003901 -0.003213 0.000000 0.000000 0.000000
# 2 -0.003901 0.012758 -0.004739 0.000000 0.000000 0.000000
# 3 -0.003213 -0.004739 0.015122 0.000000 0.000000 0.000000
# 4 0.000000 0.000000 0.000000 0.053899 0.000000 0.000000
# 5 0.000000 0.000000 0.000000 0.000000 0.011175 0.000000
# 6 0.000000 0.000000 0.000000 0.000000 0.000000 0.039223
#
#
# Mechanical properties :
#
#
# Convention : Reuss Voigt Hill
#
# Bulk Modulus (GPa) = 80.10908 88.78792 84.44850
# Shear Modulus (GPa) = 29.69935 40.31126 35.00530
#
# Velocity S-wave (km/s) = 3.83301 4.46559 4.16134
# Velocity P-wave (km/s) = 7.69534 8.39709 8.05386
#
# Compressibility (1/GPa) = 0.01248298
#
# Stress axis : x y z
#
# Youngs Moduli (GPa) = 120.34313 78.38179 66.13070
#
# Poissons Ratio (x) = 0.30580 0.21248
# Poissons Ratio (y) = 0.46951 0.31337
# Poissons Ratio (z) = 0.38666 0.37143
#
# Static dielectric constant tensor:
#      x y z
#    x 1.781060 0.000000 0.000000 
#    y 0.000000 1.741240 0.000000 
#    z 0.000000 0.000000 1.404290 
# 
# From -- ./inp_files/26278.got.cif
#   From: 2010.05.17/outbox.cif.g08.bks.cpg/sg70_14_cif.got.tgz:26278.got - 2010.06.03 15:57:51.
