data_PCOD9515043
_publ_section_title
;
Structure prediction by ZEFSAII (Michael W. Deem and Ramdas Pophale) SiO2 
 PCOD9515043
Probable space group: F D D D
;
_chemical_formula_sum "Si O2"
_cell_formula_units_Z 240
_cell_length_a 17.946315
_cell_length_b 33.184851
_cell_length_c 21.631725
_cell_angle_alpha 90.000000
_cell_angle_beta 90.000000
_cell_angle_gamma 90.000000
_cell_volume 12882.682738
_symmetry_space_group_name_H-M "F D D D"
_symmetry_group_IT_number 70
_space_group.IT_coordinate_system_code '2'
_symmetry_cell_setting 'orthorhombic'
loop_
_space_group_symop_operation_xyz
x,y,z
1/4-x,1/4-y,z
x,1/4-y,1/4-z
1/4-x,y,1/4-z
-x,-y,-z
3/4+x,3/4+y,-z
-x,3/4+y,3/4+z
3/4+x,-y,3/4+z
x,1/2+y,1/2+z
1/4-x,3/4-y,1/2+z
x,3/4-y,3/4-z
1/4-x,1/2+y,3/4-z
-x,1/2-y,1/2-z
3/4+x,1/4+y,1/2-z
-x,1/4+y,1/4+z
3/4+x,1/2-y,1/4+z
1/2+x,y,1/2+z
3/4-x,1/4-y,1/2+z
1/2+x,1/4-y,3/4-z
3/4-x,y,3/4-z
1/2-x,-y,1/2-z
1/4+x,3/4+y,1/2-z
1/2-x,3/4+y,1/4+z
1/4+x,-y,1/4+z
1/2+x,1/2+y,z
3/4-x,3/4-y,z
1/2+x,3/4-y,1/4-z
3/4-x,1/2+y,1/4-z
1/2-x,1/2-y,-z
1/4+x,1/4+y,-z
1/2-x,1/4+y,3/4+z
1/4+x,1/2-y,3/4+z
loop_
_atom_site_type_symbol
_atom_site_label
_atom_site_fract_x
_atom_site_fract_y
_atom_site_fract_z
Si Si1 0.183460 0.225183 0.814714
Si Si2 0.688586 0.938237 0.474974
Si Si3 0.904655 0.633265 0.307862
Si Si4 0.169201 0.583782 0.485708
Si Si5 0.320470 0.490300 0.707280
Si Si6 0.573646 0.931509 0.286965
Si Si7 0.828109 0.625000 0.625000
Si Si8 0.315721 0.910861 0.658579
O O1 0.245314 0.207004 0.767518
O O2 0.204180 0.225923 0.888254
O O3 0.169800 0.271436 0.798562
O O4 0.107556 0.199214 0.812703
O O5 0.644434 0.907202 0.518718
O O6 0.713812 0.907415 0.419661
O O7 0.630762 0.972923 0.452928
O O8 0.875000 0.624822 0.375000
O O9 0.859277 0.669536 0.278202
O O10 0.990572 0.646411 0.309510
O O11 0.125000 0.625000 0.494047
O O12 0.114061 0.546239 0.489581
O O13 0.237157 0.579938 0.532608
O O14 0.198188 0.582338 0.414490
O O15 0.250000 0.500000 0.750000
O O16 0.619067 0.904125 0.334750
O O17 0.375000 0.875000 0.662445
#
# Coordination Sequence:
#
# PCOD9515043 Si02
#       8
#    32  32  32  32  32  32  16  32
#     4  11  23  41  67  92 131 176 216 273 339 395
#     4  11  23  41  66  93 131 177 222 267 335 410
#     4  11  23  37  66  95 121 166 224 269 327 403
#     4  10  22  37  60  87 125 168 210 269 331 388
#     4  11  25  39  60  97 133 166 219 275 325 396
#     4  11  22  41  63  89 128 174 215 274 339 394
#     4  10  24  42  63  91 134 176 220 274 340 398
#     4  10  20  39  61  93 126 157 214 278 330 382
#
# _framework density 18.629660000000001
#
# number of rings (size 3 to 8) (size 9 to 14) (size 15 to 20)
#    0.000    1.333    5.333    0.000    5.600    0.533 
#    0.000    1.667    0.000    3.200    0.000    0.000 
#    0.000    0.000    0.000    0.000    0.000    0.000 
#
# Total GULP energy -334592.606434 kJ/mol
# GULP energy per Si atom -5576.543441 kJ/mol
# Density = 1.858726 g / cm^3
# Si number density = 18.629660 Si / 1000 Ang^3
#
#
#
# Elastic Constant Matrix: (Units=GPa)
#
#
# Indices 1 2 3 4 5 6 
#
# 1 77.6449 37.4465 17.7764 0.0000 0.0000 0.0000
# 2 37.4465 111.2504 23.1412 0.0000 0.0000 0.0000
# 3 17.7764 23.1412 61.2380 0.0000 0.0000 0.0000
# 4 0.0000 0.0000 0.0000 34.0205 0.0000 0.0000
# 5 0.0000 0.0000 0.0000 0.0000 26.0197 0.0000
# 6 0.0000 0.0000 0.0000 0.0000 0.0000 17.7739
#
#
#
# Elastic Compliance Matrix: (Units=1/GPa)
#
#
# Indices 1 2 3 4 5 6 
#
# 1 0.015805 -0.004738 -0.002797 0.000000 0.000000 0.000000
# 2 -0.004738 0.011176 -0.002848 0.000000 0.000000 0.000000
# 3 -0.002797 -0.002848 0.018218 0.000000 0.000000 0.000000
# 4 0.000000 0.000000 0.000000 0.029394 0.000000 0.000000
# 5 0.000000 0.000000 0.000000 0.000000 0.038432 0.000000
# 6 0.000000 0.000000 0.000000 0.000000 0.000000 0.056262
#
#
# Mechanical properties :
#
#
# Convention : Reuss Voigt Hill
#
# Bulk Modulus (GPa) = 40.92992 45.20683 43.06838
# Shear Modulus (GPa) = 25.22734 27.01409 26.12072
#
# Velocity S-wave (km/s) = 3.68387 3.81209 3.74853
# Velocity P-wave (km/s) = 6.33344 6.61021 6.47330
#
# Compressibility (1/GPa) = 0.02443200
#
# Stress axis : x y z
#
# Youngs Moduli (GPa) = 63.27273 89.47839 54.89083
#
# Poissons Ratio (x) = 0.42394 0.15355
# Poissons Ratio (y) = 0.29978 0.15632
# Poissons Ratio (z) = 0.17700 0.25483
#
# Static dielectric constant tensor:
#      x y z
#    x 1.688490 0.000000 0.000000 
#    y 0.000000 1.632780 0.000000 
#    z 0.000000 0.000000 1.669650 
# 
# From -- ./inp_files/45283.got.cif
#   From: 2010.05.17/outbox.cif.g08.bks.cpg/sg70_23_cif.got.tgz:45283.got - 2010.06.03 15:57:51.
