data_PCOD9515436
_publ_section_title
;
Structure prediction by ZEFSAII (Michael W. Deem and Ramdas Pophale) SiO2 
 PCOD9515436
Probable space group: F D D D
;
_chemical_formula_sum "Si O2"
_cell_formula_units_Z 152
_cell_length_a 25.713530
_cell_length_b 13.525737
_cell_length_c 21.505402
_cell_angle_alpha 90.000000
_cell_angle_beta 90.000000
_cell_angle_gamma 90.000000
_cell_volume 7479.459334
_symmetry_space_group_name_H-M "F D D D"
_symmetry_group_IT_number 70
_space_group.IT_coordinate_system_code '2'
_symmetry_cell_setting 'orthorhombic'
loop_
_space_group_symop_operation_xyz
x,y,z
1/4-x,1/4-y,z
x,1/4-y,1/4-z
1/4-x,y,1/4-z
-x,-y,-z
3/4+x,3/4+y,-z
-x,3/4+y,3/4+z
3/4+x,-y,3/4+z
x,1/2+y,1/2+z
1/4-x,3/4-y,1/2+z
x,3/4-y,3/4-z
1/4-x,1/2+y,3/4-z
-x,1/2-y,1/2-z
3/4+x,1/4+y,1/2-z
-x,1/4+y,1/4+z
3/4+x,1/2-y,1/4+z
1/2+x,y,1/2+z
3/4-x,1/4-y,1/2+z
1/2+x,1/4-y,3/4-z
3/4-x,y,3/4-z
1/2-x,-y,1/2-z
1/4+x,3/4+y,1/2-z
1/2-x,3/4+y,1/4+z
1/4+x,-y,1/4+z
1/2+x,1/2+y,z
3/4-x,3/4-y,z
1/2+x,3/4-y,1/4-z
3/4-x,1/2+y,1/4-z
1/2-x,1/2-y,-z
1/4+x,1/4+y,-z
1/2-x,1/4+y,3/4+z
1/4+x,1/2-y,3/4+z
loop_
_atom_site_type_symbol
_atom_site_label
_atom_site_fract_x
_atom_site_fract_y
_atom_site_fract_z
Si Si1 0.045246 0.101987 0.727823
Si Si2 0.000626 0.625000 0.625000
Si Si3 0.186888 0.321942 0.124331
Si Si4 0.062983 0.826315 0.252664
Si Si5 0.875000 0.375000 0.875000
Si Si6 0.682528 0.356935 0.263746
O O1 0.062750 0.207221 0.756418
O O2 0.084453 0.073783 0.671480
O O3 0.985000 0.122896 0.711335
O O4 0.052284 0.008430 0.771497
O O5 0.963866 0.591441 0.568337
O O6 0.036707 0.531753 0.640058
O O7 0.125000 0.309350 0.125000
O O8 0.198450 0.398659 0.179938
O O9 0.200131 0.358247 0.054814
O O10 0.120138 0.865818 0.268577
#
# Coordination Sequence:
#
# PCOD9515436 Si02
#       6
#    32  16  32  32   8  32
#     4  11  21  36  63  94 126 154 210 251 310 370
#     4  12  23  41  60  88 125 161 200 262 302 366
#     4  10  22  40  65  88 115 162 213 249 309 372
#     4  10  21  39  63  94 121 163 200 260 314 369
#     4  12  20  34  64  92 122 170 196 250 302 392
#     4  11  22  39  64  89 124 162 206 255 313 369
#
# _framework density 20.322324999999999
#
# number of rings (size 3 to 8) (size 9 to 14) (size 15 to 20)
#    0.000    1.263    4.211    2.211    2.947    0.842 
#    0.000    0.000    0.000    0.000    0.000    0.000 
#    0.000    0.000    0.000    0.000    0.000    0.000 
#
# Total GULP energy -211937.912612 kJ/mol
# GULP energy per Si atom -5577.313490 kJ/mol
# Density = 2.027607 g / cm^3
# Si number density = 20.322325 Si / 1000 Ang^3
#
#
#
# Elastic Constant Matrix: (Units=GPa)
#
#
# Indices 1 2 3 4 5 6 
#
# 1 80.8162 25.0717 24.1366 0.0000 0.0000 0.0000
# 2 25.0717 47.0639 3.7901 0.0000 0.0000 0.0000
# 3 24.1366 3.7901 68.5758 0.0000 0.0000 0.0000
# 4 0.0000 0.0000 0.0000 16.8909 0.0000 0.0000
# 5 0.0000 0.0000 0.0000 0.0000 33.6589 0.0000
# 6 0.0000 0.0000 0.0000 0.0000 0.0000 18.7301
#
#
#
# Elastic Compliance Matrix: (Units=1/GPa)
#
#
# Indices 1 2 3 4 5 6 
#
# 1 0.016585 -0.008403 -0.005373 0.000000 0.000000 0.000000
# 2 -0.008403 0.025600 0.001543 0.000000 0.000000 0.000000
# 3 -0.005373 0.001543 0.016388 0.000000 0.000000 0.000000
# 4 0.000000 0.000000 0.000000 0.059203 0.000000 0.000000
# 5 0.000000 0.000000 0.000000 0.000000 0.029710 0.000000
# 6 0.000000 0.000000 0.000000 0.000000 0.000000 0.053390
#
#
# Mechanical properties :
#
#
# Convention : Reuss Voigt Hill
#
# Bulk Modulus (GPa) = 29.31942 33.60585 31.46263
# Shear Modulus (GPa) = 21.12276 23.41982 22.27129
#
# Velocity S-wave (km/s) = 3.22745 3.39841 3.31403
# Velocity P-wave (km/s) = 5.32420 5.65431 5.49174
#
# Compressibility (1/GPa) = 0.03410709
#
# Stress axis : x y z
#
# Youngs Moduli (GPa) = 60.29464 39.06305 61.01907
#
# Poissons Ratio (x) = 0.32823 0.32786
# Poissons Ratio (y) = 0.50663 -0.09413
# Poissons Ratio (z) = 0.32397 -0.06026
#
# Static dielectric constant tensor:
#      x y z
#    x 1.739730 0.000000 0.000000 
#    y 0.000000 1.714540 0.000000 
#    z 0.000000 0.000000 1.783700 
# 
# From -- ./inp_files/28668.got.cif
#   From: 2010.05.17/outbox.cif.g08.bks.cpg/sg70_15_cif.got.tgz:28668.got - 2010.06.03 15:57:51.
