data_PCOD9515532
_publ_section_title
;
Structure prediction by ZEFSAII (Michael W. Deem and Ramdas Pophale) SiO2 
 PCOD9515532
Probable space group: F D D D
;
_chemical_formula_sum "Si O2"
_cell_formula_units_Z 232
_cell_length_a 31.459147
_cell_length_b 21.567793
_cell_length_c 17.223914
_cell_angle_alpha 90.000000
_cell_angle_beta 90.000000
_cell_angle_gamma 90.000000
_cell_volume 11686.500925
_symmetry_space_group_name_H-M "F D D D"
_symmetry_group_IT_number 70
_space_group.IT_coordinate_system_code '2'
_symmetry_cell_setting 'orthorhombic'
loop_
_space_group_symop_operation_xyz
x,y,z
1/4-x,1/4-y,z
x,1/4-y,1/4-z
1/4-x,y,1/4-z
-x,-y,-z
3/4+x,3/4+y,-z
-x,3/4+y,3/4+z
3/4+x,-y,3/4+z
x,1/2+y,1/2+z
1/4-x,3/4-y,1/2+z
x,3/4-y,3/4-z
1/4-x,1/2+y,3/4-z
-x,1/2-y,1/2-z
3/4+x,1/4+y,1/2-z
-x,1/4+y,1/4+z
3/4+x,1/2-y,1/4+z
1/2+x,y,1/2+z
3/4-x,1/4-y,1/2+z
1/2+x,1/4-y,3/4-z
3/4-x,y,3/4-z
1/2-x,-y,1/2-z
1/4+x,3/4+y,1/2-z
1/2-x,3/4+y,1/4+z
1/4+x,-y,1/4+z
1/2+x,1/2+y,z
3/4-x,3/4-y,z
1/2+x,3/4-y,1/4-z
3/4-x,1/2+y,1/4-z
1/2-x,1/2-y,-z
1/4+x,1/4+y,-z
1/2-x,1/4+y,3/4+z
1/4+x,1/2-y,3/4+z
loop_
_atom_site_type_symbol
_atom_site_label
_atom_site_fract_x
_atom_site_fract_y
_atom_site_fract_z
Si Si1 0.510817 0.727520 0.335777
Si Si2 0.960903 0.869826 0.171560
Si Si3 0.449846 0.560196 0.426224
Si Si4 0.850241 0.755356 0.563855
Si Si5 0.919922 0.062598 0.896646
Si Si6 0.090564 0.310306 0.331575
Si Si7 0.625000 0.625000 0.625000
Si Si8 0.818387 0.469809 0.965540
O O1 0.500000 0.750000 0.250000
O O2 0.530714 0.657887 0.341886
O O3 0.463758 0.723255 0.373415
O O4 0.548124 0.774206 0.360625
O O5 0.920026 0.824468 0.176175
O O6 0.961859 0.928444 0.230594
O O7 0.001454 0.828162 0.188865
O O8 0.430870 0.531634 0.505376
O O9 0.424660 0.621695 0.398193
O O10 0.448415 0.514041 0.351990
O O11 0.866006 0.727050 0.645989
O O12 0.894695 0.750664 0.517464
O O13 0.875000 0.032411 0.875000
O O14 0.916556 0.070955 0.989797
O O15 0.093893 0.375000 0.375000
O O16 0.594790 0.582644 0.673132
#
# Coordination Sequence:
#
# PCOD9515532 Si02
#       8
#    32  32  32  32  32  32   8  32
#     4   9  21  40  63  86 122 164 208 265 323 377
#     4  11  23  40  63  95 133 167 221 274 326 389
#     4  11  23  40  63  92 139 175 214 268 337 398
#     4  12  22  39  65  96 129 168 221 278 323 399
#     4  10  21  41  62  88 124 170 208 266 329 383
#     4  11  22  38  63  94 121 165 221 266 317 395
#     4  12  20  32  60  88 120 168 218 240 318 404
#     4  12  20  37  63  90 123 178 211 257 330 401
#
# _framework density 19.851963999999999
#
# number of rings (size 3 to 8) (size 9 to 14) (size 15 to 20)
#    0.000    1.103    4.138    2.897    0.000    0.000 
#    7.448    0.000    0.000    2.069    0.000    0.000 
#    0.000    0.000    0.000    0.000    0.000    0.000 
#
# Total GULP energy -322898.752124 kJ/mol
# GULP energy per Si atom -5567.219864 kJ/mol
# Density = 1.980678 g / cm^3
# Si number density = 19.851964 Si / 1000 Ang^3
#
#
#
# Elastic Constant Matrix: (Units=GPa)
#
#
# Indices 1 2 3 4 5 6 
#
# 1 112.6360 41.1111 20.4587 0.0000 0.0000 0.0000
# 2 41.1111 64.8780 11.1596 0.0000 0.0000 0.0000
# 3 20.4587 11.1596 45.1789 0.0000 0.0000 0.0000
# 4 0.0000 0.0000 0.0000 40.8565 0.0000 0.0000
# 5 0.0000 0.0000 0.0000 0.0000 25.7949 0.0000
# 6 0.0000 0.0000 0.0000 0.0000 0.0000 39.4347
#
#
#
# Elastic Compliance Matrix: (Units=1/GPa)
#
#
# Indices 1 2 3 4 5 6 
#
# 1 0.012130 -0.007041 -0.003754 0.000000 0.000000 0.000000
# 2 -0.007041 0.020184 -0.001797 0.000000 0.000000 0.000000
# 3 -0.003754 -0.001797 0.024278 0.000000 0.000000 0.000000
# 4 0.000000 0.000000 0.000000 0.024476 0.000000 0.000000
# 5 0.000000 0.000000 0.000000 0.000000 0.038767 0.000000
# 6 0.000000 0.000000 0.000000 0.000000 0.000000 0.025358
#
#
# Mechanical properties :
#
#
# Convention : Reuss Voigt Hill
#
# Bulk Modulus (GPa) = 31.83858 40.90577 36.37217
# Shear Modulus (GPa) = 27.64780 31.21480 29.43130
#
# Velocity S-wave (km/s) = 3.73594 3.96962 3.85455
# Velocity P-wave (km/s) = 5.88918 6.45451 6.17831
#
# Compressibility (1/GPa) = 0.03140843
#
# Stress axis : x y z
#
# Youngs Moduli (GPa) = 82.44230 49.54396 41.18952
#
# Poissons Ratio (x) = 0.34882 0.15461
# Poissons Ratio (y) = 0.58044 0.07404
# Poissons Ratio (z) = 0.30946 0.08905
#
# Static dielectric constant tensor:
#      x y z
#    x 1.793430 0.000000 0.000000 
#    y 0.000000 1.719550 0.000000 
#    z 0.000000 0.000000 1.900890 
# 
# From -- ./inp_files/39979.got.cif
#   From: 2010.05.17/outbox.cif.g08.bks.cpg/sg70_20_cif.got.tgz:39979.got - 2010.06.03 15:57:51.
