data_PCOD9515866
_publ_section_title
;
Structure prediction by ZEFSAII (Michael W. Deem and Ramdas Pophale) SiO2 
 PCOD9515866
Probable space group: F D D D
;
_chemical_formula_sum "Si O2"
_cell_formula_units_Z 160
_cell_length_a 17.279990
_cell_length_b 24.978960
_cell_length_c 15.106160
_cell_angle_alpha 90.000000
_cell_angle_beta 90.000000
_cell_angle_gamma 90.000000
_cell_volume 6520.365182
_symmetry_space_group_name_H-M "F D D D"
_symmetry_group_IT_number 70
_space_group.IT_coordinate_system_code '2'
_symmetry_cell_setting 'orthorhombic'
loop_
_space_group_symop_operation_xyz
x,y,z
1/4-x,1/4-y,z
x,1/4-y,1/4-z
1/4-x,y,1/4-z
-x,-y,-z
3/4+x,3/4+y,-z
-x,3/4+y,3/4+z
3/4+x,-y,3/4+z
x,1/2+y,1/2+z
1/4-x,3/4-y,1/2+z
x,3/4-y,3/4-z
1/4-x,1/2+y,3/4-z
-x,1/2-y,1/2-z
3/4+x,1/4+y,1/2-z
-x,1/4+y,1/4+z
3/4+x,1/2-y,1/4+z
1/2+x,y,1/2+z
3/4-x,1/4-y,1/2+z
1/2+x,1/4-y,3/4-z
3/4-x,y,3/4-z
1/2-x,-y,1/2-z
1/4+x,3/4+y,1/2-z
1/2-x,3/4+y,1/4+z
1/4+x,-y,1/4+z
1/2+x,1/2+y,z
3/4-x,3/4-y,z
1/2+x,3/4-y,1/4-z
3/4-x,1/2+y,1/4-z
1/2-x,1/2-y,-z
1/4+x,1/4+y,-z
1/2-x,1/4+y,3/4+z
1/4+x,1/2-y,3/4+z
loop_
_atom_site_type_symbol
_atom_site_label
_atom_site_fract_x
_atom_site_fract_y
_atom_site_fract_z
Si Si1 0.785225 0.750271 0.400046
Si Si2 0.042761 0.103220 0.351913
Si Si3 0.316372 0.579038 0.731922
Si Si4 0.792087 0.765507 0.875458
Si Si5 0.758029 0.171718 0.237365
O O1 0.875000 0.733020 0.375000
O O2 0.750000 0.750000 0.500000
O O3 0.723673 0.709331 0.355533
O O4 0.778623 0.808079 0.353462
O O5 0.125000 0.125000 0.321030
O O6 0.979114 0.127464 0.287416
O O7 0.031314 0.127869 0.450365
O O8 0.273463 0.558670 0.645028
O O9 0.310716 0.526400 0.794858
O O10 0.404149 0.595082 0.720248
O O11 0.875000 0.794622 0.875000
O O12 0.763544 0.725185 0.799447
#
# Coordination Sequence:
#
# PCOD9515866 Si02
#       5
#    32  32  32  32  32
#     4  12  28  47  72 102 139 190 256 306 359 437
#     4  11  24  43  70 103 143 183 232 295 371 446
#     4   9  18  35  64  93 133 175 216 266 353 426
#     4   8  16  30  61  94 130 164 209 258 343 418
#     4  10  22  41  68  96 136 182 228 293 362 416
#
# _framework density 24.538502999999999
#
# number of rings (size 3 to 8) (size 9 to 14) (size 15 to 20)
#    0.000    2.000    0.000    4.200   14.000    0.800 
#    0.000    3.000    0.000    0.000    0.000    0.000 
#    0.000    0.000    0.000    0.000    0.000    0.000 
#
# Total GULP energy -223429.919620 kJ/mol
# GULP energy per Si atom -5585.747990 kJ/mol
# Density = 2.448265 g / cm^3
# Si number density = 24.538503 Si / 1000 Ang^3
#
#
#
# Elastic Constant Matrix: (Units=GPa)
#
#
# Indices 1 2 3 4 5 6 
#
# 1 84.8960 -3.1263 9.6336 0.0000 0.0000 0.0000
# 2 -3.1263 59.2619 15.0656 0.0000 0.0000 0.0000
# 3 9.6336 15.0656 78.5127 0.0000 0.0000 0.0000
# 4 0.0000 0.0000 0.0000 21.1686 0.0000 0.0000
# 5 0.0000 0.0000 0.0000 0.0000 18.6482 0.0000
# 6 0.0000 0.0000 0.0000 0.0000 0.0000 29.0578
#
#
#
# Elastic Compliance Matrix: (Units=1/GPa)
#
#
# Indices 1 2 3 4 5 6 
#
# 1 0.012008 0.001060 -0.001677 0.000000 0.000000 0.000000
# 2 0.001060 0.017833 -0.003552 0.000000 0.000000 0.000000
# 3 -0.001677 -0.003552 0.013624 0.000000 0.000000 0.000000
# 4 0.000000 0.000000 0.000000 0.047240 0.000000 0.000000
# 5 0.000000 0.000000 0.000000 0.000000 0.053624 0.000000
# 6 0.000000 0.000000 0.000000 0.000000 0.000000 0.034414
#
#
# Mechanical properties :
#
#
# Convention : Reuss Voigt Hill
#
# Bulk Modulus (GPa) = 28.46760 29.53515 29.00138
# Shear Modulus (GPa) = 25.15201 27.18145 26.16673
#
# Velocity S-wave (km/s) = 3.20504 3.33183 3.26905
# Velocity P-wave (km/s) = 5.03217 5.18304 5.10816
#
# Compressibility (1/GPa) = 0.03512765
#
# Stress axis : x y z
#
# Youngs Moduli (GPa) = 83.27490 56.07532 73.39927
#
# Poissons Ratio (x) = -0.05943 0.12308
# Poissons Ratio (y) = -0.08825 0.26071
# Poissons Ratio (z) = 0.13964 0.19918
#
# Static dielectric constant tensor:
#      x y z
#    x 2.100520 0.000000 0.000000 
#    y 0.000000 1.916040 0.000000 
#    z 0.000000 0.000000 2.068930 
# 
# From -- ./inp_files/35072.got.cif
#   From: 2010.05.17/outbox.cif.g08.bks.cpg/sg70_18_cif.got.tgz:35072.got - 2010.06.03 15:57:51.
