data_PCOD9515829
_publ_section_title
;
Structure prediction by ZEFSAII (Michael W. Deem and Ramdas Pophale) SiO2 
 PCOD9515829
Probable space group: F D D D
;
_chemical_formula_sum "Si O2"
_cell_formula_units_Z 176
_cell_length_a 12.150494
_cell_length_b 25.192869
_cell_length_c 25.405971
_cell_angle_alpha 90.000000
_cell_angle_beta 90.000000
_cell_angle_gamma 90.000000
_cell_volume 7776.915170
_symmetry_space_group_name_H-M "F D D D"
_symmetry_group_IT_number 70
_space_group.IT_coordinate_system_code '2'
_symmetry_cell_setting 'orthorhombic'
loop_
_space_group_symop_operation_xyz
x,y,z
1/4-x,1/4-y,z
x,1/4-y,1/4-z
1/4-x,y,1/4-z
-x,-y,-z
3/4+x,3/4+y,-z
-x,3/4+y,3/4+z
3/4+x,-y,3/4+z
x,1/2+y,1/2+z
1/4-x,3/4-y,1/2+z
x,3/4-y,3/4-z
1/4-x,1/2+y,3/4-z
-x,1/2-y,1/2-z
3/4+x,1/4+y,1/2-z
-x,1/4+y,1/4+z
3/4+x,1/2-y,1/4+z
1/2+x,y,1/2+z
3/4-x,1/4-y,1/2+z
1/2+x,1/4-y,3/4-z
3/4-x,y,3/4-z
1/2-x,-y,1/2-z
1/4+x,3/4+y,1/2-z
1/2-x,3/4+y,1/4+z
1/4+x,-y,1/4+z
1/2+x,1/2+y,z
3/4-x,3/4-y,z
1/2+x,3/4-y,1/4-z
3/4-x,1/2+y,1/4-z
1/2-x,1/2-y,-z
1/4+x,1/4+y,-z
1/2-x,1/4+y,3/4+z
1/4+x,1/2-y,3/4+z
loop_
_atom_site_type_symbol
_atom_site_label
_atom_site_fract_x
_atom_site_fract_y
_atom_site_fract_z
Si Si1 0.108069 0.564782 0.744093
Si Si2 0.930109 0.125000 0.625000
Si Si3 0.795495 0.613160 0.826780
Si Si4 0.342709 0.957460 0.078671
Si Si5 0.316326 0.726518 0.571875
Si Si6 0.386412 0.561768 0.530181
O O1 0.125000 0.625000 0.765905
O O2 0.210828 0.545806 0.708745
O O3 0.108716 0.516614 0.786598
O O4 0.995450 0.569951 0.710788
O O5 0.874658 0.174352 0.594506
O O6 0.965641 0.091468 0.572338
O O7 0.875000 0.623554 0.875000
O O8 0.746404 0.668019 0.804792
O O9 0.694463 0.578024 0.847707
O O10 0.847403 0.582578 0.778180
O O11 0.288842 0.987799 0.127456
O O12 0.394206 0.999145 0.038447
#
# Coordination Sequence:
#
# PCOD9515829 Si02
#       6
#    32  16  32  32  32  32
#     4  11  23  37  65 100 142 174 226 287 348 418
#     4  10  22  41  60  95 134 180 226 273 340 411
#     4  11  25  44  70  98 133 174 228 289 345 410
#     4  10  25  43  67  94 132 176 228 279 343 421
#     4  10  23  39  62  98 138 180 224 281 348 413
#     4  11  24  41  66  94 135 182 224 279 345 412
#
# _framework density 22.631080999999998
#
# number of rings (size 3 to 8) (size 9 to 14) (size 15 to 20)
#    0.000    1.455    1.818    1.636   10.182    2.909 
#    0.000    0.000    0.000    0.000    0.000    0.000 
#    0.000    0.000    0.000    0.000    0.000    0.000 
#
# Total GULP energy -245185.581864 kJ/mol
# GULP energy per Si atom -5572.399588 kJ/mol
# Density = 2.257957 g / cm^3
# Si number density = 22.631081 Si / 1000 Ang^3
#
#
#
# Elastic Constant Matrix: (Units=GPa)
#
#
# Indices 1 2 3 4 5 6 
#
# 1 32.7639 26.9716 8.1018 0.0000 0.0000 0.0000
# 2 26.9716 161.6391 36.3365 0.0000 0.0000 0.0000
# 3 8.1018 36.3365 92.3081 0.0000 0.0000 0.0000
# 4 0.0000 0.0000 0.0000 35.2962 0.0000 0.0000
# 5 0.0000 0.0000 0.0000 0.0000 7.1013 0.0000
# 6 0.0000 0.0000 0.0000 0.0000 0.0000 15.1399
#
#
#
# Elastic Compliance Matrix: (Units=1/GPa)
#
#
# Indices 1 2 3 4 5 6 
#
# 1 0.035443 -0.005721 -0.000859 0.000000 0.000000 0.000000
# 2 -0.005721 0.007711 -0.002533 0.000000 0.000000 0.000000
# 3 -0.000859 -0.002533 0.011906 0.000000 0.000000 0.000000
# 4 0.000000 0.000000 0.000000 0.028332 0.000000 0.000000
# 5 0.000000 0.000000 0.000000 0.000000 0.140820 0.000000
# 6 0.000000 0.000000 0.000000 0.000000 0.000000 0.066051
#
#
# Mechanical properties :
#
#
# Convention : Reuss Voigt Hill
#
# Bulk Modulus (GPa) = 27.14890 47.72566 37.43728
# Shear Modulus (GPa) = 15.58766 25.86088 20.72427
#
# Velocity S-wave (km/s) = 2.62729 3.38407 3.02941
# Velocity P-wave (km/s) = 4.60716 6.03354 5.36794
#
# Compressibility (1/GPa) = 0.03683391
#
# Stress axis : x y z
#
# Youngs Moduli (GPa) = 28.21397 129.68943 83.99257
#
# Poissons Ratio (x) = 0.74198 0.07213
# Poissons Ratio (y) = 0.16142 0.21277
# Poissons Ratio (z) = 0.02423 0.32852
#
# Static dielectric constant tensor:
#      x y z
#    x 1.880370 0.000000 0.000000 
#    y 0.000000 1.879690 0.000000 
#    z 0.000000 0.000000 1.864610 
# 
# From -- ./inp_files/57605.got.cif
#   From: 2010.05.17/outbox.cif.g08.bks.cpg/sg70_29_cif.got.tgz:57605.got - 2010.06.03 15:57:51.
