data_PCOD9515970
_publ_section_title
;
Structure prediction by ZEFSAII (Michael W. Deem and Ramdas Pophale) SiO2 
 PCOD9515970
Probable space group: F D D D
;
_chemical_formula_sum "Si O2"
_cell_formula_units_Z 136
_cell_length_a 16.559774
_cell_length_b 17.138472
_cell_length_c 21.784246
_cell_angle_alpha 90.000000
_cell_angle_beta 90.000000
_cell_angle_gamma 90.000000
_cell_volume 6182.569931
_symmetry_space_group_name_H-M "F D D D"
_symmetry_group_IT_number 70
_space_group.IT_coordinate_system_code '2'
_symmetry_cell_setting 'orthorhombic'
loop_
_space_group_symop_operation_xyz
x,y,z
1/4-x,1/4-y,z
x,1/4-y,1/4-z
1/4-x,y,1/4-z
-x,-y,-z
3/4+x,3/4+y,-z
-x,3/4+y,3/4+z
3/4+x,-y,3/4+z
x,1/2+y,1/2+z
1/4-x,3/4-y,1/2+z
x,3/4-y,3/4-z
1/4-x,1/2+y,3/4-z
-x,1/2-y,1/2-z
3/4+x,1/4+y,1/2-z
-x,1/4+y,1/4+z
3/4+x,1/2-y,1/4+z
1/2+x,y,1/2+z
3/4-x,1/4-y,1/2+z
1/2+x,1/4-y,3/4-z
3/4-x,y,3/4-z
1/2-x,-y,1/2-z
1/4+x,3/4+y,1/2-z
1/2-x,3/4+y,1/4+z
1/4+x,-y,1/4+z
1/2+x,1/2+y,z
3/4-x,3/4-y,z
1/2+x,3/4-y,1/4-z
3/4-x,1/2+y,1/4-z
1/2-x,1/2-y,-z
1/4+x,1/4+y,-z
1/2-x,1/4+y,3/4+z
1/4+x,1/2-y,3/4+z
loop_
_atom_site_type_symbol
_atom_site_label
_atom_site_fract_x
_atom_site_fract_y
_atom_site_fract_z
Si Si1 0.450404 0.155036 0.414346
Si Si2 0.125000 0.625000 0.625000
Si Si3 0.729572 0.266979 0.668338
Si Si4 0.906402 0.008931 0.614688
Si Si5 0.398513 0.618278 0.725638
O O1 0.375000 0.188189 0.375000
O O2 0.530292 0.199484 0.393467
O O3 0.424767 0.154691 0.485034
O O4 0.457993 0.065392 0.393434
O O5 0.184104 0.683770 0.663047
O O6 0.826104 0.270931 0.667519
O O7 0.698819 0.318918 0.725179
O O8 0.873086 0.060091 0.671647
O O9 0.945267 0.064835 0.562493
#
# Coordination Sequence:
#
# PCOD9515970 Si02
#       5
#    32   8  32  32  32
#     4  10  22  44  65  98 141 179 233 289 345 411
#     4  12  20  44  68  96 146 186 220 292 358 416
#     4  11  23  42  65  98 138 183 231 283 353 416
#     4  11  23  41  70 100 136 186 232 279 348 426
#     4  10  22  44  64 102 142 175 234 289 347 415
#
# _framework density 21.997325
#
# number of rings (size 3 to 8) (size 9 to 14) (size 15 to 20)
#    0.000    1.412    3.529    3.529    0.000    4.706 
#    8.471    7.059    0.000    0.000    0.000    0.000 
#    0.000    0.000    0.000    0.000    0.000    0.000 
#
# Total GULP energy -189622.988701 kJ/mol
# GULP energy per Si atom -5577.146727 kJ/mol
# Density = 2.194726 g / cm^3
# Si number density = 21.997325 Si / 1000 Ang^3
#
#
#
# Elastic Constant Matrix: (Units=GPa)
#
#
# Indices 1 2 3 4 5 6 
#
# 1 135.9924 61.0306 39.7975 0.0000 0.0000 0.0000
# 2 61.0306 105.7431 54.7166 0.0000 0.0000 0.0000
# 3 39.7975 54.7166 128.5617 0.0000 0.0000 0.0000
# 4 0.0000 0.0000 0.0000 -65.0433 0.0000 0.0000
# 5 0.0000 0.0000 0.0000 0.0000 25.5639 0.0000
# 6 0.0000 0.0000 0.0000 0.0000 0.0000 23.3649
#
#
#
# Elastic Compliance Matrix: (Units=1/GPa)
#
#
# Indices 1 2 3 4 5 6 
#
# 1 0.009991 -0.005342 -0.000819 0.000000 0.000000 0.000000
# 2 -0.005342 0.014985 -0.004724 0.000000 0.000000 0.000000
# 3 -0.000819 -0.004724 0.010042 0.000000 0.000000 0.000000
# 4 0.000000 0.000000 0.000000 -0.015374 0.000000 0.000000
# 5 0.000000 0.000000 0.000000 0.000000 0.039118 0.000000
# 6 0.000000 0.000000 0.000000 0.000000 0.000000 0.042799
#
#
# Mechanical properties :
#
#
# Convention : Reuss Voigt Hill
#
# Bulk Modulus (GPa) = 75.48671 75.70961 75.59816
# Shear Modulus (GPa) = 39.14023 11.09394 25.11708
#
# Velocity S-wave (km/s) = 4.22277 2.24817 3.38276
# Velocity P-wave (km/s) = 7.62670 6.42117 7.04975
#
# Compressibility (1/GPa) = 0.01324737
#
# Stress axis : x y z
#
# Youngs Moduli (GPa) = 100.09443 66.73524 99.57852
#
# Poissons Ratio (x) = 0.35653 0.08155
# Poissons Ratio (y) = 0.53474 0.47038
# Poissons Ratio (z) = 0.08197 0.31524
#
# Static dielectric constant tensor:
#      x y z
#    x 1.865970 0.000000 0.000000 
#    y 0.000000 1.886270 0.000000 
#    z 0.000000 0.000000 1.819260 
# 
# From -- ./inp_files/51020.got.cif
#   From: 2010.05.17/outbox.cif.g08.bks.cpg/sg70_26_cif.got.tgz:51020.got - 2010.06.03 15:57:51.
