data_PCOD9515718
_publ_section_title
;
Structure prediction by ZEFSAII (Michael W. Deem and Ramdas Pophale) SiO2 
 PCOD9515718
Probable space group: F D D D
;
_chemical_formula_sum "Si O2"
_cell_formula_units_Z 160
_cell_length_a 12.252283
_cell_length_b 24.199027
_cell_length_c 23.993332
_cell_angle_alpha 90.000000
_cell_angle_beta 90.000000
_cell_angle_gamma 90.000000
_cell_volume 7113.862834
_symmetry_space_group_name_H-M "F D D D"
_symmetry_group_IT_number 70
_space_group.IT_coordinate_system_code '2'
_symmetry_cell_setting 'orthorhombic'
loop_
_space_group_symop_operation_xyz
x,y,z
1/4-x,1/4-y,z
x,1/4-y,1/4-z
1/4-x,y,1/4-z
-x,-y,-z
3/4+x,3/4+y,-z
-x,3/4+y,3/4+z
3/4+x,-y,3/4+z
x,1/2+y,1/2+z
1/4-x,3/4-y,1/2+z
x,3/4-y,3/4-z
1/4-x,1/2+y,3/4-z
-x,1/2-y,1/2-z
3/4+x,1/4+y,1/2-z
-x,1/4+y,1/4+z
3/4+x,1/2-y,1/4+z
1/2+x,y,1/2+z
3/4-x,1/4-y,1/2+z
1/2+x,1/4-y,3/4-z
3/4-x,y,3/4-z
1/2-x,-y,1/2-z
1/4+x,3/4+y,1/2-z
1/2-x,3/4+y,1/4+z
1/4+x,-y,1/4+z
1/2+x,1/2+y,z
3/4-x,3/4-y,z
1/2+x,3/4-y,1/4-z
3/4-x,1/2+y,1/4-z
1/2-x,1/2-y,-z
1/4+x,1/4+y,-z
1/2-x,1/4+y,3/4+z
1/4+x,1/2-y,3/4+z
loop_
_atom_site_type_symbol
_atom_site_label
_atom_site_fract_x
_atom_site_fract_y
_atom_site_fract_z
Si Si1 0.375000 0.112116 0.375000
Si Si2 0.861711 0.144717 0.495843
Si Si3 0.991550 0.567782 0.160622
Si Si4 0.311866 0.307474 0.498845
Si Si5 0.375000 0.375000 0.035370
Si Si6 0.570965 0.199933 0.370410
O O1 0.375959 0.081168 0.433602
O O2 0.474122 0.155399 0.373323
O O3 0.888631 0.183126 0.547482
O O4 0.739001 0.120494 0.497832
O O5 0.961291 0.100594 0.502266
O O6 0.990997 0.625000 0.125000
O O7 0.975494 0.511689 0.125759
O O8 0.100273 0.563223 0.199335
O O9 0.250000 0.250000 0.500000
O O10 0.371357 0.309438 0.559246
O O11 0.363760 0.320963 0.075580
#
# Coordination Sequence:
#
# PCOD9515718 Si02
#       6
#    16  32  32  32  16  32
#     4   8  18  38  61  88 126 175 222 272 334 408
#     4  10  22  37  66  93 129 176 231 285 340 411
#     4  12  26  42  68 106 141 174 232 302 367 414
#     4  11  23  39  64  99 140 180 223 288 361 415
#     4  10  22  44  67  86 137 190 240 278 338 432
#     4  10  22  39  62  96 134 181 225 279 348 426
#
# _framework density 22.491296999999999
#
# number of rings (size 3 to 8) (size 9 to 14) (size 15 to 20)
#    0.000    1.600    0.000    5.400    8.400    7.200 
#    0.000    0.500    0.000    0.000    0.000    0.000 
#    0.000    0.000    0.000    0.000    0.000    0.000 
#
# Total GULP energy -223103.421363 kJ/mol
# GULP energy per Si atom -5577.585534 kJ/mol
# Density = 2.244011 g / cm^3
# Si number density = 22.491297 Si / 1000 Ang^3
#
#
#
# Elastic Constant Matrix: (Units=GPa)
#
#
# Indices 1 2 3 4 5 6 
#
# 1 131.1023 38.6244 50.9988 0.0000 0.0000 0.0000
# 2 38.6244 98.5113 37.6145 0.0000 0.0000 0.0000
# 3 50.9988 37.6145 141.6441 0.0000 0.0000 0.0000
# 4 0.0000 0.0000 0.0000 24.3483 0.0000 0.0000
# 5 0.0000 0.0000 0.0000 0.0000 34.1676 0.0000
# 6 0.0000 0.0000 0.0000 0.0000 0.0000 24.1243
#
#
#
# Elastic Compliance Matrix: (Units=1/GPa)
#
#
# Indices 1 2 3 4 5 6 
#
# 1 0.009467 -0.002682 -0.002696 0.000000 0.000000 0.000000
# 2 -0.002682 0.012057 -0.002236 0.000000 0.000000 0.000000
# 3 -0.002696 -0.002236 0.008624 0.000000 0.000000 0.000000
# 4 0.000000 0.000000 0.000000 0.041071 0.000000 0.000000
# 5 0.000000 0.000000 0.000000 0.000000 0.029268 0.000000
# 6 0.000000 0.000000 0.000000 0.000000 0.000000 0.041452
#
#
# Mechanical properties :
#
#
# Convention : Reuss Voigt Hill
#
# Bulk Modulus (GPa) = 67.02886 69.52590 68.27738
# Shear Modulus (GPa) = 30.83765 32.79603 31.81684
#
# Velocity S-wave (km/s) = 3.70684 3.82274 3.76524
# Velocity P-wave (km/s) = 6.94174 7.10379 7.02323
#
# Compressibility (1/GPa) = 0.01491895
#
# Stress axis : x y z
#
# Youngs Moduli (GPa) = 105.63382 82.94269 115.94902
#
# Poissons Ratio (x) = 0.22247 0.31262
# Poissons Ratio (y) = 0.28333 0.25926
# Poissons Ratio (z) = 0.28481 0.18546
#
# Static dielectric constant tensor:
#      x y z
#    x 1.905390 0.000000 0.000000 
#    y 0.000000 1.854640 0.000000 
#    z 0.000000 0.000000 2.036670 
# 
# From -- ./inp_files/57562.got.cif
#   From: 2010.05.17/outbox.cif.g08.bks.cpg/sg70_29_cif.got.tgz:57562.got - 2010.06.03 15:57:51.
