data_PCOD9515888
_publ_section_title
;
Structure prediction by ZEFSAII (Michael W. Deem and Ramdas Pophale) SiO2 
 PCOD9515888
Probable space group: F D D D
;
_chemical_formula_sum "Si O2"
_cell_formula_units_Z 192
_cell_length_a 22.155010
_cell_length_b 18.167605
_cell_length_c 21.531165
_cell_angle_alpha 90.000000
_cell_angle_beta 90.000000
_cell_angle_gamma 90.000000
_cell_volume 8666.368635
_symmetry_space_group_name_H-M "F D D D"
_symmetry_group_IT_number 70
_space_group.IT_coordinate_system_code '2'
_symmetry_cell_setting 'orthorhombic'
loop_
_space_group_symop_operation_xyz
x,y,z
1/4-x,1/4-y,z
x,1/4-y,1/4-z
1/4-x,y,1/4-z
-x,-y,-z
3/4+x,3/4+y,-z
-x,3/4+y,3/4+z
3/4+x,-y,3/4+z
x,1/2+y,1/2+z
1/4-x,3/4-y,1/2+z
x,3/4-y,3/4-z
1/4-x,1/2+y,3/4-z
-x,1/2-y,1/2-z
3/4+x,1/4+y,1/2-z
-x,1/4+y,1/4+z
3/4+x,1/2-y,1/4+z
1/2+x,y,1/2+z
3/4-x,1/4-y,1/2+z
1/2+x,1/4-y,3/4-z
3/4-x,y,3/4-z
1/2-x,-y,1/2-z
1/4+x,3/4+y,1/2-z
1/2-x,3/4+y,1/4+z
1/4+x,-y,1/4+z
1/2+x,1/2+y,z
3/4-x,3/4-y,z
1/2+x,3/4-y,1/4-z
3/4-x,1/2+y,1/4-z
1/2-x,1/2-y,-z
1/4+x,1/4+y,-z
1/2-x,1/4+y,3/4+z
1/4+x,1/2-y,3/4+z
loop_
_atom_site_type_symbol
_atom_site_label
_atom_site_fract_x
_atom_site_fract_y
_atom_site_fract_z
Si Si1 0.892283 0.271360 0.446471
Si Si2 0.375000 0.375000 0.235623
Si Si3 0.442211 0.776017 0.634062
Si Si4 0.665593 0.866297 0.013124
Si Si5 0.453658 0.369213 0.731306
Si Si6 0.679328 0.230045 0.169719
Si Si7 0.631843 0.875000 0.875000
O O1 0.875000 0.282374 0.375000
O O2 0.888029 0.186098 0.463655
O O3 0.841420 0.309838 0.489894
O O4 0.952296 0.314290 0.467388
O O5 0.413843 0.316498 0.194390
O O6 0.324699 0.332778 0.277611
O O7 0.434833 0.837885 0.580700
O O8 0.511163 0.747889 0.621342
O O9 0.405668 0.700708 0.624995
O O10 0.666705 0.873008 0.939463
O O11 0.731227 0.835417 0.031597
O O12 0.662645 0.944628 0.045315
O O13 0.625000 0.211026 0.125000
#
# Coordination Sequence:
#
# PCOD9515888 Si02
#       7
#    32  16  32  32  32  32  16
#     4  11  22  40  64  95 135 181 227 282 353 421
#     4  12  25  50  76 110 145 200 244 304 376 430
#     4  11  26  47  75 102 147 187 241 305 357 441
#     4  11  24  43  64 100 137 181 237 289 349 429
#     4  10  22  42  63  98 135 182 231 285 353 421
#     4  11  27  49  72 109 143 190 246 300 369 436
#     4  12  24  44  69 101 138 188 238 292 356 432
#
# _framework density 22.154608
#
# number of rings (size 3 to 8) (size 9 to 14) (size 15 to 20)
#    0.000    1.000    3.333    3.250    4.667    2.000 
#   12.000    0.000    0.000    0.000    0.000    0.000 
#    0.000    0.000    0.000    0.000    0.000    0.000 
#
# Total GULP energy -267746.358445 kJ/mol
# GULP energy per Si atom -5578.049134 kJ/mol
# Density = 2.210418 g / cm^3
# Si number density = 22.154608 Si / 1000 Ang^3
#
#
#
# Elastic Constant Matrix: (Units=GPa)
#
#
# Indices 1 2 3 4 5 6 
#
# 1 84.1523 36.7896 28.7864 0.0000 0.0000 0.0000
# 2 36.7896 100.7312 6.4120 0.0000 0.0000 0.0000
# 3 28.7864 6.4120 81.1010 0.0000 0.0000 0.0000
# 4 0.0000 0.0000 0.0000 19.2845 0.0000 0.0000
# 5 0.0000 0.0000 0.0000 0.0000 8.7139 0.0000
# 6 0.0000 0.0000 0.0000 0.0000 0.0000 19.6195
#
#
#
# Elastic Compliance Matrix: (Units=1/GPa)
#
#
# Indices 1 2 3 4 5 6 
#
# 1 0.016116 -0.005550 -0.005282 0.000000 0.000000 0.000000
# 2 -0.005550 0.011889 0.001030 0.000000 0.000000 0.000000
# 3 -0.005282 0.001030 0.014124 0.000000 0.000000 0.000000
# 4 0.000000 0.000000 0.000000 0.051855 0.000000 0.000000
# 5 0.000000 0.000000 0.000000 0.000000 0.114759 0.000000
# 6 0.000000 0.000000 0.000000 0.000000 0.000000 0.050970
#
#
# Mechanical properties :
#
#
# Convention : Reuss Voigt Hill
#
# Bulk Modulus (GPa) = 44.39402 45.55116 44.97259
# Shear Modulus (GPa) = 17.43232 22.45669 19.94450
#
# Velocity S-wave (km/s) = 2.80812 3.18722 3.00366
# Velocity P-wave (km/s) = 5.53135 5.84377 5.68971
#
# Compressibility (1/GPa) = 0.02252556
#
# Stress axis : x y z
#
# Youngs Moduli (GPa) = 62.04943 84.11286 70.80372
#
# Poissons Ratio (x) = 0.46681 0.37396
# Poissons Ratio (y) = 0.34436 -0.07292
# Poissons Ratio (z) = 0.32772 -0.08663
#
# Static dielectric constant tensor:
#      x y z
#    x 1.927470 0.000000 0.000000 
#    y 0.000000 2.104560 0.000000 
#    z 0.000000 0.000000 1.817790 
# 
# From -- ./inp_files/45966.got.cif
#   From: 2010.05.17/outbox.cif.g08.bks.cpg/sg70_23_cif.got.tgz:45966.got - 2010.06.03 15:57:51.
