data_PCOD9515671
_publ_section_title
;
Structure prediction by ZEFSAII (Michael W. Deem and Ramdas Pophale) SiO2 
 PCOD9515671
Probable space group: F D D D
;
_chemical_formula_sum "Si O2"
_cell_formula_units_Z 120
_cell_length_a 16.713829
_cell_length_b 11.639990
_cell_length_c 24.477696
_cell_angle_alpha 90.000000
_cell_angle_beta 90.000000
_cell_angle_gamma 90.000000
_cell_volume 4762.106443
_symmetry_space_group_name_H-M "F D D D"
_symmetry_group_IT_number 70
_space_group.IT_coordinate_system_code '2'
_symmetry_cell_setting 'orthorhombic'
loop_
_space_group_symop_operation_xyz
x,y,z
1/4-x,1/4-y,z
x,1/4-y,1/4-z
1/4-x,y,1/4-z
-x,-y,-z
3/4+x,3/4+y,-z
-x,3/4+y,3/4+z
3/4+x,-y,3/4+z
x,1/2+y,1/2+z
1/4-x,3/4-y,1/2+z
x,3/4-y,3/4-z
1/4-x,1/2+y,3/4-z
-x,1/2-y,1/2-z
3/4+x,1/4+y,1/2-z
-x,1/4+y,1/4+z
3/4+x,1/2-y,1/4+z
1/2+x,y,1/2+z
3/4-x,1/4-y,1/2+z
1/2+x,1/4-y,3/4-z
3/4-x,y,3/4-z
1/2-x,-y,1/2-z
1/4+x,3/4+y,1/2-z
1/2-x,3/4+y,1/4+z
1/4+x,-y,1/4+z
1/2+x,1/2+y,z
3/4-x,3/4-y,z
1/2+x,3/4-y,1/4-z
3/4-x,1/2+y,1/4-z
1/2-x,1/2-y,-z
1/4+x,1/4+y,-z
1/2-x,1/4+y,3/4+z
1/4+x,1/2-y,3/4+z
loop_
_atom_site_type_symbol
_atom_site_label
_atom_site_fract_x
_atom_site_fract_y
_atom_site_fract_z
Si Si1 0.793577 0.580308 0.811411
Si Si2 0.800566 0.748228 0.121326
Si Si3 0.345386 0.752199 0.502385
Si Si4 0.125000 0.625000 0.125000
Si Si5 0.625000 0.125000 0.960640
O O1 0.763300 0.652561 0.865320
O O2 0.863319 0.649099 0.779980
O O3 0.824442 0.460639 0.836019
O O4 0.784647 0.401890 0.728502
O O5 0.760189 0.625000 0.125000
O O6 0.855290 0.752333 0.067885
O O7 0.859785 0.764343 0.172305
O O8 0.375000 0.875000 0.480905
O O9 0.250000 0.750000 0.500000
#
# Coordination Sequence:
#
# PCOD9515671 Si02
#       5
#    32  32  32   8  16
#     4  10  24  43  74 110 146 212 255 320 395 470
#     4  10  21  45  78 105 153 206 255 322 400 458
#     4  12  24  45  76 113 151 195 272 327 385 473
#     4  12  24  44  72 116 172 202 268 322 410 468
#     4   8  22  44  73 104 149 209 244 314 405 454
#
# _framework density 25.198933
#
# number of rings (size 3 to 8) (size 9 to 14) (size 15 to 20)
#    1.600    0.000    1.333    3.200    1.867    0.000 
#    0.000    5.333    0.000    0.000    0.000    0.000 
#    0.000    0.000    0.000    0.000    0.000    0.000 
#
# Total GULP energy -167132.953450 kJ/mol
# GULP energy per Si atom -5571.098448 kJ/mol
# Density = 2.514158 g / cm^3
# Si number density = 25.198933 Si / 1000 Ang^3
#
#
#
# Elastic Constant Matrix: (Units=GPa)
#
#
# Indices 1 2 3 4 5 6 
#
# 1 183.2288 75.2210 39.3278 0.0000 0.0000 0.0000
# 2 75.2210 202.7602 53.7574 0.0000 0.0000 0.0000
# 3 39.3278 53.7574 103.0453 0.0000 0.0000 0.0000
# 4 0.0000 0.0000 0.0000 37.4409 0.0000 0.0000
# 5 0.0000 0.0000 0.0000 0.0000 52.7997 0.0000
# 6 0.0000 0.0000 0.0000 0.0000 0.0000 53.0425
#
#
#
# Elastic Compliance Matrix: (Units=1/GPa)
#
#
# Indices 1 2 3 4 5 6 
#
# 1 0.006619 -0.002072 -0.001445 0.000000 0.000000 0.000000
# 2 -0.002072 0.006372 -0.002534 0.000000 0.000000 0.000000
# 3 -0.001445 -0.002534 0.011578 0.000000 0.000000 0.000000
# 4 0.000000 0.000000 0.000000 0.026709 0.000000 0.000000
# 5 0.000000 0.000000 0.000000 0.000000 0.018939 0.000000
# 6 0.000000 0.000000 0.000000 0.000000 0.000000 0.018853
#
#
# Mechanical properties :
#
#
# Convention : Reuss Voigt Hill
#
# Bulk Modulus (GPa) = 80.21072 91.73853 85.97462
# Shear Modulus (GPa) = 47.47130 50.03850 48.75490
#
# Velocity S-wave (km/s) = 4.34506 4.46100 4.40341
# Velocity P-wave (km/s) = 7.55465 7.93843 7.74892
#
# Compressibility (1/GPa) = 0.01246716
#
# Stress axis : x y z
#
# Youngs Moduli (GPa) = 151.09103 156.92612 86.37344
#
# Poissons Ratio (x) = 0.32520 0.12480
# Poissons Ratio (y) = 0.31310 0.21883
# Poissons Ratio (z) = 0.21831 0.39757
#
# Static dielectric constant tensor:
#      x y z
#    x 2.625520 0.000000 0.000000 
#    y 0.000000 2.053940 0.000000 
#    z 0.000000 0.000000 2.516690 
# 
# From -- ./inp_files/59237.got.cif
#   From: 2010.05.17/outbox.cif.g08.bks.cpg/sg70_30_cif.got.tgz:59237.got - 2010.06.03 15:57:51.
