data_PCOD9515301
_publ_section_title
;
Structure prediction by ZEFSAII (Michael W. Deem and Ramdas Pophale) SiO2 
 PCOD9515301
Probable space group: F D D D
;
_chemical_formula_sum "Si O2"
_cell_formula_units_Z 144
_cell_length_a 27.026652
_cell_length_b 7.989065
_cell_length_c 35.880227
_cell_angle_alpha 90.000000
_cell_angle_beta 90.000000
_cell_angle_gamma 90.000000
_cell_volume 7747.175356
_symmetry_space_group_name_H-M "F D D D"
_symmetry_group_IT_number 70
_space_group.IT_coordinate_system_code '2'
_symmetry_cell_setting 'orthorhombic'
loop_
_space_group_symop_operation_xyz
x,y,z
1/4-x,1/4-y,z
x,1/4-y,1/4-z
1/4-x,y,1/4-z
-x,-y,-z
3/4+x,3/4+y,-z
-x,3/4+y,3/4+z
3/4+x,-y,3/4+z
x,1/2+y,1/2+z
1/4-x,3/4-y,1/2+z
x,3/4-y,3/4-z
1/4-x,1/2+y,3/4-z
-x,1/2-y,1/2-z
3/4+x,1/4+y,1/2-z
-x,1/4+y,1/4+z
3/4+x,1/2-y,1/4+z
1/2+x,y,1/2+z
3/4-x,1/4-y,1/2+z
1/2+x,1/4-y,3/4-z
3/4-x,y,3/4-z
1/2-x,-y,1/2-z
1/4+x,3/4+y,1/2-z
1/2-x,3/4+y,1/4+z
1/4+x,-y,1/4+z
1/2+x,1/2+y,z
3/4-x,3/4-y,z
1/2+x,3/4-y,1/4-z
3/4-x,1/2+y,1/4-z
1/2-x,1/2-y,-z
1/4+x,1/4+y,-z
1/2-x,1/4+y,3/4+z
1/4+x,1/2-y,3/4+z
loop_
_atom_site_type_symbol
_atom_site_label
_atom_site_fract_x
_atom_site_fract_y
_atom_site_fract_z
Si Si1 0.320862 0.832493 0.742748
Si Si2 0.216264 0.125000 0.625000
Si Si3 0.273132 0.112052 0.548317
Si Si4 0.125000 0.873281 0.125000
Si Si5 0.194301 0.541028 0.760230
Si Si6 0.125000 0.125000 0.192721
O O1 0.375000 0.875000 0.758874
O O2 0.276574 0.845549 0.772754
O O3 0.325899 0.641408 0.728193
O O4 0.304210 0.973334 0.713104
O O5 0.251544 0.125411 0.589372
O O6 0.176799 0.275752 0.627188
O O7 0.304974 0.945027 0.539040
O O8 0.121139 0.973476 0.163794
O O9 0.250000 0.500000 0.750000
O O10 0.169483 0.601611 0.721747
#
# Coordination Sequence:
#
# PCOD9515301 Si02
#       6
#    32  16  32  16  32  16
#     4  10  21  37  65  90 118 157 214 257 308 368
#     4  11  24  40  58  90 132 164 206 248 326 387
#     4  10  23  38  60  92 123 164 206 258 310 372
#     4  10  24  36  62  92 134 166 182 264 330 390
#     4  10  21  36  60  89 121 160 206 255 299 370
#     4  11  22  40  60  98 128 156 212 252 330 382
#
# _framework density 18.587420000000002
#
# number of rings (size 3 to 8) (size 9 to 14) (size 15 to 20)
#    0.000    1.778    0.000    4.000   15.556    0.000 
#    0.000    0.000    7.333    0.000    0.000    0.000 
#    0.000    0.000    0.000    0.000    0.000    0.000 
#
# Total GULP energy -200587.933813 kJ/mol
# GULP energy per Si atom -5571.887050 kJ/mol
# Density = 1.854511 g / cm^3
# Si number density = 18.587420 Si / 1000 Ang^3
#
#
#
# Elastic Constant Matrix: (Units=GPa)
#
#
# Indices 1 2 3 4 5 6 
#
# 1 77.9917 35.0365 35.1431 0.0000 0.0001 0.0005
# 2 35.0365 144.4147 67.1187 0.0001 0.0001 -0.0051
# 3 35.1431 67.1187 111.5793 0.0001 -0.0001 -0.0002
# 4 0.0000 0.0001 0.0001 16.9681 0.0001 0.0000
# 5 0.0001 0.0001 -0.0001 0.0001 32.7246 -0.0001
# 6 0.0005 -0.0051 -0.0002 0.0000 -0.0001 19.7559
#
#
#
# Elastic Compliance Matrix: (Units=1/GPa)
#
#
# Indices 1 2 3 4 5 6 
#
# 1 0.015369 -0.002053 -0.003606 0.000000 0.000000 -0.000001
# 2 -0.002053 0.009886 -0.005300 0.000000 0.000000 0.000003
# 3 -0.003606 -0.005300 0.013286 0.000000 0.000000 -0.000001
# 4 0.000000 0.000000 0.000000 0.058934 0.000000 0.000000
# 5 0.000000 0.000000 0.000000 0.000000 0.030558 0.000000
# 6 -0.000001 0.000003 -0.000001 0.000000 0.000000 0.050618
#
#
# Mechanical properties :
#
#
# Convention : Reuss Voigt Hill
#
# Bulk Modulus (GPa) = 60.15605 67.62026 63.88815
# Shear Modulus (GPa) = 24.25902 27.00223 25.63062
#
# Velocity S-wave (km/s) = 3.61658 3.81559 3.71741
# Velocity P-wave (km/s) = 7.06213 7.47463 7.27131
#
# Compressibility (1/GPa) = 0.01662343
#
# Stress axis : x y z
#
# Youngs Moduli (GPa) = 65.06679 101.15482 75.26664
#
# Poissons Ratio (x) = 0.20765 0.27139
# Poissons Ratio (y) = 0.13357 0.39892
# Poissons Ratio (z) = 0.23461 0.53613
#
# Static dielectric constant tensor:
#      x y z
#    x 1.622320 0.000000 0.000000 
#    y 0.000000 1.737340 0.000000 
#    z 0.000000 0.000000 1.596320 
# 
# From -- ./inp_files/68821.got.cif
#   From: 2010.05.17/outbox.cif.g08.bks.cpg/sg70_35_cif.got.tgz:68821.got - 2010.06.03 15:57:51.
