data_PCOD9515058
_publ_section_title
;
Structure prediction by ZEFSAII (Michael W. Deem and Ramdas Pophale) SiO2 
 PCOD9515058
Probable space group: F D D D
;
_chemical_formula_sum "Si O2"
_cell_formula_units_Z 96
_cell_length_a 24.470813
_cell_length_b 13.486433
_cell_length_c 11.582280
_cell_angle_alpha 90.000000
_cell_angle_beta 90.000000
_cell_angle_gamma 90.000000
_cell_volume 3822.430143
_symmetry_space_group_name_H-M "F D D D"
_symmetry_group_IT_number 70
_space_group.IT_coordinate_system_code '2'
_symmetry_cell_setting 'orthorhombic'
loop_
_space_group_symop_operation_xyz
x,y,z
1/4-x,1/4-y,z
x,1/4-y,1/4-z
1/4-x,y,1/4-z
-x,-y,-z
3/4+x,3/4+y,-z
-x,3/4+y,3/4+z
3/4+x,-y,3/4+z
x,1/2+y,1/2+z
1/4-x,3/4-y,1/2+z
x,3/4-y,3/4-z
1/4-x,1/2+y,3/4-z
-x,1/2-y,1/2-z
3/4+x,1/4+y,1/2-z
-x,1/4+y,1/4+z
3/4+x,1/2-y,1/4+z
1/2+x,y,1/2+z
3/4-x,1/4-y,1/2+z
1/2+x,1/4-y,3/4-z
3/4-x,y,3/4-z
1/2-x,-y,1/2-z
1/4+x,3/4+y,1/2-z
1/2-x,3/4+y,1/4+z
1/4+x,-y,1/4+z
1/2+x,1/2+y,z
3/4-x,3/4-y,z
1/2+x,3/4-y,1/4-z
3/4-x,1/2+y,1/4-z
1/2-x,1/2-y,-z
1/4+x,1/4+y,-z
1/2-x,1/4+y,3/4+z
1/4+x,1/2-y,3/4+z
loop_
_atom_site_type_symbol
_atom_site_label
_atom_site_fract_x
_atom_site_fract_y
_atom_site_fract_z
Si Si1 0.328891 0.697766 0.737039
Si Si2 0.054349 0.986034 0.423712
Si Si3 0.255363 0.416912 0.651579
O O1 0.330454 0.625000 0.625000
O O2 0.388033 0.747110 0.739425
O O3 0.282671 0.779015 0.707219
O O4 0.305047 0.631773 0.841412
O O5 0.053346 0.875000 0.375000
O O6 0.000000 0.000000 0.500000
O O7 0.047833 0.075542 0.330855
O O8 0.250000 0.500000 0.750000
#
# Coordination Sequence:
#
# PCOD9515058 Si02
#       3
#    32  32  32
#     4   9  20  38  62  91 122 158 207 260 312 372
#     4  11  23  39  59  89 127 164 203 257 321 380
#     4  10  20  39  64  88 120 166 215 263 315 381
#
# _framework density 25.114913999999999
#
# number of rings (size 3 to 8) (size 9 to 14) (size 15 to 20)
#    0.000    2.000    0.000    3.000    0.000    1.333 
#    0.000    8.333    0.000   36.000    0.000    0.000 
#    0.000    0.000    0.000    0.000    0.000    0.000 
#
# Total GULP energy -133805.055098 kJ/mol
# GULP energy per Si atom -5575.210629 kJ/mol
# Density = 2.505775 g / cm^3
# Si number density = 25.114914 Si / 1000 Ang^3
#
#
#
# Elastic Constant Matrix: (Units=GPa)
#
#
# Indices 1 2 3 4 5 6 
#
# 1 226.8664 60.6352 57.3902 0.0000 0.0000 0.0000
# 2 60.6352 160.3235 33.6797 0.0000 0.0000 0.0000
# 3 57.3902 33.6797 51.2675 0.0000 0.0000 0.0000
# 4 0.0000 0.0000 0.0000 58.5030 0.0000 0.0000
# 5 0.0000 0.0000 0.0000 0.0000 45.5521 0.0000
# 6 0.0000 0.0000 0.0000 0.0000 0.0000 47.7522
#
#
#
# Elastic Compliance Matrix: (Units=1/GPa)
#
#
# Indices 1 2 3 4 5 6 
#
# 1 0.006297 -0.001045 -0.006362 0.000000 0.000000 0.000000
# 2 -0.001045 0.007409 -0.003698 0.000000 0.000000 0.000000
# 3 -0.006362 -0.003698 0.029057 0.000000 0.000000 0.000000
# 4 0.000000 0.000000 0.000000 0.017093 0.000000 0.000000
# 5 0.000000 0.000000 0.000000 0.000000 0.021953 0.000000
# 6 0.000000 0.000000 0.000000 0.000000 0.000000 0.020941
#
#
# Mechanical properties :
#
#
# Convention : Reuss Voigt Hill
#
# Bulk Modulus (GPa) = 48.65475 82.42973 65.54224
# Shear Modulus (GPa) = 37.93314 49.47828 43.70571
#
# Velocity S-wave (km/s) = 3.89058 4.44337 4.17613
# Velocity P-wave (km/s) = 6.29262 7.69526 7.02901
#
# Compressibility (1/GPa) = 0.02055298
#
# Stress axis : x y z
#
# Youngs Moduli (GPa) = 158.81667 134.96383 34.41543
#
# Poissons Ratio (x) = 0.14102 0.21895
# Poissons Ratio (y) = 0.16595 0.12726
# Poissons Ratio (z) = 1.01041 0.49908
#
# Static dielectric constant tensor:
#      x y z
#    x 1.962830 0.000000 0.000000 
#    y 0.000000 2.144920 0.000000 
#    z 0.000000 0.000000 2.151700 
# 
# From -- ./inp_files/15802.got.cif
#   From: 2010.05.17/outbox.cif.g08.bks.cpg/sg70_8_cif.got.tgz:15802.got - 2010.06.03 15:57:51.
