data_PCOD9515458
_publ_section_title
;
Structure prediction by ZEFSAII (Michael W. Deem and Ramdas Pophale) SiO2 
 PCOD9515458
Probable space group: F D D D
;
_chemical_formula_sum "Si O2"
_cell_formula_units_Z 144
_cell_length_a 13.905111
_cell_length_b 18.011544
_cell_length_c 20.983628
_cell_angle_alpha 90.000000
_cell_angle_beta 90.000000
_cell_angle_gamma 90.000000
_cell_volume 5255.402482
_symmetry_space_group_name_H-M "F D D D"
_symmetry_group_IT_number 70
_space_group.IT_coordinate_system_code '2'
_symmetry_cell_setting 'orthorhombic'
loop_
_space_group_symop_operation_xyz
x,y,z
1/4-x,1/4-y,z
x,1/4-y,1/4-z
1/4-x,y,1/4-z
-x,-y,-z
3/4+x,3/4+y,-z
-x,3/4+y,3/4+z
3/4+x,-y,3/4+z
x,1/2+y,1/2+z
1/4-x,3/4-y,1/2+z
x,3/4-y,3/4-z
1/4-x,1/2+y,3/4-z
-x,1/2-y,1/2-z
3/4+x,1/4+y,1/2-z
-x,1/4+y,1/4+z
3/4+x,1/2-y,1/4+z
1/2+x,y,1/2+z
3/4-x,1/4-y,1/2+z
1/2+x,1/4-y,3/4-z
3/4-x,y,3/4-z
1/2-x,-y,1/2-z
1/4+x,3/4+y,1/2-z
1/2-x,3/4+y,1/4+z
1/4+x,-y,1/4+z
1/2+x,1/2+y,z
3/4-x,3/4-y,z
1/2+x,3/4-y,1/4-z
3/4-x,1/2+y,1/4-z
1/2-x,1/2-y,-z
1/4+x,1/4+y,-z
1/2-x,1/4+y,3/4+z
1/4+x,1/2-y,3/4+z
loop_
_atom_site_type_symbol
_atom_site_label
_atom_site_fract_x
_atom_site_fract_y
_atom_site_fract_z
Si Si1 0.503241 0.338642 0.737564
Si Si2 0.375000 0.875000 0.630902
Si Si3 0.222044 0.905365 0.983978
Si Si4 0.525138 0.030057 0.666447
Si Si5 0.691946 0.974679 0.353085
O O1 0.500000 0.250000 0.750000
O O2 0.453739 0.344744 0.669436
O O3 0.614241 0.358807 0.741761
O O4 0.460695 0.401815 0.784525
O O5 0.435551 0.810606 0.665479
O O6 0.233849 0.961337 0.923341
O O7 0.244589 0.827621 0.947968
O O8 0.253296 0.956791 0.042814
O O9 0.625000 0.022856 0.625000
O O10 0.421065 0.047816 0.635534
#
# Coordination Sequence:
#
# PCOD9515458 Si02
#       5
#    32  16  32  32  32
#     4  11  20  33  50  82 125 153 191 235 300 368
#     4  12  20  36  57  86 117 164 196 248 298 372
#     4  10  21  40  51  87 123 154 199 249 292 364
#     4  11  23  37  59  88 125 161 196 248 312 369
#     4  10  22  37  61  83 121 157 204 246 298 362
#
# _framework density 27.400375
#
# number of rings (size 3 to 8) (size 9 to 14) (size 15 to 20)
#    0.000    1.333    4.444    1.333    3.111    0.000 
#    8.000    1.111    0.000    0.000    0.000    0.000 
#    0.000    0.000    0.000    0.000    0.000    0.000 
#
# Total GULP energy -200824.273657 kJ/mol
# GULP energy per Si atom -5578.452046 kJ/mol
# Density = 2.733801 g / cm^3
# Si number density = 27.400375 Si / 1000 Ang^3
#
#
#
# Elastic Constant Matrix: (Units=GPa)
#
#
# Indices 1 2 3 4 5 6 
#
# 1 16.6327 -15.0688 11.1249 0.0000 0.0000 0.0000
# 2 -15.0688 219.3734 45.0275 0.0000 0.0000 0.0000
# 3 11.1249 45.0275 160.9472 0.0000 0.0000 0.0000
# 4 0.0000 0.0000 0.0000 43.0778 0.0000 0.0000
# 5 0.0000 0.0000 0.0000 0.0000 19.4470 0.0000
# 6 0.0000 0.0000 0.0000 0.0000 0.0000 19.8557
#
#
#
# Elastic Compliance Matrix: (Units=1/GPa)
#
#
# Indices 1 2 3 4 5 6 
#
# 1 0.070101 0.006164 -0.006570 0.000000 0.000000 0.000000
# 2 0.006164 0.005378 -0.001931 0.000000 0.000000 0.000000
# 3 -0.006570 -0.001931 0.007207 0.000000 0.000000 0.000000
# 4 0.000000 0.000000 0.000000 0.023214 0.000000 0.000000
# 5 0.000000 0.000000 0.000000 0.000000 0.051422 0.000000
# 6 0.000000 0.000000 0.000000 0.000000 0.000000 0.050363
#
#
# Mechanical properties :
#
#
# Convention : Reuss Voigt Hill
#
# Bulk Modulus (GPa) = 12.81837 53.23560 33.02698
# Shear Modulus (GPa) = 20.97635 40.20074 30.58855
#
# Velocity S-wave (km/s) = 2.76986 3.83451 3.34481
# Velocity P-wave (km/s) = 3.86236 6.25105 5.19583
#
# Compressibility (1/GPa) = 0.07801306
#
# Stress axis : x y z
#
# Youngs Moduli (GPa) = 14.26512 185.93909 138.74501
#
# Poissons Ratio (x) = -1.14608 0.91154
# Poissons Ratio (y) = -0.08793 0.26787
# Poissons Ratio (z) = 0.09372 0.35898
#
# Static dielectric constant tensor:
#      x y z
#    x 2.292710 0.000000 0.000000 
#    y 0.000000 2.623650 0.000000 
#    z 0.000000 0.000000 2.303950 
# 
# From -- ./inp_files/52050.got.cif
#   From: 2010.05.17/outbox.cif.g08.bks.cpg/sg70_27_cif.got.tgz:52050.got - 2010.06.03 15:57:51.
