data_PCOD9515561
_publ_section_title
;
Structure prediction by ZEFSAII (Michael W. Deem and Ramdas Pophale) SiO2 
 PCOD9515561
Probable space group: F D D D
;
_chemical_formula_sum "Si O2"
_cell_formula_units_Z 224
_cell_length_a 19.873545
_cell_length_b 30.964836
_cell_length_c 17.327927
_cell_angle_alpha 90.000000
_cell_angle_beta 90.000000
_cell_angle_gamma 90.000000
_cell_volume 10663.278114
_symmetry_space_group_name_H-M "F D D D"
_symmetry_group_IT_number 70
_space_group.IT_coordinate_system_code '2'
_symmetry_cell_setting 'orthorhombic'
loop_
_space_group_symop_operation_xyz
x,y,z
1/4-x,1/4-y,z
x,1/4-y,1/4-z
1/4-x,y,1/4-z
-x,-y,-z
3/4+x,3/4+y,-z
-x,3/4+y,3/4+z
3/4+x,-y,3/4+z
x,1/2+y,1/2+z
1/4-x,3/4-y,1/2+z
x,3/4-y,3/4-z
1/4-x,1/2+y,3/4-z
-x,1/2-y,1/2-z
3/4+x,1/4+y,1/2-z
-x,1/4+y,1/4+z
3/4+x,1/2-y,1/4+z
1/2+x,y,1/2+z
3/4-x,1/4-y,1/2+z
1/2+x,1/4-y,3/4-z
3/4-x,y,3/4-z
1/2-x,-y,1/2-z
1/4+x,3/4+y,1/2-z
1/2-x,3/4+y,1/4+z
1/4+x,-y,1/4+z
1/2+x,1/2+y,z
3/4-x,3/4-y,z
1/2+x,3/4-y,1/4-z
3/4-x,1/2+y,1/4-z
1/2-x,1/2-y,-z
1/4+x,1/4+y,-z
1/2-x,1/4+y,3/4+z
1/4+x,1/2-y,3/4+z
loop_
_atom_site_type_symbol
_atom_site_label
_atom_site_fract_x
_atom_site_fract_y
_atom_site_fract_z
Si Si1 0.340951 0.959931 0.299736
Si Si2 0.675933 0.195735 0.384486
Si Si3 0.458894 0.579405 0.102233
Si Si4 0.375000 0.766326 0.875000
Si Si5 0.984596 0.419791 0.913508
Si Si6 0.366584 0.722497 0.041160
Si Si7 0.625000 0.125000 0.272941
Si Si8 0.330027 0.058865 0.308104
O O1 0.375000 0.941050 0.375000
O O2 0.357015 0.938428 0.218638
O O3 0.262930 0.954843 0.321592
O O4 0.357752 0.010494 0.292137
O O5 0.638506 0.236404 0.344460
O O6 0.666315 0.156848 0.326833
O O7 0.755135 0.198013 0.406538
O O8 0.489958 0.625000 0.125000
O O9 0.420122 0.562101 0.176529
O O10 0.415944 0.583714 0.023239
O O11 0.310701 0.797801 0.862109
O O12 0.381721 0.738041 0.797406
O O13 0.009600 0.375000 0.875000
O O14 0.044779 0.449643 0.944007
O O15 0.928745 0.402393 0.973855
O O16 0.375000 0.079428 0.375000
#
# Coordination Sequence:
#
# PCOD9515561 Si02
#       8
#    32  32  32  16  32  32  16  32
#     4  10  21  41  68  95 129 178 225 268 339 411
#     4  11  22  43  69  99 135 174 230 281 335 407
#     4  11  23  42  63  97 143 173 218 286 339 400
#     4  12  25  46  70 100 134 176 238 288 332 411
#     4  12  24  48  71  97 137 186 234 280 348 416
#     4  12  25  43  70 101 137 179 227 289 345 405
#     4  12  25  44  69  98 134 184 232 288 337 413
#     4  10  21  42  71  98 129 181 232 265 334 422
#
# _framework density 21.006672999999999
#
# number of rings (size 3 to 8) (size 9 to 14) (size 15 to 20)
#    0.000    0.857    5.714    1.714    0.000    7.143 
#    6.429    0.000    0.000    0.000    0.000    0.000 
#    0.000    0.000    0.000    0.000    0.000    0.000 
#
# Total GULP energy -312214.854938 kJ/mol
# GULP energy per Si atom -5575.265267 kJ/mol
# Density = 2.095886 g / cm^3
# Si number density = 21.006673 Si / 1000 Ang^3
#
#
#
# Elastic Constant Matrix: (Units=GPa)
#
#
# Indices 1 2 3 4 5 6 
#
# 1 68.3049 34.8608 42.3801 0.0000 0.0000 0.0000
# 2 34.8608 86.4263 44.8334 0.0000 0.0000 0.0000
# 3 42.3801 44.8334 142.6473 0.0000 0.0000 0.0000
# 4 0.0000 0.0000 0.0000 32.7817 0.0000 0.0000
# 5 0.0000 0.0000 0.0000 0.0000 24.1449 0.0000
# 6 0.0000 0.0000 0.0000 0.0000 0.0000 81.4955
#
#
#
# Elastic Compliance Matrix: (Units=1/GPa)
#
#
# Indices 1 2 3 4 5 6 
#
# 1 0.020284 -0.006041 -0.004128 0.000000 0.000000 0.000000
# 2 -0.006041 0.015623 -0.003116 0.000000 0.000000 0.000000
# 3 -0.004128 -0.003116 0.009216 0.000000 0.000000 0.000000
# 4 0.000000 0.000000 0.000000 0.030505 0.000000 0.000000
# 5 0.000000 0.000000 0.000000 0.000000 0.041417 0.000000
# 6 0.000000 0.000000 0.000000 0.000000 0.000000 0.012271
#
#
# Mechanical properties :
#
#
# Convention : Reuss Voigt Hill
#
# Bulk Modulus (GPa) = 53.89294 60.16965 57.03129
# Shear Modulus (GPa) = 30.85106 39.37138 35.11122
#
# Velocity S-wave (km/s) = 3.83643 4.33394 4.09275
# Velocity P-wave (km/s) = 6.73313 7.33139 7.03862
#
# Compressibility (1/GPa) = 0.01855531
#
# Stress axis : x y z
#
# Youngs Moduli (GPa) = 49.29920 64.00692 108.50761
#
# Poissons Ratio (x) = 0.38663 0.44791
# Poissons Ratio (y) = 0.29779 0.33808
# Poissons Ratio (z) = 0.20350 0.19943
#
# Static dielectric constant tensor:
#      x y z
#    x 1.842590 0.000000 0.000000 
#    y 0.000000 1.751720 0.000000 
#    z 0.000000 0.000000 1.811830 
# 
# From -- ./inp_files/36924.got.cif
#   From: 2010.05.17/outbox.cif.g08.bks.cpg/sg70_19_cif.got.tgz:36924.got - 2010.06.03 15:57:51.
