data_PCOD9515746
_publ_section_title
;
Structure prediction by ZEFSAII (Michael W. Deem and Ramdas Pophale) SiO2 
 PCOD9515746
Probable space group: F D D D
;
_chemical_formula_sum "Si O2"
_cell_formula_units_Z 232
_cell_length_a 24.099792
_cell_length_b 25.640934
_cell_length_c 18.204292
_cell_angle_alpha 90.000000
_cell_angle_beta 90.000000
_cell_angle_gamma 90.000000
_cell_volume 11249.181608
_symmetry_space_group_name_H-M "F D D D"
_symmetry_group_IT_number 70
_space_group.IT_coordinate_system_code '2'
_symmetry_cell_setting 'orthorhombic'
loop_
_space_group_symop_operation_xyz
x,y,z
1/4-x,1/4-y,z
x,1/4-y,1/4-z
1/4-x,y,1/4-z
-x,-y,-z
3/4+x,3/4+y,-z
-x,3/4+y,3/4+z
3/4+x,-y,3/4+z
x,1/2+y,1/2+z
1/4-x,3/4-y,1/2+z
x,3/4-y,3/4-z
1/4-x,1/2+y,3/4-z
-x,1/2-y,1/2-z
3/4+x,1/4+y,1/2-z
-x,1/4+y,1/4+z
3/4+x,1/2-y,1/4+z
1/2+x,y,1/2+z
3/4-x,1/4-y,1/2+z
1/2+x,1/4-y,3/4-z
3/4-x,y,3/4-z
1/2-x,-y,1/2-z
1/4+x,3/4+y,1/2-z
1/2-x,3/4+y,1/4+z
1/4+x,-y,1/4+z
1/2+x,1/2+y,z
3/4-x,3/4-y,z
1/2+x,3/4-y,1/4-z
3/4-x,1/2+y,1/4-z
1/2-x,1/2-y,-z
1/4+x,1/4+y,-z
1/2-x,1/4+y,3/4+z
1/4+x,1/2-y,3/4+z
loop_
_atom_site_type_symbol
_atom_site_label
_atom_site_fract_x
_atom_site_fract_y
_atom_site_fract_z
Si Si1 0.587293 0.836297 0.555450
Si Si2 0.707826 0.495296 0.436413
Si Si3 0.424675 0.762497 0.490974
Si Si4 0.461244 0.389200 0.665455
Si Si5 0.308053 0.272572 0.027534
Si Si6 0.170523 0.396821 0.456406
Si Si7 0.625000 0.625000 0.625000
Si Si8 0.540611 0.613717 0.758621
O O1 0.625000 0.819034 0.625000
O O2 0.571489 0.791775 0.495969
O O3 0.528219 0.857169 0.583599
O O4 0.621296 0.879942 0.510884
O O5 0.774579 0.485103 0.433276
O O6 0.681752 0.493251 0.355616
O O7 0.704864 0.553915 0.465692
O O8 0.435989 0.813106 0.540186
O O9 0.359502 0.764217 0.472546
O O10 0.430851 0.708728 0.536658
O O11 0.446601 0.333702 0.701718
O O12 0.441977 0.394378 0.581529
O O13 0.250000 0.250000 0.000000
O O14 0.160046 0.375000 0.375000
O O15 0.227635 0.372480 0.487111
O O16 0.577765 0.620112 0.688580
#
# Coordination Sequence:
#
# PCOD9515746 Si02
#       8
#    32  32  32  32  32  32   8  32
#     4  11  21  38  65  91 121 170 212 268 323 384
#     4   9  23  40  59  93 130 158 210 268 314 380
#     4  10  22  40  62  89 126 165 202 270 321 368
#     4  10  22  41  62  92 125 164 216 260 322 390
#     4  11  22  40  66  95 122 172 215 257 329 394
#     4  11  21  40  60  91 127 159 214 265 318 375
#     4  12  24  36  60  88 124 176 194 256 306 384
#     4  10  22  39  58  89 126 166 207 249 313 382
#
# _framework density 20.623722000000001
#
# number of rings (size 3 to 8) (size 9 to 14) (size 15 to 20)
#    0.000    1.655    2.069    2.069    4.828    0.552 
#    0.000    2.759    0.000    3.310    0.000    0.000 
#    0.000    0.000    0.000    0.000    0.000    0.000 
#
# Total GULP energy -323270.680514 kJ/mol
# GULP energy per Si atom -5573.632423 kJ/mol
# Density = 2.057678 g / cm^3
# Si number density = 20.623722 Si / 1000 Ang^3
#
#
#
# Elastic Constant Matrix: (Units=GPa)
#
#
# Indices 1 2 3 4 5 6 
#
# 1 112.2721 0.9154 4.8322 0.0000 0.0000 0.0000
# 2 0.9154 50.1241 11.8869 0.0000 0.0000 0.0000
# 3 4.8322 11.8869 65.8161 0.0000 0.0000 0.0000
# 4 0.0000 0.0000 0.0000 11.7818 0.0000 0.0000
# 5 0.0000 0.0000 0.0000 0.0000 66.4370 0.0000
# 6 0.0000 0.0000 0.0000 0.0000 0.0000 14.5194
#
#
#
# Elastic Compliance Matrix: (Units=1/GPa)
#
#
# Indices 1 2 3 4 5 6 
#
# 1 0.008935 -0.000008 -0.000655 0.000000 0.000000 0.000000
# 2 -0.000008 0.020843 -0.003764 0.000000 0.000000 0.000000
# 3 -0.000655 -0.003764 0.015922 0.000000 0.000000 0.000000
# 4 0.000000 0.000000 0.000000 0.084877 0.000000 0.000000
# 5 0.000000 0.000000 0.000000 0.000000 0.015052 0.000000
# 6 0.000000 0.000000 0.000000 0.000000 0.000000 0.068874
#
#
# Mechanical properties :
#
#
# Convention : Reuss Voigt Hill
#
# Bulk Modulus (GPa) = 27.13904 29.27571 28.20738
# Shear Modulus (GPa) = 21.21903 32.58615 26.90259
#
# Velocity S-wave (km/s) = 3.21107 3.97927 3.61563
# Velocity P-wave (km/s) = 5.18996 5.94465 5.58008
#
# Compressibility (1/GPa) = 0.03684729
#
# Stress axis : x y z
#
# Youngs Moduli (GPa) = 111.91726 47.97723 62.80740
#
# Poissons Ratio (x) = 0.00038 0.04111
# Poissons Ratio (y) = 0.00089 0.23640
# Poissons Ratio (z) = 0.07326 0.18058
#
# Static dielectric constant tensor:
#      x y z
#    x 1.797790 0.000000 0.000000 
#    y 0.000000 1.723860 0.000000 
#    z 0.000000 0.000000 1.687100 
# 
# From -- ./inp_files/37863.got.cif
#   From: 2010.05.17/outbox.cif.g08.bks.cpg/sg70_19_cif.got.tgz:37863.got - 2010.06.03 15:57:51.
