data_PCOD9515232
_publ_section_title
;
Structure prediction by ZEFSAII (Michael W. Deem and Ramdas Pophale) SiO2 
 PCOD9515232
Probable space group: F D D D
;
_chemical_formula_sum "Si O2"
_cell_formula_units_Z 152
_cell_length_a 19.406008
_cell_length_b 14.573790
_cell_length_c 20.653281
_cell_angle_alpha 90.000000
_cell_angle_beta 90.000000
_cell_angle_gamma 90.000000
_cell_volume 5841.142041
_symmetry_space_group_name_H-M "F D D D"
_symmetry_group_IT_number 70
_space_group.IT_coordinate_system_code '2'
_symmetry_cell_setting 'orthorhombic'
loop_
_space_group_symop_operation_xyz
x,y,z
1/4-x,1/4-y,z
x,1/4-y,1/4-z
1/4-x,y,1/4-z
-x,-y,-z
3/4+x,3/4+y,-z
-x,3/4+y,3/4+z
3/4+x,-y,3/4+z
x,1/2+y,1/2+z
1/4-x,3/4-y,1/2+z
x,3/4-y,3/4-z
1/4-x,1/2+y,3/4-z
-x,1/2-y,1/2-z
3/4+x,1/4+y,1/2-z
-x,1/4+y,1/4+z
3/4+x,1/2-y,1/4+z
1/2+x,y,1/2+z
3/4-x,1/4-y,1/2+z
1/2+x,1/4-y,3/4-z
3/4-x,y,3/4-z
1/2-x,-y,1/2-z
1/4+x,3/4+y,1/2-z
1/2-x,3/4+y,1/4+z
1/4+x,-y,1/4+z
1/2+x,1/2+y,z
3/4-x,3/4-y,z
1/2+x,3/4-y,1/4-z
3/4-x,1/2+y,1/4-z
1/2-x,1/2-y,-z
1/4+x,1/4+y,-z
1/2-x,1/4+y,3/4+z
1/4+x,1/2-y,3/4+z
loop_
_atom_site_type_symbol
_atom_site_label
_atom_site_fract_x
_atom_site_fract_y
_atom_site_fract_z
Si Si1 0.875000 0.041046 0.875000
Si Si2 0.034560 0.369896 0.444160
Si Si3 0.660144 0.541336 0.262266
Si Si4 0.625000 0.125000 0.125000
Si Si5 0.143801 0.524401 0.277904
Si Si6 0.781986 0.207327 0.901494
O O1 0.809470 0.110454 0.874535
O O2 0.872895 0.984848 0.807777
O O3 0.998880 0.375000 0.375000
O O4 0.091358 0.450233 0.445734
O O5 0.072810 0.275565 0.455067
O O6 0.982970 0.410076 0.496464
O O7 0.625000 0.625000 0.297460
O O8 0.565048 0.206775 0.113142
O O9 0.125000 0.625000 0.250109
O O10 0.181291 0.466551 0.221992
O O11 0.201011 0.535840 0.333784
#
# Coordination Sequence:
#
# PCOD9515232 Si02
#       6
#    16  32  32   8  32  32
#     4  11  21  45  69 102 128 190 236 276 338 440
#     4  11  26  46  66 105 136 174 237 288 354 409
#     4  11  25  45  74  98 139 189 228 293 345 429
#     4  10  20  44  62  96 122 180 216 272 318 414
#     4  11  24  42  65  97 134 178 215 290 345 406
#     4  10  23  40  67  93 133 176 227 269 341 415
#
# _framework density 26.022309
#
# number of rings (size 3 to 8) (size 9 to 14) (size 15 to 20)
#    0.000    1.263    3.158    1.579    7.368    0.842 
#    3.789    0.000    0.000    0.000    0.000    0.000 
#    0.000    0.000    0.000    0.000    0.000    0.000 
#
# Total GULP energy -212201.898949 kJ/mol
# GULP energy per Si atom -5584.260499 kJ/mol
# Density = 2.596308 g / cm^3
# Si number density = 26.022309 Si / 1000 Ang^3
#
#
#
# Elastic Constant Matrix: (Units=GPa)
#
#
# Indices 1 2 3 4 5 6 
#
# 1 56.9568 -5.4835 15.2177 0.0000 0.0000 0.0000
# 2 -5.4835 92.8000 3.4357 0.0000 0.0000 0.0000
# 3 15.2177 3.4357 79.8492 0.0000 0.0000 0.0000
# 4 0.0000 0.0000 0.0000 29.4760 0.0000 0.0000
# 5 0.0000 0.0000 0.0000 0.0000 34.0787 0.0000
# 6 0.0000 0.0000 0.0000 0.0000 0.0000 31.3411
#
#
#
# Elastic Compliance Matrix: (Units=1/GPa)
#
#
# Indices 1 2 3 4 5 6 
#
# 1 0.018639 0.001235 -0.003605 0.000000 0.000000 0.000000
# 2 0.001235 0.010875 -0.000703 0.000000 0.000000 0.000000
# 3 -0.003605 -0.000703 0.013241 0.000000 0.000000 0.000000
# 4 0.000000 0.000000 0.000000 0.033926 0.000000 0.000000
# 5 0.000000 0.000000 0.000000 0.000000 0.029344 0.000000
# 6 0.000000 0.000000 0.000000 0.000000 0.000000 0.031907
#
#
# Mechanical properties :
#
#
# Convention : Reuss Voigt Hill
#
# Bulk Modulus (GPa) = 27.31676 28.43842 27.87759
# Shear Modulus (GPa) = 31.99342 33.40823 32.70082
#
# Velocity S-wave (km/s) = 3.51017 3.58694 3.54877
# Velocity P-wave (km/s) = 5.19121 5.30161 5.24670
#
# Compressibility (1/GPa) = 0.03660757
#
# Stress axis : x y z
#
# Youngs Moduli (GPa) = 53.64997 91.95518 75.52305
#
# Poissons Ratio (x) = -0.11355 0.27229
# Poissons Ratio (y) = -0.06625 0.05311
# Poissons Ratio (z) = 0.19343 0.06467
#
# Static dielectric constant tensor:
#      x y z
#    x 2.398400 0.000000 0.000000 
#    y 0.000000 2.075910 0.000000 
#    z 0.000000 0.000000 1.428290 
# 
# From -- ./inp_files/58394.got.cif
#   From: 2010.05.17/outbox.cif.g08.bks.cpg/sg70_30_cif.got.tgz:58394.got - 2010.06.03 15:57:51.
