data_PCOD9515192
_publ_section_title
;
Structure prediction by ZEFSAII (Michael W. Deem and Ramdas Pophale) SiO2 
 PCOD9515192
Probable space group: F D D D
;
_chemical_formula_sum "Si O2"
_cell_formula_units_Z 136
_cell_length_a 8.998044
_cell_length_b 32.232716
_cell_length_c 24.818490
_cell_angle_alpha 90.000000
_cell_angle_beta 90.000000
_cell_angle_gamma 90.000000
_cell_volume 7198.141321
_symmetry_space_group_name_H-M "F D D D"
_symmetry_group_IT_number 70
_space_group.IT_coordinate_system_code '2'
_symmetry_cell_setting 'orthorhombic'
loop_
_space_group_symop_operation_xyz
x,y,z
1/4-x,1/4-y,z
x,1/4-y,1/4-z
1/4-x,y,1/4-z
-x,-y,-z
3/4+x,3/4+y,-z
-x,3/4+y,3/4+z
3/4+x,-y,3/4+z
x,1/2+y,1/2+z
1/4-x,3/4-y,1/2+z
x,3/4-y,3/4-z
1/4-x,1/2+y,3/4-z
-x,1/2-y,1/2-z
3/4+x,1/4+y,1/2-z
-x,1/4+y,1/4+z
3/4+x,1/2-y,1/4+z
1/2+x,y,1/2+z
3/4-x,1/4-y,1/2+z
1/2+x,1/4-y,3/4-z
3/4-x,y,3/4-z
1/2-x,-y,1/2-z
1/4+x,3/4+y,1/2-z
1/2-x,3/4+y,1/4+z
1/4+x,-y,1/4+z
1/2+x,1/2+y,z
3/4-x,3/4-y,z
1/2+x,3/4-y,1/4-z
3/4-x,1/2+y,1/4-z
1/2-x,1/2-y,-z
1/4+x,1/4+y,-z
1/2-x,1/4+y,3/4+z
1/4+x,1/2-y,3/4+z
loop_
_atom_site_type_symbol
_atom_site_label
_atom_site_fract_x
_atom_site_fract_y
_atom_site_fract_z
Si Si1 0.607655 0.456771 0.047367
Si Si2 0.375000 0.281952 0.875000
Si Si3 0.640178 0.173482 0.369469
Si Si4 0.324238 0.554046 0.076426
Si Si5 0.875000 0.375000 0.875000
Si Si6 0.625000 0.982006 0.125000
O O1 0.641753 0.501899 0.072848
O O2 0.453652 0.443515 0.075324
O O3 0.733758 0.428633 0.074554
O O4 0.617880 0.451378 0.984235
O O5 0.219903 0.304882 0.885186
O O6 0.625000 0.125000 0.378805
O O7 0.497532 0.200160 0.351411
O O8 0.226685 0.594707 0.088578
O O9 0.219996 0.514110 0.088805
#
# Coordination Sequence:
#
# PCOD9515192 Si02
#       6
#    32  16  32  32   8  16
#     4  10  21  40  65  91 122 168 205 257 316 384
#     4  10  20  42  66  93 121 159 213 264 295 391
#     4  10  21  39  60  98 127 153 208 267 316 375
#     4  11  23  44  64  89 130 169 215 250 319 364
#     4  10  28  46  56  98 128 166 214 272 284 382
#     4  11  20  38  64  90 127 163 206 267 301 375
#
# _framework density 18.893765999999999
#
# number of rings (size 3 to 8) (size 9 to 14) (size 15 to 20)
#    0.000    1.882    4.706    2.118    1.647    1.412 
#    4.235    0.000    0.000    0.000    0.000    0.000 
#    0.000    0.000    0.000    0.000    0.000    0.000 
#
# Total GULP energy -189416.512213 kJ/mol
# GULP energy per Si atom -5571.073889 kJ/mol
# Density = 1.885076 g / cm^3
# Si number density = 18.893766 Si / 1000 Ang^3
#
#
#
# Elastic Constant Matrix: (Units=GPa)
#
#
# Indices 1 2 3 4 5 6 
#
# 1 122.1365 58.8151 37.9547 0.0000 0.0000 0.0000
# 2 58.8151 110.2440 37.3772 0.0000 0.0000 0.0000
# 3 37.9547 37.3772 90.0854 0.0000 0.0000 0.0000
# 4 0.0000 0.0000 0.0000 -1.5506 0.0000 0.0000
# 5 0.0000 0.0000 0.0000 0.0000 12.4648 0.0000
# 6 0.0000 0.0000 0.0000 0.0000 0.0000 29.5075
#
#
#
# Elastic Compliance Matrix: (Units=1/GPa)
#
#
# Indices 1 2 3 4 5 6 
#
# 1 0.011552 -0.005251 -0.002688 0.000000 0.000000 0.000000
# 2 -0.005251 0.012943 -0.003158 0.000000 0.000000 0.000000
# 3 -0.002688 -0.003158 0.013543 0.000000 0.000000 0.000000
# 4 0.000000 0.000000 0.000000 -0.644906 0.000000 0.000000
# 5 0.000000 0.000000 0.000000 0.000000 0.080226 0.000000
# 6 0.000000 0.000000 0.000000 0.000000 0.000000 0.033890
#
#
# Mechanical properties :
#
#
# Convention : Reuss Voigt Hill
#
# Bulk Modulus (GPa) = 63.11682 65.63997 64.37840
# Shear Modulus (GPa) = -10.74628 20.63895 4.94634
#
# Velocity S-wave (km/s) = -2.38749 3.30869 1.61977
# Velocity P-wave (km/s) = 5.08710 7.02948 6.13564
#
# Compressibility (1/GPa) = 0.01584364
#
# Stress axis : x y z
#
# Youngs Moduli (GPa) = 86.56690 77.26180 73.83759
#
# Poissons Ratio (x) = 0.40574 0.19848
# Poissons Ratio (y) = 0.45460 0.23315
# Poissons Ratio (z) = 0.23270 0.24396
#
# Static dielectric constant tensor:
#      x y z
#    x 1.752390 0.000000 0.000000 
#    y 0.000000 1.672000 0.000000 
#    z 0.000000 0.000000 1.657870 
# 
# From -- ./inp_files/56651.got.cif
#   From: 2010.05.17/outbox.cif.g08.bks.cpg/sg70_29_cif.got.tgz:56651.got - 2010.06.03 15:57:51.
