data_PCOD9515418
_publ_section_title
;
Structure prediction by ZEFSAII (Michael W. Deem and Ramdas Pophale) SiO2 
 PCOD9515418
Probable space group: F D D D
;
_chemical_formula_sum "Si O2"
_cell_formula_units_Z 112
_cell_length_a 11.053598
_cell_length_b 13.717599
_cell_length_c 35.324170
_cell_angle_alpha 90.000000
_cell_angle_beta 90.000000
_cell_angle_gamma 90.000000
_cell_volume 5356.162387
_symmetry_space_group_name_H-M "F D D D"
_symmetry_group_IT_number 70
_space_group.IT_coordinate_system_code '2'
_symmetry_cell_setting 'orthorhombic'
loop_
_space_group_symop_operation_xyz
x,y,z
1/4-x,1/4-y,z
x,1/4-y,1/4-z
1/4-x,y,1/4-z
-x,-y,-z
3/4+x,3/4+y,-z
-x,3/4+y,3/4+z
3/4+x,-y,3/4+z
x,1/2+y,1/2+z
1/4-x,3/4-y,1/2+z
x,3/4-y,3/4-z
1/4-x,1/2+y,3/4-z
-x,1/2-y,1/2-z
3/4+x,1/4+y,1/2-z
-x,1/4+y,1/4+z
3/4+x,1/2-y,1/4+z
1/2+x,y,1/2+z
3/4-x,1/4-y,1/2+z
1/2+x,1/4-y,3/4-z
3/4-x,y,3/4-z
1/2-x,-y,1/2-z
1/4+x,3/4+y,1/2-z
1/2-x,3/4+y,1/4+z
1/4+x,-y,1/4+z
1/2+x,1/2+y,z
3/4-x,3/4-y,z
1/2+x,3/4-y,1/4-z
3/4-x,1/2+y,1/4-z
1/2-x,1/2-y,-z
1/4+x,1/4+y,-z
1/2-x,1/4+y,3/4+z
1/4+x,1/2-y,3/4+z
loop_
_atom_site_type_symbol
_atom_site_label
_atom_site_fract_x
_atom_site_fract_y
_atom_site_fract_z
Si Si1 0.125000 0.883961 0.625000
Si Si2 0.348787 0.530082 0.953602
Si Si3 0.178731 0.383320 0.777110
Si Si4 0.501395 0.433868 0.341688
O O1 0.092235 0.818433 0.589003
O O2 0.224642 0.958907 0.607830
O O3 0.225295 0.473979 0.963090
O O4 0.457879 0.453948 0.962610
O O5 0.382674 0.612715 0.984060
O O6 0.074039 0.425569 0.803484
O O7 0.569567 0.375000 0.375000
O O8 0.375000 0.375000 0.336556
#
# Coordination Sequence:
#
# PCOD9515418 Si02
#       4
#    16  32  32  32
#     4  10  21  39  58  94 124 156 218 251 311 380
#     4  10  22  37  64  94 123 163 209 259 319 365
#     4  10  21  40  62  90 129 164 204 264 310 373
#     4   9  21  41  59  84 125 169 203 257 308 369
#
# _framework density 20.910492000000001
#
# number of rings (size 3 to 8) (size 9 to 14) (size 15 to 20)
#    0.000    2.571    0.000    1.714    4.000    4.571 
#    5.143   12.857    0.000    0.000    0.000    0.000 
#    0.000    0.000    0.000    0.000    0.000    0.000 
#
# Total GULP energy -156102.117512 kJ/mol
# GULP energy per Si atom -5575.075625 kJ/mol
# Density = 2.086290 g / cm^3
# Si number density = 20.910492 Si / 1000 Ang^3
#
#
#
# Elastic Constant Matrix: (Units=GPa)
#
#
# Indices 1 2 3 4 5 6 
#
# 1 48.1917 16.3915 43.6691 0.0000 0.0000 0.0000
# 2 16.3915 88.6903 61.5864 0.0000 0.0000 0.0000
# 3 43.6691 61.5864 192.1560 0.0000 0.0000 0.0000
# 4 0.0000 0.0000 0.0000 49.2551 0.0000 0.0000
# 5 0.0000 0.0000 0.0000 0.0000 19.9644 0.0000
# 6 0.0000 0.0000 0.0000 0.0000 0.0000 9.6644
#
#
#
# Elastic Compliance Matrix: (Units=1/GPa)
#
#
# Indices 1 2 3 4 5 6 
#
# 1 0.026189 -0.000910 -0.005660 0.000000 0.000000 0.000000
# 2 -0.000910 0.014535 -0.004452 0.000000 0.000000 0.000000
# 3 -0.005660 -0.004452 0.007917 0.000000 0.000000 0.000000
# 4 0.000000 0.000000 0.000000 0.020302 0.000000 0.000000
# 5 0.000000 0.000000 0.000000 0.000000 0.050089 0.000000
# 6 0.000000 0.000000 0.000000 0.000000 0.000000 0.103473
#
#
# Mechanical properties :
#
#
# Convention : Reuss Voigt Hill
#
# Bulk Modulus (GPa) = 37.59739 63.59244 50.59492
# Shear Modulus (GPa) = 19.73059 29.60283 24.66671
#
# Velocity S-wave (km/s) = 3.07510 3.76665 3.43831
# Velocity P-wave (km/s) = 5.53421 7.02813 6.32543
#
# Compressibility (1/GPa) = 0.02659759
#
# Stress axis : x y z
#
# Youngs Moduli (GPa) = 38.18426 68.80173 126.30829
#
# Poissons Ratio (x) = 0.06260 0.71491
# Poissons Ratio (y) = 0.03474 0.56227
# Poissons Ratio (z) = 0.21612 0.30628
#
# Static dielectric constant tensor:
#      x y z
#    x 1.772470 0.000000 0.000000 
#    y 0.000000 1.805360 0.000000 
#    z 0.000000 0.000000 1.768830 
# 
# From -- ./inp_files/15020.got.cif
#   From: 2010.05.17/outbox.cif.g08.bks.cpg/sg70_8_cif.got.tgz:15020.got - 2010.06.03 15:57:51.
