data_PCOD9515323
_publ_section_title
;
Structure prediction by ZEFSAII (Michael W. Deem and Ramdas Pophale) SiO2 
 PCOD9515323
Probable space group: F D D D
;
_chemical_formula_sum "Si O2"
_cell_formula_units_Z 104
_cell_length_a 11.309915
_cell_length_b 18.697530
_cell_length_c 18.870303
_cell_angle_alpha 90.000000
_cell_angle_beta 90.000000
_cell_angle_gamma 90.000000
_cell_volume 3990.455328
_symmetry_space_group_name_H-M "F D D D"
_symmetry_group_IT_number 70
_space_group.IT_coordinate_system_code '2'
_symmetry_cell_setting 'orthorhombic'
loop_
_space_group_symop_operation_xyz
x,y,z
1/4-x,1/4-y,z
x,1/4-y,1/4-z
1/4-x,y,1/4-z
-x,-y,-z
3/4+x,3/4+y,-z
-x,3/4+y,3/4+z
3/4+x,-y,3/4+z
x,1/2+y,1/2+z
1/4-x,3/4-y,1/2+z
x,3/4-y,3/4-z
1/4-x,1/2+y,3/4-z
-x,1/2-y,1/2-z
3/4+x,1/4+y,1/2-z
-x,1/4+y,1/4+z
3/4+x,1/2-y,1/4+z
1/2+x,y,1/2+z
3/4-x,1/4-y,1/2+z
1/2+x,1/4-y,3/4-z
3/4-x,y,3/4-z
1/2-x,-y,1/2-z
1/4+x,3/4+y,1/2-z
1/2-x,3/4+y,1/4+z
1/4+x,-y,1/4+z
1/2+x,1/2+y,z
3/4-x,3/4-y,z
1/2+x,3/4-y,1/4-z
3/4-x,1/2+y,1/4-z
1/2-x,1/2-y,-z
1/4+x,1/4+y,-z
1/2-x,1/4+y,3/4+z
1/4+x,1/2-y,3/4+z
loop_
_atom_site_type_symbol
_atom_site_label
_atom_site_fract_x
_atom_site_fract_y
_atom_site_fract_z
Si Si1 0.875000 0.875000 0.875000
Si Si2 0.207235 0.683508 0.418830
Si Si3 0.547092 0.916929 0.732906
Si Si4 0.589070 0.289838 0.940022
O O1 0.784487 0.923570 0.918520
O O2 0.125000 0.625000 0.453182
O O3 0.255060 0.645282 0.346423
O O4 0.321992 0.698598 0.466185
O O5 0.135524 0.749761 0.384681
O O6 0.569933 0.848606 0.782166
O O7 0.448966 0.978418 0.746452
#
# Coordination Sequence:
#
# PCOD9515323 Si02
#       4
#     8  32  32  32
#     4  12  20  36  56  88 122 136 202 248 292 362
#     4   9  19  39  57  87 120 152 202 245 289 366
#     4   9  20  39  56  92 115 159 198 242 306 351
#     4  10  21  37  57  88 121 153 199 245 301 353
#
# _framework density 26.062187000000002
#
# number of rings (size 3 to 8) (size 9 to 14) (size 15 to 20)
#    1.846    0.615    3.077    0.000    2.154    4.923 
#    0.000    0.000    0.000    0.000    0.000    0.000 
#    0.000    0.000    0.000    0.000    0.000    0.000 
#
# Total GULP energy -144887.450523 kJ/mol
# GULP energy per Si atom -5572.594251 kJ/mol
# Density = 2.600287 g / cm^3
# Si number density = 26.062187 Si / 1000 Ang^3
#
#
#
# Elastic Constant Matrix: (Units=GPa)
#
#
# Indices 1 2 3 4 5 6 
#
# 1 44.1525 22.9429 -3.7385 0.0000 0.0000 0.0000
# 2 22.9429 139.0656 32.0490 0.0000 0.0000 0.0000
# 3 -3.7385 32.0490 79.5917 0.0000 0.0000 0.0000
# 4 0.0000 0.0000 0.0000 -6.7569 0.0000 0.0000
# 5 0.0000 0.0000 0.0000 0.0000 27.8955 0.0000
# 6 0.0000 0.0000 0.0000 0.0000 0.0000 0.1939
#
#
#
# Elastic Compliance Matrix: (Units=1/GPa)
#
#
# Indices 1 2 3 4 5 6 
#
# 1 0.025485 -0.004939 0.003186 0.000000 0.000000 0.000000
# 2 -0.004939 0.008883 -0.003809 0.000000 0.000000 0.000000
# 3 0.003186 -0.003809 0.014248 0.000000 0.000000 0.000000
# 4 0.000000 0.000000 0.000000 -0.147997 0.000000 0.000000
# 5 0.000000 0.000000 0.000000 0.000000 0.035848 0.000000
# 6 0.000000 0.000000 0.000000 0.000000 0.000000 5.156078
#
#
# Mechanical properties :
#
#
# Convention : Reuss Voigt Hill
#
# Bulk Modulus (GPa) = 26.67254 40.59074 33.63164
# Shear Modulus (GPa) = 0.97729 18.37026 9.67378
#
# Velocity S-wave (km/s) = 0.61302 2.65781 1.92869
# Velocity P-wave (km/s) = 3.27986 5.00269 4.22992
#
# Compressibility (1/GPa) = 0.03749174
#
# Stress axis : x y z
#
# Youngs Moduli (GPa) = 39.23915 112.56885 70.18755
#
# Poissons Ratio (x) = 0.55593 -0.22359
# Poissons Ratio (y) = 0.19379 0.26735
# Poissons Ratio (z) = -0.12500 0.42878
#
# Static dielectric constant tensor:
#      x y z
#    x 2.013700 0.000000 0.000000 
#    y 0.000000 2.204930 0.000000 
#    z 0.000000 0.000000 2.084210 
# 
# From -- ./inp_files/20199.got.cif
#   From: 2010.05.17/outbox.cif.g08.bks.cpg/sg70_11_cif.got.tgz:20199.got - 2010.06.03 15:57:51.
