data_PCOD9515139
_publ_section_title
;
Structure prediction by ZEFSAII (Michael W. Deem and Ramdas Pophale) SiO2 
 PCOD9515139
Probable space group: F D D D
;
_chemical_formula_sum "Si O2"
_cell_formula_units_Z 176
_cell_length_a 27.901337
_cell_length_b 24.032679
_cell_length_c 11.337210
_cell_angle_alpha 90.000000
_cell_angle_beta 90.000000
_cell_angle_gamma 90.000000
_cell_volume 7602.096734
_symmetry_space_group_name_H-M "F D D D"
_symmetry_group_IT_number 70
_space_group.IT_coordinate_system_code '2'
_symmetry_cell_setting 'orthorhombic'
loop_
_space_group_symop_operation_xyz
x,y,z
1/4-x,1/4-y,z
x,1/4-y,1/4-z
1/4-x,y,1/4-z
-x,-y,-z
3/4+x,3/4+y,-z
-x,3/4+y,3/4+z
3/4+x,-y,3/4+z
x,1/2+y,1/2+z
1/4-x,3/4-y,1/2+z
x,3/4-y,3/4-z
1/4-x,1/2+y,3/4-z
-x,1/2-y,1/2-z
3/4+x,1/4+y,1/2-z
-x,1/4+y,1/4+z
3/4+x,1/2-y,1/4+z
1/2+x,y,1/2+z
3/4-x,1/4-y,1/2+z
1/2+x,1/4-y,3/4-z
3/4-x,y,3/4-z
1/2-x,-y,1/2-z
1/4+x,3/4+y,1/2-z
1/2-x,3/4+y,1/4+z
1/4+x,-y,1/4+z
1/2+x,1/2+y,z
3/4-x,3/4-y,z
1/2+x,3/4-y,1/4-z
3/4-x,1/2+y,1/4-z
1/2-x,1/2-y,-z
1/4+x,1/4+y,-z
1/2-x,1/4+y,3/4+z
1/4+x,1/2-y,3/4+z
loop_
_atom_site_type_symbol
_atom_site_label
_atom_site_fract_x
_atom_site_fract_y
_atom_site_fract_z
Si Si1 0.916245 0.331073 0.105042
Si Si2 0.875000 0.457965 0.875000
Si Si3 0.207990 0.462980 0.193637
Si Si4 0.986294 0.348065 0.504809
Si Si5 0.850881 0.634887 0.747177
Si Si6 0.352045 0.486382 0.998479
O O1 0.875000 0.375000 0.143225
O O2 0.965897 0.353270 0.157553
O O3 0.895664 0.274727 0.161082
O O4 0.908778 0.325427 0.965666
O O5 0.837871 0.497154 0.807138
O O6 0.250000 0.500000 0.250000
O O7 0.221265 0.436921 0.065812
O O8 0.193033 0.407934 0.263937
O O9 0.993067 0.375000 0.375000
O O10 0.944039 0.302300 0.508869
O O11 0.880057 0.625000 0.625000
O O12 0.875000 0.622596 0.875000
O O13 0.837891 0.699477 0.752534
O O14 0.375000 0.470505 0.875000
#
# Coordination Sequence:
#
# PCOD9515139 Si02
#       6
#    32  16  32  32  32  32
#     4  10  21  39  71 103 137 183 242 301 364 441
#     4  12  25  48  66 104 144 198 241 302 382 454
#     4  12  27  48  72 103 153 198 248 312 385 471
#     4  11  23  43  70 111 145 189 251 319 375 448
#     4  11  24  44  72 103 141 197 247 300 382 452
#     4  10  20  40  71 103 142 186 234 306 375 442
#
# _framework density 23.151508
#
# number of rings (size 3 to 8) (size 9 to 14) (size 15 to 20)
#    0.000    1.091    2.727    4.636    0.000    3.636 
#    3.273    1.818    0.000    0.000    0.000    0.000 
#    0.000    0.000    0.000    0.000    0.000    0.000 
#
# Total GULP energy -245499.039497 kJ/mol
# GULP energy per Si atom -5579.523625 kJ/mol
# Density = 2.309881 g / cm^3
# Si number density = 23.151508 Si / 1000 Ang^3
#
#
#
# Elastic Constant Matrix: (Units=GPa)
#
#
# Indices 1 2 3 4 5 6 
#
# 1 53.5728 38.5168 18.2999 0.0000 0.0000 0.0000
# 2 38.5168 86.9218 26.5910 0.0001 -0.0001 -0.0001
# 3 18.2999 26.5910 153.1162 0.0001 -0.0002 -0.0003
# 4 0.0000 0.0001 0.0001 35.8917 -0.0001 -0.0001
# 5 0.0000 -0.0001 -0.0002 -0.0001 31.9929 0.0001
# 6 0.0000 -0.0001 -0.0003 -0.0001 0.0001 11.8138
#
#
#
# Elastic Compliance Matrix: (Units=1/GPa)
#
#
# Indices 1 2 3 4 5 6 
#
# 1 0.027615 -0.011857 -0.001241 0.000000 0.000000 0.000000
# 2 -0.011857 0.017241 -0.001577 0.000000 0.000000 0.000000
# 3 -0.001241 -0.001577 0.006953 0.000000 0.000000 0.000000
# 4 0.000000 0.000000 0.000000 0.027862 0.000000 0.000000
# 5 0.000000 0.000000 0.000000 0.000000 0.031257 0.000000
# 6 0.000000 0.000000 0.000000 0.000000 0.000000 0.084647
#
#
# Mechanical properties :
#
#
# Convention : Reuss Voigt Hill
#
# Bulk Modulus (GPa) = 44.52649 51.15847 47.84248
# Shear Modulus (GPa) = 21.51358 29.95323 25.73340
#
# Velocity S-wave (km/s) = 3.05167 3.60083 3.33757
# Velocity P-wave (km/s) = 5.62951 6.27959 5.96341
#
# Compressibility (1/GPa) = 0.02245854
#
# Stress axis : x y z
#
# Youngs Moduli (GPa) = 36.21235 58.00090 143.81818
#
# Poissons Ratio (x) = 0.68772 0.17852
# Poissons Ratio (y) = 0.42937 0.22681
# Poissons Ratio (z) = 0.04495 0.09147
#
# Static dielectric constant tensor:
#      x y z
#    x 1.922460 0.000000 0.000000 
#    y 0.000000 1.901570 0.000000 
#    z 0.000000 0.000000 1.970740 
# 
# From -- ./inp_files/22268.got.cif
#   From: 2010.05.17/outbox.cif.g08.bks.cpg/sg70_12_cif.got.tgz:22268.got - 2010.06.03 15:57:51.
