data_PCOD9515956
_publ_section_title
;
Structure prediction by ZEFSAII (Michael W. Deem and Ramdas Pophale) SiO2 
 PCOD9515956
Probable space group: F D D D
;
_chemical_formula_sum "Si O2"
_cell_formula_units_Z 168
_cell_length_a 25.401944
_cell_length_b 20.701427
_cell_length_c 12.217594
_cell_angle_alpha 90.000000
_cell_angle_beta 90.000000
_cell_angle_gamma 90.000000
_cell_volume 6424.701089
_symmetry_space_group_name_H-M "F D D D"
_symmetry_group_IT_number 70
_space_group.IT_coordinate_system_code '2'
_symmetry_cell_setting 'orthorhombic'
loop_
_space_group_symop_operation_xyz
x,y,z
1/4-x,1/4-y,z
x,1/4-y,1/4-z
1/4-x,y,1/4-z
-x,-y,-z
3/4+x,3/4+y,-z
-x,3/4+y,3/4+z
3/4+x,-y,3/4+z
x,1/2+y,1/2+z
1/4-x,3/4-y,1/2+z
x,3/4-y,3/4-z
1/4-x,1/2+y,3/4-z
-x,1/2-y,1/2-z
3/4+x,1/4+y,1/2-z
-x,1/4+y,1/4+z
3/4+x,1/2-y,1/4+z
1/2+x,y,1/2+z
3/4-x,1/4-y,1/2+z
1/2+x,1/4-y,3/4-z
3/4-x,y,3/4-z
1/2-x,-y,1/2-z
1/4+x,3/4+y,1/2-z
1/2-x,3/4+y,1/4+z
1/4+x,-y,1/4+z
1/2+x,1/2+y,z
3/4-x,3/4-y,z
1/2+x,3/4-y,1/4-z
3/4-x,1/2+y,1/4-z
1/2-x,1/2-y,-z
1/4+x,1/4+y,-z
1/2-x,1/4+y,3/4+z
1/4+x,1/2-y,3/4+z
loop_
_atom_site_type_symbol
_atom_site_label
_atom_site_fract_x
_atom_site_fract_y
_atom_site_fract_z
Si Si1 0.449166 0.486210 0.297132
Si Si2 0.875000 0.375000 0.875000
Si Si3 0.681633 0.148380 0.749647
Si Si4 0.189628 0.457833 0.434407
Si Si5 0.323512 0.053761 0.155364
Si Si6 0.457453 0.120160 0.391597
O O1 0.410703 0.425910 0.308592
O O2 0.502222 0.468384 0.363470
O O3 0.457028 0.501767 0.167111
O O4 0.433525 0.558215 0.337466
O O5 0.625000 0.125000 0.792659
O O6 0.686538 0.125000 0.625000
O O7 0.680649 0.225287 0.751911
O O8 0.731650 0.127281 0.821779
O O9 0.134762 0.450833 0.372298
O O10 0.197846 0.399119 0.517404
O O11 0.303489 0.125000 0.125000
O O12 0.317312 0.061704 0.285146
#
# Coordination Sequence:
#
# PCOD9515956 Si02
#       6
#    32   8  32  32  32  32
#     4  10  26  46  65 100 137 181 236 289 347 413
#     4  12  28  48  72  92 146 188 230 292 350 400
#     4  10  23  38  58 100 142 177 221 283 347 416
#     4  11  24  41  71 101 130 185 228 283 354 415
#     4  10  23  42  68  97 134 176 229 286 340 409
#     4  10  22  43  70  99 137 180 234 285 346 422
#
# _framework density 26.149077999999999
#
# number of rings (size 3 to 8) (size 9 to 14) (size 15 to 20)
#    0.000    1.714    0.000    3.429   14.667    4.571 
#    0.000    1.905    0.000    0.000    0.000    0.000 
#    0.000    0.000    0.000    0.000    0.000    0.000 
#
# Total GULP energy -234762.941881 kJ/mol
# GULP energy per Si atom -5589.593854 kJ/mol
# Density = 2.608956 g / cm^3
# Si number density = 26.149078 Si / 1000 Ang^3
#
#
#
# Elastic Constant Matrix: (Units=GPa)
#
#
# Indices 1 2 3 4 5 6 
#
# 1 193.5941 37.8285 18.4436 0.0000 0.0000 0.0000
# 2 37.8285 179.1382 29.4797 0.0000 0.0000 0.0000
# 3 18.4436 29.4797 27.3360 0.0000 0.0000 0.0000
# 4 0.0000 0.0000 0.0000 36.2071 0.0000 0.0000
# 5 0.0000 0.0000 0.0000 0.0000 36.6894 0.0000
# 6 0.0000 0.0000 0.0000 0.0000 0.0000 49.5062
#
#
#
# Elastic Compliance Matrix: (Units=1/GPa)
#
#
# Indices 1 2 3 4 5 6 
#
# 1 0.005588 -0.000680 -0.003036 0.000000 0.000000 0.000000
# 2 -0.000680 0.006870 -0.006949 0.000000 0.000000 0.000000
# 3 -0.003036 -0.006949 0.046125 0.000000 0.000000 0.000000
# 4 0.000000 0.000000 0.000000 0.027619 0.000000 0.000000
# 5 0.000000 0.000000 0.000000 0.000000 0.027256 0.000000
# 6 0.000000 0.000000 0.000000 0.000000 0.000000 0.020200
#
#
# Mechanical properties :
#
#
# Convention : Reuss Voigt Hill
#
# Bulk Modulus (GPa) = 26.84557 63.50799 45.17678
# Shear Modulus (GPa) = 29.86775 45.43497 37.65136
#
# Velocity S-wave (km/s) = 3.38333 4.17290 3.79868
# Velocity P-wave (km/s) = 5.05482 6.89616 6.04600
#
# Compressibility (1/GPa) = 0.03725009
#
# Stress axis : x y z
#
# Youngs Moduli (GPa) = 178.96631 145.57030 21.68034
#
# Poissons Ratio (x) = 0.09903 0.06583
# Poissons Ratio (y) = 0.12174 0.15066
# Poissons Ratio (z) = 0.54341 1.01161
#
# Static dielectric constant tensor:
#      x y z
#    x 2.099240 0.000000 0.000000 
#    y 0.000000 2.007150 0.000000 
#    z 0.000000 0.000000 2.203390 
# 
# From -- ./inp_files/27686.got.cif
#   From: 2010.05.17/outbox.cif.g08.bks.cpg/sg70_14_cif.got.tgz:27686.got - 2010.06.03 15:57:51.
