data_PCOD9515195
_publ_section_title
;
Structure prediction by ZEFSAII (Michael W. Deem and Ramdas Pophale) SiO2 
 PCOD9515195
Probable space group: F D D D
;
_chemical_formula_sum "Si O2"
_cell_formula_units_Z 168
_cell_length_a 24.713255
_cell_length_b 15.515736
_cell_length_c 19.221806
_cell_angle_alpha 90.000000
_cell_angle_beta 90.000000
_cell_angle_gamma 90.000000
_cell_volume 7370.492721
_symmetry_space_group_name_H-M "F D D D"
_symmetry_group_IT_number 70
_space_group.IT_coordinate_system_code '2'
_symmetry_cell_setting 'orthorhombic'
loop_
_space_group_symop_operation_xyz
x,y,z
1/4-x,1/4-y,z
x,1/4-y,1/4-z
1/4-x,y,1/4-z
-x,-y,-z
3/4+x,3/4+y,-z
-x,3/4+y,3/4+z
3/4+x,-y,3/4+z
x,1/2+y,1/2+z
1/4-x,3/4-y,1/2+z
x,3/4-y,3/4-z
1/4-x,1/2+y,3/4-z
-x,1/2-y,1/2-z
3/4+x,1/4+y,1/2-z
-x,1/4+y,1/4+z
3/4+x,1/2-y,1/4+z
1/2+x,y,1/2+z
3/4-x,1/4-y,1/2+z
1/2+x,1/4-y,3/4-z
3/4-x,y,3/4-z
1/2-x,-y,1/2-z
1/4+x,3/4+y,1/2-z
1/2-x,3/4+y,1/4+z
1/4+x,-y,1/4+z
1/2+x,1/2+y,z
3/4-x,3/4-y,z
1/2+x,3/4-y,1/4-z
3/4-x,1/2+y,1/4-z
1/2-x,1/2-y,-z
1/4+x,1/4+y,-z
1/2-x,1/4+y,3/4+z
1/4+x,1/2-y,3/4+z
loop_
_atom_site_type_symbol
_atom_site_label
_atom_site_fract_x
_atom_site_fract_y
_atom_site_fract_z
Si Si1 0.375000 0.375000 0.375000
Si Si2 0.327745 0.477580 0.133942
Si Si3 0.956384 0.049510 0.897718
Si Si4 0.967812 0.999170 0.328028
Si Si5 0.133497 0.027181 0.025188
Si Si6 0.807844 0.970414 0.574714
O O1 0.333889 0.311589 0.336729
O O2 0.270010 0.525110 0.125691
O O3 0.382229 0.512189 0.171056
O O4 0.316879 0.383574 0.168208
O O5 0.345551 0.469622 0.053384
O O6 0.957204 0.152606 0.900681
O O7 0.924418 0.017170 0.964652
O O8 0.922533 0.020131 0.829795
O O9 0.016425 0.012077 0.887494
O O10 0.973967 0.995098 0.245000
O O11 0.125000 0.125000 0.047406
#
# Coordination Sequence:
#
# PCOD9515195 Si02
#       6
#     8  32  32  32  32  32
#     4  12  24  44  72  88 126 192 244 292 352 392
#     4  10  21  41  68  98 134 176 227 289 337 411
#     4  10  22  38  67 100 138 177 223 283 339 424
#     4  11  24  46  67  99 134 179 241 286 344 418
#     4  11  20  41  67  98 140 177 223 274 349 415
#     4  10  20  42  67  93 135 179 216 281 349 407
#
# _framework density 22.793590999999999
#
# number of rings (size 3 to 8) (size 9 to 14) (size 15 to 20)
#    0.000    1.524    3.810    3.429    0.000    0.762 
#    3.429    4.762    0.000    0.000    0.000    0.000 
#    0.000    0.000    0.000    0.000    0.000    0.000 
#
# Total GULP energy -234229.881811 kJ/mol
# GULP energy per Si atom -5576.901948 kJ/mol
# Density = 2.274171 g / cm^3
# Si number density = 22.793591 Si / 1000 Ang^3
#
#
#
# Elastic Constant Matrix: (Units=GPa)
#
#
# Indices 1 2 3 4 5 6 
#
# 1 150.2464 25.3391 4.6585 0.0000 0.0000 0.0000
# 2 25.3391 81.5448 13.1602 0.0000 0.0000 0.0000
# 3 4.6585 13.1602 52.0608 0.0000 0.0000 0.0000
# 4 0.0000 0.0000 0.0000 -29.3167 0.0000 0.0000
# 5 0.0000 0.0000 0.0000 0.0000 211.9602 0.0000
# 6 0.0000 0.0000 0.0000 0.0000 0.0000 -23.6042
#
#
#
# Elastic Compliance Matrix: (Units=1/GPa)
#
#
# Indices 1 2 3 4 5 6 
#
# 1 0.007024 -0.002170 -0.000080 0.000000 0.000000 0.000000
# 2 -0.002170 0.013455 -0.003207 0.000000 0.000000 0.000000
# 3 -0.000080 -0.003207 0.020026 0.000000 0.000000 0.000000
# 4 0.000000 0.000000 0.000000 -0.034110 0.000000 0.000000
# 5 0.000000 0.000000 0.000000 0.000000 0.004718 0.000000
# 6 0.000000 0.000000 0.000000 0.000000 0.000000 -0.042365
#
#
# Mechanical properties :
#
#
# Convention : Reuss Voigt Hill
#
# Bulk Modulus (GPa) = 33.79342 41.12973 37.46158
# Shear Modulus (GPa) = -477.33145 47.85415 -214.73865
#
# Velocity S-wave (km/s) = -14.48687 4.58695 -9.71672
# Velocity P-wave (km/s) = 16.27783 6.79243 10.46018
#
# Compressibility (1/GPa) = 0.02959156
#
# Stress axis : x y z
#
# Youngs Moduli (GPa) = 142.36610 74.32183 49.93466
#
# Poissons Ratio (x) = 0.16126 0.00400
# Poissons Ratio (y) = 0.30890 0.16014
# Poissons Ratio (z) = 0.01140 0.23836
#
# Static dielectric constant tensor:
#      x y z
#    x 1.931380 0.000000 0.000000 
#    y 0.000000 0.332450 0.000000 
#    z 0.000000 0.000000 1.868100 
# 
# From -- ./inp_files/46791.got.cif
#   From: 2010.05.17/outbox.cif.g08.bks.cpg/sg70_24_cif.got.tgz:46791.got - 2010.06.03 15:57:51.
