data_PCOD9515307
_publ_section_title
;
Structure prediction by ZEFSAII (Michael W. Deem and Ramdas Pophale) SiO2 
 PCOD9515307
Probable space group: F D D D
;
_chemical_formula_sum "Si O2"
_cell_formula_units_Z 240
_cell_length_a 21.139912
_cell_length_b 30.776378
_cell_length_c 18.696208
_cell_angle_alpha 90.000000
_cell_angle_beta 90.000000
_cell_angle_gamma 90.000000
_cell_volume 12163.938440
_symmetry_space_group_name_H-M "F D D D"
_symmetry_group_IT_number 70
_space_group.IT_coordinate_system_code '2'
_symmetry_cell_setting 'orthorhombic'
loop_
_space_group_symop_operation_xyz
x,y,z
1/4-x,1/4-y,z
x,1/4-y,1/4-z
1/4-x,y,1/4-z
-x,-y,-z
3/4+x,3/4+y,-z
-x,3/4+y,3/4+z
3/4+x,-y,3/4+z
x,1/2+y,1/2+z
1/4-x,3/4-y,1/2+z
x,3/4-y,3/4-z
1/4-x,1/2+y,3/4-z
-x,1/2-y,1/2-z
3/4+x,1/4+y,1/2-z
-x,1/4+y,1/4+z
3/4+x,1/2-y,1/4+z
1/2+x,y,1/2+z
3/4-x,1/4-y,1/2+z
1/2+x,1/4-y,3/4-z
3/4-x,y,3/4-z
1/2-x,-y,1/2-z
1/4+x,3/4+y,1/2-z
1/2-x,3/4+y,1/4+z
1/4+x,-y,1/4+z
1/2+x,1/2+y,z
3/4-x,3/4-y,z
1/2+x,3/4-y,1/4-z
3/4-x,1/2+y,1/4-z
1/2-x,1/2-y,-z
1/4+x,1/4+y,-z
1/2-x,1/4+y,3/4+z
1/4+x,1/2-y,3/4+z
loop_
_atom_site_type_symbol
_atom_site_label
_atom_site_fract_x
_atom_site_fract_y
_atom_site_fract_z
Si Si1 0.949266 0.775679 0.377874
Si Si2 0.103927 0.709492 0.862010
Si Si3 0.947256 0.390973 0.528549
Si Si4 0.681945 0.094561 0.999863
Si Si5 0.531247 0.345124 0.302569
Si Si6 0.085660 0.800899 0.938948
Si Si7 0.495013 0.625000 0.125000
Si Si8 0.244708 0.194544 0.322888
O O1 0.875000 0.771577 0.375000
O O2 0.955127 0.804237 0.451097
O O3 0.983503 0.805967 0.320668
O O4 0.976660 0.727278 0.369640
O O5 0.052476 0.690231 0.806553
O O6 0.097428 0.675315 0.927809
O O7 0.096787 0.756398 0.896996
O O8 0.171383 0.708555 0.822247
O O9 0.875000 0.375000 0.538016
O O10 0.991040 0.357635 0.573536
O O11 0.965037 0.383876 0.446243
O O12 0.625000 0.125000 0.032077
O O13 0.743838 0.125209 0.995611
O O14 0.537432 0.375000 0.375000
O O15 0.599166 0.324012 0.286415
O O16 0.049862 0.834104 0.887453
O O17 0.037661 0.794036 0.004509
#
# Coordination Sequence:
#
# PCOD9515307 Si02
#       8
#    32  32  32  32  32  32  16  32
#     4  11  20  36  58  92 122 163 217 268 302 387
#     4  11  22  40  64  90 128 171 212 266 327 387
#     4   9  20  39  63  89 118 164 213 265 320 390
#     4  11  21  37  60  89 124 169 215 258 316 382
#     4  10  21  36  61  89 123 167 212 262 321 382
#     4  11  21  39  63  95 123 165 212 269 332 391
#     4  10  21  38  66  90 121 160 212 272 332 376
#     4  10  21  39  58  87 128 160 207 260 323 378
#
# _framework density 19.730452
#
# number of rings (size 3 to 8) (size 9 to 14) (size 15 to 20)
#    0.000    1.600    4.667    1.400    0.000    0.533 
#    4.800    2.000    0.000    0.000    0.000    0.000 
#    0.000    0.000    0.000    0.000    0.000    0.000 
#
# Total GULP energy -334179.876475 kJ/mol
# GULP energy per Si atom -5569.664608 kJ/mol
# Density = 1.968554 g / cm^3
# Si number density = 19.730452 Si / 1000 Ang^3
#
#
#
# Elastic Constant Matrix: (Units=GPa)
#
#
# Indices 1 2 3 4 5 6 
#
# 1 100.1070 63.1291 27.0894 0.0000 0.0000 0.0000
# 2 63.1291 105.4177 25.6090 0.0000 0.0000 0.0000
# 3 27.0894 25.6090 39.3608 0.0000 0.0000 0.0000
# 4 0.0000 0.0000 0.0000 38.3709 0.0000 0.0000
# 5 0.0000 0.0000 0.0000 0.0000 56.4265 0.0000
# 6 0.0000 0.0000 0.0000 0.0000 0.0000 34.0839
#
#
#
# Elastic Compliance Matrix: (Units=1/GPa)
#
#
# Indices 1 2 3 4 5 6 
#
# 1 0.017202 -0.008819 -0.006101 0.000000 0.000000 0.000000
# 2 -0.008819 0.015788 -0.004203 0.000000 0.000000 0.000000
# 3 -0.006101 -0.004203 0.032339 0.000000 0.000000 0.000000
# 4 0.000000 0.000000 0.000000 0.026061 0.000000 0.000000
# 5 0.000000 0.000000 0.000000 0.000000 0.017722 0.000000
# 6 0.000000 0.000000 0.000000 0.000000 0.000000 0.029339
#
#
# Mechanical properties :
#
#
# Convention : Reuss Voigt Hill
#
# Bulk Modulus (GPa) = 36.92226 52.94896 44.93561
# Shear Modulus (GPa) = 26.92147 34.38012 30.65079
#
# Velocity S-wave (km/s) = 3.69787 4.17884 3.94569
# Velocity P-wave (km/s) = 6.08164 7.08365 6.60168
#
# Compressibility (1/GPa) = 0.02708393
#
# Stress axis : x y z
#
# Youngs Moduli (GPa) = 58.13368 63.33798 30.92228
#
# Poissons Ratio (x) = 0.55859 0.18865
# Poissons Ratio (y) = 0.51269 0.12995
# Poissons Ratio (z) = 0.35467 0.26618
#
# Static dielectric constant tensor:
#      x y z
#    x 1.682680 0.000000 0.000000 
#    y 0.000000 1.876700 0.000000 
#    z 0.000000 0.000000 1.755610 
# 
# From -- ./inp_files/45291.got.cif
#   From: 2010.05.17/outbox.cif.g08.bks.cpg/sg70_23_cif.got.tgz:45291.got - 2010.06.03 15:57:51.
