data_PCOD9515144
_publ_section_title
;
Structure prediction by ZEFSAII (Michael W. Deem and Ramdas Pophale) SiO2 
 PCOD9515144
Probable space group: F D D D
;
_chemical_formula_sum "Si O2"
_cell_formula_units_Z 112
_cell_length_a 26.745986
_cell_length_b 9.677755
_cell_length_c 18.103307
_cell_angle_alpha 90.000000
_cell_angle_beta 90.000000
_cell_angle_gamma 90.000000
_cell_volume 4685.879893
_symmetry_space_group_name_H-M "F D D D"
_symmetry_group_IT_number 70
_space_group.IT_coordinate_system_code '2'
_symmetry_cell_setting 'orthorhombic'
loop_
_space_group_symop_operation_xyz
x,y,z
1/4-x,1/4-y,z
x,1/4-y,1/4-z
1/4-x,y,1/4-z
-x,-y,-z
3/4+x,3/4+y,-z
-x,3/4+y,3/4+z
3/4+x,-y,3/4+z
x,1/2+y,1/2+z
1/4-x,3/4-y,1/2+z
x,3/4-y,3/4-z
1/4-x,1/2+y,3/4-z
-x,1/2-y,1/2-z
3/4+x,1/4+y,1/2-z
-x,1/4+y,1/4+z
3/4+x,1/2-y,1/4+z
1/2+x,y,1/2+z
3/4-x,1/4-y,1/2+z
1/2+x,1/4-y,3/4-z
3/4-x,y,3/4-z
1/2-x,-y,1/2-z
1/4+x,3/4+y,1/2-z
1/2-x,3/4+y,1/4+z
1/4+x,-y,1/4+z
1/2+x,1/2+y,z
3/4-x,3/4-y,z
1/2+x,3/4-y,1/4-z
3/4-x,1/2+y,1/4-z
1/2-x,1/2-y,-z
1/4+x,1/4+y,-z
1/2-x,1/4+y,3/4+z
1/4+x,1/2-y,3/4+z
loop_
_atom_site_type_symbol
_atom_site_label
_atom_site_fract_x
_atom_site_fract_y
_atom_site_fract_z
Si Si1 0.020618 0.831646 0.678463
Si Si2 0.276559 0.629603 0.210221
Si Si3 0.380753 0.036423 0.489137
Si Si4 0.197657 0.875000 0.375000
O O1 0.079310 0.801164 0.672773
O O2 0.000000 0.750000 0.750000
O O3 0.984562 0.758553 0.618557
O O4 0.010254 0.990542 0.696215
O O5 0.296671 0.625000 0.125000
O O6 0.250000 0.500000 0.250000
O O7 0.324987 0.657294 0.260379
O O8 0.411334 0.108798 0.555505
O O9 0.375000 0.875000 0.506114
#
# Coordination Sequence:
#
# PCOD9515144 Si02
#       4
#    32  32  32  16
#     4  10  23  42  72 103 144 189 254 308 374 467
#     4  12  28  47  73 112 154 199 254 323 393 468
#     4  11  22  43  73 107 139 199 255 306 393 475
#     4  10  20  40  73 104 140 185 260 314 376 482
#
# _framework density 23.901596000000001
#
# number of rings (size 3 to 8) (size 9 to 14) (size 15 to 20)
#    0.000    1.143    7.143    0.000    8.000    1.143 
#    0.000    6.429    0.000    0.000    0.000    0.000 
#    0.000    0.000    0.000    0.000    0.000    0.000 
#
# Total GULP energy -156293.603926 kJ/mol
# GULP energy per Si atom -5581.914426 kJ/mol
# Density = 2.384719 g / cm^3
# Si number density = 23.901596 Si / 1000 Ang^3
#
#
#
# Elastic Constant Matrix: (Units=GPa)
#
#
# Indices 1 2 3 4 5 6 
#
# 1 201.6271 75.7262 19.7929 0.0000 0.0000 0.0000
# 2 75.7262 159.9186 23.6282 0.0000 0.0000 0.0000
# 3 19.7929 23.6282 106.0193 0.0000 0.0000 0.0000
# 4 0.0000 0.0000 0.0000 38.3048 0.0000 0.0000
# 5 0.0000 0.0000 0.0000 0.0000 43.4825 0.0000
# 6 0.0000 0.0000 0.0000 0.0000 0.0000 48.9867
#
#
#
# Elastic Compliance Matrix: (Units=1/GPa)
#
#
# Indices 1 2 3 4 5 6 
#
# 1 0.006059 -0.002794 -0.000508 0.000000 0.000000 0.000000
# 2 -0.002794 0.007754 -0.001207 0.000000 0.000000 0.000000
# 3 -0.000508 -0.001207 0.009796 0.000000 0.000000 0.000000
# 4 0.000000 0.000000 0.000000 0.026106 0.000000 0.000000
# 5 0.000000 0.000000 0.000000 0.000000 0.022998 0.000000
# 6 0.000000 0.000000 0.000000 0.000000 0.000000 0.020414
#
#
# Mechanical properties :
#
#
# Convention : Reuss Voigt Hill
#
# Bulk Modulus (GPa) = 68.53345 78.42885 73.48115
# Shear Modulus (GPa) = 46.72499 49.38266 48.05383
#
# Velocity S-wave (km/s) = 4.42621 4.55035 4.48871
# Velocity P-wave (km/s) = 7.40656 7.77766 7.59438
#
# Compressibility (1/GPa) = 0.01459142
#
# Stress axis : x y z
#
# Youngs Moduli (GPa) = 165.04650 128.95783 102.08158
#
# Poissons Ratio (x) = 0.36030 0.05191
# Poissons Ratio (y) = 0.46113 0.12317
# Poissons Ratio (z) = 0.08392 0.15560
#
# Static dielectric constant tensor:
#      x y z
#    x 2.780920 0.000000 0.000000 
#    y 0.000000 1.909280 0.000000 
#    z 0.000000 0.000000 2.167300 
# 
# From -- ./inp_files/10694.got.cif
#   From: 2010.05.17/outbox.cif.g08.bks.cpg/sg70_6_cif.got.tgz:10694.got - 2010.06.03 15:57:51.
