data_PCOD9515068
_publ_section_title
;
Structure prediction by ZEFSAII (Michael W. Deem and Ramdas Pophale) SiO2 
 PCOD9515068
Probable space group: F D D D
;
_chemical_formula_sum "Si O2"
_cell_formula_units_Z 160
_cell_length_a 19.547318
_cell_length_b 22.280743
_cell_length_c 17.601734
_cell_angle_alpha 90.000000
_cell_angle_beta 90.000000
_cell_angle_gamma 90.000000
_cell_volume 7666.061536
_symmetry_space_group_name_H-M "F D D D"
_symmetry_group_IT_number 70
_space_group.IT_coordinate_system_code '2'
_symmetry_cell_setting 'orthorhombic'
loop_
_space_group_symop_operation_xyz
x,y,z
1/4-x,1/4-y,z
x,1/4-y,1/4-z
1/4-x,y,1/4-z
-x,-y,-z
3/4+x,3/4+y,-z
-x,3/4+y,3/4+z
3/4+x,-y,3/4+z
x,1/2+y,1/2+z
1/4-x,3/4-y,1/2+z
x,3/4-y,3/4-z
1/4-x,1/2+y,3/4-z
-x,1/2-y,1/2-z
3/4+x,1/4+y,1/2-z
-x,1/4+y,1/4+z
3/4+x,1/2-y,1/4+z
1/2+x,y,1/2+z
3/4-x,1/4-y,1/2+z
1/2+x,1/4-y,3/4-z
3/4-x,y,3/4-z
1/2-x,-y,1/2-z
1/4+x,3/4+y,1/2-z
1/2-x,3/4+y,1/4+z
1/4+x,-y,1/4+z
1/2+x,1/2+y,z
3/4-x,3/4-y,z
1/2+x,3/4-y,1/4-z
3/4-x,1/2+y,1/4-z
1/2-x,1/2-y,-z
1/4+x,1/4+y,-z
1/2-x,1/4+y,3/4+z
1/4+x,1/2-y,3/4+z
loop_
_atom_site_type_symbol
_atom_site_label
_atom_site_fract_x
_atom_site_fract_y
_atom_site_fract_z
Si Si1 0.875000 0.267353 0.375000
Si Si2 0.625000 0.125000 0.822792
Si Si3 0.424256 0.694888 0.803307
Si Si4 0.511734 0.682053 0.217437
Si Si5 0.857178 0.677008 0.733731
Si Si6 0.073519 0.008931 0.405178
O O1 0.942328 0.306337 0.356990
O O2 0.860923 0.225934 0.301689
O O3 0.559373 0.141875 0.771603
O O4 0.638396 0.183371 0.872693
O O5 0.375000 0.689382 0.875000
O O6 0.433538 0.629470 0.765976
O O7 0.396432 0.735920 0.734785
O O8 0.495609 0.722321 0.830142
O O9 0.500000 0.750000 0.250000
O O10 0.435139 0.657206 0.214016
O O11 0.827868 0.707709 0.658731
#
# Coordination Sequence:
#
# PCOD9515068 Si02
#       6
#    16  16  32  32  32  32
#     4  10  20  39  66 102 142 171 232 278 358 454
#     4  12  22  43  65  98 146 184 220 310 359 433
#     4  11  25  46  68  97 129 187 246 290 349 425
#     4  10  22  41  63 105 142 179 231 276 367 440
#     4  11  22  46  70  99 143 187 228 300 362 435
#     4  11  26  43  66 101 135 177 242 288 356 418
#
# _framework density 20.871213000000001
#
# number of rings (size 3 to 8) (size 9 to 14) (size 15 to 20)
#    0.000    1.200    5.000    1.800    2.800    3.600 
#    7.200    2.500    0.000    0.000    0.000    0.000 
#    0.000    0.000    0.000    0.000    0.000    0.000 
#
# Total GULP energy -223641.562413 kJ/mol
# GULP energy per Si atom -5591.039060 kJ/mol
# Density = 2.082371 g / cm^3
# Si number density = 20.871213 Si / 1000 Ang^3
#
#
#
# Elastic Constant Matrix: (Units=GPa)
#
#
# Indices 1 2 3 4 5 6 
#
# 1 75.9350 33.7028 50.7407 0.0000 0.0000 0.0000
# 2 33.7028 102.4707 62.4148 0.0000 0.0000 0.0000
# 3 50.7407 62.4148 148.9903 0.0000 0.0000 0.0000
# 4 0.0000 0.0000 0.0000 16.8013 0.0000 0.0000
# 5 0.0000 0.0000 0.0000 0.0000 37.5132 0.0000
# 6 0.0000 0.0000 0.0000 0.0000 0.0000 22.3882
#
#
#
# Elastic Compliance Matrix: (Units=1/GPa)
#
#
# Indices 1 2 3 4 5 6 
#
# 1 0.017660 -0.002880 -0.004808 0.000000 0.000000 0.000000
# 2 -0.002880 0.013572 -0.004705 0.000000 0.000000 0.000000
# 3 -0.004808 -0.004705 0.010320 0.000000 0.000000 0.000000
# 4 0.000000 0.000000 0.000000 0.059519 0.000000 0.000000
# 5 0.000000 0.000000 0.000000 0.000000 0.026657 0.000000
# 6 0.000000 0.000000 0.000000 0.000000 0.000000 0.044666
#
#
# Mechanical properties :
#
#
# Convention : Reuss Voigt Hill
#
# Bulk Modulus (GPa) = 59.64127 69.01251 64.32689
# Shear Modulus (GPa) = 24.65865 27.37640 26.01752
#
# Velocity S-wave (km/s) = 3.44098 3.62564 3.53452
# Velocity P-wave (km/s) = 6.66521 7.11792 6.89528
#
# Compressibility (1/GPa) = 0.01676691
#
# Stress axis : x y z
#
# Youngs Moduli (GPa) = 56.62480 73.68283 96.89815
#
# Poissons Ratio (x) = 0.21220 0.46588
# Poissons Ratio (y) = 0.16307 0.45587
# Poissons Ratio (z) = 0.27225 0.34665
#
# Static dielectric constant tensor:
#      x y z
#    x 1.710470 0.000000 0.000000 
#    y 0.000000 1.771210 0.000000 
#    z 0.000000 0.000000 1.757250 
# 
# From -- ./inp_files/36374.got.cif
#   From: 2010.05.17/outbox.cif.g08.bks.cpg/sg70_19_cif.got.tgz:36374.got - 2010.06.03 15:57:51.
