data_PCOD9515699
_publ_section_title
;
Structure prediction by ZEFSAII (Michael W. Deem and Ramdas Pophale) SiO2 
 PCOD9515699
Probable space group: F D D D
;
_chemical_formula_sum "Si O2"
_cell_formula_units_Z 104
_cell_length_a 23.699050
_cell_length_b 18.882856
_cell_length_c 9.312656
_cell_angle_alpha 90.000000
_cell_angle_beta 90.000000
_cell_angle_gamma 90.000000
_cell_volume 4167.467094
_symmetry_space_group_name_H-M "F D D D"
_symmetry_group_IT_number 70
_space_group.IT_coordinate_system_code '2'
_symmetry_cell_setting 'orthorhombic'
loop_
_space_group_symop_operation_xyz
x,y,z
1/4-x,1/4-y,z
x,1/4-y,1/4-z
1/4-x,y,1/4-z
-x,-y,-z
3/4+x,3/4+y,-z
-x,3/4+y,3/4+z
3/4+x,-y,3/4+z
x,1/2+y,1/2+z
1/4-x,3/4-y,1/2+z
x,3/4-y,3/4-z
1/4-x,1/2+y,3/4-z
-x,1/2-y,1/2-z
3/4+x,1/4+y,1/2-z
-x,1/4+y,1/4+z
3/4+x,1/2-y,1/4+z
1/2+x,y,1/2+z
3/4-x,1/4-y,1/2+z
1/2+x,1/4-y,3/4-z
3/4-x,y,3/4-z
1/2-x,-y,1/2-z
1/4+x,3/4+y,1/2-z
1/2-x,3/4+y,1/4+z
1/4+x,-y,1/4+z
1/2+x,1/2+y,z
3/4-x,3/4-y,z
1/2+x,3/4-y,1/4-z
3/4-x,1/2+y,1/4-z
1/2-x,1/2-y,-z
1/4+x,1/4+y,-z
1/2-x,1/4+y,3/4+z
1/4+x,1/2-y,3/4+z
loop_
_atom_site_type_symbol
_atom_site_label
_atom_site_fract_x
_atom_site_fract_y
_atom_site_fract_z
Si Si1 0.625000 0.315758 0.125000
Si Si2 0.733931 0.004083 0.993168
Si Si3 0.187512 0.130222 0.334946
Si Si4 0.304379 0.625000 0.125000
Si Si5 0.625000 0.125000 0.125000
O O1 0.578043 0.269115 0.045333
O O2 0.592872 0.363704 0.237863
O O3 0.772818 0.934234 0.999328
O O4 0.768206 0.055298 0.099596
O O5 0.720226 0.055825 0.858665
O O6 0.125000 0.125000 0.271345
O O7 0.169365 0.153147 0.500441
#
# Coordination Sequence:
#
# PCOD9515699 Si02
#       5
#    16  32  32  16   8
#     4  12  27  43  72 108 141 188 247 304 370 445
#     4  12  23  40  68 102 142 182 242 303 364 425
#     4  10  22  36  61 101 133 177 235 306 355 425
#     4  12  27  43  70 106 145 190 243 310 366 438
#     4   8  20  32  52  92 128 166 224 292 340 408
#
# _framework density 24.955204999999999
#
# number of rings (size 3 to 8) (size 9 to 14) (size 15 to 20)
#    0.923    0.000    3.077    4.615    8.615    0.000 
#    0.000    1.538    0.000    0.000    0.000    0.000 
#    0.000    0.000    0.000    0.000    0.000    0.000 
#
# Total GULP energy -145092.697906 kJ/mol
# GULP energy per Si atom -5580.488381 kJ/mol
# Density = 2.489841 g / cm^3
# Si number density = 24.955205 Si / 1000 Ang^3
#
#
#
# Elastic Constant Matrix: (Units=GPa)
#
#
# Indices 1 2 3 4 5 6 
#
# 1 196.4918 108.7838 47.0957 0.0000 0.0000 0.0000
# 2 108.7838 158.6831 43.2334 0.0000 0.0000 0.0000
# 3 47.0957 43.2334 102.3616 -0.0001 0.0001 0.0000
# 4 0.0000 0.0000 -0.0001 34.2196 0.0000 0.0001
# 5 0.0000 0.0000 0.0001 0.0000 75.2897 -0.0002
# 6 0.0000 0.0000 0.0000 0.0001 -0.0002 -20.5199
#
#
#
# Elastic Compliance Matrix: (Units=1/GPa)
#
#
# Indices 1 2 3 4 5 6 
#
# 1 0.008435 -0.005340 -0.001626 0.000000 0.000000 0.000000
# 2 -0.005340 0.010502 -0.001979 0.000000 0.000000 0.000000
# 3 -0.001626 -0.001979 0.011353 0.000000 0.000000 0.000000
# 4 0.000000 0.000000 0.000000 0.029223 0.000000 0.000000
# 5 0.000000 0.000000 0.000000 0.000000 0.013282 0.000000
# 6 0.000000 0.000000 0.000000 0.000000 0.000000 -0.048733
#
#
# Mechanical properties :
#
#
# Convention : Reuss Voigt Hill
#
# Bulk Modulus (GPa) = 80.63509 95.08469 87.85989
# Shear Modulus (GPa) = 108.49879 35.02613 71.76246
#
# Velocity S-wave (km/s) = 6.60089 3.75048 5.36833
# Velocity P-wave (km/s) = 9.51198 7.54584 8.58538
#
# Compressibility (1/GPa) = 0.01240155
#
# Stress axis : x y z
#
# Youngs Moduli (GPa) = 118.55157 95.22391 88.08287
#
# Poissons Ratio (x) = 0.50847 0.14319
# Poissons Ratio (y) = 0.63303 0.17429
# Poissons Ratio (z) = 0.19272 0.18842
#
# Static dielectric constant tensor:
#      x y z
#    x 1.953130 0.000000 0.000000 
#    y 0.000000 2.187750 0.000000 
#    z 0.000000 0.000000 1.963130 
# 
# From -- ./inp_files/18592.got.cif
#   From: 2010.05.17/outbox.cif.g08.bks.cpg/sg70_10_cif.got.tgz:18592.got - 2010.06.03 15:57:51.
