data_PCOD9515733
_publ_section_title
;
Structure prediction by ZEFSAII (Michael W. Deem and Ramdas Pophale) SiO2 
 PCOD9515733
Probable space group: F D D D
;
_chemical_formula_sum "Si O2"
_cell_formula_units_Z 176
_cell_length_a 20.867690
_cell_length_b 34.302035
_cell_length_c 11.294286
_cell_angle_alpha 90.000000
_cell_angle_beta 90.000000
_cell_angle_gamma 90.000000
_cell_volume 8084.497725
_symmetry_space_group_name_H-M "F D D D"
_symmetry_group_IT_number 70
_space_group.IT_coordinate_system_code '2'
_symmetry_cell_setting 'orthorhombic'
loop_
_space_group_symop_operation_xyz
x,y,z
1/4-x,1/4-y,z
x,1/4-y,1/4-z
1/4-x,y,1/4-z
-x,-y,-z
3/4+x,3/4+y,-z
-x,3/4+y,3/4+z
3/4+x,-y,3/4+z
x,1/2+y,1/2+z
1/4-x,3/4-y,1/2+z
x,3/4-y,3/4-z
1/4-x,1/2+y,3/4-z
-x,1/2-y,1/2-z
3/4+x,1/4+y,1/2-z
-x,1/4+y,1/4+z
3/4+x,1/2-y,1/4+z
1/2+x,y,1/2+z
3/4-x,1/4-y,1/2+z
1/2+x,1/4-y,3/4-z
3/4-x,y,3/4-z
1/2-x,-y,1/2-z
1/4+x,3/4+y,1/2-z
1/2-x,3/4+y,1/4+z
1/4+x,-y,1/4+z
1/2+x,1/2+y,z
3/4-x,3/4-y,z
1/2+x,3/4-y,1/4-z
3/4-x,1/2+y,1/4-z
1/2-x,1/2-y,-z
1/4+x,1/4+y,-z
1/2-x,1/4+y,3/4+z
1/4+x,1/2-y,3/4+z
loop_
_atom_site_type_symbol
_atom_site_label
_atom_site_fract_x
_atom_site_fract_y
_atom_site_fract_z
Si Si1 0.875000 0.276239 0.875000
Si Si2 0.208583 0.304023 0.012317
Si Si3 0.696665 0.360562 0.175693
Si Si4 0.727254 0.162780 0.053413
Si Si5 0.560102 0.786198 0.972630
Si Si6 0.526411 0.973671 0.269840
O O1 0.827115 0.304462 0.946296
O O2 0.834386 0.250449 0.781380
O O3 0.243577 0.280885 0.907850
O O4 0.213692 0.350738 0.002124
O O5 0.135058 0.291008 0.990181
O O6 0.222869 0.296883 0.150973
O O7 0.625000 0.366992 0.125000
O O8 0.700580 0.319816 0.242369
O O9 0.745741 0.353417 0.068558
O O10 0.705027 0.125000 0.125000
O O11 0.785300 0.184065 0.123923
O O12 0.534242 0.742517 0.951444
#
# Coordination Sequence:
#
# PCOD9515733 Si02
#       6
#    16  32  32  32  32  32
#     4  10  25  38  60  94 124 174 202 266 324 374
#     4  11  21  41  62  87 125 162 209 254 321 378
#     4  12  22  38  63  95 123 164 208 269 318 372
#     4  11  21  40  63  89 128 159 216 255 319 383
#     4  10  22  38  62  90 120 166 201 263 316 367
#     4  11  24  38  60  94 127 160 210 260 317 385
#
# _framework density 21.770060000000001
#
# number of rings (size 3 to 8) (size 9 to 14) (size 15 to 20)
#    0.000    1.091    4.545    2.455    2.545    1.455 
#    0.000    0.000    0.000    0.000    0.000    5.091 
#    0.000    0.000    0.000    0.000    0.000    0.000 
#
# Total GULP energy -245634.388827 kJ/mol
# GULP energy per Si atom -5582.599746 kJ/mol
# Density = 2.172051 g / cm^3
# Si number density = 21.770060 Si / 1000 Ang^3
#
#
#
# Elastic Constant Matrix: (Units=GPa)
#
#
# Indices 1 2 3 4 5 6 
#
# 1 46.1466 20.6123 15.8974 0.0000 0.0000 0.0000
# 2 20.6123 129.9259 28.8179 0.0000 0.0000 0.0000
# 3 15.8974 28.8179 72.6516 0.0000 0.0000 0.0000
# 4 0.0000 0.0000 0.0000 33.6944 0.0000 0.0000
# 5 0.0000 0.0000 0.0000 0.0000 21.2724 0.0000
# 6 0.0000 0.0000 0.0000 0.0000 0.0000 14.3277
#
#
#
# Elastic Compliance Matrix: (Units=1/GPa)
#
#
# Indices 1 2 3 4 5 6 
#
# 1 0.024426 -0.002949 -0.004175 0.000000 0.000000 0.000000
# 2 -0.002949 0.008795 -0.002843 0.000000 0.000000 0.000000
# 3 -0.004175 -0.002843 0.015806 0.000000 0.000000 0.000000
# 4 0.000000 0.000000 0.000000 0.029679 0.000000 0.000000
# 5 0.000000 0.000000 0.000000 0.000000 0.047009 0.000000
# 6 0.000000 0.000000 0.000000 0.000000 0.000000 0.069795
#
#
# Mechanical properties :
#
#
# Convention : Reuss Voigt Hill
#
# Bulk Modulus (GPa) = 34.37405 42.15328 38.26367
# Shear Modulus (GPa) = 22.20828 26.08533 24.14680
#
# Velocity S-wave (km/s) = 3.19741 3.46529 3.33404
# Velocity P-wave (km/s) = 5.42726 5.95113 5.69522
#
# Compressibility (1/GPa) = 0.02909171
#
# Stress axis : x y z
#
# Youngs Moduli (GPa) = 40.94072 113.69813 63.26815
#
# Poissons Ratio (x) = 0.33530 0.26414
# Poissons Ratio (y) = 0.12073 0.17990
# Poissons Ratio (z) = 0.17093 0.32329
#
# Static dielectric constant tensor:
#      x y z
#    x 1.778480 0.000000 0.000000 
#    y 0.000000 1.842660 0.000000 
#    z 0.000000 0.000000 1.816910 
# 
# From -- ./inp_files/19649.got.cif
#   From: 2010.05.17/outbox.cif.g08.bks.cpg/sg70_10_cif.got.tgz:19649.got - 2010.06.03 15:57:51.
