data_PCOD9515231
_publ_section_title
;
Structure prediction by ZEFSAII (Michael W. Deem and Ramdas Pophale) SiO2 
 PCOD9515231
Probable space group: F D D D
;
_chemical_formula_sum "Si O2"
_cell_formula_units_Z 160
_cell_length_a 23.553349
_cell_length_b 23.476908
_cell_length_c 13.817863
_cell_angle_alpha 90.000000
_cell_angle_beta 90.000000
_cell_angle_gamma 90.000000
_cell_volume 7640.722865
_symmetry_space_group_name_H-M "F D D D"
_symmetry_group_IT_number 70
_space_group.IT_coordinate_system_code '2'
_symmetry_cell_setting 'orthorhombic'
loop_
_space_group_symop_operation_xyz
x,y,z
1/4-x,1/4-y,z
x,1/4-y,1/4-z
1/4-x,y,1/4-z
-x,-y,-z
3/4+x,3/4+y,-z
-x,3/4+y,3/4+z
3/4+x,-y,3/4+z
x,1/2+y,1/2+z
1/4-x,3/4-y,1/2+z
x,3/4-y,3/4-z
1/4-x,1/2+y,3/4-z
-x,1/2-y,1/2-z
3/4+x,1/4+y,1/2-z
-x,1/4+y,1/4+z
3/4+x,1/2-y,1/4+z
1/2+x,y,1/2+z
3/4-x,1/4-y,1/2+z
1/2+x,1/4-y,3/4-z
3/4-x,y,3/4-z
1/2-x,-y,1/2-z
1/4+x,3/4+y,1/2-z
1/2-x,3/4+y,1/4+z
1/4+x,-y,1/4+z
1/2+x,1/2+y,z
3/4-x,3/4-y,z
1/2+x,3/4-y,1/4-z
3/4-x,1/2+y,1/4-z
1/2-x,1/2-y,-z
1/4+x,1/4+y,-z
1/2-x,1/4+y,3/4+z
1/4+x,1/2-y,3/4+z
loop_
_atom_site_type_symbol
_atom_site_label
_atom_site_fract_x
_atom_site_fract_y
_atom_site_fract_z
Si Si1 0.723777 0.875000 0.875000
Si Si2 0.994537 0.237753 0.635297
Si Si3 0.123887 0.960594 0.820673
Si Si4 0.252072 0.130779 0.333997
Si Si5 0.625000 0.890563 0.125000
Si Si6 0.577372 0.579257 0.750104
O O1 0.679988 0.927928 0.885543
O O2 0.759865 0.882977 0.777792
O O3 0.932032 0.211229 0.618974
O O4 0.000000 0.250000 0.750000
O O5 0.001704 0.300232 0.589103
O O6 0.040627 0.195348 0.589282
O O7 0.135911 0.929088 0.719175
O O8 0.108060 0.024903 0.796871
O O9 0.316288 0.109197 0.354126
O O10 0.212494 0.106364 0.417180
O O11 0.625000 0.625000 0.726163
#
# Coordination Sequence:
#
# PCOD9515231 Si02
#       6
#    16  32  32  32  16  32
#     4  10  24  46  73  92 143 194 238 306 364 446
#     4  12  24  44  66 105 149 183 230 301 373 431
#     4  11  22  43  66  98 141 185 237 292 363 433
#     4  11  24  44  69 101 139 187 245 297 364 436
#     4  10  20  44  61  96 138 183 224 292 354 430
#     4  12  26  45  74 110 140 187 249 302 361 439
#
# _framework density 20.940427
#
# number of rings (size 3 to 8) (size 9 to 14) (size 15 to 20)
#    0.000    0.800    8.000    0.000    5.600    1.600 
#    7.200    0.500    0.000    0.000    0.000    0.000 
#    0.000    0.000    0.000    0.000    0.000    0.000 
#
# Total GULP energy -223682.045811 kJ/mol
# GULP energy per Si atom -5592.051145 kJ/mol
# Density = 2.089277 g / cm^3
# Si number density = 20.940427 Si / 1000 Ang^3
#
#
#
# Elastic Constant Matrix: (Units=GPa)
#
#
# Indices 1 2 3 4 5 6 
#
# 1 103.3938 24.1154 50.0854 0.0000 0.0000 0.0000
# 2 24.1154 86.3870 42.4570 0.0000 0.0000 0.0000
# 3 50.0854 42.4570 149.7713 0.0000 0.0000 0.0000
# 4 0.0000 0.0000 0.0000 9.7993 0.0000 0.0000
# 5 0.0000 0.0000 0.0000 0.0000 41.8439 0.0000
# 6 0.0000 0.0000 0.0000 0.0000 0.0000 23.9831
#
#
#
# Elastic Compliance Matrix: (Units=1/GPa)
#
#
# Indices 1 2 3 4 5 6 
#
# 1 0.011720 -0.001563 -0.003476 0.000000 0.000000 0.000000
# 2 -0.001563 0.013658 -0.003349 0.000000 0.000000 0.000000
# 3 -0.003476 -0.003349 0.008789 0.000000 0.000000 0.000000
# 4 0.000000 0.000000 0.000000 0.102048 0.000000 0.000000
# 5 0.000000 0.000000 0.000000 0.000000 0.023898 0.000000
# 6 0.000000 0.000000 0.000000 0.000000 0.000000 0.041696
#
#
# Mechanical properties :
#
#
# Convention : Reuss Voigt Hill
#
# Bulk Modulus (GPa) = 57.50407 63.65197 60.57802
# Shear Modulus (GPa) = 22.28328 29.98488 26.13408
#
# Velocity S-wave (km/s) = 3.26564 3.78817 3.53657
# Velocity P-wave (km/s) = 6.46062 7.04246 6.75781
#
# Compressibility (1/GPa) = 0.01739007
#
# Stress axis : x y z
#
# Youngs Moduli (GPa) = 85.32175 73.21623 113.78207
#
# Poissons Ratio (x) = 0.11446 0.39554
# Poissons Ratio (y) = 0.13338 0.38106
# Poissons Ratio (z) = 0.29660 0.24520
#
# Static dielectric constant tensor:
#      x y z
#    x 1.798290 0.000000 0.000000 
#    y 0.000000 1.743730 0.000000 
#    z 0.000000 0.000000 1.790820 
# 
# From -- ./inp_files/29946.got.cif
#   From: 2010.05.17/outbox.cif.g08.bks.cpg/sg70_15_cif.got.tgz:29946.got - 2010.06.03 15:57:51.
