data_PCOD9515768
_publ_section_title
;
Structure prediction by ZEFSAII (Michael W. Deem and Ramdas Pophale) SiO2 
 PCOD9515768
Probable space group: F D D D
;
_chemical_formula_sum "Si O2"
_cell_formula_units_Z 208
_cell_length_a 23.832177
_cell_length_b 24.460269
_cell_length_c 14.586709
_cell_angle_alpha 90.000000
_cell_angle_beta 90.000000
_cell_angle_gamma 90.000000
_cell_volume 8503.197445
_symmetry_space_group_name_H-M "F D D D"
_symmetry_group_IT_number 70
_space_group.IT_coordinate_system_code '2'
_symmetry_cell_setting 'orthorhombic'
loop_
_space_group_symop_operation_xyz
x,y,z
1/4-x,1/4-y,z
x,1/4-y,1/4-z
1/4-x,y,1/4-z
-x,-y,-z
3/4+x,3/4+y,-z
-x,3/4+y,3/4+z
3/4+x,-y,3/4+z
x,1/2+y,1/2+z
1/4-x,3/4-y,1/2+z
x,3/4-y,3/4-z
1/4-x,1/2+y,3/4-z
-x,1/2-y,1/2-z
3/4+x,1/4+y,1/2-z
-x,1/4+y,1/4+z
3/4+x,1/2-y,1/4+z
1/2+x,y,1/2+z
3/4-x,1/4-y,1/2+z
1/2+x,1/4-y,3/4-z
3/4-x,y,3/4-z
1/2-x,-y,1/2-z
1/4+x,3/4+y,1/2-z
1/2-x,3/4+y,1/4+z
1/4+x,-y,1/4+z
1/2+x,1/2+y,z
3/4-x,3/4-y,z
1/2+x,3/4-y,1/4-z
3/4-x,1/2+y,1/4-z
1/2-x,1/2-y,-z
1/4+x,1/4+y,-z
1/2-x,1/4+y,3/4+z
1/4+x,1/2-y,3/4+z
loop_
_atom_site_type_symbol
_atom_site_label
_atom_site_fract_x
_atom_site_fract_y
_atom_site_fract_z
Si Si1 0.522261 0.197516 0.851907
Si Si2 0.167828 0.424399 0.244250
Si Si3 0.125000 0.625000 0.125000
Si Si4 0.210140 0.034304 0.054397
Si Si5 0.788423 0.352633 0.015365
Si Si6 0.601731 0.518191 0.363948
Si Si7 0.625000 0.125000 0.625000
Si Si8 0.303241 0.147004 0.283858
O O1 0.585796 0.215266 0.832361
O O2 0.489059 0.153560 0.791022
O O3 0.478189 0.246583 0.861749
O O4 0.531244 0.164349 0.948390
O O5 0.229847 0.413216 0.279899
O O6 0.147845 0.477821 0.299112
O O7 0.114950 0.383937 0.254994
O O8 0.183303 0.422181 0.135104
O O9 0.164753 0.658338 0.059479
O O10 0.181586 0.997780 0.975252
O O11 0.269492 0.058566 0.022727
O O12 0.166809 0.083475 0.072746
O O13 0.813022 0.319230 0.102249
#
# Coordination Sequence:
#
# PCOD9515768 Si02
#       8
#    32  32   8  32  32  32   8  32
#     4  11  23  44  72 106 134 199 240 293 383 439
#     4  10  22  39  69 107 144 196 228 295 386 438
#     4  12  24  34  58 100 150 194 216 282 344 482
#     4  12  26  48  76 102 141 191 255 311 382 446
#     4  11  24  38  63 104 154 187 229 291 368 453
#     4  12  22  42  73 105 141 192 241 300 377 455
#     4  12  32  54  74 100 134 198 268 338 360 428
#     4  10  22  45  72 105 155 186 238 310 366 456
#
# _framework density 24.461387999999999
#
# number of rings (size 3 to 8) (size 9 to 14) (size 15 to 20)
#    0.000    0.923    6.154    1.385    2.154    3.692 
#    0.000    8.462    0.000    0.000    0.000    0.000 
#    0.000    0.000    0.000    0.000    0.000    0.000 
#
# Total GULP energy -290303.772668 kJ/mol
# GULP energy per Si atom -5582.764859 kJ/mol
# Density = 2.440571 g / cm^3
# Si number density = 24.461388 Si / 1000 Ang^3
#
#
#
# Elastic Constant Matrix: (Units=GPa)
#
#
# Indices 1 2 3 4 5 6 
#
# 1 227.1636 36.3741 24.8552 0.0000 0.0000 0.0000
# 2 36.3741 52.3214 7.0252 0.0000 0.0000 0.0000
# 3 24.8552 7.0252 30.9960 0.0000 0.0000 0.0000
# 4 0.0000 0.0000 0.0000 23.7049 0.0000 0.0000
# 5 0.0000 0.0000 0.0000 0.0000 24.8491 0.0000
# 6 0.0000 0.0000 0.0000 0.0000 0.0000 10.1722
#
#
#
# Elastic Compliance Matrix: (Units=1/GPa)
#
#
# Indices 1 2 3 4 5 6 
#
# 1 0.005302 -0.003213 -0.003523 0.000000 0.000000 0.000000
# 2 -0.003213 0.021660 -0.002333 0.000000 0.000000 0.000000
# 3 -0.003523 -0.002333 0.035616 0.000000 0.000000 0.000000
# 4 0.000000 0.000000 0.000000 0.042185 0.000000 0.000000
# 5 0.000000 0.000000 0.000000 0.000000 0.040243 0.000000
# 6 0.000000 0.000000 0.000000 0.000000 0.000000 0.098307
#
#
# Mechanical properties :
#
#
# Convention : Reuss Voigt Hill
#
# Bulk Modulus (GPa) = 22.50238 49.66556 36.08397
# Shear Modulus (GPa) = 18.09855 27.89365 22.99610
#
# Velocity S-wave (km/s) = 2.72303 3.38052 3.06943
# Velocity P-wave (km/s) = 4.37100 5.96531 5.22927
#
# Compressibility (1/GPa) = 0.04443974
#
# Stress axis : x y z
#
# Youngs Moduli (GPa) = 188.60445 46.16908 28.07698
#
# Poissons Ratio (x) = 0.14834 0.09893
# Poissons Ratio (y) = 0.60598 0.06550
# Poissons Ratio (z) = 0.66454 0.10770
#
# Static dielectric constant tensor:
#      x y z
#    x 2.158410 0.000000 0.000000 
#    y 0.000000 1.954870 0.000000 
#    z 0.000000 0.000000 2.054720 
# 
# From -- ./inp_files/37741.got.cif
#   From: 2010.05.17/outbox.cif.g08.bks.cpg/sg70_19_cif.got.tgz:37741.got - 2010.06.03 15:57:51.
