data_PCOD9515510
_publ_section_title
;
Structure prediction by ZEFSAII (Michael W. Deem and Ramdas Pophale) SiO2 
 PCOD9515510
Probable space group: F D D D
;
_chemical_formula_sum "Si O2"
_cell_formula_units_Z 192
_cell_length_a 24.987492
_cell_length_b 10.673659
_cell_length_c 34.273289
_cell_angle_alpha 90.000000
_cell_angle_beta 90.000000
_cell_angle_gamma 90.000000
_cell_volume 9140.959296
_symmetry_space_group_name_H-M "F D D D"
_symmetry_group_IT_number 70
_space_group.IT_coordinate_system_code '2'
_symmetry_cell_setting 'orthorhombic'
loop_
_space_group_symop_operation_xyz
x,y,z
1/4-x,1/4-y,z
x,1/4-y,1/4-z
1/4-x,y,1/4-z
-x,-y,-z
3/4+x,3/4+y,-z
-x,3/4+y,3/4+z
3/4+x,-y,3/4+z
x,1/2+y,1/2+z
1/4-x,3/4-y,1/2+z
x,3/4-y,3/4-z
1/4-x,1/2+y,3/4-z
-x,1/2-y,1/2-z
3/4+x,1/4+y,1/2-z
-x,1/4+y,1/4+z
3/4+x,1/2-y,1/4+z
1/2+x,y,1/2+z
3/4-x,1/4-y,1/2+z
1/2+x,1/4-y,3/4-z
3/4-x,y,3/4-z
1/2-x,-y,1/2-z
1/4+x,3/4+y,1/2-z
1/2-x,3/4+y,1/4+z
1/4+x,-y,1/4+z
1/2+x,1/2+y,z
3/4-x,3/4-y,z
1/2+x,3/4-y,1/4-z
3/4-x,1/2+y,1/4-z
1/2-x,1/2-y,-z
1/4+x,1/4+y,-z
1/2-x,1/4+y,3/4+z
1/4+x,1/2-y,3/4+z
loop_
_atom_site_type_symbol
_atom_site_label
_atom_site_fract_x
_atom_site_fract_y
_atom_site_fract_z
Si Si1 0.125000 0.125000 0.125000
Si Si2 0.060777 0.375000 0.375000
Si Si3 0.679078 0.491571 0.516086
Si Si4 0.217726 0.007664 0.073935
Si Si5 0.390529 0.569240 0.045535
Si Si6 0.294687 0.335939 0.736724
Si Si7 0.375000 0.375000 0.375000
Si Si8 0.323065 0.743859 0.945125
O O1 0.085040 0.210785 0.099310
O O2 0.098575 0.433821 0.408368
O O3 0.018998 0.289738 0.399704
O O4 0.660271 0.450636 0.473009
O O5 0.734575 0.429906 0.527784
O O6 0.685649 0.639134 0.525705
O O7 0.630243 0.439029 0.541560
O O8 0.219326 0.864906 0.058715
O O9 0.210537 0.083265 0.033582
O O10 0.332041 0.525854 0.030563
O O11 0.428852 0.463784 0.026982
O O12 0.336000 0.451733 0.347117
#
# Coordination Sequence:
#
# PCOD9515510 Si02
#       8
#     8  16  32  32  32  32   8  32
#     4  10  22  32  60  98 130 160 208 300 332 362
#     4  11  26  41  63  98 140 169 207 285 342 392
#     4  10  21  40  67  93 127 172 220 270 318 388
#     4  11  22  39  64 100 125 169 223 271 331 391
#     4  11  23  44  64 100 130 167 227 274 332 387
#     4  11  23  41  71  92 124 177 224 268 315 406
#     4   8  18  36  54  82 138 160 190 272 330 356
#     4  10  22  39  61 101 126 172 219 270 320 393
#
# _framework density 21.004359000000001
#
# number of rings (size 3 to 8) (size 9 to 14) (size 15 to 20)
#    0.000    1.667    3.333    2.000    0.000    4.667 
#    0.000   10.000    0.000    0.000    0.000    0.000 
#    0.000    0.000    0.000    0.000    0.000    0.000 
#
# Total GULP energy -267745.186822 kJ/mol
# GULP energy per Si atom -5578.024725 kJ/mol
# Density = 2.095655 g / cm^3
# Si number density = 21.004359 Si / 1000 Ang^3
#
#
#
# Elastic Constant Matrix: (Units=GPa)
#
#
# Indices 1 2 3 4 5 6 
#
# 1 80.5804 -2.3066 23.5971 0.0004 0.0000 0.0000
# 2 -2.3066 74.6004 34.0131 0.0005 0.0000 0.0000
# 3 23.5971 34.0131 140.1235 0.0001 0.0000 0.0000
# 4 0.0004 0.0005 0.0001 1463.9102 0.0004 -0.0003
# 5 0.0000 0.0000 0.0000 0.0004 31.1118 0.0000
# 6 0.0000 0.0000 0.0000 -0.0003 0.0000 3.4698
#
#
#
# Elastic Compliance Matrix: (Units=1/GPa)
#
#
# Indices 1 2 3 4 5 6 
#
# 1 0.013222 0.001601 -0.002615 0.000000 0.000000 0.000000
# 2 0.001601 0.015267 -0.003975 0.000000 0.000000 0.000000
# 3 -0.002615 -0.003975 0.008542 0.000000 0.000000 0.000000
# 4 0.000000 0.000000 0.000000 0.000683 0.000000 0.000000
# 5 0.000000 0.000000 0.000000 0.000000 0.032142 0.000000
# 6 0.000000 0.000000 0.000000 0.000000 0.000000 0.288199
#
#
# Mechanical properties :
#
#
# Convention : Reuss Voigt Hill
#
# Bulk Modulus (GPa) = 36.96661 45.10126 41.03393
# Shear Modulus (GPa) = 13.26081 315.69841 164.47961
#
# Velocity S-wave (km/s) = 2.51537 12.27305 8.85875
# Velocity P-wave (km/s) = 5.10625 14.91160 11.14517
#
# Compressibility (1/GPa) = 0.02705144
#
# Stress axis : x y z
#
# Youngs Moduli (GPa) = 75.63355 65.50155 117.06915
#
# Poissons Ratio (x) = -0.10488 0.30616
# Poissons Ratio (y) = -0.12110 0.46540
# Poissons Ratio (z) = 0.19780 0.26040
#
# Static dielectric constant tensor:
#      x y z
#    x 1.750240 0.000000 0.000000 
#    y 0.000000 1.812740 0.000000 
#    z 0.000000 0.000000 1.784400 
# 
# From -- ./inp_files/68434.got.cif
#   From: 2010.05.17/outbox.cif.g08.bks.cpg/sg70_35_cif.got.tgz:68434.got - 2010.06.03 15:57:51.
