data_PCOD9515657
_publ_section_title
;
Structure prediction by ZEFSAII (Michael W. Deem and Ramdas Pophale) SiO2 
 PCOD9515657
Probable space group: F D D D
;
_chemical_formula_sum "Si O2"
_cell_formula_units_Z 176
_cell_length_a 18.269790
_cell_length_b 27.048938
_cell_length_c 15.367012
_cell_angle_alpha 90.000000
_cell_angle_beta 90.000000
_cell_angle_gamma 90.000000
_cell_volume 7594.045664
_symmetry_space_group_name_H-M "F D D D"
_symmetry_group_IT_number 70
_space_group.IT_coordinate_system_code '2'
_symmetry_cell_setting 'orthorhombic'
loop_
_space_group_symop_operation_xyz
x,y,z
1/4-x,1/4-y,z
x,1/4-y,1/4-z
1/4-x,y,1/4-z
-x,-y,-z
3/4+x,3/4+y,-z
-x,3/4+y,3/4+z
3/4+x,-y,3/4+z
x,1/2+y,1/2+z
1/4-x,3/4-y,1/2+z
x,3/4-y,3/4-z
1/4-x,1/2+y,3/4-z
-x,1/2-y,1/2-z
3/4+x,1/4+y,1/2-z
-x,1/4+y,1/4+z
3/4+x,1/2-y,1/4+z
1/2+x,y,1/2+z
3/4-x,1/4-y,1/2+z
1/2+x,1/4-y,3/4-z
3/4-x,y,3/4-z
1/2-x,-y,1/2-z
1/4+x,3/4+y,1/2-z
1/2-x,3/4+y,1/4+z
1/4+x,-y,1/4+z
1/2+x,1/2+y,z
3/4-x,3/4-y,z
1/2+x,3/4-y,1/4-z
3/4-x,1/2+y,1/4-z
1/2-x,1/2-y,-z
1/4+x,1/4+y,-z
1/2-x,1/4+y,3/4+z
1/4+x,1/2-y,3/4+z
loop_
_atom_site_type_symbol
_atom_site_label
_atom_site_fract_x
_atom_site_fract_y
_atom_site_fract_z
Si Si1 0.483275 0.929342 0.907403
Si Si2 0.537071 0.734269 0.340771
Si Si3 0.172983 0.174303 0.399879
Si Si4 0.950024 0.135738 0.323930
Si Si5 0.875000 0.510256 0.875000
Si Si6 0.101738 0.818162 0.946864
O O1 0.460053 0.875000 0.875000
O O2 0.443349 0.973524 0.858254
O O3 0.570533 0.930633 0.898105
O O4 0.454400 0.938401 0.005857
O O5 0.500000 0.750000 0.250000
O O6 0.620193 0.712863 0.350743
O O7 0.488411 0.685614 0.357947
O O8 0.542568 0.782440 0.401701
O O9 0.125000 0.125000 0.413345
O O10 0.242860 0.157715 0.345140
O O11 0.875000 0.134539 0.375000
O O12 0.928300 0.122469 0.224471
O O13 0.873041 0.542566 0.788134
#
# Coordination Sequence:
#
# PCOD9515657 Si02
#       6
#    32  32  32  32  16  32
#     4  12  25  40  73 113 148 184 241 324 397 466
#     4  11  28  46  71 105 153 207 258 310 385 485
#     4  10  21  44  69 105 148 188 241 313 385 461
#     4  11  24  45  74 105 146 200 252 326 397 448
#     4  12  23  42  70 112 146 188 238 305 406 472
#     4  12  26  43  72 107 153 194 257 314 391 474
#
# _framework density 23.176053
#
# number of rings (size 3 to 8) (size 9 to 14) (size 15 to 20)
#    0.000    0.727    4.545    1.909    7.636    1.455 
#    0.000    0.000    0.000    3.273    0.000    0.000 
#    0.000    0.000    0.000    0.000    0.000    0.000 
#
# Total GULP energy -245645.368558 kJ/mol
# GULP energy per Si atom -5582.849285 kJ/mol
# Density = 2.312330 g / cm^3
# Si number density = 23.176053 Si / 1000 Ang^3
#
#
#
# Elastic Constant Matrix: (Units=GPa)
#
#
# Indices 1 2 3 4 5 6 
#
# 1 145.9545 45.9243 35.6746 0.0000 0.0000 0.0000
# 2 45.9243 107.9223 22.2316 0.0000 0.0000 0.0000
# 3 35.6746 22.2316 67.9487 0.0000 0.0000 0.0000
# 4 0.0000 0.0000 0.0000 32.2829 0.0000 0.0000
# 5 0.0000 0.0000 0.0000 0.0000 44.5745 0.0000
# 6 0.0000 0.0000 0.0000 0.0000 0.0000 37.9388
#
#
#
# Elastic Compliance Matrix: (Units=1/GPa)
#
#
# Indices 1 2 3 4 5 6 
#
# 1 0.008653 -0.002945 -0.003580 0.000000 0.000000 0.000000
# 2 -0.002945 0.010938 -0.002033 0.000000 0.000000 0.000000
# 3 -0.003580 -0.002033 0.017261 0.000000 0.000000 0.000000
# 4 0.000000 0.000000 0.000000 0.030976 0.000000 0.000000
# 5 0.000000 0.000000 0.000000 0.000000 0.022434 0.000000
# 6 0.000000 0.000000 0.000000 0.000000 0.000000 0.026358
#
#
# Mechanical properties :
#
#
# Convention : Reuss Voigt Hill
#
# Bulk Modulus (GPa) = 50.66285 58.83184 54.74734
# Shear Modulus (GPa) = 35.63442 37.49224 36.56333
#
# Velocity S-wave (km/s) = 3.92542 4.02645 3.97625
# Velocity P-wave (km/s) = 6.51557 6.85975 6.68988
#
# Compressibility (1/GPa) = 0.01973833
#
# Stress axis : x y z
#
# Youngs Moduli (GPa) = 115.56788 91.42687 57.93291
#
# Poissons Ratio (x) = 0.26923 0.20737
# Poissons Ratio (y) = 0.34032 0.11775
# Poissons Ratio (z) = 0.41368 0.18583
#
# Static dielectric constant tensor:
#      x y z
#    x 1.909300 0.000000 0.000000 
#    y 0.000000 2.038600 0.000000 
#    z 0.000000 0.000000 1.928370 
# 
# From -- ./inp_files/35284.got.cif
#   From: 2010.05.17/outbox.cif.g08.bks.cpg/sg70_18_cif.got.tgz:35284.got - 2010.06.03 15:57:51.
