data_PCOD9515852
_publ_section_title
;
Structure prediction by ZEFSAII (Michael W. Deem and Ramdas Pophale) SiO2 
 PCOD9515852
Probable space group: F D D D
;
_chemical_formula_sum "Si O2"
_cell_formula_units_Z 120
_cell_length_a 13.087833
_cell_length_b 25.748003
_cell_length_c 14.458657
_cell_angle_alpha 90.000000
_cell_angle_beta 90.000000
_cell_angle_gamma 90.000000
_cell_volume 4872.358674
_symmetry_space_group_name_H-M "F D D D"
_symmetry_group_IT_number 70
_space_group.IT_coordinate_system_code '2'
_symmetry_cell_setting 'orthorhombic'
loop_
_space_group_symop_operation_xyz
x,y,z
1/4-x,1/4-y,z
x,1/4-y,1/4-z
1/4-x,y,1/4-z
-x,-y,-z
3/4+x,3/4+y,-z
-x,3/4+y,3/4+z
3/4+x,-y,3/4+z
x,1/2+y,1/2+z
1/4-x,3/4-y,1/2+z
x,3/4-y,3/4-z
1/4-x,1/2+y,3/4-z
-x,1/2-y,1/2-z
3/4+x,1/4+y,1/2-z
-x,1/4+y,1/4+z
3/4+x,1/2-y,1/4+z
1/2+x,y,1/2+z
3/4-x,1/4-y,1/2+z
1/2+x,1/4-y,3/4-z
3/4-x,y,3/4-z
1/2-x,-y,1/2-z
1/4+x,3/4+y,1/2-z
1/2-x,3/4+y,1/4+z
1/4+x,-y,1/4+z
1/2+x,1/2+y,z
3/4-x,3/4-y,z
1/2+x,3/4-y,1/4-z
3/4-x,1/2+y,1/4-z
1/2-x,1/2-y,-z
1/4+x,1/4+y,-z
1/2-x,1/4+y,3/4+z
1/4+x,1/2-y,3/4+z
loop_
_atom_site_type_symbol
_atom_site_label
_atom_site_fract_x
_atom_site_fract_y
_atom_site_fract_z
Si Si1 0.125000 0.625000 0.125000
Si Si2 0.077109 0.946603 0.808662
Si Si3 0.766695 0.905829 0.761704
Si Si4 0.875000 0.701623 0.875000
Si Si5 0.754618 0.032520 0.055594
O O1 0.190499 0.585493 0.061650
O O2 0.181408 0.966640 0.851258
O O3 0.072061 0.887215 0.777320
O O4 0.057366 0.981575 0.719685
O O5 0.997245 0.943443 0.898079
O O6 0.875000 0.875000 0.761716
O O7 0.734290 0.928279 0.663100
O O8 0.836731 0.722036 0.777076
#
# Coordination Sequence:
#
# PCOD9515852 Si02
#       5
#     8  32  32  16  32
#     4  12  28  50  64 104 142 190 232 302 352 422
#     4  10  23  43  67 101 134 182 232 296 348 424
#     4  10  22  41  66 100 145 184 233 301 349 422
#     4  10  24  39  64  99 134 185 232 283 350 416
#     4  11  26  43  70  97 142 177 241 291 353 422
#
# _framework density 24.628730000000001
#
# number of rings (size 3 to 8) (size 9 to 14) (size 15 to 20)
#    0.000    1.600    0.000    4.800    9.333    4.267 
#    0.000    0.000    0.000    0.000    0.000    0.000 
#    0.000    0.000    0.000    0.000    0.000    0.000 
#
# Total GULP energy -167023.093893 kJ/mol
# GULP energy per Si atom -5567.436463 kJ/mol
# Density = 2.457267 g / cm^3
# Si number density = 24.628730 Si / 1000 Ang^3
#
#
#
# Elastic Constant Matrix: (Units=GPa)
#
#
# Indices 1 2 3 4 5 6 
#
# 1 84.5705 21.4720 17.4754 0.0000 0.0000 0.0000
# 2 21.4720 96.1886 14.9998 0.0000 0.0000 0.0000
# 3 17.4754 14.9998 42.7324 0.0000 0.0000 0.0000
# 4 0.0000 0.0000 0.0000 24.0331 0.0000 0.0000
# 5 0.0000 0.0000 0.0000 0.0000 274.2149 0.0000
# 6 0.0000 0.0000 0.0000 0.0000 0.0000 5.1057
#
#
#
# Elastic Compliance Matrix: (Units=1/GPa)
#
#
# Indices 1 2 3 4 5 6 
#
# 1 0.013362 -0.002254 -0.004673 0.000000 0.000000 0.000000
# 2 -0.002254 0.011379 -0.003072 0.000000 0.000000 0.000000
# 3 -0.004673 -0.003072 0.026391 0.000000 0.000000 0.000000
# 4 0.000000 0.000000 0.000000 0.041609 0.000000 0.000000
# 5 0.000000 0.000000 0.000000 0.000000 0.003647 0.000000
# 6 0.000000 0.000000 0.000000 0.000000 0.000000 0.195859
#
#
# Mechanical properties :
#
#
# Convention : Reuss Voigt Hill
#
# Bulk Modulus (GPa) = 32.12068 36.82067 34.47068
# Shear Modulus (GPa) = 15.49793 71.97370 43.73582
#
# Velocity S-wave (km/s) = 2.51123 5.41174 4.21860
# Velocity P-wave (km/s) = 4.63451 7.35064 6.14453
#
# Compressibility (1/GPa) = 0.03113259
#
# Stress axis : x y z
#
# Youngs Moduli (GPa) = 74.83659 87.88492 37.89169
#
# Poissons Ratio (x) = 0.19810 0.17708
# Poissons Ratio (y) = 0.16869 0.11641
# Poissons Ratio (z) = 0.34974 0.27000
#
# Static dielectric constant tensor:
#      x y z
#    x 2.179220 0.000000 0.000000 
#    y 0.000000 2.086740 0.000000 
#    z 0.000000 0.000000 1.969960 
# 
# From -- ./inp_files/25492.got.cif
#   From: 2010.05.17/outbox.cif.g08.bks.cpg/sg70_13_cif.got.tgz:25492.got - 2010.06.03 15:57:51.
