data_PCOD9515372
_publ_section_title
;
Structure prediction by ZEFSAII (Michael W. Deem and Ramdas Pophale) SiO2 
 PCOD9515372
Probable space group: F D D D
;
_chemical_formula_sum "Si O2"
_cell_formula_units_Z 168
_cell_length_a 17.137951
_cell_length_b 21.687338
_cell_length_c 20.668959
_cell_angle_alpha 90.000000
_cell_angle_beta 90.000000
_cell_angle_gamma 90.000000
_cell_volume 7682.167083
_symmetry_space_group_name_H-M "F D D D"
_symmetry_group_IT_number 70
_space_group.IT_coordinate_system_code '2'
_symmetry_cell_setting 'orthorhombic'
loop_
_space_group_symop_operation_xyz
x,y,z
1/4-x,1/4-y,z
x,1/4-y,1/4-z
1/4-x,y,1/4-z
-x,-y,-z
3/4+x,3/4+y,-z
-x,3/4+y,3/4+z
3/4+x,-y,3/4+z
x,1/2+y,1/2+z
1/4-x,3/4-y,1/2+z
x,3/4-y,3/4-z
1/4-x,1/2+y,3/4-z
-x,1/2-y,1/2-z
3/4+x,1/4+y,1/2-z
-x,1/4+y,1/4+z
3/4+x,1/2-y,1/4+z
1/2+x,y,1/2+z
3/4-x,1/4-y,1/2+z
1/2+x,1/4-y,3/4-z
3/4-x,y,3/4-z
1/2-x,-y,1/2-z
1/4+x,3/4+y,1/2-z
1/2-x,3/4+y,1/4+z
1/4+x,-y,1/4+z
1/2+x,1/2+y,z
3/4-x,3/4-y,z
1/2+x,3/4-y,1/4-z
3/4-x,1/2+y,1/4-z
1/2-x,1/2-y,-z
1/4+x,1/4+y,-z
1/2-x,1/4+y,3/4+z
1/4+x,1/2-y,3/4+z
loop_
_atom_site_type_symbol
_atom_site_label
_atom_site_fract_x
_atom_site_fract_y
_atom_site_fract_z
Si Si1 0.463065 0.940600 0.192388
Si Si2 0.763527 0.039810 0.943343
Si Si3 0.129468 0.040814 0.734667
Si Si4 0.222740 0.547638 0.803956
Si Si5 0.462889 0.175544 0.300622
Si Si6 0.125000 0.625000 0.125000
O O1 0.370333 0.951741 0.183743
O O2 0.485195 0.870222 0.211687
O O3 0.504186 0.945657 0.121340
O O4 0.477595 0.988119 0.251856
O O5 0.768936 0.025634 0.868139
O O6 0.808904 0.103835 0.952785
O O7 0.672220 0.056330 0.954096
O O8 0.217248 0.063532 0.748984
O O9 0.088706 0.076758 0.675380
O O10 0.141892 0.969726 0.717805
O O11 0.250000 0.500000 0.750000
#
# Coordination Sequence:
#
# PCOD9515372 Si02
#       6
#    32  32  32  32  32   8
#     4  10  22  41  67  89 120 170 206 253 324 376
#     4  11  21  41  64  88 127 166 205 257 314 376
#     4  11  21  35  58  92 127 162 196 247 304 375
#     4  10  23  43  64  89 122 162 215 268 312 365
#     4  10  21  38  59  90 127 162 201 243 308 379
#     4  12  20  32  60  92 128 160 210 250 314 388
#
# _framework density 21.868829000000002
#
# number of rings (size 3 to 8) (size 9 to 14) (size 15 to 20)
#    0.000    1.524    3.810    1.143    0.000    3.048 
#    0.000    5.714    0.000    0.000    0.000    0.000 
#    0.000    0.000    0.000    0.000    0.000    0.000 
#
# Total GULP energy -233983.721496 kJ/mol
# GULP energy per Si atom -5571.040988 kJ/mol
# Density = 2.181905 g / cm^3
# Si number density = 21.868829 Si / 1000 Ang^3
#
#
#
# Elastic Constant Matrix: (Units=GPa)
#
#
# Indices 1 2 3 4 5 6 
#
# 1 38.0076 27.4686 9.8019 0.0000 0.0000 0.0000
# 2 27.4686 142.3977 91.0624 0.0000 0.0000 0.0000
# 3 9.8019 91.0624 143.9078 0.0000 0.0000 0.0000
# 4 0.0000 0.0000 0.0000 46.1440 0.0000 0.0000
# 5 0.0000 0.0000 0.0000 0.0000 22.6839 0.0000
# 6 0.0000 0.0000 0.0000 0.0000 0.0000 33.8119
#
#
#
# Elastic Compliance Matrix: (Units=1/GPa)
#
#
# Indices 1 2 3 4 5 6 
#
# 1 0.031245 -0.007838 0.002832 0.000000 0.000000 0.000000
# 2 -0.007838 0.013762 -0.008175 0.000000 0.000000 0.000000
# 3 0.002832 -0.008175 0.011929 0.000000 0.000000 0.000000
# 4 0.000000 0.000000 0.000000 0.021671 0.000000 0.000000
# 5 0.000000 0.000000 0.000000 0.000000 0.044084 0.000000
# 6 0.000000 0.000000 0.000000 0.000000 0.000000 0.029575
#
#
# Mechanical properties :
#
#
# Convention : Reuss Voigt Hill
#
# Bulk Modulus (GPa) = 32.70767 64.55321 48.63044
# Shear Modulus (GPa) = 26.48031 33.59333 30.03682
#
# Velocity S-wave (km/s) = 3.48353 3.92360 3.71010
# Velocity P-wave (km/s) = 5.58290 7.07874 6.37485
#
# Compressibility (1/GPa) = 0.03057386
#
# Stress axis : x y z
#
# Youngs Moduli (GPa) = 32.00526 72.66337 83.83106
#
# Poissons Ratio (x) = 0.56953 -0.23737
# Poissons Ratio (y) = 0.25085 0.68528
# Poissons Ratio (z) = -0.09062 0.59399
#
# Static dielectric constant tensor:
#      x y z
#    x 1.887730 0.000000 0.000000 
#    y 0.000000 1.853250 0.000000 
#    z 0.000000 0.000000 1.770790 
# 
# From -- ./inp_files/44831.got.cif
#   From: 2010.05.17/outbox.cif.g08.bks.cpg/sg70_23_cif.got.tgz:44831.got - 2010.06.03 15:57:51.
