data_PCOD9515384
_publ_section_title
;
Structure prediction by ZEFSAII (Michael W. Deem and Ramdas Pophale) SiO2 
 PCOD9515384
Probable space group: F D D D
;
_chemical_formula_sum "Si O2"
_cell_formula_units_Z 168
_cell_length_a 16.331558
_cell_length_b 22.304614
_cell_length_c 20.325543
_cell_angle_alpha 90.000000
_cell_angle_beta 90.000000
_cell_angle_gamma 90.000000
_cell_volume 7403.967199
_symmetry_space_group_name_H-M "F D D D"
_symmetry_group_IT_number 70
_space_group.IT_coordinate_system_code '2'
_symmetry_cell_setting 'orthorhombic'
loop_
_space_group_symop_operation_xyz
x,y,z
1/4-x,1/4-y,z
x,1/4-y,1/4-z
1/4-x,y,1/4-z
-x,-y,-z
3/4+x,3/4+y,-z
-x,3/4+y,3/4+z
3/4+x,-y,3/4+z
x,1/2+y,1/2+z
1/4-x,3/4-y,1/2+z
x,3/4-y,3/4-z
1/4-x,1/2+y,3/4-z
-x,1/2-y,1/2-z
3/4+x,1/4+y,1/2-z
-x,1/4+y,1/4+z
3/4+x,1/2-y,1/4+z
1/2+x,y,1/2+z
3/4-x,1/4-y,1/2+z
1/2+x,1/4-y,3/4-z
3/4-x,y,3/4-z
1/2-x,-y,1/2-z
1/4+x,3/4+y,1/2-z
1/2-x,3/4+y,1/4+z
1/4+x,-y,1/4+z
1/2+x,1/2+y,z
3/4-x,3/4-y,z
1/2+x,3/4-y,1/4-z
3/4-x,1/2+y,1/4-z
1/2-x,1/2-y,-z
1/4+x,1/4+y,-z
1/2-x,1/4+y,3/4+z
1/4+x,1/2-y,3/4+z
loop_
_atom_site_type_symbol
_atom_site_label
_atom_site_fract_x
_atom_site_fract_y
_atom_site_fract_z
Si Si1 0.375000 0.375000 0.875000
Si Si2 0.174957 0.755550 0.828075
Si Si3 0.379611 0.124664 0.523356
Si Si4 0.035266 0.931411 0.592077
Si Si5 0.007505 0.566303 0.418661
Si Si6 0.760070 0.282278 0.308860
O O1 0.426373 0.333329 0.922585
O O2 0.153344 0.824848 0.822132
O O3 0.225732 0.736847 0.892898
O O4 0.094568 0.713811 0.815034
O O5 0.229650 0.743520 0.763541
O O6 0.309333 0.153700 0.477849
O O7 0.444577 0.084778 0.477384
O O8 0.426716 0.180166 0.555588
O O9 0.125000 0.941522 0.625000
O O10 0.987613 0.878851 0.630784
O O11 0.976913 0.518093 0.364447
#
# Coordination Sequence:
#
# PCOD9515384 Si02
#       6
#     8  32  32  32  32  32
#     4  12  24  32  52 100 132 156 210 264 316 432
#     4  12  22  38  66  89 131 179 213 266 337 382
#     4  11  23  42  63  97 139 175 208 279 334 391
#     4  10  21  38  62  92 129 169 225 261 316 408
#     4  11  22  39  61 100 131 169 220 269 328 415
#     4  12  23  38  62  94 136 170 213 267 344 388
#
# _framework density 22.690538
#
# number of rings (size 3 to 8) (size 9 to 14) (size 15 to 20)
#    0.000    0.762    5.714    4.571    1.333    0.000 
#    0.000    0.952    0.000    0.000    0.000    0.000 
#    0.000    0.000    0.000    0.000    0.000    0.000 
#
# Total GULP energy -234566.111515 kJ/mol
# GULP energy per Si atom -5584.907417 kJ/mol
# Density = 2.263889 g / cm^3
# Si number density = 22.690538 Si / 1000 Ang^3
#
#
#
# Elastic Constant Matrix: (Units=GPa)
#
#
# Indices 1 2 3 4 5 6 
#
# 1 64.9722 28.8880 42.8105 0.0000 0.0000 0.0000
# 2 28.8880 63.7240 31.6146 0.0000 0.0000 0.0000
# 3 42.8105 31.6146 79.7363 0.0000 0.0000 0.0000
# 4 0.0000 0.0000 0.0000 28.9873 0.0000 0.0000
# 5 0.0000 0.0000 0.0000 0.0000 16.8459 0.0000
# 6 0.0000 0.0000 0.0000 0.0000 0.0000 41.0780
#
#
#
# Elastic Compliance Matrix: (Units=1/GPa)
#
#
# Indices 1 2 3 4 5 6 
#
# 1 0.025501 -0.005935 -0.011338 0.000000 0.000000 0.000000
# 2 -0.005935 0.020917 -0.005107 0.000000 0.000000 0.000000
# 3 -0.011338 -0.005107 0.020654 0.000000 0.000000 0.000000
# 4 0.000000 0.000000 0.000000 0.034498 0.000000 0.000000
# 5 0.000000 0.000000 0.000000 0.000000 0.059362 0.000000
# 6 0.000000 0.000000 0.000000 0.000000 0.000000 0.024344
#
#
# Mechanical properties :
#
#
# Convention : Reuss Voigt Hill
#
# Bulk Modulus (GPa) = 44.82078 46.11765 45.46921
# Shear Modulus (GPa) = 21.05512 24.39021 22.72266
#
# Velocity S-wave (km/s) = 3.04949 3.28213 3.16795
# Velocity P-wave (km/s) = 5.67408 5.89338 5.78477
#
# Compressibility (1/GPa) = 0.02231108
#
# Stress axis : x y z
#
# Youngs Moduli (GPa) = 39.21427 47.80843 48.41776
#
# Poissons Ratio (x) = 0.28375 0.54897
# Poissons Ratio (y) = 0.23275 0.24725
# Poissons Ratio (z) = 0.44462 0.24414
#
# Static dielectric constant tensor:
#      x y z
#    x 1.936010 0.000000 0.000000 
#    y 0.000000 1.596100 0.000000 
#    z 0.000000 0.000000 1.901300 
# 
# From -- ./inp_files/43806.got.cif
#   From: 2010.05.17/outbox.cif.g08.bks.cpg/sg70_22_cif.got.tgz:43806.got - 2010.06.03 15:57:51.
