data_PCOD9515864
_publ_section_title
;
Structure prediction by ZEFSAII (Michael W. Deem and Ramdas Pophale) SiO2 
 PCOD9515864
Probable space group: F D D D
;
_chemical_formula_sum "Si O2"
_cell_formula_units_Z 144
_cell_length_a 13.701821
_cell_length_b 34.272640
_cell_length_c 16.132045
_cell_angle_alpha 90.000000
_cell_angle_beta 90.000000
_cell_angle_gamma 90.000000
_cell_volume 7575.569268
_symmetry_space_group_name_H-M "F D D D"
_symmetry_group_IT_number 70
_space_group.IT_coordinate_system_code '2'
_symmetry_cell_setting 'orthorhombic'
loop_
_space_group_symop_operation_xyz
x,y,z
1/4-x,1/4-y,z
x,1/4-y,1/4-z
1/4-x,y,1/4-z
-x,-y,-z
3/4+x,3/4+y,-z
-x,3/4+y,3/4+z
3/4+x,-y,3/4+z
x,1/2+y,1/2+z
1/4-x,3/4-y,1/2+z
x,3/4-y,3/4-z
1/4-x,1/2+y,3/4-z
-x,1/2-y,1/2-z
3/4+x,1/4+y,1/2-z
-x,1/4+y,1/4+z
3/4+x,1/2-y,1/4+z
1/2+x,y,1/2+z
3/4-x,1/4-y,1/2+z
1/2+x,1/4-y,3/4-z
3/4-x,y,3/4-z
1/2-x,-y,1/2-z
1/4+x,3/4+y,1/2-z
1/2-x,3/4+y,1/4+z
1/4+x,-y,1/4+z
1/2+x,1/2+y,z
3/4-x,3/4-y,z
1/2+x,3/4-y,1/4-z
3/4-x,1/2+y,1/4-z
1/2-x,1/2-y,-z
1/4+x,1/4+y,-z
1/2-x,1/4+y,3/4+z
1/4+x,1/2-y,3/4+z
loop_
_atom_site_type_symbol
_atom_site_label
_atom_site_fract_x
_atom_site_fract_y
_atom_site_fract_z
Si Si1 0.375000 0.375000 0.875000
Si Si2 0.739476 0.315067 0.787935
Si Si3 0.552446 0.024300 0.380863
Si Si4 0.481147 0.008830 0.902689
Si Si5 0.125000 0.125000 0.625000
Si Si6 0.232546 0.810123 0.446596
O O1 0.305127 0.405230 0.826739
O O2 0.758242 0.295488 0.698939
O O3 0.764285 0.281870 0.854616
O O4 0.808104 0.350103 0.813452
O O5 0.626919 0.325931 0.796882
O O6 0.669790 0.029841 0.377089
O O7 0.512902 0.042708 0.464947
O O8 0.524043 0.977967 0.385187
O O9 0.375000 0.026012 0.875000
O O10 0.500000 0.000000 0.000000
#
# Coordination Sequence:
#
# PCOD9515864 Si02
#       6
#     8  32  32  32   8  32
#     4  12  26  42  60 102 136 164 222 288 342 390
#     4  11  22  40  64  92 127 177 220 269 344 397
#     4  10  22  41  68  92 127 178 226 261 333 412
#     4  11  20  36  60  98 129 165 221 279 323 393
#     4  12  22  38  64  94 132 172 218 292 334 402
#     4  10  25  40  65  92 133 172 218 275 334 405
#
# _framework density 19.008472000000001
#
# number of rings (size 3 to 8) (size 9 to 14) (size 15 to 20)
#    0.000    1.333    3.333    1.333    9.333    0.889 
#    0.000    2.222    0.000    0.000    0.000    0.000 
#    0.000    0.000    0.000    0.000    0.000    0.000 
#
# Total GULP energy -200817.252023 kJ/mol
# GULP energy per Si atom -5578.257001 kJ/mol
# Density = 1.896521 g / cm^3
# Si number density = 19.008472 Si / 1000 Ang^3
#
#
#
# Elastic Constant Matrix: (Units=GPa)
#
#
# Indices 1 2 3 4 5 6 
#
# 1 163.3155 59.5675 47.5026 0.0000 0.0000 0.0000
# 2 59.5675 100.7525 50.2642 0.0000 0.0000 0.0000
# 3 47.5026 50.2642 119.1923 0.0000 0.0000 0.0000
# 4 0.0000 0.0000 0.0000 15.1842 0.0000 0.0000
# 5 0.0000 0.0000 0.0000 0.0000 32.8728 0.0000
# 6 0.0000 0.0000 0.0000 0.0000 0.0000 65.6949
#
#
#
# Elastic Compliance Matrix: (Units=1/GPa)
#
#
# Indices 1 2 3 4 5 6 
#
# 1 0.008017 -0.003984 -0.001515 0.000000 0.000000 0.000000
# 2 -0.003984 0.014550 -0.004548 0.000000 0.000000 0.000000
# 3 -0.001515 -0.004548 0.010911 0.000000 0.000000 0.000000
# 4 0.000000 0.000000 0.000000 0.065858 0.000000 0.000000
# 5 0.000000 0.000000 0.000000 0.000000 0.030420 0.000000
# 6 0.000000 0.000000 0.000000 0.000000 0.000000 0.015222
#
#
# Mechanical properties :
#
#
# Convention : Reuss Voigt Hill
#
# Bulk Modulus (GPa) = 74.71460 77.54765 76.13113
# Shear Modulus (GPa) = 29.49276 37.81213 33.65244
#
# Velocity S-wave (km/s) = 3.94326 4.46491 4.21217
# Velocity P-wave (km/s) = 7.75394 8.21374 7.98715
#
# Compressibility (1/GPa) = 0.01338427
#
# Stress axis : x y z
#
# Youngs Moduli (GPa) = 124.73678 68.73013 91.64681
#
# Poissons Ratio (x) = 0.27382 0.13884
# Poissons Ratio (y) = 0.49695 0.41680
# Poissons Ratio (z) = 0.18897 0.31258
#
# Static dielectric constant tensor:
#      x y z
#    x 1.754230 0.000000 0.000000 
#    y 0.000000 1.638730 0.000000 
#    z 0.000000 0.000000 1.629200 
# 
# From -- ./inp_files/30877.got.cif
#   From: 2010.05.17/outbox.cif.g08.bks.cpg/sg70_16_cif.got.tgz:30877.got - 2010.06.03 15:57:51.
