data_PCOD9515762
_publ_section_title
;
Structure prediction by ZEFSAII (Michael W. Deem and Ramdas Pophale) SiO2 
 PCOD9515762
Probable space group: F D D D
;
_chemical_formula_sum "Si O2"
_cell_formula_units_Z 160
_cell_length_a 15.337688
_cell_length_b 20.835900
_cell_length_c 21.118378
_cell_angle_alpha 90.000000
_cell_angle_beta 90.000000
_cell_angle_gamma 90.000000
_cell_volume 6748.895795
_symmetry_space_group_name_H-M "F D D D"
_symmetry_group_IT_number 70
_space_group.IT_coordinate_system_code '2'
_symmetry_cell_setting 'orthorhombic'
loop_
_space_group_symop_operation_xyz
x,y,z
1/4-x,1/4-y,z
x,1/4-y,1/4-z
1/4-x,y,1/4-z
-x,-y,-z
3/4+x,3/4+y,-z
-x,3/4+y,3/4+z
3/4+x,-y,3/4+z
x,1/2+y,1/2+z
1/4-x,3/4-y,1/2+z
x,3/4-y,3/4-z
1/4-x,1/2+y,3/4-z
-x,1/2-y,1/2-z
3/4+x,1/4+y,1/2-z
-x,1/4+y,1/4+z
3/4+x,1/2-y,1/4+z
1/2+x,y,1/2+z
3/4-x,1/4-y,1/2+z
1/2+x,1/4-y,3/4-z
3/4-x,y,3/4-z
1/2-x,-y,1/2-z
1/4+x,3/4+y,1/2-z
1/2-x,3/4+y,1/4+z
1/4+x,-y,1/4+z
1/2+x,1/2+y,z
3/4-x,3/4-y,z
1/2+x,3/4-y,1/4-z
3/4-x,1/2+y,1/4-z
1/2-x,1/2-y,-z
1/4+x,1/4+y,-z
1/2-x,1/4+y,3/4+z
1/4+x,1/2-y,3/4+z
loop_
_atom_site_type_symbol
_atom_site_label
_atom_site_fract_x
_atom_site_fract_y
_atom_site_fract_z
Si Si1 0.650908 0.189808 0.024072
Si Si2 0.223309 0.888121 0.236280
Si Si3 0.640592 0.230686 0.553397
Si Si4 0.087334 0.943932 0.429097
Si Si5 0.018959 0.507119 0.810552
O O1 0.625000 0.125000 0.989821
O O2 0.738523 0.170037 0.060769
O O3 0.571795 0.219336 0.064461
O O4 0.664053 0.243624 0.972416
O O5 0.183686 0.949086 0.200080
O O6 0.157884 0.854140 0.288586
O O7 0.249418 0.833368 0.184979
O O8 0.302253 0.923952 0.272258
O O9 0.625000 0.212796 0.625000
O O10 0.555415 0.242468 0.510844
O O11 0.088041 0.777357 0.392398
#
# Coordination Sequence:
#
# PCOD9515762 Si02
#       5
#    32  32  32  32  32
#     4  10  22  39  64  98 134 176 223 280 351 423
#     4  10  25  45  69 102 136 181 238 290 356 432
#     4  11  26  45  69  99 139 188 236 295 354 425
#     4  10  23  43  68  99 137 176 225 289 355 424
#     4  11  24  41  68 101 136 183 234 292 357 427
#
# _framework density 23.707581999999999
#
# number of rings (size 3 to 8) (size 9 to 14) (size 15 to 20)
#    0.000    1.600    0.000    2.400    0.000   21.600 
#    0.000    0.000    0.000    0.000    0.000    0.000 
#    0.000    0.000    0.000    0.000    0.000    0.000 
#
# Total GULP energy -223097.276603 kJ/mol
# GULP energy per Si atom -5577.431915 kJ/mol
# Density = 2.365362 g / cm^3
# Si number density = 23.707582 Si / 1000 Ang^3
#
#
#
# Elastic Constant Matrix: (Units=GPa)
#
#
# Indices 1 2 3 4 5 6 
#
# 1 66.2633 27.1306 30.0717 0.0000 0.0000 0.0000
# 2 27.1306 160.4076 5.2348 0.0000 0.0000 0.0000
# 3 30.0717 5.2348 80.2273 0.0000 0.0000 0.0000
# 4 0.0000 0.0000 0.0000 -0.5096 0.0000 0.0000
# 5 0.0000 0.0000 0.0000 0.0000 21.9860 0.0000
# 6 0.0000 0.0000 0.0000 0.0000 0.0000 -13.6001
#
#
#
# Elastic Compliance Matrix: (Units=1/GPa)
#
#
# Indices 1 2 3 4 5 6 
#
# 1 0.019595 -0.003081 -0.007144 0.000000 0.000000 0.000000
# 2 -0.003081 0.006732 0.000716 0.000000 0.000000 0.000000
# 3 -0.007144 0.000716 0.015096 0.000000 0.000000 0.000000
# 4 0.000000 0.000000 0.000000 -1.962232 0.000000 0.000000
# 5 0.000000 0.000000 0.000000 0.000000 0.045484 0.000000
# 6 0.000000 0.000000 0.000000 0.000000 0.000000 -0.073529
#
#
# Mechanical properties :
#
#
# Convention : Reuss Voigt Hill
#
# Bulk Modulus (GPa) = 44.63492 47.97471 46.30482
# Shear Modulus (GPa) = -2.60096 17.87265 7.63585
#
# Velocity S-wave (km/s) = -1.04856 2.74866 1.79662
# Velocity P-wave (km/s) = 4.17159 5.50940 4.88650
#
# Compressibility (1/GPa) = 0.02240398
#
# Stress axis : x y z
#
# Youngs Moduli (GPa) = 51.03408 148.54690 66.24464
#
# Poissons Ratio (x) = 0.45768 0.47323
# Poissons Ratio (y) = 0.15724 -0.04741
# Poissons Ratio (z) = 0.36457 -0.10630
#
# Static dielectric constant tensor:
#      x y z
#    x 2.029130 0.000000 0.000000 
#    y 0.000000 1.933640 0.000000 
#    z 0.000000 0.000000 1.886720 
# 
# From -- ./inp_files/59386.got.cif
#   From: 2010.05.17/outbox.cif.g08.bks.cpg/sg70_30_cif.got.tgz:59386.got - 2010.06.03 15:57:51.
