data_PCOD9515917
_publ_section_title
;
Structure prediction by ZEFSAII (Michael W. Deem and Ramdas Pophale) SiO2 
 PCOD9515917
Probable space group: F D D D
;
_chemical_formula_sum "Si O2"
_cell_formula_units_Z 176
_cell_length_a 27.967727
_cell_length_b 11.057739
_cell_length_c 27.857999
_cell_angle_alpha 90.000000
_cell_angle_beta 90.000000
_cell_angle_gamma 90.000000
_cell_volume 8615.359912
_symmetry_space_group_name_H-M "F D D D"
_symmetry_group_IT_number 70
_space_group.IT_coordinate_system_code '2'
_symmetry_cell_setting 'orthorhombic'
loop_
_space_group_symop_operation_xyz
x,y,z
1/4-x,1/4-y,z
x,1/4-y,1/4-z
1/4-x,y,1/4-z
-x,-y,-z
3/4+x,3/4+y,-z
-x,3/4+y,3/4+z
3/4+x,-y,3/4+z
x,1/2+y,1/2+z
1/4-x,3/4-y,1/2+z
x,3/4-y,3/4-z
1/4-x,1/2+y,3/4-z
-x,1/2-y,1/2-z
3/4+x,1/4+y,1/2-z
-x,1/4+y,1/4+z
3/4+x,1/2-y,1/4+z
1/2+x,y,1/2+z
3/4-x,1/4-y,1/2+z
1/2+x,1/4-y,3/4-z
3/4-x,y,3/4-z
1/2-x,-y,1/2-z
1/4+x,3/4+y,1/2-z
1/2-x,3/4+y,1/4+z
1/4+x,-y,1/4+z
1/2+x,1/2+y,z
3/4-x,3/4-y,z
1/2+x,3/4-y,1/4-z
3/4-x,1/2+y,1/4-z
1/2-x,1/2-y,-z
1/4+x,1/4+y,-z
1/2-x,1/4+y,3/4+z
1/4+x,1/2-y,3/4+z
loop_
_atom_site_type_symbol
_atom_site_label
_atom_site_fract_x
_atom_site_fract_y
_atom_site_fract_z
Si Si1 0.730872 0.391941 0.217238
Si Si2 0.375000 0.875000 0.640866
Si Si3 0.696693 0.465344 0.915544
Si Si4 0.796472 0.337250 0.721367
Si Si5 0.309297 0.580124 0.266820
Si Si6 0.864942 0.242154 0.430710
O O1 0.750000 0.500000 0.250000
O O2 0.769308 0.324223 0.183482
O O3 0.709646 0.290048 0.252708
O O4 0.688890 0.450898 0.187083
O O5 0.398806 0.772364 0.607515
O O6 0.418091 0.916789 0.676161
O O7 0.717569 0.375000 0.875000
O O8 0.688675 0.385849 0.963085
O O9 0.742552 0.386075 0.710912
O O10 0.815032 0.437432 0.759324
O O11 0.350362 0.644326 0.296070
O O12 0.875000 0.249380 0.375000
O O13 0.875000 0.375000 0.452842
#
# Coordination Sequence:
#
# PCOD9515917 Si02
#       6
#    32  16  32  32  32  32
#     4  11  26  46  69  99 139 185 232 283 360 425
#     4  12  24  38  72 112 134 178 234 288 348 414
#     4  11  25  43  70 105 141 178 234 296 352 421
#     4  10  22  42  69  98 135 177 225 280 359 410
#     4  10  22  44  69  95 143 180 221 296 350 416
#     4  11  25  43  67  94 132 182 233 277 344 421
#
# _framework density 20.428629000000001
#
# number of rings (size 3 to 8) (size 9 to 14) (size 15 to 20)
#    0.000    1.273    1.818    3.273    6.364    0.000 
#    0.000    0.909    0.000    0.000    0.000    0.000 
#    0.000    0.000    0.000    0.000    0.000    0.000 
#
# Total GULP energy -245938.464601 kJ/mol
# GULP energy per Si atom -5589.510559 kJ/mol
# Density = 2.038213 g / cm^3
# Si number density = 20.428629 Si / 1000 Ang^3
#
#
#
# Elastic Constant Matrix: (Units=GPa)
#
#
# Indices 1 2 3 4 5 6 
#
# 1 98.8201 51.6310 60.5829 0.0000 0.0000 0.0000
# 2 51.6310 163.0435 46.4345 0.0000 0.0000 0.0000
# 3 60.5829 46.4345 95.6183 0.0000 0.0000 0.0000
# 4 0.0000 0.0000 0.0000 18.4596 0.0000 0.0000
# 5 0.0000 0.0000 0.0000 0.0000 30.2854 0.0000
# 6 0.0000 0.0000 0.0000 0.0000 0.0000 90.4311
#
#
#
# Elastic Compliance Matrix: (Units=1/GPa)
#
#
# Indices 1 2 3 4 5 6 
#
# 1 0.017567 -0.002777 -0.009782 0.000000 0.000000 0.000000
# 2 -0.002777 0.007557 -0.001910 0.000000 0.000000 0.000000
# 3 -0.009782 -0.001910 0.017584 0.000000 0.000000 0.000000
# 4 0.000000 0.000000 0.000000 0.054172 0.000000 0.000000
# 5 0.000000 0.000000 0.000000 0.000000 0.033019 0.000000
# 6 0.000000 0.000000 0.000000 0.000000 0.000000 0.011058
#
#
# Mechanical properties :
#
#
# Convention : Reuss Voigt Hill
#
# Bulk Modulus (GPa) = 72.62531 74.97542 73.80037
# Shear Modulus (GPa) = 28.65571 41.09077 34.87324
#
# Velocity S-wave (km/s) = 3.74936 4.48976 4.13616
# Velocity P-wave (km/s) = 7.37370 7.97860 7.68211
#
# Compressibility (1/GPa) = 0.01376930
#
# Stress axis : x y z
#
# Youngs Moduli (GPa) = 56.92404 132.33120 56.87140
#
# Poissons Ratio (x) = 0.36751 0.55630
# Poissons Ratio (y) = 0.15809 0.10863
# Poissons Ratio (z) = 0.55682 0.25277
#
# Static dielectric constant tensor:
#      x y z
#    x 1.727240 0.000000 0.000000 
#    y 0.000000 1.753970 0.000000 
#    z 0.000000 0.000000 1.701580 
# 
# From -- ./inp_files/21175.got.cif
#   From: 2010.05.17/outbox.cif.g08.bks.cpg/sg70_11_cif.got.tgz:21175.got - 2010.06.03 15:57:51.
