data_PCOD9515110
_publ_section_title
;
Structure prediction by ZEFSAII (Michael W. Deem and Ramdas Pophale) SiO2 
 PCOD9515110
Probable space group: F D D D
;
_chemical_formula_sum "Si O2"
_cell_formula_units_Z 160
_cell_length_a 25.388437
_cell_length_b 9.960450
_cell_length_c 29.330866
_cell_angle_alpha 90.000000
_cell_angle_beta 90.000000
_cell_angle_gamma 90.000000
_cell_volume 7417.196941
_symmetry_space_group_name_H-M "F D D D"
_symmetry_group_IT_number 70
_space_group.IT_coordinate_system_code '2'
_symmetry_cell_setting 'orthorhombic'
loop_
_space_group_symop_operation_xyz
x,y,z
1/4-x,1/4-y,z
x,1/4-y,1/4-z
1/4-x,y,1/4-z
-x,-y,-z
3/4+x,3/4+y,-z
-x,3/4+y,3/4+z
3/4+x,-y,3/4+z
x,1/2+y,1/2+z
1/4-x,3/4-y,1/2+z
x,3/4-y,3/4-z
1/4-x,1/2+y,3/4-z
-x,1/2-y,1/2-z
3/4+x,1/4+y,1/2-z
-x,1/4+y,1/4+z
3/4+x,1/2-y,1/4+z
1/2+x,y,1/2+z
3/4-x,1/4-y,1/2+z
1/2+x,1/4-y,3/4-z
3/4-x,y,3/4-z
1/2-x,-y,1/2-z
1/4+x,3/4+y,1/2-z
1/2-x,3/4+y,1/4+z
1/4+x,-y,1/4+z
1/2+x,1/2+y,z
3/4-x,3/4-y,z
1/2+x,3/4-y,1/4-z
3/4-x,1/2+y,1/4-z
1/2-x,1/2-y,-z
1/4+x,1/4+y,-z
1/2-x,1/4+y,3/4+z
1/4+x,1/2-y,3/4+z
loop_
_atom_site_type_symbol
_atom_site_label
_atom_site_fract_x
_atom_site_fract_y
_atom_site_fract_z
Si Si1 0.970529 0.948173 0.737773
Si Si2 0.743290 0.673237 0.451896
Si Si3 0.902039 0.654310 0.177906
Si Si4 0.919562 0.583411 0.492722
Si Si5 0.102046 0.267020 0.674496
O O1 0.934368 0.820521 0.748671
O O2 0.027730 0.897569 0.721173
O O3 0.988469 0.025297 0.783899
O O4 0.940500 0.041647 0.701358
O O5 0.750000 0.750000 0.500000
O O6 0.685788 0.708659 0.433663
O O7 0.789273 0.734784 0.421127
O O8 0.892394 0.625000 0.125000
O O9 0.850381 0.646541 0.209473
O O10 0.872247 0.618538 0.458622
O O11 0.125000 0.125000 0.692423
O O12 0.125000 0.288416 0.625000
#
# Coordination Sequence:
#
# PCOD9515110 Si02
#       5
#    32  32  32  32  32
#     4  10  23  44  67  90 136 178 225 273 350 414
#     4  10  20  40  64  94 127 171 221 280 335 405
#     4  11  24  42  70 102 137 180 238 293 341 411
#     4  11  23  44  67  94 135 185 215 284 354 412
#     4  11  23  37  65  98 128 170 229 285 340 408
#
# _framework density 21.571491999999999
#
# number of rings (size 3 to 8) (size 9 to 14) (size 15 to 20)
#    0.000    1.400    4.000    3.000    5.600    0.000 
#    7.200    2.000    0.000    0.000    0.000    0.000 
#    0.000    0.000    0.000    0.000    0.000    0.000 
#
# Total GULP energy -223252.692458 kJ/mol
# GULP energy per Si atom -5581.317311 kJ/mol
# Density = 2.152239 g / cm^3
# Si number density = 21.571492 Si / 1000 Ang^3
#
#
#
# Elastic Constant Matrix: (Units=GPa)
#
#
# Indices 1 2 3 4 5 6 
#
# 1 115.1843 38.0524 24.2638 0.0000 0.0000 0.0000
# 2 38.0524 76.9925 16.8664 0.0000 0.0000 0.0000
# 3 24.2638 16.8664 101.0133 0.0000 0.0000 0.0000
# 4 0.0000 0.0000 0.0000 21.2478 0.0000 0.0000
# 5 0.0000 0.0000 0.0000 0.0000 38.7822 0.0000
# 6 0.0000 0.0000 0.0000 0.0000 0.0000 33.6674
#
#
#
# Elastic Compliance Matrix: (Units=1/GPa)
#
#
# Indices 1 2 3 4 5 6 
#
# 1 0.010664 -0.004888 -0.001745 0.000000 0.000000 0.000000
# 2 -0.004888 0.015722 -0.001451 0.000000 0.000000 0.000000
# 3 -0.001745 -0.001451 0.010561 0.000000 0.000000 0.000000
# 4 0.000000 0.000000 0.000000 0.047064 0.000000 0.000000
# 5 0.000000 0.000000 0.000000 0.000000 0.025785 0.000000
# 6 0.000000 0.000000 0.000000 0.000000 0.000000 0.029702
#
#
# Mechanical properties :
#
#
# Convention : Reuss Voigt Hill
#
# Bulk Modulus (GPa) = 48.12720 50.17283 49.15001
# Shear Modulus (GPa) = 30.75141 33.00664 31.87903
#
# Velocity S-wave (km/s) = 3.77975 3.91590 3.84843
# Velocity P-wave (km/s) = 6.43488 6.61476 6.52544
#
# Compressibility (1/GPa) = 0.02077827
#
# Stress axis : x y z
#
# Youngs Moduli (GPa) = 93.77051 63.60470 94.68616
#
# Poissons Ratio (x) = 0.31092 0.16527
# Poissons Ratio (y) = 0.45838 0.13738
# Poissons Ratio (z) = 0.16367 0.09229
#
# Static dielectric constant tensor:
#      x y z
#    x 1.838920 0.000000 0.000000 
#    y 0.000000 1.885410 0.000000 
#    z 0.000000 0.000000 1.712720 
# 
# From -- ./inp_files/61607.got.cif
#   From: 2010.05.17/outbox.cif.g08.bks.cpg/sg70_31_cif.got.tgz:61607.got - 2010.06.03 15:57:51.
