data_PCOD9515636
_publ_section_title
;
Structure prediction by ZEFSAII (Michael W. Deem and Ramdas Pophale) SiO2 
 PCOD9515636
Probable space group: F D D D
;
_chemical_formula_sum "Si O2"
_cell_formula_units_Z 160
_cell_length_a 12.049223
_cell_length_b 21.150697
_cell_length_c 32.077101
_cell_angle_alpha 90.000000
_cell_angle_beta 90.000000
_cell_angle_gamma 90.000000
_cell_volume 8174.832021
_symmetry_space_group_name_H-M "F D D D"
_symmetry_group_IT_number 70
_space_group.IT_coordinate_system_code '2'
_symmetry_cell_setting 'orthorhombic'
loop_
_space_group_symop_operation_xyz
x,y,z
1/4-x,1/4-y,z
x,1/4-y,1/4-z
1/4-x,y,1/4-z
-x,-y,-z
3/4+x,3/4+y,-z
-x,3/4+y,3/4+z
3/4+x,-y,3/4+z
x,1/2+y,1/2+z
1/4-x,3/4-y,1/2+z
x,3/4-y,3/4-z
1/4-x,1/2+y,3/4-z
-x,1/2-y,1/2-z
3/4+x,1/4+y,1/2-z
-x,1/4+y,1/4+z
3/4+x,1/2-y,1/4+z
1/2+x,y,1/2+z
3/4-x,1/4-y,1/2+z
1/2+x,1/4-y,3/4-z
3/4-x,y,3/4-z
1/2-x,-y,1/2-z
1/4+x,3/4+y,1/2-z
1/2-x,3/4+y,1/4+z
1/4+x,-y,1/4+z
1/2+x,1/2+y,z
3/4-x,3/4-y,z
1/2+x,3/4-y,1/4-z
3/4-x,1/2+y,1/4-z
1/2-x,1/2-y,-z
1/4+x,1/4+y,-z
1/2-x,1/4+y,3/4+z
1/4+x,1/2-y,3/4+z
loop_
_atom_site_type_symbol
_atom_site_label
_atom_site_fract_x
_atom_site_fract_y
_atom_site_fract_z
Si Si1 0.875000 0.213076 0.875000
Si Si2 0.771940 0.522889 0.084216
Si Si3 0.255345 0.619718 0.937499
Si Si4 0.451828 0.562527 0.650629
Si Si5 0.125000 0.125000 0.048246
Si Si6 0.360101 0.633610 0.728288
O O1 0.796626 0.169522 0.903259
O O2 0.794981 0.259254 0.848983
O O3 0.733753 0.451598 0.079358
O O4 0.843607 0.537337 0.125341
O O5 0.666815 0.568454 0.077513
O O6 0.849950 0.548319 0.045524
O O7 0.125000 0.625000 0.946904
O O8 0.327829 0.632420 0.978451
O O9 0.488564 0.625000 0.625000
O O10 0.419528 0.586839 0.695962
O O11 0.232039 0.139007 0.020052
#
# Coordination Sequence:
#
# PCOD9515636 Si02
#       6
#    16  32  32  32  16  32
#     4  12  27  44  66 101 146 182 232 278 360 421
#     4   9  21  44  67 100 134 176 234 277 350 401
#     4  12  26  46  66 103 143 187 222 291 356 412
#     4  10  21  43  70 100 129 183 230 287 337 418
#     4   8  20  43  64 106 126 182 230 292 330 410
#     4   9  23  41  73 102 129 181 233 287 334 416
#
# _framework density 19.572268000000001
#
# number of rings (size 3 to 8) (size 9 to 14) (size 15 to 20)
#    1.200    0.800    2.000    0.300    2.800    8.000 
#    1.800    0.000    0.000    0.000    0.000    0.000 
#    0.000    0.000    0.000    0.000    0.000    0.000 
#
# Total GULP energy -223038.769629 kJ/mol
# GULP energy per Si atom -5575.969241 kJ/mol
# Density = 1.952772 g / cm^3
# Si number density = 19.572268 Si / 1000 Ang^3
#
#
#
# Elastic Constant Matrix: (Units=GPa)
#
#
# Indices 1 2 3 4 5 6 
#
# 1 108.5563 29.8995 17.1108 0.0000 0.0000 0.0000
# 2 29.8995 119.0456 13.9794 0.0000 0.0000 0.0000
# 3 17.1108 13.9794 53.1834 0.0000 0.0000 0.0000
# 4 0.0000 0.0000 0.0000 9.5027 0.0000 0.0000
# 5 0.0000 0.0000 0.0000 0.0000 -406.0209 0.0000
# 6 0.0000 0.0000 0.0000 0.0000 0.0000 37.8132
#
#
#
# Elastic Compliance Matrix: (Units=1/GPa)
#
#
# Indices 1 2 3 4 5 6 
#
# 1 0.010261 -0.002259 -0.002707 0.000000 0.000000 0.000000
# 2 -0.002259 0.009165 -0.001682 0.000000 0.000000 0.000000
# 3 -0.002707 -0.001682 0.020116 0.000000 0.000000 0.000000
# 4 0.000000 0.000000 0.000000 0.105233 0.000000 0.000000
# 5 0.000000 0.000000 0.000000 0.000000 -0.002463 0.000000
# 6 0.000000 0.000000 0.000000 0.000000 0.000000 0.026446
#
#
# Mechanical properties :
#
#
# Convention : Reuss Voigt Hill
#
# Bulk Modulus (GPa) = 38.10337 44.75164 41.42750
# Shear Modulus (GPa) = 26.20501 -57.08794 -15.44146
#
# Velocity S-wave (km/s) = 3.66305 -5.40658 -2.81187
# Velocity P-wave (km/s) = 6.11562 4.00753 3.26654
#
# Compressibility (1/GPa) = 0.02624440
#
# Stress axis : x y z
#
# Youngs Moduli (GPa) = 97.45840 109.10961 49.71149
#
# Poissons Ratio (x) = 0.24650 0.13459
# Poissons Ratio (y) = 0.22018 0.08363
# Poissons Ratio (z) = 0.26386 0.18355
#
# Static dielectric constant tensor:
#      x y z
#    x 1.711150 0.000000 0.000000 
#    y 0.000000 1.690050 0.000000 
#    z 0.000000 0.000000 1.662600 
# 
# From -- ./inp_files/65692.got.cif
#   From: 2010.05.17/outbox.cif.g08.bks.cpg/sg70_33_cif.got.tgz:65692.got - 2010.06.03 15:57:51.
