data_PCOD9515178
_publ_section_title
;
Structure prediction by ZEFSAII (Michael W. Deem and Ramdas Pophale) SiO2 
 PCOD9515178
Probable space group: F D D D
;
_chemical_formula_sum "Si O2"
_cell_formula_units_Z 168
_cell_length_a 19.514280
_cell_length_b 23.896159
_cell_length_c 14.506876
_cell_angle_alpha 90.000000
_cell_angle_beta 90.000000
_cell_angle_gamma 90.000000
_cell_volume 6764.793287
_symmetry_space_group_name_H-M "F D D D"
_symmetry_group_IT_number 70
_space_group.IT_coordinate_system_code '2'
_symmetry_cell_setting 'orthorhombic'
loop_
_space_group_symop_operation_xyz
x,y,z
1/4-x,1/4-y,z
x,1/4-y,1/4-z
1/4-x,y,1/4-z
-x,-y,-z
3/4+x,3/4+y,-z
-x,3/4+y,3/4+z
3/4+x,-y,3/4+z
x,1/2+y,1/2+z
1/4-x,3/4-y,1/2+z
x,3/4-y,3/4-z
1/4-x,1/2+y,3/4-z
-x,1/2-y,1/2-z
3/4+x,1/4+y,1/2-z
-x,1/4+y,1/4+z
3/4+x,1/2-y,1/4+z
1/2+x,y,1/2+z
3/4-x,1/4-y,1/2+z
1/2+x,1/4-y,3/4-z
3/4-x,y,3/4-z
1/2-x,-y,1/2-z
1/4+x,3/4+y,1/2-z
1/2-x,3/4+y,1/4+z
1/4+x,-y,1/4+z
1/2+x,1/2+y,z
3/4-x,3/4-y,z
1/2+x,3/4-y,1/4-z
3/4-x,1/2+y,1/4-z
1/2-x,1/2-y,-z
1/4+x,1/4+y,-z
1/2-x,1/4+y,3/4+z
1/4+x,1/2-y,3/4+z
loop_
_atom_site_type_symbol
_atom_site_label
_atom_site_fract_x
_atom_site_fract_y
_atom_site_fract_z
Si Si1 0.125000 0.125000 0.625000
Si Si2 0.699946 0.314357 0.916006
Si Si3 0.554133 0.779068 0.026419
Si Si4 0.586893 0.551917 0.467109
Si Si5 0.308749 0.342870 0.743442
Si Si6 0.035238 0.807494 0.718446
O O1 0.138042 0.078693 0.541892
O O2 0.677342 0.375000 0.875000
O O3 0.727157 0.286156 0.822988
O O4 0.651867 0.265559 0.957898
O O5 0.763527 0.317615 0.985463
O O6 0.521213 0.812484 0.109001
O O7 0.633696 0.798156 0.018888
O O8 0.549855 0.713966 0.049163
O O9 0.579324 0.574896 0.362592
O O10 0.375000 0.375000 0.776202
O O11 0.245443 0.384966 0.755335
O O12 0.000000 0.750000 0.750000
#
# Coordination Sequence:
#
# PCOD9515178 Si02
#       6
#     8  32  32  32  32  32
#     4  12  20  36  60 108 136 170 236 290 338 444
#     4  10  20  42  60  89 135 179 218 275 345 412
#     4  10  24  43  66  96 136 181 225 288 350 411
#     4  10  22  35  66  98 130 180 220 280 351 420
#     4  11  21  42  69  98 134 180 228 284 349 426
#     4  11  23  42  66  98 132 175 232 285 346 420
#
# _framework density 24.834461000000001
#
# number of rings (size 3 to 8) (size 9 to 14) (size 15 to 20)
#    0.000    1.524    3.810    1.143    0.000    0.762 
#    3.429    5.714    0.000    0.000    0.000    0.000 
#    0.000    0.000    0.000    0.000    0.000    0.000 
#
# Total GULP energy -233993.894308 kJ/mol
# GULP energy per Si atom -5571.283198 kJ/mol
# Density = 2.477794 g / cm^3
# Si number density = 24.834461 Si / 1000 Ang^3
#
#
#
# Elastic Constant Matrix: (Units=GPa)
#
#
# Indices 1 2 3 4 5 6 
#
# 1 45.6281 43.9311 11.3694 0.0000 0.0000 0.0000
# 2 43.9311 207.7556 8.0251 0.0000 0.0000 0.0000
# 3 11.3694 8.0251 107.5763 0.0000 0.0000 0.0000
# 4 0.0000 0.0000 0.0000 41.5767 0.0000 0.0000
# 5 0.0000 0.0000 0.0000 0.0000 13.4469 0.0000
# 6 0.0000 0.0000 0.0000 0.0000 0.0000 24.8622
#
#
#
# Elastic Compliance Matrix: (Units=1/GPa)
#
#
# Indices 1 2 3 4 5 6 
#
# 1 0.028196 -0.005864 -0.002542 0.000000 0.000000 0.000000
# 2 -0.005864 0.006047 0.000169 0.000000 0.000000 0.000000
# 3 -0.002542 0.000169 0.009552 0.000000 0.000000 0.000000
# 4 0.000000 0.000000 0.000000 0.024052 0.000000 0.000000
# 5 0.000000 0.000000 0.000000 0.000000 0.074366 0.000000
# 6 0.000000 0.000000 0.000000 0.000000 0.000000 0.040222
#
#
# Mechanical properties :
#
#
# Convention : Reuss Voigt Hill
#
# Bulk Modulus (GPa) = 36.60474 54.17900 45.39187
# Shear Modulus (GPa) = 24.03660 35.81947 29.92804
#
# Velocity S-wave (km/s) = 3.11444 3.80192 3.47522
# Velocity P-wave (km/s) = 5.26350 6.41375 5.86689
#
# Compressibility (1/GPa) = 0.02731887
#
# Stress axis : x y z
#
# Youngs Moduli (GPa) = 35.46640 165.37695 104.69173
#
# Poissons Ratio (x) = 0.96976 0.26618
# Poissons Ratio (y) = 0.20797 -0.01766
# Poissons Ratio (z) = 0.09017 -0.02789
#
# Static dielectric constant tensor:
#      x y z
#    x 2.019990 0.000000 0.000000 
#    y 0.000000 2.010780 0.000000 
#    z 0.000000 0.000000 1.966910 
# 
# From -- ./inp_files/37560.got.cif
#   From: 2010.05.17/outbox.cif.g08.bks.cpg/sg70_19_cif.got.tgz:37560.got - 2010.06.03 15:57:51.
