data_PCOD9515039
_publ_section_title
;
Structure prediction by ZEFSAII (Michael W. Deem and Ramdas Pophale) SiO2 
 PCOD9515039
Probable space group: F D D D
;
_chemical_formula_sum "Si O2"
_cell_formula_units_Z 64
_cell_length_a 25.786380
_cell_length_b 11.596648
_cell_length_c 7.259950
_cell_angle_alpha 90.000000
_cell_angle_beta 90.000000
_cell_angle_gamma 90.000000
_cell_volume 2170.983301
_symmetry_space_group_name_H-M "F D D D"
_symmetry_group_IT_number 70
_space_group.IT_coordinate_system_code '2'
_symmetry_cell_setting 'orthorhombic'
loop_
_space_group_symop_operation_xyz
x,y,z
1/4-x,1/4-y,z
x,1/4-y,1/4-z
1/4-x,y,1/4-z
-x,-y,-z
3/4+x,3/4+y,-z
-x,3/4+y,3/4+z
3/4+x,-y,3/4+z
x,1/2+y,1/2+z
1/4-x,3/4-y,1/2+z
x,3/4-y,3/4-z
1/4-x,1/2+y,3/4-z
-x,1/2-y,1/2-z
3/4+x,1/4+y,1/2-z
-x,1/4+y,1/4+z
3/4+x,1/2-y,1/4+z
1/2+x,y,1/2+z
3/4-x,1/4-y,1/2+z
1/2+x,1/4-y,3/4-z
3/4-x,y,3/4-z
1/2-x,-y,1/2-z
1/4+x,3/4+y,1/2-z
1/2-x,3/4+y,1/4+z
1/4+x,-y,1/4+z
1/2+x,1/2+y,z
3/4-x,3/4-y,z
1/2+x,3/4-y,1/4-z
3/4-x,1/2+y,1/4-z
1/2-x,1/2-y,-z
1/4+x,1/4+y,-z
1/2-x,1/4+y,3/4+z
1/4+x,1/2-y,3/4+z
loop_
_atom_site_type_symbol
_atom_site_label
_atom_site_fract_x
_atom_site_fract_y
_atom_site_fract_z
Si Si1 0.296989 0.873841 0.585897
Si Si2 0.681145 0.930078 0.128015
O O1 0.312949 0.875000 0.375000
O O2 0.320342 0.773591 0.711908
O O3 0.234306 0.861510 0.599167
O O4 0.310340 0.993681 0.688350
O O5 0.625000 0.872478 0.125000
#
# Coordination Sequence:
#
# PCOD9515039 Si02
#       2
#    32  32
#     4  10  20  39  60  85 122 159 201 249 301 361
#     4  10  22  39  60  89 126 156 199 255 300 357
#
# _framework density 29.47973
#
# number of rings (size 3 to 8) (size 9 to 14) (size 15 to 20)
#    0.000    2.000    0.000    4.500    0.000    4.000 
#   18.000    0.000    0.000    0.000    0.000    0.000 
#    0.000    0.000    0.000    0.000    0.000    0.000 
#
# Total GULP energy -90091.475022 kJ/mol
# GULP energy per Si atom -5630.717189 kJ/mol
# Density = 2.941263 g / cm^3
# Si number density = 29.479730 Si / 1000 Ang^3
#
#
#
# Elastic Constant Matrix: (Units=GPa)
#
#
# Indices 1 2 3 4 5 6 
#
# 1 246.0423 38.5178 35.0105 0.0000 0.0000 0.0000
# 2 38.5178 93.1969 40.2896 0.0000 0.0000 0.0000
# 3 35.0105 40.2896 308.6527 0.0000 0.0000 0.0000
# 4 0.0000 0.0000 0.0000 50.0687 0.0000 0.0000
# 5 0.0000 0.0000 0.0000 0.0000 27.7428 0.0000
# 6 0.0000 0.0000 0.0000 0.0000 0.0000 39.5002
#
#
#
# Elastic Compliance Matrix: (Units=1/GPa)
#
#
# Indices 1 2 3 4 5 6 
#
# 1 0.004367 -0.001686 -0.000275 0.000000 0.000000 0.000000
# 2 -0.001686 0.012023 -0.001378 0.000000 0.000000 0.000000
# 3 -0.000275 -0.001378 0.003451 0.000000 0.000000 0.000000
# 4 0.000000 0.000000 0.000000 0.019973 0.000000 0.000000
# 5 0.000000 0.000000 0.000000 0.000000 0.036045 0.000000
# 6 0.000000 0.000000 0.000000 0.000000 0.000000 0.025316
#
#
# Mechanical properties :
#
#
# Convention : Reuss Voigt Hill
#
# Bulk Modulus (GPa) = 75.97555 97.28086 86.62820
# Shear Modulus (GPa) = 44.54677 59.06727 51.80702
#
# Velocity S-wave (km/s) = 3.89150 4.48108 4.19666
# Velocity P-wave (km/s) = 6.78379 7.73591 7.27544
#
# Compressibility (1/GPa) = 0.01316213
#
# Stress axis : x y z
#
# Youngs Moduli (GPa) = 228.96582 83.17701 289.77061
#
# Poissons Ratio (x) = 0.14024 0.07978
# Poissons Ratio (y) = 0.38604 0.39933
# Poissons Ratio (z) = 0.06304 0.11463
#
# Static dielectric constant tensor:
#      x y z
#    x 2.140200 0.000000 0.000000 
#    y 0.000000 2.323950 0.000000 
#    z 0.000000 0.000000 2.242050 
# 
# From -- ./inp_files/1563.got.cif
#   From: 2010.05.17/outbox.cif.g08.bks.cpg/sg70_1_cif.got.tgz:1563.got - 2010.06.03 15:57:51.
