data_PCOD9515428
_publ_section_title
;
Structure prediction by ZEFSAII (Michael W. Deem and Ramdas Pophale) SiO2 
 PCOD9515428
Probable space group: F D D D
;
_chemical_formula_sum "Si O2"
_cell_formula_units_Z 168
_cell_length_a 16.562422
_cell_length_b 23.166312
_cell_length_c 20.414683
_cell_angle_alpha 90.000000
_cell_angle_beta 90.000000
_cell_angle_gamma 90.000000
_cell_volume 7832.914528
_symmetry_space_group_name_H-M "F D D D"
_symmetry_group_IT_number 70
_space_group.IT_coordinate_system_code '2'
_symmetry_cell_setting 'orthorhombic'
loop_
_space_group_symop_operation_xyz
x,y,z
1/4-x,1/4-y,z
x,1/4-y,1/4-z
1/4-x,y,1/4-z
-x,-y,-z
3/4+x,3/4+y,-z
-x,3/4+y,3/4+z
3/4+x,-y,3/4+z
x,1/2+y,1/2+z
1/4-x,3/4-y,1/2+z
x,3/4-y,3/4-z
1/4-x,1/2+y,3/4-z
-x,1/2-y,1/2-z
3/4+x,1/4+y,1/2-z
-x,1/4+y,1/4+z
3/4+x,1/2-y,1/4+z
1/2+x,y,1/2+z
3/4-x,1/4-y,1/2+z
1/2+x,1/4-y,3/4-z
3/4-x,y,3/4-z
1/2-x,-y,1/2-z
1/4+x,3/4+y,1/2-z
1/2-x,3/4+y,1/4+z
1/4+x,-y,1/4+z
1/2+x,1/2+y,z
3/4-x,3/4-y,z
1/2+x,3/4-y,1/4-z
3/4-x,1/2+y,1/4-z
1/2-x,1/2-y,-z
1/4+x,1/4+y,-z
1/2-x,1/4+y,3/4+z
1/4+x,1/2-y,3/4+z
loop_
_atom_site_type_symbol
_atom_site_label
_atom_site_fract_x
_atom_site_fract_y
_atom_site_fract_z
Si Si1 0.073961 0.230043 0.407303
Si Si2 0.441669 0.932047 0.329745
Si Si3 0.932630 0.650980 0.930563
Si Si4 0.846739 0.997789 0.737200
Si Si5 0.957487 0.938537 0.494361
Si Si6 0.625000 0.125000 0.125000
O O1 0.114068 0.248976 0.339915
O O2 0.129615 0.198293 0.459375
O O3 0.025624 0.286428 0.432383
O O4 0.002039 0.185728 0.391848
O O5 0.455387 0.875000 0.375000
O O6 0.375000 0.965401 0.375000
O O7 0.390152 0.939210 0.263589
O O8 0.875000 0.625147 0.875000
O O9 0.978696 0.605856 0.975488
O O10 0.887011 0.697407 0.976739
O O11 0.750000 0.000000 0.750000
O O12 0.927885 0.915138 0.423959
O O13 0.000000 0.000000 0.500000
#
# Coordination Sequence:
#
# PCOD9515428 Si02
#       6
#    32  32  32  32  32   8
#     4  11  22  46  69 105 140 190 246 298 390 443
#     4  10  21  39  62 105 149 179 239 314 378 456
#     4  11  23  47  73 107 150 186 248 318 376 456
#     4  11  20  40  73 102 147 191 227 306 386 454
#     4  12  30  50  78 105 147 211 259 322 377 461
#     4  12  28  60  76 108 160 188 276 328 374 464
#
# _framework density 21.447953999999999
#
# number of rings (size 3 to 8) (size 9 to 14) (size 15 to 20)
#    0.000    0.952    5.714    1.143    4.000    1.524 
#   10.286    0.000    0.000    0.000    0.000    0.000 
#    0.000    0.000    0.000    0.000    0.000    0.000 
#
# Total GULP energy -234063.848115 kJ/mol
# GULP energy per Si atom -5572.948765 kJ/mol
# Density = 2.139914 g / cm^3
# Si number density = 21.447954 Si / 1000 Ang^3
#
#
#
# Elastic Constant Matrix: (Units=GPa)
#
#
# Indices 1 2 3 4 5 6 
#
# 1 113.9437 66.4429 65.7469 0.0000 0.0000 0.0000
# 2 66.4429 141.3861 54.8489 0.0000 0.0000 0.0000
# 3 65.7469 54.8489 145.0195 0.0000 0.0000 0.0000
# 4 0.0000 0.0000 0.0000 28.0303 0.0000 0.0000
# 5 0.0000 0.0000 0.0000 0.0000 38.8561 0.0000
# 6 0.0000 0.0000 0.0000 0.0000 0.0000 39.1677
#
#
#
# Elastic Compliance Matrix: (Units=1/GPa)
#
#
# Indices 1 2 3 4 5 6 
#
# 1 0.014325 -0.004937 -0.004627 0.000000 0.000000 0.000000
# 2 -0.004937 0.009990 -0.001540 0.000000 0.000000 0.000000
# 3 -0.004627 -0.001540 0.009576 0.000000 0.000000 0.000000
# 4 0.000000 0.000000 0.000000 0.035676 0.000000 0.000000
# 5 0.000000 0.000000 0.000000 0.000000 0.025736 0.000000
# 6 0.000000 0.000000 0.000000 0.000000 0.000000 0.025531
#
#
# Mechanical properties :
#
#
# Convention : Reuss Voigt Hill
#
# Bulk Modulus (GPa) = 85.59754 86.04740 85.82247
# Shear Modulus (GPa) = 34.02808 35.43152 34.72980
#
# Velocity S-wave (km/s) = 3.98746 4.06886 4.02837
# Velocity P-wave (km/s) = 7.82278 7.89180 7.85736
#
# Compressibility (1/GPa) = 0.01168258
#
# Stress axis : x y z
#
# Youngs Moduli (GPa) = 69.80794 100.09623 104.42688
#
# Poissons Ratio (x) = 0.49415 0.48321
# Poissons Ratio (y) = 0.34463 0.16086
# Poissons Ratio (z) = 0.32302 0.15418
#
# Static dielectric constant tensor:
#      x y z
#    x 1.833760 0.000000 0.000000 
#    y 0.000000 2.002770 0.000000 
#    z 0.000000 0.000000 1.875760 
# 
# From -- ./inp_files/42815.got.cif
#   From: 2010.05.17/outbox.cif.g08.bks.cpg/sg70_22_cif.got.tgz:42815.got - 2010.06.03 15:57:51.
