data_PCOD9515752
_publ_section_title
;
Structure prediction by ZEFSAII (Michael W. Deem and Ramdas Pophale) SiO2 
 PCOD9515752
Probable space group: F D D D
;
_chemical_formula_sum "Si O2"
_cell_formula_units_Z 80
_cell_length_a 6.692655
_cell_length_b 27.238423
_cell_length_c 19.279242
_cell_angle_alpha 90.000000
_cell_angle_beta 90.000000
_cell_angle_gamma 90.000000
_cell_volume 3514.555071
_symmetry_space_group_name_H-M "F D D D"
_symmetry_group_IT_number 70
_space_group.IT_coordinate_system_code '2'
_symmetry_cell_setting 'orthorhombic'
loop_
_space_group_symop_operation_xyz
x,y,z
1/4-x,1/4-y,z
x,1/4-y,1/4-z
1/4-x,y,1/4-z
-x,-y,-z
3/4+x,3/4+y,-z
-x,3/4+y,3/4+z
3/4+x,-y,3/4+z
x,1/2+y,1/2+z
1/4-x,3/4-y,1/2+z
x,3/4-y,3/4-z
1/4-x,1/2+y,3/4-z
-x,1/2-y,1/2-z
3/4+x,1/4+y,1/2-z
-x,1/4+y,1/4+z
3/4+x,1/2-y,1/4+z
1/2+x,y,1/2+z
3/4-x,1/4-y,1/2+z
1/2+x,1/4-y,3/4-z
3/4-x,y,3/4-z
1/2-x,-y,1/2-z
1/4+x,3/4+y,1/2-z
1/2-x,3/4+y,1/4+z
1/4+x,-y,1/4+z
1/2+x,1/2+y,z
3/4-x,3/4-y,z
1/2+x,3/4-y,1/4-z
3/4-x,1/2+y,1/4-z
1/2-x,1/2-y,-z
1/4+x,1/4+y,-z
1/2-x,1/4+y,3/4+z
1/4+x,1/2-y,3/4+z
loop_
_atom_site_type_symbol
_atom_site_label
_atom_site_fract_x
_atom_site_fract_y
_atom_site_fract_z
Si Si1 0.034616 0.473806 0.749655
Si Si2 0.625000 0.625000 0.509462
Si Si3 0.853094 0.056810 0.600160
O O1 0.250000 0.500000 0.750000
O O2 0.028012 0.460365 0.831272
O O3 0.979350 0.420020 0.718647
O O4 0.908627 0.512451 0.705154
O O5 0.451187 0.601279 0.557363
O O6 0.625000 0.067031 0.625000
#
# Coordination Sequence:
#
# PCOD9515752 Si02
#       3
#    32  16  32
#     4  10  22  39  61  92 128 168 218 272 325 394
#     4  12  23  40  68  92 124 176 221 266 337 412
#     4  10  22  41  64  95 128 168 221 277 333 406
#
# _framework density 22.762483
#
# number of rings (size 3 to 8) (size 9 to 14) (size 15 to 20)
#    0.000    1.600    0.000    4.800    0.000   11.200 
#    0.000   12.000    0.000    0.000    0.000    0.000 
#    0.000    0.000    0.000    0.000    0.000    0.000 
#
# Total GULP energy -111364.398052 kJ/mol
# GULP energy per Si atom -5568.219903 kJ/mol
# Density = 2.271068 g / cm^3
# Si number density = 22.762483 Si / 1000 Ang^3
#
#
#
# Elastic Constant Matrix: (Units=GPa)
#
#
# Indices 1 2 3 4 5 6 
#
# 1 82.4254 59.0179 13.1090 0.0000 0.0000 0.0000
# 2 59.0179 225.6638 43.1690 0.0000 0.0000 0.0000
# 3 13.1090 43.1690 43.0432 0.0000 0.0000 0.0000
# 4 0.0000 0.0000 0.0000 44.2872 0.0000 0.0000
# 5 0.0000 0.0000 0.0000 0.0000 61.0915 0.0000
# 6 0.0000 0.0000 0.0000 0.0000 0.0000 54.2407
#
#
#
# Elastic Compliance Matrix: (Units=1/GPa)
#
#
# Indices 1 2 3 4 5 6 
#
# 1 0.014949 -0.003760 -0.000782 0.000000 0.000000 0.000000
# 2 -0.003760 0.006429 -0.005303 0.000000 0.000000 0.000000
# 3 -0.000782 -0.005303 0.028789 0.000000 0.000000 0.000000
# 4 0.000000 0.000000 0.000000 0.022580 0.000000 0.000000
# 5 0.000000 0.000000 0.000000 0.000000 0.016369 0.000000
# 6 0.000000 0.000000 0.000000 0.000000 0.000000 0.018436
#
#
# Mechanical properties :
#
#
# Convention : Reuss Voigt Hill
#
# Bulk Modulus (GPa) = 32.81093 64.63603 48.72348
# Shear Modulus (GPa) = 36.39010 47.64634 42.01822
#
# Velocity S-wave (km/s) = 4.00270 4.58011 4.30110
# Velocity P-wave (km/s) = 5.98397 7.51182 6.79100
#
# Compressibility (1/GPa) = 0.03047765
#
# Stress axis : x y z
#
# Youngs Moduli (GPa) = 66.89533 155.54186 34.73570
#
# Poissons Ratio (x) = 0.58484 0.02715
# Poissons Ratio (y) = 0.25153 0.18420
# Poissons Ratio (z) = 0.05229 0.82481
#
# Static dielectric constant tensor:
#      x y z
#    x 1.898190 0.000000 0.000000 
#    y 0.000000 1.989660 0.000000 
#    z 0.000000 0.000000 1.827170 
# 
# From -- ./inp_files/48950.got.cif
#   From: 2010.05.17/outbox.cif.g08.bks.cpg/sg70_25_cif.got.tgz:48950.got - 2010.06.03 15:57:51.
