data_PCOD9515200
_publ_section_title
;
Structure prediction by ZEFSAII (Michael W. Deem and Ramdas Pophale) SiO2 
 PCOD9515200
Probable space group: F D D D
;
_chemical_formula_sum "Si O2"
_cell_formula_units_Z 136
_cell_length_a 20.537838
_cell_length_b 15.267571
_cell_length_c 20.057183
_cell_angle_alpha 90.000000
_cell_angle_beta 90.000000
_cell_angle_gamma 90.000000
_cell_volume 6289.188464
_symmetry_space_group_name_H-M "F D D D"
_symmetry_group_IT_number 70
_space_group.IT_coordinate_system_code '2'
_symmetry_cell_setting 'orthorhombic'
loop_
_space_group_symop_operation_xyz
x,y,z
1/4-x,1/4-y,z
x,1/4-y,1/4-z
1/4-x,y,1/4-z
-x,-y,-z
3/4+x,3/4+y,-z
-x,3/4+y,3/4+z
3/4+x,-y,3/4+z
x,1/2+y,1/2+z
1/4-x,3/4-y,1/2+z
x,3/4-y,3/4-z
1/4-x,1/2+y,3/4-z
-x,1/2-y,1/2-z
3/4+x,1/4+y,1/2-z
-x,1/4+y,1/4+z
3/4+x,1/2-y,1/4+z
1/2+x,y,1/2+z
3/4-x,1/4-y,1/2+z
1/2+x,1/4-y,3/4-z
3/4-x,y,3/4-z
1/2-x,-y,1/2-z
1/4+x,3/4+y,1/2-z
1/2-x,3/4+y,1/4+z
1/4+x,-y,1/4+z
1/2+x,1/2+y,z
3/4-x,3/4-y,z
1/2+x,3/4-y,1/4-z
3/4-x,1/2+y,1/4-z
1/2-x,1/2-y,-z
1/4+x,1/4+y,-z
1/2-x,1/4+y,3/4+z
1/4+x,1/2-y,3/4+z
loop_
_atom_site_type_symbol
_atom_site_label
_atom_site_fract_x
_atom_site_fract_y
_atom_site_fract_z
Si Si1 0.238551 0.476166 0.399760
Si Si2 0.719279 0.262022 0.696740
Si Si3 0.815100 0.040696 0.287046
Si Si4 0.894555 0.527016 0.656514
Si Si5 0.125000 0.125000 0.125000
O O1 0.231505 0.375000 0.375000
O O2 0.242373 0.497653 0.476967
O O3 0.302925 0.504038 0.360560
O O4 0.168194 0.515728 0.378715
O O5 0.686002 0.356037 0.700738
O O6 0.784657 0.265524 0.652336
O O7 0.671319 0.187436 0.669715
O O8 0.871709 0.025056 0.233942
O O9 0.750000 0.000000 0.250000
O O10 0.902060 0.625000 0.625000
#
# Coordination Sequence:
#
# PCOD9515200 Si02
#       5
#    32  32  32  32   8
#     4  10  21  44  70 102 139 171 226 304 358 411
#     4  12  24  45  70  98 143 183 246 274 352 438
#     4  10  21  42  71 102 134 173 229 298 358 412
#     4  10  20  42  69  96 138 182 219 291 354 424
#     4  12  32  44  64 104 146 212 234 282 332 448
#
# _framework density 21.624410000000001
#
# number of rings (size 3 to 8) (size 9 to 14) (size 15 to 20)
#    0.000    1.412    8.235    0.000    0.000    8.471 
#    0.000    4.706    0.000    0.000    0.000    0.000 
#    0.000    0.000    0.000    0.000    0.000    0.000 
#
# Total GULP energy -189293.501491 kJ/mol
# GULP energy per Si atom -5567.455926 kJ/mol
# Density = 2.157519 g / cm^3
# Si number density = 21.624410 Si / 1000 Ang^3
#
#
#
# Elastic Constant Matrix: (Units=GPa)
#
#
# Indices 1 2 3 4 5 6 
#
# 1 117.8287 23.7511 16.8154 0.0000 0.0000 0.0000
# 2 23.7511 61.2859 17.3070 0.0000 0.0000 0.0000
# 3 16.8154 17.3070 104.1286 0.0000 0.0000 0.0000
# 4 0.0000 0.0000 0.0000 36.9904 0.0000 0.0000
# 5 0.0000 0.0000 0.0000 0.0000 17.8029 0.0000
# 6 0.0000 0.0000 0.0000 0.0000 0.0000 1.9524
#
#
#
# Elastic Compliance Matrix: (Units=1/GPa)
#
#
# Indices 1 2 3 4 5 6 
#
# 1 0.009294 -0.003335 -0.000947 0.000000 0.000000 0.000000
# 2 -0.003335 0.018317 -0.002506 0.000000 0.000000 0.000000
# 3 -0.000947 -0.002506 0.010173 0.000000 0.000000 0.000000
# 4 0.000000 0.000000 0.000000 0.027034 0.000000 0.000000
# 5 0.000000 0.000000 0.000000 0.000000 0.056170 0.000000
# 6 0.000000 0.000000 0.000000 0.000000 0.000000 0.512184
#
#
# Mechanical properties :
#
#
# Convention : Reuss Voigt Hill
#
# Bulk Modulus (GPa) = 41.30583 44.33225 42.81904
# Shear Modulus (GPa) = 7.63572 26.37379 17.00476
#
# Velocity S-wave (km/s) = 1.88115 3.49611 2.80727
# Velocity P-wave (km/s) = 4.88480 6.06981 5.50926
#
# Compressibility (1/GPa) = 0.02420966
#
# Stress axis : x y z
#
# Youngs Moduli (GPa) = 107.59446 54.59427 98.30054
#
# Poissons Ratio (x) = 0.18205 0.09306
# Poissons Ratio (y) = 0.35878 0.24633
# Poissons Ratio (z) = 0.10185 0.13681
#
# Static dielectric constant tensor:
#      x y z
#    x 1.817030 0.000000 0.000000 
#    y 0.000000 1.843680 0.000000 
#    z 0.000000 0.000000 1.804530 
# 
# From -- ./inp_files/42664.got.cif
#   From: 2010.05.17/outbox.cif.g08.bks.cpg/sg70_22_cif.got.tgz:42664.got - 2010.06.03 15:57:51.
