data_PCOD9515905
_publ_section_title
;
Structure prediction by ZEFSAII (Michael W. Deem and Ramdas Pophale) SiO2 
 PCOD9515905
Probable space group: F D D D
;
_chemical_formula_sum "Si O2"
_cell_formula_units_Z 104
_cell_length_a 15.200867
_cell_length_b 25.152117
_cell_length_c 13.772447
_cell_angle_alpha 90.000000
_cell_angle_beta 90.000000
_cell_angle_gamma 90.000000
_cell_volume 5265.674549
_symmetry_space_group_name_H-M "F D D D"
_symmetry_group_IT_number 70
_space_group.IT_coordinate_system_code '2'
_symmetry_cell_setting 'orthorhombic'
loop_
_space_group_symop_operation_xyz
x,y,z
1/4-x,1/4-y,z
x,1/4-y,1/4-z
1/4-x,y,1/4-z
-x,-y,-z
3/4+x,3/4+y,-z
-x,3/4+y,3/4+z
3/4+x,-y,3/4+z
x,1/2+y,1/2+z
1/4-x,3/4-y,1/2+z
x,3/4-y,3/4-z
1/4-x,1/2+y,3/4-z
-x,1/2-y,1/2-z
3/4+x,1/4+y,1/2-z
-x,1/4+y,1/4+z
3/4+x,1/2-y,1/4+z
1/2+x,y,1/2+z
3/4-x,1/4-y,1/2+z
1/2+x,1/4-y,3/4-z
3/4-x,y,3/4-z
1/2-x,-y,1/2-z
1/4+x,3/4+y,1/2-z
1/2-x,3/4+y,1/4+z
1/4+x,-y,1/4+z
1/2+x,1/2+y,z
3/4-x,3/4-y,z
1/2+x,3/4-y,1/4-z
3/4-x,1/2+y,1/4-z
1/2-x,1/2-y,-z
1/4+x,1/4+y,-z
1/2-x,1/4+y,3/4+z
1/4+x,1/2-y,3/4+z
loop_
_atom_site_type_symbol
_atom_site_label
_atom_site_fract_x
_atom_site_fract_y
_atom_site_fract_z
Si Si1 0.241442 0.430130 0.524933
Si Si2 0.221833 0.702930 0.670066
Si Si3 0.625000 0.125000 0.125000
Si Si4 0.790516 0.155439 0.489429
O O1 0.232414 0.493842 0.518237
O O2 0.311359 0.408203 0.447833
O O3 0.257668 0.421054 0.639868
O O4 0.146271 0.401580 0.516212
O O5 0.125000 0.700309 0.625000
O O6 0.279504 0.699691 0.572578
O O7 0.248176 0.649972 0.727280
#
# Coordination Sequence:
#
# PCOD9515905 Si02
#       4
#    32  32   8  32
#     4  11  25  43  62  94 139 176 212 271 332 392
#     4  11  22  40  73  96 119 168 225 278 325 376
#     4  12  28  40  60  94 142 188 212 256 340 416
#     4  10  22  42  67  98 128 163 226 279 318 390
#
# _framework density 19.750554999999999
#
# number of rings (size 3 to 8) (size 9 to 14) (size 15 to 20)
#    0.000    1.231    3.077    4.615    4.308    2.462 
#    0.000    4.615    0.000    0.000    0.000    0.000 
#    0.000    0.000    0.000    0.000    0.000    0.000 
#
# Total GULP energy -144957.998560 kJ/mol
# GULP energy per Si atom -5575.307637 kJ/mol
# Density = 1.970560 g / cm^3
# Si number density = 19.750555 Si / 1000 Ang^3
#
#
#
# Elastic Constant Matrix: (Units=GPa)
#
#
# Indices 1 2 3 4 5 6 
#
# 1 90.8232 62.2729 38.3168 0.0000 0.0000 0.0000
# 2 62.2729 148.9574 36.6615 0.0000 0.0000 0.0000
# 3 38.3168 36.6615 76.0328 0.0000 0.0000 0.0000
# 4 0.0000 0.0000 0.0000 28.7143 0.0000 0.0000
# 5 0.0000 0.0000 0.0000 0.0000 37.2243 0.0000
# 6 0.0000 0.0000 0.0000 0.0000 0.0000 32.6435
#
#
#
# Elastic Compliance Matrix: (Units=1/GPa)
#
#
# Indices 1 2 3 4 5 6 
#
# 1 0.017574 -0.005863 -0.006029 0.000000 0.000000 0.000000
# 2 -0.005863 0.009573 -0.001661 0.000000 0.000000 0.000000
# 3 -0.006029 -0.001661 0.016992 0.000000 0.000000 0.000000
# 4 0.000000 0.000000 0.000000 0.034826 0.000000 0.000000
# 5 0.000000 0.000000 0.000000 0.000000 0.026864 0.000000
# 6 0.000000 0.000000 0.000000 0.000000 0.000000 0.030634
#
#
# Mechanical properties :
#
#
# Convention : Reuss Voigt Hill
#
# Bulk Modulus (GPa) = 58.71458 65.59066 62.15262
# Shear Modulus (GPa) = 29.54239 31.62055 30.58147
#
# Velocity S-wave (km/s) = 3.87172 4.00558 3.93922
# Velocity P-wave (km/s) = 7.05546 7.39423 7.22683
#
# Compressibility (1/GPa) = 0.01703154
#
# Stress axis : x y z
#
# Youngs Moduli (GPa) = 56.90184 104.45694 58.85171
#
# Poissons Ratio (x) = 0.61244 0.35484
# Poissons Ratio (y) = 0.33362 0.09778
# Poissons Ratio (z) = 0.34309 0.17354
#
# Static dielectric constant tensor:
#      x y z
#    x 1.774110 0.000000 0.000000 
#    y 0.000000 1.699720 0.000000 
#    z 0.000000 0.000000 1.741500 
# 
# From -- ./inp_files/20206.got.cif
#   From: 2010.05.17/outbox.cif.g08.bks.cpg/sg70_11_cif.got.tgz:20206.got - 2010.06.03 15:57:51.
