data_PCOD9515963
_publ_section_title
;
Structure prediction by ZEFSAII (Michael W. Deem and Ramdas Pophale) SiO2 
 PCOD9515963
Probable space group: F D D D
;
_chemical_formula_sum "Si O2"
_cell_formula_units_Z 112
_cell_length_a 26.420687
_cell_length_b 22.954040
_cell_length_c 7.866099
_cell_angle_alpha 90.000000
_cell_angle_beta 90.000000
_cell_angle_gamma 90.000000
_cell_volume 4770.486248
_symmetry_space_group_name_H-M "F D D D"
_symmetry_group_IT_number 70
_space_group.IT_coordinate_system_code '2'
_symmetry_cell_setting 'orthorhombic'
loop_
_space_group_symop_operation_xyz
x,y,z
1/4-x,1/4-y,z
x,1/4-y,1/4-z
1/4-x,y,1/4-z
-x,-y,-z
3/4+x,3/4+y,-z
-x,3/4+y,3/4+z
3/4+x,-y,3/4+z
x,1/2+y,1/2+z
1/4-x,3/4-y,1/2+z
x,3/4-y,3/4-z
1/4-x,1/2+y,3/4-z
-x,1/2-y,1/2-z
3/4+x,1/4+y,1/2-z
-x,1/4+y,1/4+z
3/4+x,1/2-y,1/4+z
1/2+x,y,1/2+z
3/4-x,1/4-y,1/2+z
1/2+x,1/4-y,3/4-z
3/4-x,y,3/4-z
1/2-x,-y,1/2-z
1/4+x,3/4+y,1/2-z
1/2-x,3/4+y,1/4+z
1/4+x,-y,1/4+z
1/2+x,1/2+y,z
3/4-x,3/4-y,z
1/2+x,3/4-y,1/4-z
3/4-x,1/2+y,1/4-z
1/2-x,1/2-y,-z
1/4+x,1/4+y,-z
1/2-x,1/4+y,3/4+z
1/4+x,1/2-y,3/4+z
loop_
_atom_site_type_symbol
_atom_site_label
_atom_site_fract_x
_atom_site_fract_y
_atom_site_fract_z
Si Si1 0.001780 0.125000 0.625000
Si Si2 0.065324 0.695265 0.645852
Si Si3 0.819934 0.139630 0.820572
Si Si4 0.470766 0.490124 0.262747
O O1 0.968505 0.135491 0.457529
O O2 0.030239 0.185663 0.640165
O O3 0.059123 0.625000 0.625000
O O4 0.125000 0.708523 0.625000
O O5 0.050060 0.716349 0.833855
O O6 0.025633 0.729697 0.524529
O O7 0.809286 0.125000 0.625000
O O8 0.875000 0.119098 0.875000
O O9 0.814417 0.208805 0.832180
#
# Coordination Sequence:
#
# PCOD9515963 Si02
#       4
#    16  32  32  32
#     4  12  26  46  73 104 148 186 243 304 364 434
#     4  10  22  43  73 104 142 191 239 296 365 430
#     4  12  26  46  73 106 143 191 243 301 365 431
#     4  11  24  43  70 104 145 187 239 299 357 434
#
# _framework density 23.477689000000002
#
# number of rings (size 3 to 8) (size 9 to 14) (size 15 to 20)
#    0.000    0.857    1.429    6.857    4.000    2.286 
#    5.143    0.000    0.000    0.000    0.000    0.000 
#    0.000    0.000    0.000    0.000    0.000    0.000 
#
# Total GULP energy -156753.929379 kJ/mol
# GULP energy per Si atom -5598.354621 kJ/mol
# Density = 2.342425 g / cm^3
# Si number density = 23.477689 Si / 1000 Ang^3
#
#
#
# Elastic Constant Matrix: (Units=GPa)
#
#
# Indices 1 2 3 4 5 6 
#
# 1 119.4668 23.5408 21.4609 0.0000 -0.0002 0.0002
# 2 23.5408 139.3372 -1.1209 0.0011 -0.0004 0.0005
# 3 21.4609 -1.1209 104.3245 0.0028 -0.0009 0.0023
# 4 0.0000 0.0011 0.0028 46.0058 -0.0007 0.0003
# 5 -0.0002 -0.0004 -0.0009 -0.0007 18.6179 -0.0002
# 6 0.0002 0.0005 0.0023 0.0003 -0.0002 -10.9619
#
#
#
# Elastic Compliance Matrix: (Units=1/GPa)
#
#
# Indices 1 2 3 4 5 6 
#
# 1 0.009009 -0.001537 -0.001870 0.000000 0.000000 0.000000
# 2 -0.001537 0.007440 0.000396 0.000000 0.000000 0.000000
# 3 -0.001870 0.000396 0.009974 -0.000001 0.000000 0.000002
# 4 0.000000 0.000000 -0.000001 0.021736 0.000001 0.000001
# 5 0.000000 0.000000 0.000000 0.000001 0.053712 -0.000001
# 6 0.000000 0.000000 0.000002 0.000001 -0.000001 -0.091225
#
#
# Mechanical properties :
#
#
# Convention : Reuss Voigt Hill
#
# Bulk Modulus (GPa) = 49.01546 50.09888 49.55717
# Shear Modulus (GPa) = 213.04534 32.01554 122.53044
#
# Velocity S-wave (km/s) = 9.53629 3.69678 7.23211
# Velocity P-wave (km/s) = 11.92380 6.29340 9.53373
#
# Compressibility (1/GPa) = 0.02040173
#
# Stress axis : x y z
#
# Youngs Moduli (GPa) = 110.99624 134.41370 100.25678
#
# Poissons Ratio (x) = 0.20661 0.18746
# Poissons Ratio (y) = 0.17062 -0.03972
# Poissons Ratio (z) = 0.20755 -0.05325
#
# Static dielectric constant tensor:
#      x y z
#    x 1.871640 0.000000 0.000000 
#    y 0.000000 1.904660 0.000000 
#    z 0.000000 0.000000 2.009990 
# 
# From -- ./inp_files/10674.got.cif
#   From: 2010.05.17/outbox.cif.g08.bks.cpg/sg70_6_cif.got.tgz:10674.got - 2010.06.03 15:57:51.
