data_PCOD9515168
_publ_section_title
;
Structure prediction by ZEFSAII (Michael W. Deem and Ramdas Pophale) SiO2 
 PCOD9515168
Probable space group: F D D D
;
_chemical_formula_sum "Si O2"
_cell_formula_units_Z 240
_cell_length_a 31.772608
_cell_length_b 18.651676
_cell_length_c 21.905891
_cell_angle_alpha 90.000000
_cell_angle_beta 90.000000
_cell_angle_gamma 90.000000
_cell_volume 12981.702423
_symmetry_space_group_name_H-M "F D D D"
_symmetry_group_IT_number 70
_space_group.IT_coordinate_system_code '2'
_symmetry_cell_setting 'orthorhombic'
loop_
_space_group_symop_operation_xyz
x,y,z
1/4-x,1/4-y,z
x,1/4-y,1/4-z
1/4-x,y,1/4-z
-x,-y,-z
3/4+x,3/4+y,-z
-x,3/4+y,3/4+z
3/4+x,-y,3/4+z
x,1/2+y,1/2+z
1/4-x,3/4-y,1/2+z
x,3/4-y,3/4-z
1/4-x,1/2+y,3/4-z
-x,1/2-y,1/2-z
3/4+x,1/4+y,1/2-z
-x,1/4+y,1/4+z
3/4+x,1/2-y,1/4+z
1/2+x,y,1/2+z
3/4-x,1/4-y,1/2+z
1/2+x,1/4-y,3/4-z
3/4-x,y,3/4-z
1/2-x,-y,1/2-z
1/4+x,3/4+y,1/2-z
1/2-x,3/4+y,1/4+z
1/4+x,-y,1/4+z
1/2+x,1/2+y,z
3/4-x,3/4-y,z
1/2+x,3/4-y,1/4-z
3/4-x,1/2+y,1/4-z
1/2-x,1/2-y,-z
1/4+x,1/4+y,-z
1/2-x,1/4+y,3/4+z
1/4+x,1/2-y,3/4+z
loop_
_atom_site_type_symbol
_atom_site_label
_atom_site_fract_x
_atom_site_fract_y
_atom_site_fract_z
Si Si1 0.606824 0.050631 0.694598
Si Si2 0.251145 0.993440 0.678213
Si Si3 0.491336 0.942004 0.329818
Si Si4 0.399173 0.598586 0.752926
Si Si5 0.472908 0.147539 0.892469
Si Si6 0.062684 0.820872 0.022399
Si Si7 0.805029 0.125000 0.125000
Si Si8 0.421337 0.291023 0.387361
O O1 0.625000 0.125000 0.718161
O O2 0.625000 0.041100 0.625000
O O3 0.556472 0.059580 0.695221
O O4 0.618215 0.980969 0.733234
O O5 0.277703 0.055222 0.644716
O O6 0.203479 0.006863 0.658722
O O7 0.250000 0.000000 0.750000
O O8 0.258590 0.911451 0.658638
O O9 0.494895 0.875000 0.375000
O O10 0.528000 0.930840 0.280374
O O11 0.491683 0.022273 0.358586
O O12 0.436195 0.606321 0.804725
O O13 0.359701 0.652503 0.757011
O O14 0.419037 0.605488 0.685781
O O15 0.453066 0.121839 0.828216
O O16 0.065107 0.739190 0.047478
O O17 0.422216 0.375000 0.375000
O O18 0.375000 0.263310 0.375000
#
# Coordination Sequence:
#
# PCOD9515168 Si02
#       8
#    32  32  32  32  32  32  16  32
#     4  10  20  41  69  93 118 163 222 267 309 383
#     4  11  22  39  65  91 127 167 216 262 318 389
#     4  11  24  41  65  98 130 161 212 274 326 377
#     4  11  23  42  65  89 134 171 216 258 328 395
#     4  10  23  41  69  93 121 171 220 267 314 393
#     4  11  24  40  65  95 131 167 214 266 329 383
#     4  12  26  40  63  94 132 176 215 264 334 388
#     4  10  22  38  62  93 125 163 213 265 314 370
#
# _framework density 18.487559000000001
#
# number of rings (size 3 to 8) (size 9 to 14) (size 15 to 20)
#    0.000    1.333    3.333    3.600   10.267    0.533 
#    0.000    0.000    0.000    0.000    0.000    0.000 
#    0.000    0.000    0.000    0.000    0.000    0.000 
#
# Total GULP energy -334412.228853 kJ/mol
# GULP energy per Si atom -5573.537148 kJ/mol
# Density = 1.844548 g / cm^3
# Si number density = 18.487559 Si / 1000 Ang^3
#
#
#
# Elastic Constant Matrix: (Units=GPa)
#
#
# Indices 1 2 3 4 5 6 
#
# 1 81.1560 48.6871 48.6661 0.0000 0.0000 0.0000
# 2 48.6871 160.5464 44.9994 0.0000 0.0000 0.0000
# 3 48.6661 44.9994 76.7471 0.0000 0.0000 0.0000
# 4 0.0000 0.0000 0.0000 20.0286 0.0000 0.0000
# 5 0.0000 0.0000 0.0000 0.0000 25.4027 0.0000
# 6 0.0000 0.0000 0.0000 0.0000 0.0000 -1.2415
#
#
#
# Elastic Compliance Matrix: (Units=1/GPa)
#
#
# Indices 1 2 3 4 5 6 
#
# 1 0.021155 -0.003178 -0.011552 0.000000 0.000000 0.000000
# 2 -0.003178 0.007931 -0.002635 0.000000 0.000000 0.000000
# 3 -0.011552 -0.002635 0.021900 0.000000 0.000000 0.000000
# 4 0.000000 0.000000 0.000000 0.049929 0.000000 0.000000
# 5 0.000000 0.000000 0.000000 0.000000 0.039366 0.000000
# 6 0.000000 0.000000 0.000000 0.000000 0.000000 -0.805446
#
#
# Mechanical properties :
#
#
# Convention : Reuss Voigt Hill
#
# Bulk Modulus (GPa) = 61.51115 67.01716 64.26415
# Shear Modulus (GPa) = -7.99978 20.57775 6.28899
#
# Velocity S-wave (km/s) = -2.08243 3.33987 1.84638
# Velocity P-wave (km/s) = 5.24994 7.15553 6.27549
#
# Compressibility (1/GPa) = 0.01625721
#
# Stress axis : x y z
#
# Youngs Moduli (GPa) = 47.26926 126.08715 45.66234
#
# Poissons Ratio (x) = 0.40068 0.52747
# Poissons Ratio (y) = 0.15021 0.12033
# Poissons Ratio (z) = 0.54604 0.33226
#
# Static dielectric constant tensor:
#      x y z
#    x 1.645400 0.000000 0.000000 
#    y 0.000000 1.729930 0.000000 
#    z 0.000000 0.000000 1.690350 
# 
# From -- ./inp_files/47812.got.cif
#   From: 2010.05.17/outbox.cif.g08.bks.cpg/sg70_24_cif.got.tgz:47812.got - 2010.06.03 15:57:51.
