data_PCOD9515570
_publ_section_title
;
Structure prediction by ZEFSAII (Michael W. Deem and Ramdas Pophale) SiO2 
 PCOD9515570
Probable space group: F D D D
;
_chemical_formula_sum "Si O2"
_cell_formula_units_Z 176
_cell_length_a 22.339656
_cell_length_b 15.356334
_cell_length_c 20.546375
_cell_angle_alpha 90.000000
_cell_angle_beta 90.000000
_cell_angle_gamma 90.000000
_cell_volume 7048.541175
_symmetry_space_group_name_H-M "F D D D"
_symmetry_group_IT_number 70
_space_group.IT_coordinate_system_code '2'
_symmetry_cell_setting 'orthorhombic'
loop_
_space_group_symop_operation_xyz
x,y,z
1/4-x,1/4-y,z
x,1/4-y,1/4-z
1/4-x,y,1/4-z
-x,-y,-z
3/4+x,3/4+y,-z
-x,3/4+y,3/4+z
3/4+x,-y,3/4+z
x,1/2+y,1/2+z
1/4-x,3/4-y,1/2+z
x,3/4-y,3/4-z
1/4-x,1/2+y,3/4-z
-x,1/2-y,1/2-z
3/4+x,1/4+y,1/2-z
-x,1/4+y,1/4+z
3/4+x,1/2-y,1/4+z
1/2+x,y,1/2+z
3/4-x,1/4-y,1/2+z
1/2+x,1/4-y,3/4-z
3/4-x,y,3/4-z
1/2-x,-y,1/2-z
1/4+x,3/4+y,1/2-z
1/2-x,3/4+y,1/4+z
1/4+x,-y,1/4+z
1/2+x,1/2+y,z
3/4-x,3/4-y,z
1/2+x,3/4-y,1/4-z
3/4-x,1/2+y,1/4-z
1/2-x,1/2-y,-z
1/4+x,1/4+y,-z
1/2-x,1/4+y,3/4+z
1/4+x,1/2-y,3/4+z
loop_
_atom_site_type_symbol
_atom_site_label
_atom_site_fract_x
_atom_site_fract_y
_atom_site_fract_z
Si Si1 0.969604 0.875000 0.875000
Si Si2 0.558859 0.399513 0.528107
Si Si3 0.916945 0.025287 0.605655
Si Si4 0.781322 0.693933 0.334078
Si Si5 0.088926 0.473960 0.558237
Si Si6 0.702800 0.519689 0.448927
O O1 0.933971 0.822441 0.817581
O O2 0.008643 0.804915 0.913375
O O3 0.555849 0.460984 0.466333
O O4 0.565660 0.448968 0.596991
O O5 0.611142 0.325439 0.514406
O O6 0.496849 0.349866 0.541761
O O7 0.902719 0.125000 0.625000
O O8 0.856288 0.971971 0.594272
O O9 0.965848 0.983143 0.652976
O O10 0.783207 0.592233 0.312522
O O11 0.811807 0.740956 0.272799
O O12 0.125000 0.466231 0.625000
#
# Coordination Sequence:
#
# PCOD9515570 Si02
#       6
#    16  32  32  32  32  32
#     4  12  23  42  68 106 142 188 239 296 376 452
#     4  11  24  48  70 102 146 191 245 307 368 449
#     4  12  25  45  72 103 148 193 248 316 363 442
#     4  11  24  45  70 101 142 197 244 299 377 434
#     4  10  21  41  72  95 135 188 236 295 368 442
#     4  12  25  41  72 107 146 185 249 304 372 443
#
# _framework density 24.969705000000001
#
# number of rings (size 3 to 8) (size 9 to 14) (size 15 to 20)
#    0.000    0.727    8.182    0.818    0.000    1.455 
#    3.273    1.818    0.000    4.909    0.000    0.000 
#    0.000    0.000    0.000    0.000    0.000    0.000 
#
# Total GULP energy -245604.600765 kJ/mol
# GULP energy per Si atom -5581.922745 kJ/mol
# Density = 2.491287 g / cm^3
# Si number density = 24.969705 Si / 1000 Ang^3
#
#
#
# Elastic Constant Matrix: (Units=GPa)
#
#
# Indices 1 2 3 4 5 6 
#
# 1 147.7875 60.7494 10.1666 0.0000 0.0000 0.0000
# 2 60.7494 102.7274 6.2452 0.0000 0.0000 0.0000
# 3 10.1666 6.2452 80.5696 0.0000 0.0000 0.0000
# 4 0.0000 0.0000 0.0000 20.9528 0.0000 0.0000
# 5 0.0000 0.0000 0.0000 0.0000 39.9948 0.0000
# 6 0.0000 0.0000 0.0000 0.0000 0.0000 42.2352
#
#
#
# Elastic Compliance Matrix: (Units=1/GPa)
#
#
# Indices 1 2 3 4 5 6 
#
# 1 0.008982 -0.005267 -0.000725 0.000000 0.000000 0.000000
# 2 -0.005267 0.012870 -0.000333 0.000000 0.000000 0.000000
# 3 -0.000725 -0.000333 0.012529 0.000000 0.000000 0.000000
# 4 0.000000 0.000000 0.000000 0.047726 0.000000 0.000000
# 5 0.000000 0.000000 0.000000 0.000000 0.025003 0.000000
# 6 0.000000 0.000000 0.000000 0.000000 0.000000 0.023677
#
#
# Mechanical properties :
#
#
# Convention : Reuss Voigt Hill
#
# Bulk Modulus (GPa) = 46.02020 53.93412 49.97716
# Shear Modulus (GPa) = 33.18287 37.56479 35.37383
#
# Velocity S-wave (km/s) = 3.64940 3.88289 3.76795
# Velocity P-wave (km/s) = 6.01896 6.46136 6.24408
#
# Compressibility (1/GPa) = 0.02172959
#
# Stress axis : x y z
#
# Youngs Moduli (GPa) = 111.33990 77.70240 79.81532
#
# Poissons Ratio (x) = 0.40928 0.05787
# Poissons Ratio (y) = 0.58646 0.02657
# Poissons Ratio (z) = 0.08073 0.02587
#
# Static dielectric constant tensor:
#      x y z
#    x 2.118620 0.000000 0.000000 
#    y 0.000000 2.079780 0.000000 
#    z 0.000000 0.000000 2.030810 
# 
# From -- ./inp_files/53606.got.cif
#   From: 2010.05.17/outbox.cif.g08.bks.cpg/sg70_27_cif.got.tgz:53606.got - 2010.06.03 15:57:51.
