data_PCOD9515049
_publ_section_title
;
Structure prediction by ZEFSAII (Michael W. Deem and Ramdas Pophale) SiO2 
 PCOD9515049
Probable space group: F D D D
;
_chemical_formula_sum "Si O2"
_cell_formula_units_Z 240
_cell_length_a 31.566179
_cell_length_b 26.398242
_cell_length_c 14.764399
_cell_angle_alpha 90.000000
_cell_angle_beta 90.000000
_cell_angle_gamma 90.000000
_cell_volume 12303.050142
_symmetry_space_group_name_H-M "F D D D"
_symmetry_group_IT_number 70
_space_group.IT_coordinate_system_code '2'
_symmetry_cell_setting 'orthorhombic'
loop_
_space_group_symop_operation_xyz
x,y,z
1/4-x,1/4-y,z
x,1/4-y,1/4-z
1/4-x,y,1/4-z
-x,-y,-z
3/4+x,3/4+y,-z
-x,3/4+y,3/4+z
3/4+x,-y,3/4+z
x,1/2+y,1/2+z
1/4-x,3/4-y,1/2+z
x,3/4-y,3/4-z
1/4-x,1/2+y,3/4-z
-x,1/2-y,1/2-z
3/4+x,1/4+y,1/2-z
-x,1/4+y,1/4+z
3/4+x,1/2-y,1/4+z
1/2+x,y,1/2+z
3/4-x,1/4-y,1/2+z
1/2+x,1/4-y,3/4-z
3/4-x,y,3/4-z
1/2-x,-y,1/2-z
1/4+x,3/4+y,1/2-z
1/2-x,3/4+y,1/4+z
1/4+x,-y,1/4+z
1/2+x,1/2+y,z
3/4-x,3/4-y,z
1/2+x,3/4-y,1/4-z
3/4-x,1/2+y,1/4-z
1/2-x,1/2-y,-z
1/4+x,1/4+y,-z
1/2-x,1/4+y,3/4+z
1/4+x,1/2-y,3/4+z
loop_
_atom_site_type_symbol
_atom_site_label
_atom_site_fract_x
_atom_site_fract_y
_atom_site_fract_z
Si Si1 0.742432 0.314621 0.712358
Si Si2 0.547601 0.027000 0.825879
Si Si3 0.534434 0.840891 0.595422
Si Si4 0.263929 0.125000 0.625000
Si Si5 0.208387 0.241337 0.938051
Si Si6 0.182399 0.959567 0.769289
Si Si7 0.091860 0.323927 0.421884
Si Si8 0.380328 0.314675 0.771578
O O1 0.715417 0.270314 0.761028
O O2 0.718115 0.354802 0.646920
O O3 0.761037 0.346736 0.796008
O O4 0.776641 0.287243 0.651751
O O5 0.512423 0.070760 0.820810
O O6 0.593316 0.043425 0.791536
O O7 0.550277 0.009170 0.930304
O O8 0.555035 0.800699 0.665964
O O9 0.561674 0.840156 0.504550
O O10 0.293990 0.085396 0.676293
O O11 0.184231 0.291291 0.901948
O O12 0.250000 0.250000 0.000000
O O13 0.175340 0.205771 0.989410
O O14 0.132459 0.955389 0.788622
O O15 0.107981 0.375000 0.375000
O O16 0.375000 0.297319 0.875000
O O17 0.375000 0.375000 0.769727
#
# Coordination Sequence:
#
# PCOD9515049 Si02
#       8
#    32  32  32  16  32  32  32  32
#     4  10  21  40  64  94 127 167 211 266 323 385
#     4  11  21  42  64  94 127 169 221 261 327 396
#     4  11  23  39  65  95 125 167 216 274 325 395
#     4   8  18  36  64  88 121 160 214 255 310 396
#     4  12  24  43  64  93 133 169 216 270 330 389
#     4  10  20  39  62  90 123 167 211 265 328 383
#     4  12  24  40  62  95 132 165 212 276 331 391
#     4  11  25  42  66  93 130 176 218 264 322 406
#
# _framework density 19.507358
#
# number of rings (size 3 to 8) (size 9 to 14) (size 15 to 20)
#    0.000    1.200    3.333    3.200    0.000    0.000 
#    0.000    1.333    0.000    0.000    0.000    0.000 
#    0.000    0.000    0.000    0.000    0.000    0.000 
#
# Total GULP energy -334948.995032 kJ/mol
# GULP energy per Si atom -5582.483251 kJ/mol
# Density = 1.946296 g / cm^3
# Si number density = 19.507358 Si / 1000 Ang^3
#
#
#
# Elastic Constant Matrix: (Units=GPa)
#
#
# Indices 1 2 3 4 5 6 
#
# 1 96.9081 14.8550 18.4495 0.0000 0.0000 0.0000
# 2 14.8550 48.7373 16.0090 0.0000 0.0000 0.0000
# 3 18.4495 16.0090 53.9833 0.0000 0.0000 0.0000
# 4 0.0000 0.0000 0.0000 15.8184 0.0000 0.0000
# 5 0.0000 0.0000 0.0000 0.0000 26.9904 0.0000
# 6 0.0000 0.0000 0.0000 0.0000 0.0000 -7.1200
#
#
#
# Elastic Compliance Matrix: (Units=1/GPa)
#
#
# Indices 1 2 3 4 5 6 
#
# 1 0.011287 -0.002408 -0.003143 0.000000 0.000000 0.000000
# 2 -0.002408 0.023246 -0.006071 0.000000 0.000000 0.000000
# 3 -0.003143 -0.006071 0.021399 0.000000 0.000000 0.000000
# 4 0.000000 0.000000 0.000000 0.063218 0.000000 0.000000
# 5 0.000000 0.000000 0.000000 0.000000 0.037050 0.000000
# 6 0.000000 0.000000 0.000000 0.000000 0.000000 -0.140448
#
#
# Mechanical properties :
#
#
# Convention : Reuss Voigt Hill
#
# Bulk Modulus (GPa) = 30.59242 33.13953 31.86597
# Shear Modulus (GPa) = 100.21909 17.15875 58.68892
#
# Velocity S-wave (km/s) = 7.17541 2.96903 5.49098
# Velocity P-wave (km/s) = 9.18506 5.36457 7.52143
#
# Compressibility (1/GPa) = 0.03268784
#
# Stress axis : x y z
#
# Youngs Moduli (GPa) = 88.60105 43.01793 46.73143
#
# Poissons Ratio (x) = 0.10357 0.14689
# Poissons Ratio (y) = 0.21332 0.28370
# Poissons Ratio (z) = 0.27850 0.26116
#
# Static dielectric constant tensor:
#      x y z
#    x 1.620570 0.000000 0.000000 
#    y 0.000000 1.701570 0.000000 
#    z 0.000000 0.000000 1.706880 
# 
# From -- ./inp_files/31363.got.cif
#   From: 2010.05.17/outbox.cif.g08.bks.cpg/sg70_16_cif.got.tgz:31363.got - 2010.06.03 15:57:51.
