data_PCOD9515712
_publ_section_title
;
Structure prediction by ZEFSAII (Michael W. Deem and Ramdas Pophale) SiO2 
 PCOD9515712
Probable space group: F D D D
;
_chemical_formula_sum "Si O2"
_cell_formula_units_Z 208
_cell_length_a 17.201965
_cell_length_b 22.071090
_cell_length_c 29.176263
_cell_angle_alpha 90.000000
_cell_angle_beta 90.000000
_cell_angle_gamma 90.000000
_cell_volume 11077.238502
_symmetry_space_group_name_H-M "F D D D"
_symmetry_group_IT_number 70
_space_group.IT_coordinate_system_code '2'
_symmetry_cell_setting 'orthorhombic'
loop_
_space_group_symop_operation_xyz
x,y,z
1/4-x,1/4-y,z
x,1/4-y,1/4-z
1/4-x,y,1/4-z
-x,-y,-z
3/4+x,3/4+y,-z
-x,3/4+y,3/4+z
3/4+x,-y,3/4+z
x,1/2+y,1/2+z
1/4-x,3/4-y,1/2+z
x,3/4-y,3/4-z
1/4-x,1/2+y,3/4-z
-x,1/2-y,1/2-z
3/4+x,1/4+y,1/2-z
-x,1/4+y,1/4+z
3/4+x,1/2-y,1/4+z
1/2+x,y,1/2+z
3/4-x,1/4-y,1/2+z
1/2+x,1/4-y,3/4-z
3/4-x,y,3/4-z
1/2-x,-y,1/2-z
1/4+x,3/4+y,1/2-z
1/2-x,3/4+y,1/4+z
1/4+x,-y,1/4+z
1/2+x,1/2+y,z
3/4-x,3/4-y,z
1/2+x,3/4-y,1/4-z
3/4-x,1/2+y,1/4-z
1/2-x,1/2-y,-z
1/4+x,1/4+y,-z
1/2-x,1/4+y,3/4+z
1/4+x,1/2-y,3/4+z
loop_
_atom_site_type_symbol
_atom_site_label
_atom_site_fract_x
_atom_site_fract_y
_atom_site_fract_z
Si Si1 0.497424 0.875000 0.375000
Si Si2 0.871424 0.122230 0.547495
Si Si3 0.499705 0.375000 0.375000
Si Si4 0.440879 0.696629 0.962377
Si Si5 0.354639 0.495917 0.007571
Si Si6 0.432850 0.999644 0.408814
Si Si7 0.125000 0.231886 0.625000
Si Si8 0.055951 0.592369 0.427992
O O1 0.551057 0.857194 0.418120
O O2 0.449992 0.932387 0.391835
O O3 0.947143 0.120836 0.579642
O O4 0.863263 0.078669 0.503422
O O5 0.866855 0.191711 0.530602
O O6 0.447633 0.314507 0.373154
O O7 0.511974 0.737416 0.983656
O O8 0.393471 0.728421 0.920831
O O9 0.489169 0.639257 0.942279
O O10 0.397181 0.438273 0.030178
O O11 0.388144 0.498041 0.956666
O O12 0.375000 0.033130 0.375000
O O13 0.512996 0.035459 0.406815
O O14 0.125000 0.625000 0.400108
#
# Coordination Sequence:
#
# PCOD9515712 Si02
#       8
#    16  32  16  32  32  32  16  32
#     4  11  23  37  61  97 131 176 216 266 314 404
#     4  11  21  40  67  94 129 168 222 264 330 383
#     4  10  24  45  71  92 122 174 220 282 316 394
#     4  11  23  38  65  97 125 171 214 270 328 398
#     4  11  21  42  62  90 132 171 208 257 330 394
#     4  12  23  36  59  94 132 165 212 265 319 386
#     4  11  24  44  68  94 128 165 228 268 336 383
#     4  10  22  37  60  84 124 170 207 248 321 387
#
# _framework density 18.777242999999999
#
# number of rings (size 3 to 8) (size 9 to 14) (size 15 to 20)
#    0.000    1.077    4.615    2.538    1.077    3.077 
#    0.000    0.000    0.000    1.846    0.000    0.000 
#    0.000    0.000    0.000    0.000    0.000    0.000 
#
# Total GULP energy -289863.771562 kJ/mol
# GULP energy per Si atom -5574.303299 kJ/mol
# Density = 1.873450 g / cm^3
# Si number density = 18.777243 Si / 1000 Ang^3
#
#
#
# Elastic Constant Matrix: (Units=GPa)
#
#
# Indices 1 2 3 4 5 6 
#
# 1 106.9724 38.0124 70.8927 0.0000 0.0000 0.0000
# 2 38.0124 72.4340 72.9533 0.0000 0.0000 0.0000
# 3 70.8927 72.9533 122.5250 0.0000 0.0000 0.0000
# 4 0.0000 0.0000 0.0000 97.5884 0.0000 0.0000
# 5 0.0000 0.0000 0.0000 0.0000 13.5467 0.0000
# 6 0.0000 0.0000 0.0000 0.0000 0.0000 16.7412
#
#
#
# Elastic Compliance Matrix: (Units=1/GPa)
#
#
# Indices 1 2 3 4 5 6 
#
# 1 0.015303 0.002216 -0.010174 0.000000 0.000000 0.000000
# 2 0.002216 0.034808 -0.022007 0.000000 0.000000 0.000000
# 3 -0.010174 -0.022007 0.027151 0.000000 0.000000 0.000000
# 4 0.000000 0.000000 0.000000 0.010247 0.000000 0.000000
# 5 0.000000 0.000000 0.000000 0.000000 0.073819 0.000000
# 6 0.000000 0.000000 0.000000 0.000000 0.000000 0.059733
#
#
# Mechanical properties :
#
#
# Convention : Reuss Voigt Hill
#
# Bulk Modulus (GPa) = 57.69590 73.96093 65.82842
# Shear Modulus (GPa) = 17.43567 33.58013 25.50790
#
# Velocity S-wave (km/s) = 3.05052 4.23347 3.68971
# Velocity P-wave (km/s) = 6.57273 7.96055 7.29970
#
# Compressibility (1/GPa) = 0.01733225
#
# Stress axis : x y z
#
# Youngs Moduli (GPa) = 65.34620 28.72921 36.83055
#
# Poissons Ratio (x) = -0.06365 0.37470
# Poissons Ratio (y) = -0.14478 0.81053
# Poissons Ratio (z) = 0.66480 0.63225
#
# Static dielectric constant tensor:
#      x y z
#    x 1.709840 0.000000 0.000000 
#    y 0.000000 1.663190 0.000000 
#    z 0.000000 0.000000 1.668920 
# 
# From -- ./inp_files/59642.got.cif
#   From: 2010.05.17/outbox.cif.g08.bks.cpg/sg70_30_cif.got.tgz:59642.got - 2010.06.03 15:57:51.
