data_PCOD9515298
_publ_section_title
;
Structure prediction by ZEFSAII (Michael W. Deem and Ramdas Pophale) SiO2 
 PCOD9515298
Probable space group: F D D D
;
_chemical_formula_sum "Si O2"
_cell_formula_units_Z 144
_cell_length_a 18.634156
_cell_length_b 24.329976
_cell_length_c 12.520775
_cell_angle_alpha 90.000000
_cell_angle_beta 90.000000
_cell_angle_gamma 90.000000
_cell_volume 5676.525835
_symmetry_space_group_name_H-M "F D D D"
_symmetry_group_IT_number 70
_space_group.IT_coordinate_system_code '2'
_symmetry_cell_setting 'orthorhombic'
loop_
_space_group_symop_operation_xyz
x,y,z
1/4-x,1/4-y,z
x,1/4-y,1/4-z
1/4-x,y,1/4-z
-x,-y,-z
3/4+x,3/4+y,-z
-x,3/4+y,3/4+z
3/4+x,-y,3/4+z
x,1/2+y,1/2+z
1/4-x,3/4-y,1/2+z
x,3/4-y,3/4-z
1/4-x,1/2+y,3/4-z
-x,1/2-y,1/2-z
3/4+x,1/4+y,1/2-z
-x,1/4+y,1/4+z
3/4+x,1/2-y,1/4+z
1/2+x,y,1/2+z
3/4-x,1/4-y,1/2+z
1/2+x,1/4-y,3/4-z
3/4-x,y,3/4-z
1/2-x,-y,1/2-z
1/4+x,3/4+y,1/2-z
1/2-x,3/4+y,1/4+z
1/4+x,-y,1/4+z
1/2+x,1/2+y,z
3/4-x,3/4-y,z
1/2+x,3/4-y,1/4-z
3/4-x,1/2+y,1/4-z
1/2-x,1/2-y,-z
1/4+x,1/4+y,-z
1/2-x,1/4+y,3/4+z
1/4+x,1/2-y,3/4+z
loop_
_atom_site_type_symbol
_atom_site_label
_atom_site_fract_x
_atom_site_fract_y
_atom_site_fract_z
Si Si1 0.803622 0.307556 0.693157
Si Si2 0.769358 0.885782 0.999944
Si Si3 0.156589 0.006055 0.010716
Si Si4 0.620595 0.300214 0.936529
Si Si5 0.001403 0.625000 0.125000
O O1 0.787349 0.335013 0.577088
O O2 0.863950 0.262399 0.726135
O O3 0.730612 0.274451 0.717425
O O4 0.799559 0.354779 0.779194
O O5 0.818641 0.936278 0.039691
O O6 0.687698 0.910317 0.992340
O O7 0.125000 0.017125 0.125000
O O8 0.106092 0.966752 0.938778
O O9 0.464063 0.375000 0.875000
O O10 0.696439 0.330276 0.928047
#
# Coordination Sequence:
#
# PCOD9515298 Si02
#       5
#    32  32  32  32  16
#     4  10  23  39  64  91 125 163 214 260 308 383
#     4  11  21  36  60  92 124 159 205 259 318 378
#     4  10  21  36  59  88 124 163 203 259 319 371
#     4  10  21  40  59  92 123 160 213 258 309 380
#     4  10  22  44  66  89 127 174 208 256 322 368
#
# _framework density 25.367629999999998
#
# number of rings (size 3 to 8) (size 9 to 14) (size 15 to 20)
#    0.000    1.778    1.111    2.667    3.111    6.667 
#    0.000   12.222    0.000    1.333    0.000    0.000 
#    0.000    0.000    0.000    0.000    0.000    0.000 
#
# Total GULP energy -200846.638924 kJ/mol
# GULP energy per Si atom -5579.073303 kJ/mol
# Density = 2.530989 g / cm^3
# Si number density = 25.367630 Si / 1000 Ang^3
#
#
#
# Elastic Constant Matrix: (Units=GPa)
#
#
# Indices 1 2 3 4 5 6 
#
# 1 87.1904 44.3670 5.4954 0.0000 0.0000 0.0000
# 2 44.3670 144.9024 33.0026 0.0000 0.0000 0.0000
# 3 5.4954 33.0026 55.8532 0.0000 0.0000 0.0000
# 4 0.0000 0.0000 0.0000 45.3088 0.0000 0.0000
# 5 0.0000 0.0000 0.0000 0.0000 25.6955 0.0000
# 6 0.0000 0.0000 0.0000 0.0000 0.0000 -11.6541
#
#
#
# Elastic Compliance Matrix: (Units=1/GPa)
#
#
# Indices 1 2 3 4 5 6 
#
# 1 0.013667 -0.004482 0.001303 0.000000 0.000000 0.000000
# 2 -0.004482 0.009444 -0.005139 0.000000 0.000000 0.000000
# 3 0.001303 -0.005139 0.020813 0.000000 0.000000 0.000000
# 4 0.000000 0.000000 0.000000 0.022071 0.000000 0.000000
# 5 0.000000 0.000000 0.000000 0.000000 0.038917 0.000000
# 6 0.000000 0.000000 0.000000 0.000000 0.000000 -0.085807
#
#
# Mechanical properties :
#
#
# Convention : Reuss Voigt Hill
#
# Bulk Modulus (GPa) = 36.64499 50.40843 43.52671
# Shear Modulus (GPa) = 111.51540 25.54210 68.52875
#
# Velocity S-wave (km/s) = 6.63741 3.17658 5.20316
# Velocity P-wave (km/s) = 8.55670 5.77655 7.30019
#
# Compressibility (1/GPa) = 0.02728886
#
# Stress axis : x y z
#
# Youngs Moduli (GPa) = 73.16630 105.88829 48.04792
#
# Poissons Ratio (x) = 0.47455 -0.06262
# Poissons Ratio (y) = 0.32790 0.24693
# Poissons Ratio (z) = -0.09536 0.54419
#
# Static dielectric constant tensor:
#      x y z
#    x 2.001090 0.000000 0.000000 
#    y 0.000000 2.098570 0.000000 
#    z 0.000000 0.000000 2.049690 
# 
# From -- ./inp_files/19178.got.cif
#   From: 2010.05.17/outbox.cif.g08.bks.cpg/sg70_10_cif.got.tgz:19178.got - 2010.06.03 15:57:51.
