data_PCOD9515487
_publ_section_title
;
Structure prediction by ZEFSAII (Michael W. Deem and Ramdas Pophale) SiO2 
 PCOD9515487
Probable space group: F D D D
;
_chemical_formula_sum "Si O2"
_cell_formula_units_Z 216
_cell_length_a 26.439313
_cell_length_b 13.940741
_cell_length_c 29.275545
_cell_angle_alpha 90.000000
_cell_angle_beta 90.000000
_cell_angle_gamma 90.000000
_cell_volume 10790.486200
_symmetry_space_group_name_H-M "F D D D"
_symmetry_group_IT_number 70
_space_group.IT_coordinate_system_code '2'
_symmetry_cell_setting 'orthorhombic'
loop_
_space_group_symop_operation_xyz
x,y,z
1/4-x,1/4-y,z
x,1/4-y,1/4-z
1/4-x,y,1/4-z
-x,-y,-z
3/4+x,3/4+y,-z
-x,3/4+y,3/4+z
3/4+x,-y,3/4+z
x,1/2+y,1/2+z
1/4-x,3/4-y,1/2+z
x,3/4-y,3/4-z
1/4-x,1/2+y,3/4-z
-x,1/2-y,1/2-z
3/4+x,1/4+y,1/2-z
-x,1/4+y,1/4+z
3/4+x,1/2-y,1/4+z
1/2+x,y,1/2+z
3/4-x,1/4-y,1/2+z
1/2+x,1/4-y,3/4-z
3/4-x,y,3/4-z
1/2-x,-y,1/2-z
1/4+x,3/4+y,1/2-z
1/2-x,3/4+y,1/4+z
1/4+x,-y,1/4+z
1/2+x,1/2+y,z
3/4-x,3/4-y,z
1/2+x,3/4-y,1/4-z
3/4-x,1/2+y,1/4-z
1/2-x,1/2-y,-z
1/4+x,1/4+y,-z
1/2-x,1/4+y,3/4+z
1/4+x,1/2-y,3/4+z
loop_
_atom_site_type_symbol
_atom_site_label
_atom_site_fract_x
_atom_site_fract_y
_atom_site_fract_z
Si Si1 0.375000 0.875000 0.875000
Si Si2 0.801791 0.235080 0.825175
Si Si3 0.144342 0.367924 0.760018
Si Si4 0.802576 0.198074 0.361898
Si Si5 0.811349 0.189209 0.173301
Si Si6 0.802503 0.221961 0.655059
Si Si7 0.625000 0.125000 0.393808
Si Si8 0.394880 0.769596 0.304304
O O1 0.411895 0.814936 0.905997
O O2 0.835225 0.187822 0.784874
O O3 0.795817 0.155501 0.865286
O O4 0.746484 0.280371 0.815675
O O5 0.089319 0.382262 0.784877
O O6 0.175182 0.315243 0.798419
O O7 0.159835 0.474786 0.743833
O O8 0.752844 0.235936 0.338558
O O9 0.813431 0.265207 0.406165
O O10 0.849213 0.207204 0.327037
O O11 0.813831 0.125000 0.125000
O O12 0.841743 0.290673 0.167908
O O13 0.802264 0.125000 0.625000
O O14 0.836228 0.307810 0.634421
O O15 0.375000 0.875000 0.298646
#
# Coordination Sequence:
#
# PCOD9515487 Si02
#       8
#     8  32  32  32  32  32  16  32
#     4  12  24  50  76 100 138 184 244 288 342 438
#     4  11  25  45  72 103 136 185 234 290 355 411
#     4  11  25  41  64 106 141 168 236 298 339 418
#     4  10  21  42  66  91 131 177 229 273 349 426
#     4  12  24  49  71 101 143 191 232 286 359 425
#     4  12  23  40  63  97 134 180 229 279 343 426
#     4  12  22  43  70  90 134 186 230 268 347 432
#     4  10  21  40  64  92 132 178 222 286 349 416
#
# _framework density 20.017634000000001
#
# number of rings (size 3 to 8) (size 9 to 14) (size 15 to 20)
#    0.000    0.889    5.185    3.556    3.111    0.593 
#    0.000    3.704    0.000    0.000    0.000    0.000 
#    0.000    0.000    0.000    0.000    0.000    0.000 
#
# Total GULP energy -300797.322986 kJ/mol
# GULP energy per Si atom -5570.320796 kJ/mol
# Density = 1.997207 g / cm^3
# Si number density = 20.017634 Si / 1000 Ang^3
#
#
#
# Elastic Constant Matrix: (Units=GPa)
#
#
# Indices 1 2 3 4 5 6 
#
# 1 149.3949 56.7314 47.6506 0.0000 0.0000 0.0000
# 2 56.7314 104.2674 38.1702 0.0000 0.0000 0.0000
# 3 47.6506 38.1702 44.9944 0.0000 0.0000 0.0000
# 4 0.0000 0.0000 0.0000 12.0543 0.0000 0.0000
# 5 0.0000 0.0000 0.0000 0.0000 11.2998 0.0000
# 6 0.0000 0.0000 0.0000 0.0000 0.0000 55.8960
#
#
#
# Elastic Compliance Matrix: (Units=1/GPa)
#
#
# Indices 1 2 3 4 5 6 
#
# 1 0.010501 -0.002382 -0.009100 0.000000 0.000000 0.000000
# 2 -0.002382 0.014451 -0.009737 0.000000 0.000000 0.000000
# 3 -0.009100 -0.009737 0.040122 0.000000 0.000000 0.000000
# 4 0.000000 0.000000 0.000000 0.082958 0.000000 0.000000
# 5 0.000000 0.000000 0.000000 0.000000 0.088497 0.000000
# 6 0.000000 0.000000 0.000000 0.000000 0.000000 0.017890
#
#
# Mechanical properties :
#
#
# Convention : Reuss Voigt Hill
#
# Bulk Modulus (GPa) = 44.17609 64.86233 54.51921
# Shear Modulus (GPa) = 16.42566 26.25700 21.34133
#
# Velocity S-wave (km/s) = 2.86765 3.62566 3.26870
# Velocity P-wave (km/s) = 5.75161 7.07108 6.44520
#
# Compressibility (1/GPa) = 0.02263668
#
# Stress axis : x y z
#
# Youngs Moduli (GPa) = 95.23173 69.19826 24.92408
#
# Poissons Ratio (x) = 0.16484 0.22680
# Poissons Ratio (y) = 0.22686 0.24268
# Poissons Ratio (z) = 0.86658 0.67376
#
# Static dielectric constant tensor:
#      x y z
#    x 1.695460 0.000000 0.000000 
#    y 0.000000 1.730000 0.000000 
#    z 0.000000 0.000000 1.706040 
# 
# From -- ./inp_files/61811.got.cif
#   From: 2010.05.17/outbox.cif.g08.bks.cpg/sg70_31_cif.got.tgz:61811.got - 2010.06.03 15:57:51.
