data_PCOD9515735
_publ_section_title
;
Structure prediction by ZEFSAII (Michael W. Deem and Ramdas Pophale) SiO2 
 PCOD9515735
Probable space group: F D D D
;
_chemical_formula_sum "Si O2"
_cell_formula_units_Z 240
_cell_length_a 22.330143
_cell_length_b 20.382977
_cell_length_c 19.983601
_cell_angle_alpha 90.000000
_cell_angle_beta 90.000000
_cell_angle_gamma 90.000000
_cell_volume 9095.631740
_symmetry_space_group_name_H-M "F D D D"
_symmetry_group_IT_number 70
_space_group.IT_coordinate_system_code '2'
_symmetry_cell_setting 'orthorhombic'
loop_
_space_group_symop_operation_xyz
x,y,z
1/4-x,1/4-y,z
x,1/4-y,1/4-z
1/4-x,y,1/4-z
-x,-y,-z
3/4+x,3/4+y,-z
-x,3/4+y,3/4+z
3/4+x,-y,3/4+z
x,1/2+y,1/2+z
1/4-x,3/4-y,1/2+z
x,3/4-y,3/4-z
1/4-x,1/2+y,3/4-z
-x,1/2-y,1/2-z
3/4+x,1/4+y,1/2-z
-x,1/4+y,1/4+z
3/4+x,1/2-y,1/4+z
1/2+x,y,1/2+z
3/4-x,1/4-y,1/2+z
1/2+x,1/4-y,3/4-z
3/4-x,y,3/4-z
1/2-x,-y,1/2-z
1/4+x,3/4+y,1/2-z
1/2-x,3/4+y,1/4+z
1/4+x,-y,1/4+z
1/2+x,1/2+y,z
3/4-x,3/4-y,z
1/2+x,3/4-y,1/4-z
3/4-x,1/2+y,1/4-z
1/2-x,1/2-y,-z
1/4+x,1/4+y,-z
1/2-x,1/4+y,3/4+z
1/4+x,1/2-y,3/4+z
loop_
_atom_site_type_symbol
_atom_site_label
_atom_site_fract_x
_atom_site_fract_y
_atom_site_fract_z
Si Si1 0.773635 0.501605 0.411822
Si Si2 0.213418 0.766216 0.134517
Si Si3 0.085573 0.481498 0.787128
Si Si4 0.671067 0.317167 0.262429
Si Si5 0.508585 0.178421 0.717091
Si Si6 0.203402 0.418239 0.261307
Si Si7 0.207108 0.625000 0.125000
Si Si8 0.177433 0.670755 0.408445
O O1 0.830838 0.497311 0.459339
O O2 0.719289 0.483173 0.460511
O O3 0.780584 0.447316 0.355464
O O4 0.740947 0.565919 0.379043
O O5 0.279872 0.755021 0.166026
O O6 0.175816 0.814965 0.182231
O O7 0.217918 0.798877 0.060343
O O8 0.182072 0.694549 0.149814
O O9 0.074448 0.404867 0.770066
O O10 0.143379 0.511364 0.823133
O O11 0.698382 0.385990 0.286350
O O12 0.605937 0.294199 0.285655
O O13 0.500000 0.250000 0.750000
O O14 0.552367 0.142154 0.769234
O O15 0.257178 0.408752 0.312800
O O16 0.125000 0.625000 0.378291
#
# Coordination Sequence:
#
# PCOD9515735 Si02
#       8
#    32  32  32  32  32  32  16  32
#     4  10  23  41  63  93 137 185 221 287 350 410
#     4  10  23  44  64  99 139 176 226 295 349 411
#     4  10  24  41  66 102 139 177 244 286 348 442
#     4  11  23  41  65  98 133 176 228 282 347 421
#     4  10  22  38  63  92 134 175 223 284 344 408
#     4  11  23  40  72  98 131 180 229 287 352 418
#     4  10  24  44  69  98 134 178 235 284 346 422
#     4  11  23  41  64  97 138 183 234 292 356 429
#
# _framework density 26.386292000000001
#
# number of rings (size 3 to 8) (size 9 to 14) (size 15 to 20)
#    0.000    1.600    0.000    4.400   11.200    0.533 
#    2.400    2.000    0.000    0.000    0.000    0.000 
#    0.000    0.000    0.000    0.000    0.000    0.000 
#
# Total GULP energy -334221.761629 kJ/mol
# GULP energy per Si atom -5570.362694 kJ/mol
# Density = 2.632624 g / cm^3
# Si number density = 26.386292 Si / 1000 Ang^3
#
#
#
# Elastic Constant Matrix: (Units=GPa)
#
#
# Indices 1 2 3 4 5 6 
#
# 1 62.0054 -1.9745 8.0362 0.0000 0.0000 0.0000
# 2 -1.9745 106.0902 14.9081 0.0000 0.0000 0.0000
# 3 8.0362 14.9081 107.7272 0.0000 0.0000 0.0000
# 4 0.0000 0.0000 0.0000 36.6539 0.0000 0.0000
# 5 0.0000 0.0000 0.0000 0.0000 30.3898 0.0000
# 6 0.0000 0.0000 0.0000 0.0000 0.0000 8.9031
#
#
#
# Elastic Compliance Matrix: (Units=1/GPa)
#
#
# Indices 1 2 3 4 5 6 
#
# 1 0.016309 0.000484 -0.001284 0.000000 0.000000 0.000000
# 2 0.000484 0.009627 -0.001368 0.000000 0.000000 0.000000
# 3 -0.001284 -0.001368 0.009568 0.000000 0.000000 0.000000
# 4 0.000000 0.000000 0.000000 0.027282 0.000000 0.000000
# 5 0.000000 0.000000 0.000000 0.000000 0.032906 0.000000
# 6 0.000000 0.000000 0.000000 0.000000 0.000000 0.112320
#
#
# Mechanical properties :
#
#
# Convention : Reuss Voigt Hill
#
# Bulk Modulus (GPa) = 32.08386 35.30692 33.69539
# Shear Modulus (GPa) = 22.44790 32.17956 27.31373
#
# Velocity S-wave (km/s) = 2.91991 3.49600 3.22086
# Velocity P-wave (km/s) = 4.85320 5.45031 5.16040
#
# Compressibility (1/GPa) = 0.03116832
#
# Stress axis : x y z
#
# Youngs Moduli (GPa) = 61.31432 103.87194 104.51687
#
# Poissons Ratio (x) = -0.05027 0.13416
# Poissons Ratio (y) = -0.02967 0.14302
# Poissons Ratio (z) = 0.07870 0.14214
#
# Static dielectric constant tensor:
#      x y z
#    x 2.217540 0.000000 0.000000 
#    y 0.000000 2.263460 0.000000 
#    z 0.000000 0.000000 2.221630 
# 
# From -- ./inp_files/47138.got.cif
#   From: 2010.05.17/outbox.cif.g08.bks.cpg/sg70_24_cif.got.tgz:47138.got - 2010.06.03 15:57:51.
