data_PCOD9515158
_publ_section_title
;
Structure prediction by ZEFSAII (Michael W. Deem and Ramdas Pophale) SiO2 
 PCOD9515158
Probable space group: F D D D
;
_chemical_formula_sum "Si O2"
_cell_formula_units_Z 160
_cell_length_a 24.142549
_cell_length_b 13.668151
_cell_length_c 19.974740
_cell_angle_alpha 90.000000
_cell_angle_beta 90.000000
_cell_angle_gamma 90.000000
_cell_volume 6591.344709
_symmetry_space_group_name_H-M "F D D D"
_symmetry_group_IT_number 70
_space_group.IT_coordinate_system_code '2'
_symmetry_cell_setting 'orthorhombic'
loop_
_space_group_symop_operation_xyz
x,y,z
1/4-x,1/4-y,z
x,1/4-y,1/4-z
1/4-x,y,1/4-z
-x,-y,-z
3/4+x,3/4+y,-z
-x,3/4+y,3/4+z
3/4+x,-y,3/4+z
x,1/2+y,1/2+z
1/4-x,3/4-y,1/2+z
x,3/4-y,3/4-z
1/4-x,1/2+y,3/4-z
-x,1/2-y,1/2-z
3/4+x,1/4+y,1/2-z
-x,1/4+y,1/4+z
3/4+x,1/2-y,1/4+z
1/2+x,y,1/2+z
3/4-x,1/4-y,1/2+z
1/2+x,1/4-y,3/4-z
3/4-x,y,3/4-z
1/2-x,-y,1/2-z
1/4+x,3/4+y,1/2-z
1/2-x,3/4+y,1/4+z
1/4+x,-y,1/4+z
1/2+x,1/2+y,z
3/4-x,3/4-y,z
1/2+x,3/4-y,1/4-z
3/4-x,1/2+y,1/4-z
1/2-x,1/2-y,-z
1/4+x,1/4+y,-z
1/2-x,1/4+y,3/4+z
1/4+x,1/2-y,3/4+z
loop_
_atom_site_type_symbol
_atom_site_label
_atom_site_fract_x
_atom_site_fract_y
_atom_site_fract_z
Si Si1 0.229967 0.511353 0.920286
Si Si2 0.605669 0.486240 0.378877
Si Si3 0.431460 0.603660 0.411725
Si Si4 0.817908 0.835528 0.483869
Si Si5 0.077941 0.050668 0.236334
O O1 0.172891 0.487556 0.884478
O O2 0.269883 0.583376 0.877426
O O3 0.217500 0.573916 0.989028
O O4 0.269810 0.426717 0.949310
O O5 0.586676 0.375000 0.375000
O O6 0.586337 0.533382 0.447570
O O7 0.582093 0.545579 0.316205
O O8 0.375000 0.579556 0.375000
O O9 0.455765 0.501628 0.438971
O O10 0.411846 0.686890 0.465136
O O11 0.875000 0.875000 0.453071
O O12 0.125000 0.125000 0.212392
#
# Coordination Sequence:
#
# PCOD9515158 Si02
#       5
#    32  32  32  32  32
#     4   9  22  39  65  91 131 175 214 281 337 382
#     4  11  20  41  67  99 131 177 232 280 338 410
#     4  10  22  40  61  91 132 173 219 277 339 398
#     4  10  20  41  66  92 132 166 227 285 335 406
#     4  10  22  41  65  95 134 176 222 274 337 407
#
# _framework density 24.274258
#
# number of rings (size 3 to 8) (size 9 to 14) (size 15 to 20)
#    1.200    0.800    2.000    2.400    0.000    2.400 
#   14.400    2.000    8.800    0.000    0.000    0.000 
#    0.000    0.000    0.000    0.000    0.000    0.000 
#
# Total GULP energy -223115.514743 kJ/mol
# GULP energy per Si atom -5577.887869 kJ/mol
# Density = 2.421901 g / cm^3
# Si number density = 24.274258 Si / 1000 Ang^3
#
#
#
# Elastic Constant Matrix: (Units=GPa)
#
#
# Indices 1 2 3 4 5 6 
#
# 1 118.2842 2.8782 15.3278 0.0000 0.0000 0.0000
# 2 2.8782 78.7284 -0.3038 0.0000 0.0000 0.0000
# 3 15.3278 -0.3038 54.6729 0.0000 0.0000 0.0000
# 4 0.0000 0.0000 0.0000 15.0418 0.0000 0.0000
# 5 0.0000 0.0000 0.0000 0.0000 4.7475 0.0000
# 6 0.0000 0.0000 0.0000 0.0000 0.0000 45.1245
#
#
#
# Elastic Compliance Matrix: (Units=1/GPa)
#
#
# Indices 1 2 3 4 5 6 
#
# 1 0.008782 -0.000331 -0.002464 0.000000 0.000000 0.000000
# 2 -0.000331 0.012715 0.000163 0.000000 0.000000 0.000000
# 3 -0.002464 0.000163 0.018982 0.000000 0.000000 0.000000
# 4 0.000000 0.000000 0.000000 0.066481 0.000000 0.000000
# 5 0.000000 0.000000 0.000000 0.000000 0.210638 0.000000
# 6 0.000000 0.000000 0.000000 0.000000 0.000000 0.022161
#
#
# Mechanical properties :
#
#
# Convention : Reuss Voigt Hill
#
# Bulk Modulus (GPa) = 28.39587 31.94330 30.16958
# Shear Modulus (GPa) = 14.01505 28.56831 21.29168
#
# Velocity S-wave (km/s) = 2.40544 3.43432 2.96485
# Velocity P-wave (km/s) = 4.40888 5.37717 4.91692
#
# Compressibility (1/GPa) = 0.03521639
#
# Stress axis : x y z
#
# Youngs Moduli (GPa) = 113.87547 78.64965 52.68084
#
# Poissons Ratio (x) = 0.02600 0.12979
# Poissons Ratio (y) = 0.03764 -0.00860
# Poissons Ratio (z) = 0.28056 -0.01285
#
# Static dielectric constant tensor:
#      x y z
#    x 1.991970 0.000000 0.000000 
#    y 0.000000 2.000420 0.000000 
#    z 0.000000 0.000000 1.999870 
# 
# From -- ./inp_files/53564.got.cif
#   From: 2010.05.17/outbox.cif.g08.bks.cpg/sg70_27_cif.got.tgz:53564.got - 2010.06.03 15:57:51.
