data_PCOD9515497
_publ_section_title
;
Structure prediction by ZEFSAII (Michael W. Deem and Ramdas Pophale) SiO2 
 PCOD9515497
Probable space group: F D D D
;
_chemical_formula_sum "Si O2"
_cell_formula_units_Z 160
_cell_length_a 22.253361
_cell_length_b 20.826862
_cell_length_c 16.301457
_cell_angle_alpha 90.000000
_cell_angle_beta 90.000000
_cell_angle_gamma 90.000000
_cell_volume 7555.198433
_symmetry_space_group_name_H-M "F D D D"
_symmetry_group_IT_number 70
_space_group.IT_coordinate_system_code '2'
_symmetry_cell_setting 'orthorhombic'
loop_
_space_group_symop_operation_xyz
x,y,z
1/4-x,1/4-y,z
x,1/4-y,1/4-z
1/4-x,y,1/4-z
-x,-y,-z
3/4+x,3/4+y,-z
-x,3/4+y,3/4+z
3/4+x,-y,3/4+z
x,1/2+y,1/2+z
1/4-x,3/4-y,1/2+z
x,3/4-y,3/4-z
1/4-x,1/2+y,3/4-z
-x,1/2-y,1/2-z
3/4+x,1/4+y,1/2-z
-x,1/4+y,1/4+z
3/4+x,1/2-y,1/4+z
1/2+x,y,1/2+z
3/4-x,1/4-y,1/2+z
1/2+x,1/4-y,3/4-z
3/4-x,y,3/4-z
1/2-x,-y,1/2-z
1/4+x,3/4+y,1/2-z
1/2-x,3/4+y,1/4+z
1/4+x,-y,1/4+z
1/2+x,1/2+y,z
3/4-x,3/4-y,z
1/2+x,3/4-y,1/4-z
3/4-x,1/2+y,1/4-z
1/2-x,1/2-y,-z
1/4+x,1/4+y,-z
1/2-x,1/4+y,3/4+z
1/4+x,1/2-y,3/4+z
loop_
_atom_site_type_symbol
_atom_site_label
_atom_site_fract_x
_atom_site_fract_y
_atom_site_fract_z
Si Si1 0.375000 0.875000 0.572656
Si Si2 0.569391 0.800928 0.678220
Si Si3 0.126702 0.418832 0.497784
Si Si4 0.214462 0.375000 0.875000
Si Si5 0.680748 0.545485 0.184764
Si Si6 0.059505 0.004924 0.389066
O O1 0.325586 0.843037 0.512244
O O2 0.400640 0.817726 0.625650
O O3 0.625000 0.776718 0.625000
O O4 0.581234 0.877146 0.692667
O O5 0.508841 0.779327 0.633336
O O6 0.567244 0.773256 0.770255
O O7 0.080144 0.371465 0.452050
O O8 0.083860 0.473586 0.536413
O O9 0.168403 0.454767 0.430313
O O10 0.258160 0.435992 0.861445
O O11 0.625000 0.558655 0.125000
#
# Coordination Sequence:
#
# PCOD9515497 Si02
#       6
#    16  32  32  16  32  32
#     4  10  21  40  65  92 130 172 208 268 331 388
#     4  11  24  44  67  93 127 174 221 273 324 386
#     4  11  24  42  66 100 132 173 217 269 331 388
#     4  12  21  40  66  98 137 172 214 260 330 394
#     4  11  22  41  62 100 139 169 215 269 323 398
#     4  10  24  44  64  94 133 165 222 272 320 391
#
# _framework density 21.177472000000002
#
# number of rings (size 3 to 8) (size 9 to 14) (size 15 to 20)
#    0.000    1.200    4.000    1.200    2.800    1.600 
#    7.200    2.500    0.000    0.000    0.000    0.000 
#    0.000    0.000    0.000    0.000    0.000    0.000 
#
# Total GULP energy -223389.596695 kJ/mol
# GULP energy per Si atom -5584.739917 kJ/mol
# Density = 2.112927 g / cm^3
# Si number density = 21.177472 Si / 1000 Ang^3
#
#
#
# Elastic Constant Matrix: (Units=GPa)
#
#
# Indices 1 2 3 4 5 6 
#
# 1 137.4239 45.1170 37.5891 0.0000 0.0000 0.0000
# 2 45.1170 94.6192 34.3910 0.0000 0.0000 0.0000
# 3 37.5891 34.3910 47.3448 0.0000 0.0000 0.0000
# 4 0.0000 0.0000 0.0000 17.8915 0.0000 0.0000
# 5 0.0000 0.0000 0.0000 0.0000 9.6829 0.0000
# 6 0.0000 0.0000 0.0000 0.0000 0.0000 6.7737
#
#
#
# Elastic Compliance Matrix: (Units=1/GPa)
#
#
# Indices 1 2 3 4 5 6 
#
# 1 0.009706 -0.002483 -0.005903 0.000000 0.000000 0.000000
# 2 -0.002483 0.014995 -0.008921 0.000000 0.000000 0.000000
# 3 -0.005903 -0.008921 0.032288 0.000000 0.000000 0.000000
# 4 0.000000 0.000000 0.000000 0.055892 0.000000 0.000000
# 5 0.000000 0.000000 0.000000 0.000000 0.103275 0.000000
# 6 0.000000 0.000000 0.000000 0.000000 0.000000 0.147629
#
#
# Mechanical properties :
#
#
# Convention : Reuss Voigt Hill
#
# Bulk Modulus (GPa) = 44.69007 57.06471 50.87739
# Shear Modulus (GPa) = 12.31956 17.68902 15.00429
#
# Velocity S-wave (km/s) = 2.41452 2.89325 2.66466
# Velocity P-wave (km/s) = 5.37789 6.17783 5.79169
#
# Compressibility (1/GPa) = 0.02237634
#
# Stress axis : x y z
#
# Youngs Moduli (GPa) = 103.02405 66.68846 30.97079
#
# Poissons Ratio (x) = 0.16557 0.18282
# Poissons Ratio (y) = 0.25579 0.27630
# Poissons Ratio (z) = 0.60814 0.59494
#
# Static dielectric constant tensor:
#      x y z
#    x 1.762230 0.000000 0.000000 
#    y 0.000000 1.805840 0.000000 
#    z 0.000000 0.000000 1.859380 
# 
# From -- ./inp_files/28679.got.cif
#   From: 2010.05.17/outbox.cif.g08.bks.cpg/sg70_15_cif.got.tgz:28679.got - 2010.06.03 15:57:51.
