data_PCOD9515435
_publ_section_title
;
Structure prediction by ZEFSAII (Michael W. Deem and Ramdas Pophale) SiO2 
 PCOD9515435
Probable space group: F D D D
;
_chemical_formula_sum "Si O2"
_cell_formula_units_Z 144
_cell_length_a 13.653176
_cell_length_b 20.832753
_cell_length_c 20.611774
_cell_angle_alpha 90.000000
_cell_angle_beta 90.000000
_cell_angle_gamma 90.000000
_cell_volume 5862.673728
_symmetry_space_group_name_H-M "F D D D"
_symmetry_group_IT_number 70
_space_group.IT_coordinate_system_code '2'
_symmetry_cell_setting 'orthorhombic'
loop_
_space_group_symop_operation_xyz
x,y,z
1/4-x,1/4-y,z
x,1/4-y,1/4-z
1/4-x,y,1/4-z
-x,-y,-z
3/4+x,3/4+y,-z
-x,3/4+y,3/4+z
3/4+x,-y,3/4+z
x,1/2+y,1/2+z
1/4-x,3/4-y,1/2+z
x,3/4-y,3/4-z
1/4-x,1/2+y,3/4-z
-x,1/2-y,1/2-z
3/4+x,1/4+y,1/2-z
-x,1/4+y,1/4+z
3/4+x,1/2-y,1/4+z
1/2+x,y,1/2+z
3/4-x,1/4-y,1/2+z
1/2+x,1/4-y,3/4-z
3/4-x,y,3/4-z
1/2-x,-y,1/2-z
1/4+x,3/4+y,1/2-z
1/2-x,3/4+y,1/4+z
1/4+x,-y,1/4+z
1/2+x,1/2+y,z
3/4-x,3/4-y,z
1/2+x,3/4-y,1/4-z
3/4-x,1/2+y,1/4-z
1/2-x,1/2-y,-z
1/4+x,1/4+y,-z
1/2-x,1/4+y,3/4+z
1/4+x,1/2-y,3/4+z
loop_
_atom_site_type_symbol
_atom_site_label
_atom_site_fract_x
_atom_site_fract_y
_atom_site_fract_z
Si Si1 0.375000 0.875000 0.988288
Si Si2 0.226374 0.164987 0.184306
Si Si3 0.758755 0.891489 0.074476
Si Si4 0.213377 0.375000 0.375000
Si Si5 0.054594 0.013794 0.432648
Si Si6 0.875000 0.032906 0.875000
O O1 0.283394 0.883162 0.938899
O O2 0.368458 0.935138 0.037853
O O3 0.125000 0.125000 0.193346
O O4 0.273290 0.125000 0.125000
O O5 0.275041 0.165882 0.254020
O O6 0.192788 0.235103 0.165348
O O7 0.875000 0.875000 0.074482
O O8 0.744141 0.943445 0.130939
O O9 0.696701 0.827860 0.085166
O O10 0.171915 0.302501 0.394791
O O11 0.000000 0.000000 0.500000
#
# Coordination Sequence:
#
# PCOD9515435 Si02
#       6
#    16  32  32  16  32  16
#     4   9  18  38  62  90 137 170 216 282 335 394
#     4   8  19  40  69 101 136 175 226 292 349 406
#     4  11  23  42  70  99 137 182 226 284 349 410
#     4   9  20  36  64  92 124 177 218 274 337 402
#     4  10  21  39  63  93 134 178 223 274 338 403
#     4  10  23  44  70  99 136 178 228 282 344 417
#
# _framework density 24.562170999999999
#
# number of rings (size 3 to 8) (size 9 to 14) (size 15 to 20)
#    0.000    2.667    1.111    0.000    0.000   15.111 
#    4.000    0.000    9.778    0.000    0.000    0.000 
#    0.000    0.000    0.000    0.000    0.000    0.000 
#
# Total GULP energy -200768.758379 kJ/mol
# GULP energy per Si atom -5576.909955 kJ/mol
# Density = 2.450627 g / cm^3
# Si number density = 24.562171 Si / 1000 Ang^3
#
#
#
# Elastic Constant Matrix: (Units=GPa)
#
#
# Indices 1 2 3 4 5 6 
#
# 1 38.0149 78.9831 34.4822 0.0000 0.0000 0.0000
# 2 78.9831 231.7666 110.8089 0.0000 0.0000 0.0000
# 3 34.4822 110.8089 221.1431 0.0000 0.0000 0.0000
# 4 0.0000 0.0000 0.0000 31.5952 0.0000 0.0000
# 5 0.0000 0.0000 0.0000 0.0000 10.1165 0.0000
# 6 0.0000 0.0000 0.0000 0.0000 0.0000 31.2439
#
#
#
# Elastic Compliance Matrix: (Units=1/GPa)
#
#
# Indices 1 2 3 4 5 6 
#
# 1 0.090625 -0.031729 0.001768 0.000000 0.000000 0.000000
# 2 -0.031729 0.016783 -0.003462 0.000000 0.000000 0.000000
# 3 0.001768 -0.003462 0.005981 0.000000 0.000000 0.000000
# 4 0.000000 0.000000 0.000000 0.031650 0.000000 0.000000
# 5 0.000000 0.000000 0.000000 0.000000 0.098849 0.000000
# 6 0.000000 0.000000 0.000000 0.000000 0.000000 0.032006
#
#
# Mechanical properties :
#
#
# Convention : Reuss Voigt Hill
#
# Bulk Modulus (GPa) = 21.48591 104.38589 62.93590
# Shear Modulus (GPa) = 13.95657 32.36779 23.16218
#
# Velocity S-wave (km/s) = 2.38631 3.63408 3.07417
# Velocity P-wave (km/s) = 4.04465 7.75884 6.18703
#
# Compressibility (1/GPa) = 0.04654214
#
# Stress axis : x y z
#
# Youngs Moduli (GPa) = 11.03449 59.58527 167.19529
#
# Poissons Ratio (x) = 1.89058 -0.29554
# Poissons Ratio (y) = 0.35011 0.57882
# Poissons Ratio (z) = -0.01950 0.20628
#
# Static dielectric constant tensor:
#      x y z
#    x 2.188640 0.000000 0.000000 
#    y 0.000000 1.905100 0.000000 
#    z 0.000000 0.000000 1.923160 
# 
# From -- ./inp_files/43616.got.cif
#   From: 2010.05.17/outbox.cif.g08.bks.cpg/sg70_22_cif.got.tgz:43616.got - 2010.06.03 15:57:51.
