data_PCOD9515539
_publ_section_title
;
Structure prediction by ZEFSAII (Michael W. Deem and Ramdas Pophale) SiO2 
 PCOD9515539
Probable space group: F D D D
;
_chemical_formula_sum "Si O2"
_cell_formula_units_Z 168
_cell_length_a 20.457738
_cell_length_b 26.793424
_cell_length_c 13.243245
_cell_angle_alpha 90.000000
_cell_angle_beta 90.000000
_cell_angle_gamma 90.000000
_cell_volume 7259.057603
_symmetry_space_group_name_H-M "F D D D"
_symmetry_group_IT_number 70
_space_group.IT_coordinate_system_code '2'
_symmetry_cell_setting 'orthorhombic'
loop_
_space_group_symop_operation_xyz
x,y,z
1/4-x,1/4-y,z
x,1/4-y,1/4-z
1/4-x,y,1/4-z
-x,-y,-z
3/4+x,3/4+y,-z
-x,3/4+y,3/4+z
3/4+x,-y,3/4+z
x,1/2+y,1/2+z
1/4-x,3/4-y,1/2+z
x,3/4-y,3/4-z
1/4-x,1/2+y,3/4-z
-x,1/2-y,1/2-z
3/4+x,1/4+y,1/2-z
-x,1/4+y,1/4+z
3/4+x,1/2-y,1/4+z
1/2+x,y,1/2+z
3/4-x,1/4-y,1/2+z
1/2+x,1/4-y,3/4-z
3/4-x,y,3/4-z
1/2-x,-y,1/2-z
1/4+x,3/4+y,1/2-z
1/2-x,3/4+y,1/4+z
1/4+x,-y,1/4+z
1/2+x,1/2+y,z
3/4-x,3/4-y,z
1/2+x,3/4-y,1/4-z
3/4-x,1/2+y,1/4-z
1/2-x,1/2-y,-z
1/4+x,1/4+y,-z
1/2-x,1/4+y,3/4+z
1/4+x,1/2-y,3/4+z
loop_
_atom_site_type_symbol
_atom_site_label
_atom_site_fract_x
_atom_site_fract_y
_atom_site_fract_z
Si Si1 0.875000 0.375000 0.875000
Si Si2 0.778728 0.790077 0.136637
Si Si3 0.935151 0.055033 0.450298
Si Si4 0.825966 0.947190 0.205111
Si Si5 0.969965 0.180436 0.170705
Si Si6 0.088872 0.838477 0.514475
O O1 0.832978 0.410979 0.802117
O O2 0.854009 0.805155 0.151597
O O3 0.766011 0.730461 0.142379
O O4 0.730708 0.813013 0.220416
O O5 0.757170 0.811022 0.027086
O O6 0.875000 0.051329 0.375000
O O7 0.922270 0.104412 0.514162
O O8 0.006880 0.064275 0.401253
O O9 0.932864 0.004054 0.510444
O O10 0.981785 0.125000 0.125000
O O11 0.893138 0.186011 0.195603
O O12 0.125000 0.838685 0.625000
#
# Coordination Sequence:
#
# PCOD9515539 Si02
#       6
#     8  32  32  32  32  32
#     4  12  24  44  64 104 142 172 228 274 370 400
#     4  10  22  41  66 101 141 177 228 288 349 402
#     4  10  21  41  64  92 131 177 233 270 336 419
#     4  11  23  40  62  99 141 177 220 292 345 407
#     4  10  21  42  71 102 134 185 233 278 345 418
#     4   9  19  38  63  91 131 174 222 276 325 404
#
# _framework density 23.143501000000001
#
# number of rings (size 3 to 8) (size 9 to 14) (size 15 to 20)
#    0.000    1.905    0.952    2.286    0.000    1.524 
#   13.714    3.810    0.000   20.000    2.476    0.000 
#    0.000    0.000    0.000    0.000    0.000    0.000 
#
# Total GULP energy -234667.554781 kJ/mol
# GULP energy per Si atom -5587.322733 kJ/mol
# Density = 2.309083 g / cm^3
# Si number density = 23.143501 Si / 1000 Ang^3
#
#
#
# Elastic Constant Matrix: (Units=GPa)
#
#
# Indices 1 2 3 4 5 6 
#
# 1 213.2346 21.4685 51.5701 0.0000 0.0000 0.0000
# 2 21.4685 127.2469 42.6848 0.0000 0.0000 0.0000
# 3 51.5701 42.6848 57.1619 0.0000 0.0000 0.0000
# 4 0.0000 0.0000 0.0000 24.0121 0.0000 0.0000
# 5 0.0000 0.0000 0.0000 0.0000 26.0198 0.0000
# 6 0.0000 0.0000 0.0000 0.0000 0.0000 -16.4992
#
#
#
# Elastic Compliance Matrix: (Units=1/GPa)
#
#
# Indices 1 2 3 4 5 6 
#
# 1 0.006110 0.001092 -0.006328 0.000000 0.000000 0.000000
# 2 0.001092 0.010680 -0.008960 0.000000 0.000000 0.000000
# 3 -0.006328 -0.008960 0.029894 0.000000 0.000000 0.000000
# 4 0.000000 0.000000 0.000000 0.041646 0.000000 0.000000
# 5 0.000000 0.000000 0.000000 0.000000 0.038432 0.000000
# 6 0.000000 0.000000 0.000000 0.000000 0.000000 -0.060609
#
#
# Mechanical properties :
#
#
# Convention : Reuss Voigt Hill
#
# Bulk Modulus (GPa) = 54.66933 69.89893 62.28413
# Shear Modulus (GPa) = 49.68083 25.50120 37.59102
#
# Velocity S-wave (km/s) = 4.63821 3.32305 4.03458
# Velocity P-wave (km/s) = 7.23583 6.70757 6.97670
#
# Compressibility (1/GPa) = 0.01829179
#
# Stress axis : x y z
#
# Youngs Moduli (GPa) = 163.66450 93.63070 33.45187
#
# Poissons Ratio (x) = -0.10222 0.21167
# Poissons Ratio (y) = -0.17868 0.29974
# Poissons Ratio (z) = 1.03560 0.83895
#
# Static dielectric constant tensor:
#      x y z
#    x 1.922340 0.000000 0.000000 
#    y 0.000000 1.863520 0.000000 
#    z 0.000000 0.000000 1.911630 
# 
# From -- ./inp_files/27684.got.cif
#   From: 2010.05.17/outbox.cif.g08.bks.cpg/sg70_14_cif.got.tgz:27684.got - 2010.06.03 15:57:51.
