data_PCOD9515441
_publ_section_title
;
Structure prediction by ZEFSAII (Michael W. Deem and Ramdas Pophale) SiO2 
 PCOD9515441
Probable space group: F D D D
;
_chemical_formula_sum "Si O2"
_cell_formula_units_Z 240
_cell_length_a 24.363415
_cell_length_b 21.419787
_cell_length_c 20.476870
_cell_angle_alpha 90.000000
_cell_angle_beta 90.000000
_cell_angle_gamma 90.000000
_cell_volume 10686.042175
_symmetry_space_group_name_H-M "F D D D"
_symmetry_group_IT_number 70
_space_group.IT_coordinate_system_code '2'
_symmetry_cell_setting 'orthorhombic'
loop_
_space_group_symop_operation_xyz
x,y,z
1/4-x,1/4-y,z
x,1/4-y,1/4-z
1/4-x,y,1/4-z
-x,-y,-z
3/4+x,3/4+y,-z
-x,3/4+y,3/4+z
3/4+x,-y,3/4+z
x,1/2+y,1/2+z
1/4-x,3/4-y,1/2+z
x,3/4-y,3/4-z
1/4-x,1/2+y,3/4-z
-x,1/2-y,1/2-z
3/4+x,1/4+y,1/2-z
-x,1/4+y,1/4+z
3/4+x,1/2-y,1/4+z
1/2+x,y,1/2+z
3/4-x,1/4-y,1/2+z
1/2+x,1/4-y,3/4-z
3/4-x,y,3/4-z
1/2-x,-y,1/2-z
1/4+x,3/4+y,1/2-z
1/2-x,3/4+y,1/4+z
1/4+x,-y,1/4+z
1/2+x,1/2+y,z
3/4-x,3/4-y,z
1/2+x,3/4-y,1/4-z
3/4-x,1/2+y,1/4-z
1/2-x,1/2-y,-z
1/4+x,1/4+y,-z
1/2-x,1/4+y,3/4+z
1/4+x,1/2-y,3/4+z
loop_
_atom_site_type_symbol
_atom_site_label
_atom_site_fract_x
_atom_site_fract_y
_atom_site_fract_z
Si Si1 0.150952 0.758425 0.763780
Si Si2 0.770367 0.648385 0.874885
Si Si3 0.615716 0.355918 0.948374
Si Si4 0.269133 0.570997 0.241432
Si Si5 0.075912 0.666544 0.039063
Si Si6 0.901933 0.941130 0.136584
Si Si7 0.125000 0.762551 0.625000
Si Si8 0.225479 0.963846 0.528856
O O1 0.130010 0.830256 0.762572
O O2 0.128588 0.734915 0.834107
O O3 0.128986 0.728530 0.695646
O O4 0.216929 0.747338 0.760760
O O5 0.775806 0.604849 0.811169
O O6 0.716617 0.691063 0.876338
O O7 0.822214 0.692776 0.878951
O O8 0.762274 0.597651 0.930712
O O9 0.603718 0.375000 0.875000
O O10 0.673439 0.319671 0.953433
O O11 0.565714 0.314391 0.974599
O O12 0.250000 0.500000 0.250000
O O13 0.224901 0.618165 0.210019
O O14 0.125000 0.625000 0.063001
O O15 0.096867 0.688719 0.966130
O O16 0.057305 0.732389 0.068816
O O17 0.875000 0.875000 0.119701
#
# Coordination Sequence:
#
# PCOD9515441 Si02
#       8
#    32  32  32  32  32  32  16  32
#     4  12  24  45  69 101 136 182 238 288 348 423
#     4  11  22  43  69  94 140 186 225 278 361 418
#     4  12  26  44  69 100 136 181 238 292 359 420
#     4  11  23  40  68 104 137 181 233 286 352 426
#     4  10  21  39  65 100 136 174 226 279 342 420
#     4  10  21  40  67  97 130 180 230 279 343 410
#     4  12  24  46  67  98 141 190 228 292 352 430
#     4  12  23  43  68  98 137 178 232 291 340 423
#
# _framework density 22.459202999999999
#
# number of rings (size 3 to 8) (size 9 to 14) (size 15 to 20)
#    0.000    0.800    5.333    2.400    1.867    0.533 
#    2.400    0.333    0.000    1.200    0.000    0.000 
#    0.000    0.000    0.000    0.000    0.000    0.000 
#
# Total GULP energy -334721.465922 kJ/mol
# GULP energy per Si atom -5578.691099 kJ/mol
# Density = 2.240809 g / cm^3
# Si number density = 22.459203 Si / 1000 Ang^3
#
#
#
# Elastic Constant Matrix: (Units=GPa)
#
#
# Indices 1 2 3 4 5 6 
#
# 1 145.0369 29.7375 50.0273 0.0000 0.0000 0.0000
# 2 29.7375 84.3472 24.1410 0.0000 0.0000 0.0000
# 3 50.0273 24.1410 83.8551 0.0000 0.0000 0.0000
# 4 0.0000 0.0000 0.0000 23.4823 0.0000 0.0000
# 5 0.0000 0.0000 0.0000 0.0000 45.3959 0.0000
# 6 0.0000 0.0000 0.0000 0.0000 0.0000 -69.3383
#
#
#
# Elastic Compliance Matrix: (Units=1/GPa)
#
#
# Indices 1 2 3 4 5 6 
#
# 1 0.008916 -0.001767 -0.004811 0.000000 0.000000 0.000000
# 2 -0.001767 0.013270 -0.002766 0.000000 0.000000 0.000000
# 3 -0.004811 -0.002766 0.015592 0.000000 0.000000 0.000000
# 4 0.000000 0.000000 0.000000 0.042585 0.000000 0.000000
# 5 0.000000 0.000000 0.000000 0.000000 0.022028 0.000000
# 6 0.000000 0.000000 0.000000 0.000000 0.000000 -0.014422
#
#
# Mechanical properties :
#
#
# Convention : Reuss Voigt Hill
#
# Bulk Modulus (GPa) = 52.38130 57.89453 55.13792
# Shear Modulus (GPa) = 44.23926 13.86354 29.05140
#
# Velocity S-wave (km/s) = 4.44301 2.48720 3.60045
# Velocity P-wave (km/s) = 7.04940 5.83796 6.47209
#
# Compressibility (1/GPa) = 0.01909078
#
# Stress axis : x y z
#
# Youngs Moduli (GPa) = 112.15256 75.35570 64.13592
#
# Poissons Ratio (x) = 0.13313 0.30855
# Poissons Ratio (y) = 0.19814 0.17743
# Poissons Ratio (z) = 0.53955 0.20847
#
# Static dielectric constant tensor:
#      x y z
#    x 1.854810 0.000000 0.000000 
#    y 0.000000 1.960620 0.000000 
#    z 0.000000 0.000000 1.915810 
# 
# From -- ./inp_files/47131.got.cif
#   From: 2010.05.17/outbox.cif.g08.bks.cpg/sg70_24_cif.got.tgz:47131.got - 2010.06.03 15:57:51.
