data_PCOD9515290
_publ_section_title
;
Structure prediction by ZEFSAII (Michael W. Deem and Ramdas Pophale) SiO2 
 PCOD9515290
Probable space group: F D D D
;
_chemical_formula_sum "Si O2"
_cell_formula_units_Z 160
_cell_length_a 26.715871
_cell_length_b 20.835248
_cell_length_c 11.365769
_cell_angle_alpha 90.000000
_cell_angle_beta 90.000000
_cell_angle_gamma 90.000000
_cell_volume 6326.548432
_symmetry_space_group_name_H-M "F D D D"
_symmetry_group_IT_number 70
_space_group.IT_coordinate_system_code '2'
_symmetry_cell_setting 'orthorhombic'
loop_
_space_group_symop_operation_xyz
x,y,z
1/4-x,1/4-y,z
x,1/4-y,1/4-z
1/4-x,y,1/4-z
-x,-y,-z
3/4+x,3/4+y,-z
-x,3/4+y,3/4+z
3/4+x,-y,3/4+z
x,1/2+y,1/2+z
1/4-x,3/4-y,1/2+z
x,3/4-y,3/4-z
1/4-x,1/2+y,3/4-z
-x,1/2-y,1/2-z
3/4+x,1/4+y,1/2-z
-x,1/4+y,1/4+z
3/4+x,1/2-y,1/4+z
1/2+x,y,1/2+z
3/4-x,1/4-y,1/2+z
1/2+x,1/4-y,3/4-z
3/4-x,y,3/4-z
1/2-x,-y,1/2-z
1/4+x,3/4+y,1/2-z
1/2-x,3/4+y,1/4+z
1/4+x,-y,1/4+z
1/2+x,1/2+y,z
3/4-x,3/4-y,z
1/2+x,3/4-y,1/4-z
3/4-x,1/2+y,1/4-z
1/2-x,1/2-y,-z
1/4+x,1/4+y,-z
1/2-x,1/4+y,3/4+z
1/4+x,1/2-y,3/4+z
loop_
_atom_site_type_symbol
_atom_site_label
_atom_site_fract_x
_atom_site_fract_y
_atom_site_fract_z
Si Si1 0.673262 0.925423 0.173948
Si Si2 0.870955 0.200660 0.611571
Si Si3 0.269552 0.721490 0.689983
Si Si4 0.025723 0.120155 0.757347
Si Si5 0.418329 0.323027 0.017185
O O1 0.625000 0.884860 0.125000
O O2 0.643761 0.973583 0.260849
O O3 0.703024 0.950274 0.060646
O O4 0.719948 0.899003 0.246572
O O5 0.882346 0.125000 0.625000
O O6 0.811285 0.204255 0.594303
O O7 0.895519 0.251489 0.525648
O O8 0.267174 0.797659 0.699832
O O9 0.216381 0.687294 0.683267
O O10 0.046898 0.125000 0.625000
O O11 0.058391 0.154897 0.857000
O O12 0.375000 0.375000 0.993184
#
# Coordination Sequence:
#
# PCOD9515290 Si02
#       5
#    32  32  32  32  32
#     4   9  19  33  53  82 118 154 193 239 293 365
#     4  11  21  38  60  86 119 162 199 245 305 364
#     4  10  21  36  57  86 123 154 201 247 300 362
#     4  11  20  34  59  90 121 156 192 248 306 363
#     4  11  22  38  59  88 124 158 202 250 301 355
#
# _framework density 25.290251999999999
#
# number of rings (size 3 to 8) (size 9 to 14) (size 15 to 20)
#    0.000    1.600    2.000    4.200    0.000    3.600 
#    0.000    1.000    4.400    0.000    0.000    0.000 
#    0.000    0.000    0.000    0.000    0.000    0.000 
#
# Total GULP energy -223159.661133 kJ/mol
# GULP energy per Si atom -5578.991528 kJ/mol
# Density = 2.523269 g / cm^3
# Si number density = 25.290252 Si / 1000 Ang^3
#
#
#
# Elastic Constant Matrix: (Units=GPa)
#
#
# Indices 1 2 3 4 5 6 
#
# 1 206.9779 61.8499 24.1324 0.0000 0.0000 0.0000
# 2 61.8499 119.1830 8.2409 0.0000 0.0000 0.0000
# 3 24.1324 8.2409 47.1545 0.0000 0.0000 0.0001
# 4 0.0000 0.0000 0.0000 12.6569 0.0000 0.0000
# 5 0.0000 0.0000 0.0000 0.0000 17.8016 0.0000
# 6 0.0000 0.0000 0.0001 0.0000 0.0000 -60.9473
#
#
#
# Elastic Compliance Matrix: (Units=1/GPa)
#
#
# Indices 1 2 3 4 5 6 
#
# 1 0.006009 -0.002941 -0.002561 0.000000 0.000000 0.000000
# 2 -0.002941 0.009933 -0.000231 0.000000 0.000000 0.000000
# 3 -0.002561 -0.000231 0.022558 0.000000 0.000000 0.000000
# 4 0.000000 0.000000 0.000000 0.079008 0.000000 0.000000
# 5 0.000000 0.000000 0.000000 0.000000 0.056175 0.000000
# 6 0.000000 0.000000 0.000000 0.000000 0.000000 -0.016408
#
#
# Mechanical properties :
#
#
# Convention : Reuss Voigt Hill
#
# Bulk Modulus (GPa) = 36.99113 62.41798 49.70455
# Shear Modulus (GPa) = 28.12897 12.50837 20.31867
#
# Velocity S-wave (km/s) = 3.33865 2.22636 2.83754
# Velocity P-wave (km/s) = 5.43328 5.59849 5.51650
#
# Compressibility (1/GPa) = 0.02703351
#
# Stress axis : x y z
#
# Youngs Moduli (GPa) = 166.41772 100.67682 44.33028
#
# Poissons Ratio (x) = 0.29612 0.11354
# Poissons Ratio (y) = 0.48948 0.01022
# Poissons Ratio (z) = 0.42623 0.02322
#
# Static dielectric constant tensor:
#      x y z
#    x 2.010660 0.000000 0.000000 
#    y 0.000000 2.050600 0.000000 
#    z 0.000000 0.000000 2.270520 
# 
# From -- ./inp_files/35120.got.cif
#   From: 2010.05.17/outbox.cif.g08.bks.cpg/sg70_18_cif.got.tgz:35120.got - 2010.06.03 15:57:51.
