data_PCOD9515504
_publ_section_title
;
Structure prediction by ZEFSAII (Michael W. Deem and Ramdas Pophale) SiO2 
 PCOD9515504
Probable space group: F D D D
;
_chemical_formula_sum "Si O2"
_cell_formula_units_Z 160
_cell_length_a 22.960961
_cell_length_b 31.524516
_cell_length_c 10.973858
_cell_angle_alpha 90.000000
_cell_angle_beta 90.000000
_cell_angle_gamma 90.000000
_cell_volume 7943.242560
_symmetry_space_group_name_H-M "F D D D"
_symmetry_group_IT_number 70
_space_group.IT_coordinate_system_code '2'
_symmetry_cell_setting 'orthorhombic'
loop_
_space_group_symop_operation_xyz
x,y,z
1/4-x,1/4-y,z
x,1/4-y,1/4-z
1/4-x,y,1/4-z
-x,-y,-z
3/4+x,3/4+y,-z
-x,3/4+y,3/4+z
3/4+x,-y,3/4+z
x,1/2+y,1/2+z
1/4-x,3/4-y,1/2+z
x,3/4-y,3/4-z
1/4-x,1/2+y,3/4-z
-x,1/2-y,1/2-z
3/4+x,1/4+y,1/2-z
-x,1/4+y,1/4+z
3/4+x,1/2-y,1/4+z
1/2+x,y,1/2+z
3/4-x,1/4-y,1/2+z
1/2+x,1/4-y,3/4-z
3/4-x,y,3/4-z
1/2-x,-y,1/2-z
1/4+x,3/4+y,1/2-z
1/2-x,3/4+y,1/4+z
1/4+x,-y,1/4+z
1/2+x,1/2+y,z
3/4-x,3/4-y,z
1/2+x,3/4-y,1/4-z
3/4-x,1/2+y,1/4-z
1/2-x,1/2-y,-z
1/4+x,1/4+y,-z
1/2-x,1/4+y,3/4+z
1/4+x,1/2-y,3/4+z
loop_
_atom_site_type_symbol
_atom_site_label
_atom_site_fract_x
_atom_site_fract_y
_atom_site_fract_z
Si Si1 0.918398 0.334633 0.589869
Si Si2 0.241298 0.200247 0.117750
Si Si3 0.562919 0.031810 0.355493
Si Si4 0.675767 0.375000 0.375000
Si Si5 0.375000 0.621617 0.875000
Si Si6 0.506769 0.858780 0.011010
O O1 0.875000 0.375000 0.569606
O O2 0.880441 0.296289 0.648242
O O3 0.946741 0.317349 0.467098
O O4 0.970802 0.354162 0.669962
O O5 0.283826 0.236528 0.171933
O O6 0.283401 0.162372 0.078997
O O7 0.205654 0.213157 0.997772
O O8 0.531564 0.066755 0.272023
O O9 0.643483 0.357153 0.254080
O O10 0.317687 0.598218 0.923563
O O11 0.516555 0.875000 0.875000
#
# Coordination Sequence:
#
# PCOD9515504 Si02
#       6
#    32  32  32  16  16  32
#     4  10  21  40  66  92 123 170 212 260 321 393
#     4  11  21  40  63  96 125 162 216 268 324 385
#     4  10  23  38  61  99 128 158 211 274 323 381
#     4  12  22  40  65  90 125 174 218 266 328 400
#     4  12  22  38  64  92 126 167 221 266 320 394
#     4  11  23  41  65  91 125 174 217 261 328 399
#
# _framework density 20.142907000000001
#
# number of rings (size 3 to 8) (size 9 to 14) (size 15 to 20)
#    0.000    1.200    5.000    1.800    0.000    7.600 
#    0.000    3.000    0.000    0.000    0.000    0.000 
#    0.000    0.000    0.000    0.000    0.000    0.000 
#
# Total GULP energy -222785.505621 kJ/mol
# GULP energy per Si atom -5569.637641 kJ/mol
# Density = 2.009706 g / cm^3
# Si number density = 20.142907 Si / 1000 Ang^3
#
#
#
# Elastic Constant Matrix: (Units=GPa)
#
#
# Indices 1 2 3 4 5 6 
#
# 1 86.7670 14.5303 27.2487 0.0000 0.0000 0.0000
# 2 14.5303 54.0720 7.3157 0.0000 0.0000 0.0000
# 3 27.2487 7.3157 97.8134 0.0001 -0.0002 0.0000
# 4 0.0000 0.0000 0.0001 6.7655 -0.0001 0.0000
# 5 0.0000 0.0000 -0.0002 -0.0001 -30.1602 0.0000
# 6 0.0000 0.0000 0.0000 0.0000 0.0000 9.6660
#
#
#
# Elastic Compliance Matrix: (Units=1/GPa)
#
#
# Indices 1 2 3 4 5 6 
#
# 1 0.013113 -0.003060 -0.003424 0.000000 0.000000 0.000000
# 2 -0.003060 0.019397 -0.000598 0.000000 0.000000 0.000000
# 3 -0.003424 -0.000598 0.011222 0.000000 0.000000 0.000000
# 4 0.000000 0.000000 0.000000 0.147809 0.000000 0.000000
# 5 0.000000 0.000000 0.000000 0.000000 -0.033156 0.000000
# 6 0.000000 0.000000 0.000000 0.000000 0.000000 0.103456
#
#
# Mechanical properties :
#
#
# Convention : Reuss Voigt Hill
#
# Bulk Modulus (GPa) = 33.82169 37.42689 35.62429
# Shear Modulus (GPa) = 17.49097 9.89143 13.69120
#
# Velocity S-wave (km/s) = 2.94996 2.21840 2.60994
# Velocity P-wave (km/s) = 5.33201 5.01824 5.17750
#
# Compressibility (1/GPa) = 0.02956683
#
# Stress axis : x y z
#
# Youngs Moduli (GPa) = 76.26050 51.55385 89.10938
#
# Poissons Ratio (x) = 0.15778 0.30512
# Poissons Ratio (y) = 0.23339 0.05330
# Poissons Ratio (z) = 0.26112 0.03084
#
# Static dielectric constant tensor:
#      x y z
#    x 1.757530 0.000000 0.000000 
#    y 0.000000 1.724860 0.000000 
#    z 0.000000 0.000000 1.738140 
# 
# From -- ./inp_files/19523.got.cif
#   From: 2010.05.17/outbox.cif.g08.bks.cpg/sg70_10_cif.got.tgz:19523.got - 2010.06.03 15:57:51.
