data_PCOD9515553
_publ_section_title
;
Structure prediction by ZEFSAII (Michael W. Deem and Ramdas Pophale) SiO2 
 PCOD9515553
Probable space group: F D D D
;
_chemical_formula_sum "Si O2"
_cell_formula_units_Z 160
_cell_length_a 18.175692
_cell_length_b 17.341819
_cell_length_c 21.366348
_cell_angle_alpha 90.000000
_cell_angle_beta 90.000000
_cell_angle_gamma 90.000000
_cell_volume 6734.663507
_symmetry_space_group_name_H-M "F D D D"
_symmetry_group_IT_number 70
_space_group.IT_coordinate_system_code '2'
_symmetry_cell_setting 'orthorhombic'
loop_
_space_group_symop_operation_xyz
x,y,z
1/4-x,1/4-y,z
x,1/4-y,1/4-z
1/4-x,y,1/4-z
-x,-y,-z
3/4+x,3/4+y,-z
-x,3/4+y,3/4+z
3/4+x,-y,3/4+z
x,1/2+y,1/2+z
1/4-x,3/4-y,1/2+z
x,3/4-y,3/4-z
1/4-x,1/2+y,3/4-z
-x,1/2-y,1/2-z
3/4+x,1/4+y,1/2-z
-x,1/4+y,1/4+z
3/4+x,1/2-y,1/4+z
1/2+x,y,1/2+z
3/4-x,1/4-y,1/2+z
1/2+x,1/4-y,3/4-z
3/4-x,y,3/4-z
1/2-x,-y,1/2-z
1/4+x,3/4+y,1/2-z
1/2-x,3/4+y,1/4+z
1/4+x,-y,1/4+z
1/2+x,1/2+y,z
3/4-x,3/4-y,z
1/2+x,3/4-y,1/4-z
3/4-x,1/2+y,1/4-z
1/2-x,1/2-y,-z
1/4+x,1/4+y,-z
1/2-x,1/4+y,3/4+z
1/4+x,1/2-y,3/4+z
loop_
_atom_site_type_symbol
_atom_site_label
_atom_site_fract_x
_atom_site_fract_y
_atom_site_fract_z
Si Si1 0.302753 0.426588 0.680768
Si Si2 0.127334 0.986041 0.760280
Si Si3 0.500872 0.584873 0.423953
Si Si4 0.206597 0.700760 0.155866
Si Si5 0.717311 0.854028 0.940180
O O1 0.375000 0.375000 0.673509
O O2 0.258697 0.412898 0.615157
O O3 0.315761 0.517804 0.687063
O O4 0.262313 0.398426 0.744421
O O5 0.176700 0.932967 0.712796
O O6 0.092342 0.922339 0.804566
O O7 0.182558 0.051143 0.785156
O O8 0.061843 0.035181 0.727635
O O9 0.499470 0.523596 0.367417
O O10 0.240782 0.625000 0.125000
O O11 0.125000 0.702896 0.125000
O O12 0.758506 0.875000 0.875000
#
# Coordination Sequence:
#
# PCOD9515553 Si02
#       5
#    32  32  32  32  32
#     4  11  25  45  67  95 131 173 231 282 324 395
#     4  10  21  42  68 102 139 172 218 272 349 414
#     4  10  21  41  67 103 133 173 217 271 342 407
#     4   9  18  36  61  96 135 168 205 265 335 409
#     4  11  25  46  67  93 131 179 225 279 335 391
#
# _framework density 23.757683
#
# number of rings (size 3 to 8) (size 9 to 14) (size 15 to 20)
#    0.000    1.800    2.000    1.200    0.000    4.400 
#   28.800    9.000    0.000    0.000    0.000    0.000 
#    0.000    0.000    0.000    0.000    0.000    0.000 
#
# Total GULP energy -223200.754382 kJ/mol
# GULP energy per Si atom -5580.018860 kJ/mol
# Density = 2.370361 g / cm^3
# Si number density = 23.757683 Si / 1000 Ang^3
#
#
#
# Elastic Constant Matrix: (Units=GPa)
#
#
# Indices 1 2 3 4 5 6 
#
# 1 32.6193 11.8835 23.9475 0.0000 0.0000 0.0000
# 2 11.8835 114.0747 22.8273 0.0000 0.0000 0.0000
# 3 23.9475 22.8273 135.2860 0.0000 0.0000 0.0000
# 4 0.0000 0.0000 0.0000 42.7107 0.0000 0.0000
# 5 0.0000 0.0000 0.0000 0.0000 21.7640 0.0000
# 6 0.0000 0.0000 0.0000 0.0000 0.0000 9.1594
#
#
#
# Elastic Compliance Matrix: (Units=1/GPa)
#
#
# Indices 1 2 3 4 5 6 
#
# 1 0.035942 -0.002557 -0.005931 0.000000 0.000000 0.000000
# 2 -0.002557 0.009254 -0.001109 0.000000 0.000000 0.000000
# 3 -0.005931 -0.001109 0.008629 0.000000 0.000000 0.000000
# 4 0.000000 0.000000 0.000000 0.023413 0.000000 0.000000
# 5 0.000000 0.000000 0.000000 0.000000 0.045947 0.000000
# 6 0.000000 0.000000 0.000000 0.000000 0.000000 0.109177
#
#
# Mechanical properties :
#
#
# Convention : Reuss Voigt Hill
#
# Bulk Modulus (GPa) = 28.87545 44.36630 36.62087
# Shear Modulus (GPa) = 19.00405 29.61492 24.30948
#
# Velocity S-wave (km/s) = 2.83134 3.53447 3.20226
# Velocity P-wave (km/s) = 4.78217 5.94741 5.39633
#
# Compressibility (1/GPa) = 0.03463150
#
# Stress axis : x y z
#
# Youngs Moduli (GPa) = 27.82224 108.05564 115.89253
#
# Poissons Ratio (x) = 0.27634 0.68734
# Poissons Ratio (y) = 0.07115 0.12851
# Poissons Ratio (z) = 0.16501 0.11982
#
# Static dielectric constant tensor:
#      x y z
#    x 1.911610 0.000000 0.000000 
#    y 0.000000 1.985350 0.000000 
#    z 0.000000 0.000000 1.936680 
# 
# From -- ./inp_files/44736.got.cif
#   From: 2010.05.17/outbox.cif.g08.bks.cpg/sg70_23_cif.got.tgz:44736.got - 2010.06.03 15:57:51.
