data_PCOD9515125
_publ_section_title
;
Structure prediction by ZEFSAII (Michael W. Deem and Ramdas Pophale) SiO2 
 PCOD9515125
Probable space group: F D D D
;
_chemical_formula_sum "Si O2"
_cell_formula_units_Z 216
_cell_length_a 15.020659
_cell_length_b 25.027043
_cell_length_c 27.059542
_cell_angle_alpha 90.000000
_cell_angle_beta 90.000000
_cell_angle_gamma 90.000000
_cell_volume 10172.295513
_symmetry_space_group_name_H-M "F D D D"
_symmetry_group_IT_number 70
_space_group.IT_coordinate_system_code '2'
_symmetry_cell_setting 'orthorhombic'
loop_
_space_group_symop_operation_xyz
x,y,z
1/4-x,1/4-y,z
x,1/4-y,1/4-z
1/4-x,y,1/4-z
-x,-y,-z
3/4+x,3/4+y,-z
-x,3/4+y,3/4+z
3/4+x,-y,3/4+z
x,1/2+y,1/2+z
1/4-x,3/4-y,1/2+z
x,3/4-y,3/4-z
1/4-x,1/2+y,3/4-z
-x,1/2-y,1/2-z
3/4+x,1/4+y,1/2-z
-x,1/4+y,1/4+z
3/4+x,1/2-y,1/4+z
1/2+x,y,1/2+z
3/4-x,1/4-y,1/2+z
1/2+x,1/4-y,3/4-z
3/4-x,y,3/4-z
1/2-x,-y,1/2-z
1/4+x,3/4+y,1/2-z
1/2-x,3/4+y,1/4+z
1/4+x,-y,1/4+z
1/2+x,1/2+y,z
3/4-x,3/4-y,z
1/2+x,3/4-y,1/4-z
3/4-x,1/2+y,1/4-z
1/2-x,1/2-y,-z
1/4+x,1/4+y,-z
1/2-x,1/4+y,3/4+z
1/4+x,1/2-y,3/4+z
loop_
_atom_site_type_symbol
_atom_site_label
_atom_site_fract_x
_atom_site_fract_y
_atom_site_fract_z
Si Si1 0.179166 0.881073 0.270677
Si Si2 0.375738 0.488248 0.563749
Si Si3 0.250165 0.823222 0.954452
Si Si4 0.125000 0.625000 0.125000
Si Si5 0.086097 0.759484 0.825783
Si Si6 0.534451 0.028506 0.743513
Si Si7 0.654679 0.299080 0.569476
Si Si8 0.375000 0.875000 0.712470
O O1 0.096216 0.851563 0.296260
O O2 0.262180 0.840900 0.264381
O O3 0.145309 0.901130 0.217207
O O4 0.195029 0.934752 0.301676
O O5 0.472970 0.511002 0.550279
O O6 0.351568 0.514979 0.616029
O O7 0.311427 0.502174 0.517690
O O8 0.355831 0.425818 0.571223
O O9 0.311799 0.839232 0.908961
O O10 0.300807 0.849031 0.001377
O O11 0.172285 0.738443 0.795533
O O12 0.007192 0.717813 0.817458
O O13 0.598163 0.000507 0.703002
O O14 0.625000 0.309623 0.625000
#
# Coordination Sequence:
#
# PCOD9515125 Si02
#       8
#    32  32  32   8  32  32  32  16
#     4  10  22  41  67  91 133 175 216 277 343 391
#     4  11  23  41  63  95 130 167 228 270 336 410
#     4  10  22  39  65  94 126 171 220 277 336 405
#     4  10  20  40  68 100 136 170 224 276 358 406
#     4  11  23  39  65  95 134 173 219 280 332 401
#     4  10  22  42  63  94 128 171 219 272 327 409
#     4  11  22  40  62  94 136 173 222 278 337 400
#     4  11  22  39  64  88 126 174 207 278 335 394
#
# _framework density 21.234145000000002
#
# number of rings (size 3 to 8) (size 9 to 14) (size 15 to 20)
#    0.000    1.481    1.481    4.889    0.000    6.519 
#    0.000    0.741    0.000    1.778    0.000    0.000 
#    0.000    0.000    0.000    0.000    0.000    0.000 
#
# Total GULP energy -301296.941441 kJ/mol
# GULP energy per Si atom -5579.572990 kJ/mol
# Density = 2.118581 g / cm^3
# Si number density = 21.234145 Si / 1000 Ang^3
#
#
#
# Elastic Constant Matrix: (Units=GPa)
#
#
# Indices 1 2 3 4 5 6 
#
# 1 89.8542 32.4750 26.4893 0.0000 0.0000 0.0000
# 2 32.4750 128.7170 41.7950 0.0000 0.0000 0.0000
# 3 26.4893 41.7950 101.1455 0.0000 0.0000 0.0000
# 4 0.0000 0.0000 0.0000 15.7017 0.0000 0.0000
# 5 0.0000 0.0000 0.0000 0.0000 33.0734 0.0000
# 6 0.0000 0.0000 0.0000 0.0000 0.0000 36.7351
#
#
#
# Elastic Compliance Matrix: (Units=1/GPa)
#
#
# Indices 1 2 3 4 5 6 
#
# 1 0.012697 -0.002453 -0.002312 0.000000 0.000000 0.000000
# 2 -0.002453 0.009447 -0.003261 0.000000 0.000000 0.000000
# 3 -0.002312 -0.003261 0.011840 0.000000 0.000000 0.000000
# 4 0.000000 0.000000 0.000000 0.063687 0.000000 0.000000
# 5 0.000000 0.000000 0.000000 0.000000 0.030236 0.000000
# 6 0.000000 0.000000 0.000000 0.000000 0.000000 0.027222
#
#
# Mechanical properties :
#
#
# Convention : Reuss Voigt Hill
#
# Bulk Modulus (GPa) = 55.76577 57.91504 56.84040
# Shear Modulus (GPa) = 28.22349 31.69922 29.96135
#
# Velocity S-wave (km/s) = 3.64971 3.86792 3.76040
# Velocity P-wave (km/s) = 6.63927 6.87615 6.75875
#
# Compressibility (1/GPa) = 0.01793215
#
# Stress axis : x y z
#
# Youngs Moduli (GPa) = 78.75785 105.85661 84.46128
#
# Poissons Ratio (x) = 0.25965 0.19525
# Poissons Ratio (y) = 0.19318 0.27544
# Poissons Ratio (z) = 0.18207 0.34522
#
# Static dielectric constant tensor:
#      x y z
#    x 1.781160 0.000000 0.000000 
#    y 0.000000 1.854880 0.000000 
#    z 0.000000 0.000000 1.761700 
# 
# From -- ./inp_files/65967.got.cif
#   From: 2010.05.17/outbox.cif.g08.bks.cpg/sg70_33_cif.got.tgz:65967.got - 2010.06.03 15:57:51.
