data_PCOD9515017
_publ_section_title
;
Structure prediction by ZEFSAII (Michael W. Deem and Ramdas Pophale) SiO2 
 PCOD9515017
Probable space group: F D D D
;
_chemical_formula_sum "Si O2"
_cell_formula_units_Z 208
_cell_length_a 25.694834
_cell_length_b 23.620683
_cell_length_c 18.578597
_cell_angle_alpha 90.000000
_cell_angle_beta 90.000000
_cell_angle_gamma 90.000000
_cell_volume 11275.899120
_symmetry_space_group_name_H-M "F D D D"
_symmetry_group_IT_number 70
_space_group.IT_coordinate_system_code '2'
_symmetry_cell_setting 'orthorhombic'
loop_
_space_group_symop_operation_xyz
x,y,z
1/4-x,1/4-y,z
x,1/4-y,1/4-z
1/4-x,y,1/4-z
-x,-y,-z
3/4+x,3/4+y,-z
-x,3/4+y,3/4+z
3/4+x,-y,3/4+z
x,1/2+y,1/2+z
1/4-x,3/4-y,1/2+z
x,3/4-y,3/4-z
1/4-x,1/2+y,3/4-z
-x,1/2-y,1/2-z
3/4+x,1/4+y,1/2-z
-x,1/4+y,1/4+z
3/4+x,1/2-y,1/4+z
1/2+x,y,1/2+z
3/4-x,1/4-y,1/2+z
1/2+x,1/4-y,3/4-z
3/4-x,y,3/4-z
1/2-x,-y,1/2-z
1/4+x,3/4+y,1/2-z
1/2-x,3/4+y,1/4+z
1/4+x,-y,1/4+z
1/2+x,1/2+y,z
3/4-x,3/4-y,z
1/2+x,3/4-y,1/4-z
3/4-x,1/2+y,1/4-z
1/2-x,1/2-y,-z
1/4+x,1/4+y,-z
1/2-x,1/4+y,3/4+z
1/4+x,1/2-y,3/4+z
loop_
_atom_site_type_symbol
_atom_site_label
_atom_site_fract_x
_atom_site_fract_y
_atom_site_fract_z
Si Si1 0.039215 0.901342 0.297076
Si Si2 0.875000 0.179644 0.875000
Si Si3 0.846939 0.663732 0.990294
Si Si4 0.108968 0.039673 0.044145
Si Si5 0.267297 0.201992 0.443738
Si Si6 0.536389 0.032123 0.796060
Si Si7 0.488861 0.886403 0.457224
O O1 0.026289 0.875000 0.375000
O O2 0.101757 0.906841 0.288803
O O3 0.020352 0.858013 0.235551
O O4 0.020872 0.966175 0.287373
O O5 0.850046 0.137810 0.815665
O O6 0.924264 0.211692 0.839109
O O7 0.847210 0.723220 0.949059
O O8 0.794266 0.665446 0.034848
O O9 0.125000 0.058597 0.125000
O O10 0.059549 0.075420 0.017176
O O11 0.155524 0.041536 0.985818
O O12 0.250000 0.250000 0.500000
O O13 0.226142 0.202562 0.378418
O O14 0.505777 0.077089 0.748128
O O15 0.478176 0.875000 0.375000
#
# Coordination Sequence:
#
# PCOD9515017 Si02
#       7
#    32  16  32  32  32  32  32
#     4  10  21  40  67  92 122 162 211 262 325 379
#     4  10  20  38  66  93 123 162 216 264 322 384
#     4  10  21  37  61  92 122 158 219 262 304 375
#     4  11  22  39  61  86 131 176 204 250 321 389
#     4  11  22  41  71  93 124 166 215 271 330 374
#     4  11  23  39  63  93 127 168 210 255 318 389
#     4  12  23  37  61  90 129 166 212 258 316 376
#
# _framework density 18.446421999999998
#
# number of rings (size 3 to 8) (size 9 to 14) (size 15 to 20)
#    0.000    1.231    5.385    1.385    0.000    0.000 
#    2.769    0.000    6.769    0.923    0.000    0.000 
#    0.000    0.000    0.000    0.000    0.000    0.000 
#
# Total GULP energy -289861.515271 kJ/mol
# GULP energy per Si atom -5574.259909 kJ/mol
# Density = 1.840444 g / cm^3
# Si number density = 18.446422 Si / 1000 Ang^3
#
#
#
# Elastic Constant Matrix: (Units=GPa)
#
#
# Indices 1 2 3 4 5 6 
#
# 1 85.3345 41.8051 35.1937 0.0000 0.0000 0.0000
# 2 41.8051 105.8043 43.0999 0.0000 0.0000 0.0000
# 3 35.1937 43.0999 106.4544 0.0000 0.0000 0.0000
# 4 0.0000 0.0000 0.0000 27.7612 0.0000 0.0000
# 5 0.0000 0.0000 0.0000 0.0000 32.0176 0.0000
# 6 0.0000 0.0000 0.0000 0.0000 0.0000 8.8832
#
#
#
# Elastic Compliance Matrix: (Units=1/GPa)
#
#
# Indices 1 2 3 4 5 6 
#
# 1 0.015360 -0.004790 -0.003138 0.000000 0.000000 0.000000
# 2 -0.004790 0.012812 -0.003603 0.000000 0.000000 0.000000
# 3 -0.003138 -0.003603 0.011890 0.000000 0.000000 0.000000
# 4 0.000000 0.000000 0.000000 0.036021 0.000000 0.000000
# 5 0.000000 0.000000 0.000000 0.000000 0.031233 0.000000
# 6 0.000000 0.000000 0.000000 0.000000 0.000000 0.112572
#
#
# Mechanical properties :
#
#
# Convention : Reuss Voigt Hill
#
# Bulk Modulus (GPa) = 58.83276 59.75451 59.29364
# Shear Modulus (GPa) = 20.11112 25.56538 22.83825
#
# Velocity S-wave (km/s) = 3.30547 3.72684 3.52246
# Velocity P-wave (km/s) = 6.82138 7.14024 6.98263
#
# Compressibility (1/GPa) = 0.01699733
#
# Stress axis : x y z
#
# Youngs Moduli (GPa) = 65.10517 78.05129 84.10298
#
# Poissons Ratio (x) = 0.37390 0.26395
# Poissons Ratio (y) = 0.31188 0.30306
# Poissons Ratio (z) = 0.20433 0.28126
#
# Static dielectric constant tensor:
#      x y z
#    x 1.660180 0.000000 0.000000 
#    y 0.000000 1.657570 0.000000 
#    z 0.000000 0.000000 1.642330 
# 
# From -- ./inp_files/38853.got.cif
#   From: 2010.05.17/outbox.cif.g08.bks.cpg/sg70_20_cif.got.tgz:38853.got - 2010.06.03 15:57:51.
