data_PCOD9515332
_publ_section_title
;
Structure prediction by ZEFSAII (Michael W. Deem and Ramdas Pophale) SiO2 
 PCOD9515332
Probable space group: F D D D
;
_chemical_formula_sum "Si O2"
_cell_formula_units_Z 176
_cell_length_a 24.892251
_cell_length_b 24.554327
_cell_length_c 15.374747
_cell_angle_alpha 90.000000
_cell_angle_beta 90.000000
_cell_angle_gamma 90.000000
_cell_volume 9397.237102
_symmetry_space_group_name_H-M "F D D D"
_symmetry_group_IT_number 70
_space_group.IT_coordinate_system_code '2'
_symmetry_cell_setting 'orthorhombic'
loop_
_space_group_symop_operation_xyz
x,y,z
1/4-x,1/4-y,z
x,1/4-y,1/4-z
1/4-x,y,1/4-z
-x,-y,-z
3/4+x,3/4+y,-z
-x,3/4+y,3/4+z
3/4+x,-y,3/4+z
x,1/2+y,1/2+z
1/4-x,3/4-y,1/2+z
x,3/4-y,3/4-z
1/4-x,1/2+y,3/4-z
-x,1/2-y,1/2-z
3/4+x,1/4+y,1/2-z
-x,1/4+y,1/4+z
3/4+x,1/2-y,1/4+z
1/2+x,y,1/2+z
3/4-x,1/4-y,1/2+z
1/2+x,1/4-y,3/4-z
3/4-x,y,3/4-z
1/2-x,-y,1/2-z
1/4+x,3/4+y,1/2-z
1/2-x,3/4+y,1/4+z
1/4+x,-y,1/4+z
1/2+x,1/2+y,z
3/4-x,3/4-y,z
1/2+x,3/4-y,1/4-z
3/4-x,1/2+y,1/4-z
1/2-x,1/2-y,-z
1/4+x,1/4+y,-z
1/2-x,1/4+y,3/4+z
1/4+x,1/2-y,3/4+z
loop_
_atom_site_type_symbol
_atom_site_label
_atom_site_fract_x
_atom_site_fract_y
_atom_site_fract_z
Si Si1 0.540954 0.710129 0.448554
Si Si2 0.667115 0.815510 0.196544
Si Si3 0.152057 0.936734 0.373414
Si Si4 0.295946 0.798901 0.907053
Si Si5 0.125000 0.625000 0.269626
Si Si6 0.808635 0.182504 0.991027
O O1 0.476553 0.708719 0.440439
O O2 0.559311 0.762761 0.393518
O O3 0.549302 0.706375 0.553594
O O4 0.580953 0.659386 0.424554
O O5 0.625000 0.796402 0.125000
O O6 0.635856 0.808438 0.288122
O O7 0.681004 0.879500 0.184317
O O8 0.175658 0.875000 0.375000
O O9 0.111655 0.940253 0.453799
O O10 0.297464 0.736876 0.938760
O O11 0.340971 0.833646 0.958208
O O12 0.240491 0.825119 0.941645
#
# Coordination Sequence:
#
# PCOD9515332 Si02
#       6
#    32  32  32  32  16  32
#     4  12  23  40  62  95 135 167 211 264 330 393
#     4  11  25  42  64  86 126 178 225 271 317 368
#     4  10  23  41  62  90 126 170 220 266 317 386
#     4  11  21  35  60  97 137 159 194 253 339 403
#     4  12  23  32  60 106 141 170 181 254 346 414
#     4  10  21  37  60  92 126 162 208 258 322 397
#
# _framework density 18.728909000000002
#
# number of rings (size 3 to 8) (size 9 to 14) (size 15 to 20)
#    0.000    1.091    5.455    1.636    5.091    0.727 
#    0.000    0.000    0.000    0.545    0.000    0.000 
#    0.000    0.000    0.000    0.000    0.000    0.000 
#
# Total GULP energy -245222.550541 kJ/mol
# GULP energy per Si atom -5573.239785 kJ/mol
# Density = 1.868628 g / cm^3
# Si number density = 18.728909 Si / 1000 Ang^3
#
#
#
# Elastic Constant Matrix: (Units=GPa)
#
#
# Indices 1 2 3 4 5 6 
#
# 1 128.9618 73.6285 31.5388 0.0000 0.0000 0.0000
# 2 73.6285 96.2387 29.8191 0.0000 0.0000 0.0000
# 3 31.5388 29.8191 20.2169 0.0000 0.0000 0.0000
# 4 0.0000 0.0000 0.0000 20.8782 0.0000 0.0000
# 5 0.0000 0.0000 0.0000 0.0000 21.3337 0.0000
# 6 0.0000 0.0000 0.0000 0.0000 0.0000 22.2692
#
#
#
# Elastic Compliance Matrix: (Units=1/GPa)
#
#
# Indices 1 2 3 4 5 6 
#
# 1 0.015222 -0.007897 -0.012099 0.000000 0.000000 0.000000
# 2 -0.007897 0.023233 -0.021949 0.000000 0.000000 0.000000
# 3 -0.012099 -0.021949 0.100711 0.000000 0.000000 0.000000
# 4 0.000000 0.000000 0.000000 0.047897 0.000000 0.000000
# 5 0.000000 0.000000 0.000000 0.000000 0.046874 0.000000
# 6 0.000000 0.000000 0.000000 0.000000 0.000000 0.044905
#
#
# Mechanical properties :
#
#
# Convention : Reuss Voigt Hill
#
# Bulk Modulus (GPa) = 18.09056 57.26560 37.67808
# Shear Modulus (GPa) = 13.11802 20.25829 16.68815
#
# Velocity S-wave (km/s) = 2.64941 3.29243 2.98826
# Velocity P-wave (km/s) = 4.36340 6.71534 5.66282
#
# Compressibility (1/GPa) = 0.05527745
#
# Stress axis : x y z
#
# Youngs Moduli (GPa) = 65.69631 43.04217 9.92943
#
# Poissons Ratio (x) = 0.33989 0.12013
# Poissons Ratio (y) = 0.51879 0.21794
# Poissons Ratio (z) = 0.79483 0.94472
#
# Static dielectric constant tensor:
#      x y z
#    x 1.717210 0.000000 0.000000 
#    y 0.000000 1.721470 0.000000 
#    z 0.000000 0.000000 1.648950 
# 
# From -- ./inp_files/28745.got.cif
#   From: 2010.05.17/outbox.cif.g08.bks.cpg/sg70_15_cif.got.tgz:28745.got - 2010.06.03 15:57:51.
