data_PCOD9515429
_publ_section_title
;
Structure prediction by ZEFSAII (Michael W. Deem and Ramdas Pophale) SiO2 
 PCOD9515429
Probable space group: F D D D
;
_chemical_formula_sum "Si O2"
_cell_formula_units_Z 160
_cell_length_a 20.906162
_cell_length_b 17.848668
_cell_length_c 17.060105
_cell_angle_alpha 90.000000
_cell_angle_beta 90.000000
_cell_angle_gamma 90.000000
_cell_volume 6365.929469
_symmetry_space_group_name_H-M "F D D D"
_symmetry_group_IT_number 70
_space_group.IT_coordinate_system_code '2'
_symmetry_cell_setting 'orthorhombic'
loop_
_space_group_symop_operation_xyz
x,y,z
1/4-x,1/4-y,z
x,1/4-y,1/4-z
1/4-x,y,1/4-z
-x,-y,-z
3/4+x,3/4+y,-z
-x,3/4+y,3/4+z
3/4+x,-y,3/4+z
x,1/2+y,1/2+z
1/4-x,3/4-y,1/2+z
x,3/4-y,3/4-z
1/4-x,1/2+y,3/4-z
-x,1/2-y,1/2-z
3/4+x,1/4+y,1/2-z
-x,1/4+y,1/4+z
3/4+x,1/2-y,1/4+z
1/2+x,y,1/2+z
3/4-x,1/4-y,1/2+z
1/2+x,1/4-y,3/4-z
3/4-x,y,3/4-z
1/2-x,-y,1/2-z
1/4+x,3/4+y,1/2-z
1/2-x,3/4+y,1/4+z
1/4+x,-y,1/4+z
1/2+x,1/2+y,z
3/4-x,3/4-y,z
1/2+x,3/4-y,1/4-z
3/4-x,1/2+y,1/4-z
1/2-x,1/2-y,-z
1/4+x,1/4+y,-z
1/2-x,1/4+y,3/4+z
1/4+x,1/2-y,3/4+z
loop_
_atom_site_type_symbol
_atom_site_label
_atom_site_fract_x
_atom_site_fract_y
_atom_site_fract_z
Si Si1 0.082660 0.356667 0.287567
Si Si2 0.360414 0.289098 0.732771
Si Si3 0.550995 0.706958 0.808844
Si Si4 0.415991 0.000136 0.799286
Si Si5 0.777272 0.079681 0.994992
O O1 0.062286 0.375000 0.375000
O O2 0.079702 0.268783 0.267900
O O3 0.056983 0.420662 0.231006
O O4 0.190176 0.254142 0.211190
O O5 0.375000 0.375000 0.748349
O O6 0.327508 0.278846 0.646705
O O7 0.224330 0.193258 0.690879
O O8 0.500000 0.750000 0.750000
O O9 0.616887 0.712447 0.760954
O O10 0.512808 0.628708 0.814839
O O11 0.375000 0.014790 0.875000
O O12 0.339478 0.129252 0.720116
#
# Coordination Sequence:
#
# PCOD9515429 Si02
#       5
#    32  32  32  32  32
#     4  10  21  40  59  81 122 158 197 241 293 363
#     4  10  21  39  62  82 120 168 201 234 297 365
#     4  12  20  36  57  89 125 157 190 245 304 362
#     4  12  23  34  57  94 122 152 193 248 312 351
#     4  10  23  33  58  86 122 157 196 241 294 353
#
# _framework density 25.133800000000001
#
# number of rings (size 3 to 8) (size 9 to 14) (size 15 to 20)
#    1.200    0.000    4.000    3.000    2.800    0.800 
#    0.000    1.000    0.000    0.600    0.000    0.000 
#    0.000    0.000    0.000    0.000    0.000    0.000 
#
# Total GULP energy -222850.888750 kJ/mol
# GULP energy per Si atom -5571.272219 kJ/mol
# Density = 2.507659 g / cm^3
# Si number density = 25.133800 Si / 1000 Ang^3
#
#
#
# Elastic Constant Matrix: (Units=GPa)
#
#
# Indices 1 2 3 4 5 6 
#
# 1 56.2355 24.0050 -2.0898 0.0000 0.0000 0.0000
# 2 24.0050 136.9170 4.4618 0.0000 0.0000 0.0000
# 3 -2.0898 4.4618 48.4613 0.0000 0.0000 0.0000
# 4 0.0000 0.0000 0.0000 17.7631 0.0000 0.0000
# 5 0.0000 0.0000 0.0000 0.0000 14.6721 0.0000
# 6 0.0000 0.0000 0.0000 0.0000 0.0000 52.2128
#
#
#
# Elastic Compliance Matrix: (Units=1/GPa)
#
#
# Indices 1 2 3 4 5 6 
#
# 1 0.019284 -0.003418 0.001146 0.000000 0.000000 0.000000
# 2 -0.003418 0.007932 -0.000878 0.000000 0.000000 0.000000
# 3 0.001146 -0.000878 0.020765 0.000000 0.000000 0.000000
# 4 0.000000 0.000000 0.000000 0.056297 0.000000 0.000000
# 5 0.000000 0.000000 0.000000 0.000000 0.068157 0.000000
# 6 0.000000 0.000000 0.000000 0.000000 0.000000 0.019152
#
#
# Mechanical properties :
#
#
# Convention : Reuss Voigt Hill
#
# Bulk Modulus (GPa) = 23.99139 32.70754 28.34947
# Shear Modulus (GPa) = 23.60941 31.27871 27.44406
#
# Velocity S-wave (km/s) = 3.06820 3.53156 3.30800
# Velocity P-wave (km/s) = 4.70298 5.44709 5.08866
#
# Compressibility (1/GPa) = 0.04168161
#
# Stress axis : x y z
#
# Youngs Moduli (GPa) = 51.85605 126.07760 48.15733
#
# Poissons Ratio (x) = 0.43098 -0.05520
# Poissons Ratio (y) = 0.17726 0.04227
# Poissons Ratio (z) = -0.05944 0.11066
#
# Static dielectric constant tensor:
#      x y z
#    x 1.974470 0.000000 0.000000 
#    y 0.000000 2.140340 0.000000 
#    z 0.000000 0.000000 2.010810 
# 
# From -- ./inp_files/38433.got.cif
#   From: 2010.05.17/outbox.cif.g08.bks.cpg/sg70_20_cif.got.tgz:38433.got - 2010.06.03 15:57:51.
