data_PCOD9515402
_publ_section_title
;
Structure prediction by ZEFSAII (Michael W. Deem and Ramdas Pophale) SiO2 
 PCOD9515402
Probable space group: F D D D
;
_chemical_formula_sum "Si O2"
_cell_formula_units_Z 96
_cell_length_a 6.935295
_cell_length_b 17.679217
_cell_length_c 29.788595
_cell_angle_alpha 90.000000
_cell_angle_beta 90.000000
_cell_angle_gamma 90.000000
_cell_volume 3652.397067
_symmetry_space_group_name_H-M "F D D D"
_symmetry_group_IT_number 70
_space_group.IT_coordinate_system_code '2'
_symmetry_cell_setting 'orthorhombic'
loop_
_space_group_symop_operation_xyz
x,y,z
1/4-x,1/4-y,z
x,1/4-y,1/4-z
1/4-x,y,1/4-z
-x,-y,-z
3/4+x,3/4+y,-z
-x,3/4+y,3/4+z
3/4+x,-y,3/4+z
x,1/2+y,1/2+z
1/4-x,3/4-y,1/2+z
x,3/4-y,3/4-z
1/4-x,1/2+y,3/4-z
-x,1/2-y,1/2-z
3/4+x,1/4+y,1/2-z
-x,1/4+y,1/4+z
3/4+x,1/2-y,1/4+z
1/2+x,y,1/2+z
3/4-x,1/4-y,1/2+z
1/2+x,1/4-y,3/4-z
3/4-x,y,3/4-z
1/2-x,-y,1/2-z
1/4+x,3/4+y,1/2-z
1/2-x,3/4+y,1/4+z
1/4+x,-y,1/4+z
1/2+x,1/2+y,z
3/4-x,3/4-y,z
1/2+x,3/4-y,1/4-z
3/4-x,1/2+y,1/4-z
1/2-x,1/2-y,-z
1/4+x,1/4+y,-z
1/2-x,1/4+y,3/4+z
1/4+x,1/2-y,3/4+z
loop_
_atom_site_type_symbol
_atom_site_label
_atom_site_fract_x
_atom_site_fract_y
_atom_site_fract_z
Si Si1 0.597451 0.897095 0.475441
Si Si2 0.854036 0.271952 0.926043
Si Si3 0.401097 0.147135 0.826586
O O1 0.375000 0.875000 0.470764
O O2 0.715601 0.823627 0.456850
O O3 0.682477 0.965099 0.446036
O O4 0.641007 0.923353 0.526246
O O5 0.875000 0.297328 0.875000
O O6 0.793144 0.184890 0.923148
O O7 0.625000 0.125000 0.826566
O O8 0.375000 0.187079 0.875000
#
# Coordination Sequence:
#
# PCOD9515402 Si02
#       3
#    32  32  32
#     4  10  21  38  65  89 119 161 210 253 312 367
#     4  10  22  41  61  90 127 159 204 257 309 371
#     4  10  23  41  59  91 124 165 209 253 312 370
#
# _framework density 26.284106000000001
#
# number of rings (size 3 to 8) (size 9 to 14) (size 15 to 20)
#    0.000    2.000    0.000    3.000    4.667    8.000 
#   12.000    0.000    0.000    0.000    0.000    0.000 
#    0.000    0.000    0.000    0.000    0.000    0.000 
#
# Total GULP energy -134189.649372 kJ/mol
# GULP energy per Si atom -5591.235391 kJ/mol
# Density = 2.622428 g / cm^3
# Si number density = 26.284106 Si / 1000 Ang^3
#
#
#
# Elastic Constant Matrix: (Units=GPa)
#
#
# Indices 1 2 3 4 5 6 
#
# 1 121.2335 13.4249 68.2865 0.0000 0.0000 0.0000
# 2 13.4249 85.7605 13.5730 0.0000 0.0000 0.0000
# 3 68.2865 13.5730 283.7210 0.0000 0.0000 0.0000
# 4 0.0000 0.0000 0.0000 16.7556 0.0000 0.0000
# 5 0.0000 0.0000 0.0000 0.0000 50.9197 0.0000
# 6 0.0000 0.0000 0.0000 0.0000 0.0000 22.4246
#
#
#
# Elastic Compliance Matrix: (Units=1/GPa)
#
#
# Indices 1 2 3 4 5 6 
#
# 1 0.009654 -0.001152 -0.002268 0.000000 0.000000 0.000000
# 2 -0.001152 0.011887 -0.000291 0.000000 0.000000 0.000000
# 3 -0.002268 -0.000291 0.004084 0.000000 0.000000 0.000000
# 4 0.000000 0.000000 0.000000 0.059682 0.000000 0.000000
# 5 0.000000 0.000000 0.000000 0.000000 0.019639 0.000000
# 6 0.000000 0.000000 0.000000 0.000000 0.000000 0.044594
#
#
# Mechanical properties :
#
#
# Convention : Reuss Voigt Hill
#
# Bulk Modulus (GPa) = 54.94107 75.69821 65.31964
# Shear Modulus (GPa) = 30.66912 44.38202 37.52557
#
# Velocity S-wave (km/s) = 3.41960 4.11365 3.78258
# Velocity P-wave (km/s) = 6.04481 7.17115 6.63193
#
# Compressibility (1/GPa) = 0.01820132
#
# Stress axis : x y z
#
# Youngs Moduli (GPa) = 103.58575 84.12658 244.82884
#
# Poissons Ratio (x) = 0.09693 0.55537
# Poissons Ratio (y) = 0.11935 0.07133
# Poissons Ratio (z) = 0.23497 0.02451
#
# Static dielectric constant tensor:
#      x y z
#    x 2.119610 0.000000 0.000000 
#    y 0.000000 2.158950 0.000000 
#    z 0.000000 0.000000 2.002880 
# 
# From -- ./inp_files/9262.got.cif
#   From: 2010.05.17/outbox.cif.g08.bks.cpg/sg70_5_cif.got.tgz:9262.got - 2010.06.03 15:57:51.
