data_PCOD9515007
_publ_section_title
;
Structure prediction by ZEFSAII (Michael W. Deem and Ramdas Pophale) SiO2 
 PCOD9515007
Probable space group: F D D D
;
_chemical_formula_sum "Si O2"
_cell_formula_units_Z 176
_cell_length_a 15.464342
_cell_length_b 20.878586
_cell_length_c 23.925395
_cell_angle_alpha 90.000000
_cell_angle_beta 90.000000
_cell_angle_gamma 90.000000
_cell_volume 7724.878281
_symmetry_space_group_name_H-M "F D D D"
_symmetry_group_IT_number 70
_space_group.IT_coordinate_system_code '2'
_symmetry_cell_setting 'orthorhombic'
loop_
_space_group_symop_operation_xyz
x,y,z
1/4-x,1/4-y,z
x,1/4-y,1/4-z
1/4-x,y,1/4-z
-x,-y,-z
3/4+x,3/4+y,-z
-x,3/4+y,3/4+z
3/4+x,-y,3/4+z
x,1/2+y,1/2+z
1/4-x,3/4-y,1/2+z
x,3/4-y,3/4-z
1/4-x,1/2+y,3/4-z
-x,1/2-y,1/2-z
3/4+x,1/4+y,1/2-z
-x,1/4+y,1/4+z
3/4+x,1/2-y,1/4+z
1/2+x,y,1/2+z
3/4-x,1/4-y,1/2+z
1/2+x,1/4-y,3/4-z
3/4-x,y,3/4-z
1/2-x,-y,1/2-z
1/4+x,3/4+y,1/2-z
1/2-x,3/4+y,1/4+z
1/4+x,-y,1/4+z
1/2+x,1/2+y,z
3/4-x,3/4-y,z
1/2+x,3/4-y,1/4-z
3/4-x,1/2+y,1/4-z
1/2-x,1/2-y,-z
1/4+x,1/4+y,-z
1/2-x,1/4+y,3/4+z
1/4+x,1/2-y,3/4+z
loop_
_atom_site_type_symbol
_atom_site_label
_atom_site_fract_x
_atom_site_fract_y
_atom_site_fract_z
Si Si1 0.260195 0.732229 0.720323
Si Si2 0.163346 0.016994 0.281966
Si Si3 0.546219 0.386710 0.168907
Si Si4 0.391727 0.623511 0.705320
Si Si5 0.375000 0.375000 0.117928
Si Si6 0.571643 0.071834 0.182899
O O1 0.165123 0.711178 0.741175
O O2 0.240098 0.791396 0.679563
O O3 0.322494 0.678909 0.694185
O O4 0.302909 0.761856 0.777298
O O5 0.166552 0.071282 0.328161
O O6 0.250000 0.000000 0.250000
O O7 0.143594 0.947216 0.306402
O O8 0.625000 0.383735 0.125000
O O9 0.586217 0.368798 0.228754
O O10 0.458960 0.348762 0.151342
O O11 0.484394 0.613422 0.677651
O O12 0.625000 0.125000 0.217068
O O13 0.625000 0.057546 0.125000
#
# Coordination Sequence:
#
# PCOD9515007 Si02
#       6
#    32  32  32  32  16  32
#     4  10  22  40  64  93 129 172 212 264 338 389
#     4  10  20  38  64  91 125 163 213 263 316 384
#     4  10  22  40  63  96 135 163 220 276 317 397
#     4  10  23  40  64  93 130 173 211 271 332 389
#     4  12  22  38  68  94 118 174 214 262 328 386
#     4   9  20  40  62  87 130 167 215 270 324 383
#
# _framework density 22.783531
#
# number of rings (size 3 to 8) (size 9 to 14) (size 15 to 20)
#    0.000    2.364    0.000    4.364    5.091    4.364 
#   13.091    0.000    0.000    7.636    0.000    0.000 
#    0.000    0.000    0.000    0.000    0.000    0.000 
#
# Total GULP energy -245101.216665 kJ/mol
# GULP energy per Si atom -5570.482197 kJ/mol
# Density = 2.273167 g / cm^3
# Si number density = 22.783531 Si / 1000 Ang^3
#
#
#
# Elastic Constant Matrix: (Units=GPa)
#
#
# Indices 1 2 3 4 5 6 
#
# 1 122.6003 50.9677 35.9062 0.0000 0.0000 0.0000
# 2 50.9677 43.6672 10.8761 0.0000 0.0000 0.0000
# 3 35.9062 10.8761 121.7965 0.0000 0.0000 0.0000
# 4 0.0000 0.0000 0.0000 7.9576 0.0000 0.0000
# 5 0.0000 0.0000 0.0000 0.0000 -48.9906 0.0000
# 6 0.0000 0.0000 0.0000 0.0000 0.0000 41.7784
#
#
#
# Elastic Compliance Matrix: (Units=1/GPa)
#
#
# Indices 1 2 3 4 5 6 
#
# 1 0.017069 -0.019094 -0.003327 0.000000 0.000000 0.000000
# 2 -0.019094 0.044780 0.001630 0.000000 0.000000 0.000000
# 3 -0.003327 0.001630 0.009046 0.000000 0.000000 0.000000
# 4 0.000000 0.000000 0.000000 0.125666 0.000000 0.000000
# 5 0.000000 0.000000 0.000000 0.000000 -0.020412 0.000000
# 6 0.000000 0.000000 0.000000 0.000000 0.000000 0.023936
#
#
# Mechanical properties :
#
#
# Convention : Reuss Voigt Hill
#
# Bulk Modulus (GPa) = 34.11368 53.72935 43.92151
# Shear Modulus (GPa) = 19.88575 12.83666 16.36120
#
# Velocity S-wave (km/s) = 2.95754 2.37622 2.68267
# Velocity P-wave (km/s) = 5.16413 5.58232 5.37729
#
# Compressibility (1/GPa) = 0.02931375
#
# Stress axis : x y z
#
# Youngs Moduli (GPa) = 58.58725 22.33128 110.55059
#
# Poissons Ratio (x) = 0.42638 0.36779
# Poissons Ratio (y) = 1.11864 -0.18021
# Poissons Ratio (z) = 0.19491 -0.03640
#
# Static dielectric constant tensor:
#      x y z
#    x 1.798060 0.000000 0.000000 
#    y 0.000000 1.879660 0.000000 
#    z 0.000000 0.000000 1.836880 
# 
# From -- ./inp_files/51192.got.cif
#   From: 2010.05.17/outbox.cif.g08.bks.cpg/sg70_26_cif.got.tgz:51192.got - 2010.06.03 15:57:51.
