data_PCOD9515987
_publ_section_title
;
Structure prediction by ZEFSAII (Michael W. Deem and Ramdas Pophale) SiO2 
 PCOD9515987
Probable space group: F D D D
;
_chemical_formula_sum "Si O2"
_cell_formula_units_Z 112
_cell_length_a 7.872156
_cell_length_b 22.681557
_cell_length_c 27.897543
_cell_angle_alpha 90.000000
_cell_angle_beta 90.000000
_cell_angle_gamma 90.000000
_cell_volume 4981.183161
_symmetry_space_group_name_H-M "F D D D"
_symmetry_group_IT_number 70
_space_group.IT_coordinate_system_code '2'
_symmetry_cell_setting 'orthorhombic'
loop_
_space_group_symop_operation_xyz
x,y,z
1/4-x,1/4-y,z
x,1/4-y,1/4-z
1/4-x,y,1/4-z
-x,-y,-z
3/4+x,3/4+y,-z
-x,3/4+y,3/4+z
3/4+x,-y,3/4+z
x,1/2+y,1/2+z
1/4-x,3/4-y,1/2+z
x,3/4-y,3/4-z
1/4-x,1/2+y,3/4-z
-x,1/2-y,1/2-z
3/4+x,1/4+y,1/2-z
-x,1/4+y,1/4+z
3/4+x,1/2-y,1/4+z
1/2+x,y,1/2+z
3/4-x,1/4-y,1/2+z
1/2+x,1/4-y,3/4-z
3/4-x,y,3/4-z
1/2-x,-y,1/2-z
1/4+x,3/4+y,1/2-z
1/2-x,3/4+y,1/4+z
1/4+x,-y,1/4+z
1/2+x,1/2+y,z
3/4-x,3/4-y,z
1/2+x,3/4-y,1/4-z
3/4-x,1/2+y,1/4-z
1/2-x,1/2-y,-z
1/4+x,1/4+y,-z
1/2-x,1/4+y,3/4+z
1/4+x,1/2-y,3/4+z
loop_
_atom_site_type_symbol
_atom_site_label
_atom_site_fract_x
_atom_site_fract_y
_atom_site_fract_z
Si Si1 0.572580 0.356789 0.324504
Si Si2 0.698082 0.228646 0.341809
Si Si3 0.125000 0.625000 0.843670
Si Si4 0.411100 0.063000 0.487048
O O1 0.650789 0.375000 0.375000
O O2 0.375000 0.375000 0.323054
O O3 0.598475 0.287429 0.328507
O O4 0.656552 0.394039 0.282136
O O5 0.592429 0.180811 0.372072
O O6 0.736734 0.203769 0.288732
O O7 0.875000 0.238776 0.375000
O O8 0.260655 0.600207 0.806606
O O9 0.500000 0.000000 0.500000
#
# Coordination Sequence:
#
# PCOD9515987 Si02
#       4
#    32  32  16  32
#     4  11  25  44  65 102 141 181 228 297 365 422
#     4  10  23  44  70  99 139 186 236 291 359 431
#     4  10  22  44  69 104 131 180 242 294 354 430
#     4  11  23  43  70 102 133 188 239 293 360 434
#
# _framework density 22.484617
#
# number of rings (size 3 to 8) (size 9 to 14) (size 15 to 20)
#    0.000    1.429    0.000    5.143    2.000    4.000 
#   30.857    0.000    0.000    0.000    0.000    0.000 
#    0.000    0.000    0.000    0.000    0.000    0.000 
#
# Total GULP energy -155985.190088 kJ/mol
# GULP energy per Si atom -5570.899646 kJ/mol
# Density = 2.243344 g / cm^3
# Si number density = 22.484617 Si / 1000 Ang^3
#
#
#
# Elastic Constant Matrix: (Units=GPa)
#
#
# Indices 1 2 3 4 5 6 
#
# 1 44.0886 62.3904 25.8696 0.0000 0.0000 0.0000
# 2 62.3904 242.0731 115.0952 0.0000 0.0000 0.0000
# 3 25.8696 115.0952 197.0555 0.0000 0.0000 0.0000
# 4 0.0000 0.0000 0.0000 21.0517 0.0000 0.0000
# 5 0.0000 0.0000 0.0000 0.0000 25.1649 0.0000
# 6 0.0000 0.0000 0.0000 0.0000 0.0000 58.8876
#
#
#
# Elastic Compliance Matrix: (Units=1/GPa)
#
#
# Indices 1 2 3 4 5 6 
#
# 1 0.035833 -0.009690 0.000955 0.000000 0.000000 0.000000
# 2 -0.009690 0.008339 -0.003599 0.000000 0.000000 0.000000
# 3 0.000955 -0.003599 0.007051 0.000000 0.000000 0.000000
# 4 0.000000 0.000000 0.000000 0.047502 0.000000 0.000000
# 5 0.000000 0.000000 0.000000 0.000000 0.039738 0.000000
# 6 0.000000 0.000000 0.000000 0.000000 0.000000 0.016982
#
#
# Mechanical properties :
#
#
# Convention : Reuss Voigt Hill
#
# Bulk Modulus (GPa) = 37.65434 98.88087 68.26760
# Shear Modulus (GPa) = 26.46014 39.67830 33.06922
#
# Velocity S-wave (km/s) = 3.43419 4.20537 3.83919
# Velocity P-wave (km/s) = 5.70157 8.22513 7.07675
#
# Compressibility (1/GPa) = 0.02655737
#
# Stress axis : x y z
#
# Youngs Moduli (GPa) = 27.90737 119.91342 141.81871
#
# Poissons Ratio (x) = 1.16190 -0.13547
# Poissons Ratio (y) = 0.27041 0.51037
# Poissons Ratio (z) = -0.02666 0.43154
#
# Static dielectric constant tensor:
#      x y z
#    x 1.915900 0.000000 0.000000 
#    y 0.000000 1.697060 0.000000 
#    z 0.000000 0.000000 1.687390 
# 
# From -- ./inp_files/56434.got.cif
#   From: 2010.05.17/outbox.cif.g08.bks.cpg/sg70_29_cif.got.tgz:56434.got - 2010.06.03 15:57:51.
