data_PCOD9515850
_publ_section_title
;
Structure prediction by ZEFSAII (Michael W. Deem and Ramdas Pophale) SiO2 
 PCOD9515850
Probable space group: F D D D
;
_chemical_formula_sum "Si O2"
_cell_formula_units_Z 136
_cell_length_a 22.904176
_cell_length_b 22.723412
_cell_length_c 12.768163
_cell_angle_alpha 90.000000
_cell_angle_beta 90.000000
_cell_angle_gamma 90.000000
_cell_volume 6645.331238
_symmetry_space_group_name_H-M "F D D D"
_symmetry_group_IT_number 70
_space_group.IT_coordinate_system_code '2'
_symmetry_cell_setting 'orthorhombic'
loop_
_space_group_symop_operation_xyz
x,y,z
1/4-x,1/4-y,z
x,1/4-y,1/4-z
1/4-x,y,1/4-z
-x,-y,-z
3/4+x,3/4+y,-z
-x,3/4+y,3/4+z
3/4+x,-y,3/4+z
x,1/2+y,1/2+z
1/4-x,3/4-y,1/2+z
x,3/4-y,3/4-z
1/4-x,1/2+y,3/4-z
-x,1/2-y,1/2-z
3/4+x,1/4+y,1/2-z
-x,1/4+y,1/4+z
3/4+x,1/2-y,1/4+z
1/2+x,y,1/2+z
3/4-x,1/4-y,1/2+z
1/2+x,1/4-y,3/4-z
3/4-x,y,3/4-z
1/2-x,-y,1/2-z
1/4+x,3/4+y,1/2-z
1/2-x,3/4+y,1/4+z
1/4+x,-y,1/4+z
1/2+x,1/2+y,z
3/4-x,3/4-y,z
1/2+x,3/4-y,1/4-z
3/4-x,1/2+y,1/4-z
1/2-x,1/2-y,-z
1/4+x,1/4+y,-z
1/2-x,1/4+y,3/4+z
1/4+x,1/2-y,3/4+z
loop_
_atom_site_type_symbol
_atom_site_label
_atom_site_fract_x
_atom_site_fract_y
_atom_site_fract_z
Si Si1 0.641951 0.807634 0.006845
Si Si2 0.739833 0.875000 0.875000
Si Si3 0.946034 0.625000 0.125000
Si Si4 0.468018 0.311989 0.233090
Si Si5 0.086679 0.183269 0.995519
Si Si6 0.625000 0.625000 0.625000
O O1 0.699643 0.840787 0.961872
O O2 0.594980 0.824206 0.917586
O O3 0.631771 0.737298 0.010190
O O4 0.625000 0.828437 0.125000
O O5 0.782418 0.825770 0.824704
O O6 0.984254 0.641814 0.225313
O O7 0.500000 0.250000 0.250000
O O8 0.444762 0.314519 0.116460
O O9 0.413769 0.330934 0.305482
O O10 0.125000 0.125000 0.001626
#
# Coordination Sequence:
#
# PCOD9515850 Si02
#       6
#    32  16  16  32  32   8
#     4  11  24  44  67  98 136 178 230 278 332 411
#     4  11  27  45  69 103 137 187 223 280 350 400
#     4  10  22  41  65  97 131 176 224 278 338 392
#     4  11  22  42  66  96 132 173 223 280 336 393
#     4  12  25  44  69 101 138 178 229 280 341 412
#     4  10  24  42  68  98 134 176 222 280 340 394
#
# _framework density 20.465496000000002
#
# number of rings (size 3 to 8) (size 9 to 14) (size 15 to 20)
#    0.000    0.941    3.529    3.176    0.000    7.529 
#    2.118    0.000    0.000    0.000    0.000    0.000 
#    0.000    0.000    0.000    0.000    0.000    0.000 
#
# Total GULP energy -189404.780567 kJ/mol
# GULP energy per Si atom -5570.728840 kJ/mol
# Density = 2.041892 g / cm^3
# Si number density = 20.465496 Si / 1000 Ang^3
#
#
#
# Elastic Constant Matrix: (Units=GPa)
#
#
# Indices 1 2 3 4 5 6 
#
# 1 114.5903 50.4310 55.7783 0.0000 0.0000 0.0000
# 2 50.4310 114.9960 28.6750 0.0000 0.0000 0.0000
# 3 55.7783 28.6750 143.8256 0.0000 0.0000 0.0000
# 4 0.0000 0.0000 0.0000 21.8134 0.0000 0.0000
# 5 0.0000 0.0000 0.0000 0.0000 23.7476 0.0000
# 6 0.0000 0.0000 0.0000 0.0000 0.0000 11.8235
#
#
#
# Elastic Compliance Matrix: (Units=1/GPa)
#
#
# Indices 1 2 3 4 5 6 
#
# 1 0.012688 -0.004564 -0.004011 0.000000 0.000000 0.000000
# 2 -0.004564 0.010793 -0.000382 0.000000 0.000000 0.000000
# 3 -0.004011 -0.000382 0.008584 0.000000 0.000000 0.000000
# 4 0.000000 0.000000 0.000000 0.045843 0.000000 0.000000
# 5 0.000000 0.000000 0.000000 0.000000 0.042109 0.000000
# 6 0.000000 0.000000 0.000000 0.000000 0.000000 0.084577
#
#
# Mechanical properties :
#
#
# Convention : Reuss Voigt Hill
#
# Bulk Modulus (GPa) = 70.66165 71.46451 71.06308
# Shear Modulus (GPa) = 22.00466 27.37875 24.69170
#
# Velocity S-wave (km/s) = 3.28259 3.66156 3.47725
# Velocity P-wave (km/s) = 6.99781 7.27127 7.13585
#
# Compressibility (1/GPa) = 0.01415195
#
# Stress axis : x y z
#
# Youngs Moduli (GPa) = 78.81756 92.65541 116.49133
#
# Poissons Ratio (x) = 0.42288 0.46719
# Poissons Ratio (y) = 0.35972 0.04447
# Poissons Ratio (z) = 0.31610 0.03537
#
# Static dielectric constant tensor:
#      x y z
#    x 1.761780 0.000000 0.000000 
#    y 0.000000 1.827390 0.000000 
#    z 0.000000 0.000000 1.755780 
# 
# From -- ./inp_files/17728.got.cif
#   From: 2010.05.17/outbox.cif.g08.bks.cpg/sg70_9_cif.got.tgz:17728.got - 2010.06.03 15:57:51.
