data_PCOD9515501
_publ_section_title
;
Structure prediction by ZEFSAII (Michael W. Deem and Ramdas Pophale) SiO2 
 PCOD9515501
Probable space group: F D D D
;
_chemical_formula_sum "Si O2"
_cell_formula_units_Z 80
_cell_length_a 5.140536
_cell_length_b 29.412557
_cell_length_c 22.378966
_cell_angle_alpha 90.000000
_cell_angle_beta 90.000000
_cell_angle_gamma 90.000000
_cell_volume 3383.617039
_symmetry_space_group_name_H-M "F D D D"
_symmetry_group_IT_number 70
_space_group.IT_coordinate_system_code '2'
_symmetry_cell_setting 'orthorhombic'
loop_
_space_group_symop_operation_xyz
x,y,z
1/4-x,1/4-y,z
x,1/4-y,1/4-z
1/4-x,y,1/4-z
-x,-y,-z
3/4+x,3/4+y,-z
-x,3/4+y,3/4+z
3/4+x,-y,3/4+z
x,1/2+y,1/2+z
1/4-x,3/4-y,1/2+z
x,3/4-y,3/4-z
1/4-x,1/2+y,3/4-z
-x,1/2-y,1/2-z
3/4+x,1/4+y,1/2-z
-x,1/4+y,1/4+z
3/4+x,1/2-y,1/4+z
1/2+x,y,1/2+z
3/4-x,1/4-y,1/2+z
1/2+x,1/4-y,3/4-z
3/4-x,y,3/4-z
1/2-x,-y,1/2-z
1/4+x,3/4+y,1/2-z
1/2-x,3/4+y,1/4+z
1/4+x,-y,1/4+z
1/2+x,1/2+y,z
3/4-x,3/4-y,z
1/2+x,3/4-y,1/4-z
3/4-x,1/2+y,1/4-z
1/2-x,1/2-y,-z
1/4+x,1/4+y,-z
1/2-x,1/4+y,3/4+z
1/4+x,1/2-y,3/4+z
loop_
_atom_site_type_symbol
_atom_site_label
_atom_site_fract_x
_atom_site_fract_y
_atom_site_fract_z
Si Si1 0.725851 0.204333 0.461018
Si Si2 0.030873 0.172587 0.728466
Si Si3 0.375000 0.254135 0.375000
O O1 0.750000 0.250000 0.500000
O O2 0.502529 0.174131 0.492509
O O3 0.604968 0.222333 0.399483
O O4 0.004492 0.181449 0.469898
O O5 0.125000 0.125000 0.700847
O O6 0.041669 0.212783 0.679322
#
# Coordination Sequence:
#
# PCOD9515501 Si02
#       3
#    32  32  16
#     4  10  22  39  62  90 124 164 205 251 309 378
#     4  11  23  40  62  94 126 157 205 267 310 356
#     4  10  21  40  66  88 118 168 210 242 306 382
#
# _framework density 23.643336000000001
#
# number of rings (size 3 to 8) (size 9 to 14) (size 15 to 20)
#    0.000    1.600    0.000    6.600    0.000   14.400 
#    0.000   12.000    0.000    0.000    0.000    0.000 
#    0.000    0.000    0.000    0.000    0.000    0.000 
#
# Total GULP energy -111801.442556 kJ/mol
# GULP energy per Si atom -5590.072128 kJ/mol
# Density = 2.358952 g / cm^3
# Si number density = 23.643336 Si / 1000 Ang^3
#
#
#
# Elastic Constant Matrix: (Units=GPa)
#
#
# Indices 1 2 3 4 5 6 
#
# 1 143.7931 21.3016 48.4554 0.0000 0.0000 0.0000
# 2 21.3016 59.6004 26.5903 0.0000 0.0000 0.0000
# 3 48.4554 26.5903 127.2173 0.0000 0.0000 0.0000
# 4 0.0000 0.0000 0.0000 18.1120 0.0000 0.0000
# 5 0.0000 0.0000 0.0000 0.0000 38.2278 0.0000
# 6 0.0000 0.0000 0.0000 0.0000 0.0000 36.2504
#
#
#
# Elastic Compliance Matrix: (Units=1/GPa)
#
#
# Indices 1 2 3 4 5 6 
#
# 1 0.008128 -0.001681 -0.002745 0.000000 0.000000 0.000000
# 2 -0.001681 0.018851 -0.003300 0.000000 0.000000 0.000000
# 3 -0.002745 -0.003300 0.009596 0.000000 0.000000 0.000000
# 4 0.000000 0.000000 0.000000 0.055212 0.000000 0.000000
# 5 0.000000 0.000000 0.000000 0.000000 0.026159 0.000000
# 6 0.000000 0.000000 0.000000 0.000000 0.000000 0.027586
#
#
# Mechanical properties :
#
#
# Convention : Reuss Voigt Hill
#
# Bulk Modulus (GPa) = 47.33805 58.14507 52.74156
# Shear Modulus (GPa) = 29.75754 34.13561 31.94658
#
# Velocity S-wave (km/s) = 3.55153 3.80382 3.67984
# Velocity P-wave (km/s) = 6.07314 6.62858 6.35693
#
# Compressibility (1/GPa) = 0.02112466
#
# Stress axis : x y z
#
# Youngs Moduli (GPa) = 123.02684 53.04654 104.21272
#
# Poissons Ratio (x) = 0.08915 0.28603
# Poissons Ratio (y) = 0.20676 0.34391
# Poissons Ratio (z) = 0.33767 0.17506
#
# Static dielectric constant tensor:
#      x y z
#    x 1.914670 0.000000 0.000000 
#    y 0.000000 1.938010 0.000000 
#    z 0.000000 0.000000 1.947250 
# 
# From -- ./inp_files/2421.got.cif
#   From: 2010.05.17/outbox.cif.g08.bks.cpg/sg70_2_cif.got.tgz:2421.got - 2010.06.03 15:57:51.
