data_PCOD9515003
_publ_section_title
;
Structure prediction by ZEFSAII (Michael W. Deem and Ramdas Pophale) SiO2 
 PCOD9515003
Probable space group: F D D D
;
_chemical_formula_sum "Si O2"
_cell_formula_units_Z 176
_cell_length_a 13.519576
_cell_length_b 21.089521
_cell_length_c 32.766042
_cell_angle_alpha 90.000000
_cell_angle_beta 90.000000
_cell_angle_gamma 90.000000
_cell_volume 9342.299177
_symmetry_space_group_name_H-M "F D D D"
_symmetry_group_IT_number 70
_space_group.IT_coordinate_system_code '2'
_symmetry_cell_setting 'orthorhombic'
loop_
_space_group_symop_operation_xyz
x,y,z
1/4-x,1/4-y,z
x,1/4-y,1/4-z
1/4-x,y,1/4-z
-x,-y,-z
3/4+x,3/4+y,-z
-x,3/4+y,3/4+z
3/4+x,-y,3/4+z
x,1/2+y,1/2+z
1/4-x,3/4-y,1/2+z
x,3/4-y,3/4-z
1/4-x,1/2+y,3/4-z
-x,1/2-y,1/2-z
3/4+x,1/4+y,1/2-z
-x,1/4+y,1/4+z
3/4+x,1/2-y,1/4+z
1/2+x,y,1/2+z
3/4-x,1/4-y,1/2+z
1/2+x,1/4-y,3/4-z
3/4-x,y,3/4-z
1/2-x,-y,1/2-z
1/4+x,3/4+y,1/2-z
1/2-x,3/4+y,1/4+z
1/4+x,-y,1/4+z
1/2+x,1/2+y,z
3/4-x,3/4-y,z
1/2+x,3/4-y,1/4-z
3/4-x,1/2+y,1/4-z
1/2-x,1/2-y,-z
1/4+x,1/4+y,-z
1/2-x,1/4+y,3/4+z
1/4+x,1/2-y,3/4+z
loop_
_atom_site_type_symbol
_atom_site_label
_atom_site_fract_x
_atom_site_fract_y
_atom_site_fract_z
Si Si1 0.790325 0.580669 0.296950
Si Si2 0.482119 0.055004 0.858983
Si Si3 0.743102 0.124876 0.707207
Si Si4 0.171140 0.481413 0.846631
Si Si5 0.875000 0.875000 0.577717
Si Si6 0.250666 0.264128 0.186371
O O1 0.783283 0.647431 0.320859
O O2 0.771579 0.591801 0.249482
O O3 0.706643 0.534870 0.314856
O O4 0.892862 0.544011 0.306254
O O5 0.375000 0.036108 0.875000
O O6 0.539300 0.097495 0.892940
O O7 0.555240 0.995909 0.851930
O O8 0.625000 0.125000 0.700195
O O9 0.797315 0.086101 0.671369
O O10 0.768965 0.198733 0.709229
O O11 0.228850 0.497110 0.888712
O O12 0.920863 0.818025 0.552493
#
# Coordination Sequence:
#
# PCOD9515003 Si02
#       6
#    32  32  32  32  16  32
#     4  12  21  36  61  97 130 163 206 262 332 385
#     4  11  19  35  64  94 117 165 221 266 301 377
#     4  12  26  36  60  98 141 161 197 273 350 387
#     4  11  22  39  63  91 133 166 215 259 323 399
#     4  10  20  38  64  86 112 162 226 260 284 376
#     4  11  23  40  63  90 125 167 219 258 316 384
#
# _framework density 18.839046
#
# number of rings (size 3 to 8) (size 9 to 14) (size 15 to 20)
#    0.000    0.727    7.273    2.727    2.545    0.727 
#    0.000    0.909    0.000    8.727    0.000    0.000 
#    0.000    0.000    0.000    0.000    0.000    0.000 
#
# Total GULP energy -245807.203105 kJ/mol
# GULP energy per Si atom -5586.527343 kJ/mol
# Density = 1.879617 g / cm^3
# Si number density = 18.839046 Si / 1000 Ang^3
#
#
#
# Elastic Constant Matrix: (Units=GPa)
#
#
# Indices 1 2 3 4 5 6 
#
# 1 138.5485 41.1028 27.9924 0.0000 0.0000 0.0000
# 2 41.1028 76.5556 12.9940 0.0000 0.0000 0.0000
# 3 27.9924 12.9940 33.1833 0.0000 0.0000 0.0000
# 4 0.0000 0.0000 0.0000 22.6249 0.0000 0.0000
# 5 0.0000 0.0000 0.0000 0.0000 0.0494 0.0000
# 6 0.0000 0.0000 0.0000 0.0000 0.0000 21.6782
#
#
#
# Elastic Compliance Matrix: (Units=1/GPa)
#
#
# Indices 1 2 3 4 5 6 
#
# 1 0.009783 -0.004126 -0.006637 0.000000 0.000000 0.000000
# 2 -0.004126 0.015732 -0.002680 0.000000 0.000000 0.000000
# 3 -0.006637 -0.002680 0.036784 0.000000 0.000000 0.000000
# 4 0.000000 0.000000 0.000000 0.044199 0.000000 0.000000
# 5 0.000000 0.000000 0.000000 0.000000 20.232131 0.000000
# 6 0.000000 0.000000 0.000000 0.000000 0.000000 0.046129
#
#
# Mechanical properties :
#
#
# Convention : Reuss Voigt Hill
#
# Bulk Modulus (GPa) = 28.23791 45.82953 37.03372
# Shear Modulus (GPa) = 0.24482 19.95039 10.09761
#
# Velocity S-wave (km/s) = 0.36088 3.25775 2.31766
# Velocity P-wave (km/s) = 3.89810 6.20727 5.18293
#
# Compressibility (1/GPa) = 0.03541338
#
# Stress axis : x y z
#
# Youngs Moduli (GPa) = 102.22284 63.56291 27.18604
#
# Poissons Ratio (x) = 0.26225 0.18042
# Poissons Ratio (y) = 0.42175 0.07286
# Poissons Ratio (z) = 0.67842 0.17036
#
# Static dielectric constant tensor:
#      x y z
#    x 1.671460 0.000000 0.000000 
#    y 0.000000 1.674250 0.000000 
#    z 0.000000 0.000000 1.659620 
# 
# From -- ./inp_files/64734.got.cif
#   From: 2010.05.17/outbox.cif.g08.bks.cpg/sg70_33_cif.got.tgz:64734.got - 2010.06.03 15:57:51.
