data_PCOD9515787
_publ_section_title
;
Structure prediction by ZEFSAII (Michael W. Deem and Ramdas Pophale) SiO2 
 PCOD9515787
Probable space group: F D D D
;
_chemical_formula_sum "Si O2"
_cell_formula_units_Z 168
_cell_length_a 18.091648
_cell_length_b 22.310929
_cell_length_c 22.310927
_cell_angle_alpha 90.000000
_cell_angle_beta 90.000000
_cell_angle_gamma 90.000000
_cell_volume 9005.615461
_symmetry_space_group_name_H-M "F D D D"
_symmetry_group_IT_number 70
_space_group.IT_coordinate_system_code '2'
_symmetry_cell_setting 'orthorhombic'
loop_
_space_group_symop_operation_xyz
x,y,z
1/4-x,1/4-y,z
x,1/4-y,1/4-z
1/4-x,y,1/4-z
-x,-y,-z
3/4+x,3/4+y,-z
-x,3/4+y,3/4+z
3/4+x,-y,3/4+z
x,1/2+y,1/2+z
1/4-x,3/4-y,1/2+z
x,3/4-y,3/4-z
1/4-x,1/2+y,3/4-z
-x,1/2-y,1/2-z
3/4+x,1/4+y,1/2-z
-x,1/4+y,1/4+z
3/4+x,1/2-y,1/4+z
1/2+x,y,1/2+z
3/4-x,1/4-y,1/2+z
1/2+x,1/4-y,3/4-z
3/4-x,y,3/4-z
1/2-x,-y,1/2-z
1/4+x,3/4+y,1/2-z
1/2-x,3/4+y,1/4+z
1/4+x,-y,1/4+z
1/2+x,1/2+y,z
3/4-x,3/4-y,z
1/2+x,3/4-y,1/4-z
3/4-x,1/2+y,1/4-z
1/2-x,1/2-y,-z
1/4+x,1/4+y,-z
1/2-x,1/4+y,3/4+z
1/4+x,1/2-y,3/4+z
loop_
_atom_site_type_symbol
_atom_site_label
_atom_site_fract_x
_atom_site_fract_y
_atom_site_fract_z
Si Si1 0.115257 0.887652 0.035102
Si Si2 0.375000 0.875000 0.375000
Si Si3 0.000000 0.889282 0.610718
Si Si4 0.384743 0.464898 0.112348
Si Si5 0.609879 0.221210 0.528790
Si Si6 0.956786 0.077025 0.172975
O O1 0.195412 0.863572 0.054548
O O2 0.054101 0.864654 0.082134
O O3 0.119740 0.959721 0.040463
O O4 0.090884 0.863702 0.970886
O O5 0.350741 0.824214 0.425786
O O6 0.945412 0.945452 0.613571
O O7 0.945899 0.832134 0.614654
O O8 0.409115 0.529114 0.136298
O O9 0.380260 0.459536 0.040279
O O10 0.523875 0.206752 0.543248
O O11 0.987127 0.125000 0.125000
#
# Coordination Sequence:
#
# PCOD9515787 Si02
#       6
#    32   8  32  32  32  32
#     4  11  23  40  65  91 131 169 222 271 330 394
#     4  12  24  36  60  92 136 172 216 262 336 392
#     4  10  22  40  62  94 120 170 220 271 330 393
#     4  11  23  40  65  91 131 169 222 271 330 394
#     4  12  24  39  60  99 132 170 217 272 333 405
#     4  12  24  41  62  97 135 173 215 269 327 398
#
# _framework density 18.655027
#
# number of rings (size 3 to 8) (size 9 to 14) (size 15 to 20)
#    0.000    0.762    6.667    2.286    0.000    1.524 
#    0.000    0.000    0.000    0.000    0.000    0.000 
#    0.000    0.000    0.000    0.000    0.000    0.000 
#
# Total GULP energy -234455.394230 kJ/mol
# GULP energy per Si atom -5582.271291 kJ/mol
# Density = 1.861257 g / cm^3
# Si number density = 18.655027 Si / 1000 Ang^3
#
#
#
# Elastic Constant Matrix: (Units=GPa)
#
#
# Indices 1 2 3 4 5 6 
#
# 1 123.3872 54.7350 54.7351 0.0000 0.0000 0.0000
# 2 54.7350 126.2849 54.3970 0.0000 0.0000 0.0000
# 3 54.7351 54.3970 126.2847 0.0000 0.0000 0.0000
# 4 0.0000 0.0000 0.0000 36.2950 0.0000 0.0000
# 5 0.0000 0.0000 0.0000 0.0000 33.6019 0.0000
# 6 0.0000 0.0000 0.0000 0.0000 0.0000 33.6019
#
#
#
# Elastic Compliance Matrix: (Units=1/GPa)
#
#
# Indices 1 2 3 4 5 6 
#
# 1 0.011083 -0.003358 -0.003358 0.000000 0.000000 0.000000
# 2 -0.003358 0.010740 -0.003171 0.000000 0.000000 0.000000
# 3 -0.003358 -0.003171 0.010740 0.000000 0.000000 0.000000
# 4 0.000000 0.000000 0.000000 0.027552 0.000000 0.000000
# 5 0.000000 0.000000 0.000000 0.000000 0.029760 0.000000
# 6 0.000000 0.000000 0.000000 0.000000 0.000000 0.029760
#
#
# Mechanical properties :
#
#
# Convention : Reuss Voigt Hill
#
# Bulk Modulus (GPa) = 78.18090 78.18789 78.18440
# Shear Modulus (GPa) = 34.80176 34.83908 34.82042
#
# Velocity S-wave (km/s) = 4.32388 4.32620 4.32504
# Velocity P-wave (km/s) = 8.18093 8.18279 8.18186
#
# Compressibility (1/GPa) = 0.01279085
#
# Stress axis : x y z
#
# Youngs Moduli (GPa) = 90.22480 93.11245 93.11228
#
# Poissons Ratio (x) = 0.31263 0.31263
# Poissons Ratio (y) = 0.30294 0.29525
# Poissons Ratio (z) = 0.30294 0.29525
#
# Static dielectric constant tensor:
#      x y z
#    x 1.466620 0.000000 0.000000 
#    y 0.000000 1.634480 0.000000 
#    z 0.000000 0.000000 1.634480 
# 
# From -- ./inp_files/37489.got.cif
#   From: 2010.05.17/outbox.cif.g08.bks.cpg/sg70_19_cif.got.tgz:37489.got - 2010.06.03 15:57:51.
