data_PCOD9515406
_publ_section_title
;
Structure prediction by ZEFSAII (Michael W. Deem and Ramdas Pophale) SiO2 
 PCOD9515406
Probable space group: F D D D
;
_chemical_formula_sum "Si O2"
_cell_formula_units_Z 136
_cell_length_a 18.290513
_cell_length_b 30.957268
_cell_length_c 10.994423
_cell_angle_alpha 90.000000
_cell_angle_beta 90.000000
_cell_angle_gamma 90.000000
_cell_volume 6225.309608
_symmetry_space_group_name_H-M "F D D D"
_symmetry_group_IT_number 70
_space_group.IT_coordinate_system_code '2'
_symmetry_cell_setting 'orthorhombic'
loop_
_space_group_symop_operation_xyz
x,y,z
1/4-x,1/4-y,z
x,1/4-y,1/4-z
1/4-x,y,1/4-z
-x,-y,-z
3/4+x,3/4+y,-z
-x,3/4+y,3/4+z
3/4+x,-y,3/4+z
x,1/2+y,1/2+z
1/4-x,3/4-y,1/2+z
x,3/4-y,3/4-z
1/4-x,1/2+y,3/4-z
-x,1/2-y,1/2-z
3/4+x,1/4+y,1/2-z
-x,1/4+y,1/4+z
3/4+x,1/2-y,1/4+z
1/2+x,y,1/2+z
3/4-x,1/4-y,1/2+z
1/2+x,1/4-y,3/4-z
3/4-x,y,3/4-z
1/2-x,-y,1/2-z
1/4+x,3/4+y,1/2-z
1/2-x,3/4+y,1/4+z
1/4+x,-y,1/4+z
1/2+x,1/2+y,z
3/4-x,3/4-y,z
1/2+x,3/4-y,1/4-z
3/4-x,1/2+y,1/4-z
1/2-x,1/2-y,-z
1/4+x,1/4+y,-z
1/2-x,1/4+y,3/4+z
1/4+x,1/2-y,3/4+z
loop_
_atom_site_type_symbol
_atom_site_label
_atom_site_fract_x
_atom_site_fract_y
_atom_site_fract_z
Si Si1 0.125000 0.125000 0.125000
Si Si2 0.875000 0.450949 0.875000
Si Si3 0.104854 0.261269 0.390430
Si Si4 0.055785 0.324581 0.708523
Si Si5 0.706456 0.704924 0.242540
Si Si6 0.738243 0.125000 0.125000
O O1 0.175145 0.158300 0.202100
O O2 0.888349 0.479511 0.757037
O O3 0.808382 0.418022 0.862786
O O4 0.163164 0.298614 0.425118
O O5 0.137529 0.236265 0.273357
O O6 0.020846 0.278485 0.400799
O O7 0.125000 0.328805 0.625000
O O8 0.997192 0.300737 0.623240
O O9 0.032648 0.371877 0.751861
#
# Coordination Sequence:
#
# PCOD9515406 Si02
#       6
#     8  16  32  32  32  16
#     4  12  32  46  64  92 150 180 204 272 356 410
#     4  11  20  34  66 102 121 164 225 288 330 394
#     4  11  21  42  73  97 129 173 232 281 334 397
#     4  10  21  38  66  97 134 174 217 286 333 400
#     4  11  24  45  68  96 133 180 225 280 338 409
#     4  11  22  31  60 103 130 165 220 278 350 389
#
# _framework density 21.846302999999999
#
# number of rings (size 3 to 8) (size 9 to 14) (size 15 to 20)
#    0.000    1.176    5.882    2.118    3.294    4.706 
#    0.000    0.000   10.353    0.000    0.000    0.000 
#    0.000    0.000    0.000    0.000    0.000    0.000 
#
# Total GULP energy -189525.339784 kJ/mol
# GULP energy per Si atom -5574.274700 kJ/mol
# Density = 2.179658 g / cm^3
# Si number density = 21.846303 Si / 1000 Ang^3
#
#
#
# Elastic Constant Matrix: (Units=GPa)
#
#
# Indices 1 2 3 4 5 6 
#
# 1 129.4828 64.0142 34.9956 0.0000 0.0000 0.0000
# 2 64.0142 90.2881 28.8727 0.0000 0.0000 0.0000
# 3 34.9956 28.8727 40.7152 0.0000 0.0000 0.0000
# 4 0.0000 0.0000 0.0000 45.7159 0.0000 0.0000
# 5 0.0000 0.0000 0.0000 0.0000 59.3086 0.0000
# 6 0.0000 0.0000 0.0000 0.0000 0.0000 13.2418
#
#
#
# Elastic Compliance Matrix: (Units=1/GPa)
#
#
# Indices 1 2 3 4 5 6 
#
# 1 0.012921 -0.007254 -0.005961 0.000000 0.000000 0.000000
# 2 -0.007254 0.018397 -0.006811 0.000000 0.000000 0.000000
# 3 -0.005961 -0.006811 0.034514 0.000000 0.000000 0.000000
# 4 0.000000 0.000000 0.000000 0.021874 0.000000 0.000000
# 5 0.000000 0.000000 0.000000 0.000000 0.016861 0.000000
# 6 0.000000 0.000000 0.000000 0.000000 0.000000 0.075519
#
#
# Mechanical properties :
#
#
# Convention : Reuss Voigt Hill
#
# Bulk Modulus (GPa) = 38.79065 57.36124 48.07594
# Shear Modulus (GPa) = 21.85968 32.49348 27.17658
#
# Velocity S-wave (km/s) = 3.16668 3.86082 3.53085
# Velocity P-wave (km/s) = 5.58258 6.79620 6.21906
#
# Compressibility (1/GPa) = 0.02577941
#
# Stress axis : x y z
#
# Youngs Moduli (GPa) = 77.39553 54.35668 28.97344
#
# Poissons Ratio (x) = 0.39433 0.17272
# Poissons Ratio (y) = 0.56146 0.19733
# Poissons Ratio (z) = 0.46137 0.37021
#
# Static dielectric constant tensor:
#      x y z
#    x 1.987810 0.000000 0.000000 
#    y 0.000000 1.816200 0.000000 
#    z 0.000000 0.000000 2.162000 
# 
# From -- ./inp_files/17720.got.cif
#   From: 2010.05.17/outbox.cif.g08.bks.cpg/sg70_9_cif.got.tgz:17720.got - 2010.06.03 15:57:51.
