data_PCOD9515214
_publ_section_title
;
Structure prediction by ZEFSAII (Michael W. Deem and Ramdas Pophale) SiO2 
 PCOD9515214
Probable space group: F D D D
;
_chemical_formula_sum "Si O2"
_cell_formula_units_Z 168
_cell_length_a 25.889966
_cell_length_b 15.269739
_cell_length_c 19.658450
_cell_angle_alpha 90.000000
_cell_angle_beta 90.000000
_cell_angle_gamma 90.000000
_cell_volume 7771.634477
_symmetry_space_group_name_H-M "F D D D"
_symmetry_group_IT_number 70
_space_group.IT_coordinate_system_code '2'
_symmetry_cell_setting 'orthorhombic'
loop_
_space_group_symop_operation_xyz
x,y,z
1/4-x,1/4-y,z
x,1/4-y,1/4-z
1/4-x,y,1/4-z
-x,-y,-z
3/4+x,3/4+y,-z
-x,3/4+y,3/4+z
3/4+x,-y,3/4+z
x,1/2+y,1/2+z
1/4-x,3/4-y,1/2+z
x,3/4-y,3/4-z
1/4-x,1/2+y,3/4-z
-x,1/2-y,1/2-z
3/4+x,1/4+y,1/2-z
-x,1/4+y,1/4+z
3/4+x,1/2-y,1/4+z
1/2+x,y,1/2+z
3/4-x,1/4-y,1/2+z
1/2+x,1/4-y,3/4-z
3/4-x,y,3/4-z
1/2-x,-y,1/2-z
1/4+x,3/4+y,1/2-z
1/2-x,3/4+y,1/4+z
1/4+x,-y,1/4+z
1/2+x,1/2+y,z
3/4-x,3/4-y,z
1/2+x,3/4-y,1/4-z
3/4-x,1/2+y,1/4-z
1/2-x,1/2-y,-z
1/4+x,1/4+y,-z
1/2-x,1/4+y,3/4+z
1/4+x,1/2-y,3/4+z
loop_
_atom_site_type_symbol
_atom_site_label
_atom_site_fract_x
_atom_site_fract_y
_atom_site_fract_z
Si Si1 0.083974 0.995913 0.238249
Si Si2 0.553231 0.976302 0.885722
Si Si3 0.334638 0.624501 0.438355
Si Si4 0.100899 0.034322 0.778744
Si Si5 0.750155 0.357700 0.660058
Si Si6 0.875000 0.375000 0.375000
O O1 0.069590 0.022474 0.314292
O O2 0.137884 0.943040 0.238204
O O3 0.038357 0.930304 0.216310
O O4 0.091237 0.066340 0.177459
O O5 0.539597 0.875000 0.875000
O O6 0.603130 0.983638 0.933543
O O7 0.508941 0.038204 0.916034
O O8 0.375000 0.618470 0.375000
O O9 0.329221 0.530284 0.472049
O O10 0.280403 0.657714 0.409831
O O11 0.125000 0.125000 0.751603
O O12 0.055040 0.061883 0.829540
#
# Coordination Sequence:
#
# PCOD9515214 Si02
#       6
#    32  32  32  32  32   8
#     4  11  23  44  66  96 130 175 220 272 337 395
#     4  11  23  42  68  94 134 178 215 275 334 391
#     4  10  20  43  63  91 135 165 217 272 320 400
#     4  10  22  41  62  95 133 172 218 270 328 392
#     4  10  22  42  65  97 129 168 222 274 320 401
#     4  12  24  44  72  88 142 176 214 276 340 392
#
# _framework density 21.617075
#
# number of rings (size 3 to 8) (size 9 to 14) (size 15 to 20)
#    0.000    1.524    4.762    1.143    4.000    1.143 
#   12.000    1.905    0.000    0.000    0.000    0.000 
#    0.000    0.000    0.000    0.000    0.000    0.000 
#
# Total GULP energy -234492.405912 kJ/mol
# GULP energy per Si atom -5583.152522 kJ/mol
# Density = 2.156787 g / cm^3
# Si number density = 21.617075 Si / 1000 Ang^3
#
#
#
# Elastic Constant Matrix: (Units=GPa)
#
#
# Indices 1 2 3 4 5 6 
#
# 1 62.7071 16.6637 -14.0392 0.0000 0.0000 0.0000
# 2 16.6637 91.3282 11.3876 0.0000 0.0000 0.0000
# 3 -14.0392 11.3876 62.8121 0.0000 0.0000 0.0000
# 4 0.0000 0.0000 0.0000 36.2532 0.0000 0.0000
# 5 0.0000 0.0000 0.0000 0.0000 11.2390 0.0000
# 6 0.0000 0.0000 0.0000 0.0000 0.0000 20.5536
#
#
#
# Elastic Compliance Matrix: (Units=1/GPa)
#
#
# Indices 1 2 3 4 5 6 
#
# 1 0.018039 -0.003882 0.004736 0.000000 0.000000 0.000000
# 2 -0.003882 0.012038 -0.003050 0.000000 0.000000 0.000000
# 3 0.004736 -0.003050 0.017532 0.000000 0.000000 0.000000
# 4 0.000000 0.000000 0.000000 0.027584 0.000000 0.000000
# 5 0.000000 0.000000 0.000000 0.000000 0.088976 0.000000
# 6 0.000000 0.000000 0.000000 0.000000 0.000000 0.048653
#
#
# Mechanical properties :
#
#
# Convention : Reuss Voigt Hill
#
# Bulk Modulus (GPa) = 23.13934 27.20796 25.17365
# Shear Modulus (GPa) = 21.58705 27.13150 24.35927
#
# Velocity S-wave (km/s) = 3.16351 3.54658 3.36051
# Velocity P-wave (km/s) = 4.90624 5.42076 5.16990
#
# Compressibility (1/GPa) = 0.04321644
#
# Stress axis : x y z
#
# Youngs Moduli (GPa) = 55.43556 83.06948 57.03873
#
# Poissons Ratio (x) = 0.32246 -0.27012
# Poissons Ratio (y) = 0.21519 0.17397
# Poissons Ratio (z) = -0.26252 0.25337
#
# Static dielectric constant tensor:
#      x y z
#    x 1.777000 0.000000 0.000000 
#    y 0.000000 1.820530 0.000000 
#    z 0.000000 0.000000 1.787350 
# 
# From -- ./inp_files/46784.got.cif
#   From: 2010.05.17/outbox.cif.g08.bks.cpg/sg70_24_cif.got.tgz:46784.got - 2010.06.03 15:57:51.
