data_PCOD9515226
_publ_section_title
;
Structure prediction by ZEFSAII (Michael W. Deem and Ramdas Pophale) SiO2 
 PCOD9515226
Probable space group: F D D D
;
_chemical_formula_sum "Si O2"
_cell_formula_units_Z 72
_cell_length_a 13.761606
_cell_length_b 33.522325
_cell_length_c 6.962498
_cell_angle_alpha 90.000000
_cell_angle_beta 90.000000
_cell_angle_gamma 90.000000
_cell_volume 3211.946741
_symmetry_space_group_name_H-M "F D D D"
_symmetry_group_IT_number 70
_space_group.IT_coordinate_system_code '2'
_symmetry_cell_setting 'orthorhombic'
loop_
_space_group_symop_operation_xyz
x,y,z
1/4-x,1/4-y,z
x,1/4-y,1/4-z
1/4-x,y,1/4-z
-x,-y,-z
3/4+x,3/4+y,-z
-x,3/4+y,3/4+z
3/4+x,-y,3/4+z
x,1/2+y,1/2+z
1/4-x,3/4-y,1/2+z
x,3/4-y,3/4-z
1/4-x,1/2+y,3/4-z
-x,1/2-y,1/2-z
3/4+x,1/4+y,1/2-z
-x,1/4+y,1/4+z
3/4+x,1/2-y,1/4+z
1/2+x,y,1/2+z
3/4-x,1/4-y,1/2+z
1/2+x,1/4-y,3/4-z
3/4-x,y,3/4-z
1/2-x,-y,1/2-z
1/4+x,3/4+y,1/2-z
1/2-x,3/4+y,1/4+z
1/4+x,-y,1/4+z
1/2+x,1/2+y,z
3/4-x,3/4-y,z
1/2+x,3/4-y,1/4-z
3/4-x,1/2+y,1/4-z
1/2-x,1/2-y,-z
1/4+x,1/4+y,-z
1/2-x,1/4+y,3/4+z
1/4+x,1/2-y,3/4+z
loop_
_atom_site_type_symbol
_atom_site_label
_atom_site_fract_x
_atom_site_fract_y
_atom_site_fract_z
Si Si1 0.389454 0.525101 0.598911
Si Si2 0.460463 0.446791 0.105093
Si Si3 0.625000 0.625000 0.125000
O O1 0.375000 0.532104 0.375000
O O2 0.483420 0.546165 0.692262
O O3 0.294679 0.540295 0.708593
O O4 0.380287 0.477522 0.641772
O O5 0.430663 0.404141 0.023519
#
# Coordination Sequence:
#
# PCOD9515226 Si02
#       3
#    32  32   8
#     4  10  20  43  71  97 121 177 228 277 321 397
#     4  10  22  39  68  94 135 169 223 273 327 397
#     4  12  24  44  58 100 148 180 216 270 344 404
#
# _framework density 22.416312000000001
#
# number of rings (size 3 to 8) (size 9 to 14) (size 15 to 20)
#    0.000    1.778    0.000    6.667    0.000    0.000 
#    8.000    7.778    0.000    0.000    0.000    0.000 
#    0.000    0.000    0.000    0.000    0.000    0.000 
#
# Total GULP energy -100465.993179 kJ/mol
# GULP energy per Si atom -5581.444065 kJ/mol
# Density = 2.236529 g / cm^3
# Si number density = 22.416312 Si / 1000 Ang^3
#
#
#
# Elastic Constant Matrix: (Units=GPa)
#
#
# Indices 1 2 3 4 5 6 
#
# 1 93.6826 67.1149 63.2600 0.0000 0.0000 0.0000
# 2 67.1149 160.9475 69.0024 0.0000 0.0000 0.0000
# 3 63.2600 69.0024 199.1987 0.0000 0.0000 0.0000
# 4 0.0000 0.0000 0.0000 -15.0164 0.0000 0.0000
# 5 0.0000 0.0000 0.0000 0.0000 44.3757 0.0000
# 6 0.0000 0.0000 0.0000 0.0000 0.0000 37.8616
#
#
#
# Elastic Compliance Matrix: (Units=1/GPa)
#
#
# Indices 1 2 3 4 5 6 
#
# 1 0.017040 -0.005620 -0.003465 0.000000 0.000000 0.000000
# 2 -0.005620 0.009151 -0.001385 0.000000 0.000000 0.000000
# 3 -0.003465 -0.001385 0.006600 0.000000 0.000000 0.000000
# 4 0.000000 0.000000 0.000000 -0.066594 0.000000 0.000000
# 5 0.000000 0.000000 0.000000 0.000000 0.022535 0.000000
# 6 0.000000 0.000000 0.000000 0.000000 0.000000 0.026412
#
#
# Mechanical properties :
#
#
# Convention : Reuss Voigt Hill
#
# Bulk Modulus (GPa) = 84.37944 94.73147 89.55546
# Shear Modulus (GPa) = 124.89252 30.40763 77.65007
#
# Velocity S-wave (km/s) = 7.47235 3.68706 5.89196
# Velocity P-wave (km/s) = 10.59111 7.77674 9.29111
#
# Compressibility (1/GPa) = 0.01185123
#
# Stress axis : x y z
#
# Youngs Moduli (GPa) = 58.68411 109.28172 151.51261
#
# Poissons Ratio (x) = 0.61421 0.52494
# Poissons Ratio (y) = 0.32983 0.20983
# Poissons Ratio (z) = 0.20332 0.15134
#
# Static dielectric constant tensor:
#      x y z
#    x 1.862830 0.000000 0.000000 
#    y 0.000000 1.853330 0.000000 
#    z 0.000000 0.000000 1.892360 
# 
# From -- ./inp_files/5933.got.cif
#   From: 2010.05.17/outbox.cif.g08.bks.cpg/sg70_3_cif.got.tgz:5933.got - 2010.06.03 15:57:51.
