data_PCOD9515885
_publ_section_title
;
Structure prediction by ZEFSAII (Michael W. Deem and Ramdas Pophale) SiO2 
 PCOD9515885
Probable space group: F D D D
;
_chemical_formula_sum "Si O2"
_cell_formula_units_Z 160
_cell_length_a 13.556779
_cell_length_b 20.866769
_cell_length_c 23.889302
_cell_angle_alpha 90.000000
_cell_angle_beta 90.000000
_cell_angle_gamma 90.000000
_cell_volume 6757.953285
_symmetry_space_group_name_H-M "F D D D"
_symmetry_group_IT_number 70
_space_group.IT_coordinate_system_code '2'
_symmetry_cell_setting 'orthorhombic'
loop_
_space_group_symop_operation_xyz
x,y,z
1/4-x,1/4-y,z
x,1/4-y,1/4-z
1/4-x,y,1/4-z
-x,-y,-z
3/4+x,3/4+y,-z
-x,3/4+y,3/4+z
3/4+x,-y,3/4+z
x,1/2+y,1/2+z
1/4-x,3/4-y,1/2+z
x,3/4-y,3/4-z
1/4-x,1/2+y,3/4-z
-x,1/2-y,1/2-z
3/4+x,1/4+y,1/2-z
-x,1/4+y,1/4+z
3/4+x,1/2-y,1/4+z
1/2+x,y,1/2+z
3/4-x,1/4-y,1/2+z
1/2+x,1/4-y,3/4-z
3/4-x,y,3/4-z
1/2-x,-y,1/2-z
1/4+x,3/4+y,1/2-z
1/2-x,3/4+y,1/4+z
1/4+x,-y,1/4+z
1/2+x,1/2+y,z
3/4-x,3/4-y,z
1/2+x,3/4-y,1/4-z
3/4-x,1/2+y,1/4-z
1/2-x,1/2-y,-z
1/4+x,1/4+y,-z
1/2-x,1/4+y,3/4+z
1/4+x,1/2-y,3/4+z
loop_
_atom_site_type_symbol
_atom_site_label
_atom_site_fract_x
_atom_site_fract_y
_atom_site_fract_z
Si Si1 0.878045 0.998765 0.813709
Si Si2 0.989771 0.856775 0.528406
Si Si3 0.327261 0.940268 0.199009
Si Si4 0.808787 0.737885 0.443353
Si Si5 0.765909 0.711343 0.669913
O O1 0.875000 0.969879 0.875000
O O2 0.788781 0.050626 0.808149
O O3 0.977874 0.039170 0.804791
O O4 0.856798 0.949540 0.764100
O O5 0.875000 0.875000 0.527642
O O6 0.023584 0.848399 0.462874
O O7 0.040392 0.912599 0.564832
O O8 0.375000 0.875000 0.177377
O O9 0.382485 0.000441 0.171298
O O10 0.750000 0.750000 0.500000
O O11 0.769404 0.784769 0.394353
O O12 0.924839 0.749942 0.448127
#
# Coordination Sequence:
#
# PCOD9515885 Si02
#       5
#    32  32  32  32  32
#     4  10  24  39  62  98 123 165 226 265 324 402
#     4  11  23  41  64  94 132 171 213 274 334 391
#     4  10  22  42  63  89 130 167 212 273 325 388
#     4  11  23  40  63  97 128 171 219 266 331 408
#     4  10  24  41  63  97 131 169 223 269 333 401
#
# _framework density 23.675808
#
# number of rings (size 3 to 8) (size 9 to 14) (size 15 to 20)
#    0.000    1.600    2.000    1.200    8.400    1.200 
#    0.000    0.000    0.000    9.600    0.000    0.000 
#    0.000    0.000    0.000    0.000    0.000    0.000 
#
# Total GULP energy -223288.799983 kJ/mol
# GULP energy per Si atom -5582.220000 kJ/mol
# Density = 2.362192 g / cm^3
# Si number density = 23.675808 Si / 1000 Ang^3
#
#
#
# Elastic Constant Matrix: (Units=GPa)
#
#
# Indices 1 2 3 4 5 6 
#
# 1 85.4167 11.0307 -1.9594 0.0000 0.0000 0.0000
# 2 11.0307 38.0395 -7.0568 0.0000 0.0000 0.0000
# 3 -1.9594 -7.0568 109.1809 0.0000 0.0000 0.0000
# 4 0.0000 0.0000 0.0000 4.7499 0.0000 0.0000
# 5 0.0000 0.0000 0.0000 0.0000 32.8392 0.0000
# 6 0.0000 0.0000 0.0000 0.0000 0.0000 20.6039
#
#
#
# Elastic Compliance Matrix: (Units=1/GPa)
#
#
# Indices 1 2 3 4 5 6 
#
# 1 0.012163 -0.003529 -0.000010 0.000000 0.000000 0.000000
# 2 -0.003529 0.027631 0.001723 0.000000 0.000000 0.000000
# 3 -0.000010 0.001723 0.009270 0.000000 0.000000 0.000000
# 4 0.000000 0.000000 0.000000 0.210531 0.000000 0.000000
# 5 0.000000 0.000000 0.000000 0.000000 0.030451 0.000000
# 6 0.000000 0.000000 0.000000 0.000000 0.000000 0.048534
#
#
# Mechanical properties :
#
#
# Convention : Reuss Voigt Hill
#
# Bulk Modulus (GPa) = 22.01074 26.29623 24.15348
# Shear Modulus (GPa) = 13.99161 27.01345 20.50253
#
# Velocity S-wave (km/s) = 2.43362 3.38149 2.94593
# Velocity P-wave (km/s) = 4.14892 5.13584 4.66854
#
# Compressibility (1/GPa) = 0.04543238
#
# Stress axis : x y z
#
# Youngs Moduli (GPa) = 82.21795 36.19088 107.87166
#
# Poissons Ratio (x) = 0.12771 0.00106
# Poissons Ratio (y) = 0.29013 -0.18582
# Poissons Ratio (z) = 0.00081 -0.06234
#
# Static dielectric constant tensor:
#      x y z
#    x 1.894290 0.000000 0.000000 
#    y 0.000000 1.938300 0.000000 
#    z 0.000000 0.000000 1.992390 
# 
# From -- ./inp_files/51140.got.cif
#   From: 2010.05.17/outbox.cif.g08.bks.cpg/sg70_26_cif.got.tgz:51140.got - 2010.06.03 15:57:51.
