data_PCOD9515448
_publ_section_title
;
Structure prediction by ZEFSAII (Michael W. Deem and Ramdas Pophale) SiO2 
 PCOD9515448
Probable space group: F D D D
;
_chemical_formula_sum "Si O2"
_cell_formula_units_Z 216
_cell_length_a 11.331962
_cell_length_b 31.779176
_cell_length_c 31.553103
_cell_angle_alpha 90.000000
_cell_angle_beta 90.000000
_cell_angle_gamma 90.000000
_cell_volume 11362.916541
_symmetry_space_group_name_H-M "F D D D"
_symmetry_group_IT_number 70
_space_group.IT_coordinate_system_code '2'
_symmetry_cell_setting 'orthorhombic'
loop_
_space_group_symop_operation_xyz
x,y,z
1/4-x,1/4-y,z
x,1/4-y,1/4-z
1/4-x,y,1/4-z
-x,-y,-z
3/4+x,3/4+y,-z
-x,3/4+y,3/4+z
3/4+x,-y,3/4+z
x,1/2+y,1/2+z
1/4-x,3/4-y,1/2+z
x,3/4-y,3/4-z
1/4-x,1/2+y,3/4-z
-x,1/2-y,1/2-z
3/4+x,1/4+y,1/2-z
-x,1/4+y,1/4+z
3/4+x,1/2-y,1/4+z
1/2+x,y,1/2+z
3/4-x,1/4-y,1/2+z
1/2+x,1/4-y,3/4-z
3/4-x,y,3/4-z
1/2-x,-y,1/2-z
1/4+x,3/4+y,1/2-z
1/2-x,3/4+y,1/4+z
1/4+x,-y,1/4+z
1/2+x,1/2+y,z
3/4-x,3/4-y,z
1/2+x,3/4-y,1/4-z
3/4-x,1/2+y,1/4-z
1/2-x,1/2-y,-z
1/4+x,1/4+y,-z
1/2-x,1/4+y,3/4+z
1/4+x,1/2-y,3/4+z
loop_
_atom_site_type_symbol
_atom_site_label
_atom_site_fract_x
_atom_site_fract_y
_atom_site_fract_z
Si Si1 0.258732 0.134008 0.535693
Si Si2 0.184361 0.430258 0.831185
Si Si3 0.625000 0.125000 0.625000
Si Si4 0.844245 0.800080 0.607834
Si Si5 0.499803 0.958724 0.901743
Si Si6 0.125000 0.357636 0.625000
Si Si7 0.294535 0.733993 0.417648
Si Si8 0.453038 0.086194 0.300853
O O1 0.351639 0.101717 0.555991
O O2 0.268193 0.181077 0.555374
O O3 0.271932 0.118543 0.487230
O O4 0.125000 0.125000 0.549152
O O5 0.294622 0.403890 0.846344
O O6 0.102862 0.443070 0.870699
O O7 0.238621 0.473521 0.813024
O O8 0.779841 0.757718 0.591585
O O9 0.742104 0.830256 0.623761
O O10 0.933988 0.790106 0.646304
O O11 0.923581 0.821091 0.571288
O O12 0.375000 0.954285 0.875000
O O13 0.130160 0.387289 0.584733
O O14 0.375000 0.743509 0.375000
O O15 0.372915 0.706580 0.450487
#
# Coordination Sequence:
#
# PCOD9515448 Si02
#       8
#    32  32   8  32  32  16  32  32
#     4  12  24  40  63  98 134 174 217 274 339 395
#     4  11  22  36  66  91 129 174 221 268 328 402
#     4  12  20  34  62 100 120 172 220 266 310 404
#     4  10  21  39  66  95 121 171 225 274 324 401
#     4  11  21  41  67  96 129 174 223 270 332 396
#     4  12  20  39  66  88 121 173 226 266 337 392
#     4   9  19  39  62  90 123 168 218 271 329 384
#     4  11  24  41  66  94 131 172 221 282 335 400
#
# _framework density 19.009205000000001
#
# number of rings (size 3 to 8) (size 9 to 14) (size 15 to 20)
#    0.000    1.185    6.667    1.333    0.000    0.593 
#    0.000    7.407    0.000    0.000    0.000    0.000 
#    0.000    0.000    0.000    0.000    0.000    0.000 
#
# Total GULP energy -300669.532281 kJ/mol
# GULP energy per Si atom -5567.954302 kJ/mol
# Density = 1.896594 g / cm^3
# Si number density = 19.009205 Si / 1000 Ang^3
#
#
#
# Elastic Constant Matrix: (Units=GPa)
#
#
# Indices 1 2 3 4 5 6 
#
# 1 131.0147 66.1293 31.9316 0.0000 0.0000 0.0000
# 2 66.1293 132.7285 48.9565 0.0000 0.0000 0.0000
# 3 31.9316 48.9565 53.6316 0.0000 0.0000 0.0000
# 4 0.0000 0.0000 0.0000 56.6697 0.0000 0.0000
# 5 0.0000 0.0000 0.0000 0.0000 23.1451 0.0000
# 6 0.0000 0.0000 0.0000 0.0000 0.0000 48.6059
#
#
#
# Elastic Compliance Matrix: (Units=1/GPa)
#
#
# Indices 1 2 3 4 5 6 
#
# 1 0.010366 -0.004354 -0.002197 0.000000 0.000000 0.000000
# 2 -0.004354 0.013188 -0.009445 0.000000 0.000000 0.000000
# 3 -0.002197 -0.009445 0.028576 0.000000 0.000000 0.000000
# 4 0.000000 0.000000 0.000000 0.017646 0.000000 0.000000
# 5 0.000000 0.000000 0.000000 0.000000 0.043206 0.000000
# 6 0.000000 0.000000 0.000000 0.000000 0.000000 0.020574
#
#
# Mechanical properties :
#
#
# Convention : Reuss Voigt Hill
#
# Bulk Modulus (GPa) = 49.66278 67.93439 58.79859
# Shear Modulus (GPa) = 29.02579 37.04129 33.03354
#
# Velocity S-wave (km/s) = 3.91184 4.41908 4.17317
# Velocity P-wave (km/s) = 6.82537 7.86466 7.36338
#
# Compressibility (1/GPa) = 0.02013580
#
# Stress axis : x y z
#
# Youngs Moduli (GPa) = 96.46892 75.82915 34.99448
#
# Poissons Ratio (x) = 0.33018 0.07689
# Poissons Ratio (y) = 0.42005 0.33054
# Poissons Ratio (z) = 0.21195 0.71624
#
# Static dielectric constant tensor:
#      x y z
#    x 1.656210 0.000000 0.000000 
#    y 0.000000 1.798890 0.000000 
#    z 0.000000 0.000000 1.679560 
# 
# From -- ./inp_files/65182.got.cif
#   From: 2010.05.17/outbox.cif.g08.bks.cpg/sg70_33_cif.got.tgz:65182.got - 2010.06.03 15:57:51.
