data_PCOD9515358
_publ_section_title
;
Structure prediction by ZEFSAII (Michael W. Deem and Ramdas Pophale) SiO2 
 PCOD9515358
Probable space group: F D D D
;
_chemical_formula_sum "Si O2"
_cell_formula_units_Z 128
_cell_length_a 17.093974
_cell_length_b 17.741720
_cell_length_c 17.893687
_cell_angle_alpha 90.000000
_cell_angle_beta 90.000000
_cell_angle_gamma 90.000000
_cell_volume 5426.734773
_symmetry_space_group_name_H-M "F D D D"
_symmetry_group_IT_number 70
_space_group.IT_coordinate_system_code '2'
_symmetry_cell_setting 'orthorhombic'
loop_
_space_group_symop_operation_xyz
x,y,z
1/4-x,1/4-y,z
x,1/4-y,1/4-z
1/4-x,y,1/4-z
-x,-y,-z
3/4+x,3/4+y,-z
-x,3/4+y,3/4+z
3/4+x,-y,3/4+z
x,1/2+y,1/2+z
1/4-x,3/4-y,1/2+z
x,3/4-y,3/4-z
1/4-x,1/2+y,3/4-z
-x,1/2-y,1/2-z
3/4+x,1/4+y,1/2-z
-x,1/4+y,1/4+z
3/4+x,1/2-y,1/4+z
1/2+x,y,1/2+z
3/4-x,1/4-y,1/2+z
1/2+x,1/4-y,3/4-z
3/4-x,y,3/4-z
1/2-x,-y,1/2-z
1/4+x,3/4+y,1/2-z
1/2-x,3/4+y,1/4+z
1/4+x,-y,1/4+z
1/2+x,1/2+y,z
3/4-x,3/4-y,z
1/2+x,3/4-y,1/4-z
3/4-x,1/2+y,1/4-z
1/2-x,1/2-y,-z
1/4+x,1/4+y,-z
1/2-x,1/4+y,3/4+z
1/4+x,1/2-y,3/4+z
loop_
_atom_site_type_symbol
_atom_site_label
_atom_site_fract_x
_atom_site_fract_y
_atom_site_fract_z
Si Si1 0.044503 0.666758 0.849226
Si Si2 0.687133 0.715634 0.063617
Si Si3 0.245578 0.375000 0.375000
Si Si4 0.660191 0.382675 0.030148
Si Si5 0.625000 0.998372 0.125000
O O1 0.125000 0.625000 0.871835
O O2 0.047268 0.662145 0.757416
O O3 0.018420 0.755816 0.851569
O O4 0.979806 0.635422 0.907369
O O5 0.625000 0.692575 0.125000
O O6 0.643929 0.793709 0.037192
O O7 0.195250 0.380588 0.448959
O O8 0.300673 0.447943 0.368501
O O9 0.617359 0.305564 0.052917
#
# Coordination Sequence:
#
# PCOD9515358 Si02
#       5
#    32  32  16  32  16
#     4  10  21  37  67  95 129 176 212 268 332 386
#     4   9  20  41  64  96 133 169 221 269 332 394
#     4  11  28  40  72  98 123 178 228 264 337 412
#     4  11  23  45  67  95 137 175 214 284 330 390
#     4  11  24  48  64  98 137 164 220 286 323 394
#
# _framework density 23.586926999999999
#
# number of rings (size 3 to 8) (size 9 to 14) (size 15 to 20)
#    0.000    1.750    3.750    0.750    7.000    2.500 
#    0.000    5.000    0.000    0.000    0.000    0.000 
#    0.000    0.000    0.000    0.000    0.000    0.000 
#
# Total GULP energy -178152.414527 kJ/mol
# GULP energy per Si atom -5567.262954 kJ/mol
# Density = 2.353324 g / cm^3
# Si number density = 23.586927 Si / 1000 Ang^3
#
#
#
# Elastic Constant Matrix: (Units=GPa)
#
#
# Indices 1 2 3 4 5 6 
#
# 1 120.8372 41.1152 57.4776 0.0000 0.0000 0.0000
# 2 41.1152 118.9290 45.2164 0.0000 0.0000 0.0000
# 3 57.4776 45.2164 166.7317 0.0000 0.0000 0.0000
# 4 0.0000 0.0000 0.0000 27.2741 0.0000 0.0000
# 5 0.0000 0.0000 0.0000 0.0000 38.0311 0.0000
# 6 0.0000 0.0000 0.0000 0.0000 0.0000 118.6396
#
#
#
# Elastic Compliance Matrix: (Units=1/GPa)
#
#
# Indices 1 2 3 4 5 6 
#
# 1 0.010536 -0.002521 -0.002948 0.000000 0.000000 0.000000
# 2 -0.002521 0.009978 -0.001837 0.000000 0.000000 0.000000
# 3 -0.002948 -0.001837 0.007512 0.000000 0.000000 0.000000
# 4 0.000000 0.000000 0.000000 0.036665 0.000000 0.000000
# 5 0.000000 0.000000 0.000000 0.000000 0.026294 0.000000
# 6 0.000000 0.000000 0.000000 0.000000 0.000000 0.008429
#
#
# Mechanical properties :
#
#
# Convention : Reuss Voigt Hill
#
# Bulk Modulus (GPa) = 74.55256 77.12403 75.83829
# Shear Modulus (GPa) = 42.19455 54.30154 48.24805
#
# Velocity S-wave (km/s) = 4.23412 4.80332 4.52767
# Velocity P-wave (km/s) = 7.45519 7.97065 7.71723
#
# Compressibility (1/GPa) = 0.01341336
#
# Stress axis : x y z
#
# Youngs Moduli (GPa) = 94.91353 100.21593 133.11758
#
# Poissons Ratio (x) = 0.25269 0.39246
# Poissons Ratio (y) = 0.23932 0.24452
# Poissons Ratio (z) = 0.27983 0.18408
#
# Static dielectric constant tensor:
#      x y z
#    x 1.968020 0.000000 0.000000 
#    y 0.000000 1.955950 0.000000 
#    z 0.000000 0.000000 1.897860 
# 
# From -- ./inp_files/42566.got.cif
#   From: 2010.05.17/outbox.cif.g08.bks.cpg/sg70_22_cif.got.tgz:42566.got - 2010.06.03 15:57:51.
