data_PCOD9515356
_publ_section_title
;
Structure prediction by ZEFSAII (Michael W. Deem and Ramdas Pophale) SiO2 
 PCOD9515356
Probable space group: F D D D
;
_chemical_formula_sum "Si O2"
_cell_formula_units_Z 192
_cell_length_a 20.830904
_cell_length_b 18.740193
_cell_length_c 23.406780
_cell_angle_alpha 90.000000
_cell_angle_beta 90.000000
_cell_angle_gamma 90.000000
_cell_volume 9137.425519
_symmetry_space_group_name_H-M "F D D D"
_symmetry_group_IT_number 70
_space_group.IT_coordinate_system_code '2'
_symmetry_cell_setting 'orthorhombic'
loop_
_space_group_symop_operation_xyz
x,y,z
1/4-x,1/4-y,z
x,1/4-y,1/4-z
1/4-x,y,1/4-z
-x,-y,-z
3/4+x,3/4+y,-z
-x,3/4+y,3/4+z
3/4+x,-y,3/4+z
x,1/2+y,1/2+z
1/4-x,3/4-y,1/2+z
x,3/4-y,3/4-z
1/4-x,1/2+y,3/4-z
-x,1/2-y,1/2-z
3/4+x,1/4+y,1/2-z
-x,1/4+y,1/4+z
3/4+x,1/2-y,1/4+z
1/2+x,y,1/2+z
3/4-x,1/4-y,1/2+z
1/2+x,1/4-y,3/4-z
3/4-x,y,3/4-z
1/2-x,-y,1/2-z
1/4+x,3/4+y,1/2-z
1/2-x,3/4+y,1/4+z
1/4+x,-y,1/4+z
1/2+x,1/2+y,z
3/4-x,3/4-y,z
1/2+x,3/4-y,1/4-z
3/4-x,1/2+y,1/4-z
1/2-x,1/2-y,-z
1/4+x,1/4+y,-z
1/2-x,1/4+y,3/4+z
1/4+x,1/2-y,3/4+z
loop_
_atom_site_type_symbol
_atom_site_label
_atom_site_fract_x
_atom_site_fract_y
_atom_site_fract_z
Si Si1 0.772190 0.125000 0.125000
Si Si2 0.359244 0.251172 0.653891
Si Si3 0.875000 0.375000 0.073556
Si Si4 0.619232 0.330292 0.057569
Si Si5 0.458984 0.180722 0.736177
Si Si6 0.504943 0.216862 0.495802
Si Si7 0.499424 0.125129 0.994207
O O1 0.815278 0.195649 0.120429
O O2 0.740192 0.122154 0.062635
O O3 0.392104 0.308706 0.613986
O O4 0.409801 0.203194 0.687508
O O5 0.310625 0.289792 0.698230
O O6 0.936012 0.397290 0.036737
O O7 0.625000 0.321822 0.125000
O O8 0.566335 0.276053 0.032334
O O9 0.583485 0.404355 0.040227
O O10 0.687731 0.329783 0.025974
O O11 0.500000 0.250000 0.750000
O O12 0.499102 0.108692 0.721744
O O13 0.516508 0.292915 0.524702
#
# Coordination Sequence:
#
# PCOD9515356 Si02
#       7
#    16  32  16  32  32  32  32
#     4  10  22  45  68  88 136 179 218 274 330 404
#     4  11  22  42  65  98 132 177 225 272 335 411
#     4  12  28  37  68  96 129 172 230 282 328 404
#     4  10  21  40  65  94 131 168 208 274 329 389
#     4  10  21  37  65  97 126 174 212 268 328 395
#     4   9  19  41  64  91 126 174 210 269 328 392
#     4  11  24  45  62 101 130 171 227 269 330 402
#
# _framework density 21.012483
#
# number of rings (size 3 to 8) (size 9 to 14) (size 15 to 20)
#    1.000    0.667    3.333    2.000    7.000    1.000 
#    6.000    0.000    0.000    1.000    0.000    0.000 
#    0.000    0.000    0.000    0.000    0.000    0.000 
#
# Total GULP energy -267593.482266 kJ/mol
# GULP energy per Si atom -5574.864214 kJ/mol
# Density = 2.096466 g / cm^3
# Si number density = 21.012483 Si / 1000 Ang^3
#
#
#
# Elastic Constant Matrix: (Units=GPa)
#
#
# Indices 1 2 3 4 5 6 
#
# 1 79.7321 5.0349 20.3470 0.0000 0.0000 0.0000
# 2 5.0349 72.3493 15.7546 0.0000 0.0000 0.0000
# 3 20.3470 15.7546 48.9679 0.0000 0.0000 0.0000
# 4 0.0000 0.0000 0.0000 12.7825 0.0000 0.0000
# 5 0.0000 0.0000 0.0000 0.0000 10.2025 0.0000
# 6 0.0000 0.0000 0.0000 0.0000 0.0000 28.4219
#
#
#
# Elastic Compliance Matrix: (Units=1/GPa)
#
#
# Indices 1 2 3 4 5 6 
#
# 1 0.014036 0.000315 -0.005934 0.000000 0.000000 0.000000
# 2 0.000315 0.014870 -0.004915 0.000000 0.000000 0.000000
# 3 -0.005934 -0.004915 0.024469 0.000000 0.000000 0.000000
# 4 0.000000 0.000000 0.000000 0.078232 0.000000 0.000000
# 5 0.000000 0.000000 0.000000 0.000000 0.098015 0.000000
# 6 0.000000 0.000000 0.000000 0.000000 0.000000 0.035184
#
#
# Mechanical properties :
#
#
# Convention : Reuss Voigt Hill
#
# Bulk Modulus (GPa) = 30.95243 31.48025 31.21634
# Shear Modulus (GPa) = 16.85531 20.94225 18.89878
#
# Velocity S-wave (km/s) = 2.83531 3.16041 3.00227
# Velocity P-wave (km/s) = 5.04788 5.32276 5.18714
#
# Compressibility (1/GPa) = 0.03230764
#
# Stress axis : x y z
#
# Youngs Moduli (GPa) = 71.24364 67.24846 40.86887
#
# Poissons Ratio (x) = -0.02120 0.24251
# Poissons Ratio (y) = -0.02246 0.20088
# Poissons Ratio (z) = 0.42274 0.33054
#
# Static dielectric constant tensor:
#      x y z
#    x 1.754110 0.000000 0.000000 
#    y 0.000000 1.790390 0.000000 
#    z 0.000000 0.000000 1.777400 
# 
# From -- ./inp_files/53030.got.cif
#   From: 2010.05.17/outbox.cif.g08.bks.cpg/sg70_27_cif.got.tgz:53030.got - 2010.06.03 15:57:51.
