data_PCOD9515124
_publ_section_title
;
Structure prediction by ZEFSAII (Michael W. Deem and Ramdas Pophale) SiO2 
 PCOD9515124
Probable space group: F D D D
;
_chemical_formula_sum "Si O2"
_cell_formula_units_Z 80
_cell_length_a 17.644482
_cell_length_b 32.925809
_cell_length_c 6.589848
_cell_angle_alpha 90.000000
_cell_angle_beta 90.000000
_cell_angle_gamma 90.000000
_cell_volume 3828.430478
_symmetry_space_group_name_H-M "F D D D"
_symmetry_group_IT_number 70
_space_group.IT_coordinate_system_code '2'
_symmetry_cell_setting 'orthorhombic'
loop_
_space_group_symop_operation_xyz
x,y,z
1/4-x,1/4-y,z
x,1/4-y,1/4-z
1/4-x,y,1/4-z
-x,-y,-z
3/4+x,3/4+y,-z
-x,3/4+y,3/4+z
3/4+x,-y,3/4+z
x,1/2+y,1/2+z
1/4-x,3/4-y,1/2+z
x,3/4-y,3/4-z
1/4-x,1/2+y,3/4-z
-x,1/2-y,1/2-z
3/4+x,1/4+y,1/2-z
-x,1/4+y,1/4+z
3/4+x,1/2-y,1/4+z
1/2+x,y,1/2+z
3/4-x,1/4-y,1/2+z
1/2+x,1/4-y,3/4-z
3/4-x,y,3/4-z
1/2-x,-y,1/2-z
1/4+x,3/4+y,1/2-z
1/2-x,3/4+y,1/4+z
1/4+x,-y,1/4+z
1/2+x,1/2+y,z
3/4-x,3/4-y,z
1/2+x,3/4-y,1/4-z
3/4-x,1/2+y,1/4-z
1/2-x,1/2-y,-z
1/4+x,1/4+y,-z
1/2-x,1/4+y,3/4+z
1/4+x,1/2-y,3/4+z
loop_
_atom_site_type_symbol
_atom_site_label
_atom_site_fract_x
_atom_site_fract_y
_atom_site_fract_z
Si Si1 0.851573 0.969630 0.143557
Si Si2 0.766875 0.422358 0.353261
Si Si3 0.375000 0.705073 0.375000
O O1 0.625000 0.027460 0.125000
O O2 0.778683 0.943494 0.073134
O O3 0.922269 0.946071 0.037195
O O4 0.841194 0.013548 0.041018
O O5 0.783318 0.375000 0.375000
O O6 0.687212 0.429489 0.244472
#
# Coordination Sequence:
#
# PCOD9515124 Si02
#       3
#    32  32  16
#     4  10  20  40  67  86 112 168 215 243 299 379
#     4  10  22  40  59  88 129 157 198 262 307 363
#     4  10  22  40  59  88 128 156 198 264 307 360
#
# _framework density 20.896291000000002
#
# number of rings (size 3 to 8) (size 9 to 14) (size 15 to 20)
#    0.000    2.400    0.000    7.200    0.000    9.600 
#   10.800    0.000    0.000    0.000    0.000    0.000 
#    0.000    0.000    0.000    0.000    0.000    0.000 
#
# Total GULP energy -111582.254906 kJ/mol
# GULP energy per Si atom -5579.112745 kJ/mol
# Density = 2.084873 g / cm^3
# Si number density = 20.896291 Si / 1000 Ang^3
#
#
#
# Elastic Constant Matrix: (Units=GPa)
#
#
# Indices 1 2 3 4 5 6 
#
# 1 88.3179 15.2145 17.7067 -0.0001 -0.0018 0.0001
# 2 15.2145 73.9021 26.0176 -0.0001 0.0000 0.0001
# 3 17.7067 26.0176 156.7125 -0.0006 -0.0016 -0.0001
# 4 -0.0001 -0.0001 -0.0006 8.7804 0.0002 0.0001
# 5 -0.0018 0.0000 -0.0016 0.0002 46.0396 0.0000
# 6 0.0001 0.0001 -0.0001 0.0001 0.0000 13.4091
#
#
#
# Elastic Compliance Matrix: (Units=1/GPa)
#
#
# Indices 1 2 3 4 5 6 
#
# 1 0.011883 -0.002096 -0.000995 0.000000 0.000000 0.000000
# 2 -0.002096 0.014741 -0.002210 0.000000 0.000000 0.000000
# 3 -0.000995 -0.002210 0.006860 0.000000 0.000000 0.000000
# 4 0.000000 0.000000 0.000000 0.113890 0.000000 -0.000001
# 5 0.000000 0.000000 0.000000 0.000000 0.021720 0.000000
# 6 0.000000 0.000000 0.000000 -0.000001 0.000000 0.074576
#
#
# Mechanical properties :
#
#
# Convention : Reuss Voigt Hill
#
# Bulk Modulus (GPa) = 43.70226 48.53446 46.11836
# Shear Modulus (GPa) = 19.09111 30.97874 25.03492
#
# Velocity S-wave (km/s) = 3.02588 3.85450 3.46505
# Velocity P-wave (km/s) = 5.75910 6.56402 6.17469
#
# Compressibility (1/GPa) = 0.02288211
#
# Stress axis : x y z
#
# Youngs Moduli (GPa) = 84.15184 67.83703 145.76234
#
# Poissons Ratio (x) = 0.14221 0.14498
# Poissons Ratio (y) = 0.17641 0.32221
# Poissons Ratio (z) = 0.08370 0.14995
#
# Static dielectric constant tensor:
#      x y z
#    x 1.820320 0.000000 0.000000 
#    y 0.000000 1.705160 0.000000 
#    z 0.000000 0.000000 1.799750 
# 
# From -- ./inp_files/13815.got.cif
#   From: 2010.05.17/outbox.cif.g08.bks.cpg/sg70_7_cif.got.tgz:13815.got - 2010.06.03 15:57:51.
