data_PCOD9515147
_publ_section_title
;
Structure prediction by ZEFSAII (Michael W. Deem and Ramdas Pophale) SiO2 
 PCOD9515147
Probable space group: F D D D
;
_chemical_formula_sum "Si O2"
_cell_formula_units_Z 80
_cell_length_a 7.087166
_cell_length_b 16.397953
_cell_length_c 33.247485
_cell_angle_alpha 90.000000
_cell_angle_beta 90.000000
_cell_angle_gamma 90.000000
_cell_volume 3863.856967
_symmetry_space_group_name_H-M "F D D D"
_symmetry_group_IT_number 70
_space_group.IT_coordinate_system_code '2'
_symmetry_cell_setting 'orthorhombic'
loop_
_space_group_symop_operation_xyz
x,y,z
1/4-x,1/4-y,z
x,1/4-y,1/4-z
1/4-x,y,1/4-z
-x,-y,-z
3/4+x,3/4+y,-z
-x,3/4+y,3/4+z
3/4+x,-y,3/4+z
x,1/2+y,1/2+z
1/4-x,3/4-y,1/2+z
x,3/4-y,3/4-z
1/4-x,1/2+y,3/4-z
-x,1/2-y,1/2-z
3/4+x,1/4+y,1/2-z
-x,1/4+y,1/4+z
3/4+x,1/2-y,1/4+z
1/2+x,y,1/2+z
3/4-x,1/4-y,1/2+z
1/2+x,1/4-y,3/4-z
3/4-x,y,3/4-z
1/2-x,-y,1/2-z
1/4+x,3/4+y,1/2-z
1/2-x,3/4+y,1/4+z
1/4+x,-y,1/4+z
1/2+x,1/2+y,z
3/4-x,3/4-y,z
1/2+x,3/4-y,1/4-z
3/4-x,1/2+y,1/4-z
1/2-x,1/2-y,-z
1/4+x,1/4+y,-z
1/2-x,1/4+y,3/4+z
1/4+x,1/2-y,3/4+z
loop_
_atom_site_type_symbol
_atom_site_label
_atom_site_fract_x
_atom_site_fract_y
_atom_site_fract_z
Si Si1 0.156182 0.721802 0.872115
Si Si2 0.375000 0.375000 0.739978
Si Si3 0.625417 0.260770 0.694235
O O1 0.125000 0.625000 0.865572
O O2 0.375000 0.741098 0.875000
O O3 0.050001 0.765022 0.834828
O O4 0.048724 0.737173 0.913809
O O5 0.553194 0.346130 0.713312
O O6 0.334658 0.299459 0.769221
#
# Coordination Sequence:
#
# PCOD9515147 Si02
#       3
#    32  16  32
#     4  11  19  37  62  85 113 165 202 234 289 364
#     4  10  20  41  60  90 122 154 190 260 300 349
#     4  10  21  38  63  85 122 154 201 244 300 353
#
# _framework density 20.704701
#
# number of rings (size 3 to 8) (size 9 to 14) (size 15 to 20)
#    0.000    1.600    6.000    0.000    0.000    3.200 
#    0.000   26.000    0.000    0.000    0.000    0.000 
#    0.000    0.000    0.000    0.000    0.000    0.000 
#
# Total GULP energy -111598.066429 kJ/mol
# GULP energy per Si atom -5579.903321 kJ/mol
# Density = 2.065758 g / cm^3
# Si number density = 20.704701 Si / 1000 Ang^3
#
#
#
# Elastic Constant Matrix: (Units=GPa)
#
#
# Indices 1 2 3 4 5 6 
#
# 1 180.4602 22.8522 76.6380 0.0000 0.0000 0.0000
# 2 22.8522 36.8895 23.9053 0.0000 0.0000 0.0000
# 3 76.6380 23.9053 141.0562 0.0000 0.0000 0.0000
# 4 0.0000 0.0000 0.0000 26.5118 0.0000 0.0000
# 5 0.0000 0.0000 0.0000 0.0000 11.4860 0.0000
# 6 0.0000 0.0000 0.0000 0.0000 0.0000 13.2195
#
#
#
# Elastic Compliance Matrix: (Units=1/GPa)
#
#
# Indices 1 2 3 4 5 6 
#
# 1 0.007361 -0.002211 -0.003624 0.000000 0.000000 0.000000
# 2 -0.002211 0.031117 -0.004072 0.000000 0.000000 0.000000
# 3 -0.003624 -0.004072 0.009749 0.000000 0.000000 0.000000
# 4 0.000000 0.000000 0.000000 0.037719 0.000000 0.000000
# 5 0.000000 0.000000 0.000000 0.000000 0.087063 0.000000
# 6 0.000000 0.000000 0.000000 0.000000 0.000000 0.075646
#
#
# Mechanical properties :
#
#
# Convention : Reuss Voigt Hill
#
# Bulk Modulus (GPa) = 35.19804 67.24408 51.22106
# Shear Modulus (GPa) = 17.98958 25.91083 21.95021
#
# Velocity S-wave (km/s) = 2.95085 3.54142 3.25954
# Velocity P-wave (km/s) = 5.35228 7.01929 6.24169
#
# Compressibility (1/GPa) = 0.02841067
#
# Stress axis : x y z
#
# Youngs Moduli (GPa) = 135.85862 32.13725 102.57791
#
# Poissons Ratio (x) = 0.07106 0.37178
# Poissons Ratio (y) = 0.30039 0.41771
# Poissons Ratio (z) = 0.49241 0.13087
#
# Static dielectric constant tensor:
#      x y z
#    x 1.740130 0.000000 0.000000 
#    y 0.000000 1.784390 0.000000 
#    z 0.000000 0.000000 1.772920 
# 
# From -- ./inp_files/11509.got.cif
#   From: 2010.05.17/outbox.cif.g08.bks.cpg/sg70_6_cif.got.tgz:11509.got - 2010.06.03 15:57:51.
