data_PCOD9515805
_publ_section_title
;
Structure prediction by ZEFSAII (Michael W. Deem and Ramdas Pophale) SiO2 
 PCOD9515805
Probable space group: F D D D
;
_chemical_formula_sum "Si O2"
_cell_formula_units_Z 144
_cell_length_a 30.599118
_cell_length_b 12.660832
_cell_length_c 16.460949
_cell_angle_alpha 90.000000
_cell_angle_beta 90.000000
_cell_angle_gamma 90.000000
_cell_volume 6377.141064
_symmetry_space_group_name_H-M "F D D D"
_symmetry_group_IT_number 70
_space_group.IT_coordinate_system_code '2'
_symmetry_cell_setting 'orthorhombic'
loop_
_space_group_symop_operation_xyz
x,y,z
1/4-x,1/4-y,z
x,1/4-y,1/4-z
1/4-x,y,1/4-z
-x,-y,-z
3/4+x,3/4+y,-z
-x,3/4+y,3/4+z
3/4+x,-y,3/4+z
x,1/2+y,1/2+z
1/4-x,3/4-y,1/2+z
x,3/4-y,3/4-z
1/4-x,1/2+y,3/4-z
-x,1/2-y,1/2-z
3/4+x,1/4+y,1/2-z
-x,1/4+y,1/4+z
3/4+x,1/2-y,1/4+z
1/2+x,y,1/2+z
3/4-x,1/4-y,1/2+z
1/2+x,1/4-y,3/4-z
3/4-x,y,3/4-z
1/2-x,-y,1/2-z
1/4+x,3/4+y,1/2-z
1/2-x,3/4+y,1/4+z
1/4+x,-y,1/4+z
1/2+x,1/2+y,z
3/4-x,3/4-y,z
1/2+x,3/4-y,1/4-z
3/4-x,1/2+y,1/4-z
1/2-x,1/2-y,-z
1/4+x,1/4+y,-z
1/2-x,1/4+y,3/4+z
1/4+x,1/2-y,3/4+z
loop_
_atom_site_type_symbol
_atom_site_label
_atom_site_fract_x
_atom_site_fract_y
_atom_site_fract_z
Si Si1 0.761188 0.625000 0.625000
Si Si2 0.213107 0.039106 0.380513
Si Si3 0.421190 0.993587 0.034752
Si Si4 0.848250 0.125000 0.625000
Si Si5 0.535595 0.423695 0.699525
Si Si6 0.375000 0.026464 0.875000
O O1 0.790842 0.668561 0.549770
O O2 0.733014 0.723499 0.652090
O O3 0.187920 0.140691 0.417780
O O4 0.254711 0.079519 0.331531
O O5 0.180828 0.964005 0.329203
O O6 0.221928 0.964121 0.458267
O O7 0.379935 0.049600 0.075191
O O8 0.403386 0.968901 0.945163
O O9 0.585976 0.411367 0.671537
#
# Coordination Sequence:
#
# PCOD9515805 Si02
#       6
#    16  32  32  16  32  16
#     4   9  20  39  62  93 134 173 208 273 344 403
#     4  11  24  43  65  99 134 184 224 281 343 412
#     4  10  22  40  65  97 131 169 219 278 340 397
#     4  11  22  42  66  94 128 180 230 270 336 413
#     4  11  23  39  65 100 137 174 226 282 344 408
#     4  12  22  37  64  99 130 162 221 280 332 399
#
# _framework density 22.580651
#
# number of rings (size 3 to 8) (size 9 to 14) (size 15 to 20)
#    0.000    1.333    2.222    3.333    0.000    7.556 
#    0.000    0.000    0.000    0.667    0.000    0.000 
#    0.000    0.000    0.000    0.000    0.000    0.000 
#
# Total GULP energy -200758.084973 kJ/mol
# GULP energy per Si atom -5576.613471 kJ/mol
# Density = 2.252926 g / cm^3
# Si number density = 22.580651 Si / 1000 Ang^3
#
#
#
# Elastic Constant Matrix: (Units=GPa)
#
#
# Indices 1 2 3 4 5 6 
#
# 1 144.1757 68.4500 46.6277 0.0000 0.0000 0.0000
# 2 68.4500 97.7738 42.6631 0.0000 0.0000 0.0000
# 3 46.6277 42.6631 92.0530 0.0000 0.0000 0.0000
# 4 0.0000 0.0000 0.0000 23.7723 0.0000 0.0000
# 5 0.0000 0.0000 0.0000 0.0000 28.8832 0.0000
# 6 0.0000 0.0000 0.0000 0.0000 0.0000 11.8261
#
#
#
# Elastic Compliance Matrix: (Units=1/GPa)
#
#
# Indices 1 2 3 4 5 6 
#
# 1 0.010819 -0.006497 -0.002469 0.000000 0.000000 0.000000
# 2 -0.006497 0.016722 -0.004459 0.000000 0.000000 0.000000
# 3 -0.002469 -0.004459 0.014181 0.000000 0.000000 0.000000
# 4 0.000000 0.000000 0.000000 0.042066 0.000000 0.000000
# 5 0.000000 0.000000 0.000000 0.000000 0.034622 0.000000
# 6 0.000000 0.000000 0.000000 0.000000 0.000000 0.084559
#
#
# Mechanical properties :
#
#
# Convention : Reuss Voigt Hill
#
# Bulk Modulus (GPa) = 67.24354 72.16489 69.70421
# Shear Modulus (GPa) = 21.29697 24.64709 22.97203
#
# Velocity S-wave (km/s) = 3.07441 3.30739 3.19303
# Velocity P-wave (km/s) = 6.51510 6.82739 6.67307
#
# Compressibility (1/GPa) = 0.01487132
#
# Stress axis : x y z
#
# Youngs Moduli (GPa) = 92.42988 59.80246 70.51892
#
# Poissons Ratio (x) = 0.38853 0.17412
# Poissons Ratio (y) = 0.60050 0.31445
# Poissons Ratio (z) = 0.22822 0.26666
#
# Static dielectric constant tensor:
#      x y z
#    x 1.911770 0.000000 0.000000 
#    y 0.000000 1.836250 0.000000 
#    z 0.000000 0.000000 2.050510 
# 
# From -- ./inp_files/26644.got.cif
#   From: 2010.05.17/outbox.cif.g08.bks.cpg/sg70_14_cif.got.tgz:26644.got - 2010.06.03 15:57:51.
