data_PCOD9515606
_publ_section_title
;
Structure prediction by ZEFSAII (Michael W. Deem and Ramdas Pophale) SiO2 
 PCOD9515606
Probable space group: F D D D
;
_chemical_formula_sum "Si O2"
_cell_formula_units_Z 160
_cell_length_a 22.476286
_cell_length_b 12.024258
_cell_length_c 25.395052
_cell_angle_alpha 90.000000
_cell_angle_beta 90.000000
_cell_angle_gamma 90.000000
_cell_volume 6863.283559
_symmetry_space_group_name_H-M "F D D D"
_symmetry_group_IT_number 70
_space_group.IT_coordinate_system_code '2'
_symmetry_cell_setting 'orthorhombic'
loop_
_space_group_symop_operation_xyz
x,y,z
1/4-x,1/4-y,z
x,1/4-y,1/4-z
1/4-x,y,1/4-z
-x,-y,-z
3/4+x,3/4+y,-z
-x,3/4+y,3/4+z
3/4+x,-y,3/4+z
x,1/2+y,1/2+z
1/4-x,3/4-y,1/2+z
x,3/4-y,3/4-z
1/4-x,1/2+y,3/4-z
-x,1/2-y,1/2-z
3/4+x,1/4+y,1/2-z
-x,1/4+y,1/4+z
3/4+x,1/2-y,1/4+z
1/2+x,y,1/2+z
3/4-x,1/4-y,1/2+z
1/2+x,1/4-y,3/4-z
3/4-x,y,3/4-z
1/2-x,-y,1/2-z
1/4+x,3/4+y,1/2-z
1/2-x,3/4+y,1/4+z
1/4+x,-y,1/4+z
1/2+x,1/2+y,z
3/4-x,3/4-y,z
1/2+x,3/4-y,1/4-z
3/4-x,1/2+y,1/4-z
1/2-x,1/2-y,-z
1/4+x,1/4+y,-z
1/2-x,1/4+y,3/4+z
1/4+x,1/2-y,3/4+z
loop_
_atom_site_type_symbol
_atom_site_label
_atom_site_fract_x
_atom_site_fract_y
_atom_site_fract_z
Si Si1 0.529216 0.724357 0.665583
Si Si2 0.908901 0.720582 0.232364
Si Si3 0.902205 0.752782 0.614646
Si Si4 0.864955 0.991417 0.965308
Si Si5 0.286696 0.714473 0.382933
O O1 0.531354 0.625000 0.625000
O O2 0.464931 0.736110 0.693423
O O3 0.575984 0.718484 0.713326
O O4 0.540557 0.836343 0.633729
O O5 0.851458 0.756389 0.199302
O O6 0.904899 0.590929 0.247827
O O7 0.877426 0.625000 0.625000
O O8 0.968574 0.751687 0.636844
O O9 0.875000 0.875000 0.630578
O O10 0.875000 0.875000 0.993568
O O11 0.925675 0.022463 0.935553
O O12 0.818302 0.975379 0.916980
#
# Coordination Sequence:
#
# PCOD9515606 Si02
#       5
#    32  32  32  32  32
#     4  10  21  43  69  97 139 183 232 293 359 435
#     4  10  23  41  66 101 139 181 230 297 357 429
#     4  12  25  43  67 101 145 192 235 294 367 431
#     4  10  21  43  69  96 133 176 236 299 356 424
#     4  10  21  42  69  96 132 181 233 294 361 420
#
# _framework density 23.312456000000001
#
# number of rings (size 3 to 8) (size 9 to 14) (size 15 to 20)
#    0.000    1.600    2.000    3.000    0.000    2.400 
#    0.000    9.000    0.000    0.000    0.000    0.000 
#    0.000    0.000    0.000    0.000    0.000    0.000 
#
# Total GULP energy -223550.460688 kJ/mol
# GULP energy per Si atom -5588.761517 kJ/mol
# Density = 2.325940 g / cm^3
# Si number density = 23.312456 Si / 1000 Ang^3
#
#
#
# Elastic Constant Matrix: (Units=GPa)
#
#
# Indices 1 2 3 4 5 6 
#
# 1 85.2557 26.7383 7.9732 0.0000 0.0000 0.0000
# 2 26.7383 143.8533 44.8431 0.0000 0.0000 0.0000
# 3 7.9732 44.8431 82.9886 0.0000 0.0000 0.0000
# 4 0.0000 0.0000 0.0000 22.0145 0.0000 0.0000
# 5 0.0000 0.0000 0.0000 0.0000 -144.0452 0.0000
# 6 0.0000 0.0000 0.0000 0.0000 0.0000 33.0934
#
#
#
# Elastic Compliance Matrix: (Units=1/GPa)
#
#
# Indices 1 2 3 4 5 6 
#
# 1 0.012456 -0.002336 0.000065 0.000000 0.000000 0.000000
# 2 -0.002336 0.008798 -0.004529 0.000000 0.000000 0.000000
# 3 0.000065 -0.004529 0.014491 0.000000 0.000000 0.000000
# 4 0.000000 0.000000 0.000000 0.045425 0.000000 0.000000
# 5 0.000000 0.000000 0.000000 0.000000 -0.006942 0.000000
# 6 0.000000 0.000000 0.000000 0.000000 0.000000 0.030217
#
#
# Mechanical properties :
#
#
# Convention : Reuss Voigt Hill
#
# Bulk Modulus (GPa) = 45.15659 52.35630 48.75645
# Shear Modulus (GPa) = 39.86442 -2.28458 18.78992
#
# Velocity S-wave (km/s) = 4.13971 -0.99101 2.84210
# Velocity P-wave (km/s) = 6.50091 4.60411 5.63292
#
# Compressibility (1/GPa) = 0.02214516
#
# Stress axis : x y z
#
# Youngs Moduli (GPa) = 80.28393 113.66769 69.00813
#
# Poissons Ratio (x) = 0.26548 -0.00451
# Poissons Ratio (y) = 0.18751 0.31257
# Poissons Ratio (z) = -0.00524 0.51485
#
# Static dielectric constant tensor:
#      x y z
#    x 1.913960 0.000000 0.000000 
#    y 0.000000 1.959350 0.000000 
#    z 0.000000 0.000000 1.847780 
# 
# From -- ./inp_files/67711.got.cif
#   From: 2010.05.17/outbox.cif.g08.bks.cpg/sg70_34_cif.got.tgz:67711.got - 2010.06.03 15:57:51.
