data_PCOD9515112
_publ_section_title
;
Structure prediction by ZEFSAII (Michael W. Deem and Ramdas Pophale) SiO2 
 PCOD9515112
Probable space group: F D D D
;
_chemical_formula_sum "Si O2"
_cell_formula_units_Z 208
_cell_length_a 21.518893
_cell_length_b 25.388789
_cell_length_c 15.379709
_cell_angle_alpha 90.000000
_cell_angle_beta 90.000000
_cell_angle_gamma 90.000000
_cell_volume 8402.529205
_symmetry_space_group_name_H-M "F D D D"
_symmetry_group_IT_number 70
_space_group.IT_coordinate_system_code '2'
_symmetry_cell_setting 'orthorhombic'
loop_
_space_group_symop_operation_xyz
x,y,z
1/4-x,1/4-y,z
x,1/4-y,1/4-z
1/4-x,y,1/4-z
-x,-y,-z
3/4+x,3/4+y,-z
-x,3/4+y,3/4+z
3/4+x,-y,3/4+z
x,1/2+y,1/2+z
1/4-x,3/4-y,1/2+z
x,3/4-y,3/4-z
1/4-x,1/2+y,3/4-z
-x,1/2-y,1/2-z
3/4+x,1/4+y,1/2-z
-x,1/4+y,1/4+z
3/4+x,1/2-y,1/4+z
1/2+x,y,1/2+z
3/4-x,1/4-y,1/2+z
1/2+x,1/4-y,3/4-z
3/4-x,y,3/4-z
1/2-x,-y,1/2-z
1/4+x,3/4+y,1/2-z
1/2-x,3/4+y,1/4+z
1/4+x,-y,1/4+z
1/2+x,1/2+y,z
3/4-x,3/4-y,z
1/2+x,3/4-y,1/4-z
3/4-x,1/2+y,1/4-z
1/2-x,1/2-y,-z
1/4+x,1/4+y,-z
1/2-x,1/4+y,3/4+z
1/4+x,1/2-y,3/4+z
loop_
_atom_site_type_symbol
_atom_site_label
_atom_site_fract_x
_atom_site_fract_y
_atom_site_fract_z
Si Si1 0.454458 0.948193 0.128709
Si Si2 0.171370 0.051507 0.450414
Si Si3 0.086211 0.297493 0.550972
Si Si4 0.481613 0.310463 0.739739
Si Si5 0.274532 0.682965 0.162709
Si Si6 0.116972 0.908005 0.026031
Si Si7 0.875000 0.875000 0.760553
O O1 0.402318 0.935419 0.055041
O O2 0.524400 0.930412 0.151706
O O3 0.416536 0.919524 0.208099
O O4 0.470910 0.010762 0.114309
O O5 0.205109 0.066321 0.359696
O O6 0.212120 0.072145 0.529945
O O7 0.177181 0.988898 0.468928
O O8 0.125000 0.266803 0.625000
O O9 0.129046 0.345779 0.522816
O O10 0.500000 0.250000 0.750000
O O11 0.547187 0.337306 0.755643
O O12 0.428185 0.336640 0.798864
O O13 0.282866 0.625000 0.125000
O O14 0.334080 0.690896 0.223918
O O15 0.125000 0.924971 0.125000
#
# Coordination Sequence:
#
# PCOD9515112 Si02
#       7
#    32  32  32  32  32  32  16
#     4  10  21  40  66  94 138 178 231 295 358 426
#     4  10  22  42  64  95 139 181 230 297 364 434
#     4  10  22  38  63  92 128 178 234 287 350 427
#     4  11  22  40  69  96 136 188 236 290 374 441
#     4  11  23  41  69 102 137 182 243 298 355 435
#     4  11  20  37  62  93 125 178 232 281 349 430
#     4  10  20  40  64  99 135 186 226 296 362 446
#
# _framework density 24.754449999999999
#
# number of rings (size 3 to 8) (size 9 to 14) (size 15 to 20)
#    0.000    1.538    3.077    2.769    0.000    0.615 
#    0.000   13.846    0.000    7.846    0.000    0.000 
#    0.000    0.000    0.000    0.000    0.000    0.000 
#
# Total GULP energy -289476.234491 kJ/mol
# GULP energy per Si atom -5566.850663 kJ/mol
# Density = 2.469811 g / cm^3
# Si number density = 24.754450 Si / 1000 Ang^3
#
#
#
# Elastic Constant Matrix: (Units=GPa)
#
#
# Indices 1 2 3 4 5 6 
#
# 1 124.8096 -7.0638 5.9898 0.0000 0.0000 0.0000
# 2 -7.0638 87.7730 -1.2700 0.0000 0.0000 0.0000
# 3 5.9898 -1.2700 24.5892 0.0000 0.0000 0.0000
# 4 0.0000 0.0000 0.0000 -38.8849 0.0000 0.0000
# 5 0.0000 0.0000 0.0000 0.0000 22.9130 0.0000
# 6 0.0000 0.0000 0.0000 0.0000 0.0000 32.4197
#
#
#
# Elastic Compliance Matrix: (Units=1/GPa)
#
#
# Indices 1 2 3 4 5 6 
#
# 1 0.008141 0.000627 -0.001951 0.000000 0.000000 0.000000
# 2 0.000627 0.011450 0.000439 0.000000 0.000000 0.000000
# 3 -0.001951 0.000439 0.041166 0.000000 0.000000 0.000000
# 4 0.000000 0.000000 0.000000 -0.025717 0.000000 0.000000
# 5 0.000000 0.000000 0.000000 0.000000 0.043643 0.000000
# 6 0.000000 0.000000 0.000000 0.000000 0.000000 0.030845
#
#
# Mechanical properties :
#
#
# Convention : Reuss Voigt Hill
#
# Bulk Modulus (GPa) = 16.95294 25.83155 21.39225
# Shear Modulus (GPa) = 38.17906 19.25726 28.71816
#
# Velocity S-wave (km/s) = 3.93149 2.79217 3.40975
# Velocity P-wave (km/s) = 5.24138 4.56648 4.91553
#
# Compressibility (1/GPa) = 0.05898680
#
# Stress axis : x y z
#
# Youngs Moduli (GPa) = 122.83035 87.33760 24.29185
#
# Poissons Ratio (x) = -0.05476 0.04739
# Poissons Ratio (y) = -0.07701 -0.01066
# Poissons Ratio (z) = 0.23962 -0.03831
#
# Static dielectric constant tensor:
#      x y z
#    x 1.972300 0.000000 0.000000 
#    y 0.000000 2.059350 0.000000 
#    z 0.000000 0.000000 1.880490 
# 
# From -- ./inp_files/36732.got.cif
#   From: 2010.05.17/outbox.cif.g08.bks.cpg/sg70_19_cif.got.tgz:36732.got - 2010.06.03 15:57:51.
