data_PCOD9515844
_publ_section_title
;
Structure prediction by ZEFSAII (Michael W. Deem and Ramdas Pophale) SiO2 
 PCOD9515844
Probable space group: F D D D
;
_chemical_formula_sum "Si O2"
_cell_formula_units_Z 200
_cell_length_a 18.016606
_cell_length_b 26.611760
_cell_length_c 21.357073
_cell_angle_alpha 90.000000
_cell_angle_beta 90.000000
_cell_angle_gamma 90.000000
_cell_volume 10239.725426
_symmetry_space_group_name_H-M "F D D D"
_symmetry_group_IT_number 70
_space_group.IT_coordinate_system_code '2'
_symmetry_cell_setting 'orthorhombic'
loop_
_space_group_symop_operation_xyz
x,y,z
1/4-x,1/4-y,z
x,1/4-y,1/4-z
1/4-x,y,1/4-z
-x,-y,-z
3/4+x,3/4+y,-z
-x,3/4+y,3/4+z
3/4+x,-y,3/4+z
x,1/2+y,1/2+z
1/4-x,3/4-y,1/2+z
x,3/4-y,3/4-z
1/4-x,1/2+y,3/4-z
-x,1/2-y,1/2-z
3/4+x,1/4+y,1/2-z
-x,1/4+y,1/4+z
3/4+x,1/2-y,1/4+z
1/2+x,y,1/2+z
3/4-x,1/4-y,1/2+z
1/2+x,1/4-y,3/4-z
3/4-x,y,3/4-z
1/2-x,-y,1/2-z
1/4+x,3/4+y,1/2-z
1/2-x,3/4+y,1/4+z
1/4+x,-y,1/4+z
1/2+x,1/2+y,z
3/4-x,3/4-y,z
1/2+x,3/4-y,1/4-z
3/4-x,1/2+y,1/4-z
1/2-x,1/2-y,-z
1/4+x,1/4+y,-z
1/2-x,1/4+y,3/4+z
1/4+x,1/2-y,3/4+z
loop_
_atom_site_type_symbol
_atom_site_label
_atom_site_fract_x
_atom_site_fract_y
_atom_site_fract_z
Si Si1 0.375000 0.630520 0.875000
Si Si2 0.635160 0.757578 0.457942
Si Si3 0.488401 0.678410 0.798772
Si Si4 0.711522 0.932059 0.859256
Si Si5 0.132055 0.949372 0.234972
Si Si6 0.719809 0.075642 0.020139
Si Si7 0.125000 0.719377 0.625000
Si Si8 0.125000 0.125000 0.625000
O O1 0.446804 0.663157 0.861615
O O2 0.362879 0.596557 0.814002
O O3 0.702245 0.721283 0.438191
O O4 0.675432 0.798993 0.502053
O O5 0.589948 0.783117 0.402455
O O6 0.578204 0.719462 0.491462
O O7 0.525949 0.628153 0.769585
O O8 0.690386 0.875000 0.875000
O O9 0.695454 0.946355 0.787097
O O10 0.797870 0.939672 0.875783
O O11 0.054512 0.942703 0.271953
O O12 0.128919 0.996513 0.187998
O O13 0.679123 0.090946 0.083540
#
# Coordination Sequence:
#
# PCOD9515844 Si02
#       8
#    16  32  32  32  32  32  16   8
#     4   9  20  41  65  90 132 172 219 273 317 392
#     4  11  23  41  65  97 138 176 218 276 338 406
#     4  10  22  41  64  97 137 176 222 269 333 407
#     4  12  25  43  67  96 132 170 222 280 331 395
#     4  10  23  42  71  92 125 173 223 268 337 387
#     4  11  22  42  64 100 136 178 219 275 332 406
#     4  11  23  48  69  91 126 171 221 282 326 390
#     4  12  24  34  72 102 144 176 220 268 336 416
#
# _framework density 19.531773999999999
#
# number of rings (size 3 to 8) (size 9 to 14) (size 15 to 20)
#    0.000    1.280    3.200    2.640    3.360    1.920 
#    2.880    0.000    0.000    0.000    0.000    0.000 
#    0.000    0.000    0.000    0.000    0.000    0.000 
#
# Total GULP energy -279191.787624 kJ/mol
# GULP energy per Si atom -5583.835752 kJ/mol
# Density = 1.948732 g / cm^3
# Si number density = 19.531774 Si / 1000 Ang^3
#
#
#
# Elastic Constant Matrix: (Units=GPa)
#
#
# Indices 1 2 3 4 5 6 
#
# 1 102.2392 21.1401 46.0597 0.0000 0.0000 0.0000
# 2 21.1401 81.6192 33.7051 0.0000 0.0000 0.0000
# 3 46.0597 33.7051 96.9540 0.0000 0.0000 0.0000
# 4 0.0000 0.0000 0.0000 11.8767 0.0000 0.0000
# 5 0.0000 0.0000 0.0000 0.0000 42.9800 0.0000
# 6 0.0000 0.0000 0.0000 0.0000 0.0000 26.7687
#
#
#
# Elastic Compliance Matrix: (Units=1/GPa)
#
#
# Indices 1 2 3 4 5 6 
#
# 1 0.012503 -0.000917 -0.005621 0.000000 0.000000 0.000000
# 2 -0.000917 0.014373 -0.004561 0.000000 0.000000 0.000000
# 3 -0.005621 -0.004561 0.014570 0.000000 0.000000 0.000000
# 4 0.000000 0.000000 0.000000 0.084199 0.000000 0.000000
# 5 0.000000 0.000000 0.000000 0.000000 0.023267 0.000000
# 6 0.000000 0.000000 0.000000 0.000000 0.000000 0.037357
#
#
# Mechanical properties :
#
#
# Convention : Reuss Voigt Hill
#
# Bulk Modulus (GPa) = 51.95346 53.62469 52.78907
# Shear Modulus (GPa) = 23.26857 28.31891 25.79374
#
# Velocity S-wave (km/s) = 3.45529 3.81187 3.63795
# Velocity P-wave (km/s) = 6.52502 6.84752 6.68822
#
# Compressibility (1/GPa) = 0.01924800
#
# Stress axis : x y z
#
# Youngs Moduli (GPa) = 79.98155 69.57474 68.63409
#
# Poissons Ratio (x) = 0.06381 0.38578
# Poissons Ratio (y) = 0.07336 0.31303
# Poissons Ratio (z) = 0.44957 0.31732
#
# Static dielectric constant tensor:
#      x y z
#    x 1.642080 0.000000 0.000000 
#    y 0.000000 1.710670 0.000000 
#    z 0.000000 0.000000 1.669370 
# 
# From -- ./inp_files/43977.got.cif
#   From: 2010.05.17/outbox.cif.g08.bks.cpg/sg70_22_cif.got.tgz:43977.got - 2010.06.03 15:57:51.
