data_PCOD9515809
_publ_section_title
;
Structure prediction by ZEFSAII (Michael W. Deem and Ramdas Pophale) SiO2 
 PCOD9515809
Probable space group: F D D D
;
_chemical_formula_sum "Si O2"
_cell_formula_units_Z 144
_cell_length_a 24.941960
_cell_length_b 15.491886
_cell_length_c 17.804521
_cell_angle_alpha 90.000000
_cell_angle_beta 90.000000
_cell_angle_gamma 90.000000
_cell_volume 6879.631322
_symmetry_space_group_name_H-M "F D D D"
_symmetry_group_IT_number 70
_space_group.IT_coordinate_system_code '2'
_symmetry_cell_setting 'orthorhombic'
loop_
_space_group_symop_operation_xyz
x,y,z
1/4-x,1/4-y,z
x,1/4-y,1/4-z
1/4-x,y,1/4-z
-x,-y,-z
3/4+x,3/4+y,-z
-x,3/4+y,3/4+z
3/4+x,-y,3/4+z
x,1/2+y,1/2+z
1/4-x,3/4-y,1/2+z
x,3/4-y,3/4-z
1/4-x,1/2+y,3/4-z
-x,1/2-y,1/2-z
3/4+x,1/4+y,1/2-z
-x,1/4+y,1/4+z
3/4+x,1/2-y,1/4+z
1/2+x,y,1/2+z
3/4-x,1/4-y,1/2+z
1/2+x,1/4-y,3/4-z
3/4-x,y,3/4-z
1/2-x,-y,1/2-z
1/4+x,3/4+y,1/2-z
1/2-x,3/4+y,1/4+z
1/4+x,-y,1/4+z
1/2+x,1/2+y,z
3/4-x,3/4-y,z
1/2+x,3/4-y,1/4-z
3/4-x,1/2+y,1/4-z
1/2-x,1/2-y,-z
1/4+x,1/4+y,-z
1/2-x,1/4+y,3/4+z
1/4+x,1/2-y,3/4+z
loop_
_atom_site_type_symbol
_atom_site_label
_atom_site_fract_x
_atom_site_fract_y
_atom_site_fract_z
Si Si1 0.875000 0.499040 0.375000
Si Si2 0.319135 0.558838 0.026062
Si Si3 0.009715 0.713474 0.666637
Si Si4 0.709374 0.680792 0.787893
Si Si5 0.093296 0.246126 0.817237
O O1 0.901852 0.546367 0.303657
O O2 0.823720 0.453305 0.338919
O O3 0.325145 0.659086 0.045152
O O4 0.344579 0.500096 0.091576
O O5 0.255247 0.541762 0.020677
O O6 0.987871 0.625000 0.625000
O O7 0.000000 0.750000 0.750000
O O8 0.985832 0.789248 0.615500
O O9 0.651881 0.726823 0.783553
O O10 0.696009 0.579435 0.789909
#
# Coordination Sequence:
#
# PCOD9515809 Si02
#       5
#    16  32  32  32  32
#     4  10  23  40  62  95 132 172 224 285 338 416
#     4  10  22  40  66  93 130 173 221 278 341 408
#     4  11  25  40  65  97 135 176 227 283 349 417
#     4  10  23  38  63  92 125 174 220 273 337 404
#     4  10  22  41  64  92 131 169 221 278 340 405
#
# _framework density 20.931355
#
# number of rings (size 3 to 8) (size 9 to 14) (size 15 to 20)
#    0.000    1.778    0.000    2.333   12.444    1.778 
#    0.000    0.000    0.000    6.667    0.000    0.000 
#    0.000    0.000    0.000    0.000    0.000    0.000 
#
# Total GULP energy -200512.098327 kJ/mol
# GULP energy per Si atom -5569.780509 kJ/mol
# Density = 2.088371 g / cm^3
# Si number density = 20.931355 Si / 1000 Ang^3
#
#
#
# Elastic Constant Matrix: (Units=GPa)
#
#
# Indices 1 2 3 4 5 6 
#
# 1 109.5980 30.3741 15.8087 0.0000 0.0000 0.0000
# 2 30.3741 51.2682 15.2913 0.0000 0.0000 0.0000
# 3 15.8087 15.2913 72.1954 0.0000 0.0000 0.0000
# 4 0.0000 0.0000 0.0000 16.3541 0.0000 0.0000
# 5 0.0000 0.0000 0.0000 0.0000 20.1887 0.0000
# 6 0.0000 0.0000 0.0000 0.0000 0.0000 28.4102
#
#
#
# Elastic Compliance Matrix: (Units=1/GPa)
#
#
# Indices 1 2 3 4 5 6 
#
# 1 0.010998 -0.006188 -0.001097 0.000000 0.000000 0.000000
# 2 -0.006188 0.024303 -0.003792 0.000000 0.000000 0.000000
# 3 -0.001097 -0.003792 0.014895 0.000000 0.000000 0.000000
# 4 0.000000 0.000000 0.000000 0.061147 0.000000 0.000000
# 5 0.000000 0.000000 0.000000 0.000000 0.049533 0.000000
# 6 0.000000 0.000000 0.000000 0.000000 0.000000 0.035199
#
#
# Mechanical properties :
#
#
# Convention : Reuss Voigt Hill
#
# Bulk Modulus (GPa) = 35.66469 39.55664 37.61067
# Shear Modulus (GPa) = 21.97073 24.42976 23.20025
#
# Velocity S-wave (km/s) = 3.24335 3.42005 3.33287
# Velocity P-wave (km/s) = 5.57689 5.87664 5.72873
#
# Compressibility (1/GPa) = 0.02803894
#
# Stress axis : x y z
#
# Youngs Moduli (GPa) = 90.92923 41.14786 67.13728
#
# Poissons Ratio (x) = 0.25463 0.07368
# Poissons Ratio (y) = 0.56269 0.25461
# Poissons Ratio (z) = 0.09979 0.15605
#
# Static dielectric constant tensor:
#      x y z
#    x 1.776130 0.000000 0.000000 
#    y 0.000000 1.779820 0.000000 
#    z 0.000000 0.000000 1.746840 
# 
# From -- ./inp_files/37354.got.cif
#   From: 2010.05.17/outbox.cif.g08.bks.cpg/sg70_19_cif.got.tgz:37354.got - 2010.06.03 15:57:51.
