data_PCOD9515006
_publ_section_title
;
Structure prediction by ZEFSAII (Michael W. Deem and Ramdas Pophale) SiO2 
 PCOD9515006
Probable space group: F D D D
;
_chemical_formula_sum "Si O2"
_cell_formula_units_Z 136
_cell_length_a 17.920235
_cell_length_b 31.245327
_cell_length_c 11.552316
_cell_angle_alpha 90.000000
_cell_angle_beta 90.000000
_cell_angle_gamma 90.000000
_cell_volume 6468.414392
_symmetry_space_group_name_H-M "F D D D"
_symmetry_group_IT_number 70
_space_group.IT_coordinate_system_code '2'
_symmetry_cell_setting 'orthorhombic'
loop_
_space_group_symop_operation_xyz
x,y,z
1/4-x,1/4-y,z
x,1/4-y,1/4-z
1/4-x,y,1/4-z
-x,-y,-z
3/4+x,3/4+y,-z
-x,3/4+y,3/4+z
3/4+x,-y,3/4+z
x,1/2+y,1/2+z
1/4-x,3/4-y,1/2+z
x,3/4-y,3/4-z
1/4-x,1/2+y,3/4-z
-x,1/2-y,1/2-z
3/4+x,1/4+y,1/2-z
-x,1/4+y,1/4+z
3/4+x,1/2-y,1/4+z
1/2+x,y,1/2+z
3/4-x,1/4-y,1/2+z
1/2+x,1/4-y,3/4-z
3/4-x,y,3/4-z
1/2-x,-y,1/2-z
1/4+x,3/4+y,1/2-z
1/2-x,3/4+y,1/4+z
1/4+x,-y,1/4+z
1/2+x,1/2+y,z
3/4-x,3/4-y,z
1/2+x,3/4-y,1/4-z
3/4-x,1/2+y,1/4-z
1/2-x,1/2-y,-z
1/4+x,1/4+y,-z
1/2-x,1/4+y,3/4+z
1/4+x,1/2-y,3/4+z
loop_
_atom_site_type_symbol
_atom_site_label
_atom_site_fract_x
_atom_site_fract_y
_atom_site_fract_z
Si Si1 0.349077 0.435188 0.561040
Si Si2 0.232603 0.798276 0.040651
Si Si3 0.875000 0.875000 0.375000
Si Si4 0.799681 0.921869 0.818265
Si Si5 0.419164 0.037532 0.702863
O O1 0.438441 0.428474 0.550714
O O2 0.324217 0.407015 0.452432
O O3 0.315041 0.420043 0.681939
O O4 0.336728 0.485957 0.551860
O O5 0.203875 0.797771 0.172198
O O6 0.250000 0.750000 0.000000
O O7 0.162616 0.809486 0.957876
O O8 0.793056 0.875000 0.875000
O O9 0.875000 0.941919 0.875000
O O10 0.725444 0.946960 0.854130
#
# Coordination Sequence:
#
# PCOD9515006 Si02
#       5
#    32  32   8  32  32
#     4  11  22  39  64  93 126 173 220 277 333 407
#     4   9  18  35  60  90 123 163 213 269 330 395
#     4  12  24  40  66  96 132 168 230 274 340 412
#     4  11  22  39  63  93 132 173 219 281 342 399
#     4  10  20  38  64  90 125 172 221 270 338 403
#
# _framework density 21.025245999999999
#
# number of rings (size 3 to 8) (size 9 to 14) (size 15 to 20)
#    0.000    1.647    2.353    4.941    0.000    0.000 
#    2.118    0.000    0.000    0.000    0.000    0.000 
#    0.000    0.000    0.000    0.000    0.000    0.000 
#
# Total GULP energy -189625.384161 kJ/mol
# GULP energy per Si atom -5577.217181 kJ/mol
# Density = 2.097739 g / cm^3
# Si number density = 21.025246 Si / 1000 Ang^3
#
#
#
# Elastic Constant Matrix: (Units=GPa)
#
#
# Indices 1 2 3 4 5 6 
#
# 1 142.1349 38.9067 58.0462 0.0000 0.0000 0.0000
# 2 38.9067 82.6653 34.9803 0.0000 0.0000 0.0000
# 3 58.0462 34.9803 149.2231 0.0000 0.0000 0.0000
# 4 0.0000 0.0000 0.0000 22.5962 0.0000 0.0000
# 5 0.0000 0.0000 0.0000 0.0000 27.9819 0.0000
# 6 0.0000 0.0000 0.0000 0.0000 0.0000 16.5327
#
#
#
# Elastic Compliance Matrix: (Units=1/GPa)
#
#
# Indices 1 2 3 4 5 6 
#
# 1 0.009012 -0.003062 -0.002788 0.000000 0.000000 0.000000
# 2 -0.003062 0.014469 -0.002201 0.000000 0.000000 0.000000
# 3 -0.002788 -0.002201 0.008302 0.000000 0.000000 0.000000
# 4 0.000000 0.000000 0.000000 0.044255 0.000000 0.000000
# 5 0.000000 0.000000 0.000000 0.000000 0.035737 0.000000
# 6 0.000000 0.000000 0.000000 0.000000 0.000000 0.060486
#
#
# Mechanical properties :
#
#
# Convention : Reuss Voigt Hill
#
# Bulk Modulus (GPa) = 63.76697 70.87664 67.32181
# Shear Modulus (GPa) = 25.82768 29.56151 27.69459
#
# Velocity S-wave (km/s) = 3.50867 3.75374 3.63327
# Velocity P-wave (km/s) = 6.84171 7.25057 7.04911
#
# Compressibility (1/GPa) = 0.01568210
#
# Stress axis : x y z
#
# Youngs Moduli (GPa) = 110.95994 69.11158 120.45662
#
# Poissons Ratio (x) = 0.21161 0.33582
# Poissons Ratio (y) = 0.33975 0.26510
# Poissons Ratio (z) = 0.30935 0.15210
#
# Static dielectric constant tensor:
#      x y z
#    x 1.817030 0.000000 0.000000 
#    y 0.000000 1.782410 0.000000 
#    z 0.000000 0.000000 1.771610 
# 
# From -- ./inp_files/17879.got.cif
#   From: 2010.05.17/outbox.cif.g08.bks.cpg/sg70_9_cif.got.tgz:17879.got - 2010.06.03 15:57:51.
