data_PCOD9515736
_publ_section_title
;
Structure prediction by ZEFSAII (Michael W. Deem and Ramdas Pophale) SiO2 
 PCOD9515736
Probable space group: F D D D
;
_chemical_formula_sum "Si O2"
_cell_formula_units_Z 216
_cell_length_a 14.195373
_cell_length_b 25.947777
_cell_length_c 29.005479
_cell_angle_alpha 90.000000
_cell_angle_beta 90.000000
_cell_angle_gamma 90.000000
_cell_volume 10683.830944
_symmetry_space_group_name_H-M "F D D D"
_symmetry_group_IT_number 70
_space_group.IT_coordinate_system_code '2'
_symmetry_cell_setting 'orthorhombic'
loop_
_space_group_symop_operation_xyz
x,y,z
1/4-x,1/4-y,z
x,1/4-y,1/4-z
1/4-x,y,1/4-z
-x,-y,-z
3/4+x,3/4+y,-z
-x,3/4+y,3/4+z
3/4+x,-y,3/4+z
x,1/2+y,1/2+z
1/4-x,3/4-y,1/2+z
x,3/4-y,3/4-z
1/4-x,1/2+y,3/4-z
-x,1/2-y,1/2-z
3/4+x,1/4+y,1/2-z
-x,1/4+y,1/4+z
3/4+x,1/2-y,1/4+z
1/2+x,y,1/2+z
3/4-x,1/4-y,1/2+z
1/2+x,1/4-y,3/4-z
3/4-x,y,3/4-z
1/2-x,-y,1/2-z
1/4+x,3/4+y,1/2-z
1/2-x,3/4+y,1/4+z
1/4+x,-y,1/4+z
1/2+x,1/2+y,z
3/4-x,3/4-y,z
1/2+x,3/4-y,1/4-z
3/4-x,1/2+y,1/4-z
1/2-x,1/2-y,-z
1/4+x,1/4+y,-z
1/2-x,1/4+y,3/4+z
1/4+x,1/2-y,3/4+z
loop_
_atom_site_type_symbol
_atom_site_label
_atom_site_fract_x
_atom_site_fract_y
_atom_site_fract_z
Si Si1 0.436480 0.092723 0.171381
Si Si2 0.958352 0.308249 0.199896
Si Si3 0.352502 0.645995 0.824020
Si Si4 0.274362 0.797036 0.033832
Si Si5 0.875000 0.375000 0.375000
Si Si6 0.290521 0.475193 0.108931
Si Si7 0.875000 0.375000 0.975366
Si Si8 0.263418 0.310421 0.949695
O O1 0.415975 0.125000 0.125000
O O2 0.530002 0.116098 0.195417
O O3 0.341211 0.086386 0.201841
O O4 0.456167 0.034132 0.156096
O O5 0.874983 0.308166 0.163133
O O6 0.927443 0.313824 0.253074
O O7 0.032544 0.353655 0.195119
O O8 0.001224 0.251007 0.193274
O O9 0.375000 0.624856 0.875000
O O10 0.440115 0.661405 0.792077
O O11 0.300897 0.699529 0.836311
O O12 0.293911 0.778557 0.085888
O O13 0.250000 0.750000 0.000000
O O14 0.358760 0.826578 0.008800
O O15 0.936253 0.338391 0.342229
#
# Coordination Sequence:
#
# PCOD9515736 Si02
#       8
#    32  32  32  32   8  32  16  32
#     4  11  22  44  65  94 126 177 221 272 336 414
#     4  10  22  43  65  94 127 175 216 276 334 415
#     4  10  22  38  64  90 129 169 219 271 336 402
#     4  11  24  42  61  99 133 173 228 288 342 415
#     4  12  24  44  70 102 132 174 216 296 354 414
#     4  10  23  40  66  91 130 172 223 273 345 411
#     4  12  25  38  69  92 136 173 222 285 336 404
#     4  10  24  43  66  96 132 163 230 272 340 414
#
# _framework density 20.217466999999999
#
# number of rings (size 3 to 8) (size 9 to 14) (size 15 to 20)
#    0.000    1.481    0.741    3.333    7.259    2.370 
#    0.000    4.444    0.000    0.000    0.000    0.000 
#    0.000    0.000    0.000    0.000    0.000    0.000 
#
# Total GULP energy -301310.920791 kJ/mol
# GULP energy per Si atom -5579.831867 kJ/mol
# Density = 2.017145 g / cm^3
# Si number density = 20.217467 Si / 1000 Ang^3
#
#
#
# Elastic Constant Matrix: (Units=GPa)
#
#
# Indices 1 2 3 4 5 6 
#
# 1 64.9087 16.2130 37.5033 0.0000 0.0000 0.0000
# 2 16.2130 54.3370 35.0602 0.0000 0.0000 0.0000
# 3 37.5033 35.0602 117.4676 0.0000 0.0000 0.0000
# 4 0.0000 0.0000 0.0000 352.3074 0.0000 0.0000
# 5 0.0000 0.0000 0.0000 0.0000 34.6305 0.0000
# 6 0.0000 0.0000 0.0000 0.0000 0.0000 8.0379
#
#
#
# Elastic Compliance Matrix: (Units=1/GPa)
#
#
# Indices 1 2 3 4 5 6 
#
# 1 0.019098 -0.002185 -0.005445 0.000000 0.000000 0.000000
# 2 -0.002185 0.023043 -0.006180 0.000000 0.000000 0.000000
# 3 -0.005445 -0.006180 0.012096 0.000000 0.000000 0.000000
# 4 0.000000 0.000000 0.000000 0.002838 0.000000 0.000000
# 5 0.000000 0.000000 0.000000 0.000000 0.028876 0.000000
# 6 0.000000 0.000000 0.000000 0.000000 0.000000 0.124411
#
#
# Mechanical properties :
#
#
# Convention : Reuss Voigt Hill
#
# Bulk Modulus (GPa) = 37.57022 46.02958 41.79990
# Shear Modulus (GPa) = 20.25472 88.85762 54.55617
#
# Velocity S-wave (km/s) = 3.16862 6.63674 5.20031
# Velocity P-wave (km/s) = 5.65776 9.03023 7.53510
#
# Compressibility (1/GPa) = 0.02661682
#
# Stress axis : x y z
#
# Youngs Moduli (GPa) = 52.36095 43.39673 82.67209
#
# Poissons Ratio (x) = 0.09482 0.45017
# Poissons Ratio (y) = 0.11441 0.51092
# Poissons Ratio (z) = 0.28512 0.26819
#
# Static dielectric constant tensor:
#      x y z
#    x 1.742750 0.000000 0.000000 
#    y 0.000000 1.721840 0.000000 
#    z 0.000000 0.000000 1.771880 
# 
# From -- ./inp_files/58820.got.cif
#   From: 2010.05.17/outbox.cif.g08.bks.cpg/sg70_30_cif.got.tgz:58820.got - 2010.06.03 15:57:51.
