data_PCOD9515723
_publ_section_title
;
Structure prediction by ZEFSAII (Michael W. Deem and Ramdas Pophale) SiO2 
 PCOD9515723
Probable space group: F D D D
;
_chemical_formula_sum "Si O2"
_cell_formula_units_Z 160
_cell_length_a 11.875812
_cell_length_b 23.275628
_cell_length_c 28.982949
_cell_angle_alpha 90.000000
_cell_angle_beta 90.000000
_cell_angle_gamma 90.000000
_cell_volume 8011.379301
_symmetry_space_group_name_H-M "F D D D"
_symmetry_group_IT_number 70
_space_group.IT_coordinate_system_code '2'
_symmetry_cell_setting 'orthorhombic'
loop_
_space_group_symop_operation_xyz
x,y,z
1/4-x,1/4-y,z
x,1/4-y,1/4-z
1/4-x,y,1/4-z
-x,-y,-z
3/4+x,3/4+y,-z
-x,3/4+y,3/4+z
3/4+x,-y,3/4+z
x,1/2+y,1/2+z
1/4-x,3/4-y,1/2+z
x,3/4-y,3/4-z
1/4-x,1/2+y,3/4-z
-x,1/2-y,1/2-z
3/4+x,1/4+y,1/2-z
-x,1/4+y,1/4+z
3/4+x,1/2-y,1/4+z
1/2+x,y,1/2+z
3/4-x,1/4-y,1/2+z
1/2+x,1/4-y,3/4-z
3/4-x,y,3/4-z
1/2-x,-y,1/2-z
1/4+x,3/4+y,1/2-z
1/2-x,3/4+y,1/4+z
1/4+x,-y,1/4+z
1/2+x,1/2+y,z
3/4-x,3/4-y,z
1/2+x,3/4-y,1/4-z
3/4-x,1/2+y,1/4-z
1/2-x,1/2-y,-z
1/4+x,1/4+y,-z
1/2-x,1/4+y,3/4+z
1/4+x,1/2-y,3/4+z
loop_
_atom_site_type_symbol
_atom_site_label
_atom_site_fract_x
_atom_site_fract_y
_atom_site_fract_z
Si Si1 0.741770 0.386439 0.425284
Si Si2 0.310942 0.688717 0.489573
Si Si3 0.792896 0.820924 0.587741
Si Si4 0.967362 0.673418 0.437601
Si Si5 0.710131 0.746791 0.777964
O O1 0.696307 0.375000 0.375000
O O2 0.683296 0.346325 0.462785
O O3 0.730817 0.452701 0.436086
O O4 0.875000 0.375000 0.427379
O O5 0.250000 0.750000 0.500000
O O6 0.251462 0.641177 0.456136
O O7 0.435086 0.703402 0.471485
O O8 0.875000 0.875000 0.587225
O O9 0.784624 0.804660 0.642463
O O10 0.663958 0.832671 0.575347
O O11 0.845889 0.781103 0.547406
O O12 0.967862 0.720155 0.478846
#
# Coordination Sequence:
#
# PCOD9515723 Si02
#       5
#    32  32  32  32  32
#     4  10  22  38  57  92 130 167 216 264 326 400
#     4  11  22  39  62  95 131 171 215 269 334 394
#     4  11  23  43  65  96 129 171 226 275 331 403
#     4  10  25  42  65  97 130 172 226 274 335 403
#     4  11  23  41  67  91 131 177 211 279 336 395
#
# _framework density 19.971592999999999
#
# number of rings (size 3 to 8) (size 9 to 14) (size 15 to 20)
#    0.000    1.400    4.000    0.600    5.600    0.000 
#    0.000    0.000    0.000    0.000    0.000    0.000 
#    0.000    0.000    0.000    0.000    0.000    0.000 
#
# Total GULP energy -222910.211101 kJ/mol
# GULP energy per Si atom -5572.755278 kJ/mol
# Density = 1.992614 g / cm^3
# Si number density = 19.971593 Si / 1000 Ang^3
#
#
#
# Elastic Constant Matrix: (Units=GPa)
#
#
# Indices 1 2 3 4 5 6 
#
# 1 64.3983 23.1840 4.3888 0.0000 0.0000 0.0000
# 2 23.1840 79.8060 38.9436 0.0000 0.0000 0.0000
# 3 4.3888 38.9436 97.9857 0.0000 0.0000 0.0000
# 4 0.0000 0.0000 0.0000 11.9301 0.0000 0.0000
# 5 0.0000 0.0000 0.0000 0.0000 40.0221 0.0000
# 6 0.0000 0.0000 0.0000 0.0000 0.0000 50.3541
#
#
#
# Elastic Compliance Matrix: (Units=1/GPa)
#
#
# Indices 1 2 3 4 5 6 
#
# 1 0.017527 -0.005841 0.001537 0.000000 0.000000 0.000000
# 2 -0.005841 0.017492 -0.006690 0.000000 0.000000 0.000000
# 3 0.001537 -0.006690 0.012796 0.000000 0.000000 0.000000
# 4 0.000000 0.000000 0.000000 0.083822 0.000000 0.000000
# 5 0.000000 0.000000 0.000000 0.000000 0.024986 0.000000
# 6 0.000000 0.000000 0.000000 0.000000 0.000000 0.019859
#
#
# Mechanical properties :
#
#
# Convention : Reuss Voigt Hill
#
# Bulk Modulus (GPa) = 38.72364 41.69144 40.20754
# Shear Modulus (GPa) = 24.14521 32.17283 28.15902
#
# Velocity S-wave (km/s) = 3.48081 4.01799 3.75901
# Velocity P-wave (km/s) = 5.96541 6.51509 6.24630
#
# Compressibility (1/GPa) = 0.02582402
#
# Stress axis : x y z
#
# Youngs Moduli (GPa) = 57.05614 57.16848 78.15054
#
# Poissons Ratio (x) = 0.33394 -0.12009
# Poissons Ratio (y) = 0.33329 0.52286
# Poissons Ratio (z) = -0.08767 0.38248
#
# Static dielectric constant tensor:
#      x y z
#    x 1.631900 0.000000 0.000000 
#    y 0.000000 1.744390 0.000000 
#    z 0.000000 0.000000 1.752530 
# 
# From -- ./inp_files/19521.got.cif
#   From: 2010.05.17/outbox.cif.g08.bks.cpg/sg70_10_cif.got.tgz:19521.got - 2010.06.03 15:57:51.
