data_PCOD9515105
_publ_section_title
;
Structure prediction by ZEFSAII (Michael W. Deem and Ramdas Pophale) SiO2 
 PCOD9515105
Probable space group: F D D D
;
_chemical_formula_sum "Si O2"
_cell_formula_units_Z 208
_cell_length_a 21.864417
_cell_length_b 23.358552
_cell_length_c 15.969352
_cell_angle_alpha 90.000000
_cell_angle_beta 90.000000
_cell_angle_gamma 90.000000
_cell_volume 8155.885362
_symmetry_space_group_name_H-M "F D D D"
_symmetry_group_IT_number 70
_space_group.IT_coordinate_system_code '2'
_symmetry_cell_setting 'orthorhombic'
loop_
_space_group_symop_operation_xyz
x,y,z
1/4-x,1/4-y,z
x,1/4-y,1/4-z
1/4-x,y,1/4-z
-x,-y,-z
3/4+x,3/4+y,-z
-x,3/4+y,3/4+z
3/4+x,-y,3/4+z
x,1/2+y,1/2+z
1/4-x,3/4-y,1/2+z
x,3/4-y,3/4-z
1/4-x,1/2+y,3/4-z
-x,1/2-y,1/2-z
3/4+x,1/4+y,1/2-z
-x,1/4+y,1/4+z
3/4+x,1/2-y,1/4+z
1/2+x,y,1/2+z
3/4-x,1/4-y,1/2+z
1/2+x,1/4-y,3/4-z
3/4-x,y,3/4-z
1/2-x,-y,1/2-z
1/4+x,3/4+y,1/2-z
1/2-x,3/4+y,1/4+z
1/4+x,-y,1/4+z
1/2+x,1/2+y,z
3/4-x,3/4-y,z
1/2+x,3/4-y,1/4-z
3/4-x,1/2+y,1/4-z
1/2-x,1/2-y,-z
1/4+x,1/4+y,-z
1/2-x,1/4+y,3/4+z
1/4+x,1/2-y,3/4+z
loop_
_atom_site_type_symbol
_atom_site_label
_atom_site_fract_x
_atom_site_fract_y
_atom_site_fract_z
Si Si1 0.770677 0.067070 0.818068
Si Si2 0.589392 0.699578 0.210789
Si Si3 0.125000 0.527018 0.125000
Si Si4 0.038113 0.521593 0.261666
Si Si5 0.043290 0.829378 0.172369
Si Si6 0.432386 0.775590 0.596313
Si Si7 0.116926 0.326338 0.438373
O O1 0.817280 0.016305 0.794846
O O2 0.805416 0.122039 0.853360
O O3 0.724346 0.078882 0.741145
O O4 0.729655 0.046144 0.897878
O O5 0.625000 0.686431 0.125000
O O6 0.638909 0.690945 0.283334
O O7 0.088278 0.554400 0.203076
O O8 0.174857 0.482523 0.161686
O O9 0.060472 0.455448 0.267528
O O10 0.976583 0.514021 0.209488
O O11 0.076161 0.849815 0.256784
O O12 0.972030 0.814859 0.159104
O O13 0.392539 0.730374 0.644982
O O14 0.097141 0.375000 0.375000
#
# Coordination Sequence:
#
# PCOD9515105 Si02
#       7
#    32  32  16  32  32  32  32
#     4  11  23  41  68  96 130 178 223 270 330 393
#     4  11  24  41  67  94 135 180 217 277 328 392
#     4   8  20  38  62  94 127 166 215 282 318 380
#     4  10  20  40  63  96 129 166 213 275 326 381
#     4  10  23  40  66  95 130 170 217 270 333 396
#     4  11  22  42  64  94 138 170 214 272 335 394
#     4  11  23  41  70  99 125 171 225 276 330 394
#
# _framework density 25.503056000000001
#
# number of rings (size 3 to 8) (size 9 to 14) (size 15 to 20)
#    0.000    1.538    3.077    1.385    1.077    3.077 
#    0.000    1.538    0.000    0.000    0.000    0.000 
#    0.000    0.000    0.000    0.000    0.000    0.000 
#
# Total GULP energy -290530.386382 kJ/mol
# GULP energy per Si atom -5587.122815 kJ/mol
# Density = 2.544501 g / cm^3
# Si number density = 25.503056 Si / 1000 Ang^3
#
#
#
# Elastic Constant Matrix: (Units=GPa)
#
#
# Indices 1 2 3 4 5 6 
#
# 1 84.3735 9.3784 31.6940 0.0000 0.0000 0.0000
# 2 9.3784 65.2720 11.3408 0.0000 0.0000 0.0000
# 3 31.6940 11.3408 97.9039 0.0000 0.0000 0.0000
# 4 0.0000 0.0000 0.0000 7.1338 0.0000 0.0000
# 5 0.0000 0.0000 0.0000 0.0000 46.4510 0.0000
# 6 0.0000 0.0000 0.0000 0.0000 0.0000 -3.9766
#
#
#
# Elastic Compliance Matrix: (Units=1/GPa)
#
#
# Indices 1 2 3 4 5 6 
#
# 1 0.013586 -0.001212 -0.004258 0.000000 0.000000 0.000000
# 2 -0.001212 0.015743 -0.001431 0.000000 0.000000 0.000000
# 3 -0.004258 -0.001431 0.011758 0.000000 0.000000 0.000000
# 4 0.000000 0.000000 0.000000 0.140178 0.000000 0.000000
# 5 0.000000 0.000000 0.000000 0.000000 0.021528 0.000000
# 6 0.000000 0.000000 0.000000 0.000000 0.000000 -0.251473
#
#
# Mechanical properties :
#
#
# Convention : Reuss Voigt Hill
#
# Bulk Modulus (GPa) = 36.64988 39.15289 37.90139
# Shear Modulus (GPa) = -193.93963 22.93073 -85.50445
#
# Velocity S-wave (km/s) = -8.72988 3.00181 -5.79654
# Velocity P-wave (km/s) = 9.33875 5.23451 5.46865
#
# Compressibility (1/GPa) = 0.02728522
#
# Stress axis : x y z
#
# Youngs Moduli (GPa) = 73.60411 63.51885 85.04680
#
# Poissons Ratio (x) = 0.07701 0.36211
# Poissons Ratio (y) = 0.08923 0.12172
# Poissons Ratio (z) = 0.31339 0.09091
#
# Static dielectric constant tensor:
#      x y z
#    x 2.014370 0.000000 0.000000 
#    y 0.000000 1.984600 0.000000 
#    z 0.000000 0.000000 2.106990 
# 
# From -- ./inp_files/36706.got.cif
#   From: 2010.05.17/outbox.cif.g08.bks.cpg/sg70_19_cif.got.tgz:36706.got - 2010.06.03 15:57:51.
