data_PCOD9515367
_publ_section_title
;
Structure prediction by ZEFSAII (Michael W. Deem and Ramdas Pophale) SiO2 
 PCOD9515367
Probable space group: F D D D
;
_chemical_formula_sum "Si O2"
_cell_formula_units_Z 240
_cell_length_a 14.340166
_cell_length_b 26.326681
_cell_length_c 25.509336
_cell_angle_alpha 90.000000
_cell_angle_beta 90.000000
_cell_angle_gamma 90.000000
_cell_volume 9630.513493
_symmetry_space_group_name_H-M "F D D D"
_symmetry_group_IT_number 70
_space_group.IT_coordinate_system_code '2'
_symmetry_cell_setting 'orthorhombic'
loop_
_space_group_symop_operation_xyz
x,y,z
1/4-x,1/4-y,z
x,1/4-y,1/4-z
1/4-x,y,1/4-z
-x,-y,-z
3/4+x,3/4+y,-z
-x,3/4+y,3/4+z
3/4+x,-y,3/4+z
x,1/2+y,1/2+z
1/4-x,3/4-y,1/2+z
x,3/4-y,3/4-z
1/4-x,1/2+y,3/4-z
-x,1/2-y,1/2-z
3/4+x,1/4+y,1/2-z
-x,1/4+y,1/4+z
3/4+x,1/2-y,1/4+z
1/2+x,y,1/2+z
3/4-x,1/4-y,1/2+z
1/2+x,1/4-y,3/4-z
3/4-x,y,3/4-z
1/2-x,-y,1/2-z
1/4+x,3/4+y,1/2-z
1/2-x,3/4+y,1/4+z
1/4+x,-y,1/4+z
1/2+x,1/2+y,z
3/4-x,3/4-y,z
1/2+x,3/4-y,1/4-z
3/4-x,1/2+y,1/4-z
1/2-x,1/2-y,-z
1/4+x,1/4+y,-z
1/2-x,1/4+y,3/4+z
1/4+x,1/2-y,3/4+z
loop_
_atom_site_type_symbol
_atom_site_label
_atom_site_fract_x
_atom_site_fract_y
_atom_site_fract_z
Si Si1 0.970676 0.476420 0.166411
Si Si2 0.523878 0.634698 0.319158
Si Si3 0.000156 0.734637 0.863212
Si Si4 0.747799 0.304656 0.471086
Si Si5 0.201665 0.990745 0.471221
Si Si6 0.890975 0.612743 0.062913
Si Si7 0.125000 0.207936 0.625000
Si Si8 0.831230 0.826705 0.486972
O O1 0.987479 0.492972 0.226347
O O2 0.032128 0.508182 0.125850
O O3 0.017052 0.420412 0.171689
O O4 0.862545 0.482171 0.150694
O O5 0.625000 0.625000 0.344811
O O6 0.465731 0.681057 0.341498
O O7 0.545427 0.655839 0.260642
O O8 0.964375 0.785612 0.835046
O O9 0.991727 0.734027 0.924680
O O10 0.750000 0.250000 0.500000
O O11 0.652896 0.335291 0.459098
O O12 0.178615 0.934749 0.448208
O O13 0.109002 0.024691 0.483695
O O14 0.909885 0.625000 0.125000
O O15 0.978030 0.593472 0.028731
O O16 0.121198 0.178798 0.570539
O O17 0.875000 0.875000 0.516245
#
# Coordination Sequence:
#
# PCOD9515367 Si02
#       8
#    32  32  32  32  32  32  16  32
#     4  10  21  38  61  89 125 175 210 267 322 388
#     4   9  19  39  64  90 120 167 215 267 333 388
#     4  10  21  39  65  89 129 167 217 267 333 388
#     4  10  21  38  65  96 121 164 218 269 326 395
#     4  11  23  40  62  97 131 170 220 266 320 402
#     4  12  22  38  67  96 130 174 215 270 328 387
#     4  10  21  38  58  90 140 170 224 263 318 392
#     4  11  25  40  62  96 137 176 218 267 320 397
#
# _framework density 24.920791000000001
#
# number of rings (size 3 to 8) (size 9 to 14) (size 15 to 20)
#    0.000    1.600    2.667    2.200    3.733    2.667 
#    0.000    1.333    0.000   19.600    0.000    0.000 
#    0.000    0.000    0.000    0.000    0.000    0.000 
#
# Total GULP energy -334629.912167 kJ/mol
# GULP energy per Si atom -5577.165203 kJ/mol
# Density = 2.486407 g / cm^3
# Si number density = 24.920791 Si / 1000 Ang^3
#
#
#
# Elastic Constant Matrix: (Units=GPa)
#
#
# Indices 1 2 3 4 5 6 
#
# 1 75.5798 26.0141 13.2328 0.0000 0.0000 0.0000
# 2 26.0141 153.5990 19.3340 0.0000 0.0000 0.0000
# 3 13.2328 19.3340 70.7739 0.0000 0.0000 0.0000
# 4 0.0000 0.0000 0.0000 9.0303 0.0000 0.0000
# 5 0.0000 0.0000 0.0000 0.0000 21.1536 0.0000
# 6 0.0000 0.0000 0.0000 0.0000 0.0000 23.5877
#
#
#
# Elastic Compliance Matrix: (Units=1/GPa)
#
#
# Indices 1 2 3 4 5 6 
#
# 1 0.014342 -0.002166 -0.002090 0.000000 0.000000 0.000000
# 2 -0.002166 0.007069 -0.001526 0.000000 0.000000 0.000000
# 3 -0.002090 -0.001526 0.014937 0.000000 0.000000 0.000000
# 4 0.000000 0.000000 0.000000 0.110739 0.000000 0.000000
# 5 0.000000 0.000000 0.000000 0.000000 0.047273 0.000000
# 6 0.000000 0.000000 0.000000 0.000000 0.000000 0.042395
#
#
# Mechanical properties :
#
#
# Convention : Reuss Voigt Hill
#
# Bulk Modulus (GPa) = 40.34748 46.34606 43.34677
# Shear Modulus (GPa) = 19.48694 26.84578 23.16636
#
# Velocity S-wave (km/s) = 2.79938 3.28570 3.05224
# Velocity P-wave (km/s) = 5.16470 5.74736 5.46380
#
# Compressibility (1/GPa) = 0.02478469
#
# Stress axis : x y z
#
# Youngs Moduli (GPa) = 69.72290 141.45440 66.94698
#
# Poissons Ratio (x) = 0.30639 0.13992
# Poissons Ratio (y) = 0.15102 0.10218
# Poissons Ratio (z) = 0.14572 0.21589
#
# Static dielectric constant tensor:
#      x y z
#    x 2.068790 0.000000 0.000000 
#    y 0.000000 2.071730 0.000000 
#    z 0.000000 0.000000 2.010100 
# 
# From -- ./inp_files/59822.got.cif
#   From: 2010.05.17/outbox.cif.g08.bks.cpg/sg70_30_cif.got.tgz:59822.got - 2010.06.03 15:57:51.
