data_PCOD9515326
_publ_section_title
;
Structure prediction by ZEFSAII (Michael W. Deem and Ramdas Pophale) SiO2 
 PCOD9515326
Probable space group: F D D D
;
_chemical_formula_sum "Si O2"
_cell_formula_units_Z 112
_cell_length_a 15.572446
_cell_length_b 14.536013
_cell_length_c 23.745782
_cell_angle_alpha 90.000000
_cell_angle_beta 90.000000
_cell_angle_gamma 90.000000
_cell_volume 5375.125549
_symmetry_space_group_name_H-M "F D D D"
_symmetry_group_IT_number 70
_space_group.IT_coordinate_system_code '2'
_symmetry_cell_setting 'orthorhombic'
loop_
_space_group_symop_operation_xyz
x,y,z
1/4-x,1/4-y,z
x,1/4-y,1/4-z
1/4-x,y,1/4-z
-x,-y,-z
3/4+x,3/4+y,-z
-x,3/4+y,3/4+z
3/4+x,-y,3/4+z
x,1/2+y,1/2+z
1/4-x,3/4-y,1/2+z
x,3/4-y,3/4-z
1/4-x,1/2+y,3/4-z
-x,1/2-y,1/2-z
3/4+x,1/4+y,1/2-z
-x,1/4+y,1/4+z
3/4+x,1/2-y,1/4+z
1/2+x,y,1/2+z
3/4-x,1/4-y,1/2+z
1/2+x,1/4-y,3/4-z
3/4-x,y,3/4-z
1/2-x,-y,1/2-z
1/4+x,3/4+y,1/2-z
1/2-x,3/4+y,1/4+z
1/4+x,-y,1/4+z
1/2+x,1/2+y,z
3/4-x,3/4-y,z
1/2+x,3/4-y,1/4-z
3/4-x,1/2+y,1/4-z
1/2-x,1/2-y,-z
1/4+x,1/4+y,-z
1/2-x,1/4+y,3/4+z
1/4+x,1/2-y,3/4+z
loop_
_atom_site_type_symbol
_atom_site_label
_atom_site_fract_x
_atom_site_fract_y
_atom_site_fract_z
Si Si1 0.761320 0.110601 0.833338
Si Si2 0.449653 0.201949 0.951648
Si Si3 0.125000 0.125000 0.001900
Si Si4 0.528865 0.669451 0.568964
O O1 0.746773 0.076648 0.896962
O O2 0.852879 0.076416 0.812177
O O3 0.687745 0.073653 0.791941
O O4 0.772070 0.221121 0.830158
O O5 0.437827 0.310666 0.962453
O O6 0.483656 0.156028 0.008821
O O7 0.625000 0.625000 0.564971
O O8 0.488761 0.625000 0.625000
#
# Coordination Sequence:
#
# PCOD9515326 Si02
#       4
#    32  32  16  32
#     4  10  22  38  60  86 119 157 198 246 298 354
#     4  10  21  39  60  86 118 160 192 248 299 349
#     4  10  22  41  58  88 123 150 204 246 292 364
#     4  10  21  37  58  90 120 153 200 246 295 355
#
# _framework density 20.836722000000002
#
# number of rings (size 3 to 8) (size 9 to 14) (size 15 to 20)
#    0.000    2.000    0.000    4.286    2.000    6.857 
#   15.429    0.000    0.000    0.000    0.000    0.000 
#    0.000    0.000    0.000    0.000    0.000    0.000 
#
# Total GULP energy -156076.496538 kJ/mol
# GULP energy per Si atom -5574.160591 kJ/mol
# Density = 2.078930 g / cm^3
# Si number density = 20.836722 Si / 1000 Ang^3
#
#
#
# Elastic Constant Matrix: (Units=GPa)
#
#
# Indices 1 2 3 4 5 6 
#
# 1 27.6417 -8.5871 29.2651 0.0000 0.0000 0.0000
# 2 -8.5871 42.0171 42.7313 0.0000 0.0000 0.0000
# 3 29.2651 42.7313 182.6643 0.0000 0.0000 0.0000
# 4 0.0000 0.0000 0.0000 31.9537 0.0000 0.0000
# 5 0.0000 0.0000 0.0000 0.0000 33.5236 0.0000
# 6 0.0000 0.0000 0.0000 0.0000 0.0000 7.5239
#
#
#
# Elastic Compliance Matrix: (Units=1/GPa)
#
#
# Indices 1 2 3 4 5 6 
#
# 1 0.064455 0.031066 -0.017594 0.000000 0.000000 0.000000
# 2 0.031066 0.046203 -0.015785 0.000000 0.000000 0.000000
# 3 -0.017594 -0.015785 0.011986 0.000000 0.000000 0.000000
# 4 0.000000 0.000000 0.000000 0.031295 0.000000 0.000000
# 5 0.000000 0.000000 0.000000 0.000000 0.029830 0.000000
# 6 0.000000 0.000000 0.000000 0.000000 0.000000 0.132911
#
#
# Mechanical properties :
#
#
# Convention : Reuss Voigt Hill
#
# Bulk Modulus (GPa) = 8.47339 42.12683 25.30011
# Shear Modulus (GPa) = 13.86404 27.19448 20.52926
#
# Velocity S-wave (km/s) = 2.58227 3.61657 3.14227
# Velocity P-wave (km/s) = 3.60086 6.14011 5.03324
#
# Compressibility (1/GPa) = 0.11801652
#
# Stress axis : x y z
#
# Youngs Moduli (GPa) = 15.51469 21.64382 83.43066
#
# Poissons Ratio (x) = -0.67238 1.46786
# Poissons Ratio (y) = -0.48197 1.31699
# Poissons Ratio (z) = 0.27296 0.34166
#
# Static dielectric constant tensor:
#      x y z
#    x 1.753430 0.000000 0.000000 
#    y 0.000000 1.827960 0.000000 
#    z 0.000000 0.000000 1.798920 
# 
# From -- ./inp_files/25215.got.cif
#   From: 2010.05.17/outbox.cif.g08.bks.cpg/sg70_13_cif.got.tgz:25215.got - 2010.06.03 15:57:51.
