data_PCOD9515131
_publ_section_title
;
Structure prediction by ZEFSAII (Michael W. Deem and Ramdas Pophale) SiO2 
 PCOD9515131
Probable space group: F D D D
;
_chemical_formula_sum "Si O2"
_cell_formula_units_Z 208
_cell_length_a 18.649153
_cell_length_b 17.744224
_cell_length_c 24.426281
_cell_angle_alpha 90.000000
_cell_angle_beta 90.000000
_cell_angle_gamma 90.000000
_cell_volume 8083.016628
_symmetry_space_group_name_H-M "F D D D"
_symmetry_group_IT_number 70
_space_group.IT_coordinate_system_code '2'
_symmetry_cell_setting 'orthorhombic'
loop_
_space_group_symop_operation_xyz
x,y,z
1/4-x,1/4-y,z
x,1/4-y,1/4-z
1/4-x,y,1/4-z
-x,-y,-z
3/4+x,3/4+y,-z
-x,3/4+y,3/4+z
3/4+x,-y,3/4+z
x,1/2+y,1/2+z
1/4-x,3/4-y,1/2+z
x,3/4-y,3/4-z
1/4-x,1/2+y,3/4-z
-x,1/2-y,1/2-z
3/4+x,1/4+y,1/2-z
-x,1/4+y,1/4+z
3/4+x,1/2-y,1/4+z
1/2+x,y,1/2+z
3/4-x,1/4-y,1/2+z
1/2+x,1/4-y,3/4-z
3/4-x,y,3/4-z
1/2-x,-y,1/2-z
1/4+x,3/4+y,1/2-z
1/2-x,3/4+y,1/4+z
1/4+x,-y,1/4+z
1/2+x,1/2+y,z
3/4-x,3/4-y,z
1/2+x,3/4-y,1/4-z
3/4-x,1/2+y,1/4-z
1/2-x,1/2-y,-z
1/4+x,1/4+y,-z
1/2-x,1/4+y,3/4+z
1/4+x,1/2-y,3/4+z
loop_
_atom_site_type_symbol
_atom_site_label
_atom_site_fract_x
_atom_site_fract_y
_atom_site_fract_z
Si Si1 0.158734 0.043574 0.052985
Si Si2 0.725300 0.703708 0.646772
Si Si3 0.486573 0.017908 0.405938
Si Si4 0.016197 0.435910 0.042822
Si Si5 0.867324 0.248460 0.182984
Si Si6 0.836568 0.654864 0.316925
Si Si7 0.875000 0.375000 0.660833
O O1 0.125000 0.125000 0.066125
O O2 0.221799 0.015043 0.094206
O O3 0.090738 0.992825 0.066880
O O4 0.163416 0.037258 0.987657
O O5 0.697313 0.625000 0.625000
O O6 0.726748 0.763036 0.597244
O O7 0.805911 0.690635 0.667139
O O8 0.682800 0.756025 0.689966
O O9 0.549682 0.973531 0.437172
O O10 0.487163 0.107145 0.423598
O O11 0.091984 0.394944 0.029307
O O12 0.947300 0.382960 0.053319
O O13 0.000000 0.500000 0.000000
O O14 0.878641 0.303698 0.130283
O O15 0.875000 0.640514 0.375000
#
# Coordination Sequence:
#
# PCOD9515131 Si02
#       7
#    32  32  32  32  32  32  16
#     4  11  24  40  67 104 137 186 248 301 385 455
#     4  10  24  43  63  97 139 187 240 308 366 439
#     4  11  22  41  67 101 140 187 239 310 366 464
#     4  10  23  42  67 102 133 180 241 298 371 443
#     4  11  22  44  67  97 145 188 238 304 386 443
#     4  10  20  40  69  92 137 185 234 297 371 444
#     4  10  22  42  72  95 143 182 234 310 366 454
#
# _framework density 25.732968
#
# number of rings (size 3 to 8) (size 9 to 14) (size 15 to 20)
#    0.000    1.538    2.308    4.154    0.000    6.462 
#    5.538    0.000    0.000    0.000    0.000    0.000 
#    0.000    0.000    0.000    0.000    0.000    0.000 
#
# Total GULP energy -289545.655376 kJ/mol
# GULP energy per Si atom -5568.185680 kJ/mol
# Density = 2.567440 g / cm^3
# Si number density = 25.732968 Si / 1000 Ang^3
#
#
#
# Elastic Constant Matrix: (Units=GPa)
#
#
# Indices 1 2 3 4 5 6 
#
# 1 167.4709 37.3861 48.5992 0.0000 0.0000 0.0000
# 2 37.3861 100.6230 30.1167 0.0000 0.0000 0.0000
# 3 48.5992 30.1167 102.7553 0.0000 0.0000 0.0000
# 4 0.0000 0.0000 0.0000 30.8579 0.0000 0.0000
# 5 0.0000 0.0000 0.0000 0.0000 13.9987 0.0000
# 6 0.0000 0.0000 0.0000 0.0000 0.0000 21.2485
#
#
#
# Elastic Compliance Matrix: (Units=1/GPa)
#
#
# Indices 1 2 3 4 5 6 
#
# 1 0.007212 -0.001818 -0.002878 0.000000 0.000000 0.000000
# 2 -0.001818 0.011352 -0.002467 0.000000 0.000000 0.000000
# 3 -0.002878 -0.002467 0.011816 0.000000 0.000000 0.000000
# 4 0.000000 0.000000 0.000000 0.032407 0.000000 0.000000
# 5 0.000000 0.000000 0.000000 0.000000 0.071435 0.000000
# 6 0.000000 0.000000 0.000000 0.000000 0.000000 0.047062
#
#
# Mechanical properties :
#
#
# Convention : Reuss Voigt Hill
#
# Bulk Modulus (GPa) = 62.29269 67.00593 64.64931
# Shear Modulus (GPa) = 24.88016 30.20415 27.54216
#
# Velocity S-wave (km/s) = 3.11281 3.42972 3.27510
# Velocity P-wave (km/s) = 6.09749 6.46371 6.28326
#
# Compressibility (1/GPa) = 0.01605325
#
# Stress axis : x y z
#
# Youngs Moduli (GPa) = 138.65120 88.08942 84.62903
#
# Poissons Ratio (x) = 0.16017 0.24358
# Poissons Ratio (y) = 0.25210 0.20880
# Poissons Ratio (z) = 0.39907 0.21734
#
# Static dielectric constant tensor:
#      x y z
#    x 2.236780 0.000000 0.000000 
#    y 0.000000 -4.662490 0.000000 
#    z 0.000000 0.000000 2.373540 
# 
# From -- ./inp_files/59620.got.cif
#   From: 2010.05.17/outbox.cif.g08.bks.cpg/sg70_30_cif.got.tgz:59620.got - 2010.06.03 15:57:51.
