data_PCOD9515206
_publ_section_title
;
Structure prediction by ZEFSAII (Michael W. Deem and Ramdas Pophale) SiO2 
 PCOD9515206
Probable space group: F D D D
;
_chemical_formula_sum "Si O2"
_cell_formula_units_Z 88
_cell_length_a 5.122102
_cell_length_b 23.074716
_cell_length_c 31.482169
_cell_angle_alpha 90.000000
_cell_angle_beta 90.000000
_cell_angle_gamma 90.000000
_cell_volume 3720.910578
_symmetry_space_group_name_H-M "F D D D"
_symmetry_group_IT_number 70
_space_group.IT_coordinate_system_code '2'
_symmetry_cell_setting 'orthorhombic'
loop_
_space_group_symop_operation_xyz
x,y,z
1/4-x,1/4-y,z
x,1/4-y,1/4-z
1/4-x,y,1/4-z
-x,-y,-z
3/4+x,3/4+y,-z
-x,3/4+y,3/4+z
3/4+x,-y,3/4+z
x,1/2+y,1/2+z
1/4-x,3/4-y,1/2+z
x,3/4-y,3/4-z
1/4-x,1/2+y,3/4-z
-x,1/2-y,1/2-z
3/4+x,1/4+y,1/2-z
-x,1/4+y,1/4+z
3/4+x,1/2-y,1/4+z
1/2+x,y,1/2+z
3/4-x,1/4-y,1/2+z
1/2+x,1/4-y,3/4-z
3/4-x,y,3/4-z
1/2-x,-y,1/2-z
1/4+x,3/4+y,1/2-z
1/2-x,3/4+y,1/4+z
1/4+x,-y,1/4+z
1/2+x,1/2+y,z
3/4-x,3/4-y,z
1/2+x,3/4-y,1/4-z
3/4-x,1/2+y,1/4-z
1/2-x,1/2-y,-z
1/4+x,1/4+y,-z
1/2-x,1/4+y,3/4+z
1/4+x,1/2-y,3/4+z
loop_
_atom_site_type_symbol
_atom_site_label
_atom_site_fract_x
_atom_site_fract_y
_atom_site_fract_z
Si Si1 0.125000 0.125000 0.625000
Si Si2 0.857913 0.706432 0.824923
Si Si3 0.375000 0.875000 0.735184
Si Si4 0.593521 0.532982 0.692691
O O1 0.994685 0.080224 0.657590
O O2 0.875000 0.694414 0.875000
O O3 0.837360 0.648250 0.797580
O O4 0.597692 0.746453 0.820499
O O5 0.100058 0.740722 0.804943
O O6 0.330373 0.929569 0.766083
#
# Coordination Sequence:
#
# PCOD9515206 Si02
#       4
#     8  32  16  32
#     4  10  20  42  72 102 136 186 236 290 352 406
#     4  12  25  47  71 106 145 189 243 295 357 430
#     4  11  28  45  74 106 146 192 232 303 364 421
#     4  11  25  45  72 107 143 188 245 292 354 431
#
# _framework density 23.650126
#
# number of rings (size 3 to 8) (size 9 to 14) (size 15 to 20)
#    0.000    0.727    3.636    2.182    0.000   14.545 
#    0.000    0.000    0.000    0.000    0.000    0.000 
#    0.000    0.000    0.000    0.000    0.000    0.000 
#
# Total GULP energy -122904.352607 kJ/mol
# GULP energy per Si atom -5586.561482 kJ/mol
# Density = 2.359630 g / cm^3
# Si number density = 23.650126 Si / 1000 Ang^3
#
#
#
# Elastic Constant Matrix: (Units=GPa)
#
#
# Indices 1 2 3 4 5 6 
#
# 1 148.7163 65.5061 39.3210 0.0000 0.0000 0.0000
# 2 65.5061 115.1537 79.2727 0.0000 0.0000 0.0000
# 3 39.3210 79.2727 184.0458 0.0000 0.0000 0.0000
# 4 0.0000 0.0000 0.0000 179.3740 0.0000 0.0000
# 5 0.0000 0.0000 0.0000 0.0000 37.5775 0.0000
# 6 0.0000 0.0000 0.0000 0.0000 0.0000 39.2289
#
#
#
# Elastic Compliance Matrix: (Units=1/GPa)
#
#
# Indices 1 2 3 4 5 6 
#
# 1 0.008993 -0.005392 0.000401 0.000000 0.000000 0.000000
# 2 -0.005392 0.015577 -0.005557 0.000000 0.000000 0.000000
# 3 0.000401 -0.005557 0.007741 0.000000 0.000000 0.000000
# 4 0.000000 0.000000 0.000000 0.005575 0.000000 0.000000
# 5 0.000000 0.000000 0.000000 0.000000 0.026612 0.000000
# 6 0.000000 0.000000 0.000000 0.000000 0.000000 0.025491
#
#
# Mechanical properties :
#
#
# Convention : Reuss Voigt Hill
#
# Bulk Modulus (GPa) = 89.16547 90.67949 89.92248
# Shear Modulus (GPa) = 43.54463 68.82382 56.18422
#
# Velocity S-wave (km/s) = 4.29558 5.40037 4.87934
# Velocity P-wave (km/s) = 7.89851 8.79265 8.35754
#
# Compressibility (1/GPa) = 0.01121510
#
# Stress axis : x y z
#
# Youngs Moduli (GPa) = 111.19513 64.19693 129.17471
#
# Poissons Ratio (x) = 0.34615 -0.05181
# Poissons Ratio (y) = 0.59956 0.71788
# Poissons Ratio (z) = -0.04460 0.35677
#
# Static dielectric constant tensor:
#      x y z
#    x 1.872110 0.000000 0.000000 
#    y 0.000000 1.944630 0.000000 
#    z 0.000000 0.000000 1.962610 
# 
# From -- ./inp_files/2578.got.cif
#   From: 2010.05.17/outbox.cif.g08.bks.cpg/sg70_2_cif.got.tgz:2578.got - 2010.06.03 15:57:51.
