data_PCOD9515556
_publ_section_title
;
Structure prediction by ZEFSAII (Michael W. Deem and Ramdas Pophale) SiO2 
 PCOD9515556
Probable space group: F D D D
;
_chemical_formula_sum "Si O2"
_cell_formula_units_Z 80
_cell_length_a 6.181609
_cell_length_b 19.755562
_cell_length_c 20.989563
_cell_angle_alpha 90.000000
_cell_angle_beta 90.000000
_cell_angle_gamma 90.000000
_cell_volume 2563.269778
_symmetry_space_group_name_H-M "F D D D"
_symmetry_group_IT_number 70
_space_group.IT_coordinate_system_code '2'
_symmetry_cell_setting 'orthorhombic'
loop_
_space_group_symop_operation_xyz
x,y,z
1/4-x,1/4-y,z
x,1/4-y,1/4-z
1/4-x,y,1/4-z
-x,-y,-z
3/4+x,3/4+y,-z
-x,3/4+y,3/4+z
3/4+x,-y,3/4+z
x,1/2+y,1/2+z
1/4-x,3/4-y,1/2+z
x,3/4-y,3/4-z
1/4-x,1/2+y,3/4-z
-x,1/2-y,1/2-z
3/4+x,1/4+y,1/2-z
-x,1/4+y,1/4+z
3/4+x,1/2-y,1/4+z
1/2+x,y,1/2+z
3/4-x,1/4-y,1/2+z
1/2+x,1/4-y,3/4-z
3/4-x,y,3/4-z
1/2-x,-y,1/2-z
1/4+x,3/4+y,1/2-z
1/2-x,3/4+y,1/4+z
1/4+x,-y,1/4+z
1/2+x,1/2+y,z
3/4-x,3/4-y,z
1/2+x,3/4-y,1/4-z
3/4-x,1/2+y,1/4-z
1/2-x,1/2-y,-z
1/4+x,1/4+y,-z
1/2-x,1/4+y,3/4+z
1/4+x,1/2-y,3/4+z
loop_
_atom_site_type_symbol
_atom_site_label
_atom_site_fract_x
_atom_site_fract_y
_atom_site_fract_z
Si Si1 0.121843 0.456628 0.448228
Si Si2 0.376789 0.558734 0.513099
Si Si3 0.625000 0.948088 0.125000
O O1 0.372971 0.470780 0.475273
O O2 0.133696 0.376021 0.442908
O O3 0.161402 0.504199 0.385747
O O4 0.876978 0.463931 0.474775
O O5 0.385521 0.592483 0.440461
#
# Coordination Sequence:
#
# PCOD9515556 Si02
#       3
#    32  32  16
#     4  10  21  43  66  98 138 180 233 289 344 419
#     4  10  21  41  67  97 141 180 230 292 349 417
#     4   8  24  39  68  94 145 172 234 280 365 394
#
# _framework density 31.210135999999999
#
# number of rings (size 3 to 8) (size 9 to 14) (size 15 to 20)
#    2.400    0.000    0.000    2.400    0.000    3.200 
#   14.400    0.000    0.000    4.800    0.000    0.000 
#    0.000    0.000    0.000    0.000    0.000    0.000 
#
# Total GULP energy -111538.552343 kJ/mol
# GULP energy per Si atom -5576.927617 kJ/mol
# Density = 3.113910 g / cm^3
# Si number density = 31.210136 Si / 1000 Ang^3
#
#
#
# Elastic Constant Matrix: (Units=GPa)
#
#
# Indices 1 2 3 4 5 6 
#
# 1 422.1087 33.8369 90.9100 0.0000 0.0000 0.0000
# 2 33.8369 194.5655 14.8567 0.0000 0.0000 0.0000
# 3 90.9100 14.8567 211.9809 0.0000 0.0000 0.0000
# 4 0.0000 0.0000 0.0000 28.6553 0.0000 0.0000
# 5 0.0000 0.0000 0.0000 0.0000 56.0480 0.0000
# 6 0.0000 0.0000 0.0000 0.0000 0.0000 124.4636
#
#
#
# Elastic Compliance Matrix: (Units=1/GPa)
#
#
# Indices 1 2 3 4 5 6 
#
# 1 0.002637 -0.000374 -0.001105 0.000000 0.000000 0.000000
# 2 -0.000374 0.005220 -0.000205 0.000000 0.000000 0.000000
# 3 -0.001105 -0.000205 0.005206 0.000000 0.000000 0.000000
# 4 0.000000 0.000000 0.000000 0.034898 0.000000 0.000000
# 5 0.000000 0.000000 0.000000 0.000000 0.017842 0.000000
# 6 0.000000 0.000000 0.000000 0.000000 0.000000 0.008034
#
#
# Mechanical properties :
#
#
# Convention : Reuss Voigt Hill
#
# Bulk Modulus (GPa) = 103.15259 123.09582 113.12420
# Shear Modulus (GPa) = 62.16060 87.77015 74.96538
#
# Velocity S-wave (km/s) = 4.46767 5.30880 4.90629
# Velocity P-wave (km/s) = 7.72891 8.78091 8.27166
#
# Compressibility (1/GPa) = 0.00969438
#
# Stress axis : x y z
#
# Youngs Moduli (GPa) = 379.22307 191.55529 192.10289
#
# Poissons Ratio (x) = 0.07169 0.21221
# Poissons Ratio (y) = 0.14192 0.03945
# Poissons Ratio (z) = 0.41891 0.03934
#
# Static dielectric constant tensor:
#      x y z
#    x 2.194330 0.000000 0.000000 
#    y 0.000000 2.569990 0.000000 
#    z 0.000000 0.000000 -4.441050 
# 
# From -- ./inp_files/55759.got.cif
#   From: 2010.05.17/outbox.cif.g08.bks.cpg/sg70_28_cif.got.tgz:55759.got - 2010.06.03 15:57:51.
