data_PCOD9515002
_publ_section_title
;
Structure prediction by ZEFSAII (Michael W. Deem and Ramdas Pophale) SiO2 
 PCOD9515002
Probable space group: F D D D
;
_chemical_formula_sum "Si O2"
_cell_formula_units_Z 160
_cell_length_a 18.864013
_cell_length_b 26.955401
_cell_length_c 14.578492
_cell_angle_alpha 90.000000
_cell_angle_beta 90.000000
_cell_angle_gamma 90.000000
_cell_volume 7412.974170
_symmetry_space_group_name_H-M "F D D D"
_symmetry_group_IT_number 70
_space_group.IT_coordinate_system_code '2'
_symmetry_cell_setting 'orthorhombic'
loop_
_space_group_symop_operation_xyz
x,y,z
1/4-x,1/4-y,z
x,1/4-y,1/4-z
1/4-x,y,1/4-z
-x,-y,-z
3/4+x,3/4+y,-z
-x,3/4+y,3/4+z
3/4+x,-y,3/4+z
x,1/2+y,1/2+z
1/4-x,3/4-y,1/2+z
x,3/4-y,3/4-z
1/4-x,1/2+y,3/4-z
-x,1/2-y,1/2-z
3/4+x,1/4+y,1/2-z
-x,1/4+y,1/4+z
3/4+x,1/2-y,1/4+z
1/2+x,y,1/2+z
3/4-x,1/4-y,1/2+z
1/2+x,1/4-y,3/4-z
3/4-x,y,3/4-z
1/2-x,-y,1/2-z
1/4+x,3/4+y,1/2-z
1/2-x,3/4+y,1/4+z
1/4+x,-y,1/4+z
1/2+x,1/2+y,z
3/4-x,3/4-y,z
1/2+x,3/4-y,1/4-z
3/4-x,1/2+y,1/4-z
1/2-x,1/2-y,-z
1/4+x,1/4+y,-z
1/2-x,1/4+y,3/4+z
1/4+x,1/2-y,3/4+z
loop_
_atom_site_type_symbol
_atom_site_label
_atom_site_fract_x
_atom_site_fract_y
_atom_site_fract_z
Si Si1 0.032717 0.538606 0.835934
Si Si2 0.941442 0.312894 0.213187
Si Si3 0.772254 0.208415 0.631247
Si Si4 0.295045 0.122154 0.849356
Si Si5 0.178266 0.323694 0.331840
O O1 0.109314 0.563101 0.813980
O O2 0.041932 0.480241 0.857734
O O3 0.989917 0.541487 0.739633
O O4 0.994155 0.569662 0.915984
O O5 0.967154 0.263069 0.161187
O O6 0.955971 0.311108 0.321831
O O7 0.994480 0.354508 0.176163
O O8 0.844604 0.180177 0.604130
O O9 0.375000 0.109537 0.875000
O O10 0.304869 0.164838 0.773791
O O11 0.206140 0.375000 0.375000
#
# Coordination Sequence:
#
# PCOD9515002 Si02
#       5
#    32  32  32  32  32
#     4  11  24  40  68 101 132 176 234 283 337 416
#     4  10  21  37  66  98 140 176 217 280 344 406
#     4  10  20  38  64 103 136 173 218 278 347 412
#     4  12  23  42  67  95 138 181 225 278 345 406
#     4  11  24  43  66  94 133 183 230 279 341 401
#
# _framework density 21.583779
#
# number of rings (size 3 to 8) (size 9 to 14) (size 15 to 20)
#    0.000    1.200    4.000    2.400    0.000    0.800 
#    0.000    2.000    0.000    0.000    0.000    0.000 
#    0.000    0.000    0.000    0.000    0.000    0.000 
#
# Total GULP energy -223043.169003 kJ/mol
# GULP energy per Si atom -5576.079225 kJ/mol
# Density = 2.153465 g / cm^3
# Si number density = 21.583779 Si / 1000 Ang^3
#
#
#
# Elastic Constant Matrix: (Units=GPa)
#
#
# Indices 1 2 3 4 5 6 
#
# 1 85.1542 56.0644 19.3864 0.0000 0.0000 0.0000
# 2 56.0644 131.5524 5.7159 0.0000 0.0000 0.0000
# 3 19.3864 5.7159 31.1388 0.0000 0.0000 0.0000
# 4 0.0000 0.0000 0.0000 32.2864 0.0000 0.0000
# 5 0.0000 0.0000 0.0000 0.0000 20.6204 0.0000
# 6 0.0000 0.0000 0.0000 0.0000 0.0000 25.6588
#
#
#
# Elastic Compliance Matrix: (Units=1/GPa)
#
#
# Indices 1 2 3 4 5 6 
#
# 1 0.019246 -0.007743 -0.010561 0.000000 0.000000 0.000000
# 2 -0.007743 0.010778 0.002842 0.000000 0.000000 0.000000
# 3 -0.010561 0.002842 0.038167 0.000000 0.000000 0.000000
# 4 0.000000 0.000000 0.000000 0.030973 0.000000 0.000000
# 5 0.000000 0.000000 0.000000 0.000000 0.048496 0.000000
# 6 0.000000 0.000000 0.000000 0.000000 0.000000 0.038973
#
#
# Mechanical properties :
#
#
# Convention : Reuss Voigt Hill
#
# Bulk Modulus (GPa) = 26.83263 45.57541 36.20402
# Shear Modulus (GPa) = 21.74122 26.82504 24.28313
#
# Velocity S-wave (km/s) = 3.17723 3.52921 3.35784
# Velocity P-wave (km/s) = 5.09103 6.14561 5.64301
#
# Compressibility (1/GPa) = 0.03726806
#
# Stress axis : x y z
#
# Youngs Moduli (GPa) = 51.95982 92.78180 26.20041
#
# Poissons Ratio (x) = 0.71842 0.27669
# Poissons Ratio (y) = 0.40233 -0.07447
# Poissons Ratio (z) = 0.54873 -0.26371
#
# Static dielectric constant tensor:
#      x y z
#    x 1.751650 0.000000 0.000000 
#    y 0.000000 1.857810 0.000000 
#    z 0.000000 0.000000 1.869030 
# 
# From -- ./inp_files/35096.got.cif
#   From: 2010.05.17/outbox.cif.g08.bks.cpg/sg70_18_cif.got.tgz:35096.got - 2010.06.03 15:57:51.
