data_PCOD9515462
_publ_section_title
;
Structure prediction by ZEFSAII (Michael W. Deem and Ramdas Pophale) SiO2 
 PCOD9515462
Probable space group: F D D D
;
_chemical_formula_sum "Si O2"
_cell_formula_units_Z 112
_cell_length_a 14.169636
_cell_length_b 16.460888
_cell_length_c 21.460365
_cell_angle_alpha 90.000000
_cell_angle_beta 90.000000
_cell_angle_gamma 90.000000
_cell_volume 5005.518353
_symmetry_space_group_name_H-M "F D D D"
_symmetry_group_IT_number 70
_space_group.IT_coordinate_system_code '2'
_symmetry_cell_setting 'orthorhombic'
loop_
_space_group_symop_operation_xyz
x,y,z
1/4-x,1/4-y,z
x,1/4-y,1/4-z
1/4-x,y,1/4-z
-x,-y,-z
3/4+x,3/4+y,-z
-x,3/4+y,3/4+z
3/4+x,-y,3/4+z
x,1/2+y,1/2+z
1/4-x,3/4-y,1/2+z
x,3/4-y,3/4-z
1/4-x,1/2+y,3/4-z
-x,1/2-y,1/2-z
3/4+x,1/4+y,1/2-z
-x,1/4+y,1/4+z
3/4+x,1/2-y,1/4+z
1/2+x,y,1/2+z
3/4-x,1/4-y,1/2+z
1/2+x,1/4-y,3/4-z
3/4-x,y,3/4-z
1/2-x,-y,1/2-z
1/4+x,3/4+y,1/2-z
1/2-x,3/4+y,1/4+z
1/4+x,-y,1/4+z
1/2+x,1/2+y,z
3/4-x,3/4-y,z
1/2+x,3/4-y,1/4-z
3/4-x,1/2+y,1/4-z
1/2-x,1/2-y,-z
1/4+x,1/4+y,-z
1/2-x,1/4+y,3/4+z
1/4+x,1/2-y,3/4+z
loop_
_atom_site_type_symbol
_atom_site_label
_atom_site_fract_x
_atom_site_fract_y
_atom_site_fract_z
Si Si1 0.375000 0.875000 0.471246
Si Si2 0.773336 0.451573 0.910430
Si Si3 0.963243 0.043009 0.800667
Si Si4 0.241027 0.861837 0.576502
O O1 0.429070 0.800148 0.441003
O O2 0.299358 0.834779 0.517132
O O3 0.725032 0.375000 0.875000
O O4 0.875000 0.455625 0.875000
O O5 0.738763 0.544189 0.907588
O O6 0.765686 0.438673 0.985564
O O7 0.019799 0.062745 0.862647
O O8 0.868567 0.097873 0.808099
#
# Coordination Sequence:
#
# PCOD9515462 Si02
#       4
#    16  32  32  32
#     4  10  22  39  62  94 123 164 214 258 326 368
#     4  10  21  40  60  91 124 165 209 256 319 378
#     4  10  21  40  63  88 126 165 207 270 306 382
#     4  10  21  42  62  90 125 164 214 266 312 379
#
# _framework density 22.375304
#
# number of rings (size 3 to 8) (size 9 to 14) (size 15 to 20)
#    0.000    2.000    2.857    0.857    0.000    5.714 
#   20.571    0.000    0.000    0.000    0.000    0.000 
#    0.000    0.000    0.000    0.000    0.000    0.000 
#
# Total GULP energy -155924.018900 kJ/mol
# GULP energy per Si atom -5568.714961 kJ/mol
# Density = 2.232438 g / cm^3
# Si number density = 22.375304 Si / 1000 Ang^3
#
#
#
# Elastic Constant Matrix: (Units=GPa)
#
#
# Indices 1 2 3 4 5 6 
#
# 1 61.2170 -2.2227 16.3812 0.0000 0.0000 0.0000
# 2 -2.2227 152.3782 50.8733 0.0000 0.0000 0.0000
# 3 16.3812 50.8733 140.6290 0.0000 0.0000 0.0000
# 4 0.0000 0.0000 0.0000 37.4548 0.0000 0.0000
# 5 0.0000 0.0000 0.0000 0.0000 40.1840 0.0000
# 6 0.0000 0.0000 0.0000 0.0000 0.0000 -14.8790
#
#
#
# Elastic Compliance Matrix: (Units=1/GPa)
#
#
# Indices 1 2 3 4 5 6 
#
# 1 0.017003 0.001034 -0.002355 0.000000 0.000000 0.000000
# 2 0.001034 0.007527 -0.002843 0.000000 0.000000 0.000000
# 3 -0.002355 -0.002843 0.008414 0.000000 0.000000 0.000000
# 4 0.000000 0.000000 0.000000 0.026699 0.000000 0.000000
# 5 0.000000 0.000000 0.000000 0.000000 0.024886 0.000000
# 6 0.000000 0.000000 0.000000 0.000000 0.000000 -0.067209
#
#
# Mechanical properties :
#
#
# Convention : Reuss Voigt Hill
#
# Bulk Modulus (GPa) = 40.62412 53.80976 47.21694
# Shear Modulus (GPa) = 147.69848 31.83146 89.76497
#
# Velocity S-wave (km/s) = 8.13344 3.77585 6.34074
# Velocity P-wave (km/s) = 10.31499 6.56584 8.64608
#
# Compressibility (1/GPa) = 0.02461592
#
# Stress axis : x y z
#
# Youngs Moduli (GPa) = 58.81317 132.85499 118.85222
#
# Poissons Ratio (x) = -0.13739 0.27986
# Poissons Ratio (y) = -0.06082 0.33794
# Poissons Ratio (z) = 0.13849 0.37776
#
# Static dielectric constant tensor:
#      x y z
#    x 1.896270 0.000000 0.000000 
#    y 0.000000 1.880280 0.000000 
#    z 0.000000 0.000000 1.858410 
# 
# From -- ./inp_files/26240.got.cif
#   From: 2010.05.17/outbox.cif.g08.bks.cpg/sg70_14_cif.got.tgz:26240.got - 2010.06.03 15:57:51.
