data_PCOD9515582
_publ_section_title
;
Structure prediction by ZEFSAII (Michael W. Deem and Ramdas Pophale) SiO2 
 PCOD9515582
Probable space group: F D D D
;
_chemical_formula_sum "Si O2"
_cell_formula_units_Z 144
_cell_length_a 16.215331
_cell_length_b 24.474938
_cell_length_c 17.153388
_cell_angle_alpha 90.000000
_cell_angle_beta 90.000000
_cell_angle_gamma 90.000000
_cell_volume 6807.651731
_symmetry_space_group_name_H-M "F D D D"
_symmetry_group_IT_number 70
_space_group.IT_coordinate_system_code '2'
_symmetry_cell_setting 'orthorhombic'
loop_
_space_group_symop_operation_xyz
x,y,z
1/4-x,1/4-y,z
x,1/4-y,1/4-z
1/4-x,y,1/4-z
-x,-y,-z
3/4+x,3/4+y,-z
-x,3/4+y,3/4+z
3/4+x,-y,3/4+z
x,1/2+y,1/2+z
1/4-x,3/4-y,1/2+z
x,3/4-y,3/4-z
1/4-x,1/2+y,3/4-z
-x,1/2-y,1/2-z
3/4+x,1/4+y,1/2-z
-x,1/4+y,1/4+z
3/4+x,1/2-y,1/4+z
1/2+x,y,1/2+z
3/4-x,1/4-y,1/2+z
1/2+x,1/4-y,3/4-z
3/4-x,y,3/4-z
1/2-x,-y,1/2-z
1/4+x,3/4+y,1/2-z
1/2-x,3/4+y,1/4+z
1/4+x,-y,1/4+z
1/2+x,1/2+y,z
3/4-x,3/4-y,z
1/2+x,3/4-y,1/4-z
3/4-x,1/2+y,1/4-z
1/2-x,1/2-y,-z
1/4+x,1/4+y,-z
1/2-x,1/4+y,3/4+z
1/4+x,1/2-y,3/4+z
loop_
_atom_site_type_symbol
_atom_site_label
_atom_site_fract_x
_atom_site_fract_y
_atom_site_fract_z
Si Si1 0.353168 0.816015 0.284430
Si Si2 0.984302 0.567251 0.146311
Si Si3 0.376486 0.196963 0.780736
Si Si4 0.585769 0.332971 0.974111
Si Si5 0.125000 0.980421 0.625000
O O1 0.375000 0.819500 0.375000
O O2 0.375000 0.875000 0.247476
O O3 0.394872 0.759669 0.255582
O O4 0.254754 0.808482 0.283871
O O5 0.024517 0.625000 0.125000
O O6 0.960518 0.565206 0.237450
O O7 0.898775 0.569034 0.095955
O O8 0.044179 0.518193 0.126123
O O9 0.375000 0.193918 0.875000
O O10 0.428492 0.147476 0.743109
O O11 0.626974 0.307548 0.049974
#
# Coordination Sequence:
#
# PCOD9515582 Si02
#       5
#    32  32  32  32  16
#     4  10  23  41  63  96 130 172 222 269 325 399
#     4  10  23  40  70  95 124 179 214 268 340 388
#     4  10  21  42  63  96 130 172 217 271 329 388
#     4  11  23  42  67  95 133 176 215 277 336 380
#     4  12  21  44  66  94 135 164 226 278 318 402
#
# _framework density 21.152667999999998
#
# number of rings (size 3 to 8) (size 9 to 14) (size 15 to 20)
#    0.000    1.556    3.333    1.000    9.333    0.889 
#    4.000    0.000    0.000    0.000    0.000    0.000 
#    0.000    0.000    0.000    0.000    0.000    0.000 
#
# Total GULP energy -200623.504798 kJ/mol
# GULP energy per Si atom -5572.875133 kJ/mol
# Density = 2.110452 g / cm^3
# Si number density = 21.152668 Si / 1000 Ang^3
#
#
#
# Elastic Constant Matrix: (Units=GPa)
#
#
# Indices 1 2 3 4 5 6 
#
# 1 79.2681 15.1024 28.4235 0.0000 0.0000 0.0000
# 2 15.1024 152.4822 30.8915 0.0000 0.0000 0.0000
# 3 28.4235 30.8915 117.7743 0.0000 0.0000 0.0000
# 4 0.0000 0.0000 0.0000 -19.9120 0.0000 0.0000
# 5 0.0000 0.0000 0.0000 0.0000 18.6802 0.0000
# 6 0.0000 0.0000 0.0000 0.0000 0.0000 27.3906
#
#
#
# Elastic Compliance Matrix: (Units=1/GPa)
#
#
# Indices 1 2 3 4 5 6 
#
# 1 0.013888 -0.000736 -0.003159 0.000000 0.000000 0.000000
# 2 -0.000736 0.006965 -0.001649 0.000000 0.000000 0.000000
# 3 -0.003159 -0.001649 0.009686 0.000000 0.000000 0.000000
# 4 0.000000 0.000000 0.000000 -0.050221 0.000000 0.000000
# 5 0.000000 0.000000 0.000000 0.000000 0.053533 0.000000
# 6 0.000000 0.000000 0.000000 0.000000 0.000000 0.036509
#
#
# Mechanical properties :
#
#
# Convention : Reuss Voigt Hill
#
# Bulk Modulus (GPa) = 51.40976 55.37326 53.39151
# Shear Modulus (GPa) = 56.86259 23.57223 40.21741
#
# Velocity S-wave (km/s) = 5.19041 3.34186 4.36511
# Velocity P-wave (km/s) = 7.76385 6.41291 7.12049
#
# Compressibility (1/GPa) = 0.01945156
#
# Stress axis : x y z
#
# Youngs Moduli (GPa) = 72.00338 143.57195 103.24406
#
# Poissons Ratio (x) = 0.10561 0.32613
# Poissons Ratio (y) = 0.05296 0.17029
# Poissons Ratio (z) = 0.22745 0.23681
#
# Static dielectric constant tensor:
#      x y z
#    x 1.760350 0.000000 0.000000 
#    y 0.000000 1.859730 0.000000 
#    z 0.000000 0.000000 1.710700 
# 
# From -- ./inp_files/34902.got.cif
#   From: 2010.05.17/outbox.cif.g08.bks.cpg/sg70_18_cif.got.tgz:34902.got - 2010.06.03 15:57:51.
