data_PCOD9515319
_publ_section_title
;
Structure prediction by ZEFSAII (Michael W. Deem and Ramdas Pophale) SiO2 
 PCOD9515319
Probable space group: F D D D
;
_chemical_formula_sum "Si O2"
_cell_formula_units_Z 176
_cell_length_a 15.235159
_cell_length_b 27.733831
_cell_length_c 17.829662
_cell_angle_alpha 90.000000
_cell_angle_beta 90.000000
_cell_angle_gamma 90.000000
_cell_volume 7533.555049
_symmetry_space_group_name_H-M "F D D D"
_symmetry_group_IT_number 70
_space_group.IT_coordinate_system_code '2'
_symmetry_cell_setting 'orthorhombic'
loop_
_space_group_symop_operation_xyz
x,y,z
1/4-x,1/4-y,z
x,1/4-y,1/4-z
1/4-x,y,1/4-z
-x,-y,-z
3/4+x,3/4+y,-z
-x,3/4+y,3/4+z
3/4+x,-y,3/4+z
x,1/2+y,1/2+z
1/4-x,3/4-y,1/2+z
x,3/4-y,3/4-z
1/4-x,1/2+y,3/4-z
-x,1/2-y,1/2-z
3/4+x,1/4+y,1/2-z
-x,1/4+y,1/4+z
3/4+x,1/2-y,1/4+z
1/2+x,y,1/2+z
3/4-x,1/4-y,1/2+z
1/2+x,1/4-y,3/4-z
3/4-x,y,3/4-z
1/2-x,-y,1/2-z
1/4+x,3/4+y,1/2-z
1/2-x,3/4+y,1/4+z
1/4+x,-y,1/4+z
1/2+x,1/2+y,z
3/4-x,3/4-y,z
1/2+x,3/4-y,1/4-z
3/4-x,1/2+y,1/4-z
1/2-x,1/2-y,-z
1/4+x,1/4+y,-z
1/2-x,1/4+y,3/4+z
1/4+x,1/2-y,3/4+z
loop_
_atom_site_type_symbol
_atom_site_label
_atom_site_fract_x
_atom_site_fract_y
_atom_site_fract_z
Si Si1 0.792860 0.647639 0.793089
Si Si2 0.051327 0.301814 0.890720
Si Si3 0.114914 0.209816 0.984963
Si Si4 0.375000 0.514943 0.875000
Si Si5 0.375000 0.494045 0.375000
Si Si6 0.671493 0.429003 0.498730
Si Si7 0.875000 0.375000 0.127903
O O1 0.777372 0.661188 0.706571
O O2 0.806872 0.698581 0.835462
O O3 0.884325 0.618199 0.790869
O O4 0.711839 0.617402 0.827137
O O5 0.120488 0.318067 0.829196
O O6 0.959832 0.286655 0.854062
O O7 0.091214 0.254947 0.932266
O O8 0.162005 0.231315 0.058296
O O9 0.024636 0.184584 0.013203
O O10 0.152564 0.168996 0.931433
O O11 0.353065 0.527100 0.446304
#
# Coordination Sequence:
#
# PCOD9515319 Si02
#       7
#    32  32  32  16  16  32  16
#     4  11  24  42  67  99 138 179 221 289 348 415
#     4  10  23  39  66  99 130 176 222 278 343 421
#     4  10  25  44  70  99 130 184 231 295 349 418
#     4  10  23  49  68  98 133 181 240 283 348 411
#     4  10  21  36  67  92 131 173 216 273 338 423
#     4  11  22  45  64  99 136 177 226 281 358 410
#     4  12  26  43  69 104 142 182 234 286 360 425
#
# _framework density 23.362144000000001
#
# number of rings (size 3 to 8) (size 9 to 14) (size 15 to 20)
#    0.000    1.455    0.000    4.909   10.182    1.091 
#    9.818    0.000    0.000    0.000    0.000    0.000 
#    0.000    0.000    0.000    0.000    0.000    0.000 
#
# Total GULP energy -246024.351710 kJ/mol
# GULP energy per Si atom -5591.462539 kJ/mol
# Density = 2.330897 g / cm^3
# Si number density = 23.362144 Si / 1000 Ang^3
#
#
#
# Elastic Constant Matrix: (Units=GPa)
#
#
# Indices 1 2 3 4 5 6 
#
# 1 59.1493 5.6432 29.1188 0.0000 0.0000 0.0000
# 2 5.6432 78.3612 27.6395 0.0000 0.0000 0.0000
# 3 29.1188 27.6395 124.3122 0.0000 0.0000 0.0000
# 4 0.0000 0.0000 0.0000 24.7735 0.0000 0.0000
# 5 0.0000 0.0000 0.0000 0.0000 35.7572 0.0000
# 6 0.0000 0.0000 0.0000 0.0000 0.0000 36.1106
#
#
#
# Elastic Compliance Matrix: (Units=1/GPa)
#
#
# Indices 1 2 3 4 5 6 
#
# 1 0.019114 0.000220 -0.004526 0.000000 0.000000 0.000000
# 2 0.000220 0.013850 -0.003131 0.000000 0.000000 0.000000
# 3 -0.004526 -0.003131 0.009801 0.000000 0.000000 0.000000
# 4 0.000000 0.000000 0.000000 0.040366 0.000000 0.000000
# 5 0.000000 0.000000 0.000000 0.000000 0.027966 0.000000
# 6 0.000000 0.000000 0.000000 0.000000 0.000000 0.027693
#
#
# Mechanical properties :
#
#
# Convention : Reuss Voigt Hill
#
# Bulk Modulus (GPa) = 35.85513 42.95842 39.40678
# Shear Modulus (GPa) = 30.68246 32.62299 31.65272
#
# Velocity S-wave (km/s) = 3.62794 3.74090 3.68485
# Velocity P-wave (km/s) = 5.73847 6.08992 5.91681
#
# Compressibility (1/GPa) = 0.02789001
#
# Stress axis : x y z
#
# Youngs Moduli (GPa) = 52.31894 72.20262 102.03489
#
# Poissons Ratio (x) = -0.01588 0.46182
# Poissons Ratio (y) = -0.01151 0.31946
# Poissons Ratio (z) = 0.23680 0.22606
#
# Static dielectric constant tensor:
#      x y z
#    x 1.869430 0.000000 0.000000 
#    y 0.000000 1.909410 0.000000 
#    z 0.000000 0.000000 1.882080 
# 
# From -- ./inp_files/35309.got.cif
#   From: 2010.05.17/outbox.cif.g08.bks.cpg/sg70_18_cif.got.tgz:35309.got - 2010.06.03 15:57:51.
