data_PCOD9515154
_publ_section_title
;
Structure prediction by ZEFSAII (Michael W. Deem and Ramdas Pophale) SiO2 
 PCOD9515154
Probable space group: F D D D
;
_chemical_formula_sum "Si O2"
_cell_formula_units_Z 176
_cell_length_a 15.187119
_cell_length_b 27.784556
_cell_length_c 21.537959
_cell_angle_alpha 90.000000
_cell_angle_beta 90.000000
_cell_angle_gamma 90.000000
_cell_volume 9088.315663
_symmetry_space_group_name_H-M "F D D D"
_symmetry_group_IT_number 70
_space_group.IT_coordinate_system_code '2'
_symmetry_cell_setting 'orthorhombic'
loop_
_space_group_symop_operation_xyz
x,y,z
1/4-x,1/4-y,z
x,1/4-y,1/4-z
1/4-x,y,1/4-z
-x,-y,-z
3/4+x,3/4+y,-z
-x,3/4+y,3/4+z
3/4+x,-y,3/4+z
x,1/2+y,1/2+z
1/4-x,3/4-y,1/2+z
x,3/4-y,3/4-z
1/4-x,1/2+y,3/4-z
-x,1/2-y,1/2-z
3/4+x,1/4+y,1/2-z
-x,1/4+y,1/4+z
3/4+x,1/2-y,1/4+z
1/2+x,y,1/2+z
3/4-x,1/4-y,1/2+z
1/2+x,1/4-y,3/4-z
3/4-x,y,3/4-z
1/2-x,-y,1/2-z
1/4+x,3/4+y,1/2-z
1/2-x,3/4+y,1/4+z
1/4+x,-y,1/4+z
1/2+x,1/2+y,z
3/4-x,3/4-y,z
1/2+x,3/4-y,1/4-z
3/4-x,1/2+y,1/4-z
1/2-x,1/2-y,-z
1/4+x,1/4+y,-z
1/2-x,1/4+y,3/4+z
1/4+x,1/2-y,3/4+z
loop_
_atom_site_type_symbol
_atom_site_label
_atom_site_fract_x
_atom_site_fract_y
_atom_site_fract_z
Si Si1 0.637548 0.677859 0.731261
Si Si2 0.375000 0.375000 0.703287
Si Si3 0.583176 0.422758 0.223350
Si Si4 0.625000 0.753209 0.625000
Si Si5 0.245877 0.585790 0.346473
Si Si6 0.261192 0.802328 0.469058
Si Si7 0.125000 0.505879 0.625000
O O1 0.625000 0.625000 0.702681
O O2 0.740817 0.682296 0.743884
O O3 0.613746 0.719856 0.684824
O O4 0.578673 0.676585 0.794408
O O5 0.298014 0.360719 0.655715
O O6 0.336879 0.417602 0.745730
O O7 0.564392 0.373150 0.185734
O O8 0.668026 0.421301 0.268435
O O9 0.596146 0.468429 0.178146
O O10 0.708021 0.788492 0.622186
O O11 0.250000 0.750000 0.500000
O O12 0.296547 0.789593 0.400582
#
# Coordination Sequence:
#
# PCOD9515154 Si02
#       7
#    32  16  32  16  32  32  16
#     4  10  23  41  64  88 130 163 205 263 327 371
#     4  12  22  41  66  91 132 166 222 266 328 380
#     4  10  20  41  64  90 124 175 212 257 325 390
#     4  12  24  36  66  93 123 154 220 264 318 376
#     4  11  22  40  64  93 120 169 216 269 305 398
#     4  10  23  37  65  94 127 173 211 267 330 387
#     4  10  21  37  62  93 135 156 223 265 322 384
#
# _framework density 19.365524000000001
#
# number of rings (size 3 to 8) (size 9 to 14) (size 15 to 20)
#    0.000    1.455    2.727    4.636    5.091    0.364 
#    0.000    0.000   12.000    0.000    0.000    0.000 
#    0.000    0.000    0.000    0.000    0.000    0.000 
#
# Total GULP energy -245387.995913 kJ/mol
# GULP energy per Si atom -5576.999907 kJ/mol
# Density = 1.932145 g / cm^3
# Si number density = 19.365524 Si / 1000 Ang^3
#
#
#
# Elastic Constant Matrix: (Units=GPa)
#
#
# Indices 1 2 3 4 5 6 
#
# 1 96.6688 23.8576 21.6587 0.0000 0.0000 0.0000
# 2 23.8576 93.6542 23.2943 0.0000 0.0000 0.0000
# 3 21.6587 23.2943 57.5226 0.0000 0.0000 0.0000
# 4 0.0000 0.0000 0.0000 11.6859 0.0000 0.0000
# 5 0.0000 0.0000 0.0000 0.0000 22.7536 0.0000
# 6 0.0000 0.0000 0.0000 0.0000 0.0000 0.2720
#
#
#
# Elastic Compliance Matrix: (Units=1/GPa)
#
#
# Indices 1 2 3 4 5 6 
#
# 1 0.011653 -0.002088 -0.003542 0.000000 0.000000 0.000000
# 2 -0.002088 0.012247 -0.004174 0.000000 0.000000 0.000000
# 3 -0.003542 -0.004174 0.020408 0.000000 0.000000 0.000000
# 4 0.000000 0.000000 0.000000 0.085573 0.000000 0.000000
# 5 0.000000 0.000000 0.000000 0.000000 0.043949 0.000000
# 6 0.000000 0.000000 0.000000 0.000000 0.000000 3.676406
#
#
# Mechanical properties :
#
#
# Convention : Reuss Voigt Hill
#
# Bulk Modulus (GPa) = 40.48253 42.82966 41.65610
# Shear Modulus (GPa) = 1.28930 18.87797 10.08364
#
# Velocity S-wave (km/s) = 0.81683 3.12560 2.28436
# Velocity P-wave (km/s) = 4.67327 5.93214 5.33993
#
# Compressibility (1/GPa) = 0.02470201
#
# Stress axis : x y z
#
# Youngs Moduli (GPa) = 85.81125 81.64945 48.99920
#
# Poissons Ratio (x) = 0.17044 0.17358
# Poissons Ratio (y) = 0.17913 0.20451
# Poissons Ratio (z) = 0.30398 0.34078
#
# Static dielectric constant tensor:
#      x y z
#    x 4.551940 0.000000 0.000000 
#    y 0.000000 1.648580 0.000000 
#    z 0.000000 0.000000 1.726920 
# 
# From -- ./inp_files/51381.got.cif
#   From: 2010.05.17/outbox.cif.g08.bks.cpg/sg70_26_cif.got.tgz:51381.got - 2010.06.03 15:57:51.
