data_PCOD9515696
_publ_section_title
;
Structure prediction by ZEFSAII (Michael W. Deem and Ramdas Pophale) SiO2 
 PCOD9515696
Probable space group: F D D D
;
_chemical_formula_sum "Si O2"
_cell_formula_units_Z 152
_cell_length_a 21.970240
_cell_length_b 24.506395
_cell_length_c 15.328629
_cell_angle_alpha 90.000000
_cell_angle_beta 90.000000
_cell_angle_gamma 90.000000
_cell_volume 8253.108289
_symmetry_space_group_name_H-M "F D D D"
_symmetry_group_IT_number 70
_space_group.IT_coordinate_system_code '2'
_symmetry_cell_setting 'orthorhombic'
loop_
_space_group_symop_operation_xyz
x,y,z
1/4-x,1/4-y,z
x,1/4-y,1/4-z
1/4-x,y,1/4-z
-x,-y,-z
3/4+x,3/4+y,-z
-x,3/4+y,3/4+z
3/4+x,-y,3/4+z
x,1/2+y,1/2+z
1/4-x,3/4-y,1/2+z
x,3/4-y,3/4-z
1/4-x,1/2+y,3/4-z
-x,1/2-y,1/2-z
3/4+x,1/4+y,1/2-z
-x,1/4+y,1/4+z
3/4+x,1/2-y,1/4+z
1/2+x,y,1/2+z
3/4-x,1/4-y,1/2+z
1/2+x,1/4-y,3/4-z
3/4-x,y,3/4-z
1/2-x,-y,1/2-z
1/4+x,3/4+y,1/2-z
1/2-x,3/4+y,1/4+z
1/4+x,-y,1/4+z
1/2+x,1/2+y,z
3/4-x,3/4-y,z
1/2+x,3/4-y,1/4-z
3/4-x,1/2+y,1/4-z
1/2-x,1/2-y,-z
1/4+x,1/4+y,-z
1/2-x,1/4+y,3/4+z
1/4+x,1/2-y,3/4+z
loop_
_atom_site_type_symbol
_atom_site_label
_atom_site_fract_x
_atom_site_fract_y
_atom_site_fract_z
Si Si1 0.720341 0.248365 0.862604
Si Si2 0.375000 0.765880 0.375000
Si Si3 0.261498 0.836358 0.985262
Si Si4 0.756109 0.705128 0.808978
Si Si5 0.852048 0.436825 0.192688
Si Si6 0.625000 0.625000 0.625000
O O1 0.722018 0.305657 0.912803
O O2 0.759004 0.255434 0.773657
O O3 0.653400 0.229090 0.837842
O O4 0.741420 0.202687 0.930734
O O5 0.430341 0.727806 0.405916
O O6 0.401005 0.802824 0.296183
O O7 0.328741 0.842436 0.939660
O O8 0.240669 0.895396 0.016108
O O9 0.707567 0.699925 0.886517
O O10 0.875000 0.375000 0.175383
#
# Coordination Sequence:
#
# PCOD9515696 Si02
#       6
#    32  16  32  32  32   8
#     4  10  22  36  58  93 123 155 212 262 304 368
#     4  10  25  40  63  92 124 159 209 268 316 378
#     4  11  21  37  59  94 126 161 208 257 309 383
#     4  11  21  42  61  89 125 166 205 259 321 374
#     4  11  21  41  67  88 118 165 214 260 311 387
#     4  12  20  36  70  88 124 176 208 254 324 384
#
# _framework density 18.417304000000001
#
# number of rings (size 3 to 8) (size 9 to 14) (size 15 to 20)
#    0.000    1.263    4.211    2.211    0.000    0.000 
#    3.789    0.000    0.000    0.000    0.000    0.000 
#    0.000    0.000    0.000    0.000    0.000    0.000 
#
# Total GULP energy -211759.254539 kJ/mol
# GULP energy per Si atom -5572.611962 kJ/mol
# Density = 1.837538 g / cm^3
# Si number density = 18.417304 Si / 1000 Ang^3
#
#
#
# Elastic Constant Matrix: (Units=GPa)
#
#
# Indices 1 2 3 4 5 6 
#
# 1 71.3978 53.2370 58.5060 0.0000 0.0000 0.0000
# 2 53.2370 91.2235 57.3697 0.0000 0.0000 0.0000
# 3 58.5060 57.3697 161.6887 0.0000 0.0000 0.0000
# 4 0.0000 0.0000 0.0000 21.5643 0.0000 0.0000
# 5 0.0000 0.0000 0.0000 0.0000 35.8617 0.0000
# 6 0.0000 0.0000 0.0000 0.0000 0.0000 27.6686
#
#
#
# Elastic Compliance Matrix: (Units=1/GPa)
#
#
# Indices 1 2 3 4 5 6 
#
# 1 0.028294 -0.012967 -0.005637 0.000000 0.000000 0.000000
# 2 -0.012967 0.020053 -0.002423 0.000000 0.000000 0.000000
# 3 -0.005637 -0.002423 0.009084 0.000000 0.000000 0.000000
# 4 0.000000 0.000000 0.000000 0.046373 0.000000 0.000000
# 5 0.000000 0.000000 0.000000 0.000000 0.027885 0.000000
# 6 0.000000 0.000000 0.000000 0.000000 0.000000 0.036142
#
#
# Mechanical properties :
#
#
# Convention : Reuss Voigt Hill
#
# Bulk Modulus (GPa) = 65.03197 73.61504 69.32350
# Shear Modulus (GPa) = 23.25456 27.36542 25.30999
#
# Velocity S-wave (km/s) = 3.55723 3.85886 3.71111
# Velocity P-wave (km/s) = 7.22902 7.74027 7.48901
#
# Compressibility (1/GPa) = 0.01537705
#
# Stress axis : x y z
#
# Youngs Moduli (GPa) = 35.34333 49.86689 110.08007
#
# Poissons Ratio (x) = 0.64662 0.62053
# Poissons Ratio (y) = 0.45829 0.26675
# Poissons Ratio (z) = 0.19923 0.12084
#
# Static dielectric constant tensor:
#      x y z
#    x 1.602820 0.000000 0.000000 
#    y 0.000000 1.624290 0.000000 
#    z 0.000000 0.000000 1.716430 
# 
# From -- ./inp_files/27629.got.cif
#   From: 2010.05.17/outbox.cif.g08.bks.cpg/sg70_14_cif.got.tgz:27629.got - 2010.06.03 15:57:51.
