data_PCOD9515382
_publ_section_title
;
Structure prediction by ZEFSAII (Michael W. Deem and Ramdas Pophale) SiO2 
 PCOD9515382
Probable space group: F D D D
;
_chemical_formula_sum "Si O2"
_cell_formula_units_Z 216
_cell_length_a 12.298982
_cell_length_b 29.887250
_cell_length_c 27.693327
_cell_angle_alpha 90.000000
_cell_angle_beta 90.000000
_cell_angle_gamma 90.000000
_cell_volume 10179.589289
_symmetry_space_group_name_H-M "F D D D"
_symmetry_group_IT_number 70
_space_group.IT_coordinate_system_code '2'
_symmetry_cell_setting 'orthorhombic'
loop_
_space_group_symop_operation_xyz
x,y,z
1/4-x,1/4-y,z
x,1/4-y,1/4-z
1/4-x,y,1/4-z
-x,-y,-z
3/4+x,3/4+y,-z
-x,3/4+y,3/4+z
3/4+x,-y,3/4+z
x,1/2+y,1/2+z
1/4-x,3/4-y,1/2+z
x,3/4-y,3/4-z
1/4-x,1/2+y,3/4-z
-x,1/2-y,1/2-z
3/4+x,1/4+y,1/2-z
-x,1/4+y,1/4+z
3/4+x,1/2-y,1/4+z
1/2+x,y,1/2+z
3/4-x,1/4-y,1/2+z
1/2+x,1/4-y,3/4-z
3/4-x,y,3/4-z
1/2-x,-y,1/2-z
1/4+x,3/4+y,1/2-z
1/2-x,3/4+y,1/4+z
1/4+x,-y,1/4+z
1/2+x,1/2+y,z
3/4-x,3/4-y,z
1/2+x,3/4-y,1/4-z
3/4-x,1/2+y,1/4-z
1/2-x,1/2-y,-z
1/4+x,1/4+y,-z
1/2-x,1/4+y,3/4+z
1/4+x,1/2-y,3/4+z
loop_
_atom_site_type_symbol
_atom_site_label
_atom_site_fract_x
_atom_site_fract_y
_atom_site_fract_z
Si Si1 0.625000 0.868865 0.125000
Si Si2 0.604632 0.555062 0.498414
Si Si3 0.528962 0.078730 0.156244
Si Si4 0.361615 0.048681 0.015124
Si Si5 0.964678 0.836685 0.058986
Si Si6 0.184437 0.049394 0.389095
Si Si7 0.625000 0.125000 0.625000
Si Si8 0.050320 0.800442 0.872780
O O1 0.670143 0.897312 0.080815
O O2 0.726233 0.837527 0.135738
O O3 0.676993 0.579491 0.539020
O O4 0.480003 0.569750 0.505508
O O5 0.620356 0.501558 0.505435
O O6 0.636830 0.557068 0.442360
O O7 0.514649 0.125000 0.125000
O O8 0.625000 0.054638 0.125000
O O9 0.411959 0.055754 0.156620
O O10 0.251452 0.064745 0.990137
O O11 0.338778 0.056278 0.071622
O O12 0.875000 0.875000 0.050343
O O13 0.909965 0.806632 0.099980
O O14 0.235839 0.001342 0.375562
O O15 0.713011 0.162392 0.605680
#
# Coordination Sequence:
#
# PCOD9515382 Si02
#       8
#    16  32  32  32  32  32   8  32
#     4  10  21  40  58  91 124 161 212 262 321 382
#     4  10  21  38  64  92 127 163 215 263 335 386
#     4  11  22  40  60  95 130 165 210 280 333 384
#     4  10  21  38  61  95 123 167 210 270 320 403
#     4  10  21  38  62  89 127 166 209 269 327 383
#     4  10  22  41  64  94 127 172 215 273 327 400
#     4  12  26  44  66  92 128 192 212 274 322 396
#     4  11  23  42  64  91 131 170 228 263 328 397
#
# _framework density 21.218931000000001
#
# number of rings (size 3 to 8) (size 9 to 14) (size 15 to 20)
#    0.000    1.630    2.222    2.222    1.037    1.185 
#   10.667    0.000    0.000    7.111    0.000    0.000 
#    0.000    0.000    0.000    0.000    0.000    0.000 
#
# Total GULP energy -300722.710590 kJ/mol
# GULP energy per Si atom -5568.939085 kJ/mol
# Density = 2.117064 g / cm^3
# Si number density = 21.218931 Si / 1000 Ang^3
#
#
#
# Elastic Constant Matrix: (Units=GPa)
#
#
# Indices 1 2 3 4 5 6 
#
# 1 97.9355 15.0220 24.8183 0.0000 0.0000 0.0000
# 2 15.0220 54.0681 23.4513 0.0000 0.0000 0.0000
# 3 24.8183 23.4513 77.2012 0.0000 0.0000 0.0000
# 4 0.0000 0.0000 0.0000 -44.9060 0.0000 0.0000
# 5 0.0000 0.0000 0.0000 0.0000 26.4782 0.0000
# 6 0.0000 0.0000 0.0000 0.0000 0.0000 11.3189
#
#
#
# Elastic Compliance Matrix: (Units=1/GPa)
#
#
# Indices 1 2 3 4 5 6 
#
# 1 0.011266 -0.001796 -0.003076 0.000000 0.000000 0.000000
# 2 -0.001796 0.021588 -0.005980 0.000000 0.000000 0.000000
# 3 -0.003076 -0.005980 0.015759 0.000000 0.000000 0.000000
# 4 0.000000 0.000000 0.000000 -0.022269 0.000000 0.000000
# 5 0.000000 0.000000 0.000000 0.000000 0.037767 0.000000
# 6 0.000000 0.000000 0.000000 0.000000 0.000000 0.088348
#
#
# Mechanical properties :
#
#
# Convention : Reuss Voigt Hill
#
# Bulk Modulus (GPa) = 37.16401 39.53202 38.34801
# Shear Modulus (GPa) = 27.30261 9.63911 18.47086
#
# Velocity S-wave (km/s) = 3.59097 2.13367 2.95361
# Velocity P-wave (km/s) = 5.89457 4.97404 5.45376
#
# Compressibility (1/GPa) = 0.02690775
#
# Stress axis : x y z
#
# Youngs Moduli (GPa) = 88.76426 46.32190 63.45675
#
# Poissons Ratio (x) = 0.08318 0.19520
# Poissons Ratio (y) = 0.15940 0.37950
# Poissons Ratio (z) = 0.27306 0.27703
#
# Static dielectric constant tensor:
#      x y z
#    x 1.773490 0.000000 0.000000 
#    y 0.000000 1.968350 0.000000 
#    z 0.000000 0.000000 1.842430 
# 
# From -- ./inp_files/65169.got.cif
#   From: 2010.05.17/outbox.cif.g08.bks.cpg/sg70_33_cif.got.tgz:65169.got - 2010.06.03 15:57:51.
