data_PCOD9515126
_publ_section_title
;
Structure prediction by ZEFSAII (Michael W. Deem and Ramdas Pophale) SiO2 
 PCOD9515126
Probable space group: F D D D
;
_chemical_formula_sum "Si O2"
_cell_formula_units_Z 160
_cell_length_a 30.827176
_cell_length_b 8.246334
_cell_length_c 30.658875
_cell_angle_alpha 90.000000
_cell_angle_beta 90.000000
_cell_angle_gamma 90.000000
_cell_volume 7793.829085
_symmetry_space_group_name_H-M "F D D D"
_symmetry_group_IT_number 70
_space_group.IT_coordinate_system_code '2'
_symmetry_cell_setting 'orthorhombic'
loop_
_space_group_symop_operation_xyz
x,y,z
1/4-x,1/4-y,z
x,1/4-y,1/4-z
1/4-x,y,1/4-z
-x,-y,-z
3/4+x,3/4+y,-z
-x,3/4+y,3/4+z
3/4+x,-y,3/4+z
x,1/2+y,1/2+z
1/4-x,3/4-y,1/2+z
x,3/4-y,3/4-z
1/4-x,1/2+y,3/4-z
-x,1/2-y,1/2-z
3/4+x,1/4+y,1/2-z
-x,1/4+y,1/4+z
3/4+x,1/2-y,1/4+z
1/2+x,y,1/2+z
3/4-x,1/4-y,1/2+z
1/2+x,1/4-y,3/4-z
3/4-x,y,3/4-z
1/2-x,-y,1/2-z
1/4+x,3/4+y,1/2-z
1/2-x,3/4+y,1/4+z
1/4+x,-y,1/4+z
1/2+x,1/2+y,z
3/4-x,3/4-y,z
1/2+x,3/4-y,1/4-z
3/4-x,1/2+y,1/4-z
1/2-x,1/2-y,-z
1/4+x,1/4+y,-z
1/2-x,1/4+y,3/4+z
1/4+x,1/2-y,3/4+z
loop_
_atom_site_type_symbol
_atom_site_label
_atom_site_fract_x
_atom_site_fract_y
_atom_site_fract_z
Si Si1 0.673003 0.875000 0.375000
Si Si2 0.427057 0.874654 0.925608
Si Si3 0.375000 0.875000 0.062089
Si Si4 0.300838 0.066662 0.010545
Si Si5 0.281855 0.113458 0.480514
Si Si6 0.325118 0.837833 0.199674
O O1 0.644225 0.767009 0.407620
O O2 0.696316 0.741934 0.343795
O O3 0.439557 0.875000 0.875000
O O4 0.375000 0.875000 0.928896
O O5 0.444213 0.047322 0.942198
O O6 0.445142 0.734806 0.959069
O O7 0.413513 0.799416 0.033326
O O8 0.309428 0.247753 0.027255
O O9 0.252753 0.026451 0.027883
O O10 0.250000 0.250000 0.500000
O O11 0.317442 0.049555 0.514159
O O12 0.375000 0.875000 0.188566
#
# Coordination Sequence:
#
# PCOD9515126 Si02
#       6
#    16  32  16  32  32  32
#     4  12  22  38  64 104 128 173 239 258 346 406
#     4  10  20  40  68  94 125 172 222 269 330 402
#     4  12  20  40  63  96 132 182 209 280 328 412
#     4  11  22  41  66  94 136 174 223 269 340 396
#     4  10  23  43  65  97 133 174 221 276 344 396
#     4  12  23  41  68  97 134 178 224 272 336 409
#
# _framework density 20.529062
#
# number of rings (size 3 to 8) (size 9 to 14) (size 15 to 20)
#    0.000    1.000    4.000    4.200    0.000    0.000 
#   16.200    1.000    8.800    3.600    0.000    0.000 
#    0.000    0.000    0.000    0.000    0.000    0.000 
#
# Total GULP energy -223050.500552 kJ/mol
# GULP energy per Si atom -5576.262514 kJ/mol
# Density = 2.048234 g / cm^3
# Si number density = 20.529062 Si / 1000 Ang^3
#
#
#
# Elastic Constant Matrix: (Units=GPa)
#
#
# Indices 1 2 3 4 5 6 
#
# 1 55.3734 24.0048 42.7632 0.0000 0.0007 0.0003
# 2 24.0048 123.6287 74.4409 -0.0001 0.0005 0.0004
# 3 42.7632 74.4409 170.0522 0.0000 0.0000 0.0000
# 4 0.0000 -0.0001 0.0000 39.7571 0.0006 -0.0001
# 5 0.0007 0.0005 0.0000 0.0006 -150.4181 0.0000
# 6 0.0003 0.0004 0.0000 -0.0001 0.0000 21.6336
#
#
#
# Elastic Compliance Matrix: (Units=1/GPa)
#
#
# Indices 1 2 3 4 5 6 
#
# 1 0.022567 -0.001310 -0.005101 0.000000 0.000000 0.000000
# 2 -0.001310 0.011060 -0.004512 0.000000 0.000000 0.000000
# 3 -0.005101 -0.004512 0.009139 0.000000 0.000000 0.000000
# 4 0.000000 0.000000 0.000000 0.025153 0.000000 0.000000
# 5 0.000000 0.000000 0.000000 0.000000 -0.006648 0.000000
# 6 0.000000 0.000000 0.000000 0.000000 0.000000 0.046224
#
#
# Mechanical properties :
#
#
# Convention : Reuss Voigt Hill
#
# Bulk Modulus (GPa) = 47.80511 70.16355 58.98433
# Shear Modulus (GPa) = 36.67992 -3.94912 16.36540
#
# Velocity S-wave (km/s) = 4.23156 -1.38847 2.82650
# Velocity P-wave (km/s) = 6.87109 5.62862 6.28066
#
# Compressibility (1/GPa) = 0.02091826
#
# Stress axis : x y z
#
# Youngs Moduli (GPa) = 44.31287 90.41594 109.42601
#
# Poissons Ratio (x) = 0.11845 0.55823
# Poissons Ratio (y) = 0.05805 0.49374
# Poissons Ratio (z) = 0.22606 0.40797
#
# Static dielectric constant tensor:
#      x y z
#    x 1.794380 0.000000 0.000000 
#    y 0.000000 1.793020 0.000000 
#    z 0.000000 0.000000 1.753880 
# 
# From -- ./inp_files/12395.got.cif
#   From: 2010.05.17/outbox.cif.g08.bks.cpg/sg70_7_cif.got.tgz:12395.got - 2010.06.03 15:57:51.
