data_PCOD9515896
_publ_section_title
;
Structure prediction by ZEFSAII (Michael W. Deem and Ramdas Pophale) SiO2 
 PCOD9515896
Probable space group: F D D D
;
_chemical_formula_sum "Si O2"
_cell_formula_units_Z 176
_cell_length_a 28.800590
_cell_length_b 12.262764
_cell_length_c 23.568668
_cell_angle_alpha 90.000000
_cell_angle_beta 90.000000
_cell_angle_gamma 90.000000
_cell_volume 8323.860508
_symmetry_space_group_name_H-M "F D D D"
_symmetry_group_IT_number 70
_space_group.IT_coordinate_system_code '2'
_symmetry_cell_setting 'orthorhombic'
loop_
_space_group_symop_operation_xyz
x,y,z
1/4-x,1/4-y,z
x,1/4-y,1/4-z
1/4-x,y,1/4-z
-x,-y,-z
3/4+x,3/4+y,-z
-x,3/4+y,3/4+z
3/4+x,-y,3/4+z
x,1/2+y,1/2+z
1/4-x,3/4-y,1/2+z
x,3/4-y,3/4-z
1/4-x,1/2+y,3/4-z
-x,1/2-y,1/2-z
3/4+x,1/4+y,1/2-z
-x,1/4+y,1/4+z
3/4+x,1/2-y,1/4+z
1/2+x,y,1/2+z
3/4-x,1/4-y,1/2+z
1/2+x,1/4-y,3/4-z
3/4-x,y,3/4-z
1/2-x,-y,1/2-z
1/4+x,3/4+y,1/2-z
1/2-x,3/4+y,1/4+z
1/4+x,-y,1/4+z
1/2+x,1/2+y,z
3/4-x,3/4-y,z
1/2+x,3/4-y,1/4-z
3/4-x,1/2+y,1/4-z
1/2-x,1/2-y,-z
1/4+x,1/4+y,-z
1/2-x,1/4+y,3/4+z
1/4+x,1/2-y,3/4+z
loop_
_atom_site_type_symbol
_atom_site_label
_atom_site_fract_x
_atom_site_fract_y
_atom_site_fract_z
Si Si1 0.313329 0.625000 0.125000
Si Si2 0.820978 0.389502 0.806071
Si Si3 0.496088 0.544652 0.324830
Si Si4 0.410296 0.639091 0.752877
Si Si5 0.915428 0.557321 0.419999
Si Si6 0.927868 0.393232 0.254594
O O1 0.279837 0.521363 0.116168
O O2 0.339941 0.608601 0.184331
O O3 0.821042 0.375000 0.875000
O O4 0.875000 0.375000 0.788629
O O5 0.782236 0.299768 0.790155
O O6 0.812623 0.509405 0.780318
O O7 0.457415 0.620837 0.352156
O O8 0.529677 0.621376 0.287930
O O9 0.358826 0.627468 0.779470
O O10 0.431240 0.520910 0.768862
O O11 0.875000 0.543907 0.375000
O O12 0.930454 0.441318 0.444291
O O13 0.875000 0.375000 0.231007
#
# Coordination Sequence:
#
# PCOD9515896 Si02
#       6
#    16  32  32  32  32  32
#     4  10  24  40  63 100 138 180 225 272 362 420
#     4  11  21  38  65 107 138 167 224 296 360 406
#     4  11  21  39  69 101 133 180 223 290 346 419
#     4  10  22  42  65  92 138 178 214 279 349 418
#     4  11  22  41  70  99 135 177 230 286 343 412
#     4   9  22  41  62  91 133 182 223 274 337 414
#
# _framework density 21.144036
#
# number of rings (size 3 to 8) (size 9 to 14) (size 15 to 20)
#    0.000    1.636    2.727    1.636    0.000    6.182 
#    3.273    7.273    0.000    6.545    0.000    0.000 
#    0.000    0.000    0.000    0.000    0.000    0.000 
#
# Total GULP energy -245267.161184 kJ/mol
# GULP energy per Si atom -5574.253663 kJ/mol
# Density = 2.109591 g / cm^3
# Si number density = 21.144036 Si / 1000 Ang^3
#
#
#
# Elastic Constant Matrix: (Units=GPa)
#
#
# Indices 1 2 3 4 5 6 
#
# 1 70.4437 24.9587 34.3770 0.0000 0.0000 0.0000
# 2 24.9587 123.9873 50.3341 0.0000 0.0000 0.0000
# 3 34.3770 50.3341 117.6873 0.0000 0.0000 0.0000
# 4 0.0000 0.0000 0.0000 26.4363 0.0000 0.0000
# 5 0.0000 0.0000 0.0000 0.0000 13.8238 0.0000
# 6 0.0000 0.0000 0.0000 0.0000 0.0000 29.6711
#
#
#
# Elastic Compliance Matrix: (Units=1/GPa)
#
#
# Indices 1 2 3 4 5 6 
#
# 1 0.016842 -0.001686 -0.004199 0.000000 0.000000 0.000000
# 2 -0.001686 0.009929 -0.003754 0.000000 0.000000 0.000000
# 3 -0.004199 -0.003754 0.011329 0.000000 0.000000 0.000000
# 4 0.000000 0.000000 0.000000 0.037827 0.000000 0.000000
# 5 0.000000 0.000000 0.000000 0.000000 0.072339 0.000000
# 6 0.000000 0.000000 0.000000 0.000000 0.000000 0.033703
#
#
# Mechanical properties :
#
#
# Convention : Reuss Voigt Hill
#
# Bulk Modulus (GPa) = 53.12679 59.05089 56.08884
# Shear Modulus (GPa) = 24.09409 27.48278 25.78844
#
# Velocity S-wave (km/s) = 3.37934 3.60917 3.49615
# Velocity P-wave (km/s) = 6.35667 6.73474 6.54843
#
# Compressibility (1/GPa) = 0.01882289
#
# Stress axis : x y z
#
# Youngs Moduli (GPa) = 59.37541 100.71827 88.26832
#
# Poissons Ratio (x) = 0.16979 0.37060
# Poissons Ratio (y) = 0.10010 0.33136
# Poissons Ratio (z) = 0.24929 0.37810
#
# Static dielectric constant tensor:
#      x y z
#    x 1.803440 0.000000 0.000000 
#    y 0.000000 1.815080 0.000000 
#    z 0.000000 0.000000 1.819090 
# 
# From -- ./inp_files/54953.got.cif
#   From: 2010.05.17/outbox.cif.g08.bks.cpg/sg70_28_cif.got.tgz:54953.got - 2010.06.03 15:57:51.
