data_PCOD9515265
_publ_section_title
;
Structure prediction by ZEFSAII (Michael W. Deem and Ramdas Pophale) SiO2 
 PCOD9515265
Probable space group: F D D D
;
_chemical_formula_sum "Si O2"
_cell_formula_units_Z 160
_cell_length_a 16.774313
_cell_length_b 19.146482
_cell_length_c 25.853364
_cell_angle_alpha 90.000000
_cell_angle_beta 90.000000
_cell_angle_gamma 90.000000
_cell_volume 8303.301180
_symmetry_space_group_name_H-M "F D D D"
_symmetry_group_IT_number 70
_space_group.IT_coordinate_system_code '2'
_symmetry_cell_setting 'orthorhombic'
loop_
_space_group_symop_operation_xyz
x,y,z
1/4-x,1/4-y,z
x,1/4-y,1/4-z
1/4-x,y,1/4-z
-x,-y,-z
3/4+x,3/4+y,-z
-x,3/4+y,3/4+z
3/4+x,-y,3/4+z
x,1/2+y,1/2+z
1/4-x,3/4-y,1/2+z
x,3/4-y,3/4-z
1/4-x,1/2+y,3/4-z
-x,1/2-y,1/2-z
3/4+x,1/4+y,1/2-z
-x,1/4+y,1/4+z
3/4+x,1/2-y,1/4+z
1/2+x,y,1/2+z
3/4-x,1/4-y,1/2+z
1/2+x,1/4-y,3/4-z
3/4-x,y,3/4-z
1/2-x,-y,1/2-z
1/4+x,3/4+y,1/2-z
1/2-x,3/4+y,1/4+z
1/4+x,-y,1/4+z
1/2+x,1/2+y,z
3/4-x,3/4-y,z
1/2+x,3/4-y,1/4-z
3/4-x,1/2+y,1/4-z
1/2-x,1/2-y,-z
1/4+x,1/4+y,-z
1/2-x,1/4+y,3/4+z
1/4+x,1/2-y,3/4+z
loop_
_atom_site_type_symbol
_atom_site_label
_atom_site_fract_x
_atom_site_fract_y
_atom_site_fract_z
Si Si1 0.706019 0.164698 0.817445
Si Si2 0.077955 0.192575 0.481500
Si Si3 0.290896 0.577431 0.074726
Si Si4 0.949582 0.581479 0.345060
Si Si5 0.887725 0.661495 0.495742
O O1 0.625000 0.125000 0.804222
O O2 0.693370 0.245303 0.834095
O O3 0.748481 0.123033 0.863560
O O4 0.769721 0.162753 0.770628
O O5 0.125000 0.125000 0.462446
O O6 0.133257 0.259077 0.490350
O O7 0.034188 0.171954 0.535138
O O8 0.009848 0.212714 0.439952
O O9 0.276998 0.625000 0.125000
O O10 0.363482 0.611003 0.042233
O O11 0.875000 0.546701 0.375000
O O12 0.910161 0.635320 0.304414
#
# Coordination Sequence:
#
# PCOD9515265 Si02
#       5
#    32  32  32  32  32
#     4  10  21  37  60  83 105 150 193 224 278 334
#     4  10  21  34  58  84 112 155 180 221 280 340
#     4  10  23  36  54  84 118 145 181 234 278 327
#     4   9  19  35  56  81 113 145 184 229 270 333
#     4   9  21  39  54  81 117 144 184 232 280 327
#
# _framework density 19.269444
#
# number of rings (size 3 to 8) (size 9 to 14) (size 15 to 20)
#    0.000    2.400    0.000    0.600    8.400    2.800 
#    0.000    0.000    0.000    0.000    0.000    0.000 
#    0.000    0.000    0.000    0.000    0.000    0.000 
#
# Total GULP energy -223056.135194 kJ/mol
# GULP energy per Si atom -5576.403380 kJ/mol
# Density = 1.922559 g / cm^3
# Si number density = 19.269444 Si / 1000 Ang^3
#
#
#
# Elastic Constant Matrix: (Units=GPa)
#
#
# Indices 1 2 3 4 5 6 
#
# 1 49.1203 6.0303 6.6975 0.0000 0.0000 0.0000
# 2 6.0303 30.4650 -5.5483 0.0000 0.0000 0.0000
# 3 6.6975 -5.5483 68.1548 0.0000 0.0000 0.0000
# 4 0.0000 0.0000 0.0000 13.2780 0.0000 0.0000
# 5 0.0000 0.0000 0.0000 0.0000 8.9634 0.0000
# 6 0.0000 0.0000 0.0000 0.0000 0.0000 16.8409
#
#
#
# Elastic Compliance Matrix: (Units=1/GPa)
#
#
# Indices 1 2 3 4 5 6 
#
# 1 0.021267 -0.004659 -0.002469 0.000000 0.000000 0.000000
# 2 -0.004659 0.034339 0.003253 0.000000 0.000000 0.000000
# 3 -0.002469 0.003253 0.015180 0.000000 0.000000 0.000000
# 4 0.000000 0.000000 0.000000 0.075313 0.000000 0.000000
# 5 0.000000 0.000000 0.000000 0.000000 0.111565 0.000000
# 6 0.000000 0.000000 0.000000 0.000000 0.000000 0.059379
#
#
# Mechanical properties :
#
#
# Convention : Reuss Voigt Hill
#
# Bulk Modulus (GPa) = 15.86399 18.01102 16.93750
# Shear Modulus (GPa) = 14.45901 17.18716 15.82309
#
# Velocity S-wave (km/s) = 2.74224 2.98977 2.86868
# Velocity P-wave (km/s) = 4.27517 4.61363 4.44762
#
# Compressibility (1/GPa) = 0.06303586
#
# Stress axis : x y z
#
# Youngs Moduli (GPa) = 47.02156 29.12117 65.87627
#
# Poissons Ratio (x) = 0.13568 0.16266
# Poissons Ratio (y) = 0.21909 -0.21432
# Poissons Ratio (z) = 0.11610 -0.09474
#
# Static dielectric constant tensor:
#      x y z
#    x 1.698660 0.000000 0.000000 
#    y 0.000000 1.659850 0.000000 
#    z 0.000000 0.000000 1.681980 
# 
# From -- ./inp_files/28620.got.cif
#   From: 2010.05.17/outbox.cif.g08.bks.cpg/sg70_15_cif.got.tgz:28620.got - 2010.06.03 15:57:51.
