data_PCOD9515672
_publ_section_title
;
Structure prediction by ZEFSAII (Michael W. Deem and Ramdas Pophale) SiO2 
 PCOD9515672
Probable space group: F D D D
;
_chemical_formula_sum "Si O2"
_cell_formula_units_Z 72
_cell_length_a 21.067562
_cell_length_b 22.537906
_cell_length_c 5.392336
_cell_angle_alpha 90.000000
_cell_angle_beta 90.000000
_cell_angle_gamma 90.000000
_cell_volume 2560.382142
_symmetry_space_group_name_H-M "F D D D"
_symmetry_group_IT_number 70
_space_group.IT_coordinate_system_code '2'
_symmetry_cell_setting 'orthorhombic'
loop_
_space_group_symop_operation_xyz
x,y,z
1/4-x,1/4-y,z
x,1/4-y,1/4-z
1/4-x,y,1/4-z
-x,-y,-z
3/4+x,3/4+y,-z
-x,3/4+y,3/4+z
3/4+x,-y,3/4+z
x,1/2+y,1/2+z
1/4-x,3/4-y,1/2+z
x,3/4-y,3/4-z
1/4-x,1/2+y,3/4-z
-x,1/2-y,1/2-z
3/4+x,1/4+y,1/2-z
-x,1/4+y,1/4+z
3/4+x,1/2-y,1/4+z
1/2+x,y,1/2+z
3/4-x,1/4-y,1/2+z
1/2+x,1/4-y,3/4-z
3/4-x,y,3/4-z
1/2-x,-y,1/2-z
1/4+x,3/4+y,1/2-z
1/2-x,3/4+y,1/4+z
1/4+x,-y,1/4+z
1/2+x,1/2+y,z
3/4-x,3/4-y,z
1/2+x,3/4-y,1/4-z
3/4-x,1/2+y,1/4-z
1/2-x,1/2-y,-z
1/4+x,1/4+y,-z
1/2-x,1/4+y,3/4+z
1/4+x,1/2-y,3/4+z
loop_
_atom_site_type_symbol
_atom_site_label
_atom_site_fract_x
_atom_site_fract_y
_atom_site_fract_z
Si Si1 0.196422 0.350317 0.126486
Si Si2 0.071288 0.236216 0.843840
Si Si3 0.875000 0.875000 0.875000
O O1 0.125000 0.376703 0.125000
O O2 0.227923 0.375000 0.375000
O O3 0.185528 0.280929 0.167046
O O4 0.224515 0.375000 0.875000
O O5 0.125000 0.247890 0.625000
O O6 0.000000 0.250000 0.750000
O O7 0.088626 0.171701 0.947109
#
# Coordination Sequence:
#
# PCOD9515672 Si02
#       3
#    32  32   8
#     4  10  21  45  81 126 170 232 310 379 468 572
#     4  12  29  59  90 136 197 258 329 419 505 598
#     4  12  30  60  92 138 192 256 340 406 506 608
#
# _framework density 28.120802999999999
#
# number of rings (size 3 to 8) (size 9 to 14) (size 15 to 20)
#    0.000    0.889    2.222    4.667    0.000    5.333 
#   28.000    0.000    0.000    0.000    0.000    0.000 
#    0.000    0.000    0.000    0.000    0.000    0.000 
#
# Total GULP energy -100383.206407 kJ/mol
# GULP energy per Si atom -5576.844800 kJ/mol
# Density = 2.805680 g / cm^3
# Si number density = 28.120803 Si / 1000 Ang^3
#
#
#
# Elastic Constant Matrix: (Units=GPa)
#
#
# Indices 1 2 3 4 5 6 
#
# 1 187.8081 68.1747 81.6858 0.0022 -0.0050 0.0267
# 2 68.1747 316.9239 116.2935 -0.0017 -0.0056 0.0210
# 3 81.6858 116.2935 256.4809 -0.0003 -0.0108 0.0467
# 4 0.0022 -0.0017 -0.0003 63.3890 -0.0082 0.0240
# 5 -0.0050 -0.0056 -0.0108 -0.0082 56.5539 -0.0232
# 6 0.0267 0.0210 0.0467 0.0240 -0.0232 -57.2953
#
#
#
# Elastic Compliance Matrix: (Units=1/GPa)
#
#
# Indices 1 2 3 4 5 6 
#
# 1 0.006324 -0.000745 -0.001676 0.000000 0.000000 0.000001
# 2 -0.000745 0.003873 -0.001519 0.000000 0.000000 0.000000
# 3 -0.001676 -0.001519 0.005121 0.000000 0.000001 0.000003
# 4 0.000000 0.000000 0.000000 0.015776 0.000002 0.000007
# 5 0.000000 0.000000 0.000001 0.000002 0.017682 -0.000007
# 6 0.000001 0.000000 0.000003 0.000007 -0.000007 -0.017453
#
#
# Mechanical properties :
#
#
# Convention : Reuss Voigt Hill
#
# Bulk Modulus (GPa) = 134.44429 143.72453 139.08441
# Shear Modulus (GPa) = 119.95364 45.53346 82.74355
#
# Velocity S-wave (km/s) = 6.53828 4.02831 5.43030
# Velocity P-wave (km/s) = 10.24267 8.53563 9.42786
#
# Compressibility (1/GPa) = 0.00743803
#
# Stress axis : x y z
#
# Youngs Moduli (GPa) = 158.12258 258.20193 195.25985
#
# Poissons Ratio (x) = 0.19245 0.32730
# Poissons Ratio (y) = 0.11786 0.29654
# Poissons Ratio (z) = 0.26505 0.39213
#
# Static dielectric constant tensor:
#      x y z
#    x 2.639150 0.000010 0.004340 
#    y 0.000010 2.275700 -0.000210 
#    z 0.004340 -0.000210 0.143540 
# 
# From -- ./inp_files/2296.got.cif
#   From: 2010.05.17/outbox.cif.g08.bks.cpg/sg70_2_cif.got.tgz:2296.got - 2010.06.03 15:57:51.
