data_PCOD9515690
_publ_section_title
;
Structure prediction by ZEFSAII (Michael W. Deem and Ramdas Pophale) SiO2 
 PCOD9515690
Probable space group: F D D D
;
_chemical_formula_sum "Si O2"
_cell_formula_units_Z 168
_cell_length_a 22.759226
_cell_length_b 18.844389
_cell_length_c 18.382772
_cell_angle_alpha 90.000000
_cell_angle_beta 90.000000
_cell_angle_gamma 90.000000
_cell_volume 7884.071420
_symmetry_space_group_name_H-M "F D D D"
_symmetry_group_IT_number 70
_space_group.IT_coordinate_system_code '2'
_symmetry_cell_setting 'orthorhombic'
loop_
_space_group_symop_operation_xyz
x,y,z
1/4-x,1/4-y,z
x,1/4-y,1/4-z
1/4-x,y,1/4-z
-x,-y,-z
3/4+x,3/4+y,-z
-x,3/4+y,3/4+z
3/4+x,-y,3/4+z
x,1/2+y,1/2+z
1/4-x,3/4-y,1/2+z
x,3/4-y,3/4-z
1/4-x,1/2+y,3/4-z
-x,1/2-y,1/2-z
3/4+x,1/4+y,1/2-z
-x,1/4+y,1/4+z
3/4+x,1/2-y,1/4+z
1/2+x,y,1/2+z
3/4-x,1/4-y,1/2+z
1/2+x,1/4-y,3/4-z
3/4-x,y,3/4-z
1/2-x,-y,1/2-z
1/4+x,3/4+y,1/2-z
1/2-x,3/4+y,1/4+z
1/4+x,-y,1/4+z
1/2+x,1/2+y,z
3/4-x,3/4-y,z
1/2+x,3/4-y,1/4-z
3/4-x,1/2+y,1/4-z
1/2-x,1/2-y,-z
1/4+x,1/4+y,-z
1/2-x,1/4+y,3/4+z
1/4+x,1/2-y,3/4+z
loop_
_atom_site_type_symbol
_atom_site_label
_atom_site_fract_x
_atom_site_fract_y
_atom_site_fract_z
Si Si1 0.834240 0.304536 0.274135
Si Si2 0.504305 0.125000 0.625000
Si Si3 0.625000 0.125000 0.125000
Si Si4 0.578091 0.375000 0.375000
Si Si5 0.055780 0.129585 0.362674
Si Si6 0.269571 0.419975 0.267120
Si Si7 0.168552 0.280293 0.943430
O O1 0.875000 0.375000 0.279439
O O2 0.792736 0.311270 0.342729
O O3 0.797465 0.319864 0.199896
O O4 0.878465 0.239689 0.262377
O O5 0.465197 0.093258 0.559833
O O6 0.671744 0.163933 0.069018
O O7 0.534618 0.383228 0.442029
O O8 0.620597 0.307270 0.384311
O O9 0.125000 0.125000 0.379382
O O10 0.026047 0.117124 0.439057
O O11 0.049157 0.208040 0.329541
O O12 0.250000 0.500000 0.250000
#
# Coordination Sequence:
#
# PCOD9515690 Si02
#       7
#    32  16   8  16  32  32  32
#     4   9  20  37  59  88 119 162 210 250 305 377
#     4  11  21  37  67  87 123 173 199 264 318 362
#     4  10  24  38  64  96 122 174 214 254 322 384
#     4  10  22  35  59  91 119 162 214 264 298 390
#     4   9  18  36  58  77 123 166 194 254 312 361
#     4  11  21  38  60  92 127 167 213 260 318 382
#     4   9  21  39  57  91 124 162 216 251 318 376
#
# _framework density 21.308788
#
# number of rings (size 3 to 8) (size 9 to 14) (size 15 to 20)
#    0.000    2.667    0.952    2.571    2.667    3.048 
#    0.000    0.000    0.000    0.000    0.000    0.000 
#    0.000    0.000    0.000    0.000    0.000    0.000 
#
# Total GULP energy -233833.371611 kJ/mol
# GULP energy per Si atom -5567.461229 kJ/mol
# Density = 2.126029 g / cm^3
# Si number density = 21.308788 Si / 1000 Ang^3
#
#
#
# Elastic Constant Matrix: (Units=GPa)
#
#
# Indices 1 2 3 4 5 6 
#
# 1 76.9230 21.9598 45.7490 0.0000 0.0000 0.0000
# 2 21.9598 64.7616 9.7692 0.0000 0.0000 0.0000
# 3 45.7490 9.7692 95.1732 0.0000 0.0000 0.0000
# 4 0.0000 0.0000 0.0000 20.4599 0.0000 0.0000
# 5 0.0000 0.0000 0.0000 0.0000 20.5582 0.0000
# 6 0.0000 0.0000 0.0000 0.0000 0.0000 24.6731
#
#
#
# Elastic Compliance Matrix: (Units=1/GPa)
#
#
# Indices 1 2 3 4 5 6 
#
# 1 0.019898 -0.005388 -0.009012 0.000000 0.000000 0.000000
# 2 -0.005388 0.017143 0.000830 0.000000 0.000000 0.000000
# 3 -0.009012 0.000830 0.014754 0.000000 0.000000 0.000000
# 4 0.000000 0.000000 0.000000 0.048876 0.000000 0.000000
# 5 0.000000 0.000000 0.000000 0.000000 0.048642 0.000000
# 6 0.000000 0.000000 0.000000 0.000000 0.000000 0.040530
#
#
# Mechanical properties :
#
#
# Convention : Reuss Voigt Hill
#
# Bulk Modulus (GPa) = 40.55797 43.53486 42.04641
# Shear Modulus (GPa) = 22.20255 23.76358 22.98306
#
# Velocity S-wave (km/s) = 3.23142 3.34309 3.28772
# Velocity P-wave (km/s) = 5.74435 5.94781 5.84696
#
# Compressibility (1/GPa) = 0.02465607
#
# Stress axis : x y z
#
# Youngs Moduli (GPa) = 50.25731 58.33319 67.77939
#
# Poissons Ratio (x) = 0.31428 0.61080
# Poissons Ratio (y) = 0.27077 -0.05627
# Poissons Ratio (z) = 0.45290 -0.04842
#
# Static dielectric constant tensor:
#      x y z
#    x 1.825950 0.000000 0.000000 
#    y 0.000000 1.805070 0.000000 
#    z 0.000000 0.000000 1.935860 
# 
# From -- ./inp_files/44856.got.cif
#   From: 2010.05.17/outbox.cif.g08.bks.cpg/sg70_23_cif.got.tgz:44856.got - 2010.06.03 15:57:51.
