data_PCOD9515601
_publ_section_title
;
Structure prediction by ZEFSAII (Michael W. Deem and Ramdas Pophale) SiO2 
 PCOD9515601
Probable space group: F D D D
;
_chemical_formula_sum "Si O2"
_cell_formula_units_Z 160
_cell_length_a 9.816834
_cell_length_b 27.635685
_cell_length_c 26.889829
_cell_angle_alpha 90.000000
_cell_angle_beta 90.000000
_cell_angle_gamma 90.000000
_cell_volume 7295.074333
_symmetry_space_group_name_H-M "F D D D"
_symmetry_group_IT_number 70
_space_group.IT_coordinate_system_code '2'
_symmetry_cell_setting 'orthorhombic'
loop_
_space_group_symop_operation_xyz
x,y,z
1/4-x,1/4-y,z
x,1/4-y,1/4-z
1/4-x,y,1/4-z
-x,-y,-z
3/4+x,3/4+y,-z
-x,3/4+y,3/4+z
3/4+x,-y,3/4+z
x,1/2+y,1/2+z
1/4-x,3/4-y,1/2+z
x,3/4-y,3/4-z
1/4-x,1/2+y,3/4-z
-x,1/2-y,1/2-z
3/4+x,1/4+y,1/2-z
-x,1/4+y,1/4+z
3/4+x,1/2-y,1/4+z
1/2+x,y,1/2+z
3/4-x,1/4-y,1/2+z
1/2+x,1/4-y,3/4-z
3/4-x,y,3/4-z
1/2-x,-y,1/2-z
1/4+x,3/4+y,1/2-z
1/2-x,3/4+y,1/4+z
1/4+x,-y,1/4+z
1/2+x,1/2+y,z
3/4-x,3/4-y,z
1/2+x,3/4-y,1/4-z
3/4-x,1/2+y,1/4-z
1/2-x,1/2-y,-z
1/4+x,1/4+y,-z
1/2-x,1/4+y,3/4+z
1/4+x,1/2-y,3/4+z
loop_
_atom_site_type_symbol
_atom_site_label
_atom_site_fract_x
_atom_site_fract_y
_atom_site_fract_z
Si Si1 0.672710 0.276313 0.704229
Si Si2 0.666397 0.272498 0.206260
Si Si3 0.170382 0.503205 0.858442
Si Si4 0.250973 0.315987 0.412102
Si Si5 0.716364 0.370270 0.009651
O O1 0.753524 0.244565 0.744353
O O2 0.765886 0.281710 0.654910
O O3 0.533316 0.252777 0.684512
O O4 0.647592 0.328956 0.727614
O O5 0.779606 0.273762 0.162981
O O6 0.556771 0.230622 0.193534
O O7 0.599754 0.324387 0.213661
O O8 0.128499 0.451263 0.880656
O O9 0.375000 0.325792 0.375000
O O10 0.216460 0.357446 0.451093
O O11 0.875000 0.375000 0.023488
#
# Coordination Sequence:
#
# PCOD9515601 Si02
#       5
#    32  32  32  32  32
#     4  11  23  44  68 102 138 186 239 293 357 446
#     4  11  22  44  69  93 142 186 229 293 366 421
#     4  10  23  44  68 100 140 186 236 285 369 438
#     4  10  21  42  68  97 131 184 234 288 351 426
#     4  12  23  40  68  99 137 178 238 301 355 421
#
# _framework density 21.932607000000001
#
# number of rings (size 3 to 8) (size 9 to 14) (size 15 to 20)
#    0.000    1.200    4.000    2.400    0.000    1.200 
#   21.600    0.000    0.000    0.000    0.000    0.000 
#    0.000    0.000    0.000    0.000    0.000    0.000 
#
# Total GULP energy -223877.270931 kJ/mol
# GULP energy per Si atom -5596.931773 kJ/mol
# Density = 2.188269 g / cm^3
# Si number density = 21.932607 Si / 1000 Ang^3
#
#
#
# Elastic Constant Matrix: (Units=GPa)
#
#
# Indices 1 2 3 4 5 6 
#
# 1 97.5252 50.2451 45.7713 0.0000 0.0000 0.0000
# 2 50.2451 106.4578 44.0565 0.0000 0.0000 0.0000
# 3 45.7713 44.0565 101.5939 0.0000 0.0000 0.0000
# 4 0.0000 0.0000 0.0000 48.3950 0.0000 0.0000
# 5 0.0000 0.0000 0.0000 0.0000 49.5516 0.0000
# 6 0.0000 0.0000 0.0000 0.0000 0.0000 25.7718
#
#
#
# Elastic Compliance Matrix: (Units=1/GPa)
#
#
# Indices 1 2 3 4 5 6 
#
# 1 0.015077 -0.005246 -0.004518 0.000000 0.000000 0.000000
# 2 -0.005246 0.013273 -0.003392 0.000000 0.000000 0.000000
# 3 -0.004518 -0.003392 0.013350 0.000000 0.000000 0.000000
# 4 0.000000 0.000000 0.000000 0.020663 0.000000 0.000000
# 5 0.000000 0.000000 0.000000 0.000000 0.020181 0.000000
# 6 0.000000 0.000000 0.000000 0.000000 0.000000 0.038802
#
#
# Mechanical properties :
#
#
# Convention : Reuss Voigt Hill
#
# Bulk Modulus (GPa) = 64.98873 65.08030 65.03451
# Shear Modulus (GPa) = 32.72509 35.77727 34.25118
#
# Velocity S-wave (km/s) = 3.86693 4.04324 3.95607
# Velocity P-wave (km/s) = 7.04507 7.17874 7.11222
#
# Compressibility (1/GPa) = 0.01538728
#
# Stress axis : x y z
#
# Youngs Moduli (GPa) = 66.32674 75.33847 74.90897
#
# Poissons Ratio (x) = 0.39525 0.33840
# Poissons Ratio (y) = 0.34797 0.25412
# Poissons Ratio (z) = 0.29963 0.25558
#
# Static dielectric constant tensor:
#      x y z
#    x 1.806610 0.000000 0.000000 
#    y 0.000000 1.790060 0.000000 
#    z 0.000000 0.000000 1.859670 
# 
# From -- ./inp_files/57692.got.cif
#   From: 2010.05.17/outbox.cif.g08.bks.cpg/sg70_29_cif.got.tgz:57692.got - 2010.06.03 15:57:51.
