data_PCOD9515977
_publ_section_title
;
Structure prediction by ZEFSAII (Michael W. Deem and Ramdas Pophale) SiO2 
 PCOD9515977
Probable space group: F D D D
;
_chemical_formula_sum "Si O2"
_cell_formula_units_Z 192
_cell_length_a 13.061129
_cell_length_b 27.757229
_cell_length_c 24.539198
_cell_angle_alpha 90.000000
_cell_angle_beta 90.000000
_cell_angle_gamma 90.000000
_cell_volume 8896.459214
_symmetry_space_group_name_H-M "F D D D"
_symmetry_group_IT_number 70
_space_group.IT_coordinate_system_code '2'
_symmetry_cell_setting 'orthorhombic'
loop_
_space_group_symop_operation_xyz
x,y,z
1/4-x,1/4-y,z
x,1/4-y,1/4-z
1/4-x,y,1/4-z
-x,-y,-z
3/4+x,3/4+y,-z
-x,3/4+y,3/4+z
3/4+x,-y,3/4+z
x,1/2+y,1/2+z
1/4-x,3/4-y,1/2+z
x,3/4-y,3/4-z
1/4-x,1/2+y,3/4-z
-x,1/2-y,1/2-z
3/4+x,1/4+y,1/2-z
-x,1/4+y,1/4+z
3/4+x,1/2-y,1/4+z
1/2+x,y,1/2+z
3/4-x,1/4-y,1/2+z
1/2+x,1/4-y,3/4-z
3/4-x,y,3/4-z
1/2-x,-y,1/2-z
1/4+x,3/4+y,1/2-z
1/2-x,3/4+y,1/4+z
1/4+x,-y,1/4+z
1/2+x,1/2+y,z
3/4-x,3/4-y,z
1/2+x,3/4-y,1/4-z
3/4-x,1/2+y,1/4-z
1/2-x,1/2-y,-z
1/4+x,1/4+y,-z
1/2-x,1/4+y,3/4+z
1/4+x,1/2-y,3/4+z
loop_
_atom_site_type_symbol
_atom_site_label
_atom_site_fract_x
_atom_site_fract_y
_atom_site_fract_z
Si Si1 0.977766 0.048099 0.574501
Si Si2 0.569149 0.507041 0.255204
Si Si3 0.125000 0.625000 0.125000
Si Si4 0.125000 0.370938 0.125000
Si Si5 0.481145 0.205639 0.802873
Si Si6 0.988260 0.536889 0.641199
Si Si7 0.625000 0.125000 0.625000
Si Si8 0.391736 0.207886 0.296740
O O1 0.881689 0.046355 0.614986
O O2 0.929979 0.051973 0.514406
O O3 0.053554 0.090903 0.588786
O O4 0.037968 0.998095 0.574204
O O5 0.658332 0.544669 0.273739
O O6 0.642589 0.460428 0.243407
O O7 0.512874 0.508864 0.196558
O O8 0.473068 0.519284 0.294115
O O9 0.207613 0.336537 0.095481
O O10 0.156298 0.408128 0.171830
O O11 0.477124 0.254641 0.839935
O O12 0.047542 0.586867 0.651486
#
# Coordination Sequence:
#
# PCOD9515977 Si02
#       8
#    32  32   8  16  32  32   8  32
#     4  10  25  47  67  98 137 184 227 280 348 417
#     4  10  22  44  67  93 138 182 221 279 352 418
#     4  12  24  44  72 104 126 176 248 280 336 422
#     4  12  24  44  68 106 138 176 246 294 336 422
#     4  11  23  43  67 105 137 180 226 289 357 405
#     4  11  22  44  66  97 136 179 218 290 342 418
#     4  12  20  36  68  96 126 164 228 272 348 392
#     4  10  25  47  67  97 141 186 227 283 351 414
#
# _framework density 21.581619
#
# number of rings (size 3 to 8) (size 9 to 14) (size 15 to 20)
#    0.000    1.333    3.333    1.000    4.667    4.667 
#    6.000    0.000    0.000    0.000    0.000    0.000 
#    0.000    0.000    0.000    0.000    0.000    0.000 
#
# Total GULP energy -267433.785768 kJ/mol
# GULP energy per Si atom -5571.537204 kJ/mol
# Density = 2.153250 g / cm^3
# Si number density = 21.581619 Si / 1000 Ang^3
#
#
#
# Elastic Constant Matrix: (Units=GPa)
#
#
# Indices 1 2 3 4 5 6 
#
# 1 158.3475 45.1997 32.1719 0.0000 0.0000 0.0000
# 2 45.1997 101.3012 31.8864 0.0000 0.0000 0.0000
# 3 32.1719 31.8864 89.9666 0.0000 0.0000 0.0000
# 4 0.0000 0.0000 0.0000 24.2889 0.0000 0.0000
# 5 0.0000 0.0000 0.0000 0.0000 26.3937 0.0000
# 6 0.0000 0.0000 0.0000 0.0000 0.0000 48.2646
#
#
#
# Elastic Compliance Matrix: (Units=1/GPa)
#
#
# Indices 1 2 3 4 5 6 
#
# 1 0.007454 -0.002799 -0.001674 0.000000 0.000000 0.000000
# 2 -0.002799 0.012162 -0.003310 0.000000 0.000000 0.000000
# 3 -0.001674 -0.003310 0.012887 0.000000 0.000000 0.000000
# 4 0.000000 0.000000 0.000000 0.041171 0.000000 0.000000
# 5 0.000000 0.000000 0.000000 0.000000 0.037888 0.000000
# 6 0.000000 0.000000 0.000000 0.000000 0.000000 0.020719
#
#
# Mechanical properties :
#
#
# Convention : Reuss Voigt Hill
#
# Bulk Modulus (GPa) = 59.03707 63.12569 61.08138
# Shear Modulus (GPa) = 32.57494 35.81326 34.19410
#
# Velocity S-wave (km/s) = 3.88929 4.07803 3.98478
# Velocity P-wave (km/s) = 6.89808 7.17545 7.03813
#
# Compressibility (1/GPa) = 0.01693851
#
# Stress axis : x y z
#
# Youngs Moduli (GPa) = 134.15116 82.22119 77.59953
#
# Poissons Ratio (x) = 0.23016 0.12986
# Poissons Ratio (y) = 0.37553 0.25682
# Poissons Ratio (z) = 0.22450 0.27212
#
# Static dielectric constant tensor:
#      x y z
#    x 1.844090 0.000000 0.000000 
#    y 0.000000 1.764560 0.000000 
#    z 0.000000 0.000000 1.771160 
# 
# From -- ./inp_files/58680.got.cif
#   From: 2010.05.17/outbox.cif.g08.bks.cpg/sg70_30_cif.got.tgz:58680.got - 2010.06.03 15:57:51.
