data_PCOD9515835
_publ_section_title
;
Structure prediction by ZEFSAII (Michael W. Deem and Ramdas Pophale) SiO2 
 PCOD9515835
Probable space group: F D D D
;
_chemical_formula_sum "Si O2"
_cell_formula_units_Z 160
_cell_length_a 17.040767
_cell_length_b 20.461997
_cell_length_c 21.865600
_cell_angle_alpha 90.000000
_cell_angle_beta 90.000000
_cell_angle_gamma 90.000000
_cell_volume 7624.275027
_symmetry_space_group_name_H-M "F D D D"
_symmetry_group_IT_number 70
_space_group.IT_coordinate_system_code '2'
_symmetry_cell_setting 'orthorhombic'
loop_
_space_group_symop_operation_xyz
x,y,z
1/4-x,1/4-y,z
x,1/4-y,1/4-z
1/4-x,y,1/4-z
-x,-y,-z
3/4+x,3/4+y,-z
-x,3/4+y,3/4+z
3/4+x,-y,3/4+z
x,1/2+y,1/2+z
1/4-x,3/4-y,1/2+z
x,3/4-y,3/4-z
1/4-x,1/2+y,3/4-z
-x,1/2-y,1/2-z
3/4+x,1/4+y,1/2-z
-x,1/4+y,1/4+z
3/4+x,1/2-y,1/4+z
1/2+x,y,1/2+z
3/4-x,1/4-y,1/2+z
1/2+x,1/4-y,3/4-z
3/4-x,y,3/4-z
1/2-x,-y,1/2-z
1/4+x,3/4+y,1/2-z
1/2-x,3/4+y,1/4+z
1/4+x,-y,1/4+z
1/2+x,1/2+y,z
3/4-x,3/4-y,z
1/2+x,3/4-y,1/4-z
3/4-x,1/2+y,1/4-z
1/2-x,1/2-y,-z
1/4+x,1/4+y,-z
1/2-x,1/4+y,3/4+z
1/4+x,1/2-y,3/4+z
loop_
_atom_site_type_symbol
_atom_site_label
_atom_site_fract_x
_atom_site_fract_y
_atom_site_fract_z
Si Si1 0.795349 0.195134 0.535621
Si Si2 0.209931 0.087167 0.874746
Si Si3 0.849895 0.551095 0.648945
Si Si4 0.734686 0.435812 0.486549
Si Si5 0.924097 0.690310 0.935317
O O1 0.750000 0.250000 0.500000
O O2 0.835033 0.217743 0.597662
O O3 0.742778 0.131818 0.546943
O O4 0.863159 0.173267 0.488601
O O5 0.125000 0.125000 0.877070
O O6 0.245215 0.077868 0.942882
O O7 0.267119 0.132572 0.834441
O O8 0.205219 0.012245 0.850653
O O9 0.824319 0.625000 0.625000
O O10 0.895803 0.552724 0.712882
O O11 0.780991 0.497868 0.462515
O O12 0.875000 0.708004 0.875000
#
# Coordination Sequence:
#
# PCOD9515835 Si02
#       5
#    32  32  32  32  32
#     4  11  22  41  65  98 138 180 228 292 362 424
#     4  12  23  43  71  98 143 190 233 295 361 422
#     4  10  22  41  63  93 135 183 231 286 355 424
#     4  11  23  40  65  95 139 180 225 287 352 425
#     4  12  24  40  71 105 136 181 244 290 357 434
#
# _framework density 20.985602
#
# number of rings (size 3 to 8) (size 9 to 14) (size 15 to 20)
#    0.000    0.800    6.000    2.400    0.000    0.000 
#    0.000    5.000    4.400    0.600    0.000    0.000 
#    0.000    0.000    0.000    0.000    0.000    0.000 
#
# Total GULP energy -223114.495375 kJ/mol
# GULP energy per Si atom -5577.862384 kJ/mol
# Density = 2.093784 g / cm^3
# Si number density = 20.985602 Si / 1000 Ang^3
#
#
#
# Elastic Constant Matrix: (Units=GPa)
#
#
# Indices 1 2 3 4 5 6 
#
# 1 76.3662 65.7355 48.1758 0.0000 0.0000 0.0000
# 2 65.7355 185.1913 25.3070 0.0000 0.0000 0.0000
# 3 48.1758 25.3070 83.5783 0.0000 0.0000 0.0000
# 4 0.0000 0.0000 0.0000 50.5771 0.0000 0.0000
# 5 0.0000 0.0000 0.0000 0.0000 33.4808 0.0000
# 6 0.0000 0.0000 0.0000 0.0000 0.0000 11.1082
#
#
#
# Elastic Compliance Matrix: (Units=1/GPa)
#
#
# Indices 1 2 3 4 5 6 
#
# 1 0.029533 -0.008509 -0.014447 0.000000 0.000000 0.000000
# 2 -0.008509 0.008084 0.002457 0.000000 0.000000 0.000000
# 3 -0.014447 0.002457 0.019548 0.000000 0.000000 0.000000
# 4 0.000000 0.000000 0.000000 0.019772 0.000000 0.000000
# 5 0.000000 0.000000 0.000000 0.000000 0.029868 0.000000
# 6 0.000000 0.000000 0.000000 0.000000 0.000000 0.090024
#
#
# Mechanical properties :
#
#
# Convention : Reuss Voigt Hill
#
# Bulk Modulus (GPa) = 61.85134 69.28581 65.56858
# Shear Modulus (GPa) = 20.55784 32.76105 26.65944
#
# Velocity S-wave (km/s) = 3.13328 3.95539 3.56809
# Velocity P-wave (km/s) = 6.52894 7.34491 6.94891
#
# Compressibility (1/GPa) = 0.01616780
#
# Stress axis : x y z
#
# Youngs Moduli (GPa) = 33.86049 123.69517 51.15523
#
# Poissons Ratio (x) = 1.05250 0.73903
# Poissons Ratio (y) = 0.28811 -0.12567
# Poissons Ratio (z) = 0.48918 -0.30388
#
# Static dielectric constant tensor:
#      x y z
#    x 1.802670 0.000000 0.000000 
#    y 0.000000 1.865320 0.000000 
#    z 0.000000 0.000000 1.807970 
# 
# From -- ./inp_files/43667.got.cif
#   From: 2010.05.17/outbox.cif.g08.bks.cpg/sg70_22_cif.got.tgz:43667.got - 2010.06.03 15:57:51.
