data_PCOD9515186
_publ_section_title
;
Structure prediction by ZEFSAII (Michael W. Deem and Ramdas Pophale) SiO2 
 PCOD9515186
Probable space group: F D D D
;
_chemical_formula_sum "Si O2"
_cell_formula_units_Z 168
_cell_length_a 15.386683
_cell_length_b 19.868692
_cell_length_c 27.200765
_cell_angle_alpha 90.000000
_cell_angle_beta 90.000000
_cell_angle_gamma 90.000000
_cell_volume 8315.634690
_symmetry_space_group_name_H-M "F D D D"
_symmetry_group_IT_number 70
_space_group.IT_coordinate_system_code '2'
_symmetry_cell_setting 'orthorhombic'
loop_
_space_group_symop_operation_xyz
x,y,z
1/4-x,1/4-y,z
x,1/4-y,1/4-z
1/4-x,y,1/4-z
-x,-y,-z
3/4+x,3/4+y,-z
-x,3/4+y,3/4+z
3/4+x,-y,3/4+z
x,1/2+y,1/2+z
1/4-x,3/4-y,1/2+z
x,3/4-y,3/4-z
1/4-x,1/2+y,3/4-z
-x,1/2-y,1/2-z
3/4+x,1/4+y,1/2-z
-x,1/4+y,1/4+z
3/4+x,1/2-y,1/4+z
1/2+x,y,1/2+z
3/4-x,1/4-y,1/2+z
1/2+x,1/4-y,3/4-z
3/4-x,y,3/4-z
1/2-x,-y,1/2-z
1/4+x,3/4+y,1/2-z
1/2-x,3/4+y,1/4+z
1/4+x,-y,1/4+z
1/2+x,1/2+y,z
3/4-x,3/4-y,z
1/2+x,3/4-y,1/4-z
3/4-x,1/2+y,1/4-z
1/2-x,1/2-y,-z
1/4+x,1/4+y,-z
1/2-x,1/4+y,3/4+z
1/4+x,1/2-y,3/4+z
loop_
_atom_site_type_symbol
_atom_site_label
_atom_site_fract_x
_atom_site_fract_y
_atom_site_fract_z
Si Si1 0.875000 0.875000 0.375000
Si Si2 0.871070 0.112141 0.000227
Si Si3 0.222353 0.960981 0.824326
Si Si4 0.464126 0.581256 0.905044
Si Si5 0.066689 0.804340 0.849624
Si Si6 0.219909 0.113503 0.811589
O O1 0.807644 0.919587 0.342015
O O2 0.833222 0.175396 0.031099
O O3 0.903136 0.065511 0.043909
O O4 0.945982 0.113549 0.958474
O O5 0.786769 0.090639 0.968754
O O6 0.152575 0.964672 0.868916
O O7 0.247234 0.035927 0.809029
O O8 0.375000 0.587798 0.875000
O O9 0.495973 0.504349 0.903249
O O10 0.529575 0.619457 0.869157
O O11 0.036426 0.875000 0.875000
O O12 0.125000 0.125000 0.790673
#
# Coordination Sequence:
#
# PCOD9515186 Si02
#       6
#     8  32  32  32  32  32
#     4  12  24  40  72  92 138 172 206 268 328 396
#     4  10  22  40  63  96 123 168 217 268 316 394
#     4  11  23  42  63  97 130 171 212 263 327 389
#     4  10  22  41  63  91 126 172 214 269 322 381
#     4  10  20  42  64  91 131 163 215 263 322 384
#     4  11  23  41  64  90 132 173 213 271 323 390
#
# _framework density 20.202908000000001
#
# number of rings (size 3 to 8) (size 9 to 14) (size 15 to 20)
#    0.000    1.524    4.762    1.143    5.333    0.381 
#    3.429    0.000    0.000    0.000    0.000    0.000 
#    0.000    0.000    0.000    0.000    0.000    0.000 
#
# Total GULP energy -233857.968224 kJ/mol
# GULP energy per Si atom -5568.046862 kJ/mol
# Density = 2.015693 g / cm^3
# Si number density = 20.202908 Si / 1000 Ang^3
#
#
#
# Elastic Constant Matrix: (Units=GPa)
#
#
# Indices 1 2 3 4 5 6 
#
# 1 45.9116 7.4034 12.9305 0.0000 0.0000 0.0000
# 2 7.4034 74.2643 10.2002 0.0000 0.0000 0.0000
# 3 12.9305 10.2002 136.6332 0.0000 0.0000 0.0000
# 4 0.0000 0.0000 0.0000 8.0496 0.0000 0.0000
# 5 0.0000 0.0000 0.0000 0.0000 46.3225 0.0000
# 6 0.0000 0.0000 0.0000 0.0000 0.0000 31.1628
#
#
#
# Elastic Compliance Matrix: (Units=1/GPa)
#
#
# Indices 1 2 3 4 5 6 
#
# 1 0.022663 -0.001985 -0.001997 0.000000 0.000000 0.000000
# 2 -0.001985 0.013779 -0.000841 0.000000 0.000000 0.000000
# 3 -0.001997 -0.000841 0.007571 0.000000 0.000000 0.000000
# 4 0.000000 0.000000 0.000000 0.124229 0.000000 0.000000
# 5 0.000000 0.000000 0.000000 0.000000 0.021588 0.000000
# 6 0.000000 0.000000 0.000000 0.000000 0.000000 0.032090
#
#
# Mechanical properties :
#
#
# Convention : Reuss Voigt Hill
#
# Bulk Modulus (GPa) = 29.09694 35.31970 32.20832
# Shear Modulus (GPa) = 20.57441 32.19199 26.38320
#
# Velocity S-wave (km/s) = 3.19468 3.99611 3.61766
# Velocity P-wave (km/s) = 5.29543 6.22995 5.78161
#
# Compressibility (1/GPa) = 0.03436787
#
# Stress axis : x y z
#
# Youngs Moduli (GPa) = 44.12397 72.57533 132.09022
#
# Poissons Ratio (x) = 0.14407 0.26373
# Poissons Ratio (y) = 0.08759 0.11106
# Poissons Ratio (z) = 0.08810 0.06102
#
# Static dielectric constant tensor:
#      x y z
#    x 1.753200 0.000000 0.000000 
#    y 0.000000 1.721540 0.000000 
#    z 0.000000 0.000000 1.801780 
# 
# From -- ./inp_files/46765.got.cif
#   From: 2010.05.17/outbox.cif.g08.bks.cpg/sg70_24_cif.got.tgz:46765.got - 2010.06.03 15:57:51.
