data_PCOD9515188
_publ_section_title
;
Structure prediction by ZEFSAII (Michael W. Deem and Ramdas Pophale) SiO2 
 PCOD9515188
Probable space group: F D D D
;
_chemical_formula_sum "Si O2"
_cell_formula_units_Z 176
_cell_length_a 28.598101
_cell_length_b 28.263920
_cell_length_c 10.721504
_cell_angle_alpha 90.000000
_cell_angle_beta 90.000000
_cell_angle_gamma 90.000000
_cell_volume 8666.132059
_symmetry_space_group_name_H-M "F D D D"
_symmetry_group_IT_number 70
_space_group.IT_coordinate_system_code '2'
_symmetry_cell_setting 'orthorhombic'
loop_
_space_group_symop_operation_xyz
x,y,z
1/4-x,1/4-y,z
x,1/4-y,1/4-z
1/4-x,y,1/4-z
-x,-y,-z
3/4+x,3/4+y,-z
-x,3/4+y,3/4+z
3/4+x,-y,3/4+z
x,1/2+y,1/2+z
1/4-x,3/4-y,1/2+z
x,3/4-y,3/4-z
1/4-x,1/2+y,3/4-z
-x,1/2-y,1/2-z
3/4+x,1/4+y,1/2-z
-x,1/4+y,1/4+z
3/4+x,1/2-y,1/4+z
1/2+x,y,1/2+z
3/4-x,1/4-y,1/2+z
1/2+x,1/4-y,3/4-z
3/4-x,y,3/4-z
1/2-x,-y,1/2-z
1/4+x,3/4+y,1/2-z
1/2-x,3/4+y,1/4+z
1/4+x,-y,1/4+z
1/2+x,1/2+y,z
3/4-x,3/4-y,z
1/2+x,3/4-y,1/4-z
3/4-x,1/2+y,1/4-z
1/2-x,1/2-y,-z
1/4+x,1/4+y,-z
1/2-x,1/4+y,3/4+z
1/4+x,1/2-y,3/4+z
loop_
_atom_site_type_symbol
_atom_site_label
_atom_site_fract_x
_atom_site_fract_y
_atom_site_fract_z
Si Si1 0.125000 0.021080 0.125000
Si Si2 0.114914 0.569690 0.874180
Si Si3 0.047531 0.015228 0.565528
Si Si4 0.390898 0.625000 0.125000
Si Si5 0.219242 0.036813 0.418453
Si Si6 0.875000 0.564369 0.875000
Si Si7 0.952766 0.045837 0.000218
O O1 0.103085 0.053564 0.233833
O O2 0.083240 0.987682 0.075270
O O3 0.125000 0.625000 0.887903
O O4 0.165695 0.547148 0.891948
O O5 0.079400 0.547222 0.974105
O O6 0.028013 0.042497 0.685622
O O7 0.080322 0.971827 0.616231
O O8 0.000000 0.000000 0.500000
O O9 0.369987 0.596439 0.247695
O O10 0.422117 0.664136 0.190165
O O11 0.257293 0.065692 0.340910
O O12 0.226670 0.984263 0.361659
#
# Coordination Sequence:
#
# PCOD9515188 Si02
#       7
#    16  32  32  16  32  16  32
#     4  10  20  42  64  95 136 179 230 280 362 430
#     4  11  23  41  66  99 135 179 236 300 341 424
#     4  12  24  44  73  95 140 191 235 288 374 441
#     4  12  24  42  76 104 153 173 244 316 352 440
#     4  10  21  42  63  90 135 177 221 278 356 423
#     4  12  25  48  67 111 140 191 235 300 373 436
#     4  10  21  40  66  96 132 183 221 285 360 419
#
# _framework density 20.308945999999999
#
# number of rings (size 3 to 8) (size 9 to 14) (size 15 to 20)
#    0.000    1.091    3.636    3.000    0.000    4.364 
#    9.818    0.000    0.000    0.000    0.000    0.000 
#    0.000    0.000    0.000    0.000    0.000    0.000 
#
# Total GULP energy -245113.928025 kJ/mol
# GULP energy per Si atom -5570.771091 kJ/mol
# Density = 2.026272 g / cm^3
# Si number density = 20.308946 Si / 1000 Ang^3
#
#
#
# Elastic Constant Matrix: (Units=GPa)
#
#
# Indices 1 2 3 4 5 6 
#
# 1 95.6208 13.8406 42.7222 -0.0004 0.0009 0.0002
# 2 13.8406 70.0071 43.8062 -0.0007 0.0013 0.0001
# 3 42.7222 43.8062 153.5252 -0.0013 0.0036 -0.0002
# 4 -0.0004 -0.0007 -0.0013 -0.1688 -0.0003 0.0013
# 5 0.0009 0.0013 0.0036 -0.0003 114.9395 0.0018
# 6 0.0002 0.0001 -0.0002 0.0013 0.0018 -46.7954
#
#
#
# Elastic Compliance Matrix: (Units=1/GPa)
#
#
# Indices 1 2 3 4 5 6 
#
# 1 0.011950 -0.000343 -0.003227 -0.000005 0.000000 0.000000
# 2 -0.000343 0.017399 -0.004869 -0.000039 0.000000 0.000000
# 3 -0.003227 -0.004869 0.008801 -0.000038 0.000000 0.000000
# 4 -0.000005 -0.000039 -0.000038 -5.924151 -0.000016 -0.000159
# 5 0.000000 0.000000 0.000000 -0.000016 0.008700 0.000000
# 6 0.000000 0.000000 0.000000 -0.000159 0.000000 -0.021370
#
#
# Mechanical properties :
#
#
# Convention : Reuss Voigt Hill
#
# Bulk Modulus (GPa) = 47.01330 57.76565 52.38947
# Shear Modulus (GPa) = -0.85111 28.18067 13.66478
#
# Velocity S-wave (km/s) = -0.64807 3.72909 2.59674
# Velocity P-wave (km/s) = 4.75808 6.85906 5.90280
#
# Compressibility (1/GPa) = 0.02127058
#
# Stress axis : x y z
#
# Youngs Moduli (GPa) = 83.68493 57.47511 113.62325
#
# Poissons Ratio (x) = 0.01971 0.36671
# Poissons Ratio (y) = 0.02870 0.55324
# Poissons Ratio (z) = 0.27009 0.27985
#
# Static dielectric constant tensor:
#      x y z
#    x 1.708810 0.000000 0.000290 
#    y 0.000000 1.790040 -0.000080 
#    z 0.000290 -0.000080 -45.133190 
# 
# From -- ./inp_files/21222.got.cif
#   From: 2010.05.17/outbox.cif.g08.bks.cpg/sg70_11_cif.got.tgz:21222.got - 2010.06.03 15:57:51.
