data_PCOD9515234
_publ_section_title
;
Structure prediction by ZEFSAII (Michael W. Deem and Ramdas Pophale) SiO2 
 PCOD9515234
Probable space group: F D D D
;
_chemical_formula_sum "Si O2"
_cell_formula_units_Z 144
_cell_length_a 15.308685
_cell_length_b 24.560369
_cell_length_c 18.587791
_cell_angle_alpha 90.000000
_cell_angle_beta 90.000000
_cell_angle_gamma 90.000000
_cell_volume 6988.766892
_symmetry_space_group_name_H-M "F D D D"
_symmetry_group_IT_number 70
_space_group.IT_coordinate_system_code '2'
_symmetry_cell_setting 'orthorhombic'
loop_
_space_group_symop_operation_xyz
x,y,z
1/4-x,1/4-y,z
x,1/4-y,1/4-z
1/4-x,y,1/4-z
-x,-y,-z
3/4+x,3/4+y,-z
-x,3/4+y,3/4+z
3/4+x,-y,3/4+z
x,1/2+y,1/2+z
1/4-x,3/4-y,1/2+z
x,3/4-y,3/4-z
1/4-x,1/2+y,3/4-z
-x,1/2-y,1/2-z
3/4+x,1/4+y,1/2-z
-x,1/4+y,1/4+z
3/4+x,1/2-y,1/4+z
1/2+x,y,1/2+z
3/4-x,1/4-y,1/2+z
1/2+x,1/4-y,3/4-z
3/4-x,y,3/4-z
1/2-x,-y,1/2-z
1/4+x,3/4+y,1/2-z
1/2-x,3/4+y,1/4+z
1/4+x,-y,1/4+z
1/2+x,1/2+y,z
3/4-x,3/4-y,z
1/2+x,3/4-y,1/4-z
3/4-x,1/2+y,1/4-z
1/2-x,1/2-y,-z
1/4+x,1/4+y,-z
1/2-x,1/4+y,3/4+z
1/4+x,1/2-y,3/4+z
loop_
_atom_site_type_symbol
_atom_site_label
_atom_site_fract_x
_atom_site_fract_y
_atom_site_fract_z
Si Si1 0.644014 0.875000 0.875000
Si Si2 0.048510 0.192560 0.180937
Si Si3 0.875000 0.107495 0.375000
Si Si4 0.967716 0.939293 0.090747
Si Si5 0.964638 0.189057 0.738471
Si Si6 0.625000 0.125000 0.958274
O O1 0.712045 0.905443 0.822744
O O2 0.587477 0.829758 0.832828
O O3 0.125000 0.179845 0.125000
O O4 0.014583 0.252441 0.159488
O O5 0.079529 0.188079 0.263291
O O6 0.793954 0.144961 0.399001
O O7 0.903267 0.072546 0.443167
O O8 0.903044 0.924663 0.155619
O O9 0.000000 0.250000 0.750000
O O10 0.044878 0.146674 0.745492
#
# Coordination Sequence:
#
# PCOD9515234 Si02
#       6
#    16  32  16  32  32  16
#     4  12  25  41  64 102 134 170 228 285 335 402
#     4  11  23  37  66  97 134 164 214 275 344 396
#     4  10  20  44  64  90 134 174 222 274 338 398
#     4  10  21  40  61  95 125 176 211 268 331 405
#     4  11  25  44  67  98 133 183 229 283 337 406
#     4  10  24  41  65  88 130 176 226 266 332 399
#
# _framework density 20.604493999999999
#
# number of rings (size 3 to 8) (size 9 to 14) (size 15 to 20)
#    0.000    1.333    3.333    1.667    3.111    2.222 
#    0.000    0.000    0.000    0.000    0.000    0.000 
#    0.000    0.000    0.000    0.000    0.000    0.000 
#
# Total GULP energy -200984.509972 kJ/mol
# GULP energy per Si atom -5582.903055 kJ/mol
# Density = 2.055760 g / cm^3
# Si number density = 20.604494 Si / 1000 Ang^3
#
#
#
# Elastic Constant Matrix: (Units=GPa)
#
#
# Indices 1 2 3 4 5 6 
#
# 1 74.0193 0.8985 24.7879 0.0000 0.0000 0.0000
# 2 0.8985 91.4574 6.0603 0.0000 0.0000 0.0000
# 3 24.7879 6.0603 61.4340 0.0000 0.0000 0.0000
# 4 0.0000 0.0000 0.0000 21.3040 0.0000 0.0000
# 5 0.0000 0.0000 0.0000 0.0000 20.6838 0.0000
# 6 0.0000 0.0000 0.0000 0.0000 0.0000 28.1655
#
#
#
# Elastic Compliance Matrix: (Units=1/GPa)
#
#
# Indices 1 2 3 4 5 6 
#
# 1 0.015627 0.000266 -0.006332 0.000000 0.000000 0.000000
# 2 0.000266 0.011011 -0.001193 0.000000 0.000000 0.000000
# 3 -0.006332 -0.001193 0.018950 0.000000 0.000000 0.000000
# 4 0.000000 0.000000 0.000000 0.046939 0.000000 0.000000
# 5 0.000000 0.000000 0.000000 0.000000 0.048347 0.000000
# 6 0.000000 0.000000 0.000000 0.000000 0.000000 0.035504
#
#
# Mechanical properties :
#
#
# Convention : Reuss Voigt Hill
#
# Bulk Modulus (GPa) = 32.18581 32.26712 32.22646
# Shear Modulus (GPa) = 24.84432 27.04161 25.94296
#
# Velocity S-wave (km/s) = 3.47619 3.62665 3.55222
# Velocity P-wave (km/s) = 5.63618 5.76464 5.70077
#
# Compressibility (1/GPa) = 0.03106960
#
# Stress axis : x y z
#
# Youngs Moduli (GPa) = 63.99134 90.82216 52.77022
#
# Poissons Ratio (x) = -0.02416 0.33412
# Poissons Ratio (y) = -0.01702 0.06298
# Poissons Ratio (z) = 0.40517 0.10840
#
# Static dielectric constant tensor:
#      x y z
#    x 1.719450 0.000000 0.000000 
#    y 0.000000 1.752070 0.000000 
#    z 0.000000 0.000000 1.726930 
# 
# From -- ./inp_files/35047.got.cif
#   From: 2010.05.17/outbox.cif.g08.bks.cpg/sg70_18_cif.got.tgz:35047.got - 2010.06.03 15:57:51.
