data_PCOD9515184
_publ_section_title
;
Structure prediction by ZEFSAII (Michael W. Deem and Ramdas Pophale) SiO2 
 PCOD9515184
Probable space group: F D D D
;
_chemical_formula_sum "Si O2"
_cell_formula_units_Z 128
_cell_length_a 9.881452
_cell_length_b 25.609542
_cell_length_c 26.150687
_cell_angle_alpha 90.000000
_cell_angle_beta 90.000000
_cell_angle_gamma 90.000000
_cell_volume 6617.678731
_symmetry_space_group_name_H-M "F D D D"
_symmetry_group_IT_number 70
_space_group.IT_coordinate_system_code '2'
_symmetry_cell_setting 'orthorhombic'
loop_
_space_group_symop_operation_xyz
x,y,z
1/4-x,1/4-y,z
x,1/4-y,1/4-z
1/4-x,y,1/4-z
-x,-y,-z
3/4+x,3/4+y,-z
-x,3/4+y,3/4+z
3/4+x,-y,3/4+z
x,1/2+y,1/2+z
1/4-x,3/4-y,1/2+z
x,3/4-y,3/4-z
1/4-x,1/2+y,3/4-z
-x,1/2-y,1/2-z
3/4+x,1/4+y,1/2-z
-x,1/4+y,1/4+z
3/4+x,1/2-y,1/4+z
1/2+x,y,1/2+z
3/4-x,1/4-y,1/2+z
1/2+x,1/4-y,3/4-z
3/4-x,y,3/4-z
1/2-x,-y,1/2-z
1/4+x,3/4+y,1/2-z
1/2-x,3/4+y,1/4+z
1/4+x,-y,1/4+z
1/2+x,1/2+y,z
3/4-x,3/4-y,z
1/2+x,3/4-y,1/4-z
3/4-x,1/2+y,1/4-z
1/2-x,1/2-y,-z
1/4+x,1/4+y,-z
1/2-x,1/4+y,3/4+z
1/4+x,1/2-y,3/4+z
loop_
_atom_site_type_symbol
_atom_site_label
_atom_site_fract_x
_atom_site_fract_y
_atom_site_fract_z
Si Si1 0.207012 0.208886 0.174421
Si Si2 0.625000 0.625000 0.751452
Si Si3 0.878382 0.077044 0.814963
Si Si4 0.375000 0.875000 0.243421
Si Si5 0.000890 0.569906 0.094170
O O1 0.125000 0.189580 0.125000
O O2 0.144660 0.264567 0.189051
O O3 0.192453 0.168113 0.219972
O O4 0.364258 0.212465 0.158936
O O5 0.507196 0.601161 0.786004
O O6 0.555227 0.665722 0.712040
O O7 0.875000 0.090134 0.875000
O O8 0.741697 0.097797 0.789408
O O9 0.973511 0.625000 0.125000
O O10 0.125000 0.544453 0.125000
#
# Coordination Sequence:
#
# PCOD9515184 Si02
#       5
#    32  16  32  16  32
#     4  11  23  39  66 100 124 161 213 270 318 379
#     4  10  20  42  64  84 132 164 210 256 318 380
#     4  11  25  42  61  91 128 170 216 254 315 385
#     4  12  22  44  66  90 128 174 204 268 322 372
#     4   9  19  37  64  94 122 161 208 270 323 364
#
# _framework density 19.342130000000001
#
# number of rings (size 3 to 8) (size 9 to 14) (size 15 to 20)
#    0.000    1.750    2.500    3.375    3.500    1.000 
#    0.000    1.250    0.000    0.000    0.000    0.000 
#    0.000    0.000    0.000    0.000    0.000    0.000 
#
# Total GULP energy -178767.606911 kJ/mol
# GULP energy per Si atom -5586.487716 kJ/mol
# Density = 1.929811 g / cm^3
# Si number density = 19.342130 Si / 1000 Ang^3
#
#
#
# Elastic Constant Matrix: (Units=GPa)
#
#
# Indices 1 2 3 4 5 6 
#
# 1 160.1283 59.7034 60.3387 0.0000 0.0000 0.0000
# 2 59.7034 72.0582 50.9320 0.0000 0.0000 0.0000
# 3 60.3387 50.9320 127.4624 0.0000 0.0000 0.0000
# 4 0.0000 0.0000 0.0000 -26.1101 0.0000 0.0000
# 5 0.0000 0.0000 0.0000 0.0000 -2.2127 0.0000
# 6 0.0000 0.0000 0.0000 0.0000 0.0000 34.3622
#
#
#
# Elastic Compliance Matrix: (Units=1/GPa)
#
#
# Indices 1 2 3 4 5 6 
#
# 1 0.009340 -0.006429 -0.001852 0.000000 0.000000 0.000000
# 2 -0.006429 0.023766 -0.006453 0.000000 0.000000 0.000000
# 3 -0.001852 -0.006453 0.011301 0.000000 0.000000 0.000000
# 4 0.000000 0.000000 0.000000 -0.038299 0.000000 0.000000
# 5 0.000000 0.000000 0.000000 0.000000 -0.451931 0.000000
# 6 0.000000 0.000000 0.000000 0.000000 0.000000 0.029102
#
#
# Mechanical properties :
#
#
# Convention : Reuss Voigt Hill
#
# Bulk Modulus (GPa) = 66.94610 77.95522 72.45066
# Shear Modulus (GPa) = -13.07966 13.78618 0.35326
#
# Velocity S-wave (km/s) = -2.60326 2.67264 0.42783
# Velocity P-wave (km/s) = 5.06466 7.06504 6.14677
#
# Compressibility (1/GPa) = 0.01493739
#
# Stress axis : x y z
#
# Youngs Moduli (GPa) = 107.06394 42.07737 88.48936
#
# Poissons Ratio (x) = 0.27054 0.16392
# Poissons Ratio (y) = 0.68836 0.57101
# Poissons Ratio (z) = 0.19832 0.27152
#
# Static dielectric constant tensor:
#      x y z
#    x 1.665410 0.000000 0.000000 
#    y 0.000000 1.675440 0.000000 
#    z 0.000000 0.000000 1.663030 
# 
# From -- ./inp_files/56620.got.cif
#   From: 2010.05.17/outbox.cif.g08.bks.cpg/sg70_29_cif.got.tgz:56620.got - 2010.06.03 15:57:51.
