data_PCOD9515951
_publ_section_title
;
Structure prediction by ZEFSAII (Michael W. Deem and Ramdas Pophale) SiO2 
 PCOD9515951
Probable space group: F D D D
;
_chemical_formula_sum "Si O2"
_cell_formula_units_Z 192
_cell_length_a 23.779376
_cell_length_b 14.217386
_cell_length_c 27.057318
_cell_angle_alpha 90.000000
_cell_angle_beta 90.000000
_cell_angle_gamma 90.000000
_cell_volume 9147.553423
_symmetry_space_group_name_H-M "F D D D"
_symmetry_group_IT_number 70
_space_group.IT_coordinate_system_code '2'
_symmetry_cell_setting 'orthorhombic'
loop_
_space_group_symop_operation_xyz
x,y,z
1/4-x,1/4-y,z
x,1/4-y,1/4-z
1/4-x,y,1/4-z
-x,-y,-z
3/4+x,3/4+y,-z
-x,3/4+y,3/4+z
3/4+x,-y,3/4+z
x,1/2+y,1/2+z
1/4-x,3/4-y,1/2+z
x,3/4-y,3/4-z
1/4-x,1/2+y,3/4-z
-x,1/2-y,1/2-z
3/4+x,1/4+y,1/2-z
-x,1/4+y,1/4+z
3/4+x,1/2-y,1/4+z
1/2+x,y,1/2+z
3/4-x,1/4-y,1/2+z
1/2+x,1/4-y,3/4-z
3/4-x,y,3/4-z
1/2-x,-y,1/2-z
1/4+x,3/4+y,1/2-z
1/2-x,3/4+y,1/4+z
1/4+x,-y,1/4+z
1/2+x,1/2+y,z
3/4-x,3/4-y,z
1/2+x,3/4-y,1/4-z
3/4-x,1/2+y,1/4-z
1/2-x,1/2-y,-z
1/4+x,1/4+y,-z
1/2-x,1/4+y,3/4+z
1/4+x,1/2-y,3/4+z
loop_
_atom_site_type_symbol
_atom_site_label
_atom_site_fract_x
_atom_site_fract_y
_atom_site_fract_z
Si Si1 0.098720 0.450218 0.177941
Si Si2 0.375000 0.375000 0.044989
Si Si3 0.208322 0.889655 0.316397
Si Si4 0.602193 0.318206 0.499302
Si Si5 0.760323 0.932860 0.543309
Si Si6 0.125000 0.125000 0.748948
Si Si7 0.506891 0.661466 0.340663
O O1 0.125000 0.471577 0.125000
O O2 0.123990 0.353561 0.198842
O O3 0.117611 0.533118 0.214532
O O4 0.032921 0.423362 0.177239
O O5 0.428100 0.391523 0.080065
O O6 0.392506 0.291140 0.009495
O O7 0.201624 0.875000 0.375000
O O8 0.146142 0.895720 0.292079
O O9 0.233711 0.796362 0.292015
O O10 0.246248 0.985194 0.313592
O O11 0.537129 0.347138 0.503807
O O12 0.818483 0.879931 0.531357
O O13 0.745368 0.916572 0.600803
#
# Coordination Sequence:
#
# PCOD9515951 Si02
#       7
#    32  16  32  32  32  16  32
#     4  12  25  46  64  98 137 180 223 277 331 393
#     4  10  23  38  67 103 128 175 213 275 344 402
#     4   9  21  42  70 100 132 170 218 283 343 392
#     4  11  23  41  68  99 134 169 224 268 343 399
#     4  11  22  43  67 100 130 180 225 274 331 400
#     4  12  26  44  72  89 136 187 232 271 323 390
#     4  10  22  43  69  98 139 166 219 283 339 397
#
# _framework density 20.989218999999999
#
# number of rings (size 3 to 8) (size 9 to 14) (size 15 to 20)
#    0.000    1.333    3.333    1.750    2.333    2.000 
#    0.000    2.083    0.000    0.000    0.000    0.000 
#    0.000    0.000    0.000    0.000    0.000    0.000 
#
# Total GULP energy -267515.017072 kJ/mol
# GULP energy per Si atom -5573.229522 kJ/mol
# Density = 2.094145 g / cm^3
# Si number density = 20.989219 Si / 1000 Ang^3
#
#
#
# Elastic Constant Matrix: (Units=GPa)
#
#
# Indices 1 2 3 4 5 6 
#
# 1 110.8117 7.4177 9.2790 0.0000 0.0000 0.0000
# 2 7.4177 44.3623 10.6095 0.0000 0.0000 0.0000
# 3 9.2790 10.6095 79.2052 0.0000 0.0000 0.0000
# 4 0.0000 0.0000 0.0000 32.0475 0.0000 0.0000
# 5 0.0000 0.0000 0.0000 0.0000 -142.6860 0.0000
# 6 0.0000 0.0000 0.0000 0.0000 0.0000 14.4509
#
#
#
# Elastic Compliance Matrix: (Units=1/GPa)
#
#
# Indices 1 2 3 4 5 6 
#
# 1 0.009188 -0.001321 -0.000899 0.000000 0.000000 0.000000
# 2 -0.001321 0.023478 -0.002990 0.000000 0.000000 0.000000
# 3 -0.000899 -0.002990 0.013131 0.000000 0.000000 0.000000
# 4 0.000000 0.000000 0.000000 0.031204 0.000000 0.000000
# 5 0.000000 0.000000 0.000000 0.000000 -0.007008 0.000000
# 6 0.000000 0.000000 0.000000 0.000000 0.000000 0.069200
#
#
# Mechanical properties :
#
#
# Convention : Reuss Voigt Hill
#
# Bulk Modulus (GPa) = 28.26798 32.11017 30.18908
# Shear Modulus (GPa) = 30.97792 -5.43264 12.77264
#
# Velocity S-wave (km/s) = 3.84591 -1.61056 2.46952
# Velocity P-wave (km/s) = 5.76354 3.44573 4.74824
#
# Compressibility (1/GPa) = 0.03537572
#
# Stress axis : x y z
#
# Youngs Moduli (GPa) = 108.83678 42.59372 76.15380
#
# Poissons Ratio (x) = 0.05627 0.06849
# Poissons Ratio (y) = 0.14380 0.22770
# Poissons Ratio (z) = 0.09789 0.12736
#
# Static dielectric constant tensor:
#      x y z
#    x 1.815510 0.000000 0.000000 
#    y 0.000000 1.802210 0.000000 
#    z 0.000000 0.000000 1.745920 
# 
# From -- ./inp_files/61164.got.cif
#   From: 2010.05.17/outbox.cif.g08.bks.cpg/sg70_31_cif.got.tgz:61164.got - 2010.06.03 15:57:51.
