data_PCOD9515410
_publ_section_title
;
Structure prediction by ZEFSAII (Michael W. Deem and Ramdas Pophale) SiO2 
 PCOD9515410
Probable space group: F D D D
;
_chemical_formula_sum "Si O2"
_cell_formula_units_Z 176
_cell_length_a 14.107263
_cell_length_b 25.093998
_cell_length_c 22.582224
_cell_angle_alpha 90.000000
_cell_angle_beta 90.000000
_cell_angle_gamma 90.000000
_cell_volume 7994.279587
_symmetry_space_group_name_H-M "F D D D"
_symmetry_group_IT_number 70
_space_group.IT_coordinate_system_code '2'
_symmetry_cell_setting 'orthorhombic'
loop_
_space_group_symop_operation_xyz
x,y,z
1/4-x,1/4-y,z
x,1/4-y,1/4-z
1/4-x,y,1/4-z
-x,-y,-z
3/4+x,3/4+y,-z
-x,3/4+y,3/4+z
3/4+x,-y,3/4+z
x,1/2+y,1/2+z
1/4-x,3/4-y,1/2+z
x,3/4-y,3/4-z
1/4-x,1/2+y,3/4-z
-x,1/2-y,1/2-z
3/4+x,1/4+y,1/2-z
-x,1/4+y,1/4+z
3/4+x,1/2-y,1/4+z
1/2+x,y,1/2+z
3/4-x,1/4-y,1/2+z
1/2+x,1/4-y,3/4-z
3/4-x,y,3/4-z
1/2-x,-y,1/2-z
1/4+x,3/4+y,1/2-z
1/2-x,3/4+y,1/4+z
1/4+x,-y,1/4+z
1/2+x,1/2+y,z
3/4-x,3/4-y,z
1/2+x,3/4-y,1/4-z
3/4-x,1/2+y,1/4-z
1/2-x,1/2-y,-z
1/4+x,1/4+y,-z
1/2-x,1/4+y,3/4+z
1/4+x,1/2-y,3/4+z
loop_
_atom_site_type_symbol
_atom_site_label
_atom_site_fract_x
_atom_site_fract_y
_atom_site_fract_z
Si Si1 0.875000 0.375000 0.981227
Si Si2 0.665430 0.715084 0.297662
Si Si3 0.625000 0.125000 0.531776
Si Si4 0.678622 0.834297 0.286797
Si Si5 0.822806 0.973318 0.182507
Si Si6 0.782236 0.625000 0.125000
Si Si7 0.620035 0.810734 0.724300
O O1 0.783786 0.395659 0.945443
O O2 0.852752 0.324956 0.024169
O O3 0.601260 0.674815 0.260082
O O4 0.674580 0.773147 0.268378
O O5 0.637934 0.717908 0.366581
O O6 0.773016 0.693582 0.296400
O O7 0.710354 0.105852 0.573956
O O8 0.603674 0.837419 0.339863
O O9 0.651605 0.877480 0.237094
O O10 0.708212 0.967129 0.182434
O O11 0.853578 0.027945 0.214349
#
# Coordination Sequence:
#
# PCOD9515410 Si02
#       7
#    16  32  16  32  32  16  32
#     4  10  21  41  65 108 135 177 215 280 336 430
#     4  12  23  42  69  99 130 187 227 282 339 408
#     4  11  27  46  71  92 137 178 250 284 344 388
#     4  11  23  40  73  96 139 175 228 267 350 401
#     4  10  21  38  67  96 149 176 218 278 341 404
#     4  11  24  49  66  94 136 185 222 305 324 408
#     4  10  21  42  61 103 143 178 220 281 333 409
#
# _framework density 22.015743000000001
#
# number of rings (size 3 to 8) (size 9 to 14) (size 15 to 20)
#    0.000    1.273    3.636    2.182    0.000    1.091 
#    3.273    0.000    8.000    0.000    0.000    0.000 
#    0.000    0.000    0.000    0.000    0.000    0.000 
#
# Total GULP energy -245607.992128 kJ/mol
# GULP energy per Si atom -5581.999821 kJ/mol
# Density = 2.196563 g / cm^3
# Si number density = 22.015743 Si / 1000 Ang^3
#
#
#
# Elastic Constant Matrix: (Units=GPa)
#
#
# Indices 1 2 3 4 5 6 
#
# 1 70.8862 6.6444 5.3262 0.0000 0.0000 0.0000
# 2 6.6444 117.2710 18.4380 0.0000 0.0000 0.0000
# 3 5.3262 18.4380 93.1757 0.0000 0.0000 0.0000
# 4 0.0000 0.0000 0.0000 14.6050 0.0000 0.0000
# 5 0.0000 0.0000 0.0000 0.0000 27.6282 0.0000
# 6 0.0000 0.0000 0.0000 0.0000 0.0000 22.9057
#
#
#
# Elastic Compliance Matrix: (Units=1/GPa)
#
#
# Indices 1 2 3 4 5 6 
#
# 1 0.014223 -0.000700 -0.000675 0.000000 0.000000 0.000000
# 2 -0.000700 0.008836 -0.001708 0.000000 0.000000 0.000000
# 3 -0.000675 -0.001708 0.011109 0.000000 0.000000 0.000000
# 4 0.000000 0.000000 0.000000 0.068470 0.000000 0.000000
# 5 0.000000 0.000000 0.000000 0.000000 0.036195 0.000000
# 6 0.000000 0.000000 0.000000 0.000000 0.000000 0.043657
#
#
# Mechanical properties :
#
#
# Convention : Reuss Voigt Hill
#
# Bulk Modulus (GPa) = 35.71127 38.01669 36.86398
# Shear Modulus (GPa) = 25.25385 29.75605 27.50495
#
# Velocity S-wave (km/s) = 3.39053 3.68037 3.53842
# Velocity P-wave (km/s) = 5.61993 5.94690 5.78573
#
# Compressibility (1/GPa) = 0.02800237
#
# Stress axis : x y z
#
# Youngs Moduli (GPa) = 70.30665 113.17964 90.01676
#
# Poissons Ratio (x) = 0.07921 0.06072
# Poissons Ratio (y) = 0.04920 0.15379
# Poissons Ratio (z) = 0.04743 0.19336
#
# Static dielectric constant tensor:
#      x y z
#    x 1.863040 0.000000 0.000000 
#    y 0.000000 1.810190 0.000000 
#    z 0.000000 0.000000 1.827880 
# 
# From -- ./inp_files/51392.got.cif
#   From: 2010.05.17/outbox.cif.g08.bks.cpg/sg70_26_cif.got.tgz:51392.got - 2010.06.03 15:57:51.
