data_PCOD9515673
_publ_section_title
;
Structure prediction by ZEFSAII (Michael W. Deem and Ramdas Pophale) SiO2 
 PCOD9515673
Probable space group: F D D D
;
_chemical_formula_sum "Si O2"
_cell_formula_units_Z 136
_cell_length_a 18.096982
_cell_length_b 27.645455
_cell_length_c 10.188123
_cell_angle_alpha 90.000000
_cell_angle_beta 90.000000
_cell_angle_gamma 90.000000
_cell_volume 5097.110821
_symmetry_space_group_name_H-M "F D D D"
_symmetry_group_IT_number 70
_space_group.IT_coordinate_system_code '2'
_symmetry_cell_setting 'orthorhombic'
loop_
_space_group_symop_operation_xyz
x,y,z
1/4-x,1/4-y,z
x,1/4-y,1/4-z
1/4-x,y,1/4-z
-x,-y,-z
3/4+x,3/4+y,-z
-x,3/4+y,3/4+z
3/4+x,-y,3/4+z
x,1/2+y,1/2+z
1/4-x,3/4-y,1/2+z
x,3/4-y,3/4-z
1/4-x,1/2+y,3/4-z
-x,1/2-y,1/2-z
3/4+x,1/4+y,1/2-z
-x,1/4+y,1/4+z
3/4+x,1/2-y,1/4+z
1/2+x,y,1/2+z
3/4-x,1/4-y,1/2+z
1/2+x,1/4-y,3/4-z
3/4-x,y,3/4-z
1/2-x,-y,1/2-z
1/4+x,3/4+y,1/2-z
1/2-x,3/4+y,1/4+z
1/4+x,-y,1/4+z
1/2+x,1/2+y,z
3/4-x,3/4-y,z
1/2+x,3/4-y,1/4-z
3/4-x,1/2+y,1/4-z
1/2-x,1/2-y,-z
1/4+x,1/4+y,-z
1/2-x,1/4+y,3/4+z
1/4+x,1/2-y,3/4+z
loop_
_atom_site_type_symbol
_atom_site_label
_atom_site_fract_x
_atom_site_fract_y
_atom_site_fract_z
Si Si1 0.290038 0.201298 0.801183
Si Si2 0.202453 0.545261 0.206519
Si Si3 0.875000 0.375000 0.375000
Si Si4 0.492009 0.646047 0.943298
Si Si5 0.585298 0.770594 0.405021
O O1 0.239486 0.185629 0.676840
O O2 0.288126 0.157281 0.906418
O O3 0.364493 0.219436 0.724038
O O4 0.245353 0.246742 0.860589
O O5 0.250000 0.500000 0.250000
O O6 0.224664 0.585499 0.308965
O O7 0.125062 0.520359 0.252832
O O8 0.814973 0.400673 0.466333
O O9 0.429820 0.680148 0.011289
#
# Coordination Sequence:
#
# PCOD9515673 Si02
#       5
#    32  32   8  32  32
#     4  11  25  46  90 128 173 226 289 366 447 530
#     4  10  21  45  83 119 171 215 281 362 429 521
#     4  12  32  56  78 120 172 228 282 370 424 532
#     4  12  26  53  83 118 176 230 297 352 445 539
#     4  11  23  48  84 129 171 228 286 373 439 528
#
# _framework density 26.681781000000001
#
# number of rings (size 3 to 8) (size 9 to 14) (size 15 to 20)
#    0.000    0.941    4.706    2.824    3.294    0.000 
#   16.941    8.235    0.000    0.000    0.000    0.000 
#    0.000    0.000    0.000    0.000    0.000    0.000 
#
# Total GULP energy -189466.555176 kJ/mol
# GULP energy per Si atom -5572.545740 kJ/mol
# Density = 2.662105 g / cm^3
# Si number density = 26.681781 Si / 1000 Ang^3
#
#
#
# Elastic Constant Matrix: (Units=GPa)
#
#
# Indices 1 2 3 4 5 6 
#
# 1 188.8358 63.9894 52.4056 0.0000 0.0000 0.0000
# 2 63.9894 167.0844 50.6035 0.0000 0.0000 0.0000
# 3 52.4056 50.6035 129.6173 0.0000 0.0000 0.0000
# 4 0.0000 0.0000 0.0000 62.9795 0.0000 0.0000
# 5 0.0000 0.0000 0.0000 0.0000 8.0502 0.0000
# 6 0.0000 0.0000 0.0000 0.0000 0.0000 -122.4772
#
#
#
# Elastic Compliance Matrix: (Units=1/GPa)
#
#
# Indices 1 2 3 4 5 6 
#
# 1 0.006461 -0.001909 -0.001867 0.000000 0.000000 0.000000
# 2 -0.001909 0.007352 -0.002098 0.000000 0.000000 0.000000
# 3 -0.001867 -0.002098 0.009289 0.000000 0.000000 0.000000
# 4 0.000000 0.000000 0.000000 0.015878 0.000000 0.000000
# 5 0.000000 0.000000 0.000000 0.000000 0.124220 0.000000
# 6 0.000000 0.000000 0.000000 0.000000 0.000000 -0.008165
#
#
# Mechanical properties :
#
#
# Convention : Reuss Voigt Hill
#
# Bulk Modulus (GPa) = 88.08190 91.05938 89.57064
# Shear Modulus (GPa) = 29.31395 10.94643 20.13019
#
# Velocity S-wave (km/s) = 3.31819 2.02768 2.74971
# Velocity P-wave (km/s) = 6.91116 6.29952 6.61242
#
# Compressibility (1/GPa) = 0.01135307
#
# Stress axis : x y z
#
# Youngs Moduli (GPa) = 154.78626 136.02583 107.65419
#
# Poissons Ratio (x) = 0.25965 0.20097
# Poissons Ratio (y) = 0.29546 0.22589
# Poissons Ratio (z) = 0.28896 0.28543
#
# Static dielectric constant tensor:
#      x y z
#    x 2.503370 0.000000 0.000000 
#    y 0.000000 1.973260 0.000000 
#    z 0.000000 0.000000 2.388090 
# 
# From -- ./inp_files/17873.got.cif
#   From: 2010.05.17/outbox.cif.g08.bks.cpg/sg70_9_cif.got.tgz:17873.got - 2010.06.03 15:57:51.
