data_PCOD9515769
_publ_section_title
;
Structure prediction by ZEFSAII (Michael W. Deem and Ramdas Pophale) SiO2 
 PCOD9515769
Probable space group: F D D D
;
_chemical_formula_sum "Si O2"
_cell_formula_units_Z 144
_cell_length_a 19.015410
_cell_length_b 16.706178
_cell_length_c 21.885323
_cell_angle_alpha 90.000000
_cell_angle_beta 90.000000
_cell_angle_gamma 90.000000
_cell_volume 6952.416137
_symmetry_space_group_name_H-M "F D D D"
_symmetry_group_IT_number 70
_space_group.IT_coordinate_system_code '2'
_symmetry_cell_setting 'orthorhombic'
loop_
_space_group_symop_operation_xyz
x,y,z
1/4-x,1/4-y,z
x,1/4-y,1/4-z
1/4-x,y,1/4-z
-x,-y,-z
3/4+x,3/4+y,-z
-x,3/4+y,3/4+z
3/4+x,-y,3/4+z
x,1/2+y,1/2+z
1/4-x,3/4-y,1/2+z
x,3/4-y,3/4-z
1/4-x,1/2+y,3/4-z
-x,1/2-y,1/2-z
3/4+x,1/4+y,1/2-z
-x,1/4+y,1/4+z
3/4+x,1/2-y,1/4+z
1/2+x,y,1/2+z
3/4-x,1/4-y,1/2+z
1/2+x,1/4-y,3/4-z
3/4-x,y,3/4-z
1/2-x,-y,1/2-z
1/4+x,3/4+y,1/2-z
1/2-x,3/4+y,1/4+z
1/4+x,-y,1/4+z
1/2+x,1/2+y,z
3/4-x,3/4-y,z
1/2+x,3/4-y,1/4-z
3/4-x,1/2+y,1/4-z
1/2-x,1/2-y,-z
1/4+x,1/4+y,-z
1/2-x,1/4+y,3/4+z
1/4+x,1/2-y,3/4+z
loop_
_atom_site_type_symbol
_atom_site_label
_atom_site_fract_x
_atom_site_fract_y
_atom_site_fract_z
Si Si1 0.760837 0.435852 0.153662
Si Si2 0.192874 0.173181 0.038776
Si Si3 0.678654 0.449068 0.447798
Si Si4 0.802972 0.625000 0.625000
Si Si5 0.553275 0.986442 0.161530
O O1 0.807857 0.435428 0.215441
O O2 0.697838 0.493471 0.176155
O O3 0.799039 0.479766 0.098008
O O4 0.732375 0.347605 0.141291
O O5 0.125000 0.125000 0.056458
O O6 0.262046 0.120836 0.053868
O O7 0.605427 0.411842 0.425619
O O8 0.678281 0.478466 0.517096
O O9 0.753191 0.694054 0.651195
O O10 0.625000 0.001021 0.125000
#
# Coordination Sequence:
#
# PCOD9515769 Si02
#       5
#    32  32  32  16  32
#     4  10  23  41  69 105 139 181 237 283 369 419
#     4  10  22  39  69 107 148 179 229 300 351 436
#     4  11  25  45  74 105 144 191 228 296 378 412
#     4  12  27  54  69 100 154 182 246 300 349 434
#     4  11  29  48  74 105 136 192 249 295 352 432
#
# _framework density 20.712223999999999
#
# number of rings (size 3 to 8) (size 9 to 14) (size 15 to 20)
#    0.000    1.333    2.222    0.333   12.444    1.778 
#    4.000    0.000    0.000    0.000    0.000    0.000 
#    0.000    0.000    0.000    0.000    0.000    0.000 
#
# Total GULP energy -201455.756974 kJ/mol
# GULP energy per Si atom -5595.993249 kJ/mol
# Density = 2.066508 g / cm^3
# Si number density = 20.712224 Si / 1000 Ang^3
#
#
#
# Elastic Constant Matrix: (Units=GPa)
#
#
# Indices 1 2 3 4 5 6 
#
# 1 134.7382 98.1374 63.2771 0.0000 0.0000 0.0000
# 2 98.1374 150.6043 79.5981 0.0000 0.0000 0.0000
# 3 63.2771 79.5981 142.8071 0.0000 0.0000 0.0000
# 4 0.0000 0.0000 0.0000 37.4035 0.0000 0.0000
# 5 0.0000 0.0000 0.0000 0.0000 57.1962 0.0000
# 6 0.0000 0.0000 0.0000 0.0000 0.0000 39.0987
#
#
#
# Elastic Compliance Matrix: (Units=1/GPa)
#
#
# Indices 1 2 3 4 5 6 
#
# 1 0.014389 -0.008515 -0.001630 0.000000 0.000000 0.000000
# 2 -0.008515 0.014452 -0.004282 0.000000 0.000000 0.000000
# 3 -0.001630 -0.004282 0.010111 0.000000 0.000000 0.000000
# 4 0.000000 0.000000 0.000000 0.026735 0.000000 0.000000
# 5 0.000000 0.000000 0.000000 0.000000 0.017484 0.000000
# 6 0.000000 0.000000 0.000000 0.000000 0.000000 0.025576
#
#
# Mechanical properties :
#
#
# Convention : Reuss Voigt Hill
#
# Bulk Modulus (GPa) = 99.02406 101.13054 100.07730
# Shear Modulus (GPa) = 35.46925 39.21549 37.34237
#
# Velocity S-wave (km/s) = 4.14270 4.35598 4.25068
# Velocity P-wave (km/s) = 8.41403 8.61580 8.51551
#
# Compressibility (1/GPa) = 0.01009856
#
# Stress axis : x y z
#
# Youngs Moduli (GPa) = 69.49745 69.19608 98.89871
#
# Poissons Ratio (x) = 0.58920 0.16117
# Poissons Ratio (y) = 0.59177 0.42350
# Poissons Ratio (z) = 0.11326 0.29631
#
# Static dielectric constant tensor:
#      x y z
#    x 1.714340 0.000000 0.000000 
#    y 0.000000 1.744900 0.000000 
#    z 0.000000 0.000000 1.748660 
# 
# From -- ./inp_files/44670.got.cif
#   From: 2010.05.17/outbox.cif.g08.bks.cpg/sg70_23_cif.got.tgz:44670.got - 2010.06.03 15:57:51.
