data_PCOD9515109
_publ_section_title
;
Structure prediction by ZEFSAII (Michael W. Deem and Ramdas Pophale) SiO2 
 PCOD9515109
Probable space group: F D D D
;
_chemical_formula_sum "Si O2"
_cell_formula_units_Z 112
_cell_length_a 27.906770
_cell_length_b 9.490373
_cell_length_c 21.506268
_cell_angle_alpha 90.000000
_cell_angle_beta 90.000000
_cell_angle_gamma 90.000000
_cell_volume 5695.841668
_symmetry_space_group_name_H-M "F D D D"
_symmetry_group_IT_number 70
_space_group.IT_coordinate_system_code '2'
_symmetry_cell_setting 'orthorhombic'
loop_
_space_group_symop_operation_xyz
x,y,z
1/4-x,1/4-y,z
x,1/4-y,1/4-z
1/4-x,y,1/4-z
-x,-y,-z
3/4+x,3/4+y,-z
-x,3/4+y,3/4+z
3/4+x,-y,3/4+z
x,1/2+y,1/2+z
1/4-x,3/4-y,1/2+z
x,3/4-y,3/4-z
1/4-x,1/2+y,3/4-z
-x,1/2-y,1/2-z
3/4+x,1/4+y,1/2-z
-x,1/4+y,1/4+z
3/4+x,1/2-y,1/4+z
1/2+x,y,1/2+z
3/4-x,1/4-y,1/2+z
1/2+x,1/4-y,3/4-z
3/4-x,y,3/4-z
1/2-x,-y,1/2-z
1/4+x,3/4+y,1/2-z
1/2-x,3/4+y,1/4+z
1/4+x,-y,1/4+z
1/2+x,1/2+y,z
3/4-x,3/4-y,z
1/2+x,3/4-y,1/4-z
3/4-x,1/2+y,1/4-z
1/2-x,1/2-y,-z
1/4+x,1/4+y,-z
1/2-x,1/4+y,3/4+z
1/4+x,1/2-y,3/4+z
loop_
_atom_site_type_symbol
_atom_site_label
_atom_site_fract_x
_atom_site_fract_y
_atom_site_fract_z
Si Si1 0.658373 0.875000 0.375000
Si Si2 0.181087 0.406156 0.788106
Si Si3 0.678162 0.459832 0.142706
Si Si4 0.777883 0.852715 0.143371
O O1 0.622257 0.841974 0.317863
O O2 0.691389 0.743491 0.392194
O O3 0.182577 0.442319 0.716489
O O4 0.203903 0.253674 0.803296
O O5 0.210157 0.518163 0.829615
O O6 0.682932 0.625000 0.125000
O O7 0.625000 0.412304 0.125000
O O8 0.720885 0.379692 0.107345
#
# Coordination Sequence:
#
# PCOD9515109 Si02
#       4
#    16  32  32  32
#     4  10  22  38  67  92 123 170 208 256 322 378
#     4  10  20  40  64  92 124 154 222 260 304 369
#     4  11  24  37  63  93 123 166 216 260 317 368
#     4  10  21  40  63  93 121 168 207 261 312 373
#
# _framework density 19.663467000000001
#
# number of rings (size 3 to 8) (size 9 to 14) (size 15 to 20)
#    0.000    2.000    2.857    4.286    8.000    0.000 
#    0.000    9.286    0.000    0.000    0.000    0.000 
#    0.000    0.000    0.000    0.000    0.000    0.000 
#
# Total GULP energy -156430.469431 kJ/mol
# GULP energy per Si atom -5586.802480 kJ/mol
# Density = 1.961871 g / cm^3
# Si number density = 19.663467 Si / 1000 Ang^3
#
#
#
# Elastic Constant Matrix: (Units=GPa)
#
#
# Indices 1 2 3 4 5 6 
#
# 1 174.2355 42.0903 24.5793 0.0000 0.0000 0.0000
# 2 42.0903 76.0775 32.3422 0.0000 0.0000 0.0000
# 3 24.5793 32.3422 123.6252 0.0000 0.0000 0.0000
# 4 0.0000 0.0000 0.0000 11.1469 0.0000 0.0000
# 5 0.0000 0.0000 0.0000 0.0000 -2.2020 0.0000
# 6 0.0000 0.0000 0.0000 0.0000 0.0000 -13.0797
#
#
#
# Elastic Compliance Matrix: (Units=1/GPa)
#
#
# Indices 1 2 3 4 5 6 
#
# 1 0.006643 -0.003503 -0.000404 0.000000 0.000000 0.000000
# 2 -0.003503 0.016637 -0.003656 0.000000 0.000000 0.000000
# 3 -0.000404 -0.003656 0.009126 0.000000 0.000000 0.000000
# 4 0.000000 0.000000 0.000000 0.089711 0.000000 0.000000
# 5 0.000000 0.000000 0.000000 0.000000 -0.454132 0.000000
# 6 0.000000 0.000000 0.000000 0.000000 0.000000 -0.076454
#
#
# Mechanical properties :
#
#
# Convention : Reuss Voigt Hill
#
# Bulk Modulus (GPa) = 57.87518 63.55129 60.71323
# Shear Modulus (GPa) = -12.90044 17.50146 2.30051
#
# Velocity S-wave (km/s) = -2.56415 2.98661 1.08281
# Velocity P-wave (km/s) = 4.55305 6.65453 5.70145
#
# Compressibility (1/GPa) = 0.01727856
#
# Stress axis : x y z
#
# Youngs Moduli (GPa) = 150.54197 60.10731 109.57973
#
# Poissons Ratio (x) = 0.21057 0.04429
# Poissons Ratio (y) = 0.52739 0.40062
# Poissons Ratio (z) = 0.06085 0.21975
#
# Static dielectric constant tensor:
#      x y z
#    x 1.752360 0.000000 0.000000 
#    y 0.000000 1.661970 0.000000 
#    z 0.000000 0.000000 1.667490 
# 
# From -- ./inp_files/10691.got.cif
#   From: 2010.05.17/outbox.cif.g08.bks.cpg/sg70_6_cif.got.tgz:10691.got - 2010.06.03 15:57:51.
