data_PCOD9515794
_publ_section_title
;
Structure prediction by ZEFSAII (Michael W. Deem and Ramdas Pophale) SiO2 
 PCOD9515794
Probable space group: F D D D
;
_chemical_formula_sum "Si O2"
_cell_formula_units_Z 160
_cell_length_a 20.669922
_cell_length_b 22.998599
_cell_length_c 17.447986
_cell_angle_alpha 90.000000
_cell_angle_beta 90.000000
_cell_angle_gamma 90.000000
_cell_volume 8294.410454
_symmetry_space_group_name_H-M "F D D D"
_symmetry_group_IT_number 70
_space_group.IT_coordinate_system_code '2'
_symmetry_cell_setting 'orthorhombic'
loop_
_space_group_symop_operation_xyz
x,y,z
1/4-x,1/4-y,z
x,1/4-y,1/4-z
1/4-x,y,1/4-z
-x,-y,-z
3/4+x,3/4+y,-z
-x,3/4+y,3/4+z
3/4+x,-y,3/4+z
x,1/2+y,1/2+z
1/4-x,3/4-y,1/2+z
x,3/4-y,3/4-z
1/4-x,1/2+y,3/4-z
-x,1/2-y,1/2-z
3/4+x,1/4+y,1/2-z
-x,1/4+y,1/4+z
3/4+x,1/2-y,1/4+z
1/2+x,y,1/2+z
3/4-x,1/4-y,1/2+z
1/2+x,1/4-y,3/4-z
3/4-x,y,3/4-z
1/2-x,-y,1/2-z
1/4+x,3/4+y,1/2-z
1/2-x,3/4+y,1/4+z
1/4+x,-y,1/4+z
1/2+x,1/2+y,z
3/4-x,3/4-y,z
1/2+x,3/4-y,1/4-z
3/4-x,1/2+y,1/4-z
1/2-x,1/2-y,-z
1/4+x,1/4+y,-z
1/2-x,1/4+y,3/4+z
1/4+x,1/2-y,3/4+z
loop_
_atom_site_type_symbol
_atom_site_label
_atom_site_fract_x
_atom_site_fract_y
_atom_site_fract_z
Si Si1 0.199836 0.745189 0.649726
Si Si2 0.170750 0.287971 0.903525
Si Si3 0.225400 0.882409 0.641242
Si Si4 0.911339 0.930556 0.703360
Si Si5 0.118887 0.850284 0.998134
O O1 0.125000 0.742787 0.625000
O O2 0.251322 0.713148 0.594854
O O3 0.221625 0.812508 0.650282
O O4 0.202354 0.713799 0.731901
O O5 0.141464 0.226424 0.925319
O O6 0.141579 0.336541 0.959455
O O7 0.149072 0.305150 0.817865
O O8 0.294543 0.907074 0.616265
O O9 0.179544 0.899580 0.569755
O O10 0.190619 0.906613 0.717356
O O11 0.875000 0.875000 0.738399
#
# Coordination Sequence:
#
# PCOD9515794 Si02
#       5
#    32  32  32  32  32
#     4  12  24  38  62  93 134 162 203 261 317 382
#     4  11  23  40  62  96 122 168 217 253 317 374
#     4  11  21  41  61  89 123 171 205 254 323 366
#     4  12  25  38  64  97 127 161 210 265 309 374
#     4  10  22  40  64  86 127 168 210 255 310 388
#
# _framework density 19.290099000000001
#
# number of rings (size 3 to 8) (size 9 to 14) (size 15 to 20)
#    0.000    0.800    8.000    0.000    2.800    2.800 
#    0.000    0.000    0.000    0.000    0.000    0.000 
#    0.000    0.000    0.000    0.000    0.000    0.000 
#
# Total GULP energy -223436.861796 kJ/mol
# GULP energy per Si atom -5585.921545 kJ/mol
# Density = 1.924619 g / cm^3
# Si number density = 19.290099 Si / 1000 Ang^3
#
#
#
# Elastic Constant Matrix: (Units=GPa)
#
#
# Indices 1 2 3 4 5 6 
#
# 1 99.6514 21.2042 35.1309 0.0000 0.0000 0.0000
# 2 21.2042 82.9054 28.5258 0.0000 0.0000 0.0000
# 3 35.1309 28.5258 70.4663 0.0000 0.0000 0.0000
# 4 0.0000 0.0000 0.0000 16.5771 0.0000 0.0000
# 5 0.0000 0.0000 0.0000 0.0000 31.5794 0.0000
# 6 0.0000 0.0000 0.0000 0.0000 0.0000 19.6724
#
#
#
# Elastic Compliance Matrix: (Units=1/GPa)
#
#
# Indices 1 2 3 4 5 6 
#
# 1 0.012277 -0.001201 -0.005634 0.000000 0.000000 0.000000
# 2 -0.001201 0.014131 -0.005122 0.000000 0.000000 0.000000
# 3 -0.005634 -0.005122 0.019073 0.000000 0.000000 0.000000
# 4 0.000000 0.000000 0.000000 0.060324 0.000000 0.000000
# 5 0.000000 0.000000 0.000000 0.000000 0.031666 0.000000
# 6 0.000000 0.000000 0.000000 0.000000 0.000000 0.050833
#
#
# Mechanical properties :
#
#
# Convention : Reuss Voigt Hill
#
# Bulk Modulus (GPa) = 46.36681 46.97165 46.66923
# Shear Modulus (GPa) = 22.78853 24.77661 23.78257
#
# Velocity S-wave (km/s) = 3.44082 3.58777 3.51506
# Velocity P-wave (km/s) = 6.31462 6.44715 6.38123
#
# Compressibility (1/GPa) = 0.02156715
#
# Stress axis : x y z
#
# Youngs Moduli (GPa) = 81.45360 70.76418 52.42878
#
# Poissons Ratio (x) = 0.08501 0.29540
# Poissons Ratio (y) = 0.09785 0.26852
# Poissons Ratio (z) = 0.45894 0.36243
#
# Static dielectric constant tensor:
#      x y z
#    x 1.715040 0.000000 0.000000 
#    y 0.000000 1.663140 0.000000 
#    z 0.000000 0.000000 1.681040 
# 
# From -- ./inp_files/36297.got.cif
#   From: 2010.05.17/outbox.cif.g08.bks.cpg/sg70_19_cif.got.tgz:36297.got - 2010.06.03 15:57:51.
