data_PCOD9515625
_publ_section_title
;
Structure prediction by ZEFSAII (Michael W. Deem and Ramdas Pophale) SiO2 
 PCOD9515625
Probable space group: F D D D
;
_chemical_formula_sum "Si O2"
_cell_formula_units_Z 176
_cell_length_a 29.038053
_cell_length_b 11.154302
_cell_length_c 23.441197
_cell_angle_alpha 90.000000
_cell_angle_beta 90.000000
_cell_angle_gamma 90.000000
_cell_volume 7592.585252
_symmetry_space_group_name_H-M "F D D D"
_symmetry_group_IT_number 70
_space_group.IT_coordinate_system_code '2'
_symmetry_cell_setting 'orthorhombic'
loop_
_space_group_symop_operation_xyz
x,y,z
1/4-x,1/4-y,z
x,1/4-y,1/4-z
1/4-x,y,1/4-z
-x,-y,-z
3/4+x,3/4+y,-z
-x,3/4+y,3/4+z
3/4+x,-y,3/4+z
x,1/2+y,1/2+z
1/4-x,3/4-y,1/2+z
x,3/4-y,3/4-z
1/4-x,1/2+y,3/4-z
-x,1/2-y,1/2-z
3/4+x,1/4+y,1/2-z
-x,1/4+y,1/4+z
3/4+x,1/2-y,1/4+z
1/2+x,y,1/2+z
3/4-x,1/4-y,1/2+z
1/2+x,1/4-y,3/4-z
3/4-x,y,3/4-z
1/2-x,-y,1/2-z
1/4+x,3/4+y,1/2-z
1/2-x,3/4+y,1/4+z
1/4+x,-y,1/4+z
1/2+x,1/2+y,z
3/4-x,3/4-y,z
1/2+x,3/4-y,1/4-z
3/4-x,1/2+y,1/4-z
1/2-x,1/2-y,-z
1/4+x,1/4+y,-z
1/2-x,1/4+y,3/4+z
1/4+x,1/2-y,3/4+z
loop_
_atom_site_type_symbol
_atom_site_label
_atom_site_fract_x
_atom_site_fract_y
_atom_site_fract_z
Si Si1 0.656600 0.378970 0.050033
Si Si2 0.375000 0.875000 0.263929
Si Si3 0.508850 0.830940 0.614085
Si Si4 0.931605 0.246128 0.988758
Si Si5 0.958398 0.009203 0.044879
Si Si6 0.954166 0.750970 0.212178
O O1 0.696703 0.350928 0.095070
O O2 0.612872 0.290352 0.049096
O O3 0.639998 0.514211 0.053238
O O4 0.675476 0.359434 0.985682
O O5 0.332755 0.922285 0.225529
O O6 0.526529 0.767025 0.556634
O O7 0.483405 0.956784 0.600450
O O8 0.470961 0.756124 0.648147
O O9 0.930072 0.374826 0.018203
O O10 0.939203 0.143374 0.036708
O O11 0.000000 0.000000 0.000000
O O12 0.000000 0.750000 0.250000
#
# Coordination Sequence:
#
# PCOD9515625 Si02
#       6
#    32  16  32  32  32  32
#     4  10  22  42  67  98 128 177 221 281 336 407
#     4  10  22  44  67  92 146 170 218 295 352 394
#     4  10  22  40  68 100 123 178 229 267 345 407
#     4  10  21  43  64  95 138 170 221 286 329 405
#     4   9  21  40  65  96 134 176 222 279 341 404
#     4  10  23  39  64  94 133 173 222 272 338 398
#
# _framework density 23.180510000000002
#
# number of rings (size 3 to 8) (size 9 to 14) (size 15 to 20)
#    0.000    2.182    0.000    1.091   10.182    3.636 
#    9.818   11.818    0.000    0.000    0.000    0.000 
#    0.000    0.000    0.000    0.000    0.000    0.000 
#
# Total GULP energy -245653.878237 kJ/mol
# GULP energy per Si atom -5583.042687 kJ/mol
# Density = 2.312775 g / cm^3
# Si number density = 23.180510 Si / 1000 Ang^3
#
#
#
# Elastic Constant Matrix: (Units=GPa)
#
#
# Indices 1 2 3 4 5 6 
#
# 1 110.1916 32.0158 31.2382 0.0000 0.0000 0.0000
# 2 32.0158 108.1170 20.0570 0.0000 0.0000 0.0000
# 3 31.2382 20.0570 79.6941 0.0000 0.0000 0.0000
# 4 0.0000 0.0000 0.0000 21.6751 0.0000 0.0000
# 5 0.0000 0.0000 0.0000 0.0000 32.5781 0.0000
# 6 0.0000 0.0000 0.0000 0.0000 0.0000 30.1886
#
#
#
# Elastic Compliance Matrix: (Units=1/GPa)
#
#
# Indices 1 2 3 4 5 6 
#
# 1 0.010836 -0.002539 -0.003608 0.000000 0.000000 0.000000
# 2 -0.002539 0.010297 -0.001596 0.000000 0.000000 0.000000
# 3 -0.003608 -0.001596 0.014364 0.000000 0.000000 0.000000
# 4 0.000000 0.000000 0.000000 0.046136 0.000000 0.000000
# 5 0.000000 0.000000 0.000000 0.000000 0.030695 0.000000
# 6 0.000000 0.000000 0.000000 0.000000 0.000000 0.033125
#
#
# Mechanical properties :
#
#
# Convention : Reuss Voigt Hill
#
# Bulk Modulus (GPa) = 49.97625 51.62497 50.80061
# Shear Modulus (GPa) = 29.83096 31.20115 30.51605
#
# Velocity S-wave (km/s) = 3.59123 3.67278 3.63223
# Velocity P-wave (km/s) = 6.22915 6.34862 6.28917
#
# Compressibility (1/GPa) = 0.02000950
#
# Stress axis : x y z
#
# Youngs Moduli (GPa) = 92.28660 97.11276 69.61815
#
# Poissons Ratio (x) = 0.24660 0.25120
# Poissons Ratio (y) = 0.23435 0.11113
# Poissons Ratio (z) = 0.33300 0.15501
#
# Static dielectric constant tensor:
#      x y z
#    x 1.913680 0.000000 0.000000 
#    y 0.000000 1.904230 0.000000 
#    z 0.000000 0.000000 1.912320 
# 
# From -- ./inp_files/54987.got.cif
#   From: 2010.05.17/outbox.cif.g08.bks.cpg/sg70_28_cif.got.tgz:54987.got - 2010.06.03 15:57:51.
