data_PCOD9515996
_publ_section_title
;
Structure prediction by ZEFSAII (Michael W. Deem and Ramdas Pophale) SiO2 
 PCOD9515996
Probable space group: F D D D
;
_chemical_formula_sum "Si O2"
_cell_formula_units_Z 208
_cell_length_a 22.418824
_cell_length_b 17.617413
_cell_length_c 25.450640
_cell_angle_alpha 90.000000
_cell_angle_beta 90.000000
_cell_angle_gamma 90.000000
_cell_volume 10052.027567
_symmetry_space_group_name_H-M "F D D D"
_symmetry_group_IT_number 70
_space_group.IT_coordinate_system_code '2'
_symmetry_cell_setting 'orthorhombic'
loop_
_space_group_symop_operation_xyz
x,y,z
1/4-x,1/4-y,z
x,1/4-y,1/4-z
1/4-x,y,1/4-z
-x,-y,-z
3/4+x,3/4+y,-z
-x,3/4+y,3/4+z
3/4+x,-y,3/4+z
x,1/2+y,1/2+z
1/4-x,3/4-y,1/2+z
x,3/4-y,3/4-z
1/4-x,1/2+y,3/4-z
-x,1/2-y,1/2-z
3/4+x,1/4+y,1/2-z
-x,1/4+y,1/4+z
3/4+x,1/2-y,1/4+z
1/2+x,y,1/2+z
3/4-x,1/4-y,1/2+z
1/2+x,1/4-y,3/4-z
3/4-x,y,3/4-z
1/2-x,-y,1/2-z
1/4+x,3/4+y,1/2-z
1/2-x,3/4+y,1/4+z
1/4+x,-y,1/4+z
1/2+x,1/2+y,z
3/4-x,3/4-y,z
1/2+x,3/4-y,1/4-z
3/4-x,1/2+y,1/4-z
1/2-x,1/2-y,-z
1/4+x,1/4+y,-z
1/2-x,1/4+y,3/4+z
1/4+x,1/2-y,3/4+z
loop_
_atom_site_type_symbol
_atom_site_label
_atom_site_fract_x
_atom_site_fract_y
_atom_site_fract_z
Si Si1 0.125000 0.461166 0.125000
Si Si2 0.541181 0.345858 0.684343
Si Si3 0.663325 0.797271 0.226455
Si Si4 0.425187 0.811536 0.570007
Si Si5 0.128044 0.455149 0.343119
Si Si6 0.438738 0.213026 0.269587
Si Si7 0.262876 0.461193 0.891134
O O1 0.074688 0.404988 0.146500
O O2 0.155107 0.497664 0.178187
O O3 0.593796 0.319618 0.722443
O O4 0.484072 0.394286 0.698963
O O5 0.520189 0.269589 0.656477
O O6 0.670996 0.759887 0.282153
O O7 0.699713 0.874488 0.217458
O O8 0.688472 0.738671 0.183593
O O9 0.375000 0.875000 0.563729
O O10 0.414463 0.772518 0.626950
O O11 0.138258 0.375000 0.375000
O O12 0.147964 0.457624 0.282526
O O13 0.056594 0.467712 0.342831
O O14 0.500000 0.250000 0.250000
O O15 0.274304 0.375000 0.875000
#
# Coordination Sequence:
#
# PCOD9515996 Si02
#       7
#    16  32  32  32  32  32  32
#     4  10  22  44  71 103 138 190 236 298 370 434
#     4  11  22  43  67  96 141 180 233 286 353 433
#     4  11  26  43  67 104 139 188 232 300 356 437
#     4  12  26  42  69 100 136 187 237 284 368 437
#     4  11  24  44  68 103 145 185 240 305 369 435
#     4  11  23  45  75 102 146 195 240 312 379 442
#     4  11  24  42  68 101 140 185 235 292 363 431
#
# _framework density 20.692343000000001
#
# number of rings (size 3 to 8) (size 9 to 14) (size 15 to 20)
#    0.000    0.923    6.154    0.923    6.462    1.231 
#    0.000    0.000    0.000    0.923    0.000    0.000 
#    0.000    0.000    0.000    0.000    0.000    0.000 
#
# Total GULP energy -289835.823355 kJ/mol
# GULP energy per Si atom -5573.765834 kJ/mol
# Density = 2.064525 g / cm^3
# Si number density = 20.692343 Si / 1000 Ang^3
#
#
#
# Elastic Constant Matrix: (Units=GPa)
#
#
# Indices 1 2 3 4 5 6 
#
# 1 119.4131 59.5181 45.9649 0.0000 0.0000 0.0000
# 2 59.5181 35.2410 18.8798 0.0000 0.0000 0.0000
# 3 45.9649 18.8798 94.8639 0.0000 0.0000 0.0000
# 4 0.0000 0.0000 0.0000 43.6317 0.0000 0.0000
# 5 0.0000 0.0000 0.0000 0.0000 -3.2112 0.0000
# 6 0.0000 0.0000 0.0000 0.0000 0.0000 38.0380
#
#
#
# Elastic Compliance Matrix: (Units=1/GPa)
#
#
# Indices 1 2 3 4 5 6 
#
# 1 0.060405 -0.096642 -0.010035 0.000000 0.000000 0.000000
# 2 -0.096642 0.186379 0.009733 0.000000 0.000000 0.000000
# 3 -0.010035 0.009733 0.013467 0.000000 0.000000 0.000000
# 4 0.000000 0.000000 0.000000 0.022919 0.000000 0.000000
# 5 0.000000 0.000000 0.000000 0.000000 -0.311409 0.000000
# 6 0.000000 0.000000 0.000000 0.000000 0.000000 0.026290
#
#
# Mechanical properties :
#
#
# Convention : Reuss Voigt Hill
#
# Bulk Modulus (GPa) = 15.06844 55.36040 35.21442
# Shear Modulus (GPa) = 23.35811 24.03538 23.69674
#
# Velocity S-wave (km/s) = 3.36345 3.41186 3.38774
# Velocity P-wave (km/s) = 4.73093 6.50640 5.68836
#
# Compressibility (1/GPa) = 0.06636385
#
# Stress axis : x y z
#
# Youngs Moduli (GPa) = 16.55482 5.36542 74.25805
#
# Poissons Ratio (x) = 0.51852 0.74517
# Poissons Ratio (y) = 1.59989 -0.72278
# Poissons Ratio (z) = 0.16613 -0.05222
#
# Static dielectric constant tensor:
#      x y z
#    x 1.907750 0.000000 0.000000 
#    y 0.000000 1.728330 0.000000 
#    z 0.000000 0.000000 1.813480 
# 
# From -- ./inp_files/60448.got.cif
#   From: 2010.05.17/outbox.cif.g08.bks.cpg/sg70_31_cif.got.tgz:60448.got - 2010.06.03 15:57:51.
