data_PCOD9515132
_publ_section_title
;
Structure prediction by ZEFSAII (Michael W. Deem and Ramdas Pophale) SiO2 
 PCOD9515132
Probable space group: F D D D
;
_chemical_formula_sum "Si O2"
_cell_formula_units_Z 176
_cell_length_a 23.305915
_cell_length_b 11.483320
_cell_length_c 28.887077
_cell_angle_alpha 90.000000
_cell_angle_beta 90.000000
_cell_angle_gamma 90.000000
_cell_volume 7731.027614
_symmetry_space_group_name_H-M "F D D D"
_symmetry_group_IT_number 70
_space_group.IT_coordinate_system_code '2'
_symmetry_cell_setting 'orthorhombic'
loop_
_space_group_symop_operation_xyz
x,y,z
1/4-x,1/4-y,z
x,1/4-y,1/4-z
1/4-x,y,1/4-z
-x,-y,-z
3/4+x,3/4+y,-z
-x,3/4+y,3/4+z
3/4+x,-y,3/4+z
x,1/2+y,1/2+z
1/4-x,3/4-y,1/2+z
x,3/4-y,3/4-z
1/4-x,1/2+y,3/4-z
-x,1/2-y,1/2-z
3/4+x,1/4+y,1/2-z
-x,1/4+y,1/4+z
3/4+x,1/2-y,1/4+z
1/2+x,y,1/2+z
3/4-x,1/4-y,1/2+z
1/2+x,1/4-y,3/4-z
3/4-x,y,3/4-z
1/2-x,-y,1/2-z
1/4+x,3/4+y,1/2-z
1/2-x,3/4+y,1/4+z
1/4+x,-y,1/4+z
1/2+x,1/2+y,z
3/4-x,3/4-y,z
1/2+x,3/4-y,1/4-z
3/4-x,1/2+y,1/4-z
1/2-x,1/2-y,-z
1/4+x,1/4+y,-z
1/2-x,1/4+y,3/4+z
1/4+x,1/2-y,3/4+z
loop_
_atom_site_type_symbol
_atom_site_label
_atom_site_fract_x
_atom_site_fract_y
_atom_site_fract_z
Si Si1 0.226067 0.125000 0.625000
Si Si2 0.625000 0.625000 0.922325
Si Si3 0.860887 0.625000 0.125000
Si Si4 0.750018 0.171424 0.286267
Si Si5 0.564169 0.936952 0.956019
Si Si6 0.994946 0.367875 0.222107
Si Si7 0.439577 0.135719 0.872742
O O1 0.267769 0.121341 0.669858
O O2 0.192255 0.245004 0.620418
O O3 0.605865 0.513750 0.891434
O O4 0.680528 0.601962 0.954574
O O5 0.878769 0.662116 0.178141
O O6 0.802508 0.113374 0.256723
O O7 0.732982 0.280444 0.255654
O O8 0.773033 0.196300 0.337361
O O9 0.702059 0.072342 0.290564
O O10 0.000000 0.250000 0.250000
O O11 0.032632 0.349630 0.176787
O O12 0.375000 0.177482 0.875000
#
# Coordination Sequence:
#
# PCOD9515132 Si02
#       7
#    16  16  16  32  32  32  32
#     4   9  15  36  65 100 138 168 223 299 357 422
#     4  12  26  46  74 107 150 198 261 316 376 468
#     4  11  22  42  73 104 146 188 249 315 378 442
#     4  10  20  40  69  96 137 186 236 295 371 440
#     4   9  17  36  69  99 130 181 233 288 370 437
#     4  12  28  47  70 102 149 198 254 308 381 462
#     4  11  24  41  68 104 140 183 239 306 368 438
#
# _framework density 22.765407
#
# number of rings (size 3 to 8) (size 9 to 14) (size 15 to 20)
#    0.000    1.455    3.636    2.455    2.545    3.636 
#    0.000    0.909    0.000    0.000    0.000    0.000 
#    0.000    0.000    0.000    0.000    0.000    0.000 
#
# Total GULP energy -245132.106520 kJ/mol
# GULP energy per Si atom -5571.184239 kJ/mol
# Density = 2.271359 g / cm^3
# Si number density = 22.765407 Si / 1000 Ang^3
#
#
#
# Elastic Constant Matrix: (Units=GPa)
#
#
# Indices 1 2 3 4 5 6 
#
# 1 51.1548 16.3646 38.5526 0.0000 0.0000 0.0000
# 2 16.3646 73.0813 52.5312 0.0000 0.0000 0.0000
# 3 38.5526 52.5312 165.0178 0.0000 0.0000 0.0000
# 4 0.0000 0.0000 0.0000 49.6618 0.0000 0.0000
# 5 0.0000 0.0000 0.0000 0.0000 1.6035 0.0000
# 6 0.0000 0.0000 0.0000 0.0000 0.0000 6.8779
#
#
#
# Elastic Compliance Matrix: (Units=1/GPa)
#
#
# Indices 1 2 3 4 5 6 
#
# 1 0.023894 -0.001735 -0.005030 0.000000 0.000000 0.000000
# 2 -0.001735 0.017869 -0.005283 0.000000 0.000000 0.000000
# 3 -0.005030 -0.005283 0.008917 0.000000 0.000000 0.000000
# 4 0.000000 0.000000 0.000000 0.020136 0.000000 0.000000
# 5 0.000000 0.000000 0.000000 0.000000 0.623627 0.000000
# 6 0.000000 0.000000 0.000000 0.000000 0.000000 0.145393
#
#
# Mechanical properties :
#
#
# Convention : Reuss Voigt Hill
#
# Bulk Modulus (GPa) = 37.61591 56.01675 46.81633
# Shear Modulus (GPa) = 5.72872 23.74903 14.73887
#
# Velocity S-wave (km/s) = 1.58804 3.23338 2.54721
# Velocity P-wave (km/s) = 4.46337 6.21282 5.40929
#
# Compressibility (1/GPa) = 0.02658450
#
# Stress axis : x y z
#
# Youngs Moduli (GPa) = 41.85080 55.96148 112.14598
#
# Poissons Ratio (x) = 0.09709 0.56411
# Poissons Ratio (y) = 0.07261 0.59249
# Poissons Ratio (z) = 0.21051 0.29565
#
# Static dielectric constant tensor:
#      x y z
#    x 1.888750 0.000000 0.000000 
#    y 0.000000 1.884780 0.000000 
#    z 0.000000 0.000000 1.829300 
# 
# From -- ./inp_files/61704.got.cif
#   From: 2010.05.17/outbox.cif.g08.bks.cpg/sg70_31_cif.got.tgz:61704.got - 2010.06.03 15:57:51.
