data_PCOD9515258
_publ_section_title
;
Structure prediction by ZEFSAII (Michael W. Deem and Ramdas Pophale) SiO2 
 PCOD9515258
Probable space group: F D D D
;
_chemical_formula_sum "Si O2"
_cell_formula_units_Z 224
_cell_length_a 24.278920
_cell_length_b 26.454401
_cell_length_c 21.787775
_cell_angle_alpha 90.000000
_cell_angle_beta 90.000000
_cell_angle_gamma 90.000000
_cell_volume 13993.945499
_symmetry_space_group_name_H-M "F D D D"
_symmetry_group_IT_number 70
_space_group.IT_coordinate_system_code '2'
_symmetry_cell_setting 'orthorhombic'
loop_
_space_group_symop_operation_xyz
x,y,z
1/4-x,1/4-y,z
x,1/4-y,1/4-z
1/4-x,y,1/4-z
-x,-y,-z
3/4+x,3/4+y,-z
-x,3/4+y,3/4+z
3/4+x,-y,3/4+z
x,1/2+y,1/2+z
1/4-x,3/4-y,1/2+z
x,3/4-y,3/4-z
1/4-x,1/2+y,3/4-z
-x,1/2-y,1/2-z
3/4+x,1/4+y,1/2-z
-x,1/4+y,1/4+z
3/4+x,1/2-y,1/4+z
1/2+x,y,1/2+z
3/4-x,1/4-y,1/2+z
1/2+x,1/4-y,3/4-z
3/4-x,y,3/4-z
1/2-x,-y,1/2-z
1/4+x,3/4+y,1/2-z
1/2-x,3/4+y,1/4+z
1/4+x,-y,1/4+z
1/2+x,1/2+y,z
3/4-x,3/4-y,z
1/2+x,3/4-y,1/4-z
3/4-x,1/2+y,1/4-z
1/2-x,1/2-y,-z
1/4+x,1/4+y,-z
1/2-x,1/4+y,3/4+z
1/4+x,1/2-y,3/4+z
loop_
_atom_site_type_symbol
_atom_site_label
_atom_site_fract_x
_atom_site_fract_y
_atom_site_fract_z
Si Si1 0.613807 0.850032 0.025988
Si Si2 0.532768 0.402557 0.118318
Si Si3 0.468313 0.343145 0.024389
Si Si4 0.534287 0.996262 0.397492
Si Si5 0.121615 0.237161 0.994918
Si Si6 0.434765 0.919799 0.425735
Si Si7 0.928474 0.164022 0.067805
O O1 0.668458 0.841238 0.067896
O O2 0.563626 0.864204 0.070213
O O3 0.601810 0.794503 0.000176
O O4 0.630411 0.890618 0.974462
O O5 0.492440 0.361783 0.088458
O O6 0.499500 0.454936 0.124518
O O7 0.426514 0.297411 0.031685
O O8 0.438710 0.389388 0.989632
O O9 0.518343 0.332840 0.976819
O O10 0.572335 0.009739 0.455350
O O11 0.488819 0.953528 0.413932
O O12 0.574149 0.969267 0.348119
O O13 0.136653 0.210269 0.059846
O O14 0.430539 0.875000 0.375000
O O15 0.934640 0.125000 0.125000
#
# Coordination Sequence:
#
# PCOD9515258 Si02
#       7
#    32  32  32  32  32  32  32
#     4  10  21  35  51  71  95 136 177 205 246 304
#     4  10  21  34  49  69 102 135 165 206 250 299
#     4  11  21  34  45  70 104 137 167 202 248 294
#     4  12  19  34  51  71 103 136 170 211 247 294
#     4  12  23  31  49  76 104 138 176 202 242 302
#     4  12  22  32  45  70 107 146 171 205 235 289
#     4  11  19  34  53  70  96 133 172 212 247 290
#
# _framework density 16.006923
#
# number of rings (size 3 to 8) (size 9 to 14) (size 15 to 20)
#    0.000    0.857    7.143    2.571    0.000    1.714 
#    0.000    0.000    0.000    0.857    0.000    0.000 
#    0.000    0.000    0.000    0.000    0.000    0.000 
#
# Total GULP energy -312349.169316 kJ/mol
# GULP energy per Si atom -5577.663738 kJ/mol
# Density = 1.597049 g / cm^3
# Si number density = 16.006923 Si / 1000 Ang^3
#
#
#
# Elastic Constant Matrix: (Units=GPa)
#
#
# Indices 1 2 3 4 5 6 
#
# 1 74.6533 45.7174 44.1481 0.0000 0.0000 0.0000
# 2 45.7174 80.1895 49.5517 0.0000 0.0000 0.0000
# 3 44.1481 49.5517 77.7852 0.0000 0.0000 0.0000
# 4 0.0000 0.0000 0.0000 27.5629 0.0000 0.0000
# 5 0.0000 0.0000 0.0000 0.0000 20.0302 0.0000
# 6 0.0000 0.0000 0.0000 0.0000 0.0000 27.0136
#
#
#
# Elastic Compliance Matrix: (Units=1/GPa)
#
#
# Indices 1 2 3 4 5 6 
#
# 1 0.023132 -0.008370 -0.007797 0.000000 0.000000 0.000000
# 2 -0.008370 0.023595 -0.010280 0.000000 0.000000 0.000000
# 3 -0.007797 -0.010280 0.023830 0.000000 0.000000 0.000000
# 4 0.000000 0.000000 0.000000 0.036281 0.000000 0.000000
# 5 0.000000 0.000000 0.000000 0.000000 0.049925 0.000000
# 6 0.000000 0.000000 0.000000 0.000000 0.000000 0.037018
#
#
# Mechanical properties :
#
#
# Convention : Reuss Voigt Hill
#
# Bulk Modulus (GPa) = 56.61678 56.82914 56.72296
# Shear Modulus (GPa) = 19.79714 21.13539 20.46626
#
# Velocity S-wave (km/s) = 3.52061 3.63766 3.57961
# Velocity P-wave (km/s) = 7.20925 7.29543 7.25247
#
# Compressibility (1/GPa) = 0.01766261
#
# Stress axis : x y z
#
# Youngs Moduli (GPa) = 43.23041 42.38241 41.96399
#
# Poissons Ratio (x) = 0.35474 0.32719
# Poissons Ratio (y) = 0.36183 0.43140
# Poissons Ratio (z) = 0.33706 0.43570
#
# Static dielectric constant tensor:
#      x y z
#    x 1.568700 0.000000 0.000000 
#    y 0.000000 1.547190 0.000000 
#    z 0.000000 0.000000 1.565990 
# 
# From -- ./inp_files/53783.got.cif
#   From: 2010.05.17/outbox.cif.g08.bks.cpg/sg70_27_cif.got.tgz:53783.got - 2010.06.03 15:57:51.
