data_PCOD9515023
_publ_section_title
;
Structure prediction by ZEFSAII (Michael W. Deem and Ramdas Pophale) SiO2 
 PCOD9515023
Probable space group: F D D D
;
_chemical_formula_sum "Si O2"
_cell_formula_units_Z 192
_cell_length_a 26.950879
_cell_length_b 11.923428
_cell_length_c 26.782960
_cell_angle_alpha 90.000000
_cell_angle_beta 90.000000
_cell_angle_gamma 90.000000
_cell_volume 8606.620239
_symmetry_space_group_name_H-M "F D D D"
_symmetry_group_IT_number 70
_space_group.IT_coordinate_system_code '2'
_symmetry_cell_setting 'orthorhombic'
loop_
_space_group_symop_operation_xyz
x,y,z
1/4-x,1/4-y,z
x,1/4-y,1/4-z
1/4-x,y,1/4-z
-x,-y,-z
3/4+x,3/4+y,-z
-x,3/4+y,3/4+z
3/4+x,-y,3/4+z
x,1/2+y,1/2+z
1/4-x,3/4-y,1/2+z
x,3/4-y,3/4-z
1/4-x,1/2+y,3/4-z
-x,1/2-y,1/2-z
3/4+x,1/4+y,1/2-z
-x,1/4+y,1/4+z
3/4+x,1/2-y,1/4+z
1/2+x,y,1/2+z
3/4-x,1/4-y,1/2+z
1/2+x,1/4-y,3/4-z
3/4-x,y,3/4-z
1/2-x,-y,1/2-z
1/4+x,3/4+y,1/2-z
1/2-x,3/4+y,1/4+z
1/4+x,-y,1/4+z
1/2+x,1/2+y,z
3/4-x,3/4-y,z
1/2+x,3/4-y,1/4-z
3/4-x,1/2+y,1/4-z
1/2-x,1/2-y,-z
1/4+x,1/4+y,-z
1/2-x,1/4+y,3/4+z
1/4+x,1/2-y,3/4+z
loop_
_atom_site_type_symbol
_atom_site_label
_atom_site_fract_x
_atom_site_fract_y
_atom_site_fract_z
Si Si1 0.575482 0.876674 0.647364
Si Si2 0.049321 0.625000 0.125000
Si Si3 0.136096 0.390722 0.490799
Si Si4 0.125000 0.125000 0.937344
Si Si5 0.025383 0.835233 0.983231
Si Si6 0.233403 0.544579 0.832996
Si Si7 0.736573 0.364477 0.973864
O O1 0.625000 0.933517 0.625000
O O2 0.574586 0.745771 0.631671
O O3 0.588127 0.879957 0.705674
O O4 0.524555 0.928682 0.625160
O O5 0.018270 0.612436 0.175206
O O6 0.128330 0.518202 0.473922
O O7 0.084659 0.326442 0.489216
O O8 0.180092 0.351406 0.455263
O O9 0.177586 0.152948 0.908841
O O10 0.018384 0.913655 0.934332
O O11 0.999599 0.715705 0.988226
O O12 0.003932 0.898031 0.032139
O O13 0.750000 0.250000 0.000000
#
# Coordination Sequence:
#
# PCOD9515023 Si02
#       7
#    32  16  32  16  32  32  32
#     4  12  22  37  63 103 131 170 218 288 348 400
#     4  12  23  40  64  94 138 166 232 277 336 420
#     4  11  22  39  69  98 134 178 226 279 355 407
#     4  10  20  40  69  92 130 190 226 271 342 430
#     4  10  21  40  66  95 130 175 225 285 335 418
#     4  10  20  38  67  93 130 173 225 271 340 406
#     4  12  24  42  68  94 131 180 224 284 350 417
#
# _framework density 22.308409000000001
#
# number of rings (size 3 to 8) (size 9 to 14) (size 15 to 20)
#    0.000    1.000    6.667    0.250    0.000    0.667 
#    0.000    2.917   14.667    0.000    0.000    0.000 
#    0.000    0.000    0.000    0.000    0.000    0.000 
#
# Total GULP energy -267685.058368 kJ/mol
# GULP energy per Si atom -5576.772049 kJ/mol
# Density = 2.225763 g / cm^3
# Si number density = 22.308409 Si / 1000 Ang^3
#
#
#
# Elastic Constant Matrix: (Units=GPa)
#
#
# Indices 1 2 3 4 5 6 
#
# 1 186.0536 30.5038 26.7519 0.0000 0.0000 0.0000
# 2 30.5038 89.7798 9.9609 0.0000 0.0000 0.0000
# 3 26.7519 9.9609 67.8208 0.0000 0.0000 0.0000
# 4 0.0000 0.0000 0.0000 19.3091 0.0000 0.0000
# 5 0.0000 0.0000 0.0000 0.0000 -12.0526 0.0000
# 6 0.0000 0.0000 0.0000 0.0000 0.0000 35.8406
#
#
#
# Elastic Compliance Matrix: (Units=1/GPa)
#
#
# Indices 1 2 3 4 5 6 
#
# 1 0.005970 -0.001796 -0.002091 0.000000 0.000000 0.000000
# 2 -0.001796 0.011863 -0.001034 0.000000 0.000000 0.000000
# 3 -0.002091 -0.001034 0.015721 0.000000 0.000000 0.000000
# 4 0.000000 0.000000 0.000000 0.051789 0.000000 0.000000
# 5 0.000000 0.000000 0.000000 0.000000 -0.082970 0.000000
# 6 0.000000 0.000000 0.000000 0.000000 0.000000 0.027901
#
#
# Mechanical properties :
#
#
# Convention : Reuss Voigt Hill
#
# Bulk Modulus (GPa) = 42.17212 53.12082 47.64647
# Shear Modulus (GPa) = 104.11975 27.04862 65.58418
#
# Velocity S-wave (km/s) = 6.83917 3.48585 5.42795
# Velocity P-wave (km/s) = 9.01725 6.32971 7.79025
#
# Compressibility (1/GPa) = 0.02371235
#
# Stress axis : x y z
#
# Youngs Moduli (GPa) = 167.50490 84.29287 63.60769
#
# Poissons Ratio (x) = 0.15142 0.13300
# Poissons Ratio (y) = 0.30090 0.06576
# Poissons Ratio (z) = 0.35026 0.08714
#
# Static dielectric constant tensor:
#      x y z
#    x 1.960040 0.000000 0.000000 
#    y 0.000000 1.811070 0.000000 
#    z 0.000000 0.000000 1.915890 
# 
# From -- ./inp_files/68418.got.cif
#   From: 2010.05.17/outbox.cif.g08.bks.cpg/sg70_35_cif.got.tgz:68418.got - 2010.06.03 15:57:51.
