data_PCOD9515201
_publ_section_title
;
Structure prediction by ZEFSAII (Michael W. Deem and Ramdas Pophale) SiO2 
 PCOD9515201
Probable space group: F D D D
;
_chemical_formula_sum "Si O2"
_cell_formula_units_Z 160
_cell_length_a 12.344275
_cell_length_b 18.536054
_cell_length_c 31.149867
_cell_angle_alpha 90.000000
_cell_angle_beta 90.000000
_cell_angle_gamma 90.000000
_cell_volume 7127.530278
_symmetry_space_group_name_H-M "F D D D"
_symmetry_group_IT_number 70
_space_group.IT_coordinate_system_code '2'
_symmetry_cell_setting 'orthorhombic'
loop_
_space_group_symop_operation_xyz
x,y,z
1/4-x,1/4-y,z
x,1/4-y,1/4-z
1/4-x,y,1/4-z
-x,-y,-z
3/4+x,3/4+y,-z
-x,3/4+y,3/4+z
3/4+x,-y,3/4+z
x,1/2+y,1/2+z
1/4-x,3/4-y,1/2+z
x,3/4-y,3/4-z
1/4-x,1/2+y,3/4-z
-x,1/2-y,1/2-z
3/4+x,1/4+y,1/2-z
-x,1/4+y,1/4+z
3/4+x,1/2-y,1/4+z
1/2+x,y,1/2+z
3/4-x,1/4-y,1/2+z
1/2+x,1/4-y,3/4-z
3/4-x,y,3/4-z
1/2-x,-y,1/2-z
1/4+x,3/4+y,1/2-z
1/2-x,3/4+y,1/4+z
1/4+x,-y,1/4+z
1/2+x,1/2+y,z
3/4-x,3/4-y,z
1/2+x,3/4-y,1/4-z
3/4-x,1/2+y,1/4-z
1/2-x,1/2-y,-z
1/4+x,1/4+y,-z
1/2-x,1/4+y,3/4+z
1/4+x,1/2-y,3/4+z
loop_
_atom_site_type_symbol
_atom_site_label
_atom_site_fract_x
_atom_site_fract_y
_atom_site_fract_z
Si Si1 0.973129 0.083107 0.446618
Si Si2 0.375000 0.481703 0.375000
Si Si3 0.545011 0.515808 0.821153
Si Si4 0.147024 0.973409 0.908578
Si Si5 0.810766 0.117754 0.518261
Si Si6 0.625000 0.125000 0.796404
O O1 0.911186 0.030369 0.414939
O O2 0.916729 0.091407 0.492412
O O3 0.972032 0.163436 0.426394
O O4 0.093125 0.049526 0.447604
O O5 0.265049 0.446140 0.393044
O O6 0.571706 0.480201 0.866737
O O7 0.506967 0.452873 0.789789
O O8 0.157553 0.055696 0.925561
O O9 0.097093 0.923472 0.945338
O O10 0.725946 0.146710 0.483577
#
# Coordination Sequence:
#
# PCOD9515201 Si02
#       6
#    32  16  32  32  32  16
#     4  10  21  40  68  91 127 174 220 268 326 402
#     4  10  20  42  69  98 127 180 228 268 330 408
#     4  10  23  42  63  93 130 171 217 274 335 397
#     4  11  23  43  67  97 133 175 224 274 335 401
#     4  12  24  42  65 100 135 166 221 281 332 387
#     4  12  24  44  67  96 136 180 230 265 330 406
#
# _framework density 22.448167999999999
#
# number of rings (size 3 to 8) (size 9 to 14) (size 15 to 20)
#    0.000    1.200    2.000    5.400    0.000    0.000 
#    3.600    5.000    0.000    0.000    0.000    0.000 
#    0.000    0.000    0.000    0.000    0.000    0.000 
#
# Total GULP energy -223677.950057 kJ/mol
# GULP energy per Si atom -5591.948751 kJ/mol
# Density = 2.239708 g / cm^3
# Si number density = 22.448168 Si / 1000 Ang^3
#
#
#
# Elastic Constant Matrix: (Units=GPa)
#
#
# Indices 1 2 3 4 5 6 
#
# 1 22.3700 16.2858 17.5036 0.0000 0.0000 0.0000
# 2 16.2858 79.9347 9.0917 0.0000 0.0000 0.0000
# 3 17.5036 9.0917 80.2086 0.0000 0.0000 0.0000
# 4 0.0000 0.0000 0.0000 22.6339 0.0000 0.0000
# 5 0.0000 0.0000 0.0000 0.0000 33.7636 0.0000
# 6 0.0000 0.0000 0.0000 0.0000 0.0000 0.0447
#
#
#
# Elastic Compliance Matrix: (Units=1/GPa)
#
#
# Indices 1 2 3 4 5 6 
#
# 1 0.062665 -0.011358 -0.012388 0.000000 0.000000 0.000000
# 2 -0.011358 0.014732 0.000809 0.000000 0.000000 0.000000
# 3 -0.012388 0.000809 0.015079 0.000000 0.000000 0.000000
# 4 0.000000 0.000000 0.000000 0.044182 0.000000 0.000000
# 5 0.000000 0.000000 0.000000 0.000000 0.029618 0.000000
# 6 0.000000 0.000000 0.000000 0.000000 0.000000 22.364002
#
#
# Mechanical properties :
#
#
# Convention : Reuss Voigt Hill
#
# Bulk Modulus (GPa) = 21.45836 29.80839 25.63337
# Shear Modulus (GPa) = 0.22132 20.59724 10.40928
#
# Velocity S-wave (km/s) = 0.31433 3.03239 2.15571
# Velocity P-wave (km/s) = 3.11634 5.05649 4.19998
#
# Compressibility (1/GPa) = 0.04660189
#
# Stress axis : x y z
#
# Youngs Moduli (GPa) = 15.95795 67.87793 66.31678
#
# Poissons Ratio (x) = 0.77097 0.82151
# Poissons Ratio (y) = 0.18125 -0.05363
# Poissons Ratio (z) = 0.19768 -0.05490
#
# Static dielectric constant tensor:
#      x y z
#    x 2.080520 0.000000 0.000000 
#    y 0.000000 1.846910 0.000000 
#    z 0.000000 0.000000 1.783350 
# 
# From -- ./inp_files/34025.got.cif
#   From: 2010.05.17/outbox.cif.g08.bks.cpg/sg70_18_cif.got.tgz:34025.got - 2010.06.03 15:57:51.
