data_PCOD9515573
_publ_section_title
;
Structure prediction by ZEFSAII (Michael W. Deem and Ramdas Pophale) SiO2 
 PCOD9515573
Probable space group: F D D D
;
_chemical_formula_sum "Si O2"
_cell_formula_units_Z 184
_cell_length_a 23.790659
_cell_length_b 19.276235
_cell_length_c 16.138961
_cell_angle_alpha 90.000000
_cell_angle_beta 90.000000
_cell_angle_gamma 90.000000
_cell_volume 7401.236066
_symmetry_space_group_name_H-M "F D D D"
_symmetry_group_IT_number 70
_space_group.IT_coordinate_system_code '2'
_symmetry_cell_setting 'orthorhombic'
loop_
_space_group_symop_operation_xyz
x,y,z
1/4-x,1/4-y,z
x,1/4-y,1/4-z
1/4-x,y,1/4-z
-x,-y,-z
3/4+x,3/4+y,-z
-x,3/4+y,3/4+z
3/4+x,-y,3/4+z
x,1/2+y,1/2+z
1/4-x,3/4-y,1/2+z
x,3/4-y,3/4-z
1/4-x,1/2+y,3/4-z
-x,1/2-y,1/2-z
3/4+x,1/4+y,1/2-z
-x,1/4+y,1/4+z
3/4+x,1/2-y,1/4+z
1/2+x,y,1/2+z
3/4-x,1/4-y,1/2+z
1/2+x,1/4-y,3/4-z
3/4-x,y,3/4-z
1/2-x,-y,1/2-z
1/4+x,3/4+y,1/2-z
1/2-x,3/4+y,1/4+z
1/4+x,-y,1/4+z
1/2+x,1/2+y,z
3/4-x,3/4-y,z
1/2+x,3/4-y,1/4-z
3/4-x,1/2+y,1/4-z
1/2-x,1/2-y,-z
1/4+x,1/4+y,-z
1/2-x,1/4+y,3/4+z
1/4+x,1/2-y,3/4+z
loop_
_atom_site_type_symbol
_atom_site_label
_atom_site_fract_x
_atom_site_fract_y
_atom_site_fract_z
Si Si1 0.076883 0.006914 0.231171
Si Si2 0.625000 0.625000 0.125000
Si Si3 0.773344 0.125000 0.125000
Si Si4 0.125000 0.383349 0.625000
Si Si5 0.786225 0.930976 0.224217
Si Si6 0.872250 0.739169 0.606724
Si Si7 0.465136 0.625000 0.125000
Si Si8 0.265358 0.162097 0.296941
O O1 0.084709 0.070074 0.168844
O O2 0.014118 0.018203 0.264072
O O3 0.092632 0.934735 0.188355
O O4 0.121824 0.023925 0.303106
O O5 0.732546 0.120319 0.203776
O O6 0.818561 0.187465 0.118956
O O7 0.079710 0.338676 0.576146
O O8 0.767752 0.900888 0.134141
O O9 0.750000 0.000000 0.250000
O O10 0.850337 0.957718 0.212428
O O11 0.926127 0.691139 0.601290
O O12 0.489220 0.640162 0.218070
#
# Coordination Sequence:
#
# PCOD9515573 Si02
#       8
#    32   8  16  16  32  32  16  32
#     4  10  21  42  59  94 132 177 230 296 349 420
#     4  10  22  40  66  80 136 182 226 288 376 412
#     4   9  16  32  57  88 120 163 219 273 330 425
#     4  11  22  41  70  98 142 193 234 297 372 418
#     4   9  19  33  58  91 128 175 223 285 352 412
#     4   9  18  34  57  88 129 165 216 285 340 401
#     4  11  21  38  62 101 133 166 234 287 340 441
#     4  11  23  38  67 101 135 184 243 289 360 447
#
# _framework density 24.860711999999999
#
# number of rings (size 3 to 8) (size 9 to 14) (size 15 to 20)
#    0.000    2.087    1.739    1.565    4.870    0.000 
#    3.130    2.609    0.000    0.000    0.000    2.435 
#    0.000    0.000    0.000    0.000    0.000    0.000 
#
# Total GULP energy -256238.845284 kJ/mol
# GULP energy per Si atom -5570.409680 kJ/mol
# Density = 2.480413 g / cm^3
# Si number density = 24.860712 Si / 1000 Ang^3
#
#
#
# Elastic Constant Matrix: (Units=GPa)
#
#
# Indices 1 2 3 4 5 6 
#
# 1 77.4088 25.1810 26.5862 0.0000 0.0000 0.0000
# 2 25.1810 57.1678 13.0672 0.0000 0.0000 0.0000
# 3 26.5862 13.0672 153.5487 0.0000 0.0000 0.0000
# 4 0.0000 0.0000 0.0000 0.9988 0.0000 0.0000
# 5 0.0000 0.0000 0.0000 0.0000 59.8631 0.0000
# 6 0.0000 0.0000 0.0000 0.0000 0.0000 29.3516
#
#
#
# Elastic Compliance Matrix: (Units=1/GPa)
#
#
# Indices 1 2 3 4 5 6 
#
# 1 0.015764 -0.006445 -0.002181 0.000000 0.000000 0.000000
# 2 -0.006445 0.020475 -0.000626 0.000000 0.000000 0.000000
# 3 -0.002181 -0.000626 0.006944 0.000000 0.000000 0.000000
# 4 0.000000 0.000000 0.000000 1.001250 0.000000 0.000000
# 5 0.000000 0.000000 0.000000 0.000000 0.016705 0.000000
# 6 0.000000 0.000000 0.000000 0.000000 0.000000 0.034070
#
#
# Mechanical properties :
#
#
# Convention : Reuss Voigt Hill
#
# Bulk Modulus (GPa) = 40.52372 46.42156 43.47264
# Shear Modulus (GPa) = 4.45658 32.92875 18.69266
#
# Velocity S-wave (km/s) = 1.34034 3.64336 2.74505
# Velocity P-wave (km/s) = 4.32794 6.03423 5.25086
#
# Compressibility (1/GPa) = 0.02467690
#
# Stress axis : x y z
#
# Youngs Moduli (GPa) = 63.43527 48.84119 144.01895
#
# Poissons Ratio (x) = 0.31479 0.31410
# Poissons Ratio (y) = 0.40885 0.09022
# Poissons Ratio (z) = 0.13835 0.03060
#
# Static dielectric constant tensor:
#      x y z
#    x 2.111280 0.000000 0.000000 
#    y 0.000000 1.973970 0.000000 
#    z 0.000000 0.000000 2.192770 
# 
# From -- ./inp_files/37684.got.cif
#   From: 2010.05.17/outbox.cif.g08.bks.cpg/sg70_19_cif.got.tgz:37684.got - 2010.06.03 15:57:51.
