data_PCOD9515388
_publ_section_title
;
Structure prediction by ZEFSAII (Michael W. Deem and Ramdas Pophale) SiO2 
 PCOD9515388
Probable space group: F D D D
;
_chemical_formula_sum "Si O2"
_cell_formula_units_Z 176
_cell_length_a 29.577545
_cell_length_b 11.638764
_cell_length_c 24.973207
_cell_angle_alpha 90.000000
_cell_angle_beta 90.000000
_cell_angle_gamma 90.000000
_cell_volume 8596.928264
_symmetry_space_group_name_H-M "F D D D"
_symmetry_group_IT_number 70
_space_group.IT_coordinate_system_code '2'
_symmetry_cell_setting 'orthorhombic'
loop_
_space_group_symop_operation_xyz
x,y,z
1/4-x,1/4-y,z
x,1/4-y,1/4-z
1/4-x,y,1/4-z
-x,-y,-z
3/4+x,3/4+y,-z
-x,3/4+y,3/4+z
3/4+x,-y,3/4+z
x,1/2+y,1/2+z
1/4-x,3/4-y,1/2+z
x,3/4-y,3/4-z
1/4-x,1/2+y,3/4-z
-x,1/2-y,1/2-z
3/4+x,1/4+y,1/2-z
-x,1/4+y,1/4+z
3/4+x,1/2-y,1/4+z
1/2+x,y,1/2+z
3/4-x,1/4-y,1/2+z
1/2+x,1/4-y,3/4-z
3/4-x,y,3/4-z
1/2-x,-y,1/2-z
1/4+x,3/4+y,1/2-z
1/2-x,3/4+y,1/4+z
1/4+x,-y,1/4+z
1/2+x,1/2+y,z
3/4-x,3/4-y,z
1/2+x,3/4-y,1/4-z
3/4-x,1/2+y,1/4-z
1/2-x,1/2-y,-z
1/4+x,1/4+y,-z
1/2-x,1/4+y,3/4+z
1/4+x,1/2-y,3/4+z
loop_
_atom_site_type_symbol
_atom_site_label
_atom_site_fract_x
_atom_site_fract_y
_atom_site_fract_z
Si Si1 0.555070 0.795255 0.693957
Si Si2 0.625000 0.912334 0.625000
Si Si3 0.037772 0.214037 0.170670
Si Si4 0.484658 0.440666 0.639944
Si Si5 0.320844 0.879935 0.038501
Si Si6 0.989359 0.482699 0.255747
O O1 0.602784 0.828641 0.668750
O O2 0.523113 0.751274 0.646431
O O3 0.555567 0.713198 0.744375
O O4 0.534056 0.917942 0.709707
O O5 0.662143 0.991328 0.654940
O O6 0.023440 0.125000 0.125000
O O7 0.029938 0.139361 0.223877
O O8 0.006992 0.325475 0.164704
O O9 0.445842 0.406435 0.597908
O O10 0.475167 0.507319 0.694508
O O11 0.375000 0.875000 0.037206
O O12 0.292815 0.994416 0.019230
#
# Coordination Sequence:
#
# PCOD9515388 Si02
#       6
#    32  16  32  32  32  32
#     4  10  23  40  64  88 127 162 212 262 308 372
#     4  10  21  38  63 100 120 156 221 268 307 362
#     4  11  19  38  67  92 128 162 205 264 315 370
#     4  10  22  42  63  92 125 165 210 251 325 383
#     4  11  25  43  60  91 130 163 212 265 311 378
#     4  11  22  41  66  90 123 175 206 253 321 381
#
# _framework density 20.472429000000002
#
# number of rings (size 3 to 8) (size 9 to 14) (size 15 to 20)
#    0.000    1.455    5.455    3.000    5.091    2.909 
#    3.273    1.818    0.000    0.000    0.000    0.000 
#    0.000    0.000    0.000    0.000    0.000    0.000 
#
# Total GULP energy -245363.073124 kJ/mol
# GULP energy per Si atom -5576.433480 kJ/mol
# Density = 2.042583 g / cm^3
# Si number density = 20.472429 Si / 1000 Ang^3
#
#
#
# Elastic Constant Matrix: (Units=GPa)
#
#
# Indices 1 2 3 4 5 6 
#
# 1 69.8922 8.1168 23.5640 0.0000 0.0000 0.0000
# 2 8.1168 56.0707 14.0643 0.0000 0.0000 0.0000
# 3 23.5640 14.0643 146.5446 0.0000 0.0000 0.0000
# 4 0.0000 0.0000 0.0000 33.5381 0.0000 0.0000
# 5 0.0000 0.0000 0.0000 0.0000 20.8867 0.0000
# 6 0.0000 0.0000 0.0000 0.0000 0.0000 13.4131
#
#
#
# Elastic Compliance Matrix: (Units=1/GPa)
#
#
# Indices 1 2 3 4 5 6 
#
# 1 0.015273 -0.001634 -0.002299 0.000000 0.000000 0.000000
# 2 -0.001634 0.018449 -0.001508 0.000000 0.000000 0.000000
# 3 -0.002299 -0.001508 0.007338 0.000000 0.000000 0.000000
# 4 0.000000 0.000000 0.000000 0.029817 0.000000 0.000000
# 5 0.000000 0.000000 0.000000 0.000000 0.047877 0.000000
# 6 0.000000 0.000000 0.000000 0.000000 0.000000 0.074554
#
#
# Mechanical properties :
#
#
# Convention : Reuss Voigt Hill
#
# Bulk Modulus (GPa) = 33.13650 40.44418 36.79034
# Shear Modulus (GPa) = 23.33720 28.68506 26.01113
#
# Velocity S-wave (km/s) = 3.37995 3.74726 3.56834
# Velocity P-wave (km/s) = 5.60831 6.20653 5.91499
#
# Compressibility (1/GPa) = 0.03017820
#
# Stress axis : x y z
#
# Youngs Moduli (GPa) = 65.47665 54.20221 136.27241
#
# Poissons Ratio (x) = 0.08858 0.31328
# Poissons Ratio (y) = 0.10700 0.20548
# Poissons Ratio (z) = 0.15053 0.08173
#
# Static dielectric constant tensor:
#      x y z
#    x 1.768320 0.000000 0.000000 
#    y 0.000000 1.775710 0.000000 
#    z 0.000000 0.000000 1.757810 
# 
# From -- ./inp_files/19659.got.cif
#   From: 2010.05.17/outbox.cif.g08.bks.cpg/sg70_10_cif.got.tgz:19659.got - 2010.06.03 15:57:51.
