data_PCOD9515800
_publ_section_title
;
Structure prediction by ZEFSAII (Michael W. Deem and Ramdas Pophale) SiO2 
 PCOD9515800
Probable space group: F D D D
;
_chemical_formula_sum "Si O2"
_cell_formula_units_Z 168
_cell_length_a 13.980144
_cell_length_b 21.870660
_cell_length_c 24.475743
_cell_angle_alpha 90.000000
_cell_angle_beta 90.000000
_cell_angle_gamma 90.000000
_cell_volume 7483.580218
_symmetry_space_group_name_H-M "F D D D"
_symmetry_group_IT_number 70
_space_group.IT_coordinate_system_code '2'
_symmetry_cell_setting 'orthorhombic'
loop_
_space_group_symop_operation_xyz
x,y,z
1/4-x,1/4-y,z
x,1/4-y,1/4-z
1/4-x,y,1/4-z
-x,-y,-z
3/4+x,3/4+y,-z
-x,3/4+y,3/4+z
3/4+x,-y,3/4+z
x,1/2+y,1/2+z
1/4-x,3/4-y,1/2+z
x,3/4-y,3/4-z
1/4-x,1/2+y,3/4-z
-x,1/2-y,1/2-z
3/4+x,1/4+y,1/2-z
-x,1/4+y,1/4+z
3/4+x,1/2-y,1/4+z
1/2+x,y,1/2+z
3/4-x,1/4-y,1/2+z
1/2+x,1/4-y,3/4-z
3/4-x,y,3/4-z
1/2-x,-y,1/2-z
1/4+x,3/4+y,1/2-z
1/2-x,3/4+y,1/4+z
1/4+x,-y,1/4+z
1/2+x,1/2+y,z
3/4-x,3/4-y,z
1/2+x,3/4-y,1/4-z
3/4-x,1/2+y,1/4-z
1/2-x,1/2-y,-z
1/4+x,1/4+y,-z
1/2-x,1/4+y,3/4+z
1/4+x,1/2-y,3/4+z
loop_
_atom_site_type_symbol
_atom_site_label
_atom_site_fract_x
_atom_site_fract_y
_atom_site_fract_z
Si Si1 0.933560 0.052472 0.522488
Si Si2 0.414213 0.567820 0.717177
Si Si3 0.205094 0.825138 0.578986
Si Si4 0.954970 0.207506 0.922841
Si Si5 0.705124 0.293663 0.370527
Si Si6 0.375000 0.875000 0.375000
O O1 0.977162 0.120333 0.527897
O O2 0.855843 0.059248 0.475797
O O3 0.877311 0.032856 0.576582
O O4 0.000000 0.000000 0.500000
O O5 0.352145 0.558471 0.772560
O O6 0.477056 0.512631 0.692536
O O7 0.337758 0.583297 0.670121
O O8 0.125000 0.830978 0.625000
O O9 0.256028 0.891598 0.584523
O O10 0.268561 0.768952 0.598705
O O11 0.875000 0.221744 0.875000
O O12 0.801231 0.326458 0.347552
#
# Coordination Sequence:
#
# PCOD9515800 Si02
#       6
#    32  32  32  32  32   8
#     4  11  24  44  68  97 138 181 234 286 348 421
#     4  11  23  42  66 102 136 176 232 284 346 422
#     4  10  22  40  64  97 136 175 225 284 348 411
#     4  10  23  42  64  96 135 180 228 287 341 417
#     4  12  23  42  69 104 136 184 228 291 353 419
#     4  12  24  40  76 104 142 176 232 294 360 418
#
# _framework density 22.449148999999998
#
# number of rings (size 3 to 8) (size 9 to 14) (size 15 to 20)
#    0.000    1.143    2.857    2.857    0.000    1.524 
#    0.000    2.857    0.000    0.000    0.000    0.000 
#    0.000    0.000    0.000    0.000    0.000    0.000 
#
# Total GULP energy -233938.118899 kJ/mol
# GULP energy per Si atom -5569.955212 kJ/mol
# Density = 2.239805 g / cm^3
# Si number density = 22.449149 Si / 1000 Ang^3
#
#
#
# Elastic Constant Matrix: (Units=GPa)
#
#
# Indices 1 2 3 4 5 6 
#
# 1 69.3802 68.5252 27.6856 0.0000 0.0000 0.0000
# 2 68.5252 194.3651 37.4122 0.0000 0.0000 0.0000
# 3 27.6856 37.4122 151.0421 0.0000 0.0000 0.0000
# 4 0.0000 0.0000 0.0000 37.7042 0.0000 0.0000
# 5 0.0000 0.0000 0.0000 0.0000 23.3631 0.0000
# 6 0.0000 0.0000 0.0000 0.0000 0.0000 -38.7155
#
#
#
# Elastic Compliance Matrix: (Units=1/GPa)
#
#
# Indices 1 2 3 4 5 6 
#
# 1 0.022852 -0.007613 -0.002303 0.000000 0.000000 0.000000
# 2 -0.007613 0.007939 -0.000571 0.000000 0.000000 0.000000
# 3 -0.002303 -0.000571 0.007184 0.000000 0.000000 0.000000
# 4 0.000000 0.000000 0.000000 0.026522 0.000000 0.000000
# 5 0.000000 0.000000 0.000000 0.000000 0.042803 0.000000
# 6 0.000000 0.000000 0.000000 0.000000 0.000000 -0.025829
#
#
# Mechanical properties :
#
#
# Convention : Reuss Voigt Hill
#
# Bulk Modulus (GPa) = 58.82122 75.78148 67.30135
# Shear Modulus (GPa) = 46.24852 23.21466 34.73159
#
# Velocity S-wave (km/s) = 4.54381 3.21923 3.93762
# Velocity P-wave (km/s) = 7.33397 6.90276 7.12163
#
# Compressibility (1/GPa) = 0.01700067
#
# Stress axis : x y z
#
# Youngs Moduli (GPa) = 43.76025 125.96037 139.19436
#
# Poissons Ratio (x) = 0.95898 0.32055
# Poissons Ratio (y) = 0.33316 0.07947
# Poissons Ratio (z) = 0.10077 0.07192
#
# Static dielectric constant tensor:
#      x y z
#    x 1.826620 0.000000 0.000000 
#    y 0.000000 2.201350 0.000000 
#    z 0.000000 0.000000 1.821160 
# 
# From -- ./inp_files/58456.got.cif
#   From: 2010.05.17/outbox.cif.g08.bks.cpg/sg70_30_cif.got.tgz:58456.got - 2010.06.03 15:57:51.
