data_PCOD9515709
_publ_section_title
;
Structure prediction by ZEFSAII (Michael W. Deem and Ramdas Pophale) SiO2 
 PCOD9515709
Probable space group: F D D D
;
_chemical_formula_sum "Si O2"
_cell_formula_units_Z 96
_cell_length_a 27.167317
_cell_length_b 17.710053
_cell_length_c 7.294501
_cell_angle_alpha 90.000000
_cell_angle_beta 90.000000
_cell_angle_gamma 90.000000
_cell_volume 3509.636995
_symmetry_space_group_name_H-M "F D D D"
_symmetry_group_IT_number 70
_space_group.IT_coordinate_system_code '2'
_symmetry_cell_setting 'orthorhombic'
loop_
_space_group_symop_operation_xyz
x,y,z
1/4-x,1/4-y,z
x,1/4-y,1/4-z
1/4-x,y,1/4-z
-x,-y,-z
3/4+x,3/4+y,-z
-x,3/4+y,3/4+z
3/4+x,-y,3/4+z
x,1/2+y,1/2+z
1/4-x,3/4-y,1/2+z
x,3/4-y,3/4-z
1/4-x,1/2+y,3/4-z
-x,1/2-y,1/2-z
3/4+x,1/4+y,1/2-z
-x,1/4+y,1/4+z
3/4+x,1/2-y,1/4+z
1/2+x,y,1/2+z
3/4-x,1/4-y,1/2+z
1/2+x,1/4-y,3/4-z
3/4-x,y,3/4-z
1/2-x,-y,1/2-z
1/4+x,3/4+y,1/2-z
1/2-x,3/4+y,1/4+z
1/4+x,-y,1/4+z
1/2+x,1/2+y,z
3/4-x,3/4-y,z
1/2+x,3/4-y,1/4-z
3/4-x,1/2+y,1/4-z
1/2-x,1/2-y,-z
1/4+x,1/4+y,-z
1/2-x,1/4+y,3/4+z
1/4+x,1/2-y,3/4+z
loop_
_atom_site_type_symbol
_atom_site_label
_atom_site_fract_x
_atom_site_fract_y
_atom_site_fract_z
Si Si1 0.178271 0.728859 0.534523
Si Si2 0.535877 0.674122 0.860920
Si Si3 0.930450 0.199625 0.909518
O O1 0.125000 0.732718 0.625000
O O2 0.186141 0.649628 0.429240
O O3 0.213652 0.728657 0.709810
O O4 0.183987 0.789980 0.377544
O O5 0.562030 0.719673 0.698115
O O6 0.478289 0.656682 0.832289
O O7 0.875000 0.171952 0.875000
#
# Coordination Sequence:
#
# PCOD9515709 Si02
#       3
#    32  32  32
#     4  11  21  38  64  87 116 156 203 244 296 359
#     4  10  22  37  59  90 119 151 199 251 299 348
#     4  11  22  37  62  88 119 155 199 247 299 358
#
# _framework density 27.353255999999998
#
# number of rings (size 3 to 8) (size 9 to 14) (size 15 to 20)
#    0.000    1.333    3.333    4.000    0.000    1.333 
#    0.000    0.000   29.333    0.000    0.000    0.000 
#    0.000    0.000    0.000    0.000    0.000    0.000 
#
# Total GULP energy -134503.067390 kJ/mol
# GULP energy per Si atom -5604.294475 kJ/mol
# Density = 2.729100 g / cm^3
# Si number density = 27.353256 Si / 1000 Ang^3
#
#
#
# Elastic Constant Matrix: (Units=GPa)
#
#
# Indices 1 2 3 4 5 6 
#
# 1 229.4348 15.0753 26.0171 0.0000 0.0000 0.0000
# 2 15.0753 119.8505 37.7014 -0.0004 0.0000 0.0000
# 3 26.0171 37.7014 185.8568 -0.0009 0.0000 0.0000
# 4 0.0000 -0.0004 -0.0009 25.5312 0.0000 0.0000
# 5 0.0000 0.0000 0.0000 0.0000 1.9172 0.0000
# 6 0.0000 0.0000 0.0000 0.0000 0.0000 11.7353
#
#
#
# Elastic Compliance Matrix: (Units=1/GPa)
#
#
# Indices 1 2 3 4 5 6 
#
# 1 0.004446 -0.000388 -0.000544 0.000000 0.000000 0.000000
# 2 -0.000388 0.008946 -0.001760 0.000000 0.000000 0.000000
# 3 -0.000544 -0.001760 0.005814 0.000000 0.000000 0.000000
# 4 0.000000 0.000000 0.000000 0.039168 0.000000 0.000000
# 5 0.000000 0.000000 0.000000 0.000000 0.521600 0.000001
# 6 0.000000 0.000000 0.000000 0.000000 0.000001 0.085213
#
#
# Mechanical properties :
#
#
# Convention : Reuss Voigt Hill
#
# Bulk Modulus (GPa) = 72.35225 76.96996 74.66111
# Shear Modulus (GPa) = 7.40546 38.25995 22.83270
#
# Velocity S-wave (km/s) = 1.64718 3.74402 2.89231
# Velocity P-wave (km/s) = 5.48873 6.84767 6.20551
#
# Compressibility (1/GPa) = 0.01382127
#
# Stress axis : x y z
#
# Youngs Moduli (GPa) = 224.93727 111.77753 172.00784
#
# Poissons Ratio (x) = 0.04339 0.09350
# Poissons Ratio (y) = 0.08732 0.30281
# Poissons Ratio (z) = 0.12227 0.19678
#
# Static dielectric constant tensor:
#      x y z
#    x 2.123050 0.000000 0.000000 
#    y 0.000000 2.218190 0.000000 
#    z 0.000000 0.000000 2.088620 
# 
# From -- ./inp_files/10326.got.cif
#   From: 2010.05.17/outbox.cif.g08.bks.cpg/sg70_6_cif.got.tgz:10326.got - 2010.06.03 15:57:51.
