data_PCOD9515764
_publ_section_title
;
Structure prediction by ZEFSAII (Michael W. Deem and Ramdas Pophale) SiO2 
 PCOD9515764
Probable space group: F D D D
;
_chemical_formula_sum "Si O2"
_cell_formula_units_Z 184
_cell_length_a 23.802749
_cell_length_b 24.510731
_cell_length_c 15.963440
_cell_angle_alpha 90.000000
_cell_angle_beta 90.000000
_cell_angle_gamma 90.000000
_cell_volume 9313.434508
_symmetry_space_group_name_H-M "F D D D"
_symmetry_group_IT_number 70
_space_group.IT_coordinate_system_code '2'
_symmetry_cell_setting 'orthorhombic'
loop_
_space_group_symop_operation_xyz
x,y,z
1/4-x,1/4-y,z
x,1/4-y,1/4-z
1/4-x,y,1/4-z
-x,-y,-z
3/4+x,3/4+y,-z
-x,3/4+y,3/4+z
3/4+x,-y,3/4+z
x,1/2+y,1/2+z
1/4-x,3/4-y,1/2+z
x,3/4-y,3/4-z
1/4-x,1/2+y,3/4-z
-x,1/2-y,1/2-z
3/4+x,1/4+y,1/2-z
-x,1/4+y,1/4+z
3/4+x,1/2-y,1/4+z
1/2+x,y,1/2+z
3/4-x,1/4-y,1/2+z
1/2+x,1/4-y,3/4-z
3/4-x,y,3/4-z
1/2-x,-y,1/2-z
1/4+x,3/4+y,1/2-z
1/2-x,3/4+y,1/4+z
1/4+x,-y,1/4+z
1/2+x,1/2+y,z
3/4-x,3/4-y,z
1/2+x,3/4-y,1/4-z
3/4-x,1/2+y,1/4-z
1/2-x,1/2-y,-z
1/4+x,1/4+y,-z
1/2-x,1/4+y,3/4+z
1/4+x,1/2-y,3/4+z
loop_
_atom_site_type_symbol
_atom_site_label
_atom_site_fract_x
_atom_site_fract_y
_atom_site_fract_z
Si Si1 0.707576 0.825298 0.153113
Si Si2 0.731349 0.820451 0.702732
Si Si3 0.098130 0.788159 0.753783
Si Si4 0.679578 0.041981 0.000507
Si Si5 0.955362 0.625000 0.625000
Si Si6 0.625000 0.625000 0.625000
Si Si7 0.358347 0.938147 0.595698
O O1 0.707597 0.885862 0.113716
O O2 0.655280 0.813195 0.214007
O O3 0.765740 0.811305 0.198032
O O4 0.697609 0.789089 0.070130
O O5 0.693148 0.767262 0.712863
O O6 0.736623 0.848393 0.795013
O O7 0.792892 0.804688 0.671380
O O8 0.079962 0.826506 0.830943
O O9 0.108814 0.726995 0.782324
O O10 0.627281 0.042148 0.937104
O O11 0.664314 0.086216 0.069713
O O12 0.375000 0.875000 0.587238
#
# Coordination Sequence:
#
# PCOD9515764 Si02
#       7
#    32  32  32  32  16   8  32
#     4  10  22  43  65  97 137 170 217 278 338 394
#     4  11  23  42  68  99 129 182 217 275 341 398
#     4  10  22  40  66  98 130 173 217 277 334 395
#     4  12  24  45  68  95 140 171 226 276 337 398
#     4  10  22  39  65  94 132 166 222 272 332 392
#     4  12  28  46  68 100 128 188 224 284 326 394
#     4  12  23  43  67  96 135 175 222 271 336 404
#
# _framework density 19.756406999999999
#
# number of rings (size 3 to 8) (size 9 to 14) (size 15 to 20)
#    0.000    1.043    6.087    0.000    0.000    5.565 
#    0.000    1.739    0.000    0.000    0.000    0.000 
#    0.000    0.000    0.000    0.000    0.000    0.000 
#
# Total GULP energy -257050.546356 kJ/mol
# GULP energy per Si atom -5588.055356 kJ/mol
# Density = 1.971144 g / cm^3
# Si number density = 19.756407 Si / 1000 Ang^3
#
#
#
# Elastic Constant Matrix: (Units=GPa)
#
#
# Indices 1 2 3 4 5 6 
#
# 1 44.4120 3.6488 14.5211 0.0000 0.0000 0.0000
# 2 3.6488 110.5955 13.8902 0.0000 0.0000 0.0000
# 3 14.5211 13.8902 60.1728 0.0000 0.0000 0.0000
# 4 0.0000 0.0000 0.0000 35.4447 0.0000 0.0000
# 5 0.0000 0.0000 0.0000 0.0000 -17.3589 0.0000
# 6 0.0000 0.0000 0.0000 0.0000 0.0000 7.8303
#
#
#
# Elastic Compliance Matrix: (Units=1/GPa)
#
#
# Indices 1 2 3 4 5 6 
#
# 1 0.024446 -0.000068 -0.005884 0.000000 0.000000 0.000000
# 2 -0.000068 0.009312 -0.002133 0.000000 0.000000 0.000000
# 3 -0.005884 -0.002133 0.018531 0.000000 0.000000 0.000000
# 4 0.000000 0.000000 0.000000 0.028213 0.000000 0.000000
# 5 0.000000 0.000000 0.000000 0.000000 -0.057607 0.000000
# 6 0.000000 0.000000 0.000000 0.000000 0.000000 0.127709
#
#
# Mechanical properties :
#
#
# Convention : Reuss Voigt Hill
#
# Bulk Modulus (GPa) = 27.68561 31.03339 29.35950
# Shear Modulus (GPa) = 27.96221 17.39123 22.67672
#
# Velocity S-wave (km/s) = 3.76619 2.97018 3.39162
# Velocity P-wave (km/s) = 5.74075 5.24449 5.49822
#
# Compressibility (1/GPa) = 0.03611985
#
# Stress axis : x y z
#
# Youngs Moduli (GPa) = 40.90685 107.38694 53.96327
#
# Poissons Ratio (x) = 0.00725 0.31751
# Poissons Ratio (y) = 0.00276 0.11512
# Poissons Ratio (z) = 0.24069 0.22909
#
# Static dielectric constant tensor:
#      x y z
#    x 1.685770 0.000000 0.000000 
#    y 0.000000 1.702550 0.000000 
#    z 0.000000 0.000000 1.702380 
# 
# From -- ./inp_files/37605.got.cif
#   From: 2010.05.17/outbox.cif.g08.bks.cpg/sg70_19_cif.got.tgz:37605.got - 2010.06.03 15:57:51.
