data_PCOD9515315
_publ_section_title
;
Structure prediction by ZEFSAII (Michael W. Deem and Ramdas Pophale) SiO2 
 PCOD9515315
Probable space group: F D D D
;
_chemical_formula_sum "Si O2"
_cell_formula_units_Z 112
_cell_length_a 5.238828
_cell_length_b 32.426475
_cell_length_c 30.936218
_cell_angle_alpha 90.000000
_cell_angle_beta 90.000000
_cell_angle_gamma 90.000000
_cell_volume 5255.343403
_symmetry_space_group_name_H-M "F D D D"
_symmetry_group_IT_number 70
_space_group.IT_coordinate_system_code '2'
_symmetry_cell_setting 'orthorhombic'
loop_
_space_group_symop_operation_xyz
x,y,z
1/4-x,1/4-y,z
x,1/4-y,1/4-z
1/4-x,y,1/4-z
-x,-y,-z
3/4+x,3/4+y,-z
-x,3/4+y,3/4+z
3/4+x,-y,3/4+z
x,1/2+y,1/2+z
1/4-x,3/4-y,1/2+z
x,3/4-y,3/4-z
1/4-x,1/2+y,3/4-z
-x,1/2-y,1/2-z
3/4+x,1/4+y,1/2-z
-x,1/4+y,1/4+z
3/4+x,1/2-y,1/4+z
1/2+x,y,1/2+z
3/4-x,1/4-y,1/2+z
1/2+x,1/4-y,3/4-z
3/4-x,y,3/4-z
1/2-x,-y,1/2-z
1/4+x,3/4+y,1/2-z
1/2-x,3/4+y,1/4+z
1/4+x,-y,1/4+z
1/2+x,1/2+y,z
3/4-x,3/4-y,z
1/2+x,3/4-y,1/4-z
3/4-x,1/2+y,1/4-z
1/2-x,1/2-y,-z
1/4+x,1/4+y,-z
1/2-x,1/4+y,3/4+z
1/4+x,1/2-y,3/4+z
loop_
_atom_site_type_symbol
_atom_site_label
_atom_site_fract_x
_atom_site_fract_y
_atom_site_fract_z
Si Si1 0.132538 0.858614 0.299401
Si Si2 0.254296 0.013513 0.027255
Si Si3 0.117650 0.698516 0.902467
Si Si4 0.875000 0.875000 0.217751
O O1 0.375000 0.875000 0.323606
O O2 0.188647 0.811193 0.288516
O O3 0.875000 0.875000 0.321149
O O4 0.101081 0.881722 0.252374
O O5 0.266066 0.988261 0.071926
O O6 0.500000 0.000000 0.000000
O O7 0.000000 0.000000 0.000000
O O8 0.375000 0.706024 0.875000
O O9 0.177638 0.663933 0.938162
O O10 0.875000 0.682887 0.875000
#
# Coordination Sequence:
#
# PCOD9515315 Si02
#       4
#    32  32  32  16
#     4  10  21  36  64  94 116 161 224 265 312 361
#     4  12  22  42  66  91 127 173 227 267 308 392
#     4  12  26  39  60  94 136 168 201 263 338 397
#     4  10  22  38  62  90 131 162 208 248 339 382
#
# _framework density 21.311643
#
# number of rings (size 3 to 8) (size 9 to 14) (size 15 to 20)
#    0.857    0.000    2.857    6.000    4.000    0.000 
#    0.000    0.000    0.000    5.143    0.000    0.000 
#    0.000    0.000    0.000    0.000    0.000    0.000 
#
# Total GULP energy -155994.587935 kJ/mol
# GULP energy per Si atom -5571.235283 kJ/mol
# Density = 2.126314 g / cm^3
# Si number density = 21.311643 Si / 1000 Ang^3
#
#
#
# Elastic Constant Matrix: (Units=GPa)
#
#
# Indices 1 2 3 4 5 6 
#
# 1 191.1320 25.4581 24.6245 0.0000 0.0000 0.0000
# 2 25.4581 114.7545 3.7427 0.0000 0.0000 0.0000
# 3 24.6245 3.7427 79.8065 0.0000 0.0000 0.0000
# 4 0.0000 0.0000 0.0000 18.6079 0.0000 0.0000
# 5 0.0000 0.0000 0.0000 0.0000 -10.4787 0.0000
# 6 0.0000 0.0000 0.0000 0.0000 0.0000 29.6939
#
#
#
# Elastic Compliance Matrix: (Units=1/GPa)
#
#
# Indices 1 2 3 4 5 6 
#
# 1 0.005606 -0.001189 -0.001674 0.000000 0.000000 0.000000
# 2 -0.001189 0.008980 -0.000054 0.000000 0.000000 0.000000
# 3 -0.001674 -0.000054 0.013049 0.000000 0.000000 0.000000
# 4 0.000000 0.000000 0.000000 0.053741 0.000000 0.000000
# 5 0.000000 0.000000 0.000000 0.000000 -0.095432 0.000000
# 6 0.000000 0.000000 0.000000 0.000000 0.000000 0.033677
#
#
# Mechanical properties :
#
#
# Convention : Reuss Voigt Hill
#
# Bulk Modulus (GPa) = 45.87031 54.81594 50.34313
# Shear Modulus (GPa) = 152.79927 29.68912 91.24420
#
# Velocity S-wave (km/s) = 8.47663 3.73647 6.55036
# Velocity P-wave (km/s) = 10.83396 6.66272 8.99351
#
# Compressibility (1/GPa) = 0.02180059
#
# Stress axis : x y z
#
# Youngs Moduli (GPa) = 178.37907 111.36075 76.63209
#
# Poissons Ratio (x) = 0.13242 0.12828
# Poissons Ratio (y) = 0.21211 0.00416
# Poissons Ratio (z) = 0.29860 0.00604
#
# Static dielectric constant tensor:
#      x y z
#    x 3.183890 0.000000 0.000000 
#    y 0.000000 1.804520 0.000000 
#    z 0.000000 0.000000 1.832600 
# 
# From -- ./inp_files/62913.got.cif
#   From: 2010.05.17/outbox.cif.g08.bks.cpg/sg70_32_cif.got.tgz:62913.got - 2010.06.03 15:57:51.
