data_PCOD9515270
_publ_section_title
;
Structure prediction by ZEFSAII (Michael W. Deem and Ramdas Pophale) SiO2 
 PCOD9515270
Probable space group: F D D D
;
_chemical_formula_sum "Si O2"
_cell_formula_units_Z 96
_cell_length_a 17.152118
_cell_length_b 26.112503
_cell_length_c 7.496664
_cell_angle_alpha 90.000000
_cell_angle_beta 90.000000
_cell_angle_gamma 90.000000
_cell_volume 3357.641352
_symmetry_space_group_name_H-M "F D D D"
_symmetry_group_IT_number 70
_space_group.IT_coordinate_system_code '2'
_symmetry_cell_setting 'orthorhombic'
loop_
_space_group_symop_operation_xyz
x,y,z
1/4-x,1/4-y,z
x,1/4-y,1/4-z
1/4-x,y,1/4-z
-x,-y,-z
3/4+x,3/4+y,-z
-x,3/4+y,3/4+z
3/4+x,-y,3/4+z
x,1/2+y,1/2+z
1/4-x,3/4-y,1/2+z
x,3/4-y,3/4-z
1/4-x,1/2+y,3/4-z
-x,1/2-y,1/2-z
3/4+x,1/4+y,1/2-z
-x,1/4+y,1/4+z
3/4+x,1/2-y,1/4+z
1/2+x,y,1/2+z
3/4-x,1/4-y,1/2+z
1/2+x,1/4-y,3/4-z
3/4-x,y,3/4-z
1/2-x,-y,1/2-z
1/4+x,3/4+y,1/2-z
1/2-x,3/4+y,1/4+z
1/4+x,-y,1/4+z
1/2+x,1/2+y,z
3/4-x,3/4-y,z
1/2+x,3/4-y,1/4-z
3/4-x,1/2+y,1/4-z
1/2-x,1/2-y,-z
1/4+x,1/4+y,-z
1/2-x,1/4+y,3/4+z
1/4+x,1/2-y,3/4+z
loop_
_atom_site_type_symbol
_atom_site_label
_atom_site_fract_x
_atom_site_fract_y
_atom_site_fract_z
Si Si1 0.911174 0.539477 0.102687
Si Si2 0.006088 0.427730 0.552764
Si Si3 0.213732 0.188173 0.317430
O O1 0.978118 0.551343 0.251706
O O2 0.840050 0.570295 0.194571
O O3 0.903713 0.477731 0.094331
O O4 0.952990 0.552892 0.916932
O O5 0.960321 0.453722 0.390828
O O6 0.963452 0.373067 0.574623
#
# Coordination Sequence:
#
# PCOD9515270 Si02
#       3
#    32  32  32
#     4  10  21  35  56  89 122 157 201 249 303 364
#     4  10  21  34  60  84 119 154 205 246 302 362
#     4  10  21  35  56  89 122 157 201 249 303 364
#
# _framework density 28.5915
#
# number of rings (size 3 to 8) (size 9 to 14) (size 15 to 20)
#    0.000    2.000    0.000    3.000   18.667    0.000 
#    0.000    0.000    0.000   34.000    0.000   46.667 
#    0.000    0.000    0.000    0.000    0.000    0.000 
#
# Total GULP energy -133853.615535 kJ/mol
# GULP energy per Si atom -5577.233981 kJ/mol
# Density = 2.852642 g / cm^3
# Si number density = 28.591500 Si / 1000 Ang^3
#
#
#
# Elastic Constant Matrix: (Units=GPa)
#
#
# Indices 1 2 3 4 5 6 
#
# 1 160.2316 16.0956 19.9897 -0.0001 0.0002 0.0000
# 2 16.0956 126.4221 -2.8888 0.0000 0.0000 0.0000
# 3 19.9897 -2.8888 144.9864 -0.0003 0.0007 0.0001
# 4 -0.0001 0.0000 -0.0003 47.4350 0.0001 0.0000
# 5 0.0002 0.0000 0.0007 0.0001 47.5365 -0.0001
# 6 0.0000 0.0000 0.0001 0.0000 -0.0001 19.2615
#
#
#
# Elastic Compliance Matrix: (Units=1/GPa)
#
#
# Indices 1 2 3 4 5 6 
#
# 1 0.006438 -0.000840 -0.000904 0.000000 0.000000 0.000000
# 2 -0.000840 0.008023 0.000276 0.000000 0.000000 0.000000
# 3 -0.000904 0.000276 0.007027 0.000000 0.000000 0.000000
# 4 0.000000 0.000000 0.000000 0.021081 0.000000 0.000000
# 5 0.000000 0.000000 0.000000 0.000000 0.021036 0.000000
# 6 0.000000 0.000000 0.000000 0.000000 0.000000 0.051917
#
#
# Mechanical properties :
#
#
# Convention : Reuss Voigt Hill
#
# Bulk Modulus (GPa) = 53.90593 55.33700 54.62146
# Shear Modulus (GPa) = 40.11376 49.40953 44.76164
#
# Velocity S-wave (km/s) = 3.74972 4.16158 3.96101
# Velocity P-wave (km/s) = 6.13531 6.51828 6.32969
#
# Compressibility (1/GPa) = 0.01855084
#
# Stress axis : x y z
#
# Youngs Moduli (GPa) = 155.32273 124.63703 142.30043
#
# Poissons Ratio (x) = 0.10474 0.12870
# Poissons Ratio (y) = 0.13053 -0.03924
# Poissons Ratio (z) = 0.14047 -0.03437
#
# Static dielectric constant tensor:
#      x y z
#    x 2.485470 0.000000 0.000000 
#    y 0.000000 2.217310 0.000000 
#    z 0.000000 0.000000 2.114480 
# 
# From -- ./inp_files/9095.got.cif
#   From: 2010.05.17/outbox.cif.g08.bks.cpg/sg70_5_cif.got.tgz:9095.got - 2010.06.03 15:57:51.
