data_PCOD9515055
_publ_section_title
;
Structure prediction by ZEFSAII (Michael W. Deem and Ramdas Pophale) SiO2 
 PCOD9515055
Probable space group: F D D D
;
_chemical_formula_sum "Si O2"
_cell_formula_units_Z 144
_cell_length_a 11.733985
_cell_length_b 18.888147
_cell_length_c 28.041145
_cell_angle_alpha 90.000000
_cell_angle_beta 90.000000
_cell_angle_gamma 90.000000
_cell_volume 6214.849640
_symmetry_space_group_name_H-M "F D D D"
_symmetry_group_IT_number 70
_space_group.IT_coordinate_system_code '2'
_symmetry_cell_setting 'orthorhombic'
loop_
_space_group_symop_operation_xyz
x,y,z
1/4-x,1/4-y,z
x,1/4-y,1/4-z
1/4-x,y,1/4-z
-x,-y,-z
3/4+x,3/4+y,-z
-x,3/4+y,3/4+z
3/4+x,-y,3/4+z
x,1/2+y,1/2+z
1/4-x,3/4-y,1/2+z
x,3/4-y,3/4-z
1/4-x,1/2+y,3/4-z
-x,1/2-y,1/2-z
3/4+x,1/4+y,1/2-z
-x,1/4+y,1/4+z
3/4+x,1/2-y,1/4+z
1/2+x,y,1/2+z
3/4-x,1/4-y,1/2+z
1/2+x,1/4-y,3/4-z
3/4-x,y,3/4-z
1/2-x,-y,1/2-z
1/4+x,3/4+y,1/2-z
1/2-x,3/4+y,1/4+z
1/4+x,-y,1/4+z
1/2+x,1/2+y,z
3/4-x,3/4-y,z
1/2+x,3/4-y,1/4-z
3/4-x,1/2+y,1/4-z
1/2-x,1/2-y,-z
1/4+x,1/4+y,-z
1/2-x,1/4+y,3/4+z
1/4+x,1/2-y,3/4+z
loop_
_atom_site_type_symbol
_atom_site_label
_atom_site_fract_x
_atom_site_fract_y
_atom_site_fract_z
Si Si1 0.013641 0.985853 0.730614
Si Si2 0.421146 0.951672 0.685679
Si Si3 0.625000 0.125000 0.547205
Si Si4 0.909895 0.648528 0.820295
Si Si5 0.319242 0.522697 0.665326
O O1 0.943490 0.931104 0.764923
O O2 0.070596 0.930845 0.693932
O O3 0.931634 0.034085 0.697064
O O4 0.114755 0.018028 0.763464
O O5 0.375000 0.875000 0.671167
O O6 0.550999 0.935009 0.702880
O O7 0.412068 0.004437 0.640749
O O8 0.720572 0.169163 0.576590
O O9 0.875000 0.652692 0.875000
O O10 0.017408 0.699120 0.813825
#
# Coordination Sequence:
#
# PCOD9515055 Si02
#       5
#    32  32  16  32  32
#     4  12  22  39  68  96 132 174 220 272 331 400
#     4  11  25  42  62  93 137 181 228 266 328 406
#     4  12  22  35  64 106 132 160 210 284 337 386
#     4  10  20  39  63  93 129 179 216 264 334 403
#     4  11  22  41  63 102 140 168 212 282 344 394
#
# _framework density 23.170311000000002
#
# number of rings (size 3 to 8) (size 9 to 14) (size 15 to 20)
#    0.000    0.889    4.444    4.667    0.000    2.667 
#    0.000    0.000    0.000    3.333    0.000    0.000 
#    0.000    0.000    0.000    0.000    0.000    0.000 
#
# Total GULP energy -200853.113977 kJ/mol
# GULP energy per Si atom -5579.253166 kJ/mol
# Density = 2.311757 g / cm^3
# Si number density = 23.170311 Si / 1000 Ang^3
#
#
#
# Elastic Constant Matrix: (Units=GPa)
#
#
# Indices 1 2 3 4 5 6 
#
# 1 33.5737 11.4994 35.5254 0.0000 0.0000 0.0000
# 2 11.4994 71.8440 22.5083 0.0000 0.0000 0.0000
# 3 35.5254 22.5083 75.6874 0.0000 0.0000 0.0000
# 4 0.0000 0.0000 0.0000 144.3052 0.0000 0.0000
# 5 0.0000 0.0000 0.0000 0.0000 30.5038 0.0000
# 6 0.0000 0.0000 0.0000 0.0000 0.0000 45.0010
#
#
#
# Elastic Compliance Matrix: (Units=1/GPa)
#
#
# Indices 1 2 3 4 5 6 
#
# 1 0.059221 -0.000850 -0.027544 0.000000 0.000000 0.000000
# 2 -0.000850 0.015361 -0.004169 0.000000 0.000000 0.000000
# 3 -0.027544 -0.004169 0.027380 0.000000 0.000000 0.000000
# 4 0.000000 0.000000 0.000000 0.006930 0.000000 0.000000
# 5 0.000000 0.000000 0.000000 0.000000 0.032783 0.000000
# 6 0.000000 0.000000 0.000000 0.000000 0.000000 0.022222
#
#
# Mechanical properties :
#
#
# Convention : Reuss Voigt Hill
#
# Bulk Modulus (GPa) = 27.14663 35.57458 31.36060
# Shear Modulus (GPa) = 20.72085 51.40015 36.06050
#
# Velocity S-wave (km/s) = 2.99370 4.71506 3.94931
# Velocity P-wave (km/s) = 4.86737 6.71038 5.86176
#
# Compressibility (1/GPa) = 0.03683698
#
# Stress axis : x y z
#
# Youngs Moduli (GPa) = 16.88576 65.09866 36.52238
#
# Poissons Ratio (x) = 0.05531 1.00597
# Poissons Ratio (y) = 0.01435 0.15228
# Poissons Ratio (z) = 0.46510 0.27142
#
# Static dielectric constant tensor:
#      x y z
#    x 2.259830 0.000000 0.000000 
#    y 0.000000 1.910700 0.000000 
#    z 0.000000 0.000000 2.264200 
# 
# From -- ./inp_files/65647.got.cif
#   From: 2010.05.17/outbox.cif.g08.bks.cpg/sg70_33_cif.got.tgz:65647.got - 2010.06.03 15:57:51.
