data_PCOD9515919
_publ_section_title
;
Structure prediction by ZEFSAII (Michael W. Deem and Ramdas Pophale) SiO2 
 PCOD9515919
Probable space group: F D D D
;
_chemical_formula_sum "Si O2"
_cell_formula_units_Z 192
_cell_length_a 20.932412
_cell_length_b 18.070300
_cell_length_c 19.302379
_cell_angle_alpha 90.000000
_cell_angle_beta 90.000000
_cell_angle_gamma 90.000000
_cell_volume 7301.220685
_symmetry_space_group_name_H-M "F D D D"
_symmetry_group_IT_number 70
_space_group.IT_coordinate_system_code '2'
_symmetry_cell_setting 'orthorhombic'
loop_
_space_group_symop_operation_xyz
x,y,z
1/4-x,1/4-y,z
x,1/4-y,1/4-z
1/4-x,y,1/4-z
-x,-y,-z
3/4+x,3/4+y,-z
-x,3/4+y,3/4+z
3/4+x,-y,3/4+z
x,1/2+y,1/2+z
1/4-x,3/4-y,1/2+z
x,3/4-y,3/4-z
1/4-x,1/2+y,3/4-z
-x,1/2-y,1/2-z
3/4+x,1/4+y,1/2-z
-x,1/4+y,1/4+z
3/4+x,1/2-y,1/4+z
1/2+x,y,1/2+z
3/4-x,1/4-y,1/2+z
1/2+x,1/4-y,3/4-z
3/4-x,y,3/4-z
1/2-x,-y,1/2-z
1/4+x,3/4+y,1/2-z
1/2-x,3/4+y,1/4+z
1/4+x,-y,1/4+z
1/2+x,1/2+y,z
3/4-x,3/4-y,z
1/2+x,3/4-y,1/4-z
3/4-x,1/2+y,1/4-z
1/2-x,1/2-y,-z
1/4+x,1/4+y,-z
1/2-x,1/4+y,3/4+z
1/4+x,1/2-y,3/4+z
loop_
_atom_site_type_symbol
_atom_site_label
_atom_site_fract_x
_atom_site_fract_y
_atom_site_fract_z
Si Si1 0.125000 0.125000 0.761792
Si Si2 0.746966 0.600217 0.387973
Si Si3 0.465858 0.625000 0.125000
Si Si4 0.978293 0.125000 0.625000
Si Si5 0.949791 0.251186 0.812808
Si Si6 0.690971 0.592980 0.002001
Si Si7 0.125000 0.431852 0.625000
Si Si8 0.117234 0.437615 0.781593
O O1 0.188632 0.143970 0.807327
O O2 0.108245 0.199428 0.717659
O O3 0.797046 0.669853 0.402939
O O4 0.714256 0.609664 0.313965
O O5 0.801798 0.537409 0.390763
O O6 0.505690 0.652045 0.059899
O O7 0.420490 0.562200 0.091228
O O8 0.933189 0.127142 0.558437
O O9 0.021146 0.053590 0.621745
O O10 0.000000 0.250000 0.750000
O O11 0.625000 0.625000 0.032079
O O12 0.670202 0.514127 0.971600
O O13 0.141667 0.414855 0.706523
#
# Coordination Sequence:
#
# PCOD9515919 Si02
#       8
#    16  32  16  16  32  32  16  32
#     4  10  22  43  70 107 150 198 246 314 388 469
#     4  11  23  47  73 111 155 198 261 323 391 476
#     4  11  27  52  79 117 156 206 266 334 400 476
#     4  11  22  45  69 105 153 197 246 312 388 462
#     4  10  22  42  70 106 147 195 252 311 377 474
#     4  12  26  49  78 112 152 205 263 326 395 473
#     4  12  26  48  71 109 152 204 258 324 400 472
#     4  11  26  47  76 107 154 203 252 325 397 466
#
# _framework density 26.296973000000001
#
# number of rings (size 3 to 8) (size 9 to 14) (size 15 to 20)
#    0.000    1.000    4.167    2.250    2.333    3.667 
#    6.000    0.000    0.000    0.000    0.000    0.000 
#    0.000    0.000    0.000    0.000    0.000    0.000 
#
# Total GULP energy -267869.886812 kJ/mol
# GULP energy per Si atom -5580.622642 kJ/mol
# Density = 2.623712 g / cm^3
# Si number density = 26.296973 Si / 1000 Ang^3
#
#
#
# Elastic Constant Matrix: (Units=GPa)
#
#
# Indices 1 2 3 4 5 6 
#
# 1 176.5945 17.6109 67.0407 0.0000 0.0000 0.0000
# 2 17.6109 60.3798 -0.2715 0.0000 0.0000 0.0000
# 3 67.0407 -0.2715 146.7458 0.0000 0.0000 0.0000
# 4 0.0000 0.0000 0.0000 15.7487 0.0000 0.0000
# 5 0.0000 0.0000 0.0000 0.0000 64.4502 0.0000
# 6 0.0000 0.0000 0.0000 0.0000 0.0000 23.5549
#
#
#
# Elastic Compliance Matrix: (Units=1/GPa)
#
#
# Indices 1 2 3 4 5 6 
#
# 1 0.007104 -0.002087 -0.003250 0.000000 0.000000 0.000000
# 2 -0.002087 0.017175 0.000985 0.000000 0.000000 0.000000
# 3 -0.003250 0.000985 0.008301 0.000000 0.000000 0.000000
# 4 0.000000 0.000000 0.000000 0.063497 0.000000 0.000000
# 5 0.000000 0.000000 0.000000 0.000000 0.015516 0.000000
# 6 0.000000 0.000000 0.000000 0.000000 0.000000 0.042454
#
#
# Mechanical properties :
#
#
# Convention : Reuss Voigt Hill
#
# Bulk Modulus (GPa) = 41.87976 61.38668 51.63322
# Shear Modulus (GPa) = 29.28962 40.70676 34.99819
#
# Velocity S-wave (km/s) = 3.34099 3.93869 3.65208
# Velocity P-wave (km/s) = 5.55367 6.63917 6.12053
#
# Compressibility (1/GPa) = 0.02387788
#
# Stress axis : x y z
#
# Youngs Moduli (GPa) = 140.75782 58.22452 120.46945
#
# Poissons Ratio (x) = 0.12150 0.39147
# Poissons Ratio (y) = 0.29373 -0.11868
# Poissons Ratio (z) = 0.45739 -0.05736
#
# Static dielectric constant tensor:
#      x y z
#    x 2.091100 0.000000 0.000000 
#    y 0.000000 3.266110 0.000000 
#    z 0.000000 0.000000 1.993920 
# 
# From -- ./inp_files/45050.got.cif
#   From: 2010.05.17/outbox.cif.g08.bks.cpg/sg70_23_cif.got.tgz:45050.got - 2010.06.03 15:57:51.
