data_PCOD9515609
_publ_section_title
;
Structure prediction by ZEFSAII (Michael W. Deem and Ramdas Pophale) SiO2 
 PCOD9515609
Probable space group: F D D D
;
_chemical_formula_sum "Si O2"
_cell_formula_units_Z 176
_cell_length_a 22.178979
_cell_length_b 28.419237
_cell_length_c 11.181397
_cell_angle_alpha 90.000000
_cell_angle_beta 90.000000
_cell_angle_gamma 90.000000
_cell_volume 7047.742548
_symmetry_space_group_name_H-M "F D D D"
_symmetry_group_IT_number 70
_space_group.IT_coordinate_system_code '2'
_symmetry_cell_setting 'orthorhombic'
loop_
_space_group_symop_operation_xyz
x,y,z
1/4-x,1/4-y,z
x,1/4-y,1/4-z
1/4-x,y,1/4-z
-x,-y,-z
3/4+x,3/4+y,-z
-x,3/4+y,3/4+z
3/4+x,-y,3/4+z
x,1/2+y,1/2+z
1/4-x,3/4-y,1/2+z
x,3/4-y,3/4-z
1/4-x,1/2+y,3/4-z
-x,1/2-y,1/2-z
3/4+x,1/4+y,1/2-z
-x,1/4+y,1/4+z
3/4+x,1/2-y,1/4+z
1/2+x,y,1/2+z
3/4-x,1/4-y,1/2+z
1/2+x,1/4-y,3/4-z
3/4-x,y,3/4-z
1/2-x,-y,1/2-z
1/4+x,3/4+y,1/2-z
1/2-x,3/4+y,1/4+z
1/4+x,-y,1/4+z
1/2+x,1/2+y,z
3/4-x,3/4-y,z
1/2+x,3/4-y,1/4-z
3/4-x,1/2+y,1/4-z
1/2-x,1/2-y,-z
1/4+x,1/4+y,-z
1/2-x,1/4+y,3/4+z
1/4+x,1/2-y,3/4+z
loop_
_atom_site_type_symbol
_atom_site_label
_atom_site_fract_x
_atom_site_fract_y
_atom_site_fract_z
Si Si1 0.276013 0.625000 0.125000
Si Si2 0.860520 0.323462 0.576965
Si Si3 0.815351 0.230632 0.534145
Si Si4 0.722945 0.851683 0.120626
Si Si5 0.562729 0.207205 0.199071
Si Si6 0.811669 0.548683 0.938387
O O1 0.305554 0.641895 0.247554
O O2 0.234996 0.581688 0.164368
O O3 0.875000 0.375000 0.524576
O O4 0.856781 0.275203 0.503108
O O5 0.792183 0.331940 0.630691
O O6 0.910910 0.308299 0.673084
O O7 0.750000 0.250000 0.500000
O O8 0.816397 0.183045 0.459562
O O9 0.820339 0.220134 0.676621
O O10 0.724797 0.903013 0.060021
O O11 0.625000 0.203057 0.125000
O O12 0.537754 0.257493 0.149958
O O13 0.875000 0.560354 0.875000
#
# Coordination Sequence:
#
# PCOD9515609 Si02
#       6
#    16  32  32  32  32  32
#     4  12  21  38  66 108 140 176 238 306 373 420
#     4  11  19  38  72 106 135 183 241 308 372 430
#     4  10  21  42  70  99 140 193 236 299 382 444
#     4  11  24  38  65 101 147 188 238 299 370 452
#     4  11  17  34  67 101 134 174 235 314 363 417
#     4  11  23  42  67 100 141 194 245 300 373 453
#
# _framework density 24.972535000000001
#
# number of rings (size 3 to 8) (size 9 to 14) (size 15 to 20)
#    0.000    1.091    7.273    1.909    0.000    0.727 
#    3.273    0.000    8.000    7.636    0.000    0.000 
#    0.000    0.000    0.000    0.000    0.000    0.000 
#
# Total GULP energy -245696.573584 kJ/mol
# GULP energy per Si atom -5584.013036 kJ/mol
# Density = 2.491570 g / cm^3
# Si number density = 24.972535 Si / 1000 Ang^3
#
#
#
# Elastic Constant Matrix: (Units=GPa)
#
#
# Indices 1 2 3 4 5 6 
#
# 1 56.1067 54.8859 36.6584 0.0000 0.0000 0.0000
# 2 54.8859 252.8253 89.8797 0.0000 0.0000 0.0000
# 3 36.6584 89.8797 163.5357 0.0000 0.0000 0.0000
# 4 0.0000 0.0000 0.0000 37.4491 0.0000 0.0000
# 5 0.0000 0.0000 0.0000 0.0000 32.1258 0.0000
# 6 0.0000 0.0000 0.0000 0.0000 0.0000 37.6973
#
#
#
# Elastic Compliance Matrix: (Units=1/GPa)
#
#
# Indices 1 2 3 4 5 6 
#
# 1 0.023834 -0.004070 -0.003106 0.000000 0.000000 0.000000
# 2 -0.004070 0.005611 -0.002171 0.000000 0.000000 0.000000
# 3 -0.003106 -0.002171 0.008004 0.000000 0.000000 0.000000
# 4 0.000000 0.000000 0.000000 0.026703 0.000000 0.000000
# 5 0.000000 0.000000 0.000000 0.000000 0.031128 0.000000
# 6 0.000000 0.000000 0.000000 0.000000 0.000000 0.026527
#
#
# Mechanical properties :
#
#
# Convention : Reuss Voigt Hill
#
# Bulk Modulus (GPa) = 53.31953 92.81283 73.06618
# Shear Modulus (GPa) = 34.07096 40.85735 37.46416
#
# Velocity S-wave (km/s) = 3.69770 4.04925 3.87746
# Velocity P-wave (km/s) = 6.29510 7.68821 7.02627
#
# Compressibility (1/GPa) = 0.01875485
#
# Stress axis : x y z
#
# Youngs Moduli (GPa) = 41.95718 178.22841 124.93053
#
# Poissons Ratio (x) = 0.72539 0.38800
# Poissons Ratio (y) = 0.17077 0.27127
# Poissons Ratio (z) = 0.13031 0.38700
#
# Static dielectric constant tensor:
#      x y z
#    x 1.972160 0.000000 0.000000 
#    y 0.000000 2.085300 0.000000 
#    z 0.000000 0.000000 2.023900 
# 
# From -- ./inp_files/22435.got.cif
#   From: 2010.05.17/outbox.cif.g08.bks.cpg/sg70_12_cif.got.tgz:22435.got - 2010.06.03 15:57:51.
