data_PCOD9515287
_publ_section_title
;
Structure prediction by ZEFSAII (Michael W. Deem and Ramdas Pophale) SiO2 
 PCOD9515287
Probable space group: F D D D
;
_chemical_formula_sum "Si O2"
_cell_formula_units_Z 160
_cell_length_a 26.269500
_cell_length_b 12.473996
_cell_length_c 25.482546
_cell_angle_alpha 90.000000
_cell_angle_beta 90.000000
_cell_angle_gamma 90.000000
_cell_volume 8350.264342
_symmetry_space_group_name_H-M "F D D D"
_symmetry_group_IT_number 70
_space_group.IT_coordinate_system_code '2'
_symmetry_cell_setting 'orthorhombic'
loop_
_space_group_symop_operation_xyz
x,y,z
1/4-x,1/4-y,z
x,1/4-y,1/4-z
1/4-x,y,1/4-z
-x,-y,-z
3/4+x,3/4+y,-z
-x,3/4+y,3/4+z
3/4+x,-y,3/4+z
x,1/2+y,1/2+z
1/4-x,3/4-y,1/2+z
x,3/4-y,3/4-z
1/4-x,1/2+y,3/4-z
-x,1/2-y,1/2-z
3/4+x,1/4+y,1/2-z
-x,1/4+y,1/4+z
3/4+x,1/2-y,1/4+z
1/2+x,y,1/2+z
3/4-x,1/4-y,1/2+z
1/2+x,1/4-y,3/4-z
3/4-x,y,3/4-z
1/2-x,-y,1/2-z
1/4+x,3/4+y,1/2-z
1/2-x,3/4+y,1/4+z
1/4+x,-y,1/4+z
1/2+x,1/2+y,z
3/4-x,3/4-y,z
1/2+x,3/4-y,1/4-z
3/4-x,1/2+y,1/4-z
1/2-x,1/2-y,-z
1/4+x,1/4+y,-z
1/2-x,1/4+y,3/4+z
1/4+x,1/2-y,3/4+z
loop_
_atom_site_type_symbol
_atom_site_label
_atom_site_fract_x
_atom_site_fract_y
_atom_site_fract_z
Si Si1 0.183959 0.796405 0.238560
Si Si2 0.029300 0.584558 0.065378
Si Si3 0.428452 0.098372 0.001241
Si Si4 0.929389 0.727888 0.846161
Si Si5 0.285791 0.307533 0.800114
O O1 0.193373 0.674685 0.220400
O O2 0.129000 0.816472 0.263909
O O3 0.186284 0.871400 0.187041
O O4 0.230777 0.826742 0.275592
O O5 0.032690 0.625000 0.125000
O O6 0.055856 0.472934 0.049803
O O7 0.970896 0.575898 0.045443
O O8 0.434185 0.222762 0.985938
O O9 0.875000 0.727972 0.875000
O O10 0.935206 0.831152 0.808838
O O11 0.968730 0.750618 0.893102
#
# Coordination Sequence:
#
# PCOD9515287 Si02
#       5
#    32  32  32  32  32
#     4  11  22  36  60  86 116 152 196 244 297 348
#     4  10  22  38  58  85 118 152 200 243 291 352
#     4  10  21  38  58  84 119 153 189 248 294 345
#     4  11  21  37  62  83 114 152 196 242 287 354
#     4  10  21  36  56  88 115 147 193 243 294 344
#
# _framework density 19.161069999999999
#
# number of rings (size 3 to 8) (size 9 to 14) (size 15 to 20)
#    0.000    1.600    2.000    3.600    0.000    0.800 
#    3.600    0.000    0.000    0.000    0.000    0.000 
#    0.000    0.000    0.000    0.000    0.000    0.000 
#
# Total GULP energy -223354.282359 kJ/mol
# GULP energy per Si atom -5583.857059 kJ/mol
# Density = 1.911746 g / cm^3
# Si number density = 19.161070 Si / 1000 Ang^3
#
#
#
# Elastic Constant Matrix: (Units=GPa)
#
#
# Indices 1 2 3 4 5 6 
#
# 1 152.0979 32.0342 38.2147 0.0000 0.0000 0.0000
# 2 32.0342 79.7818 6.0804 0.0000 0.0000 0.0000
# 3 38.2147 6.0804 46.0290 0.0000 0.0000 0.0000
# 4 0.0000 0.0000 0.0000 29.1267 0.0000 0.0000
# 5 0.0000 0.0000 0.0000 0.0000 28.0278 0.0000
# 6 0.0000 0.0000 0.0000 0.0000 0.0000 24.0464
#
#
#
# Elastic Compliance Matrix: (Units=1/GPa)
#
#
# Indices 1 2 3 4 5 6 
#
# 1 0.008997 -0.003074 -0.007063 0.000000 0.000000 0.000000
# 2 -0.003074 0.013712 0.000741 0.000000 0.000000 0.000000
# 3 -0.007063 0.000741 0.027492 0.000000 0.000000 0.000000
# 4 0.000000 0.000000 0.000000 0.034333 0.000000 0.000000
# 5 0.000000 0.000000 0.000000 0.000000 0.035679 0.000000
# 6 0.000000 0.000000 0.000000 0.000000 0.000000 0.041586
#
#
# Mechanical properties :
#
#
# Convention : Reuss Voigt Hill
#
# Bulk Modulus (GPa) = 31.83955 47.84079 39.84017
# Shear Modulus (GPa) = 26.16965 29.67880 27.92423
#
# Velocity S-wave (km/s) = 3.69964 3.93989 3.82166
# Velocity P-wave (km/s) = 5.90785 6.76157 6.34908
#
# Compressibility (1/GPa) = 0.03140748
#
# Stress axis : x y z
#
# Youngs Moduli (GPa) = 111.15006 72.92855 36.37449
#
# Poissons Ratio (x) = 0.22419 0.25693
# Poissons Ratio (y) = 0.34169 -0.02695
# Poissons Ratio (z) = 0.78509 -0.05403
#
# Static dielectric constant tensor:
#      x y z
#    x 1.670730 0.000000 0.000000 
#    y 0.000000 1.671760 0.000000 
#    z 0.000000 0.000000 1.669740 
# 
# From -- ./inp_files/19479.got.cif
#   From: 2010.05.17/outbox.cif.g08.bks.cpg/sg70_10_cif.got.tgz:19479.got - 2010.06.03 15:57:51.
