data_PCOD9515152
_publ_section_title
;
Structure prediction by ZEFSAII (Michael W. Deem and Ramdas Pophale) SiO2 
 PCOD9515152
Probable space group: F D D D
;
_chemical_formula_sum "Si O2"
_cell_formula_units_Z 160
_cell_length_a 14.261938
_cell_length_b 19.059235
_cell_length_c 26.691093
_cell_angle_alpha 90.000000
_cell_angle_beta 90.000000
_cell_angle_gamma 90.000000
_cell_volume 7255.216350
_symmetry_space_group_name_H-M "F D D D"
_symmetry_group_IT_number 70
_space_group.IT_coordinate_system_code '2'
_symmetry_cell_setting 'orthorhombic'
loop_
_space_group_symop_operation_xyz
x,y,z
1/4-x,1/4-y,z
x,1/4-y,1/4-z
1/4-x,y,1/4-z
-x,-y,-z
3/4+x,3/4+y,-z
-x,3/4+y,3/4+z
3/4+x,-y,3/4+z
x,1/2+y,1/2+z
1/4-x,3/4-y,1/2+z
x,3/4-y,3/4-z
1/4-x,1/2+y,3/4-z
-x,1/2-y,1/2-z
3/4+x,1/4+y,1/2-z
-x,1/4+y,1/4+z
3/4+x,1/2-y,1/4+z
1/2+x,y,1/2+z
3/4-x,1/4-y,1/2+z
1/2+x,1/4-y,3/4-z
3/4-x,y,3/4-z
1/2-x,-y,1/2-z
1/4+x,3/4+y,1/2-z
1/2-x,3/4+y,1/4+z
1/4+x,-y,1/4+z
1/2+x,1/2+y,z
3/4-x,3/4-y,z
1/2+x,3/4-y,1/4-z
3/4-x,1/2+y,1/4-z
1/2-x,1/2-y,-z
1/4+x,1/4+y,-z
1/2-x,1/4+y,3/4+z
1/4+x,1/2-y,3/4+z
loop_
_atom_site_type_symbol
_atom_site_label
_atom_site_fract_x
_atom_site_fract_y
_atom_site_fract_z
Si Si1 0.875000 0.875000 0.107067
Si Si2 0.917371 0.636107 0.041296
Si Si3 0.480291 0.750535 0.191979
Si Si4 0.339905 0.684318 0.324671
Si Si5 0.875000 0.875000 0.278042
Si Si6 0.124069 0.023617 0.438007
O O1 0.811767 0.825858 0.073000
O O2 0.925638 0.819491 0.144653
O O3 0.846534 0.690726 0.067770
O O4 0.894102 0.557620 0.057539
O O5 0.027714 0.646432 0.053924
O O6 0.904236 0.647068 0.980407
O O7 0.500000 0.750000 0.250000
O O8 0.586306 0.751048 0.172763
O O9 0.375000 0.643524 0.375000
O O10 0.233587 0.712234 0.325054
O O11 0.898948 0.810778 0.240517
#
# Coordination Sequence:
#
# PCOD9515152 Si02
#       6
#    16  32  32  32  16  32
#     4  11  22  42  62  90 135 172 215 264 336 382
#     4  10  22  39  66  97 131 172 227 269 328 395
#     4  10  23  39  64  96 134 170 219 275 332 397
#     4  10  20  41  63  99 132 171 216 267 339 398
#     4   9  20  40  62  95 123 172 221 262 325 392
#     4  10  21  39  67  94 132 172 214 274 330 398
#
# _framework density 22.053099
#
# number of rings (size 3 to 8) (size 9 to 14) (size 15 to 20)
#    0.000    2.000    2.000    0.600    0.000   11.200 
#    0.000    1.000    0.000    1.200    0.000    2.100 
#    0.000    0.000    0.000    0.000    0.000    0.000 
#
# Total GULP energy -222731.684614 kJ/mol
# GULP energy per Si atom -5568.292115 kJ/mol
# Density = 2.200291 g / cm^3
# Si number density = 22.053099 Si / 1000 Ang^3
#
#
#
# Elastic Constant Matrix: (Units=GPa)
#
#
# Indices 1 2 3 4 5 6 
#
# 1 137.9853 60.9765 21.4938 0.0000 0.0000 0.0000
# 2 60.9765 147.9833 33.9940 0.0000 0.0000 0.0000
# 3 21.4938 33.9940 80.3020 0.0000 0.0000 0.0000
# 4 0.0000 0.0000 0.0000 20.0223 0.0000 0.0000
# 5 0.0000 0.0000 0.0000 0.0000 29.0922 0.0000
# 6 0.0000 0.0000 0.0000 0.0000 0.0000 28.5255
#
#
#
# Elastic Compliance Matrix: (Units=1/GPa)
#
#
# Indices 1 2 3 4 5 6 
#
# 1 0.008922 -0.003465 -0.000921 0.000000 0.000000 0.000000
# 2 -0.003465 0.008831 -0.002811 0.000000 0.000000 0.000000
# 3 -0.000921 -0.002811 0.013890 0.000000 0.000000 0.000000
# 4 0.000000 0.000000 0.000000 0.049944 0.000000 0.000000
# 5 0.000000 0.000000 0.000000 0.000000 0.034373 0.000000
# 6 0.000000 0.000000 0.000000 0.000000 0.000000 0.035056
#
#
# Mechanical properties :
#
#
# Convention : Reuss Voigt Hill
#
# Bulk Modulus (GPa) = 57.97678 66.57765 62.27721
# Shear Modulus (GPa) = 29.21254 32.18176 30.69715
#
# Velocity S-wave (km/s) = 3.64352 3.82420 3.73495
# Velocity P-wave (km/s) = 6.63679 7.05370 6.84842
#
# Compressibility (1/GPa) = 0.01724829
#
# Stress axis : x y z
#
# Youngs Moduli (GPa) = 112.08678 113.24002 71.99645
#
# Poissons Ratio (x) = 0.39232 0.06633
# Poissons Ratio (y) = 0.38833 0.20238
# Poissons Ratio (z) = 0.10327 0.31832
#
# Static dielectric constant tensor:
#      x y z
#    x 1.918670 0.000000 0.000000 
#    y 0.000000 1.794740 0.000000 
#    z 0.000000 0.000000 1.990480 
# 
# From -- ./inp_files/65723.got.cif
#   From: 2010.05.17/outbox.cif.g08.bks.cpg/sg70_33_cif.got.tgz:65723.got - 2010.06.03 15:57:51.
