data_PCOD9515160
_publ_section_title
;
Structure prediction by ZEFSAII (Michael W. Deem and Ramdas Pophale) SiO2 
 PCOD9515160
Probable space group: F D D D
;
_chemical_formula_sum "Si O2"
_cell_formula_units_Z 112
_cell_length_a 8.891160
_cell_length_b 21.446437
_cell_length_c 23.456759
_cell_angle_alpha 90.000000
_cell_angle_beta 90.000000
_cell_angle_gamma 90.000000
_cell_volume 4472.821662
_symmetry_space_group_name_H-M "F D D D"
_symmetry_group_IT_number 70
_space_group.IT_coordinate_system_code '2'
_symmetry_cell_setting 'orthorhombic'
loop_
_space_group_symop_operation_xyz
x,y,z
1/4-x,1/4-y,z
x,1/4-y,1/4-z
1/4-x,y,1/4-z
-x,-y,-z
3/4+x,3/4+y,-z
-x,3/4+y,3/4+z
3/4+x,-y,3/4+z
x,1/2+y,1/2+z
1/4-x,3/4-y,1/2+z
x,3/4-y,3/4-z
1/4-x,1/2+y,3/4-z
-x,1/2-y,1/2-z
3/4+x,1/4+y,1/2-z
-x,1/4+y,1/4+z
3/4+x,1/2-y,1/4+z
1/2+x,y,1/2+z
3/4-x,1/4-y,1/2+z
1/2+x,1/4-y,3/4-z
3/4-x,y,3/4-z
1/2-x,-y,1/2-z
1/4+x,3/4+y,1/2-z
1/2-x,3/4+y,1/4+z
1/4+x,-y,1/4+z
1/2+x,1/2+y,z
3/4-x,3/4-y,z
1/2+x,3/4-y,1/4-z
3/4-x,1/2+y,1/4-z
1/2-x,1/2-y,-z
1/4+x,1/4+y,-z
1/2-x,1/4+y,3/4+z
1/4+x,1/2-y,3/4+z
loop_
_atom_site_type_symbol
_atom_site_label
_atom_site_fract_x
_atom_site_fract_y
_atom_site_fract_z
Si Si1 0.375000 0.026535 0.875000
Si Si2 0.298848 0.307627 0.263672
Si Si3 0.213785 0.208067 0.862979
Si Si4 0.776849 0.087370 0.675809
O O1 0.211439 0.061557 0.874629
O O2 0.357471 0.982543 0.932256
O O3 0.375000 0.375000 0.259646
O O4 0.303447 0.273305 0.203553
O O5 0.126077 0.328253 0.269934
O O6 0.375000 0.174413 0.875000
O O7 0.237400 0.268788 0.901467
O O8 0.625000 0.125000 0.685647
O O9 0.860482 0.125000 0.625000
#
# Coordination Sequence:
#
# PCOD9515160 Si02
#       4
#    16  32  32  32
#     4  10  23  42  72  92 130 172 230 280 333 400
#     4  11  23  41  67  98 132 178 225 282 337 401
#     4  11  23  43  66  99 136 174 225 278 343 400
#     4  10  20  41  67  96 131 173 230 276 323 398
#
# _framework density 25.040122
#
# number of rings (size 3 to 8) (size 9 to 14) (size 15 to 20)
#    0.000    1.429    2.857    4.714    0.000    4.571 
#    7.714    0.000    0.000    0.000    0.000    0.000 
#    0.000    0.000    0.000    0.000    0.000    0.000 
#
# Total GULP energy -156022.972331 kJ/mol
# GULP energy per Si atom -5572.249012 kJ/mol
# Density = 2.498313 g / cm^3
# Si number density = 25.040122 Si / 1000 Ang^3
#
#
#
# Elastic Constant Matrix: (Units=GPa)
#
#
# Indices 1 2 3 4 5 6 
#
# 1 243.3747 75.4252 54.5391 0.0000 0.0000 0.0000
# 2 75.4252 67.3442 9.8875 0.0000 0.0000 0.0000
# 3 54.5391 9.8875 112.2617 0.0000 0.0000 0.0000
# 4 0.0000 0.0000 0.0000 35.8386 0.0000 0.0000
# 5 0.0000 0.0000 0.0000 0.0000 2351.1659 0.0000
# 6 0.0000 0.0000 0.0000 0.0000 0.0000 14.0101
#
#
#
# Elastic Compliance Matrix: (Units=1/GPa)
#
#
# Indices 1 2 3 4 5 6 
#
# 1 0.007050 -0.007490 -0.002765 0.000000 0.000000 0.000000
# 2 -0.007490 0.023001 0.001613 0.000000 0.000000 0.000000
# 3 -0.002765 0.001613 0.010109 0.000000 0.000000 0.000000
# 4 0.000000 0.000000 0.000000 0.027903 0.000000 0.000000
# 5 0.000000 0.000000 0.000000 0.000000 0.000425 0.000000
# 6 0.000000 0.000000 0.000000 0.000000 0.000000 0.071377
#
#
# Mechanical properties :
#
#
# Convention : Reuss Voigt Hill
#
# Bulk Modulus (GPa) = 43.71514 78.07603 60.89559
# Shear Modulus (GPa) = 30.34459 499.07818 264.71138
#
# Velocity S-wave (km/s) = 3.48492 14.13308 10.29293
# Velocity P-wave (km/s) = 5.80421 17.25032 12.86978
#
# Compressibility (1/GPa) = 0.02287537
#
# Stress axis : x y z
#
# Youngs Moduli (GPa) = 141.84965 43.47701 98.92057
#
# Poissons Ratio (x) = 0.32563 0.27354
# Poissons Ratio (y) = 1.06240 -0.15954
# Poissons Ratio (z) = 0.39225 -0.07012
#
# Static dielectric constant tensor:
#      x y z
#    x 2.163340 0.000000 0.000000 
#    y 0.000000 2.973000 0.000000 
#    z 0.000000 0.000000 1.931400 
# 
# From -- ./inp_files/49085.got.cif
#   From: 2010.05.17/outbox.cif.g08.bks.cpg/sg70_25_cif.got.tgz:49085.got - 2010.06.03 15:57:51.
