data_PCOD9515279
_publ_section_title
;
Structure prediction by ZEFSAII (Michael W. Deem and Ramdas Pophale) SiO2 
 PCOD9515279
Probable space group: F D D D
;
_chemical_formula_sum "Si O2"
_cell_formula_units_Z 160
_cell_length_a 21.079568
_cell_length_b 22.781977
_cell_length_c 14.972476
_cell_angle_alpha 90.000000
_cell_angle_beta 90.000000
_cell_angle_gamma 90.000000
_cell_volume 7190.295533
_symmetry_space_group_name_H-M "F D D D"
_symmetry_group_IT_number 70
_space_group.IT_coordinate_system_code '2'
_symmetry_cell_setting 'orthorhombic'
loop_
_space_group_symop_operation_xyz
x,y,z
1/4-x,1/4-y,z
x,1/4-y,1/4-z
1/4-x,y,1/4-z
-x,-y,-z
3/4+x,3/4+y,-z
-x,3/4+y,3/4+z
3/4+x,-y,3/4+z
x,1/2+y,1/2+z
1/4-x,3/4-y,1/2+z
x,3/4-y,3/4-z
1/4-x,1/2+y,3/4-z
-x,1/2-y,1/2-z
3/4+x,1/4+y,1/2-z
-x,1/4+y,1/4+z
3/4+x,1/2-y,1/4+z
1/2+x,y,1/2+z
3/4-x,1/4-y,1/2+z
1/2+x,1/4-y,3/4-z
3/4-x,y,3/4-z
1/2-x,-y,1/2-z
1/4+x,3/4+y,1/2-z
1/2-x,3/4+y,1/4+z
1/4+x,-y,1/4+z
1/2+x,1/2+y,z
3/4-x,3/4-y,z
1/2+x,3/4-y,1/4-z
3/4-x,1/2+y,1/4-z
1/2-x,1/2-y,-z
1/4+x,1/4+y,-z
1/2-x,1/4+y,3/4+z
1/4+x,1/2-y,3/4+z
loop_
_atom_site_type_symbol
_atom_site_label
_atom_site_fract_x
_atom_site_fract_y
_atom_site_fract_z
Si Si1 0.963340 0.215716 0.826617
Si Si2 0.090594 0.756923 0.998176
Si Si3 0.089684 0.683583 0.398798
Si Si4 0.148215 0.774590 0.530812
Si Si5 0.494977 0.186601 0.650870
O O1 0.897411 0.198456 0.778317
O O2 0.000000 0.250000 0.750000
O O3 0.016155 0.173676 0.871409
O O4 0.942177 0.258075 0.908025
O O5 0.123258 0.705789 0.940382
O O6 0.038250 0.784177 0.934057
O O7 0.125000 0.625000 0.430568
O O8 0.099100 0.737111 0.469717
O O9 0.125000 0.799241 0.625000
O O10 0.186774 0.820039 0.470265
O O11 0.201039 0.726923 0.558878
O O12 0.523486 0.125000 0.625000
#
# Coordination Sequence:
#
# PCOD9515279 Si02
#       5
#    32  32  32  32  32
#     4   9  18  36  58  79 113 156 195 242 308 355
#     4   9  19  38  56  80 121 157 193 253 301 373
#     4  10  21  35  59  93 114 157 209 246 310 371
#     4  10  22  38  59  88 124 158 199 260 306 368
#     4  10  22  39  58  88 119 159 207 248 312 373
#
# _framework density 22.252216000000001
#
# number of rings (size 3 to 8) (size 9 to 14) (size 15 to 20)
#    0.000    2.400    0.000    1.200    5.600    0.000 
#    3.600   14.000    0.000    0.000    0.000    0.000 
#    0.000    0.000    0.000    0.000    0.000    0.000 
#
# Total GULP energy -222954.570137 kJ/mol
# GULP energy per Si atom -5573.864253 kJ/mol
# Density = 2.220157 g / cm^3
# Si number density = 22.252216 Si / 1000 Ang^3
#
#
#
# Elastic Constant Matrix: (Units=GPa)
#
#
# Indices 1 2 3 4 5 6 
#
# 1 89.8454 -2.5647 23.3232 0.0000 0.0000 0.0000
# 2 -2.5647 18.8685 -6.3652 0.0000 0.0000 0.0000
# 3 23.3232 -6.3652 132.8008 0.0000 0.0000 0.0000
# 4 0.0000 0.0000 0.0000 8.6355 0.0000 0.0000
# 5 0.0000 0.0000 0.0000 0.0000 42.2729 0.0000
# 6 0.0000 0.0000 0.0000 0.0000 0.0000 11.5771
#
#
#
# Elastic Compliance Matrix: (Units=1/GPa)
#
#
# Indices 1 2 3 4 5 6 
#
# 1 0.011677 0.000910 -0.002007 0.000000 0.000000 0.000000
# 2 0.000910 0.053940 0.002426 0.000000 0.000000 0.000000
# 3 -0.002007 0.002426 0.007999 0.000000 0.000000 0.000000
# 4 0.000000 0.000000 0.000000 0.115800 0.000000 0.000000
# 5 0.000000 0.000000 0.000000 0.000000 0.023656 0.000000
# 6 0.000000 0.000000 0.000000 0.000000 0.000000 0.086377
#
#
# Mechanical properties :
#
#
# Convention : Reuss Voigt Hill
#
# Bulk Modulus (GPa) = 13.11072 30.03347 21.57209
# Shear Modulus (GPa) = 15.51746 27.63854 21.57800
#
# Velocity S-wave (km/s) = 2.64359 3.52811 3.11738
# Velocity P-wave (km/s) = 3.90164 5.48843 4.76160
#
# Compressibility (1/GPa) = 0.07627347
#
# Stress axis : x y z
#
# Youngs Moduli (GPa) = 85.63646 18.53897 125.01794
#
# Poissons Ratio (x) = -0.01687 0.25094
# Poissons Ratio (y) = -0.07794 -0.30324
# Poissons Ratio (z) = 0.17189 -0.04497
#
# Static dielectric constant tensor:
#      x y z
#    x 1.881090 0.000000 0.000000 
#    y 0.000000 1.781000 0.000000 
#    z 0.000000 0.000000 1.898120 
# 
# From -- ./inp_files/28857.got.cif
#   From: 2010.05.17/outbox.cif.g08.bks.cpg/sg70_15_cif.got.tgz:28857.got - 2010.06.03 15:57:51.
