data_PCOD9515419
_publ_section_title
;
Structure prediction by ZEFSAII (Michael W. Deem and Ramdas Pophale) SiO2 
 PCOD9515419
Probable space group: F D D D
;
_chemical_formula_sum "Si O2"
_cell_formula_units_Z 128
_cell_length_a 8.415308
_cell_length_b 35.404164
_cell_length_c 23.604900
_cell_angle_alpha 90.000000
_cell_angle_beta 90.000000
_cell_angle_gamma 90.000000
_cell_volume 7032.771782
_symmetry_space_group_name_H-M "F D D D"
_symmetry_group_IT_number 70
_space_group.IT_coordinate_system_code '2'
_symmetry_cell_setting 'orthorhombic'
loop_
_space_group_symop_operation_xyz
x,y,z
1/4-x,1/4-y,z
x,1/4-y,1/4-z
1/4-x,y,1/4-z
-x,-y,-z
3/4+x,3/4+y,-z
-x,3/4+y,3/4+z
3/4+x,-y,3/4+z
x,1/2+y,1/2+z
1/4-x,3/4-y,1/2+z
x,3/4-y,3/4-z
1/4-x,1/2+y,3/4-z
-x,1/2-y,1/2-z
3/4+x,1/4+y,1/2-z
-x,1/4+y,1/4+z
3/4+x,1/2-y,1/4+z
1/2+x,y,1/2+z
3/4-x,1/4-y,1/2+z
1/2+x,1/4-y,3/4-z
3/4-x,y,3/4-z
1/2-x,-y,1/2-z
1/4+x,3/4+y,1/2-z
1/2-x,3/4+y,1/4+z
1/4+x,-y,1/4+z
1/2+x,1/2+y,z
3/4-x,3/4-y,z
1/2+x,3/4-y,1/4-z
3/4-x,1/2+y,1/4-z
1/2-x,1/2-y,-z
1/4+x,1/4+y,-z
1/2-x,1/4+y,3/4+z
1/4+x,1/2-y,3/4+z
loop_
_atom_site_type_symbol
_atom_site_label
_atom_site_fract_x
_atom_site_fract_y
_atom_site_fract_z
Si Si1 0.625000 0.125000 0.939809
Si Si2 0.625000 0.423421 0.125000
Si Si3 0.589106 0.443493 0.518797
Si Si4 0.286995 0.012628 0.656959
Si Si5 0.316167 0.274460 0.051469
O O1 0.518663 0.149502 0.898203
O O2 0.501672 0.096512 0.972309
O O3 0.568641 0.447518 0.071831
O O4 0.493553 0.474188 0.557073
O O5 0.582955 0.456529 0.453431
O O6 0.771960 0.451670 0.538402
O O7 0.125000 0.023458 0.625000
O O8 0.402851 0.002389 0.605731
O O9 0.250000 0.250000 0.000000
#
# Coordination Sequence:
#
# PCOD9515419 Si02
#       5
#    16  16  32  32  32
#     4  12  24  38  61  88 128 167 200 256 322 386
#     4  12  24  38  58  94 126 161 204 255 318 372
#     4  10  21  39  59  91 121 163 203 254 314 377
#     4   9  19  37  62  87 120 154 206 256 305 364
#     4  11  22  37  65  93 122 157 210 266 311 365
#
# _framework density 18.200506000000001
#
# number of rings (size 3 to 8) (size 9 to 14) (size 15 to 20)
#    0.000    1.500    2.500    3.000    8.750    0.000 
#    0.000    0.625    0.000    0.000    6.500    0.000 
#    0.000    0.000    0.000    0.000    0.000    0.000 
#
# Total GULP energy -178372.624576 kJ/mol
# GULP energy per Si atom -5574.144518 kJ/mol
# Density = 1.815908 g / cm^3
# Si number density = 18.200506 Si / 1000 Ang^3
#
#
#
# Elastic Constant Matrix: (Units=GPa)
#
#
# Indices 1 2 3 4 5 6 
#
# 1 92.1451 53.8509 44.7627 0.0000 0.0000 0.0000
# 2 53.8509 85.7690 47.0900 0.0000 0.0000 0.0000
# 3 44.7627 47.0900 131.9179 0.0000 0.0000 0.0000
# 4 0.0000 0.0000 0.0000 13.8106 0.0000 0.0000
# 5 0.0000 0.0000 0.0000 0.0000 28.2080 0.0000
# 6 0.0000 0.0000 0.0000 0.0000 0.0000 31.5878
#
#
#
# Elastic Compliance Matrix: (Units=1/GPa)
#
#
# Indices 1 2 3 4 5 6 
#
# 1 0.017807 -0.009780 -0.002551 0.000000 0.000000 0.000000
# 2 -0.009780 0.019872 -0.003775 0.000000 0.000000 0.000000
# 3 -0.002551 -0.003775 0.009794 0.000000 0.000000 0.000000
# 4 0.000000 0.000000 0.000000 0.072408 0.000000 0.000000
# 5 0.000000 0.000000 0.000000 0.000000 0.035451 0.000000
# 6 0.000000 0.000000 0.000000 0.000000 0.000000 0.031658
#
#
# Mechanical properties :
#
#
# Convention : Reuss Voigt Hill
#
# Bulk Modulus (GPa) = 65.52763 66.80435 66.16599
# Shear Modulus (GPa) = 22.29261 25.66317 23.97789
#
# Velocity S-wave (km/s) = 3.50356 3.75910 3.63358
# Velocity P-wave (km/s) = 7.24209 7.45825 7.35097
#
# Compressibility (1/GPa) = 0.01526074
#
# Stress axis : x y z
#
# Youngs Moduli (GPa) = 56.15700 50.32166 102.10497
#
# Poissons Ratio (x) = 0.49213 0.26051
# Poissons Ratio (y) = 0.54919 0.38547
# Poissons Ratio (z) = 0.14328 0.18998
#
# Static dielectric constant tensor:
#      x y z
#    x 1.600830 0.000000 0.000000 
#    y 0.000000 1.637010 0.000000 
#    z 0.000000 0.000000 1.550310 
# 
# From -- ./inp_files/11073.got.cif
#   From: 2010.05.17/outbox.cif.g08.bks.cpg/sg70_6_cif.got.tgz:11073.got - 2010.06.03 15:57:51.
