data_PCOD9515042
_publ_section_title
;
Structure prediction by ZEFSAII (Michael W. Deem and Ramdas Pophale) SiO2 
 PCOD9515042
Probable space group: F D D D
;
_chemical_formula_sum "Si O2"
_cell_formula_units_Z 216
_cell_length_a 23.318364
_cell_length_b 14.176671
_cell_length_c 28.197774
_cell_angle_alpha 90.000000
_cell_angle_beta 90.000000
_cell_angle_gamma 90.000000
_cell_volume 9321.529182
_symmetry_space_group_name_H-M "F D D D"
_symmetry_group_IT_number 70
_space_group.IT_coordinate_system_code '2'
_symmetry_cell_setting 'orthorhombic'
loop_
_space_group_symop_operation_xyz
x,y,z
1/4-x,1/4-y,z
x,1/4-y,1/4-z
1/4-x,y,1/4-z
-x,-y,-z
3/4+x,3/4+y,-z
-x,3/4+y,3/4+z
3/4+x,-y,3/4+z
x,1/2+y,1/2+z
1/4-x,3/4-y,1/2+z
x,3/4-y,3/4-z
1/4-x,1/2+y,3/4-z
-x,1/2-y,1/2-z
3/4+x,1/4+y,1/2-z
-x,1/4+y,1/4+z
3/4+x,1/2-y,1/4+z
1/2+x,y,1/2+z
3/4-x,1/4-y,1/2+z
1/2+x,1/4-y,3/4-z
3/4-x,y,3/4-z
1/2-x,-y,1/2-z
1/4+x,3/4+y,1/2-z
1/2-x,3/4+y,1/4+z
1/4+x,-y,1/4+z
1/2+x,1/2+y,z
3/4-x,3/4-y,z
1/2+x,3/4-y,1/4-z
3/4-x,1/2+y,1/4-z
1/2-x,1/2-y,-z
1/4+x,1/4+y,-z
1/2-x,1/4+y,3/4+z
1/4+x,1/2-y,3/4+z
loop_
_atom_site_type_symbol
_atom_site_label
_atom_site_fract_x
_atom_site_fract_y
_atom_site_fract_z
Si Si1 0.125000 0.625000 0.625000
Si Si2 0.819461 0.739632 0.116164
Si Si3 0.367073 0.033005 0.230733
Si Si4 0.048663 0.522317 0.046646
Si Si5 0.355817 0.754242 0.719608
Si Si6 0.446258 0.716364 0.324107
Si Si7 0.125000 0.946850 0.625000
Si Si8 0.486698 0.668697 0.499655
O O1 0.164076 0.556953 0.655489
O O2 0.812793 0.625000 0.125000
O O3 0.858578 0.760023 0.070609
O O4 0.846537 0.779349 0.164515
O O5 0.758259 0.780492 0.098772
O O6 0.368988 0.144309 0.221581
O O7 0.315418 0.021316 0.267931
O O8 0.430670 0.015831 0.251093
O O9 0.085071 0.511887 0.093303
O O10 0.001513 0.604540 0.045896
O O11 0.092277 0.543234 0.002302
O O12 0.023018 0.417396 0.037612
O O13 0.293086 0.770977 0.741238
O O14 0.412083 0.622700 0.341193
#
# Coordination Sequence:
#
# PCOD9515042 Si02
#       8
#     8  32  32  32  32  32  16  32
#     4  10  24  32  64  98 116 162 216 254 318 386
#     4  10  21  36  61  90 125 164 205 245 321 372
#     4  10  22  39  64  94 128 162 208 262 312 373
#     4  10  21  39  62  93 120 165 214 258 312 365
#     4  10  20  39  61  88 123 172 202 251 313 379
#     4  11  20  38  63  92 126 162 204 263 316 373
#     4  11  20  37  63  95 122 156 212 263 304 366
#     4  10  20  39  65  86 125 167 204 255 312 368
#
# _framework density 23.172163999999999
#
# number of rings (size 3 to 8) (size 9 to 14) (size 15 to 20)
#    0.000    1.778    3.704    1.778    2.074    0.000 
#    0.000   10.370    6.519    0.000    0.000    0.000 
#    0.000    0.000    0.000    0.000    0.000    0.000 
#
# Total GULP energy -301363.824936 kJ/mol
# GULP energy per Si atom -5580.811573 kJ/mol
# Density = 2.311942 g / cm^3
# Si number density = 23.172164 Si / 1000 Ang^3
#
#
#
# Elastic Constant Matrix: (Units=GPa)
#
#
# Indices 1 2 3 4 5 6 
#
# 1 97.8661 15.0408 19.6583 0.0000 0.0000 0.0000
# 2 15.0408 30.3829 -1.4926 0.0000 0.0000 0.0000
# 3 19.6583 -1.4926 96.3096 0.0000 0.0000 0.0000
# 4 0.0000 0.0000 0.0000 17.1618 0.0000 0.0000
# 5 0.0000 0.0000 0.0000 0.0000 34.6606 0.0000
# 6 0.0000 0.0000 0.0000 0.0000 0.0000 27.8959
#
#
#
# Elastic Compliance Matrix: (Units=1/GPa)
#
#
# Indices 1 2 3 4 5 6 
#
# 1 0.011615 -0.005871 -0.002462 0.000000 0.000000 0.000000
# 2 -0.005871 0.035906 0.001755 0.000000 0.000000 0.000000
# 3 -0.002462 0.001755 0.010913 0.000000 0.000000 0.000000
# 4 0.000000 0.000000 0.000000 0.058269 0.000000 0.000000
# 5 0.000000 0.000000 0.000000 0.000000 0.028851 0.000000
# 6 0.000000 0.000000 0.000000 0.000000 0.000000 0.035848
#
#
# Mechanical properties :
#
#
# Convention : Reuss Voigt Hill
#
# Bulk Modulus (GPa) = 22.08581 32.33019 27.20800
# Shear Modulus (GPa) = 23.84937 28.70047 26.27492
#
# Velocity S-wave (km/s) = 3.21163 3.52316 3.37100
# Velocity P-wave (km/s) = 4.82749 5.52564 5.18832
#
# Compressibility (1/GPa) = 0.04527793
#
# Stress axis : x y z
#
# Youngs Moduli (GPa) = 86.09707 27.85068 91.63509
#
# Poissons Ratio (x) = 0.16350 0.22558
# Poissons Ratio (y) = 0.50546 -0.16080
# Poissons Ratio (z) = 0.21195 -0.04887
#
# Static dielectric constant tensor:
#      x y z
#    x 1.852150 0.000000 0.000000 
#    y 0.000000 1.913630 0.000000 
#    z 0.000000 0.000000 1.904870 
# 
# From -- ./inp_files/61805.got.cif
#   From: 2010.05.17/outbox.cif.g08.bks.cpg/sg70_31_cif.got.tgz:61805.got - 2010.06.03 15:57:51.
