data_PCOD9515630
_publ_section_title
;
Structure prediction by ZEFSAII (Michael W. Deem and Ramdas Pophale) SiO2 
 PCOD9515630
Probable space group: F D D D
;
_chemical_formula_sum "Si O2"
_cell_formula_units_Z 192
_cell_length_a 21.391576
_cell_length_b 20.426528
_cell_length_c 19.413199
_cell_angle_alpha 90.000000
_cell_angle_beta 90.000000
_cell_angle_gamma 90.000000
_cell_volume 8482.706524
_symmetry_space_group_name_H-M "F D D D"
_symmetry_group_IT_number 70
_space_group.IT_coordinate_system_code '2'
_symmetry_cell_setting 'orthorhombic'
loop_
_space_group_symop_operation_xyz
x,y,z
1/4-x,1/4-y,z
x,1/4-y,1/4-z
1/4-x,y,1/4-z
-x,-y,-z
3/4+x,3/4+y,-z
-x,3/4+y,3/4+z
3/4+x,-y,3/4+z
x,1/2+y,1/2+z
1/4-x,3/4-y,1/2+z
x,3/4-y,3/4-z
1/4-x,1/2+y,3/4-z
-x,1/2-y,1/2-z
3/4+x,1/4+y,1/2-z
-x,1/4+y,1/4+z
3/4+x,1/2-y,1/4+z
1/2+x,y,1/2+z
3/4-x,1/4-y,1/2+z
1/2+x,1/4-y,3/4-z
3/4-x,y,3/4-z
1/2-x,-y,1/2-z
1/4+x,3/4+y,1/2-z
1/2-x,3/4+y,1/4+z
1/4+x,-y,1/4+z
1/2+x,1/2+y,z
3/4-x,3/4-y,z
1/2+x,3/4-y,1/4-z
3/4-x,1/2+y,1/4-z
1/2-x,1/2-y,-z
1/4+x,1/4+y,-z
1/2-x,1/4+y,3/4+z
1/4+x,1/2-y,3/4+z
loop_
_atom_site_type_symbol
_atom_site_label
_atom_site_fract_x
_atom_site_fract_y
_atom_site_fract_z
Si Si1 0.658799 0.510965 0.260444
Si Si2 0.692042 0.772235 0.715391
Si Si3 0.694787 0.613821 0.473377
Si Si4 0.125000 0.625000 0.838316
Si Si5 0.735712 0.852284 0.949542
Si Si6 0.053090 0.810293 0.185068
Si Si7 0.125000 0.932176 0.125000
O O1 0.609860 0.560125 0.294923
O O2 0.680233 0.451312 0.309050
O O3 0.714017 0.561990 0.243218
O O4 0.643406 0.477446 0.188409
O O5 0.715982 0.705999 0.749496
O O6 0.714600 0.835635 0.756702
O O7 0.615827 0.779163 0.716868
O O8 0.711493 0.772387 0.635347
O O9 0.625000 0.625000 0.503812
O O10 0.680711 0.609177 0.391502
O O11 0.744171 0.672305 0.482722
O O12 0.758976 0.875000 0.875000
O O13 0.074072 0.881993 0.155533
#
# Coordination Sequence:
#
# PCOD9515630 Si02
#       7
#    32  32  32  16  32  32  16
#     4  11  23  38  56  94 129 167 217 256 314 396
#     4  10  21  43  67  93 133 179 217 274 331 397
#     4  10  24  42  68  95 131 168 221 290 330 389
#     4  10  24  37  56  89 130 168 218 268 332 372
#     4  11  23  36  62  90 131 168 213 259 318 388
#     4  10  21  43  66  97 125 178 219 265 345 393
#     4  10  22  37  62  88 131 174 216 262 316 400
#
# _framework density 22.634285999999999
#
# number of rings (size 3 to 8) (size 9 to 14) (size 15 to 20)
#    0.500    1.333    3.333    2.000    7.000    2.000 
#    0.000    1.667    0.000    0.000    0.000    0.000 
#    0.000    0.000    0.000    0.000    0.000    0.000 
#
# Total GULP energy -268023.270463 kJ/mol
# GULP energy per Si atom -5583.818135 kJ/mol
# Density = 2.258277 g / cm^3
# Si number density = 22.634286 Si / 1000 Ang^3
#
#
#
# Elastic Constant Matrix: (Units=GPa)
#
#
# Indices 1 2 3 4 5 6 
#
# 1 60.2978 8.0711 4.8571 0.0000 0.0000 0.0000
# 2 8.0711 107.4266 21.8165 0.0000 0.0000 0.0000
# 3 4.8571 21.8165 42.1974 0.0000 0.0000 0.0000
# 4 0.0000 0.0000 0.0000 43.5858 0.0000 0.0000
# 5 0.0000 0.0000 0.0000 0.0000 19.2342 0.0000
# 6 0.0000 0.0000 0.0000 0.0000 0.0000 30.5570
#
#
#
# Elastic Compliance Matrix: (Units=1/GPa)
#
#
# Indices 1 2 3 4 5 6 
#
# 1 0.016830 -0.000973 -0.001434 0.000000 0.000000 0.000000
# 2 -0.000973 0.010457 -0.005294 0.000000 0.000000 0.000000
# 3 -0.001434 -0.005294 0.026600 0.000000 0.000000 0.000000
# 4 0.000000 0.000000 0.000000 0.022943 0.000000 0.000000
# 5 0.000000 0.000000 0.000000 0.000000 0.051991 0.000000
# 6 0.000000 0.000000 0.000000 0.000000 0.000000 0.032726
#
#
# Mechanical properties :
#
#
# Convention : Reuss Voigt Hill
#
# Bulk Modulus (GPa) = 25.98463 31.04570 28.51517
# Shear Modulus (GPa) = 26.34648 30.35388 28.35018
#
# Velocity S-wave (km/s) = 3.41546 3.66602 3.54295
# Velocity P-wave (km/s) = 5.20182 5.62722 5.41870
#
# Compressibility (1/GPa) = 0.03848428
#
# Stress axis : x y z
#
# Youngs Moduli (GPa) = 59.41726 95.62973 37.59333
#
# Poissons Ratio (x) = 0.09307 0.05391
# Poissons Ratio (y) = 0.05783 0.19903
# Poissons Ratio (z) = 0.08521 0.50630
#
# Static dielectric constant tensor:
#      x y z
#    x 2.019050 0.000000 0.000000 
#    y 0.000000 1.833130 0.000000 
#    z 0.000000 0.000000 1.829840 
# 
# From -- ./inp_files/45982.got.cif
#   From: 2010.05.17/outbox.cif.g08.bks.cpg/sg70_23_cif.got.tgz:45982.got - 2010.06.03 15:57:51.
