data_PCOD9515303
_publ_section_title
;
Structure prediction by ZEFSAII (Michael W. Deem and Ramdas Pophale) SiO2 
 PCOD9515303
Probable space group: F D D D
;
_chemical_formula_sum "Si O2"
_cell_formula_units_Z 112
_cell_length_a 13.239640
_cell_length_b 24.177776
_cell_length_c 14.958595
_cell_angle_alpha 90.000000
_cell_angle_beta 90.000000
_cell_angle_gamma 90.000000
_cell_volume 4788.321804
_symmetry_space_group_name_H-M "F D D D"
_symmetry_group_IT_number 70
_space_group.IT_coordinate_system_code '2'
_symmetry_cell_setting 'orthorhombic'
loop_
_space_group_symop_operation_xyz
x,y,z
1/4-x,1/4-y,z
x,1/4-y,1/4-z
1/4-x,y,1/4-z
-x,-y,-z
3/4+x,3/4+y,-z
-x,3/4+y,3/4+z
3/4+x,-y,3/4+z
x,1/2+y,1/2+z
1/4-x,3/4-y,1/2+z
x,3/4-y,3/4-z
1/4-x,1/2+y,3/4-z
-x,1/2-y,1/2-z
3/4+x,1/4+y,1/2-z
-x,1/4+y,1/4+z
3/4+x,1/2-y,1/4+z
1/2+x,y,1/2+z
3/4-x,1/4-y,1/2+z
1/2+x,1/4-y,3/4-z
3/4-x,y,3/4-z
1/2-x,-y,1/2-z
1/4+x,3/4+y,1/2-z
1/2-x,3/4+y,1/4+z
1/4+x,-y,1/4+z
1/2+x,1/2+y,z
3/4-x,3/4-y,z
1/2+x,3/4-y,1/4-z
3/4-x,1/2+y,1/4-z
1/2-x,1/2-y,-z
1/4+x,1/4+y,-z
1/2-x,1/4+y,3/4+z
1/4+x,1/2-y,3/4+z
loop_
_atom_site_type_symbol
_atom_site_label
_atom_site_fract_x
_atom_site_fract_y
_atom_site_fract_z
Si Si1 0.078508 0.857878 0.278104
Si Si2 0.375000 0.875000 0.027144
Si Si3 0.324162 0.249740 0.280788
Si Si4 0.604047 0.279058 0.729960
O O1 0.030365 0.875000 0.375000
O O2 0.129264 0.798174 0.281688
O O3 0.155193 0.907271 0.260008
O O4 0.993730 0.864448 0.200410
O O5 0.358671 0.937993 0.991389
O O6 0.375000 0.236853 0.375000
O O7 0.202726 0.251554 0.276403
O O8 0.625000 0.276439 0.625000
O O9 0.500000 0.250000 0.750000
#
# Coordination Sequence:
#
# PCOD9515303 Si02
#       4
#    32  16  32  32
#     4  11  22  39  64  96 134 180 226 280 340 405
#     4  10  21  36  60  94 128 162 221 286 329 384
#     4  11  23  41  67  97 131 180 231 279 338 411
#     4  11  25  45  66  98 139 179 226 284 342 406
#
# _framework density 23.390241
#
# number of rings (size 3 to 8) (size 9 to 14) (size 15 to 20)
#    0.000    1.143    0.000    7.714    0.000    5.714 
#    0.000    2.857    0.000    0.000    0.000    0.000 
#    0.000    0.000    0.000    0.000    0.000    0.000 
#
# Total GULP energy -155972.475621 kJ/mol
# GULP energy per Si atom -5570.445558 kJ/mol
# Density = 2.333700 g / cm^3
# Si number density = 23.390241 Si / 1000 Ang^3
#
#
#
# Elastic Constant Matrix: (Units=GPa)
#
#
# Indices 1 2 3 4 5 6 
#
# 1 134.5224 90.3452 30.7983 0.0000 0.0000 0.0000
# 2 90.3452 181.9596 45.4802 0.0000 0.0000 0.0000
# 3 30.7983 45.4802 61.1610 0.0000 0.0000 0.0000
# 4 0.0000 0.0000 0.0000 10.1056 0.0000 0.0000
# 5 0.0000 0.0000 0.0000 0.0000 26.2545 0.0000
# 6 0.0000 0.0000 0.0000 0.0000 0.0000 25.6157
#
#
#
# Elastic Compliance Matrix: (Units=1/GPa)
#
#
# Indices 1 2 3 4 5 6 
#
# 1 0.011324 -0.005155 -0.001869 0.000000 0.000000 0.000000
# 2 -0.005155 0.009097 -0.004169 0.000000 0.000000 0.000000
# 3 -0.001869 -0.004169 0.020391 0.000000 0.000000 0.000000
# 4 0.000000 0.000000 0.000000 0.098956 0.000000 0.000000
# 5 0.000000 0.000000 0.000000 0.000000 0.038089 0.000000
# 6 0.000000 0.000000 0.000000 0.000000 0.000000 0.039039
#
#
# Mechanical properties :
#
#
# Convention : Reuss Voigt Hill
#
# Bulk Modulus (GPa) = 54.26898 78.98783 66.62840
# Shear Modulus (GPa) = 20.37294 26.46311 23.41802
#
# Velocity S-wave (km/s) = 2.95448 3.36724 3.16759
# Velocity P-wave (km/s) = 5.90682 6.99719 6.47499
#
# Compressibility (1/GPa) = 0.01842673
#
# Stress axis : x y z
#
# Youngs Moduli (GPa) = 88.30899 109.92087 49.04041
#
# Poissons Ratio (x) = 0.56668 0.09164
# Poissons Ratio (y) = 0.45527 0.20445
# Poissons Ratio (z) = 0.16502 0.45825
#
# Static dielectric constant tensor:
#      x y z
#    x 1.885150 0.000000 0.000000 
#    y 0.000000 1.852160 0.000000 
#    z 0.000000 0.000000 1.984150 
# 
# From -- ./inp_files/20246.got.cif
#   From: 2010.05.17/outbox.cif.g08.bks.cpg/sg70_11_cif.got.tgz:20246.got - 2010.06.03 15:57:51.
