data_PCOD9515363
_publ_section_title
;
Structure prediction by ZEFSAII (Michael W. Deem and Ramdas Pophale) SiO2 
 PCOD9515363
Probable space group: F D D D
;
_chemical_formula_sum "Si O2"
_cell_formula_units_Z 168
_cell_length_a 18.114278
_cell_length_b 18.785755
_cell_length_c 25.583596
_cell_angle_alpha 90.000000
_cell_angle_beta 90.000000
_cell_angle_gamma 90.000000
_cell_volume 8705.851822
_symmetry_space_group_name_H-M "F D D D"
_symmetry_group_IT_number 70
_space_group.IT_coordinate_system_code '2'
_symmetry_cell_setting 'orthorhombic'
loop_
_space_group_symop_operation_xyz
x,y,z
1/4-x,1/4-y,z
x,1/4-y,1/4-z
1/4-x,y,1/4-z
-x,-y,-z
3/4+x,3/4+y,-z
-x,3/4+y,3/4+z
3/4+x,-y,3/4+z
x,1/2+y,1/2+z
1/4-x,3/4-y,1/2+z
x,3/4-y,3/4-z
1/4-x,1/2+y,3/4-z
-x,1/2-y,1/2-z
3/4+x,1/4+y,1/2-z
-x,1/4+y,1/4+z
3/4+x,1/2-y,1/4+z
1/2+x,y,1/2+z
3/4-x,1/4-y,1/2+z
1/2+x,1/4-y,3/4-z
3/4-x,y,3/4-z
1/2-x,-y,1/2-z
1/4+x,3/4+y,1/2-z
1/2-x,3/4+y,1/4+z
1/4+x,-y,1/4+z
1/2+x,1/2+y,z
3/4-x,3/4-y,z
1/2+x,3/4-y,1/4-z
3/4-x,1/2+y,1/4-z
1/2-x,1/2-y,-z
1/4+x,1/4+y,-z
1/2-x,1/4+y,3/4+z
1/4+x,1/2-y,3/4+z
loop_
_atom_site_type_symbol
_atom_site_label
_atom_site_fract_x
_atom_site_fract_y
_atom_site_fract_z
Si Si1 0.093684 0.808300 0.335920
Si Si2 0.194057 0.178497 0.844091
Si Si3 0.816465 0.152664 0.420005
Si Si4 0.625000 0.625000 0.625000
Si Si5 0.269536 0.491996 0.416741
Si Si6 0.937649 0.663410 0.996470
O O1 0.108031 0.875000 0.375000
O O2 0.162570 0.756234 0.330728
O O3 0.028993 0.763350 0.364060
O O4 0.068159 0.842726 0.281795
O O5 0.125000 0.125000 0.845924
O O6 0.237801 0.179636 0.899211
O O7 0.252667 0.155269 0.799763
O O8 0.875000 0.171766 0.375000
O O9 0.856789 0.177850 0.472431
O O10 0.808766 0.067091 0.422223
O O11 0.673896 0.573383 0.589177
O O12 0.216373 0.475058 0.465159
#
# Coordination Sequence:
#
# PCOD9515363 Si02
#       6
#    32  32  32   8  32  32
#     4  10  21  40  58  86 121 155 197 243 298 350
#     4  11  22  36  61  86 117 161 200 238 296 364
#     4  10  21  38  56  81 121 155 189 245 292 347
#     4  12  20  32  56  84 124 152 192 228 300 372
#     4  11  20  36  56  83 120 157 190 236 298 359
#     4  10  22  36  58  89 120 150 196 245 300 351
#
# _framework density 19.297364999999999
#
# number of rings (size 3 to 8) (size 9 to 14) (size 15 to 20)
#    0.000    1.524    5.714    1.143    1.333    0.762 
#    0.000    3.810    0.000    5.143    0.000    0.000 
#    0.000    0.000    0.000    0.000    0.000    0.000 
#
# Total GULP energy -234358.962290 kJ/mol
# GULP energy per Si atom -5579.975293 kJ/mol
# Density = 1.925344 g / cm^3
# Si number density = 19.297365 Si / 1000 Ang^3
#
#
#
# Elastic Constant Matrix: (Units=GPa)
#
#
# Indices 1 2 3 4 5 6 
#
# 1 93.2053 21.1926 42.6278 0.0000 0.0000 0.0000
# 2 21.1926 49.8550 -2.6983 0.0000 0.0000 0.0000
# 3 42.6278 -2.6983 77.5554 0.0000 0.0000 0.0000
# 4 0.0000 0.0000 0.0000 0.1630 0.0000 0.0000
# 5 0.0000 0.0000 0.0000 0.0000 36.0088 0.0000
# 6 0.0000 0.0000 0.0000 0.0000 0.0000 32.2664
#
#
#
# Elastic Compliance Matrix: (Units=1/GPa)
#
#
# Indices 1 2 3 4 5 6 
#
# 1 0.016823 -0.007666 -0.009513 0.000000 0.000000 0.000000
# 2 -0.007666 0.023589 0.005034 0.000000 0.000000 0.000000
# 3 -0.009513 0.005034 0.018298 0.000000 0.000000 0.000000
# 4 0.000000 0.000000 0.000000 6.136649 0.000000 0.000000
# 5 0.000000 0.000000 0.000000 0.000000 0.027771 0.000000
# 6 0.000000 0.000000 0.000000 0.000000 0.000000 0.030992
#
#
# Mechanical properties :
#
#
# Convention : Reuss Voigt Hill
#
# Bulk Modulus (GPa) = 29.05265 38.09556 33.57410
# Shear Modulus (GPa) = 0.79493 24.32052 12.55773
#
# Velocity S-wave (km/s) = 0.64252 3.55393 2.55374
# Velocity P-wave (km/s) = 3.95454 6.05183 5.11190
#
# Compressibility (1/GPa) = 0.03442027
#
# Stress axis : x y z
#
# Youngs Moduli (GPa) = 59.44197 42.39188 54.65022
#
# Poissons Ratio (x) = 0.32498 0.51991
# Poissons Ratio (y) = 0.45569 -0.27513
# Poissons Ratio (z) = 0.56550 -0.21342
#
# Static dielectric constant tensor:
#      x y z
#    x 1.703540 0.000000 0.000000 
#    y 0.000000 1.664940 0.000000 
#    z 0.000000 0.000000 1.710830 
# 
# From -- ./inp_files/29857.got.cif
#   From: 2010.05.17/outbox.cif.g08.bks.cpg/sg70_15_cif.got.tgz:29857.got - 2010.06.03 15:57:51.
