data_PCOD9515284
_publ_section_title
;
Structure prediction by ZEFSAII (Michael W. Deem and Ramdas Pophale) SiO2 
 PCOD9515284
Probable space group: F D D D
;
_chemical_formula_sum "Si O2"
_cell_formula_units_Z 160
_cell_length_a 14.749272
_cell_length_b 14.176679
_cell_length_c 27.161951
_cell_angle_alpha 90.000000
_cell_angle_beta 90.000000
_cell_angle_gamma 90.000000
_cell_volume 5679.447012
_symmetry_space_group_name_H-M "F D D D"
_symmetry_group_IT_number 70
_space_group.IT_coordinate_system_code '2'
_symmetry_cell_setting 'orthorhombic'
loop_
_space_group_symop_operation_xyz
x,y,z
1/4-x,1/4-y,z
x,1/4-y,1/4-z
1/4-x,y,1/4-z
-x,-y,-z
3/4+x,3/4+y,-z
-x,3/4+y,3/4+z
3/4+x,-y,3/4+z
x,1/2+y,1/2+z
1/4-x,3/4-y,1/2+z
x,3/4-y,3/4-z
1/4-x,1/2+y,3/4-z
-x,1/2-y,1/2-z
3/4+x,1/4+y,1/2-z
-x,1/4+y,1/4+z
3/4+x,1/2-y,1/4+z
1/2+x,y,1/2+z
3/4-x,1/4-y,1/2+z
1/2+x,1/4-y,3/4-z
3/4-x,y,3/4-z
1/2-x,-y,1/2-z
1/4+x,3/4+y,1/2-z
1/2-x,3/4+y,1/4+z
1/4+x,-y,1/4+z
1/2+x,1/2+y,z
3/4-x,3/4-y,z
1/2+x,3/4-y,1/4-z
3/4-x,1/2+y,1/4-z
1/2-x,1/2-y,-z
1/4+x,1/4+y,-z
1/2-x,1/4+y,3/4+z
1/4+x,1/2-y,3/4+z
loop_
_atom_site_type_symbol
_atom_site_label
_atom_site_fract_x
_atom_site_fract_y
_atom_site_fract_z
Si Si1 0.966074 0.488348 0.811529
Si Si2 0.405251 0.511806 0.769679
Si Si3 0.487960 0.761564 0.821989
Si Si4 0.230275 0.301812 0.933151
Si Si5 0.940277 0.979958 0.165568
O O1 0.861167 0.509437 0.799713
O O2 0.978643 0.507557 0.869289
O O3 0.990473 0.375534 0.810676
O O4 0.028340 0.537649 0.770709
O O5 0.335914 0.466491 0.808174
O O6 0.331195 0.548625 0.731522
O O7 0.479347 0.567071 0.802953
O O8 0.589159 0.721705 0.813114
O O9 0.195205 0.223765 0.893606
O O10 0.217011 0.410251 0.919180
#
# Coordination Sequence:
#
# PCOD9515284 Si02
#       5
#    32  32  32  32  32
#     4   9  16  31  51  81 104 138 177 230 280 310
#     4  11  20  30  54  83 104 145 177 217 283 334
#     4   9  16  30  54  75 108 135 177 238 273 303
#     4  10  21  36  50  84 117 135 179 234 275 323
#     4  11  19  35  57  81 108 141 180 240 273 315
#
# _framework density 28.171756999999999
#
# number of rings (size 3 to 8) (size 9 to 14) (size 15 to 20)
#    0.000    2.000    4.000    3.600    0.000    2.400 
#    0.000    0.000    0.000    0.000   62.400    0.000 
#    0.000    0.000    0.000    0.000    0.000    0.000 
#
# Total GULP energy -223268.370567 kJ/mol
# GULP energy per Si atom -5581.709264 kJ/mol
# Density = 2.810764 g / cm^3
# Si number density = 28.171757 Si / 1000 Ang^3
#
#
#
# Elastic Constant Matrix: (Units=GPa)
#
#
# Indices 1 2 3 4 5 6 
#
# 1 319.4368 72.5353 42.0705 0.0000 0.0000 0.0000
# 2 72.5353 54.2138 25.0575 0.0000 0.0000 0.0000
# 3 42.0705 25.0575 118.2829 0.0000 0.0000 0.0000
# 4 0.0000 0.0000 0.0000 8.2354 0.0000 0.0000
# 5 0.0000 0.0000 0.0000 0.0000 55.9314 0.0000
# 6 0.0000 0.0000 0.0000 0.0000 0.0000 58.5457
#
#
#
# Elastic Compliance Matrix: (Units=1/GPa)
#
#
# Indices 1 2 3 4 5 6 
#
# 1 0.004511 -0.005868 -0.000361 0.000000 0.000000 0.000000
# 2 -0.005868 0.028081 -0.003862 0.000000 0.000000 0.000000
# 3 -0.000361 -0.003862 0.009401 0.000000 0.000000 0.000000
# 4 0.000000 0.000000 0.000000 0.121427 0.000000 0.000000
# 5 0.000000 0.000000 0.000000 0.000000 0.017879 0.000000
# 6 0.000000 0.000000 0.000000 0.000000 0.000000 0.017081
#
#
# Mechanical properties :
#
#
# Convention : Reuss Voigt Hill
#
# Bulk Modulus (GPa) = 45.84849 85.69557 65.77203
# Shear Modulus (GPa) = 22.14042 48.02716 35.08379
#
# Velocity S-wave (km/s) = 2.80645 4.13340 3.53278
# Velocity P-wave (km/s) = 5.17798 7.29829 6.32758
#
# Compressibility (1/GPa) = 0.02181097
#
# Stress axis : x y z
#
# Youngs Moduli (GPa) = 221.70384 35.61078 106.37304
#
# Poissons Ratio (x) = 0.20896 0.03842
# Poissons Ratio (y) = 1.30094 0.41079
# Poissons Ratio (z) = 0.08008 0.13752
#
# Static dielectric constant tensor:
#      x y z
#    x 2.096980 0.000000 0.000000 
#    y 0.000000 2.494350 0.000000 
#    z 0.000000 0.000000 2.304180 
# 
# From -- ./inp_files/51292.got.cif
#   From: 2010.05.17/outbox.cif.g08.bks.cpg/sg70_26_cif.got.tgz:51292.got - 2010.06.03 15:57:51.
