data_PCOD9515560
_publ_section_title
;
Structure prediction by ZEFSAII (Michael W. Deem and Ramdas Pophale) SiO2 
 PCOD9515560
Probable space group: F D D D
;
_chemical_formula_sum "Si O2"
_cell_formula_units_Z 128
_cell_length_a 14.083300
_cell_length_b 25.350311
_cell_length_c 13.728540
_cell_angle_alpha 90.000000
_cell_angle_beta 90.000000
_cell_angle_gamma 90.000000
_cell_volume 4901.308916
_symmetry_space_group_name_H-M "F D D D"
_symmetry_group_IT_number 70
_space_group.IT_coordinate_system_code '2'
_symmetry_cell_setting 'orthorhombic'
loop_
_space_group_symop_operation_xyz
x,y,z
1/4-x,1/4-y,z
x,1/4-y,1/4-z
1/4-x,y,1/4-z
-x,-y,-z
3/4+x,3/4+y,-z
-x,3/4+y,3/4+z
3/4+x,-y,3/4+z
x,1/2+y,1/2+z
1/4-x,3/4-y,1/2+z
x,3/4-y,3/4-z
1/4-x,1/2+y,3/4-z
-x,1/2-y,1/2-z
3/4+x,1/4+y,1/2-z
-x,1/4+y,1/4+z
3/4+x,1/2-y,1/4+z
1/2+x,y,1/2+z
3/4-x,1/4-y,1/2+z
1/2+x,1/4-y,3/4-z
3/4-x,y,3/4-z
1/2-x,-y,1/2-z
1/4+x,3/4+y,1/2-z
1/2-x,3/4+y,1/4+z
1/4+x,-y,1/4+z
1/2+x,1/2+y,z
3/4-x,3/4-y,z
1/2+x,3/4-y,1/4-z
3/4-x,1/2+y,1/4-z
1/2-x,1/2-y,-z
1/4+x,1/4+y,-z
1/2-x,1/4+y,3/4+z
1/4+x,1/2-y,3/4+z
loop_
_atom_site_type_symbol
_atom_site_label
_atom_site_fract_x
_atom_site_fract_y
_atom_site_fract_z
Si Si1 0.125000 0.756817 0.125000
Si Si2 0.303906 0.419995 0.755580
Si Si3 0.875000 0.515900 0.375000
Si Si4 0.663564 0.029979 0.334509
Si Si5 0.845640 0.670595 0.691377
O O1 0.224516 0.789457 0.113985
O O2 0.114813 0.720278 0.221226
O O3 0.375000 0.375000 0.785369
O O4 0.311126 0.474262 0.816569
O O5 0.346078 0.434957 0.650534
O O6 0.198433 0.399520 0.773370
O O7 0.820618 0.550706 0.455726
O O8 0.648722 0.969543 0.367834
O O9 0.798515 0.625000 0.625000
#
# Coordination Sequence:
#
# PCOD9515560 Si02
#       5
#    16  32  16  32  32
#     4  10  24  47  69  98 140 200 240 289 365 436
#     4  11  24  41  72 108 139 184 240 307 362 429
#     4  10  21  41  68  94 146 180 225 293 358 424
#     4  10  24  45  74 100 145 193 241 299 363 431
#     4  11  25  41  69 109 140 189 239 301 365 432
#
# _framework density 26.115473000000001
#
# number of rings (size 3 to 8) (size 9 to 14) (size 15 to 20)
#    0.000    1.500    0.000    4.875   17.500    1.000 
#    4.500    1.250    0.000    0.000    0.000    0.000 
#    0.000    0.000    0.000    0.000    0.000    0.000 
#
# Total GULP energy -178484.043178 kJ/mol
# GULP energy per Si atom -5577.626349 kJ/mol
# Density = 2.605603 g / cm^3
# Si number density = 26.115473 Si / 1000 Ang^3
#
#
#
# Elastic Constant Matrix: (Units=GPa)
#
#
# Indices 1 2 3 4 5 6 
#
# 1 123.7391 5.0829 32.8332 0.0000 0.0000 0.0000
# 2 5.0829 118.1623 66.1544 0.0000 0.0000 0.0000
# 3 32.8332 66.1544 241.3566 0.0000 0.0000 0.0000
# 4 0.0000 0.0000 0.0000 12.7756 0.0000 0.0000
# 5 0.0000 0.0000 0.0000 0.0000 41.4149 0.0000
# 6 0.0000 0.0000 0.0000 0.0000 0.0000 8.4966
#
#
#
# Elastic Compliance Matrix: (Units=1/GPa)
#
#
# Indices 1 2 3 4 5 6 
#
# 1 0.008395 0.000329 -0.001232 0.000000 0.000000 0.000000
# 2 0.000329 0.010010 -0.002788 0.000000 0.000000 0.000000
# 3 -0.001232 -0.002788 0.005075 0.000000 0.000000 0.000000
# 4 0.000000 0.000000 0.000000 0.078274 0.000000 0.000000
# 5 0.000000 0.000000 0.000000 0.000000 0.024146 0.000000
# 6 0.000000 0.000000 0.000000 0.000000 0.000000 0.117694
#
#
# Mechanical properties :
#
#
# Convention : Reuss Voigt Hill
#
# Bulk Modulus (GPa) = 62.12566 76.82210 69.47388
# Shear Modulus (GPa) = 19.50511 37.81661 28.66086
#
# Velocity S-wave (km/s) = 2.73587 3.80946 3.31640
# Velocity P-wave (km/s) = 5.81554 6.98781 6.42845
#
# Compressibility (1/GPa) = 0.01609641
#
# Stress axis : x y z
#
# Youngs Moduli (GPa) = 119.11926 99.90119 197.03914
#
# Poissons Ratio (x) = -0.03284 0.24277
# Poissons Ratio (y) = -0.03915 0.54942
# Poissons Ratio (z) = 0.14677 0.27856
#
# Static dielectric constant tensor:
#      x y z
#    x 2.196660 0.000000 0.000000 
#    y 0.000000 1.865730 0.000000 
#    z 0.000000 0.000000 2.176960 
# 
# From -- ./inp_files/26406.got.cif
#   From: 2010.05.17/outbox.cif.g08.bks.cpg/sg70_14_cif.got.tgz:26406.got - 2010.06.03 15:57:51.
