data_PCOD9515142
_publ_section_title
;
Structure prediction by ZEFSAII (Michael W. Deem and Ramdas Pophale) SiO2 
 PCOD9515142
Probable space group: F D D D
;
_chemical_formula_sum "Si O2"
_cell_formula_units_Z 96
_cell_length_a 7.993470
_cell_length_b 17.750238
_cell_length_c 25.667703
_cell_angle_alpha 90.000000
_cell_angle_beta 90.000000
_cell_angle_gamma 90.000000
_cell_volume 3641.887578
_symmetry_space_group_name_H-M "F D D D"
_symmetry_group_IT_number 70
_space_group.IT_coordinate_system_code '2'
_symmetry_cell_setting 'orthorhombic'
loop_
_space_group_symop_operation_xyz
x,y,z
1/4-x,1/4-y,z
x,1/4-y,1/4-z
1/4-x,y,1/4-z
-x,-y,-z
3/4+x,3/4+y,-z
-x,3/4+y,3/4+z
3/4+x,-y,3/4+z
x,1/2+y,1/2+z
1/4-x,3/4-y,1/2+z
x,3/4-y,3/4-z
1/4-x,1/2+y,3/4-z
-x,1/2-y,1/2-z
3/4+x,1/4+y,1/2-z
-x,1/4+y,1/4+z
3/4+x,1/2-y,1/4+z
1/2+x,y,1/2+z
3/4-x,1/4-y,1/2+z
1/2+x,1/4-y,3/4-z
3/4-x,y,3/4-z
1/2-x,-y,1/2-z
1/4+x,3/4+y,1/2-z
1/2-x,3/4+y,1/4+z
1/4+x,-y,1/4+z
1/2+x,1/2+y,z
3/4-x,3/4-y,z
1/2+x,3/4-y,1/4-z
3/4-x,1/2+y,1/4-z
1/2-x,1/2-y,-z
1/4+x,1/4+y,-z
1/2-x,1/4+y,3/4+z
1/4+x,1/2-y,3/4+z
loop_
_atom_site_type_symbol
_atom_site_label
_atom_site_fract_x
_atom_site_fract_y
_atom_site_fract_z
Si Si1 0.125000 0.491863 0.125000
Si Si2 0.669480 0.235413 0.565396
Si Si3 0.625000 0.625000 0.903143
Si Si4 0.007907 0.690472 0.019520
O O1 0.280764 0.436702 0.129790
O O2 0.144910 0.535590 0.071786
O O3 0.625000 0.217050 0.625000
O O4 0.744251 0.321954 0.566453
O O5 0.521202 0.244449 0.523685
O O6 0.818707 0.182810 0.543739
O O7 0.125000 0.625000 0.997390
#
# Coordination Sequence:
#
# PCOD9515142 Si02
#       4
#    16  32  16  32
#     4  10  21  42  70 100 149 184 238 300 360 444
#     4  10  22  43  74 103 141 194 246 306 356 449
#     4  10  20  40  72 100 133 187 252 290 344 446
#     4  10  23  43  69 109 145 187 239 306 382 429
#
# _framework density 26.359959
#
# number of rings (size 3 to 8) (size 9 to 14) (size 15 to 20)
#    0.000    2.000    1.667    0.500    2.333    0.000 
#    0.000   43.333    7.333    0.000    0.000    0.000 
#    0.000    0.000    0.000    0.000    0.000    0.000 
#
# Total GULP energy -134083.764893 kJ/mol
# GULP energy per Si atom -5586.823537 kJ/mol
# Density = 2.629996 g / cm^3
# Si number density = 26.359959 Si / 1000 Ang^3
#
#
#
# Elastic Constant Matrix: (Units=GPa)
#
#
# Indices 1 2 3 4 5 6 
#
# 1 58.8339 29.4758 37.1855 0.0000 0.0000 0.0000
# 2 29.4758 93.7956 18.0643 0.0000 0.0000 0.0000
# 3 37.1855 18.0643 191.0833 0.0000 0.0000 0.0000
# 4 0.0000 0.0000 0.0000 13.1752 0.0000 0.0000
# 5 0.0000 0.0000 0.0000 0.0000 41.2170 0.0000
# 6 0.0000 0.0000 0.0000 0.0000 0.0000 22.6974
#
#
#
# Elastic Compliance Matrix: (Units=1/GPa)
#
#
# Indices 1 2 3 4 5 6 
#
# 1 0.022584 -0.006367 -0.003793 0.000000 0.000000 0.000000
# 2 -0.006367 0.012654 0.000043 0.000000 0.000000 0.000000
# 3 -0.003793 0.000043 0.005967 0.000000 0.000000 0.000000
# 4 0.000000 0.000000 0.000000 0.075900 0.000000 0.000000
# 5 0.000000 0.000000 0.000000 0.000000 0.024262 0.000000
# 6 0.000000 0.000000 0.000000 0.000000 0.000000 0.044058
#
#
# Mechanical properties :
#
#
# Convention : Reuss Voigt Hill
#
# Bulk Modulus (GPa) = 47.68378 57.01823 52.35100
# Shear Modulus (GPa) = 23.51283 32.68374 28.09829
#
# Velocity S-wave (km/s) = 2.98986 3.52504 3.26842
# Velocity P-wave (km/s) = 5.48158 6.18429 5.84351
#
# Compressibility (1/GPa) = 0.02097149
#
# Stress axis : x y z
#
# Youngs Moduli (GPa) = 44.27902 79.02629 167.57647
#
# Poissons Ratio (x) = 0.50313 0.63563
# Poissons Ratio (y) = 0.28191 -0.00716
# Poissons Ratio (z) = 0.16795 -0.00338
#
# Static dielectric constant tensor:
#      x y z
#    x 2.352030 0.000000 0.000000 
#    y 0.000000 2.116450 0.000000 
#    z 0.000000 0.000000 2.111560 
# 
# From -- ./inp_files/41120.got.cif
#   From: 2010.05.17/outbox.cif.g08.bks.cpg/sg70_21_cif.got.tgz:41120.got - 2010.06.03 15:57:51.
