data_PCOD9515321
_publ_section_title
;
Structure prediction by ZEFSAII (Michael W. Deem and Ramdas Pophale) SiO2 
 PCOD9515321
Probable space group: F D D D
;
_chemical_formula_sum "Si O2"
_cell_formula_units_Z 160
_cell_length_a 26.710243
_cell_length_b 32.437854
_cell_length_c 7.052620
_cell_angle_alpha 90.000000
_cell_angle_beta 90.000000
_cell_angle_gamma 90.000000
_cell_volume 6110.551915
_symmetry_space_group_name_H-M "F D D D"
_symmetry_group_IT_number 70
_space_group.IT_coordinate_system_code '2'
_symmetry_cell_setting 'orthorhombic'
loop_
_space_group_symop_operation_xyz
x,y,z
1/4-x,1/4-y,z
x,1/4-y,1/4-z
1/4-x,y,1/4-z
-x,-y,-z
3/4+x,3/4+y,-z
-x,3/4+y,3/4+z
3/4+x,-y,3/4+z
x,1/2+y,1/2+z
1/4-x,3/4-y,1/2+z
x,3/4-y,3/4-z
1/4-x,1/2+y,3/4-z
-x,1/2-y,1/2-z
3/4+x,1/4+y,1/2-z
-x,1/4+y,1/4+z
3/4+x,1/2-y,1/4+z
1/2+x,y,1/2+z
3/4-x,1/4-y,1/2+z
1/2+x,1/4-y,3/4-z
3/4-x,y,3/4-z
1/2-x,-y,1/2-z
1/4+x,3/4+y,1/2-z
1/2-x,3/4+y,1/4+z
1/4+x,-y,1/4+z
1/2+x,1/2+y,z
3/4-x,3/4-y,z
1/2+x,3/4-y,1/4-z
3/4-x,1/2+y,1/4-z
1/2-x,1/2-y,-z
1/4+x,1/4+y,-z
1/2-x,1/4+y,3/4+z
1/4+x,1/2-y,3/4+z
loop_
_atom_site_type_symbol
_atom_site_label
_atom_site_fract_x
_atom_site_fract_y
_atom_site_fract_z
Si Si1 0.886131 0.434486 0.600214
Si Si2 0.982538 0.205176 0.958363
Si Si3 0.572316 0.491755 0.358357
Si Si4 0.362039 0.576503 0.597823
Si Si5 0.792721 0.880041 0.103151
O O1 0.875000 0.429683 0.375000
O O2 0.871902 0.480894 0.642734
O O3 0.840323 0.406603 0.674798
O O4 0.939884 0.416184 0.658278
O O5 0.955116 0.233532 0.805809
O O6 0.033300 0.230113 0.011229
O O7 0.997428 0.161227 0.857370
O O8 0.943557 0.192461 0.120024
O O9 0.594106 0.447969 0.293224
O O10 0.361742 0.625000 0.625000
O O11 0.375000 0.570305 0.375000
O O12 0.789889 0.875000 0.875000
#
# Coordination Sequence:
#
# PCOD9515321 Si02
#       5
#    32  32  32  32  32
#     4   8  14  25  45  74 104 133 167 216 269 310
#     4   9  17  32  54  76 104 143 182 219 271 336
#     4   9  18  32  51  77 106 140 180 220 272 331
#     4  10  21  37  56  78 109 150 187 227 279 332
#     4   8  13  24  46  75 103 131 169 217 267 314
#
# _framework density 26.184211999999999
#
# number of rings (size 3 to 8) (size 9 to 14) (size 15 to 20)
#    0.000    3.200    0.000    1.800    0.000    0.800 
#    0.000    4.000    0.000   13.200    0.000   68.600 
#    0.000    0.000    0.000    0.000    0.000    0.000 
#
# Total GULP energy -222872.349698 kJ/mol
# GULP energy per Si atom -5571.808742 kJ/mol
# Density = 2.612462 g / cm^3
# Si number density = 26.184212 Si / 1000 Ang^3
#
#
#
# Elastic Constant Matrix: (Units=GPa)
#
#
# Indices 1 2 3 4 5 6 
#
# 1 123.9479 73.0935 10.6747 0.0265 0.0836 0.1542
# 2 73.0935 163.1244 -0.2867 -0.0067 0.0788 0.1672
# 3 10.6747 -0.2867 76.1443 -0.0254 0.0985 0.0541
# 4 0.0265 -0.0067 -0.0254 7.9102 -0.0079 -0.0776
# 5 0.0836 0.0788 0.0985 -0.0079 18.5218 -0.1383
# 6 0.1542 0.1672 0.0541 -0.0776 -0.1383 41.1758
#
#
#
# Elastic Compliance Matrix: (Units=1/GPa)
#
#
# Indices 1 2 3 4 5 6 
#
# 1 0.011153 -0.005000 -0.001582 -0.000047 -0.000021 -0.000020
# 2 -0.005000 0.008372 0.000733 0.000026 -0.000017 -0.000016
# 3 -0.001582 0.000733 0.013358 0.000049 -0.000067 -0.000015
# 4 -0.000047 0.000026 0.000049 0.126422 0.000055 0.000238
# 5 -0.000021 -0.000017 -0.000067 0.000055 0.053992 0.000182
# 6 -0.000020 -0.000016 -0.000015 0.000238 0.000182 0.024287
#
#
# Mechanical properties :
#
#
# Convention : Reuss Voigt Hill
#
# Bulk Modulus (GPa) = 47.20830 58.90883 53.05857
# Shear Modulus (GPa) = 19.50492 32.17056 25.83774
#
# Velocity S-wave (km/s) = 2.73227 3.50898 3.14469
# Velocity P-wave (km/s) = 5.29360 6.24211 5.78732
#
# Compressibility (1/GPa) = 0.02118271
#
# Stress axis : x y z
#
# Youngs Moduli (GPa) = 89.66277 119.44419 74.86343
#
# Poissons Ratio (x) = 0.59724 0.11846
# Poissons Ratio (y) = 0.44833 -0.05484
# Poissons Ratio (z) = 0.14188 -0.08750
#
# Static dielectric constant tensor:
#      x y z
#    x 2.120760 0.000030 0.000040 
#    y 0.000030 2.137800 -0.000080 
#    z 0.000040 -0.000080 2.092660 
# 
# From -- ./inp_files/21097.got.cif
#   From: 2010.05.17/outbox.cif.g08.bks.cpg/sg70_11_cif.got.tgz:21097.got - 2010.06.03 15:57:51.
