data_PCOD9515302
_publ_section_title
;
Structure prediction by ZEFSAII (Michael W. Deem and Ramdas Pophale) SiO2 
 PCOD9515302
Probable space group: F D D D
;
_chemical_formula_sum "Si O2"
_cell_formula_units_Z 216
_cell_length_a 14.902698
_cell_length_b 21.277665
_cell_length_c 26.507293
_cell_angle_alpha 90.000000
_cell_angle_beta 90.000000
_cell_angle_gamma 90.000000
_cell_volume 8405.319885
_symmetry_space_group_name_H-M "F D D D"
_symmetry_group_IT_number 70
_space_group.IT_coordinate_system_code '2'
_symmetry_cell_setting 'orthorhombic'
loop_
_space_group_symop_operation_xyz
x,y,z
1/4-x,1/4-y,z
x,1/4-y,1/4-z
1/4-x,y,1/4-z
-x,-y,-z
3/4+x,3/4+y,-z
-x,3/4+y,3/4+z
3/4+x,-y,3/4+z
x,1/2+y,1/2+z
1/4-x,3/4-y,1/2+z
x,3/4-y,3/4-z
1/4-x,1/2+y,3/4-z
-x,1/2-y,1/2-z
3/4+x,1/4+y,1/2-z
-x,1/4+y,1/4+z
3/4+x,1/2-y,1/4+z
1/2+x,y,1/2+z
3/4-x,1/4-y,1/2+z
1/2+x,1/4-y,3/4-z
3/4-x,y,3/4-z
1/2-x,-y,1/2-z
1/4+x,3/4+y,1/2-z
1/2-x,3/4+y,1/4+z
1/4+x,-y,1/4+z
1/2+x,1/2+y,z
3/4-x,3/4-y,z
1/2+x,3/4-y,1/4-z
3/4-x,1/2+y,1/4-z
1/2-x,1/2-y,-z
1/4+x,1/4+y,-z
1/2-x,1/4+y,3/4+z
1/4+x,1/2-y,3/4+z
loop_
_atom_site_type_symbol
_atom_site_label
_atom_site_fract_x
_atom_site_fract_y
_atom_site_fract_z
Si Si1 0.749021 0.454773 0.068764
Si Si2 0.220787 0.461602 0.393406
Si Si3 0.875000 0.375000 0.875000
Si Si4 0.958749 0.560701 0.025427
Si Si5 0.728940 0.937791 0.845505
Si Si6 0.674017 0.913953 0.741831
Si Si7 0.625000 0.125000 0.268830
Si Si8 0.026912 0.346652 0.605760
O O1 0.747861 0.506797 0.113945
O O2 0.661767 0.455052 0.031272
O O3 0.844468 0.444288 0.041990
O O4 0.752119 0.386804 0.096411
O O5 0.310698 0.423571 0.404250
O O6 0.209597 0.452484 0.334116
O O7 0.128894 0.434345 0.413756
O O8 0.224389 0.534234 0.406810
O O9 0.867409 0.595051 0.007969
O O10 0.000000 0.500000 0.000000
O O11 0.034949 0.610270 0.010559
O O12 0.758536 0.875000 0.875000
O O13 0.745280 0.938438 0.784662
O O14 0.724011 0.894768 0.690297
O O15 0.125000 0.324817 0.625000
#
# Coordination Sequence:
#
# PCOD9515302 Si02
#       8
#    32  32   8  32  32  32  16  32
#     4  10  22  41  64  91 126 173 223 280 327 386
#     4  12  22  38  58  93 133 173 203 255 323 397
#     4  12  22  32  56  92 132 164 192 244 324 390
#     4  11  20  34  57  87 127 162 203 248 315 388
#     4  12  24  41  61  93 139 170 221 278 335 400
#     4  10  23  42  63  94 124 177 220 278 335 391
#     4  10  21  36  60  91 124 168 207 246 310 389
#     4  10  21  41  66  90 122 170 228 273 321 396
#
# _framework density 25.698011000000001
#
# number of rings (size 3 to 8) (size 9 to 14) (size 15 to 20)
#    0.000    1.185    2.963    4.889    0.000    2.963 
#    0.000    0.000    0.000    5.778    0.000    0.000 
#    0.000    0.000    0.000    0.000    0.000    0.000 
#
# Total GULP energy -301056.942885 kJ/mol
# GULP energy per Si atom -5575.128572 kJ/mol
# Density = 2.563952 g / cm^3
# Si number density = 25.698011 Si / 1000 Ang^3
#
#
#
# Elastic Constant Matrix: (Units=GPa)
#
#
# Indices 1 2 3 4 5 6 
#
# 1 26.8581 1.7658 -4.4849 0.0000 0.0000 0.0000
# 2 1.7658 111.0282 7.8415 0.0000 0.0000 0.0000
# 3 -4.4849 7.8415 97.2389 0.0000 0.0000 0.0000
# 4 0.0000 0.0000 0.0000 31.5344 0.0000 0.0000
# 5 0.0000 0.0000 0.0000 0.0000 22.9600 0.0000
# 6 0.0000 0.0000 0.0000 0.0000 0.0000 10.6760
#
#
#
# Elastic Compliance Matrix: (Units=1/GPa)
#
#
# Indices 1 2 3 4 5 6 
#
# 1 0.037579 -0.000724 0.001792 0.000000 0.000000 0.000000
# 2 -0.000724 0.009072 -0.000765 0.000000 0.000000 0.000000
# 3 0.001792 -0.000765 0.010428 0.000000 0.000000 0.000000
# 4 0.000000 0.000000 0.000000 0.031711 0.000000 0.000000
# 5 0.000000 0.000000 0.000000 0.000000 0.043554 0.000000
# 6 0.000000 0.000000 0.000000 0.000000 0.000000 0.093668
#
#
# Mechanical properties :
#
#
# Convention : Reuss Voigt Hill
#
# Bulk Modulus (GPa) = 17.33557 27.26335 22.29946
# Shear Modulus (GPa) = 20.43848 28.36762 24.40305
#
# Velocity S-wave (km/s) = 2.82322 3.32608 3.08491
# Velocity P-wave (km/s) = 4.16989 5.03811 4.62442
#
# Compressibility (1/GPa) = 0.05768486
#
# Stress axis : x y z
#
# Youngs Moduli (GPa) = 26.61029 110.22602 95.89315
#
# Poissons Ratio (x) = 0.07983 -0.17181
# Poissons Ratio (y) = 0.01927 0.07336
# Poissons Ratio (z) = -0.04768 0.08432
#
# Static dielectric constant tensor:
#      x y z
#    x 2.223040 0.000000 0.000000 
#    y 0.000000 2.290990 0.000000 
#    z 0.000000 0.000000 3.146040 
# 
# From -- ./inp_files/60520.got.cif
#   From: 2010.05.17/outbox.cif.g08.bks.cpg/sg70_31_cif.got.tgz:60520.got - 2010.06.03 15:57:51.
