data_PCOD9515950
_publ_section_title
;
Structure prediction by ZEFSAII (Michael W. Deem and Ramdas Pophale) SiO2 
 PCOD9515950
Probable space group: F D D D
;
_chemical_formula_sum "Si O2"
_cell_formula_units_Z 112
_cell_length_a 12.941431
_cell_length_b 14.132617
_cell_length_c 24.612664
_cell_angle_alpha 90.000000
_cell_angle_beta 90.000000
_cell_angle_gamma 90.000000
_cell_volume 4501.564877
_symmetry_space_group_name_H-M "F D D D"
_symmetry_group_IT_number 70
_space_group.IT_coordinate_system_code '2'
_symmetry_cell_setting 'orthorhombic'
loop_
_space_group_symop_operation_xyz
x,y,z
1/4-x,1/4-y,z
x,1/4-y,1/4-z
1/4-x,y,1/4-z
-x,-y,-z
3/4+x,3/4+y,-z
-x,3/4+y,3/4+z
3/4+x,-y,3/4+z
x,1/2+y,1/2+z
1/4-x,3/4-y,1/2+z
x,3/4-y,3/4-z
1/4-x,1/2+y,3/4-z
-x,1/2-y,1/2-z
3/4+x,1/4+y,1/2-z
-x,1/4+y,1/4+z
3/4+x,1/2-y,1/4+z
1/2+x,y,1/2+z
3/4-x,1/4-y,1/2+z
1/2+x,1/4-y,3/4-z
3/4-x,y,3/4-z
1/2-x,-y,1/2-z
1/4+x,3/4+y,1/2-z
1/2-x,3/4+y,1/4+z
1/4+x,-y,1/4+z
1/2+x,1/2+y,z
3/4-x,3/4-y,z
1/2+x,3/4-y,1/4-z
3/4-x,1/2+y,1/4-z
1/2-x,1/2-y,-z
1/4+x,1/4+y,-z
1/2-x,1/4+y,3/4+z
1/4+x,1/2-y,3/4+z
loop_
_atom_site_type_symbol
_atom_site_label
_atom_site_fract_x
_atom_site_fract_y
_atom_site_fract_z
Si Si1 0.862961 0.625000 0.625000
Si Si2 0.474512 0.943122 0.775209
Si Si3 0.523792 0.058235 0.342801
Si Si4 0.253185 0.904355 0.213701
O O1 0.793787 0.672136 0.672106
O O2 0.934284 0.702077 0.596819
O O3 0.375000 0.875000 0.779373
O O4 0.526423 0.926208 0.716095
O O5 0.449134 0.054218 0.773297
O O6 0.625000 0.125000 0.341707
O O7 0.473944 0.074320 0.401269
O O8 0.375000 0.875000 0.215145
O O9 0.250000 0.000000 0.250000
#
# Coordination Sequence:
#
# PCOD9515950 Si02
#       4
#    16  32  32  32
#     4  12  21  46  70 100 147 192 240 302 371 434
#     4  11  25  42  71 109 139 191 248 303 360 441
#     4  10  22  43  69  96 143 192 233 297 372 423
#     4  11  23  49  74 101 146 196 239 296 373 440
#
# _framework density 24.880237000000001
#
# number of rings (size 3 to 8) (size 9 to 14) (size 15 to 20)
#    0.000    1.143    5.714    2.143    0.000    4.571 
#    5.143    2.857    0.000    0.000    0.000    0.000 
#    0.000    0.000    0.000    0.000    0.000    0.000 
#
# Total GULP energy -156600.827455 kJ/mol
# GULP energy per Si atom -5592.886695 kJ/mol
# Density = 2.482361 g / cm^3
# Si number density = 24.880237 Si / 1000 Ang^3
#
#
#
# Elastic Constant Matrix: (Units=GPa)
#
#
# Indices 1 2 3 4 5 6 
#
# 1 58.5365 57.6602 41.7400 0.0000 0.0000 0.0000
# 2 57.6602 203.9004 59.2058 0.0000 0.0000 0.0000
# 3 41.7400 59.2058 247.2452 0.0000 0.0000 0.0000
# 4 0.0000 0.0000 0.0000 59.4934 0.0000 0.0000
# 5 0.0000 0.0000 0.0000 0.0000 46.4213 0.0000
# 6 0.0000 0.0000 0.0000 0.0000 0.0000 42.1984
#
#
#
# Elastic Compliance Matrix: (Units=1/GPa)
#
#
# Indices 1 2 3 4 5 6 
#
# 1 0.025307 -0.006358 -0.002750 0.000000 0.000000 0.000000
# 2 -0.006358 0.006868 -0.000571 0.000000 0.000000 0.000000
# 3 -0.002750 -0.000571 0.004646 0.000000 0.000000 0.000000
# 4 0.000000 0.000000 0.000000 0.016809 0.000000 0.000000
# 5 0.000000 0.000000 0.000000 0.000000 0.021542 0.000000
# 6 0.000000 0.000000 0.000000 0.000000 0.000000 0.023698
#
#
# Mechanical properties :
#
#
# Convention : Reuss Voigt Hill
#
# Bulk Modulus (GPa) = 57.26559 91.87711 74.57135
# Shear Modulus (GPa) = 40.30700 53.02769 46.66735
#
# Velocity S-wave (km/s) = 4.02934 4.62163 4.33561
# Velocity P-wave (km/s) = 6.68685 8.09241 7.42297
#
# Compressibility (1/GPa) = 0.01746249
#
# Stress axis : x y z
#
# Youngs Moduli (GPa) = 39.51477 145.59856 215.25727
#
# Poissons Ratio (x) = 0.92572 0.59192
# Poissons Ratio (y) = 0.25124 0.12298
# Poissons Ratio (z) = 0.10866 0.08318
#
# Static dielectric constant tensor:
#      x y z
#    x 2.060680 0.000000 0.000000 
#    y 0.000000 1.911110 0.000000 
#    z 0.000000 0.000000 2.272390 
# 
# From -- ./inp_files/25183.got.cif
#   From: 2010.05.17/outbox.cif.g08.bks.cpg/sg70_13_cif.got.tgz:25183.got - 2010.06.03 15:57:51.
