data_PCOD9515221
_publ_section_title
;
Structure prediction by ZEFSAII (Michael W. Deem and Ramdas Pophale) SiO2 
 PCOD9515221
Probable space group: F D D D
;
_chemical_formula_sum "Si O2"
_cell_formula_units_Z 72
_cell_length_a 31.486508
_cell_length_b 6.640708
_cell_length_c 12.414264
_cell_angle_alpha 90.000000
_cell_angle_beta 90.000000
_cell_angle_gamma 90.000000
_cell_volume 2595.732047
_symmetry_space_group_name_H-M "F D D D"
_symmetry_group_IT_number 70
_space_group.IT_coordinate_system_code '2'
_symmetry_cell_setting 'orthorhombic'
loop_
_space_group_symop_operation_xyz
x,y,z
1/4-x,1/4-y,z
x,1/4-y,1/4-z
1/4-x,y,1/4-z
-x,-y,-z
3/4+x,3/4+y,-z
-x,3/4+y,3/4+z
3/4+x,-y,3/4+z
x,1/2+y,1/2+z
1/4-x,3/4-y,1/2+z
x,3/4-y,3/4-z
1/4-x,1/2+y,3/4-z
-x,1/2-y,1/2-z
3/4+x,1/4+y,1/2-z
-x,1/4+y,1/4+z
3/4+x,1/2-y,1/4+z
1/2+x,y,1/2+z
3/4-x,1/4-y,1/2+z
1/2+x,1/4-y,3/4-z
3/4-x,y,3/4-z
1/2-x,-y,1/2-z
1/4+x,3/4+y,1/2-z
1/2-x,3/4+y,1/4+z
1/4+x,-y,1/4+z
1/2+x,1/2+y,z
3/4-x,3/4-y,z
1/2+x,3/4-y,1/4-z
3/4-x,1/2+y,1/4-z
1/2-x,1/2-y,-z
1/4+x,1/4+y,-z
1/2-x,1/4+y,3/4+z
1/4+x,1/2-y,3/4+z
loop_
_atom_site_type_symbol
_atom_site_label
_atom_site_fract_x
_atom_site_fract_y
_atom_site_fract_z
Si Si1 0.693710 0.681976 0.780180
Si Si2 0.959554 0.289540 0.492240
Si Si3 0.375000 0.875000 0.875000
O O1 0.695415 0.441093 0.753935
O O2 0.739087 0.771912 0.744206
O O3 0.654550 0.749036 0.707517
O O4 0.691131 0.673234 0.909887
O O5 0.950553 0.375000 0.375000
#
# Coordination Sequence:
#
# PCOD9515221 Si02
#       3
#    32  32   8
#     4  10  22  39  65  92 131 166 213 272 329 391
#     4  10  20  43  69  94 116 172 231 262 312 410
#     4  12  24  44  52  88 140 168 188 280 352 368
#
# _framework density 27.737841
#
# number of rings (size 3 to 8) (size 9 to 14) (size 15 to 20)
#    0.000    1.778    0.000    6.667    0.000    0.000 
#   24.000    0.000    0.000    0.000    0.000    0.000 
#    0.000    0.000    0.000    0.000    0.000    0.000 
#
# Total GULP energy -101002.170785 kJ/mol
# GULP energy per Si atom -5611.231710 kJ/mol
# Density = 2.767471 g / cm^3
# Si number density = 27.737841 Si / 1000 Ang^3
#
#
#
# Elastic Constant Matrix: (Units=GPa)
#
#
# Indices 1 2 3 4 5 6 
#
# 1 131.0009 23.7169 99.5347 0.0000 0.0000 0.0000
# 2 23.7169 76.8639 41.9271 0.0000 0.0000 0.0000
# 3 99.5347 41.9271 303.6551 0.0000 0.0000 0.0000
# 4 0.0000 0.0000 0.0000 55.8584 0.0000 0.0000
# 5 0.0000 0.0000 0.0000 0.0000 67.7183 0.0000
# 6 0.0000 0.0000 0.0000 0.0000 0.0000 21.3595
#
#
#
# Elastic Compliance Matrix: (Units=1/GPa)
#
#
# Indices 1 2 3 4 5 6 
#
# 1 0.010312 -0.001447 -0.003180 0.000000 0.000000 0.000000
# 2 -0.001447 0.014273 -0.001496 0.000000 0.000000 0.000000
# 3 -0.003180 -0.001496 0.004542 0.000000 0.000000 0.000000
# 4 0.000000 0.000000 0.000000 0.017902 0.000000 0.000000
# 5 0.000000 0.000000 0.000000 0.000000 0.014767 0.000000
# 6 0.000000 0.000000 0.000000 0.000000 0.000000 0.046818
#
#
# Mechanical properties :
#
#
# Convention : Reuss Voigt Hill
#
# Bulk Modulus (GPa) = 59.24357 93.54191 76.39274
# Shear Modulus (GPa) = 39.52943 52.07664 45.80304
#
# Velocity S-wave (km/s) = 3.77916 4.33767 4.06801
# Velocity P-wave (km/s) = 6.35983 7.67359 7.04739
#
# Compressibility (1/GPa) = 0.01687947
#
# Stress axis : x y z
#
# Youngs Moduli (GPa) = 96.97503 70.06360 220.15273
#
# Poissons Ratio (x) = 0.10138 0.70016
# Poissons Ratio (y) = 0.14033 0.32943
# Poissons Ratio (z) = 0.30841 0.10484
#
# Static dielectric constant tensor:
#      x y z
#    x 2.148040 0.000000 0.000000 
#    y 0.000000 2.410490 0.000000 
#    z 0.000000 0.000000 2.161750 
# 
# From -- ./inp_files/23580.got.cif
#   From: 2010.05.17/outbox.cif.g08.bks.cpg/sg70_12_cif.got.tgz:23580.got - 2010.06.03 15:57:51.
