data_PCOD9515041
_publ_section_title
;
Structure prediction by ZEFSAII (Michael W. Deem and Ramdas Pophale) SiO2 
 PCOD9515041
Probable space group: F D D D
;
_chemical_formula_sum "Si O2"
_cell_formula_units_Z 200
_cell_length_a 22.676067
_cell_length_b 15.432885
_cell_length_c 27.662107
_cell_angle_alpha 90.000000
_cell_angle_beta 90.000000
_cell_angle_gamma 90.000000
_cell_volume 9680.551693
_symmetry_space_group_name_H-M "F D D D"
_symmetry_group_IT_number 70
_space_group.IT_coordinate_system_code '2'
_symmetry_cell_setting 'orthorhombic'
loop_
_space_group_symop_operation_xyz
x,y,z
1/4-x,1/4-y,z
x,1/4-y,1/4-z
1/4-x,y,1/4-z
-x,-y,-z
3/4+x,3/4+y,-z
-x,3/4+y,3/4+z
3/4+x,-y,3/4+z
x,1/2+y,1/2+z
1/4-x,3/4-y,1/2+z
x,3/4-y,3/4-z
1/4-x,1/2+y,3/4-z
-x,1/2-y,1/2-z
3/4+x,1/4+y,1/2-z
-x,1/4+y,1/4+z
3/4+x,1/2-y,1/4+z
1/2+x,y,1/2+z
3/4-x,1/4-y,1/2+z
1/2+x,1/4-y,3/4-z
3/4-x,y,3/4-z
1/2-x,-y,1/2-z
1/4+x,3/4+y,1/2-z
1/2-x,3/4+y,1/4+z
1/4+x,-y,1/4+z
1/2+x,1/2+y,z
3/4-x,3/4-y,z
1/2+x,3/4-y,1/4-z
3/4-x,1/2+y,1/4-z
1/2-x,1/2-y,-z
1/4+x,1/4+y,-z
1/2-x,1/4+y,3/4+z
1/4+x,1/2-y,3/4+z
loop_
_atom_site_type_symbol
_atom_site_label
_atom_site_fract_x
_atom_site_fract_y
_atom_site_fract_z
Si Si1 0.875000 0.875000 0.875000
Si Si2 0.085726 0.214845 0.664496
Si Si3 0.901726 0.704431 0.231583
Si Si4 0.940093 0.265222 0.294913
Si Si5 0.916169 0.001396 0.721169
Si Si6 0.474166 0.642750 0.001956
Si Si7 0.199578 0.973409 0.866520
O O1 0.911677 0.939180 0.909280
O O2 0.125000 0.125000 0.671205
O O3 0.125000 0.265230 0.625000
O O4 0.081044 0.254935 0.717400
O O5 0.020365 0.214385 0.640966
O O6 0.923612 0.604757 0.228494
O O7 0.831361 0.694815 0.229313
O O8 0.925338 0.754443 0.184910
O O9 0.893326 0.274613 0.249929
O O10 0.953728 0.162651 0.295096
O O11 0.000701 0.316773 0.285918
O O12 0.924442 0.980230 0.664250
O O13 0.971215 0.954574 0.744961
O O14 0.177533 0.875000 0.875000
#
# Coordination Sequence:
#
# PCOD9515041 Si02
#       7
#     8  32  32  32  32  32  32
#     4  12  20  44  64  92 128 164 230 272 324 388
#     4  11  21  39  65  89 127 174 214 266 335 396
#     4  10  23  37  63  97 124 168 222 269 326 393
#     4  10  22  40  66  91 124 172 215 267 330 394
#     4  10  20  42  64  88 131 169 214 272 330 394
#     4  10  20  42  62  89 126 169 209 265 334 394
#     4  10  20  39  61  88 122 169 210 265 322 386
#
# _framework density 20.659980000000001
#
# number of rings (size 3 to 8) (size 9 to 14) (size 15 to 20)
#    0.000    1.760    3.200    1.440    2.240    0.000 
#   21.600    1.600    0.000    0.000    0.000    0.000 
#    0.000    0.000    0.000    0.000    0.000    0.000 
#
# Total GULP energy -278442.910399 kJ/mol
# GULP energy per Si atom -5568.858208 kJ/mol
# Density = 2.061296 g / cm^3
# Si number density = 20.659980 Si / 1000 Ang^3
#
#
#
# Elastic Constant Matrix: (Units=GPa)
#
#
# Indices 1 2 3 4 5 6 
#
# 1 99.1738 13.5209 28.8570 0.0000 0.0000 0.0000
# 2 13.5209 20.7952 10.6090 0.0000 0.0000 0.0000
# 3 28.8570 10.6090 127.0631 0.0000 0.0000 0.0000
# 4 0.0000 0.0000 0.0000 26.2646 0.0000 0.0000
# 5 0.0000 0.0000 0.0000 0.0000 8.2809 0.0000
# 6 0.0000 0.0000 0.0000 0.0000 0.0000 26.4740
#
#
#
# Elastic Compliance Matrix: (Units=1/GPa)
#
#
# Indices 1 2 3 4 5 6 
#
# 1 0.011572 -0.006458 -0.002089 0.000000 0.000000 0.000000
# 2 -0.006458 0.053832 -0.003028 0.000000 0.000000 0.000000
# 3 -0.002089 -0.003028 0.008597 0.000000 0.000000 0.000000
# 4 0.000000 0.000000 0.000000 0.038074 0.000000 0.000000
# 5 0.000000 0.000000 0.000000 0.000000 0.120760 0.000000
# 6 0.000000 0.000000 0.000000 0.000000 0.000000 0.037773
#
#
# Mechanical properties :
#
#
# Convention : Reuss Voigt Hill
#
# Bulk Modulus (GPa) = 19.66530 39.22286 29.44408
# Shear Modulus (GPa) = 16.09228 25.14025 20.61627
#
# Velocity S-wave (km/s) = 2.79393 3.49213 3.16236
# Velocity P-wave (km/s) = 4.46623 5.94021 5.25516
#
# Compressibility (1/GPa) = 0.05085100
#
# Stress axis : x y z
#
# Youngs Moduli (GPa) = 86.41882 18.57638 116.31566
#
# Poissons Ratio (x) = 0.11997 0.24296
# Poissons Ratio (y) = 0.55810 0.35220
# Poissons Ratio (z) = 0.18051 0.05625
#
# Static dielectric constant tensor:
#      x y z
#    x 1.748210 0.000000 0.000000 
#    y 0.000000 1.785290 0.000000 
#    z 0.000000 0.000000 1.807920 
# 
# From -- ./inp_files/60434.got.cif
#   From: 2010.05.17/outbox.cif.g08.bks.cpg/sg70_31_cif.got.tgz:60434.got - 2010.06.03 15:57:51.
