data_PCOD9515413
_publ_section_title
;
Structure prediction by ZEFSAII (Michael W. Deem and Ramdas Pophale) SiO2 
 PCOD9515413
Probable space group: F D D D
;
_chemical_formula_sum "Si O2"
_cell_formula_units_Z 160
_cell_length_a 23.197684
_cell_length_b 22.405419
_cell_length_c 13.295752
_cell_angle_alpha 90.000000
_cell_angle_beta 90.000000
_cell_angle_gamma 90.000000
_cell_volume 6910.518023
_symmetry_space_group_name_H-M "F D D D"
_symmetry_group_IT_number 70
_space_group.IT_coordinate_system_code '2'
_symmetry_cell_setting 'orthorhombic'
loop_
_space_group_symop_operation_xyz
x,y,z
1/4-x,1/4-y,z
x,1/4-y,1/4-z
1/4-x,y,1/4-z
-x,-y,-z
3/4+x,3/4+y,-z
-x,3/4+y,3/4+z
3/4+x,-y,3/4+z
x,1/2+y,1/2+z
1/4-x,3/4-y,1/2+z
x,3/4-y,3/4-z
1/4-x,1/2+y,3/4-z
-x,1/2-y,1/2-z
3/4+x,1/4+y,1/2-z
-x,1/4+y,1/4+z
3/4+x,1/2-y,1/4+z
1/2+x,y,1/2+z
3/4-x,1/4-y,1/2+z
1/2+x,1/4-y,3/4-z
3/4-x,y,3/4-z
1/2-x,-y,1/2-z
1/4+x,3/4+y,1/2-z
1/2-x,3/4+y,1/4+z
1/4+x,-y,1/4+z
1/2+x,1/2+y,z
3/4-x,3/4-y,z
1/2+x,3/4-y,1/4-z
3/4-x,1/2+y,1/4-z
1/2-x,1/2-y,-z
1/4+x,1/4+y,-z
1/2-x,1/4+y,3/4+z
1/4+x,1/2-y,3/4+z
loop_
_atom_site_type_symbol
_atom_site_label
_atom_site_fract_x
_atom_site_fract_y
_atom_site_fract_z
Si Si1 0.792507 0.234421 0.592539
Si Si2 0.583562 0.426708 0.294035
Si Si3 0.875000 0.584251 0.875000
Si Si4 0.312445 0.388498 0.649688
Si Si5 0.756794 0.229797 0.882839
Si Si6 0.470083 0.875000 0.375000
O O1 0.750000 0.250000 0.500000
O O2 0.856075 0.213049 0.559618
O O3 0.795723 0.297986 0.644119
O O4 0.761783 0.180441 0.648769
O O5 0.576244 0.375000 0.375000
O O6 0.595072 0.383595 0.198555
O O7 0.532196 0.474293 0.315596
O O8 0.822536 0.537676 0.899052
O O9 0.375000 0.375000 0.611757
O O10 0.272864 0.334473 0.622055
O O11 0.313043 0.390838 0.772849
O O12 0.750000 0.250000 0.000000
#
# Coordination Sequence:
#
# PCOD9515413 Si02
#       6
#    32  32  16  32  32  16
#     4  10  21  40  68 110 151 203 252 328 411 486
#     4  12  25  51  78 113 165 212 284 350 418 509
#     4  12  28  54  85 117 164 232 282 356 428 520
#     4  11  23  42  68 110 152 196 261 332 402 499
#     4  12  28  53  77 118 169 219 281 353 432 516
#     4  10  21  38  70 106 152 197 250 326 412 480
#
# _framework density 23.153113000000001
#
# number of rings (size 3 to 8) (size 9 to 14) (size 15 to 20)
#    0.000    0.800    5.000    2.700    0.000    4.800 
#    3.600    0.500    0.000    0.000    0.000    0.000 
#    0.000    0.000    0.000    0.000    0.000    0.000 
#
# Total GULP energy -223017.160569 kJ/mol
# GULP energy per Si atom -5575.429014 kJ/mol
# Density = 2.310042 g / cm^3
# Si number density = 23.153113 Si / 1000 Ang^3
#
#
#
# Elastic Constant Matrix: (Units=GPa)
#
#
# Indices 1 2 3 4 5 6 
#
# 1 202.6874 95.0224 25.7944 0.0000 0.0000 0.0000
# 2 95.0224 211.1602 43.4939 0.0000 0.0000 0.0000
# 3 25.7944 43.4939 58.2114 0.0000 0.0000 0.0000
# 4 0.0000 0.0000 0.0000 8.4997 0.0000 0.0000
# 5 0.0000 0.0000 0.0000 0.0000 8.0758 0.0000
# 6 0.0000 0.0000 0.0000 0.0000 0.0000 34.3397
#
#
#
# Elastic Compliance Matrix: (Units=1/GPa)
#
#
# Indices 1 2 3 4 5 6 
#
# 1 0.006284 -0.002664 -0.000794 0.000000 0.000000 0.000000
# 2 -0.002664 0.006727 -0.003845 0.000000 0.000000 0.000000
# 3 -0.000794 -0.003845 0.020404 0.000000 0.000000 0.000000
# 4 0.000000 0.000000 0.000000 0.117651 0.000000 0.000000
# 5 0.000000 0.000000 0.000000 0.000000 0.123826 0.000000
# 6 0.000000 0.000000 0.000000 0.000000 0.000000 0.029121
#
#
# Mechanical properties :
#
#
# Convention : Reuss Voigt Hill
#
# Bulk Modulus (GPa) = 53.17100 88.96450 71.06775
# Shear Modulus (GPa) = 15.38990 30.69960 23.04475
#
# Velocity S-wave (km/s) = 2.58098 3.64529 3.15829
# Velocity P-wave (km/s) = 5.64772 7.49836 6.63785
#
# Compressibility (1/GPa) = 0.01880724
#
# Stress axis : x y z
#
# Youngs Moduli (GPa) = 159.14110 148.66138 49.01064
#
# Poissons Ratio (x) = 0.39606 0.03891
# Poissons Ratio (y) = 0.42398 0.18847
# Poissons Ratio (z) = 0.12633 0.57167
#
# Static dielectric constant tensor:
#      x y z
#    x 1.887220 0.000000 0.000000 
#    y 0.000000 1.747100 0.000000 
#    z 0.000000 0.000000 1.878640 
# 
# From -- ./inp_files/28671.got.cif
#   From: 2010.05.17/outbox.cif.g08.bks.cpg/sg70_15_cif.got.tgz:28671.got - 2010.06.03 15:57:51.
