data_PCOD9515355
_publ_section_title
;
Structure prediction by ZEFSAII (Michael W. Deem and Ramdas Pophale) SiO2 
 PCOD9515355
Probable space group: F D D D
;
_chemical_formula_sum "Si O2"
_cell_formula_units_Z 192
_cell_length_a 23.199852
_cell_length_b 10.007865
_cell_length_c 32.080057
_cell_angle_alpha 90.000000
_cell_angle_beta 90.000000
_cell_angle_gamma 90.000000
_cell_volume 7448.379292
_symmetry_space_group_name_H-M "F D D D"
_symmetry_group_IT_number 70
_space_group.IT_coordinate_system_code '2'
_symmetry_cell_setting 'orthorhombic'
loop_
_space_group_symop_operation_xyz
x,y,z
1/4-x,1/4-y,z
x,1/4-y,1/4-z
1/4-x,y,1/4-z
-x,-y,-z
3/4+x,3/4+y,-z
-x,3/4+y,3/4+z
3/4+x,-y,3/4+z
x,1/2+y,1/2+z
1/4-x,3/4-y,1/2+z
x,3/4-y,3/4-z
1/4-x,1/2+y,3/4-z
-x,1/2-y,1/2-z
3/4+x,1/4+y,1/2-z
-x,1/4+y,1/4+z
3/4+x,1/2-y,1/4+z
1/2+x,y,1/2+z
3/4-x,1/4-y,1/2+z
1/2+x,1/4-y,3/4-z
3/4-x,y,3/4-z
1/2-x,-y,1/2-z
1/4+x,3/4+y,1/2-z
1/2-x,3/4+y,1/4+z
1/4+x,-y,1/4+z
1/2+x,1/2+y,z
3/4-x,3/4-y,z
1/2+x,3/4-y,1/4-z
3/4-x,1/2+y,1/4-z
1/2-x,1/2-y,-z
1/4+x,1/4+y,-z
1/2-x,1/4+y,3/4+z
1/4+x,1/2-y,3/4+z
loop_
_atom_site_type_symbol
_atom_site_label
_atom_site_fract_x
_atom_site_fract_y
_atom_site_fract_z
Si Si1 0.001135 0.811036 0.597979
Si Si2 0.625000 0.625000 0.251515
Si Si3 0.274146 0.098418 0.672477
Si Si4 0.351083 0.625508 0.786651
Si Si5 0.125000 0.359103 0.125000
Si Si6 0.646609 0.773513 0.804425
Si Si7 0.230924 0.615597 0.808400
O O1 0.959590 0.707442 0.574559
O O2 0.971148 0.844501 0.642548
O O3 0.066332 0.781894 0.612609
O O4 0.998608 0.948190 0.570113
O O5 0.606724 0.498338 0.224094
O O6 0.675896 0.579099 0.281979
O O7 0.256796 0.125000 0.625000
O O8 0.254020 0.225941 0.698447
O O9 0.343492 0.107980 0.677551
O O10 0.363123 0.687498 0.832005
O O11 0.351747 0.712863 0.745393
O O12 0.289880 0.550825 0.793318
O O13 0.625000 0.625000 0.815298
#
# Coordination Sequence:
#
# PCOD9515355 Si02
#       7
#    32  16  32  32  16  32  32
#     4   9  21  38  67  97 141 174 224 278 350 424
#     4  12  24  41  68  90 132 174 238 285 336 414
#     4   9  18  36  62  97 131 171 217 284 341 405
#     4  11  25  43  65  95 129 183 228 284 345 418
#     4  10  24  47  63  92 140 186 227 279 356 422
#     4  10  21  37  65 104 131 168 224 289 349 404
#     4  10  22  40  61  97 133 173 227 281 348 410
#
# _framework density 25.777419999999999
#
# number of rings (size 3 to 8) (size 9 to 14) (size 15 to 20)
#    0.000    2.000    1.667    0.500    8.167    1.667 
#    0.000   15.000    0.000    0.000    0.000    0.000 
#    0.000    0.000    0.000    0.000    0.000    0.000 
#
# Total GULP energy -267968.512678 kJ/mol
# GULP energy per Si atom -5582.677347 kJ/mol
# Density = 2.571875 g / cm^3
# Si number density = 25.777420 Si / 1000 Ang^3
#
#
#
# Elastic Constant Matrix: (Units=GPa)
#
#
# Indices 1 2 3 4 5 6 
#
# 1 121.3124 2.1859 25.7621 0.0000 0.0000 0.0000
# 2 2.1859 56.2838 11.7312 0.0000 0.0000 0.0000
# 3 25.7621 11.7312 115.9996 0.0000 0.0000 0.0000
# 4 0.0000 0.0000 0.0000 32.1464 0.0000 0.0000
# 5 0.0000 0.0000 0.0000 0.0000 40.6515 0.0000
# 6 0.0000 0.0000 0.0000 0.0000 0.0000 18.8704
#
#
#
# Elastic Compliance Matrix: (Units=1/GPa)
#
#
# Indices 1 2 3 4 5 6 
#
# 1 0.008651 0.000066 -0.001928 0.000000 0.000000 0.000000
# 2 0.000066 0.018150 -0.001850 0.000000 0.000000 0.000000
# 3 -0.001928 -0.001850 0.009236 0.000000 0.000000 0.000000
# 4 0.000000 0.000000 0.000000 0.031108 0.000000 0.000000
# 5 0.000000 0.000000 0.000000 0.000000 0.024599 0.000000
# 6 0.000000 0.000000 0.000000 0.000000 0.000000 0.052993
#
#
# Mechanical properties :
#
#
# Convention : Reuss Voigt Hill
#
# Bulk Modulus (GPa) = 34.94924 41.43936 38.19430
# Shear Modulus (GPa) = 30.92145 35.26144 33.09144
#
# Velocity S-wave (km/s) = 3.46722 3.70255 3.58682
# Velocity P-wave (km/s) = 5.44209 5.86424 5.65710
#
# Compressibility (1/GPa) = 0.02861292
#
# Stress axis : x y z
#
# Youngs Moduli (GPa) = 115.58773 55.09592 108.27171
#
# Poissons Ratio (x) = -0.00363 0.20875
# Poissons Ratio (y) = -0.00761 0.20032
# Poissons Ratio (z) = 0.22286 0.10194
#
# Static dielectric constant tensor:
#      x y z
#    x 2.133010 0.000000 0.000000 
#    y 0.000000 2.108860 0.000000 
#    z 0.000000 0.000000 1.976510 
# 
# From -- ./inp_files/68430.got.cif
#   From: 2010.05.17/outbox.cif.g08.bks.cpg/sg70_35_cif.got.tgz:68430.got - 2010.06.03 15:57:51.
