data_PCOD9515254
_publ_section_title
;
Structure prediction by ZEFSAII (Michael W. Deem and Ramdas Pophale) SiO2 
 PCOD9515254
Probable space group: F D D D
;
_chemical_formula_sum "Si O2"
_cell_formula_units_Z 176
_cell_length_a 23.760586
_cell_length_b 12.385366
_cell_length_c 26.577648
_cell_angle_alpha 90.000000
_cell_angle_beta 90.000000
_cell_angle_gamma 90.000000
_cell_volume 7821.364710
_symmetry_space_group_name_H-M "F D D D"
_symmetry_group_IT_number 70
_space_group.IT_coordinate_system_code '2'
_symmetry_cell_setting 'orthorhombic'
loop_
_space_group_symop_operation_xyz
x,y,z
1/4-x,1/4-y,z
x,1/4-y,1/4-z
1/4-x,y,1/4-z
-x,-y,-z
3/4+x,3/4+y,-z
-x,3/4+y,3/4+z
3/4+x,-y,3/4+z
x,1/2+y,1/2+z
1/4-x,3/4-y,1/2+z
x,3/4-y,3/4-z
1/4-x,1/2+y,3/4-z
-x,1/2-y,1/2-z
3/4+x,1/4+y,1/2-z
-x,1/4+y,1/4+z
3/4+x,1/2-y,1/4+z
1/2+x,y,1/2+z
3/4-x,1/4-y,1/2+z
1/2+x,1/4-y,3/4-z
3/4-x,y,3/4-z
1/2-x,-y,1/2-z
1/4+x,3/4+y,1/2-z
1/2-x,3/4+y,1/4+z
1/4+x,-y,1/4+z
1/2+x,1/2+y,z
3/4-x,3/4-y,z
1/2+x,3/4-y,1/4-z
3/4-x,1/2+y,1/4-z
1/2-x,1/2-y,-z
1/4+x,1/4+y,-z
1/2-x,1/4+y,3/4+z
1/4+x,1/2-y,3/4+z
loop_
_atom_site_type_symbol
_atom_site_label
_atom_site_fract_x
_atom_site_fract_y
_atom_site_fract_z
Si Si1 0.279688 0.442109 0.045879
Si Si2 0.041726 0.732600 0.657696
Si Si3 0.321667 0.092297 0.682440
Si Si4 0.720429 0.135029 0.346481
Si Si5 0.195656 0.894848 0.465687
Si Si6 0.875000 0.375000 0.469855
O O1 0.275432 0.570411 0.051961
O O2 0.304295 0.395262 0.098138
O O3 0.221097 0.402134 0.021886
O O4 0.324068 0.415823 0.003162
O O5 0.048290 0.625000 0.625000
O O6 0.098030 0.724399 0.689718
O O7 0.031401 0.831439 0.619537
O O8 0.983953 0.698333 0.688799
O O9 0.336753 0.125000 0.625000
O O10 0.378784 0.116508 0.712736
O O11 0.296529 0.971620 0.684277
O O12 0.704106 0.242604 0.315908
#
# Coordination Sequence:
#
# PCOD9515254 Si02
#       6
#    32  32  32  32  32  16
#     4  10  24  35  56  93 119 159 213 259 315 381
#     4   9  19  35  56  85 120 156 201 248 314 378
#     4  10  21  37  59  87 120 159 210 258 310 381
#     4  10  21  37  59  82 120 165 202 257 314 371
#     4  10  21  36  57  88 118 158 204 264 318 375
#     4  10  21  32  56  88 128 154 194 262 325 378
#
# _framework density 22.502465999999998
#
# number of rings (size 3 to 8) (size 9 to 14) (size 15 to 20)
#    0.000    2.182    0.000    2.455   10.182    2.182 
#    0.000    0.000    0.000    0.000    0.000    0.000 
#    0.000    0.000    0.000    0.000    0.000    0.000 
#
# Total GULP energy -244951.905440 kJ/mol
# GULP energy per Si atom -5567.088760 kJ/mol
# Density = 2.245125 g / cm^3
# Si number density = 22.502466 Si / 1000 Ang^3
#
#
#
# Elastic Constant Matrix: (Units=GPa)
#
#
# Indices 1 2 3 4 5 6 
#
# 1 74.9716 33.0369 12.1967 0.0000 0.0000 0.0000
# 2 33.0369 85.9672 2.5552 0.0000 0.0000 0.0000
# 3 12.1967 2.5552 36.7718 0.0000 0.0000 0.0000
# 4 0.0000 0.0000 0.0000 22.4340 0.0000 0.0000
# 5 0.0000 0.0000 0.0000 0.0000 26.1873 0.0000
# 6 0.0000 0.0000 0.0000 0.0000 0.0000 22.3693
#
#
#
# Elastic Compliance Matrix: (Units=1/GPa)
#
#
# Indices 1 2 3 4 5 6 
#
# 1 0.016993 -0.006376 -0.005193 0.000000 0.000000 0.000000
# 2 -0.006376 0.014049 0.001139 0.000000 0.000000 0.000000
# 3 -0.005193 0.001139 0.028838 0.000000 0.000000 0.000000
# 4 0.000000 0.000000 0.000000 0.044575 0.000000 0.000000
# 5 0.000000 0.000000 0.000000 0.000000 0.038186 0.000000
# 6 0.000000 0.000000 0.000000 0.000000 0.000000 0.044704
#
#
# Mechanical properties :
#
#
# Convention : Reuss Voigt Hill
#
# Bulk Modulus (GPa) = 25.62879 32.58756 29.10818
# Shear Modulus (GPa) = 22.60266 24.19291 23.39778
#
# Velocity S-wave (km/s) = 3.17275 3.28246 3.22807
# Velocity P-wave (km/s) = 4.98356 5.37395 5.18243
#
# Compressibility (1/GPa) = 0.03901862
#
# Stress axis : x y z
#
# Youngs Moduli (GPa) = 58.84828 71.18066 34.67628
#
# Poissons Ratio (x) = 0.45384 0.18008
# Poissons Ratio (y) = 0.37521 -0.03948
# Poissons Ratio (z) = 0.30561 -0.08105
#
# Static dielectric constant tensor:
#      x y z
#    x 1.891140 0.000000 0.000000 
#    y 0.000000 1.932810 0.000000 
#    z 0.000000 0.000000 1.935650 
# 
# From -- ./inp_files/61680.got.cif
#   From: 2010.05.17/outbox.cif.g08.bks.cpg/sg70_31_cif.got.tgz:61680.got - 2010.06.03 15:57:51.
