data_PCOD9515198
_publ_section_title
;
Structure prediction by ZEFSAII (Michael W. Deem and Ramdas Pophale) SiO2 
 PCOD9515198
Probable space group: F D D D
;
_chemical_formula_sum "Si O2"
_cell_formula_units_Z 176
_cell_length_a 26.115831
_cell_length_b 27.648696
_cell_length_c 10.203100
_cell_angle_alpha 90.000000
_cell_angle_beta 90.000000
_cell_angle_gamma 90.000000
_cell_volume 7367.338868
_symmetry_space_group_name_H-M "F D D D"
_symmetry_group_IT_number 70
_space_group.IT_coordinate_system_code '2'
_symmetry_cell_setting 'orthorhombic'
loop_
_space_group_symop_operation_xyz
x,y,z
1/4-x,1/4-y,z
x,1/4-y,1/4-z
1/4-x,y,1/4-z
-x,-y,-z
3/4+x,3/4+y,-z
-x,3/4+y,3/4+z
3/4+x,-y,3/4+z
x,1/2+y,1/2+z
1/4-x,3/4-y,1/2+z
x,3/4-y,3/4-z
1/4-x,1/2+y,3/4-z
-x,1/2-y,1/2-z
3/4+x,1/4+y,1/2-z
-x,1/4+y,1/4+z
3/4+x,1/2-y,1/4+z
1/2+x,y,1/2+z
3/4-x,1/4-y,1/2+z
1/2+x,1/4-y,3/4-z
3/4-x,y,3/4-z
1/2-x,-y,1/2-z
1/4+x,3/4+y,1/2-z
1/2-x,3/4+y,1/4+z
1/4+x,-y,1/4+z
1/2+x,1/2+y,z
3/4-x,3/4-y,z
1/2+x,3/4-y,1/4-z
3/4-x,1/2+y,1/4-z
1/2-x,1/2-y,-z
1/4+x,1/4+y,-z
1/2-x,1/4+y,3/4+z
1/4+x,1/2-y,3/4+z
loop_
_atom_site_type_symbol
_atom_site_label
_atom_site_fract_x
_atom_site_fract_y
_atom_site_fract_z
Si Si1 0.197517 0.025175 0.381457
Si Si2 0.563397 0.618592 0.379622
Si Si3 0.375000 0.597180 0.875000
Si Si4 0.352573 0.025653 0.611598
Si Si5 0.034649 0.905741 0.507323
Si Si6 0.292569 0.793720 0.331044
O O1 0.211228 0.079439 0.422014
O O2 0.186650 0.037083 0.227624
O O3 0.145005 0.005330 0.435114
O O4 0.237236 0.981952 0.404048
O O5 0.625000 0.625000 0.395864
O O6 0.524575 0.584488 0.460279
O O7 0.550801 0.595890 0.236359
O O8 0.373197 0.565605 0.740006
O O9 0.427805 0.628135 0.861475
O O10 0.314883 0.046847 0.717898
O O11 0.322645 0.991553 0.513641
O O12 0.036555 0.875000 0.375000
#
# Coordination Sequence:
#
# PCOD9515198 Si02
#       6
#    32  32  16  32  32  32
#     4  11  23  42  70 105 144 188 238 305 370 429
#     4  12  26  46  71 105 145 196 244 303 369 438
#     4  10  20  42  68  97 138 181 240 304 356 430
#     4  11  21  43  68 100 141 188 238 306 365 436
#     4  10  25  43  68 101 143 189 247 299 362 443
#     4  11  24  42  71 102 145 187 241 299 370 439
#
# _framework density 23.889222
#
# number of rings (size 3 to 8) (size 9 to 14) (size 15 to 20)
#    0.000    1.091    3.636    2.727    5.091    1.818 
#    0.000    0.000    0.000    0.000    0.000    0.000 
#    0.000    0.000    0.000    0.000    0.000    0.000 
#
# Total GULP energy -245225.501220 kJ/mol
# GULP energy per Si atom -5573.306846 kJ/mol
# Density = 2.383485 g / cm^3
# Si number density = 23.889222 Si / 1000 Ang^3
#
#
#
# Elastic Constant Matrix: (Units=GPa)
#
#
# Indices 1 2 3 4 5 6 
#
# 1 145.4581 23.9258 32.4839 0.0002 -0.0004 0.0002
# 2 23.9258 98.4852 29.6568 0.0000 0.0002 0.0003
# 3 32.4839 29.6568 41.0916 0.0010 -0.0010 0.0003
# 4 0.0002 0.0000 0.0010 22.5137 -0.0005 0.0000
# 5 -0.0004 0.0002 -0.0010 -0.0005 34.2490 -0.0003
# 6 0.0002 0.0003 0.0003 0.0000 -0.0003 31.9159
#
#
#
# Elastic Compliance Matrix: (Units=1/GPa)
#
#
# Indices 1 2 3 4 5 6 
#
# 1 0.008349 -0.000052 -0.006562 0.000000 0.000000 0.000000
# 2 -0.000052 0.012974 -0.009322 0.000000 0.000000 0.000000
# 3 -0.006562 -0.009322 0.036252 -0.000002 0.000001 0.000000
# 4 0.000000 0.000000 -0.000002 0.044417 0.000001 0.000000
# 5 0.000000 0.000000 0.000001 0.000001 0.029198 0.000000
# 6 0.000000 0.000000 0.000000 0.000000 0.000000 0.031332
#
#
# Mechanical properties :
#
#
# Convention : Reuss Voigt Hill
#
# Bulk Modulus (GPa) = 38.90927 50.79644 44.85286
# Shear Modulus (GPa) = 24.63511 31.00028 27.81769
#
# Velocity S-wave (km/s) = 3.21475 3.60622 3.41610
# Velocity P-wave (km/s) = 5.48655 6.21686 5.86308
#
# Compressibility (1/GPa) = 0.02570081
#
# Stress axis : x y z
#
# Youngs Moduli (GPa) = 119.77567 77.07929 27.58491
#
# Poissons Ratio (x) = 0.00402 0.18102
# Poissons Ratio (y) = 0.00625 0.25715
# Poissons Ratio (z) = 0.78602 0.71855
#
# Static dielectric constant tensor:
#      x y z
#    x 1.989020 0.000000 0.000000 
#    y 0.000000 2.065660 0.000000 
#    z 0.000000 0.000000 1.971460 
# 
# From -- ./inp_files/19646.got.cif
#   From: 2010.05.17/outbox.cif.g08.bks.cpg/sg70_10_cif.got.tgz:19646.got - 2010.06.03 15:57:51.
