data_PCOD9515960
_publ_section_title
;
Structure prediction by ZEFSAII (Michael W. Deem and Ramdas Pophale) SiO2 
 PCOD9515960
Probable space group: F D D D
;
_chemical_formula_sum "Si O2"
_cell_formula_units_Z 192
_cell_length_a 20.262977
_cell_length_b 19.659543
_cell_length_c 22.035582
_cell_angle_alpha 90.000000
_cell_angle_beta 90.000000
_cell_angle_gamma 90.000000
_cell_volume 8778.113564
_symmetry_space_group_name_H-M "F D D D"
_symmetry_group_IT_number 70
_space_group.IT_coordinate_system_code '2'
_symmetry_cell_setting 'orthorhombic'
loop_
_space_group_symop_operation_xyz
x,y,z
1/4-x,1/4-y,z
x,1/4-y,1/4-z
1/4-x,y,1/4-z
-x,-y,-z
3/4+x,3/4+y,-z
-x,3/4+y,3/4+z
3/4+x,-y,3/4+z
x,1/2+y,1/2+z
1/4-x,3/4-y,1/2+z
x,3/4-y,3/4-z
1/4-x,1/2+y,3/4-z
-x,1/2-y,1/2-z
3/4+x,1/4+y,1/2-z
-x,1/4+y,1/4+z
3/4+x,1/2-y,1/4+z
1/2+x,y,1/2+z
3/4-x,1/4-y,1/2+z
1/2+x,1/4-y,3/4-z
3/4-x,y,3/4-z
1/2-x,-y,1/2-z
1/4+x,3/4+y,1/2-z
1/2-x,3/4+y,1/4+z
1/4+x,-y,1/4+z
1/2+x,1/2+y,z
3/4-x,3/4-y,z
1/2+x,3/4-y,1/4-z
3/4-x,1/2+y,1/4-z
1/2-x,1/2-y,-z
1/4+x,1/4+y,-z
1/2-x,1/4+y,3/4+z
1/4+x,1/2-y,3/4+z
loop_
_atom_site_type_symbol
_atom_site_label
_atom_site_fract_x
_atom_site_fract_y
_atom_site_fract_z
Si Si1 0.462259 0.540888 0.278646
Si Si2 0.644265 0.552348 0.010393
Si Si3 0.925527 0.125000 0.625000
Si Si4 0.147446 0.200368 0.486441
Si Si5 0.315156 0.178330 0.034221
Si Si6 0.240632 0.995703 0.659896
Si Si7 0.207644 0.625000 0.625000
O O1 0.538803 0.524402 0.267985
O O2 0.418065 0.496402 0.232412
O O3 0.449616 0.619592 0.264427
O O4 0.453086 0.524868 0.349091
O O5 0.625000 0.625000 0.981599
O O6 0.668576 0.575273 0.078107
O O7 0.586123 0.498753 0.997567
O O8 0.878234 0.154616 0.573254
O O9 0.971933 0.183482 0.650272
O O10 0.125000 0.125000 0.504613
O O11 0.188629 0.241130 0.537124
O O12 0.199123 0.196575 0.430718
O O13 0.254510 0.171598 0.082018
#
# Coordination Sequence:
#
# PCOD9515960 Si02
#       7
#    32  32  16  32  32  32  16
#     4  11  23  42  67 102 133 181 235 282 349 425
#     4  11  24  44  71  98 137 184 236 292 355 421
#     4  11  18  42  72  89 131 190 215 288 342 415
#     4  11  25  43  63  99 140 176 228 283 345 417
#     4  10  22  43  72  99 138 180 237 286 355 422
#     4  11  23  40  68  98 136 179 232 280 347 415
#     4   9  23  44  71 105 138 185 235 294 358 425
#
# _framework density 21.872582000000001
#
# number of rings (size 3 to 8) (size 9 to 14) (size 15 to 20)
#    0.000    1.333    3.333    1.750    0.000    4.000 
#    0.000   11.667    0.000    0.000    0.000    0.000 
#    0.000    0.000    0.000    0.000    0.000    0.000 
#
# Total GULP energy -267899.767719 kJ/mol
# GULP energy per Si atom -5581.245161 kJ/mol
# Density = 2.182280 g / cm^3
# Si number density = 21.872582 Si / 1000 Ang^3
#
#
#
# Elastic Constant Matrix: (Units=GPa)
#
#
# Indices 1 2 3 4 5 6 
#
# 1 88.5928 36.5710 26.0530 0.0000 0.0000 0.0000
# 2 36.5710 112.0249 27.9834 0.0000 0.0000 0.0000
# 3 26.0530 27.9834 57.0237 0.0000 0.0000 0.0000
# 4 0.0000 0.0000 0.0000 32.5222 0.0000 0.0000
# 5 0.0000 0.0000 0.0000 0.0000 55.5322 0.0000
# 6 0.0000 0.0000 0.0000 0.0000 0.0000 39.9516
#
#
#
# Elastic Compliance Matrix: (Units=1/GPa)
#
#
# Indices 1 2 3 4 5 6 
#
# 1 0.014098 -0.003412 -0.004767 0.000000 0.000000 0.000000
# 2 -0.003412 0.010999 -0.003839 0.000000 0.000000 0.000000
# 3 -0.004767 -0.003839 0.021598 0.000000 0.000000 0.000000
# 4 0.000000 0.000000 0.000000 0.030748 0.000000 0.000000
# 5 0.000000 0.000000 0.000000 0.000000 0.018008 0.000000
# 6 0.000000 0.000000 0.000000 0.000000 0.000000 0.025030
#
#
# Mechanical properties :
#
#
# Convention : Reuss Voigt Hill
#
# Bulk Modulus (GPa) = 44.12949 48.76179 46.44564
# Shear Modulus (GPa) = 32.87965 36.73679 34.80822
#
# Velocity S-wave (km/s) = 3.88137 4.10272 3.99357
# Velocity P-wave (km/s) = 6.34871 6.69216 6.52270
#
# Compressibility (1/GPa) = 0.02266058
#
# Stress axis : x y z
#
# Youngs Moduli (GPa) = 70.93367 90.91510 46.29977
#
# Poissons Ratio (x) = 0.31016 0.22070
# Poissons Ratio (y) = 0.24199 0.17775
# Poissons Ratio (z) = 0.33813 0.34903
#
# Static dielectric constant tensor:
#      x y z
#    x 1.871300 0.000000 0.000000 
#    y 0.000000 1.843280 0.000000 
#    z 0.000000 0.000000 1.858980 
# 
# From -- ./inp_files/53017.got.cif
#   From: 2010.05.17/outbox.cif.g08.bks.cpg/sg70_27_cif.got.tgz:53017.got - 2010.06.03 15:57:51.
