data_PCOD9515683
_publ_section_title
;
Structure prediction by ZEFSAII (Michael W. Deem and Ramdas Pophale) SiO2 
 PCOD9515683
Probable space group: F D D D
;
_chemical_formula_sum "Si O2"
_cell_formula_units_Z 176
_cell_length_a 14.193639
_cell_length_b 24.050862
_cell_length_c 22.728978
_cell_angle_alpha 90.000000
_cell_angle_beta 90.000000
_cell_angle_gamma 90.000000
_cell_volume 7758.974238
_symmetry_space_group_name_H-M "F D D D"
_symmetry_group_IT_number 70
_space_group.IT_coordinate_system_code '2'
_symmetry_cell_setting 'orthorhombic'
loop_
_space_group_symop_operation_xyz
x,y,z
1/4-x,1/4-y,z
x,1/4-y,1/4-z
1/4-x,y,1/4-z
-x,-y,-z
3/4+x,3/4+y,-z
-x,3/4+y,3/4+z
3/4+x,-y,3/4+z
x,1/2+y,1/2+z
1/4-x,3/4-y,1/2+z
x,3/4-y,3/4-z
1/4-x,1/2+y,3/4-z
-x,1/2-y,1/2-z
3/4+x,1/4+y,1/2-z
-x,1/4+y,1/4+z
3/4+x,1/2-y,1/4+z
1/2+x,y,1/2+z
3/4-x,1/4-y,1/2+z
1/2+x,1/4-y,3/4-z
3/4-x,y,3/4-z
1/2-x,-y,1/2-z
1/4+x,3/4+y,1/2-z
1/2-x,3/4+y,1/4+z
1/4+x,-y,1/4+z
1/2+x,1/2+y,z
3/4-x,3/4-y,z
1/2+x,3/4-y,1/4-z
3/4-x,1/2+y,1/4-z
1/2-x,1/2-y,-z
1/4+x,1/4+y,-z
1/2-x,1/4+y,3/4+z
1/4+x,1/2-y,3/4+z
loop_
_atom_site_type_symbol
_atom_site_label
_atom_site_fract_x
_atom_site_fract_y
_atom_site_fract_z
Si Si1 0.375000 0.375000 0.167139
Si Si2 0.541442 0.189426 0.239758
Si Si3 0.231470 0.682396 0.823149
Si Si4 0.367254 0.107732 0.255757
Si Si5 0.625000 0.965785 0.625000
Si Si6 0.375000 0.477536 0.375000
Si Si7 0.800284 0.009320 0.687660
O O1 0.378624 0.323341 0.211778
O O2 0.287822 0.387354 0.124458
O O3 0.500000 0.250000 0.250000
O O4 0.459105 0.145069 0.247528
O O5 0.581338 0.190033 0.175070
O O6 0.279533 0.648887 0.770267
O O7 0.300752 0.730349 0.845353
O O8 0.131626 0.712765 0.815486
O O9 0.381964 0.070515 0.314946
O O10 0.347488 0.069351 0.198947
O O11 0.720695 0.001495 0.637583
O O12 0.750000 0.000000 0.750000
#
# Coordination Sequence:
#
# PCOD9515683 Si02
#       7
#    16  32  32  32  16  16  32
#     4  12  24  41  78 100 138 203 242 290 370 426
#     4  12  25  46  72 107 151 196 244 307 365 440
#     4  12  23  46  79 106 138 193 256 295 354 460
#     4  11  23  44  76 108 144 195 242 295 378 430
#     4  10  21  46  76 108 141 191 252 297 356 450
#     4  12  27  49  68 109 153 186 244 310 358 438
#     4  10  24  44  73 104 145 183 242 308 354 428
#
# _framework density 22.683411
#
# number of rings (size 3 to 8) (size 9 to 14) (size 15 to 20)
#    0.000    0.727    3.636    4.909    2.545    0.364 
#    6.545    0.000    4.000    0.000    0.000    0.000 
#    0.000    0.000    0.000    0.000    0.000    0.000 
#
# Total GULP energy -246014.515064 kJ/mol
# GULP energy per Si atom -5591.238979 kJ/mol
# Density = 2.263178 g / cm^3
# Si number density = 22.683411 Si / 1000 Ang^3
#
#
#
# Elastic Constant Matrix: (Units=GPa)
#
#
# Indices 1 2 3 4 5 6 
#
# 1 138.6377 79.6496 56.4449 0.0000 0.0000 0.0000
# 2 79.6496 127.3216 56.9548 0.0000 0.0000 0.0000
# 3 56.4449 56.9548 91.7117 0.0000 0.0000 0.0000
# 4 0.0000 0.0000 0.0000 41.3319 0.0000 0.0000
# 5 0.0000 0.0000 0.0000 0.0000 39.1236 0.0000
# 6 0.0000 0.0000 0.0000 0.0000 0.0000 45.6103
#
#
#
# Elastic Compliance Matrix: (Units=1/GPa)
#
#
# Indices 1 2 3 4 5 6 
#
# 1 0.012155 -0.005895 -0.003820 0.000000 0.000000 0.000000
# 2 -0.005895 0.013734 -0.004901 0.000000 0.000000 0.000000
# 3 -0.003820 -0.004901 0.016298 0.000000 0.000000 0.000000
# 4 0.000000 0.000000 0.000000 0.024194 0.000000 0.000000
# 5 0.000000 0.000000 0.000000 0.000000 0.025560 0.000000
# 6 0.000000 0.000000 0.000000 0.000000 0.000000 0.021925
#
#
# Mechanical properties :
#
#
# Convention : Reuss Voigt Hill
#
# Bulk Modulus (GPa) = 77.18727 82.64105 79.91416
# Shear Modulus (GPa) = 33.91702 36.18794 35.05248
#
# Velocity S-wave (km/s) = 3.87102 3.99851 3.93528
# Velocity P-wave (km/s) = 7.35402 7.60454 7.48033
#
# Compressibility (1/GPa) = 0.01295550
#
# Stress axis : x y z
#
# Youngs Moduli (GPa) = 82.26913 72.80949 61.35544
#
# Poissons Ratio (x) = 0.42923 0.23438
# Poissons Ratio (y) = 0.48500 0.30071
# Poissons Ratio (z) = 0.31427 0.35685
#
# Static dielectric constant tensor:
#      x y z
#    x 1.977720 0.000000 0.000000 
#    y 0.000000 1.884450 0.000000 
#    z 0.000000 0.000000 1.838880 
# 
# From -- ./inp_files/51237.got.cif
#   From: 2010.05.17/outbox.cif.g08.bks.cpg/sg70_26_cif.got.tgz:51237.got - 2010.06.03 15:57:51.
