data_PCOD9515695
_publ_section_title
;
Structure prediction by ZEFSAII (Michael W. Deem and Ramdas Pophale) SiO2 
 PCOD9515695
Probable space group: F D D D
;
_chemical_formula_sum "Si O2"
_cell_formula_units_Z 160
_cell_length_a 15.068514
_cell_length_b 22.325442
_cell_length_c 21.238082
_cell_angle_alpha 90.000000
_cell_angle_beta 90.000000
_cell_angle_gamma 90.000000
_cell_volume 7144.729402
_symmetry_space_group_name_H-M "F D D D"
_symmetry_group_IT_number 70
_space_group.IT_coordinate_system_code '2'
_symmetry_cell_setting 'orthorhombic'
loop_
_space_group_symop_operation_xyz
x,y,z
1/4-x,1/4-y,z
x,1/4-y,1/4-z
1/4-x,y,1/4-z
-x,-y,-z
3/4+x,3/4+y,-z
-x,3/4+y,3/4+z
3/4+x,-y,3/4+z
x,1/2+y,1/2+z
1/4-x,3/4-y,1/2+z
x,3/4-y,3/4-z
1/4-x,1/2+y,3/4-z
-x,1/2-y,1/2-z
3/4+x,1/4+y,1/2-z
-x,1/4+y,1/4+z
3/4+x,1/2-y,1/4+z
1/2+x,y,1/2+z
3/4-x,1/4-y,1/2+z
1/2+x,1/4-y,3/4-z
3/4-x,y,3/4-z
1/2-x,-y,1/2-z
1/4+x,3/4+y,1/2-z
1/2-x,3/4+y,1/4+z
1/4+x,-y,1/4+z
1/2+x,1/2+y,z
3/4-x,3/4-y,z
1/2+x,3/4-y,1/4-z
3/4-x,1/2+y,1/4-z
1/2-x,1/2-y,-z
1/4+x,1/4+y,-z
1/2-x,1/4+y,3/4+z
1/4+x,1/2-y,3/4+z
loop_
_atom_site_type_symbol
_atom_site_label
_atom_site_fract_x
_atom_site_fract_y
_atom_site_fract_z
Si Si1 0.724305 0.961260 0.146868
Si Si2 0.000508 0.474769 0.243935
Si Si3 0.665942 0.686971 0.516022
Si Si4 0.421807 0.518316 0.934975
Si Si5 0.526208 0.600039 0.025851
O O1 0.625000 0.942401 0.125000
O O2 0.770937 0.961789 0.079513
O O3 0.772929 0.926989 0.203918
O O4 0.716086 0.027441 0.178421
O O5 0.911392 0.503812 0.270535
O O6 0.026028 0.412309 0.278630
O O7 0.083632 0.519069 0.249980
O O8 0.625000 0.625000 0.537637
O O9 0.375000 0.545119 0.875000
O O10 0.467010 0.452923 0.922149
O O11 0.489880 0.562803 0.966896
O O12 0.625000 0.625000 0.017918
#
# Coordination Sequence:
#
# PCOD9515695 Si02
#       5
#    32  32  32  32  32
#     4   9  21  41  60  86 123 160 209 263 309 371
#     4  10  22  36  58  90 122 160 206 260 318 380
#     4  10  22  39  62  89 122 165 209 260 319 375
#     4  10  22  39  62  89 122 165 209 260 319 375
#     4   9  21  41  60  86 123 160 209 263 309 371
#
# _framework density 22.394131000000002
#
# number of rings (size 3 to 8) (size 9 to 14) (size 15 to 20)
#    0.000    2.400    0.000    0.000    0.000   23.200 
#    0.000    0.000    0.000    0.000    0.000    0.000 
#    0.000    0.000    0.000    0.000    0.000    0.000 
#
# Total GULP energy -223020.049571 kJ/mol
# GULP energy per Si atom -5575.501239 kJ/mol
# Density = 2.234316 g / cm^3
# Si number density = 22.394131 Si / 1000 Ang^3
#
#
#
# Elastic Constant Matrix: (Units=GPa)
#
#
# Indices 1 2 3 4 5 6 
#
# 1 15.4682 13.9958 -3.5223 0.0000 0.0000 0.0000
# 2 13.9958 108.7310 -20.0960 0.0000 0.0000 0.0000
# 3 -3.5223 -20.0960 68.7764 0.0000 0.0000 0.0000
# 4 0.0000 0.0000 0.0000 -0.9803 0.0000 0.0000
# 5 0.0000 0.0000 0.0000 0.0000 46.1869 0.0000
# 6 0.0000 0.0000 0.0000 0.0000 0.0000 39.1421
#
#
#
# Elastic Compliance Matrix: (Units=1/GPa)
#
#
# Indices 1 2 3 4 5 6 
#
# 1 0.073243 -0.009233 0.001053 0.000000 0.000000 0.000000
# 2 -0.009233 0.010886 0.002708 0.000000 0.000000 0.000000
# 3 0.001053 0.002708 0.015385 0.000000 0.000000 0.000000
# 4 0.000000 0.000000 0.000000 -1.020127 0.000000 0.000000
# 5 0.000000 0.000000 0.000000 0.000000 0.021651 0.000000
# 6 0.000000 0.000000 0.000000 0.000000 0.000000 0.025548
#
#
# Mechanical properties :
#
#
# Convention : Reuss Voigt Hill
#
# Bulk Modulus (GPa) = 11.29051 19.30338 15.29695
# Shear Modulus (GPa) = -6.00279 30.37630 12.18675
#
# Velocity S-wave (km/s) = -1.63900 3.68698 2.33533
# Velocity P-wave (km/s) = 1.21280 5.17336 3.75730
#
# Compressibility (1/GPa) = 0.08856993
#
# Stress axis : x y z
#
# Youngs Moduli (GPa) = 13.65321 91.86130 64.99815
#
# Poissons Ratio (x) = 0.84816 -0.06845
# Poissons Ratio (y) = 0.12606 -0.17601
# Poissons Ratio (z) = -0.01438 -0.24876
#
# Static dielectric constant tensor:
#      x y z
#    x 1.862880 0.000000 0.000000 
#    y 0.000000 1.893000 0.000000 
#    z 0.000000 0.000000 1.917780 
# 
# From -- ./inp_files/43643.got.cif
#   From: 2010.05.17/outbox.cif.g08.bks.cpg/sg70_22_cif.got.tgz:43643.got - 2010.06.03 15:57:51.
