data_PCOD9515218
_publ_section_title
;
Structure prediction by ZEFSAII (Michael W. Deem and Ramdas Pophale) SiO2 
 PCOD9515218
Probable space group: F D D D
;
_chemical_formula_sum "Si O2"
_cell_formula_units_Z 104
_cell_length_a 17.109970
_cell_length_b 9.303836
_cell_length_c 30.306331
_cell_angle_alpha 90.000000
_cell_angle_beta 90.000000
_cell_angle_gamma 90.000000
_cell_volume 4824.414973
_symmetry_space_group_name_H-M "F D D D"
_symmetry_group_IT_number 70
_space_group.IT_coordinate_system_code '2'
_symmetry_cell_setting 'orthorhombic'
loop_
_space_group_symop_operation_xyz
x,y,z
1/4-x,1/4-y,z
x,1/4-y,1/4-z
1/4-x,y,1/4-z
-x,-y,-z
3/4+x,3/4+y,-z
-x,3/4+y,3/4+z
3/4+x,-y,3/4+z
x,1/2+y,1/2+z
1/4-x,3/4-y,1/2+z
x,3/4-y,3/4-z
1/4-x,1/2+y,3/4-z
-x,1/2-y,1/2-z
3/4+x,1/4+y,1/2-z
-x,1/4+y,1/4+z
3/4+x,1/2-y,1/4+z
1/2+x,y,1/2+z
3/4-x,1/4-y,1/2+z
1/2+x,1/4-y,3/4-z
3/4-x,y,3/4-z
1/2-x,-y,1/2-z
1/4+x,3/4+y,1/2-z
1/2-x,3/4+y,1/4+z
1/4+x,-y,1/4+z
1/2+x,1/2+y,z
3/4-x,3/4-y,z
1/2+x,3/4-y,1/4-z
3/4-x,1/2+y,1/4-z
1/2-x,1/2-y,-z
1/4+x,1/4+y,-z
1/2-x,1/4+y,3/4+z
1/4+x,1/2-y,3/4+z
loop_
_atom_site_type_symbol
_atom_site_label
_atom_site_fract_x
_atom_site_fract_y
_atom_site_fract_z
Si Si1 0.430495 0.006221 0.460172
Si Si2 0.087444 0.974375 0.484781
Si Si3 0.591573 0.970015 0.417911
Si Si4 0.625000 0.125000 0.625000
O O1 0.390817 0.151251 0.477143
O O2 0.375000 0.875000 0.477836
O O3 0.475299 0.012958 0.542945
O O4 0.418210 0.982931 0.407679
O O5 0.125000 0.125000 0.471749
O O6 0.091641 0.868518 0.443273
O O7 0.000000 0.000000 0.500000
O O8 0.625000 0.125000 0.405158
O O9 0.568785 0.875000 0.375000
#
# Coordination Sequence:
#
# PCOD9515218 Si02
#       4
#    32  32  32   8
#     4  10  20  43  67  91 125 181 224 259 329 409
#     4  12  25  41  65 101 136 170 216 282 338 398
#     4  12  24  42  65  95 129 175 223 278 333 402
#     4   8  20  36  74  84 124 168 240 256 320 396
#
# _framework density 21.557019
#
# number of rings (size 3 to 8) (size 9 to 14) (size 15 to 20)
#    0.923    0.000    1.538    6.462    0.000    2.462 
#    0.000    0.769    0.000    0.000    0.000    0.000 
#    0.000    0.000    0.000    0.000    0.000    0.000 
#
# Total GULP energy -144798.291401 kJ/mol
# GULP energy per Si atom -5569.165054 kJ/mol
# Density = 2.150795 g / cm^3
# Si number density = 21.557019 Si / 1000 Ang^3
#
#
#
# Elastic Constant Matrix: (Units=GPa)
#
#
# Indices 1 2 3 4 5 6 
#
# 1 133.3338 42.8917 33.1865 0.0000 0.0000 0.0000
# 2 42.8917 154.2916 46.1023 0.0000 0.0000 0.0000
# 3 33.1865 46.1023 56.5105 0.0000 0.0000 0.0000
# 4 0.0000 0.0000 0.0000 32.7557 0.0000 0.0000
# 5 0.0000 0.0000 0.0000 0.0000 -142.4783 0.0000
# 6 0.0000 0.0000 0.0000 0.0000 0.0000 -18.1380
#
#
#
# Elastic Compliance Matrix: (Units=1/GPa)
#
#
# Indices 1 2 3 4 5 6 
#
# 1 0.008953 -0.001214 -0.004267 0.000000 0.000000 0.000000
# 2 -0.001214 0.008735 -0.006413 0.000000 0.000000 0.000000
# 3 -0.004267 -0.006413 0.025434 0.000000 0.000000 0.000000
# 4 0.000000 0.000000 0.000000 0.030529 0.000000 0.000000
# 5 0.000000 0.000000 0.000000 0.000000 -0.007019 0.000000
# 6 0.000000 0.000000 0.000000 0.000000 0.000000 -0.055133
#
#
# Mechanical properties :
#
#
# Convention : Reuss Voigt Hill
#
# Bulk Modulus (GPa) = 51.72582 65.38855 58.55718
# Shear Modulus (GPa) = 119.81139 -10.77510 54.51814
#
# Velocity S-wave (km/s) = 7.46321 -2.23814 5.03439
# Velocity P-wave (km/s) = 9.91529 4.87028 7.81129
#
# Compressibility (1/GPa) = 0.01933271
#
# Stress axis : x y z
#
# Youngs Moduli (GPa) = 111.70038 114.48284 39.31735
#
# Poissons Ratio (x) = 0.13894 0.16778
# Poissons Ratio (y) = 0.13556 0.25216
# Poissons Ratio (z) = 0.47667 0.73422
#
# Static dielectric constant tensor:
#      x y z
#    x 1.953070 0.000000 0.000000 
#    y 0.000000 3.539760 0.000000 
#    z 0.000000 0.000000 1.905130 
# 
# From -- ./inp_files/59181.got.cif
#   From: 2010.05.17/outbox.cif.g08.bks.cpg/sg70_30_cif.got.tgz:59181.got - 2010.06.03 15:57:51.
