data_PCOD9515969
_publ_section_title
;
Structure prediction by ZEFSAII (Michael W. Deem and Ramdas Pophale) SiO2 
 PCOD9515969
Probable space group: F D D D
;
_chemical_formula_sum "Si O2"
_cell_formula_units_Z 240
_cell_length_a 27.922449
_cell_length_b 19.672579
_cell_length_c 19.268561
_cell_angle_alpha 90.000000
_cell_angle_beta 90.000000
_cell_angle_gamma 90.000000
_cell_volume 10584.347418
_symmetry_space_group_name_H-M "F D D D"
_symmetry_group_IT_number 70
_space_group.IT_coordinate_system_code '2'
_symmetry_cell_setting 'orthorhombic'
loop_
_space_group_symop_operation_xyz
x,y,z
1/4-x,1/4-y,z
x,1/4-y,1/4-z
1/4-x,y,1/4-z
-x,-y,-z
3/4+x,3/4+y,-z
-x,3/4+y,3/4+z
3/4+x,-y,3/4+z
x,1/2+y,1/2+z
1/4-x,3/4-y,1/2+z
x,3/4-y,3/4-z
1/4-x,1/2+y,3/4-z
-x,1/2-y,1/2-z
3/4+x,1/4+y,1/2-z
-x,1/4+y,1/4+z
3/4+x,1/2-y,1/4+z
1/2+x,y,1/2+z
3/4-x,1/4-y,1/2+z
1/2+x,1/4-y,3/4-z
3/4-x,y,3/4-z
1/2-x,-y,1/2-z
1/4+x,3/4+y,1/2-z
1/2-x,3/4+y,1/4+z
1/4+x,-y,1/4+z
1/2+x,1/2+y,z
3/4-x,3/4-y,z
1/2+x,3/4-y,1/4-z
3/4-x,1/2+y,1/4-z
1/2-x,1/2-y,-z
1/4+x,1/4+y,-z
1/2-x,1/4+y,3/4+z
1/4+x,1/2-y,3/4+z
loop_
_atom_site_type_symbol
_atom_site_label
_atom_site_fract_x
_atom_site_fract_y
_atom_site_fract_z
Si Si1 0.726630 0.844723 0.297625
Si Si2 0.177976 0.593344 0.261665
Si Si3 0.568159 0.856975 0.213665
Si Si4 0.536051 0.605863 0.904110
Si Si5 0.395531 0.554824 0.508783
Si Si6 0.659484 0.973031 0.846600
Si Si7 0.125000 0.501775 0.625000
Si Si8 0.075278 0.539133 0.756407
O O1 0.719507 0.875000 0.375000
O O2 0.780345 0.866392 0.277844
O O3 0.685029 0.885664 0.256431
O O4 0.715844 0.765901 0.279200
O O5 0.125000 0.625000 0.256152
O O6 0.195719 0.597975 0.340997
O O7 0.171712 0.515087 0.241098
O O8 0.518516 0.864685 0.174885
O O9 0.601377 0.923376 0.210895
O O10 0.567308 0.833049 0.295002
O O11 0.594529 0.796734 0.174320
O O12 0.550560 0.529152 0.885499
O O13 0.563207 0.635232 0.970524
O O14 0.370666 0.548253 0.585257
O O15 0.619993 0.011725 0.800588
O O16 0.088757 0.539406 0.676017
#
# Coordination Sequence:
#
# PCOD9515969 Si02
#       8
#    32  32  32  32  32  32  16  32
#     4  12  23  44  72 102 139 184 243 284 365 439
#     4  12  26  44  71 102 143 186 234 304 359 436
#     4  11  25  40  69  99 139 180 237 295 348 429
#     4  12  24  42  68 105 138 187 235 291 361 420
#     4  12  22  46  70  98 135 195 239 291 361 431
#     4  11  21  44  69  96 135 187 237 285 350 434
#     4  10  22  44  63  96 139 176 222 290 344 414
#     4  11  22  41  71  96 138 184 226 286 354 430
#
# _framework density 22.674993000000001
#
# number of rings (size 3 to 8) (size 9 to 14) (size 15 to 20)
#    0.000    0.533    6.667    2.400    1.867    1.333 
#    0.000    8.000    0.000    0.000    0.000    0.000 
#    0.000    0.000    0.000    0.000    0.000    0.000 
#
# Total GULP energy -335308.848695 kJ/mol
# GULP energy per Si atom -5588.480812 kJ/mol
# Density = 2.262338 g / cm^3
# Si number density = 22.674993 Si / 1000 Ang^3
#
#
#
# Elastic Constant Matrix: (Units=GPa)
#
#
# Indices 1 2 3 4 5 6 
#
# 1 143.1224 27.3147 12.6283 0.0000 0.0000 0.0000
# 2 27.3147 64.6637 -11.1714 0.0000 0.0000 0.0000
# 3 12.6283 -11.1714 45.3088 0.0000 0.0000 0.0000
# 4 0.0000 0.0000 0.0000 13.1267 0.0000 0.0000
# 5 0.0000 0.0000 0.0000 0.0000 33.3304 0.0000
# 6 0.0000 0.0000 0.0000 0.0000 0.0000 26.7381
#
#
#
# Elastic Compliance Matrix: (Units=1/GPa)
#
#
# Indices 1 2 3 4 5 6 
#
# 1 0.008023 -0.003943 -0.003208 0.000000 0.000000 0.000000
# 2 -0.003943 0.018091 0.005559 0.000000 0.000000 0.000000
# 3 -0.003208 0.005559 0.024336 0.000000 0.000000 0.000000
# 4 0.000000 0.000000 0.000000 0.076181 0.000000 0.000000
# 5 0.000000 0.000000 0.000000 0.000000 0.030003 0.000000
# 6 0.000000 0.000000 0.000000 0.000000 0.000000 0.037400
#
#
# Mechanical properties :
#
#
# Convention : Reuss Voigt Hill
#
# Bulk Modulus (GPa) = 21.15721 34.51535 27.83628
# Shear Modulus (GPa) = 23.47736 29.59392 26.53564
#
# Velocity S-wave (km/s) = 3.22123 3.61658 3.42462
# Velocity P-wave (km/s) = 4.81518 5.71790 5.28585
#
# Compressibility (1/GPa) = 0.04726522
#
# Stress axis : x y z
#
# Youngs Moduli (GPa) = 124.64729 55.27707 41.09188
#
# Poissons Ratio (x) = 0.21796 0.13183
# Poissons Ratio (y) = 0.49150 -0.22845
# Poissons Ratio (z) = 0.39990 -0.30731
#
# Static dielectric constant tensor:
#      x y z
#    x 1.785230 0.000000 0.000000 
#    y 0.000000 1.868080 0.000000 
#    z 0.000000 0.000000 1.918570 
# 
# From -- ./inp_files/47118.got.cif
#   From: 2010.05.17/outbox.cif.g08.bks.cpg/sg70_24_cif.got.tgz:47118.got - 2010.06.03 15:57:51.
