data_PCOD9515304
_publ_section_title
;
Structure prediction by ZEFSAII (Michael W. Deem and Ramdas Pophale) SiO2 
 PCOD9515304
Probable space group: F D D D
;
_chemical_formula_sum "Si O2"
_cell_formula_units_Z 176
_cell_length_a 25.440524
_cell_length_b 14.971869
_cell_length_c 21.105339
_cell_angle_alpha 90.000000
_cell_angle_beta 90.000000
_cell_angle_gamma 90.000000
_cell_volume 8038.858848
_symmetry_space_group_name_H-M "F D D D"
_symmetry_group_IT_number 70
_space_group.IT_coordinate_system_code '2'
_symmetry_cell_setting 'orthorhombic'
loop_
_space_group_symop_operation_xyz
x,y,z
1/4-x,1/4-y,z
x,1/4-y,1/4-z
1/4-x,y,1/4-z
-x,-y,-z
3/4+x,3/4+y,-z
-x,3/4+y,3/4+z
3/4+x,-y,3/4+z
x,1/2+y,1/2+z
1/4-x,3/4-y,1/2+z
x,3/4-y,3/4-z
1/4-x,1/2+y,3/4-z
-x,1/2-y,1/2-z
3/4+x,1/4+y,1/2-z
-x,1/4+y,1/4+z
3/4+x,1/2-y,1/4+z
1/2+x,y,1/2+z
3/4-x,1/4-y,1/2+z
1/2+x,1/4-y,3/4-z
3/4-x,y,3/4-z
1/2-x,-y,1/2-z
1/4+x,3/4+y,1/2-z
1/2-x,3/4+y,1/4+z
1/4+x,-y,1/4+z
1/2+x,1/2+y,z
3/4-x,3/4-y,z
1/2+x,3/4-y,1/4-z
3/4-x,1/2+y,1/4-z
1/2-x,1/2-y,-z
1/4+x,1/4+y,-z
1/2-x,1/4+y,3/4+z
1/4+x,1/2-y,3/4+z
loop_
_atom_site_type_symbol
_atom_site_label
_atom_site_fract_x
_atom_site_fract_y
_atom_site_fract_z
Si Si1 0.209490 0.551563 0.707133
Si Si2 0.468983 0.875000 0.875000
Si Si3 0.190379 0.004044 0.887743
Si Si4 0.625000 0.625000 0.968227
Si Si5 0.564687 0.651272 0.763702
Si Si6 0.756633 0.735872 0.176741
Si Si7 0.147658 0.875000 0.375000
O O1 0.250000 0.500000 0.750000
O O2 0.150918 0.551703 0.734842
O O3 0.225461 0.656442 0.711165
O O4 0.222234 0.511163 0.637944
O O5 0.505393 0.955402 0.848388
O O6 0.440294 0.839001 0.812098
O O7 0.143205 0.939355 0.909698
O O8 0.172119 0.095113 0.920857
O O9 0.192124 0.015622 0.811433
O O10 0.625000 0.625000 0.775629
O O11 0.522501 0.577723 0.789638
O O12 0.812954 0.689530 0.161976
#
# Coordination Sequence:
#
# PCOD9515304 Si02
#       7
#    32  16  32  16  32  32  16
#     4  10  21  36  60  94 129 159 214 261 316 381
#     4  11  27  40  61  96 124 163 214 281 317 380
#     4  11  21  38  64  88 124 165 218 255 322 395
#     4  12  20  37  64  95 118 174 210 256 320 394
#     4  12  22  42  66  91 126 170 216 261 335 395
#     4  10  21  37  60  94 128 162 203 269 321 381
#     4   9  16  34  57  87 113 163 210 244 305 382
#
# _framework density 21.893654999999999
#
# number of rings (size 3 to 8) (size 9 to 14) (size 15 to 20)
#    0.000    1.455    2.727    5.182    0.000    1.455 
#    0.000    0.000    0.000    0.000    4.727    0.000 
#    0.000    0.000    0.000    0.000    0.000    0.000 
#
# Total GULP energy -244982.784852 kJ/mol
# GULP energy per Si atom -5567.790565 kJ/mol
# Density = 2.184382 g / cm^3
# Si number density = 21.893655 Si / 1000 Ang^3
#
#
#
# Elastic Constant Matrix: (Units=GPa)
#
#
# Indices 1 2 3 4 5 6 
#
# 1 54.8600 1.9023 33.4154 0.0000 0.0000 0.0000
# 2 1.9023 39.7511 24.1756 0.0000 0.0000 0.0000
# 3 33.4154 24.1756 133.6463 0.0000 0.0000 0.0000
# 4 0.0000 0.0000 0.0000 30.8556 0.0000 0.0000
# 5 0.0000 0.0000 0.0000 0.0000 142.7923 0.0000
# 6 0.0000 0.0000 0.0000 0.0000 0.0000 32.5030
#
#
#
# Elastic Compliance Matrix: (Units=1/GPa)
#
#
# Indices 1 2 3 4 5 6 
#
# 1 0.021730 0.002544 -0.005893 0.000000 0.000000 0.000000
# 2 0.002544 0.028564 -0.005803 0.000000 0.000000 0.000000
# 3 -0.005893 -0.005803 0.010006 0.000000 0.000000 0.000000
# 4 0.000000 0.000000 0.000000 0.032409 0.000000 0.000000
# 5 0.000000 0.000000 0.000000 0.000000 0.007003 0.000000
# 6 0.000000 0.000000 0.000000 0.000000 0.000000 0.030766
#
#
# Mechanical properties :
#
#
# Convention : Reuss Voigt Hill
#
# Bulk Modulus (GPa) = 23.81236 38.58268 31.19752
# Shear Modulus (GPa) = 30.71618 52.48112 41.59865
#
# Velocity S-wave (km/s) = 3.74969 4.90132 4.36366
# Velocity P-wave (km/s) = 5.44490 7.04923 6.29835
#
# Compressibility (1/GPa) = 0.04199500
#
# Stress axis : x y z
#
# Youngs Moduli (GPa) = 46.02022 35.00895 99.94341
#
# Poissons Ratio (x) = -0.08907 0.58899
# Poissons Ratio (y) = -0.11709 0.57999
# Poissons Ratio (z) = 0.27121 0.20316
#
# Static dielectric constant tensor:
#      x y z
#    x 1.832570 0.000000 0.000000 
#    y 0.000000 1.811980 0.000000 
#    z 0.000000 0.000000 1.854710 
# 
# From -- ./inp_files/38591.got.cif
#   From: 2010.05.17/outbox.cif.g08.bks.cpg/sg70_20_cif.got.tgz:38591.got - 2010.06.03 15:57:51.
