data_PCOD9515459
_publ_section_title
;
Structure prediction by ZEFSAII (Michael W. Deem and Ramdas Pophale) SiO2 
 PCOD9515459
Probable space group: F D D D
;
_chemical_formula_sum "Si O2"
_cell_formula_units_Z 168
_cell_length_a 17.190436
_cell_length_b 24.579728
_cell_length_c 18.796114
_cell_angle_alpha 90.000000
_cell_angle_beta 90.000000
_cell_angle_gamma 90.000000
_cell_volume 7942.039356
_symmetry_space_group_name_H-M "F D D D"
_symmetry_group_IT_number 70
_space_group.IT_coordinate_system_code '2'
_symmetry_cell_setting 'orthorhombic'
loop_
_space_group_symop_operation_xyz
x,y,z
1/4-x,1/4-y,z
x,1/4-y,1/4-z
1/4-x,y,1/4-z
-x,-y,-z
3/4+x,3/4+y,-z
-x,3/4+y,3/4+z
3/4+x,-y,3/4+z
x,1/2+y,1/2+z
1/4-x,3/4-y,1/2+z
x,3/4-y,3/4-z
1/4-x,1/2+y,3/4-z
-x,1/2-y,1/2-z
3/4+x,1/4+y,1/2-z
-x,1/4+y,1/4+z
3/4+x,1/2-y,1/4+z
1/2+x,y,1/2+z
3/4-x,1/4-y,1/2+z
1/2+x,1/4-y,3/4-z
3/4-x,y,3/4-z
1/2-x,-y,1/2-z
1/4+x,3/4+y,1/2-z
1/2-x,3/4+y,1/4+z
1/4+x,-y,1/4+z
1/2+x,1/2+y,z
3/4-x,3/4-y,z
1/2+x,3/4-y,1/4-z
3/4-x,1/2+y,1/4-z
1/2-x,1/2-y,-z
1/4+x,1/4+y,-z
1/2-x,1/4+y,3/4+z
1/4+x,1/2-y,3/4+z
loop_
_atom_site_type_symbol
_atom_site_label
_atom_site_fract_x
_atom_site_fract_y
_atom_site_fract_z
Si Si1 0.056347 0.451817 0.972308
Si Si2 0.823750 0.745355 0.680327
Si Si3 0.273429 0.413044 0.501813
Si Si4 0.875000 0.375000 0.875000
Si Si5 0.810055 0.831793 0.083385
Si Si6 0.059590 0.417049 0.184726
O O1 0.068879 0.457600 0.888707
O O2 0.014815 0.396078 0.994254
O O3 0.142888 0.447636 0.003896
O O4 0.000000 0.500000 0.000000
O O5 0.791208 0.709375 0.744020
O O6 0.907050 0.773564 0.690102
O O7 0.761290 0.793320 0.664484
O O8 0.329557 0.413538 0.431868
O O9 0.310106 0.418385 0.579868
O O10 0.875000 0.875000 0.058905
O O11 0.729512 0.857755 0.055787
O O12 0.125000 0.412200 0.125000
#
# Coordination Sequence:
#
# PCOD9515459 Si02
#       6
#    32  32  32   8  32  32
#     4  12  22  35  57  88 120 156 197 250 311 373
#     4  11  23  35  56  86 121 155 196 250 304 361
#     4  12  23  35  55  87 128 155 199 247 310 370
#     4  12  24  32  52  92 128 156 186 248 310 380
#     4  10  21  40  56  81 120 161 200 243 297 373
#     4  11  21  36  60  81 114 163 200 237 302 371
#
# _framework density 21.153257
#
# number of rings (size 3 to 8) (size 9 to 14) (size 15 to 20)
#    0.000    0.762    6.667    2.286    4.000    0.000 
#    0.000    0.952    0.000    0.000    0.000    0.000 
#    0.000    0.000    0.000    0.000    0.000    0.000 
#
# Total GULP energy -234392.060000 kJ/mol
# GULP energy per Si atom -5580.763333 kJ/mol
# Density = 2.110511 g / cm^3
# Si number density = 21.153257 Si / 1000 Ang^3
#
#
#
# Elastic Constant Matrix: (Units=GPa)
#
#
# Indices 1 2 3 4 5 6 
#
# 1 83.6241 33.5170 14.0724 0.0000 0.0000 0.0000
# 2 33.5170 101.5140 -5.9268 0.0000 0.0000 0.0000
# 3 14.0724 -5.9268 22.8181 0.0000 0.0000 0.0000
# 4 0.0000 0.0000 0.0000 9.4453 0.0000 0.0000
# 5 0.0000 0.0000 0.0000 0.0000 24.4672 0.0000
# 6 0.0000 0.0000 0.0000 0.0000 0.0000 49.8546
#
#
#
# Elastic Compliance Matrix: (Units=1/GPa)
#
#
# Indices 1 2 3 4 5 6 
#
# 1 0.016360 -0.006083 -0.011670 0.000000 0.000000 0.000000
# 2 -0.006083 0.012264 0.006937 0.000000 0.000000 0.000000
# 3 -0.011670 0.006937 0.052824 0.000000 0.000000 0.000000
# 4 0.000000 0.000000 0.000000 0.105873 0.000000 0.000000
# 5 0.000000 0.000000 0.000000 0.000000 0.040871 0.000000
# 6 0.000000 0.000000 0.000000 0.000000 0.000000 0.020058
#
#
# Mechanical properties :
#
#
# Convention : Reuss Voigt Hill
#
# Bulk Modulus (GPa) = 16.71769 32.36462 24.54115
# Shear Modulus (GPa) = 17.25206 27.83965 22.54585
#
# Velocity S-wave (km/s) = 2.85893 3.63173 3.26825
# Velocity P-wave (km/s) = 4.33800 5.73753 5.08613
#
# Compressibility (1/GPa) = 0.05981688
#
# Stress axis : x y z
#
# Youngs Moduli (GPa) = 61.12413 81.53759 18.93091
#
# Poissons Ratio (x) = 0.49599 0.22092
# Poissons Ratio (y) = 0.37182 -0.13132
# Poissons Ratio (z) = 0.71330 -0.56563
#
# Static dielectric constant tensor:
#      x y z
#    x 1.903130 0.000000 0.000000 
#    y 0.000000 1.800610 0.000000 
#    z 0.000000 0.000000 1.822610 
# 
# From -- ./inp_files/29852.got.cif
#   From: 2010.05.17/outbox.cif.g08.bks.cpg/sg70_15_cif.got.tgz:29852.got - 2010.06.03 15:57:51.
