data_PCOD9515989
_publ_section_title
;
Structure prediction by ZEFSAII (Michael W. Deem and Ramdas Pophale) SiO2 
 PCOD9515989
Probable space group: F D D D
;
_chemical_formula_sum "Si O2"
_cell_formula_units_Z 112
_cell_length_a 10.549236
_cell_length_b 16.584582
_cell_length_c 24.982916
_cell_angle_alpha 90.000000
_cell_angle_beta 90.000000
_cell_angle_gamma 90.000000
_cell_volume 4370.877811
_symmetry_space_group_name_H-M "F D D D"
_symmetry_group_IT_number 70
_space_group.IT_coordinate_system_code '2'
_symmetry_cell_setting 'orthorhombic'
loop_
_space_group_symop_operation_xyz
x,y,z
1/4-x,1/4-y,z
x,1/4-y,1/4-z
1/4-x,y,1/4-z
-x,-y,-z
3/4+x,3/4+y,-z
-x,3/4+y,3/4+z
3/4+x,-y,3/4+z
x,1/2+y,1/2+z
1/4-x,3/4-y,1/2+z
x,3/4-y,3/4-z
1/4-x,1/2+y,3/4-z
-x,1/2-y,1/2-z
3/4+x,1/4+y,1/2-z
-x,1/4+y,1/4+z
3/4+x,1/2-y,1/4+z
1/2+x,y,1/2+z
3/4-x,1/4-y,1/2+z
1/2+x,1/4-y,3/4-z
3/4-x,y,3/4-z
1/2-x,-y,1/2-z
1/4+x,3/4+y,1/2-z
1/2-x,3/4+y,1/4+z
1/4+x,-y,1/4+z
1/2+x,1/2+y,z
3/4-x,3/4-y,z
1/2+x,3/4-y,1/4-z
3/4-x,1/2+y,1/4-z
1/2-x,1/2-y,-z
1/4+x,1/4+y,-z
1/2-x,1/4+y,3/4+z
1/4+x,1/2-y,3/4+z
loop_
_atom_site_type_symbol
_atom_site_label
_atom_site_fract_x
_atom_site_fract_y
_atom_site_fract_z
Si Si1 0.625000 0.625000 0.625000
Si Si2 0.050509 0.001643 0.708360
Si Si3 0.625000 0.125000 0.625000
Si Si4 0.027746 0.225848 0.329768
Si Si5 0.466591 0.100245 0.304477
O O1 0.545444 0.568680 0.662613
O O2 0.913783 0.963003 0.696665
O O3 0.055034 0.051944 0.763257
O O4 0.171833 0.943403 0.699860
O O5 0.721153 0.065439 0.657142
O O6 0.919759 0.189272 0.292509
O O7 0.012130 0.177522 0.386652
#
# Coordination Sequence:
#
# PCOD9515989 Si02
#       5
#     8  32   8  32  32
#     4  12  30  46  72 102 146 198 246 296 380 442
#     4  12  26  47  72 107 145 196 247 310 369 447
#     4   8  18  34  68 102 134 198 234 284 372 408
#     4  10  22  44  70 102 154 182 246 312 363 445
#     4  10  25  44  74 109 140 196 248 299 383 434
#
# _framework density 25.624143
#
# number of rings (size 3 to 8) (size 9 to 14) (size 15 to 20)
#    0.000    1.714    0.000    4.286   12.000    1.143 
#   10.286    0.000    0.000    0.000    0.000    0.000 
#    0.000    0.000    0.000    0.000    0.000    0.000 
#
# Total GULP energy -156339.879621 kJ/mol
# GULP energy per Si atom -5583.567129 kJ/mol
# Density = 2.556582 g / cm^3
# Si number density = 25.624143 Si / 1000 Ang^3
#
#
#
# Elastic Constant Matrix: (Units=GPa)
#
#
# Indices 1 2 3 4 5 6 
#
# 1 155.0622 42.6518 13.0894 0.0000 0.0000 0.0000
# 2 42.6518 152.2458 33.3353 0.0000 0.0000 0.0000
# 3 13.0894 33.3353 104.2125 0.0000 0.0000 0.0000
# 4 0.0000 0.0000 0.0000 20.2858 0.0000 0.0000
# 5 0.0000 0.0000 0.0000 0.0000 -7.9129 0.0000
# 6 0.0000 0.0000 0.0000 0.0000 0.0000 31.8292
#
#
#
# Elastic Compliance Matrix: (Units=1/GPa)
#
#
# Indices 1 2 3 4 5 6 
#
# 1 0.006995 -0.001900 -0.000271 0.000000 0.000000 0.000000
# 2 -0.001900 0.007579 -0.002186 0.000000 0.000000 0.000000
# 3 -0.000271 -0.002186 0.010329 0.000000 0.000000 0.000000
# 4 0.000000 0.000000 0.000000 0.049296 0.000000 0.000000
# 5 0.000000 0.000000 0.000000 0.000000 -0.126377 0.000000
# 6 0.000000 0.000000 0.000000 0.000000 0.000000 0.031418
#
#
# Mechanical properties :
#
#
# Convention : Reuss Voigt Hill
#
# Bulk Modulus (GPa) = 61.76895 65.51928 63.64411
# Shear Modulus (GPa) = -751.80690 30.33669 -360.73510
#
# Velocity S-wave (km/s) = -17.14744 3.44453 -11.87792
# Velocity P-wave (km/s) = 19.18041 6.43775 12.77583
#
# Compressibility (1/GPa) = 0.01618936
#
# Stress axis : x y z
#
# Youngs Moduli (GPa) = 142.96815 131.93871 96.81517
#
# Poissons Ratio (x) = 0.25072 0.02621
# Poissons Ratio (y) = 0.27168 0.21162
# Poissons Ratio (z) = 0.03870 0.28839
#
# Static dielectric constant tensor:
#      x y z
#    x 2.141680 0.000000 0.000000 
#    y 0.000000 2.031840 0.000000 
#    z 0.000000 0.000000 2.022760 
# 
# From -- ./inp_files/57121.got.cif
#   From: 2010.05.17/outbox.cif.g08.bks.cpg/sg70_29_cif.got.tgz:57121.got - 2010.06.03 15:57:51.
