data_PCOD9515766
_publ_section_title
;
Structure prediction by ZEFSAII (Michael W. Deem and Ramdas Pophale) SiO2 
 PCOD9515766
Probable space group: F D D D
;
_chemical_formula_sum "Si O2"
_cell_formula_units_Z 104
_cell_length_a 13.551946
_cell_length_b 26.495854
_cell_length_c 12.235220
_cell_angle_alpha 90.000000
_cell_angle_beta 90.000000
_cell_angle_gamma 90.000000
_cell_volume 4393.305127
_symmetry_space_group_name_H-M "F D D D"
_symmetry_group_IT_number 70
_space_group.IT_coordinate_system_code '2'
_symmetry_cell_setting 'orthorhombic'
loop_
_space_group_symop_operation_xyz
x,y,z
1/4-x,1/4-y,z
x,1/4-y,1/4-z
1/4-x,y,1/4-z
-x,-y,-z
3/4+x,3/4+y,-z
-x,3/4+y,3/4+z
3/4+x,-y,3/4+z
x,1/2+y,1/2+z
1/4-x,3/4-y,1/2+z
x,3/4-y,3/4-z
1/4-x,1/2+y,3/4-z
-x,1/2-y,1/2-z
3/4+x,1/4+y,1/2-z
-x,1/4+y,1/4+z
3/4+x,1/2-y,1/4+z
1/2+x,y,1/2+z
3/4-x,1/4-y,1/2+z
1/2+x,1/4-y,3/4-z
3/4-x,y,3/4-z
1/2-x,-y,1/2-z
1/4+x,3/4+y,1/2-z
1/2-x,3/4+y,1/4+z
1/4+x,-y,1/4+z
1/2+x,1/2+y,z
3/4-x,3/4-y,z
1/2+x,3/4-y,1/4-z
3/4-x,1/2+y,1/4-z
1/2-x,1/2-y,-z
1/4+x,1/4+y,-z
1/2-x,1/4+y,3/4+z
1/4+x,1/2-y,3/4+z
loop_
_atom_site_type_symbol
_atom_site_label
_atom_site_fract_x
_atom_site_fract_y
_atom_site_fract_z
Si Si1 0.030332 0.447475 0.948206
Si Si2 0.377478 0.236234 0.752607
Si Si3 0.625000 0.625000 0.625000
Si Si4 0.745072 0.430131 0.424025
O O1 0.944806 0.407474 0.953799
O O2 0.043473 0.457707 0.818401
O O3 0.139352 0.429653 0.985299
O O4 0.000000 0.500000 0.000000
O O5 0.375000 0.215237 0.875000
O O6 0.469830 0.219552 0.675816
O O7 0.333576 0.293514 0.760519
O O8 0.763090 0.375000 0.375000
#
# Coordination Sequence:
#
# PCOD9515766 Si02
#       4
#    32  32   8  32
#     4  10  22  39  66  92 135 169 222 279 335 395
#     4  10  22  44  64  90 138 175 223 284 335 402
#     4  12  20  44  64 100 136 176 228 276 340 418
#     4  10  22  43  65  97 131 176 223 273 333 417
#
# _framework density 23.672383
#
# number of rings (size 3 to 8) (size 9 to 14) (size 15 to 20)
#    1.846    0.000    1.538    2.769    0.000    0.615 
#   11.077    0.000    0.000    0.000    0.000    0.000 
#    0.000    0.000    0.000    0.000    0.000    0.000 
#
# Total GULP energy -144868.220462 kJ/mol
# GULP energy per Si atom -5571.854633 kJ/mol
# Density = 2.361850 g / cm^3
# Si number density = 23.672383 Si / 1000 Ang^3
#
#
#
# Elastic Constant Matrix: (Units=GPa)
#
#
# Indices 1 2 3 4 5 6 
#
# 1 185.2409 71.7511 8.2880 0.0000 0.0000 0.0000
# 2 71.7511 141.2692 0.9530 0.0000 0.0000 0.0000
# 3 8.2880 0.9530 80.0708 0.0000 0.0000 0.0000
# 4 0.0000 0.0000 0.0000 43.8496 0.0000 0.0000
# 5 0.0000 0.0000 0.0000 0.0000 23.6407 0.0000
# 6 0.0000 0.0000 0.0000 0.0000 0.0000 30.4160
#
#
#
# Elastic Compliance Matrix: (Units=1/GPa)
#
#
# Indices 1 2 3 4 5 6 
#
# 1 0.006755 -0.003426 -0.000658 0.000000 0.000000 0.000000
# 2 -0.003426 0.008817 0.000250 0.000000 0.000000 0.000000
# 3 -0.000658 0.000250 0.012554 0.000000 0.000000 0.000000
# 4 0.000000 0.000000 0.000000 0.022805 0.000000 0.000000
# 5 0.000000 0.000000 0.000000 0.000000 0.042300 0.000000
# 6 0.000000 0.000000 0.000000 0.000000 0.000000 0.032877
#
#
# Mechanical properties :
#
#
# Convention : Reuss Voigt Hill
#
# Bulk Modulus (GPa) = 48.88505 63.17390 56.02948
# Shear Modulus (GPa) = 35.56235 41.28717 38.42476
#
# Velocity S-wave (km/s) = 3.88012 4.18078 4.03325
# Velocity P-wave (km/s) = 6.38508 7.07460 6.73866
#
# Compressibility (1/GPa) = 0.02045615
#
# Stress axis : x y z
#
# Youngs Moduli (GPa) = 148.03755 113.41319 79.65512
#
# Poissons Ratio (x) = 0.38861 0.05245
# Poissons Ratio (y) = 0.50725 -0.01989
# Poissons Ratio (z) = 0.09747 -0.02832
#
# Static dielectric constant tensor:
#      x y z
#    x 2.062800 0.000000 0.000000 
#    y 0.000000 1.944620 0.000000 
#    z 0.000000 0.000000 2.309640 
# 
# From -- ./inp_files/26186.got.cif
#   From: 2010.05.17/outbox.cif.g08.bks.cpg/sg70_14_cif.got.tgz:26186.got - 2010.06.03 15:57:51.
