data_PCOD9515670
_publ_section_title
;
Structure prediction by ZEFSAII (Michael W. Deem and Ramdas Pophale) SiO2 
 PCOD9515670
Probable space group: F D D D
;
_chemical_formula_sum "Si O2"
_cell_formula_units_Z 112
_cell_length_a 13.968185
_cell_length_b 28.963405
_cell_length_c 11.848468
_cell_angle_alpha 90.000000
_cell_angle_beta 90.000000
_cell_angle_gamma 90.000000
_cell_volume 4793.489666
_symmetry_space_group_name_H-M "F D D D"
_symmetry_group_IT_number 70
_space_group.IT_coordinate_system_code '2'
_symmetry_cell_setting 'orthorhombic'
loop_
_space_group_symop_operation_xyz
x,y,z
1/4-x,1/4-y,z
x,1/4-y,1/4-z
1/4-x,y,1/4-z
-x,-y,-z
3/4+x,3/4+y,-z
-x,3/4+y,3/4+z
3/4+x,-y,3/4+z
x,1/2+y,1/2+z
1/4-x,3/4-y,1/2+z
x,3/4-y,3/4-z
1/4-x,1/2+y,3/4-z
-x,1/2-y,1/2-z
3/4+x,1/4+y,1/2-z
-x,1/4+y,1/4+z
3/4+x,1/2-y,1/4+z
1/2+x,y,1/2+z
3/4-x,1/4-y,1/2+z
1/2+x,1/4-y,3/4-z
3/4-x,y,3/4-z
1/2-x,-y,1/2-z
1/4+x,3/4+y,1/2-z
1/2-x,3/4+y,1/4+z
1/4+x,-y,1/4+z
1/2+x,1/2+y,z
3/4-x,3/4-y,z
1/2+x,3/4-y,1/4-z
3/4-x,1/2+y,1/4-z
1/2-x,1/2-y,-z
1/4+x,1/4+y,-z
1/2-x,1/4+y,3/4+z
1/4+x,1/2-y,3/4+z
loop_
_atom_site_type_symbol
_atom_site_label
_atom_site_fract_x
_atom_site_fract_y
_atom_site_fract_z
Si Si1 0.770743 0.780180 0.842313
Si Si2 0.790939 0.180353 0.453126
Si Si3 0.763638 0.043169 0.335915
Si Si4 0.375000 0.375000 0.145453
O O1 0.875000 0.798266 0.875000
O O2 0.765033 0.728877 0.893105
O O3 0.771501 0.778057 0.709421
O O4 0.694029 0.809795 0.914157
O O5 0.875000 0.161701 0.375000
O O6 0.702567 0.147994 0.434228
O O7 0.691870 0.085045 0.295770
O O8 0.875000 0.054047 0.375000
O O9 0.750000 0.000000 0.250000
#
# Coordination Sequence:
#
# PCOD9515670 Si02
#       4
#    32  32  32  16
#     4  10  21  45  76 103 140 199 257 316 393 469
#     4  10  22  39  75 106 139 189 258 318 377 466
#     4  12  28  48  77 114 162 209 259 336 415 480
#     4  12  24  49  71 114 156 202 270 324 400 488
#
# _framework density 23.365023999999998
#
# number of rings (size 3 to 8) (size 9 to 14) (size 15 to 20)
#    0.000    1.143    2.857    2.571    8.000    2.286 
#    0.000    6.429    0.000    0.000    0.000    0.000 
#    0.000    0.000    0.000    0.000    0.000    0.000 
#
# Total GULP energy -155938.143788 kJ/mol
# GULP energy per Si atom -5569.219421 kJ/mol
# Density = 2.331184 g / cm^3
# Si number density = 23.365024 Si / 1000 Ang^3
#
#
#
# Elastic Constant Matrix: (Units=GPa)
#
#
# Indices 1 2 3 4 5 6 
#
# 1 120.5231 59.4211 56.9107 0.0000 0.0000 0.0000
# 2 59.4211 112.3956 41.6643 0.0000 0.0000 0.0000
# 3 56.9107 41.6643 151.7289 0.0000 0.0000 0.0000
# 4 0.0000 0.0000 0.0000 16.0611 0.0000 0.0000
# 5 0.0000 0.0000 0.0000 0.0000 13.1937 0.0000
# 6 0.0000 0.0000 0.0000 0.0000 0.0000 44.6861
#
#
#
# Elastic Compliance Matrix: (Units=1/GPa)
#
#
# Indices 1 2 3 4 5 6 
#
# 1 0.012472 -0.005410 -0.003192 0.000000 0.000000 0.000000
# 2 -0.005410 0.012252 -0.001335 0.000000 0.000000 0.000000
# 3 -0.003192 -0.001335 0.008155 0.000000 0.000000 0.000000
# 4 0.000000 0.000000 0.000000 0.062262 0.000000 0.000000
# 5 0.000000 0.000000 0.000000 0.000000 0.075794 0.000000
# 6 0.000000 0.000000 0.000000 0.000000 0.000000 0.022378
#
#
# Mechanical properties :
#
#
# Convention : Reuss Voigt Hill
#
# Bulk Modulus (GPa) = 76.90253 77.84886 77.37569
# Shear Modulus (GPa) = 22.98601 29.89829 26.44215
#
# Velocity S-wave (km/s) = 3.13993 3.58105 3.36772
# Velocity P-wave (km/s) = 6.79194 7.10560 6.95054
#
# Compressibility (1/GPa) = 0.01300347
#
# Stress axis : x y z
#
# Youngs Moduli (GPa) = 80.17952 81.61679 122.62813
#
# Poissons Ratio (x) = 0.44157 0.39148
# Poissons Ratio (y) = 0.43379 0.16373
# Poissons Ratio (z) = 0.25596 0.10897
#
# Static dielectric constant tensor:
#      x y z
#    x 2.084130 0.000000 0.000000 
#    y 0.000000 2.012580 0.000000 
#    z 0.000000 0.000000 1.907670 
# 
# From -- ./inp_files/15016.got.cif
#   From: 2010.05.17/outbox.cif.g08.bks.cpg/sg70_8_cif.got.tgz:15016.got - 2010.06.03 15:57:51.
