data_PCOD9515681
_publ_section_title
;
Structure prediction by ZEFSAII (Michael W. Deem and Ramdas Pophale) SiO2 
 PCOD9515681
Probable space group: F D D D
;
_chemical_formula_sum "Si O2"
_cell_formula_units_Z 160
_cell_length_a 7.810582
_cell_length_b 29.289658
_cell_length_c 30.393188
_cell_angle_alpha 90.000000
_cell_angle_beta 90.000000
_cell_angle_gamma 90.000000
_cell_volume 6953.027601
_symmetry_space_group_name_H-M "F D D D"
_symmetry_group_IT_number 70
_space_group.IT_coordinate_system_code '2'
_symmetry_cell_setting 'orthorhombic'
loop_
_space_group_symop_operation_xyz
x,y,z
1/4-x,1/4-y,z
x,1/4-y,1/4-z
1/4-x,y,1/4-z
-x,-y,-z
3/4+x,3/4+y,-z
-x,3/4+y,3/4+z
3/4+x,-y,3/4+z
x,1/2+y,1/2+z
1/4-x,3/4-y,1/2+z
x,3/4-y,3/4-z
1/4-x,1/2+y,3/4-z
-x,1/2-y,1/2-z
3/4+x,1/4+y,1/2-z
-x,1/4+y,1/4+z
3/4+x,1/2-y,1/4+z
1/2+x,y,1/2+z
3/4-x,1/4-y,1/2+z
1/2+x,1/4-y,3/4-z
3/4-x,y,3/4-z
1/2-x,-y,1/2-z
1/4+x,3/4+y,1/2-z
1/2-x,3/4+y,1/4+z
1/4+x,-y,1/4+z
1/2+x,1/2+y,z
3/4-x,3/4-y,z
1/2+x,3/4-y,1/4-z
3/4-x,1/2+y,1/4-z
1/2-x,1/2-y,-z
1/4+x,1/4+y,-z
1/2-x,1/4+y,3/4+z
1/4+x,1/2-y,3/4+z
loop_
_atom_site_type_symbol
_atom_site_label
_atom_site_fract_x
_atom_site_fract_y
_atom_site_fract_z
Si Si1 0.067223 0.854334 0.040604
Si Si2 0.875000 0.586973 0.375000
Si Si3 0.101898 0.855456 0.303371
Si Si4 0.315684 0.945323 0.324478
Si Si5 0.625000 0.695690 0.625000
Si Si6 0.605867 0.227573 0.417581
O O1 0.141191 0.881574 0.082171
O O2 0.875000 0.875000 0.031808
O O3 0.027063 0.802656 0.055391
O O4 0.184925 0.860666 0.998103
O O5 0.709727 0.555728 0.364997
O O6 0.181428 0.903125 0.321088
O O7 0.262575 0.821056 0.301400
O O8 0.962416 0.833686 0.335928
O O9 0.375000 0.950921 0.375000
O O10 0.247019 0.993137 0.305994
O O11 0.485035 0.730971 0.606963
#
# Coordination Sequence:
#
# PCOD9515681 Si02
#       6
#    32  16  32  32  16  32
#     4  10  22  43  71  99 137 187 248 285 347 419
#     4  10  21  46  73  93 138 193 235 286 347 418
#     4  11  23  41  68 101 140 188 229 287 357 427
#     4  11  21  42  68  98 134 183 236 280 346 424
#     4  12  25  41  69 104 148 176 225 296 363 415
#     4  11  23  40  68 101 134 187 235 293 343 414
#
# _framework density 23.011557
#
# number of rings (size 3 to 8) (size 9 to 14) (size 15 to 20)
#    0.000    1.200    5.000    1.800    0.000    3.200 
#    3.600    0.000   13.200    0.000    0.000    0.000 
#    0.000    0.000    0.000    0.000    0.000    0.000 
#
# Total GULP energy -223602.556937 kJ/mol
# GULP energy per Si atom -5590.063923 kJ/mol
# Density = 2.295918 g / cm^3
# Si number density = 23.011557 Si / 1000 Ang^3
#
#
#
# Elastic Constant Matrix: (Units=GPa)
#
#
# Indices 1 2 3 4 5 6 
#
# 1 100.6007 55.1701 52.0808 0.0000 0.0000 0.0000
# 2 55.1701 161.4915 73.2361 0.0000 0.0000 0.0000
# 3 52.0808 73.2361 176.8174 0.0000 0.0000 0.0000
# 4 0.0000 0.0000 0.0000 -20.0711 0.0000 0.0000
# 5 0.0000 0.0000 0.0000 0.0000 16.0617 0.0000
# 6 0.0000 0.0000 0.0000 0.0000 0.0000 26.9821
#
#
#
# Elastic Compliance Matrix: (Units=1/GPa)
#
#
# Indices 1 2 3 4 5 6 
#
# 1 0.013046 -0.003342 -0.002458 0.000000 0.000000 0.000000
# 2 -0.003342 0.008481 -0.002528 0.000000 0.000000 0.000000
# 3 -0.002458 -0.002528 0.007427 0.000000 0.000000 0.000000
# 4 0.000000 0.000000 0.000000 -0.049823 0.000000 0.000000
# 5 0.000000 0.000000 0.000000 0.000000 0.062260 0.000000
# 6 0.000000 0.000000 0.000000 0.000000 0.000000 0.037062
#
#
# Mechanical properties :
#
#
# Convention : Reuss Voigt Hill
#
# Bulk Modulus (GPa) = 81.32689 88.87596 85.10143
# Shear Modulus (GPa) = 50.39934 21.82268 36.11101
#
# Velocity S-wave (km/s) = 4.68501 3.08285 3.96568
# Velocity P-wave (km/s) = 8.04265 7.16785 7.61782
#
# Compressibility (1/GPa) = 0.01229606
#
# Stress axis : x y z
#
# Youngs Moduli (GPa) = 76.65353 117.91744 134.64731
#
# Poissons Ratio (x) = 0.39407 0.33101
# Poissons Ratio (y) = 0.25617 0.34042
# Poissons Ratio (z) = 0.18844 0.29812
#
# Static dielectric constant tensor:
#      x y z
#    x 2.029900 0.000000 0.000000 
#    y 0.000000 1.865360 0.000000 
#    z 0.000000 0.000000 1.909280 
# 
# From -- ./inp_files/63942.got.cif
#   From: 2010.05.17/outbox.cif.g08.bks.cpg/sg70_32_cif.got.tgz:63942.got - 2010.06.03 15:57:51.
