data_PCOD9515620
_publ_section_title
;
Structure prediction by ZEFSAII (Michael W. Deem and Ramdas Pophale) SiO2 
 PCOD9515620
Probable space group: F D D D
;
_chemical_formula_sum "Si O2"
_cell_formula_units_Z 208
_cell_length_a 15.809115
_cell_length_b 25.402370
_cell_length_c 23.669778
_cell_angle_alpha 90.000000
_cell_angle_beta 90.000000
_cell_angle_gamma 90.000000
_cell_volume 9505.522207
_symmetry_space_group_name_H-M "F D D D"
_symmetry_group_IT_number 70
_space_group.IT_coordinate_system_code '2'
_symmetry_cell_setting 'orthorhombic'
loop_
_space_group_symop_operation_xyz
x,y,z
1/4-x,1/4-y,z
x,1/4-y,1/4-z
1/4-x,y,1/4-z
-x,-y,-z
3/4+x,3/4+y,-z
-x,3/4+y,3/4+z
3/4+x,-y,3/4+z
x,1/2+y,1/2+z
1/4-x,3/4-y,1/2+z
x,3/4-y,3/4-z
1/4-x,1/2+y,3/4-z
-x,1/2-y,1/2-z
3/4+x,1/4+y,1/2-z
-x,1/4+y,1/4+z
3/4+x,1/2-y,1/4+z
1/2+x,y,1/2+z
3/4-x,1/4-y,1/2+z
1/2+x,1/4-y,3/4-z
3/4-x,y,3/4-z
1/2-x,-y,1/2-z
1/4+x,3/4+y,1/2-z
1/2-x,3/4+y,1/4+z
1/4+x,-y,1/4+z
1/2+x,1/2+y,z
3/4-x,3/4-y,z
1/2+x,3/4-y,1/4-z
3/4-x,1/2+y,1/4-z
1/2-x,1/2-y,-z
1/4+x,1/4+y,-z
1/2-x,1/4+y,3/4+z
1/4+x,1/2-y,3/4+z
loop_
_atom_site_type_symbol
_atom_site_label
_atom_site_fract_x
_atom_site_fract_y
_atom_site_fract_z
Si Si1 0.461854 0.179612 0.603831
Si Si2 0.405276 0.784321 0.799595
Si Si3 0.535101 0.361844 0.650391
Si Si4 0.514111 0.786739 0.519311
Si Si5 0.907676 0.477294 0.573489
Si Si6 0.037282 0.556137 0.925534
Si Si7 0.625000 0.125000 0.625000
Si Si8 0.625000 0.625000 0.625000
O O1 0.419251 0.125000 0.625000
O O2 0.443235 0.204654 0.542555
O O3 0.450803 0.218417 0.656935
O O4 0.559285 0.161974 0.592983
O O5 0.309377 0.763388 0.798142
O O6 0.458643 0.734116 0.820156
O O7 0.425132 0.803004 0.737043
O O8 0.426387 0.834426 0.837292
O O9 0.625000 0.344629 0.625000
O O10 0.537084 0.411182 0.693914
O O11 0.480457 0.316533 0.679728
O O12 0.488611 0.386298 0.595552
O O13 0.412790 0.776359 0.524037
O O14 0.851298 0.463847 0.628355
#
# Coordination Sequence:
#
# PCOD9515620 Si02
#       8
#    32  32  32  32  32  32   8   8
#     4  10  24  47  69  97 135 180 224 288 350 409
#     4  11  23  40  65  93 142 181 226 278 357 413
#     4  11  23  39  68  96 133 173 236 277 346 419
#     4  11  22  46  68  99 137 185 218 293 354 400
#     4  11  24  40  70 101 128 175 235 281 344 423
#     4  10  21  43  62  91 134 185 220 290 343 406
#     4   8  24  44  70  80 140 162 212 292 340 394
#     4  12  24  36  62 108 132 188 234 272 344 434
#
# _framework density 21.882017000000001
#
# number of rings (size 3 to 8) (size 9 to 14) (size 15 to 20)
#    0.462    0.923    3.077    3.692    5.385    0.000 
#    8.308    1.538    0.000    0.000    0.000    0.000 
#    0.000    0.000    0.000    0.000    0.000    0.000 
#
# Total GULP energy -289789.530670 kJ/mol
# GULP energy per Si atom -5572.875590 kJ/mol
# Density = 2.183221 g / cm^3
# Si number density = 21.882017 Si / 1000 Ang^3
#
#
#
# Elastic Constant Matrix: (Units=GPa)
#
#
# Indices 1 2 3 4 5 6 
#
# 1 66.7870 19.0683 -10.2573 0.0000 0.0000 0.0000
# 2 19.0683 112.2410 15.7140 0.0000 0.0000 0.0000
# 3 -10.2573 15.7140 77.0280 0.0000 0.0000 0.0000
# 4 0.0000 0.0000 0.0000 4.4388 0.0000 0.0000
# 5 0.0000 0.0000 0.0000 0.0000 15.3960 0.0000
# 6 0.0000 0.0000 0.0000 0.0000 0.0000 -77.5027
#
#
#
# Elastic Compliance Matrix: (Units=1/GPa)
#
#
# Indices 1 2 3 4 5 6 
#
# 1 0.016309 -0.003165 0.002818 0.000000 0.000000 0.000000
# 2 -0.003165 0.009786 -0.002418 0.000000 0.000000 0.000000
# 3 0.002818 -0.002418 0.013851 0.000000 0.000000 0.000000
# 4 0.000000 0.000000 0.000000 0.225284 0.000000 0.000000
# 5 0.000000 0.000000 0.000000 0.000000 0.064952 0.000000
# 6 0.000000 0.000000 0.000000 0.000000 0.000000 -0.012903
#
#
# Mechanical properties :
#
#
# Convention : Reuss Voigt Hill
#
# Bulk Modulus (GPa) = 29.05730 33.90067 31.47898
# Shear Modulus (GPa) = 14.95744 3.90183 9.42963
#
# Velocity S-wave (km/s) = 2.61731 1.33678 2.07814
# Velocity P-wave (km/s) = 4.73727 4.23188 4.49168
#
# Compressibility (1/GPa) = 0.03441476
#
# Stress axis : x y z
#
# Youngs Moduli (GPa) = 61.31437 102.19077 72.19847
#
# Poissons Ratio (x) = 0.32346 -0.20342
# Poissons Ratio (y) = 0.19407 0.17456
# Poissons Ratio (z) = -0.17275 0.24708
#
# Static dielectric constant tensor:
#      x y z
#    x 1.887310 0.000000 0.000000 
#    y 0.000000 1.804710 0.000000 
#    z 0.000000 0.000000 1.838120 
# 
# From -- ./inp_files/59750.got.cif
#   From: 2010.05.17/outbox.cif.g08.bks.cpg/sg70_30_cif.got.tgz:59750.got - 2010.06.03 15:57:51.
