data_PCOD9515781
_publ_section_title
;
Structure prediction by ZEFSAII (Michael W. Deem and Ramdas Pophale) SiO2 
 PCOD9515781
Probable space group: F D D D
;
_chemical_formula_sum "Si O2"
_cell_formula_units_Z 104
_cell_length_a 21.237004
_cell_length_b 14.267031
_cell_length_c 13.858162
_cell_angle_alpha 90.000000
_cell_angle_beta 90.000000
_cell_angle_gamma 90.000000
_cell_volume 4198.870569
_symmetry_space_group_name_H-M "F D D D"
_symmetry_group_IT_number 70
_space_group.IT_coordinate_system_code '2'
_symmetry_cell_setting 'orthorhombic'
loop_
_space_group_symop_operation_xyz
x,y,z
1/4-x,1/4-y,z
x,1/4-y,1/4-z
1/4-x,y,1/4-z
-x,-y,-z
3/4+x,3/4+y,-z
-x,3/4+y,3/4+z
3/4+x,-y,3/4+z
x,1/2+y,1/2+z
1/4-x,3/4-y,1/2+z
x,3/4-y,3/4-z
1/4-x,1/2+y,3/4-z
-x,1/2-y,1/2-z
3/4+x,1/4+y,1/2-z
-x,1/4+y,1/4+z
3/4+x,1/2-y,1/4+z
1/2+x,y,1/2+z
3/4-x,1/4-y,1/2+z
1/2+x,1/4-y,3/4-z
3/4-x,y,3/4-z
1/2-x,-y,1/2-z
1/4+x,3/4+y,1/2-z
1/2-x,3/4+y,1/4+z
1/4+x,-y,1/4+z
1/2+x,1/2+y,z
3/4-x,3/4-y,z
1/2+x,3/4-y,1/4-z
3/4-x,1/2+y,1/4-z
1/2-x,1/2-y,-z
1/4+x,1/4+y,-z
1/2-x,1/4+y,3/4+z
1/4+x,1/2-y,3/4+z
loop_
_atom_site_type_symbol
_atom_site_label
_atom_site_fract_x
_atom_site_fract_y
_atom_site_fract_z
Si Si1 0.688388 0.770357 0.274109
Si Si2 0.875000 0.375000 0.375000
Si Si3 0.806338 0.541567 0.188797
Si Si4 0.309207 0.870369 0.052824
O O1 0.667394 0.691355 0.194740
O O2 0.622722 0.828336 0.270524
O O3 0.704082 0.719504 0.377215
O O4 0.746498 0.837439 0.246438
O O5 0.782450 0.625000 0.125000
O O6 0.750000 0.500000 0.250000
O O7 0.826398 0.452496 0.127960
O O8 0.375000 0.875000 0.992898
#
# Coordination Sequence:
#
# PCOD9515781 Si02
#       4
#    32   8  32  32
#     4  11  23  39  64 101 138 178 228 289 348 424
#     4  12  20  36  64 104 136 172 232 294 364 392
#     4  11  22  37  64 100 136 180 227 293 346 411
#     4  10  22  40  61  97 135 179 228 284 346 417
#
# _framework density 24.768566
#
# number of rings (size 3 to 8) (size 9 to 14) (size 15 to 20)
#    0.000    1.231    4.615    3.692    4.308    0.000 
#    0.000    6.154    0.000    8.308    0.000    0.000 
#    0.000    0.000    0.000    0.000    0.000    0.000 
#
# Total GULP energy -144818.954994 kJ/mol
# GULP energy per Si atom -5569.959807 kJ/mol
# Density = 2.471219 g / cm^3
# Si number density = 24.768566 Si / 1000 Ang^3
#
#
#
# Elastic Constant Matrix: (Units=GPa)
#
#
# Indices 1 2 3 4 5 6 
#
# 1 295.2825 62.6132 75.0166 0.0000 0.0000 0.0000
# 2 62.6132 81.8313 59.6164 0.0000 0.0000 0.0000
# 3 75.0166 59.6164 81.2727 0.0000 0.0000 0.0000
# 4 0.0000 0.0000 0.0000 43.8799 0.0000 0.0000
# 5 0.0000 0.0000 0.0000 0.0000 -25.9883 0.0000
# 6 0.0000 0.0000 0.0000 0.0000 0.0000 42.6870
#
#
#
# Elastic Compliance Matrix: (Units=1/GPa)
#
#
# Indices 1 2 3 4 5 6 
#
# 1 0.004454 -0.000887 -0.003460 0.000000 0.000000 0.000000
# 2 -0.000887 0.026423 -0.018564 0.000000 0.000000 0.000000
# 3 -0.003460 -0.018564 0.029115 0.000000 0.000000 0.000000
# 4 0.000000 0.000000 0.000000 0.022789 0.000000 0.000000
# 5 0.000000 0.000000 0.000000 0.000000 -0.038479 0.000000
# 6 0.000000 0.000000 0.000000 0.000000 0.000000 0.023426
#
#
# Mechanical properties :
#
#
# Convention : Reuss Voigt Hill
#
# Bulk Modulus (GPa) = 70.56973 94.76433 82.66703
# Shear Modulus (GPa) = 42.27473 29.52508 35.89990
#
# Velocity S-wave (km/s) = 4.13581 3.45634 3.81125
# Velocity P-wave (km/s) = 7.16660 7.36691 7.26744
#
# Compressibility (1/GPa) = 0.01417038
#
# Stress axis : x y z
#
# Youngs Moduli (GPa) = 224.53009 37.84605 34.34613
#
# Poissons Ratio (x) = 0.03356 0.11885
# Poissons Ratio (y) = 0.19910 0.63759
# Poissons Ratio (z) = 0.77698 0.70256
#
# Static dielectric constant tensor:
#      x y z
#    x 2.423630 0.000000 0.000000 
#    y 0.000000 1.525090 0.000000 
#    z 0.000000 0.000000 2.141340 
# 
# From -- ./inp_files/37175.got.cif
#   From: 2010.05.17/outbox.cif.g08.bks.cpg/sg70_19_cif.got.tgz:37175.got - 2010.06.03 15:57:51.
