data_PCOD9515342
_publ_section_title
;
Structure prediction by ZEFSAII (Michael W. Deem and Ramdas Pophale) SiO2 
 PCOD9515342
Probable space group: F D D D
;
_chemical_formula_sum "Si O2"
_cell_formula_units_Z 104
_cell_length_a 17.605528
_cell_length_b 14.509191
_cell_length_c 21.167504
_cell_angle_alpha 90.000000
_cell_angle_beta 90.000000
_cell_angle_gamma 90.000000
_cell_volume 5407.068888
_symmetry_space_group_name_H-M "F D D D"
_symmetry_group_IT_number 70
_space_group.IT_coordinate_system_code '2'
_symmetry_cell_setting 'orthorhombic'
loop_
_space_group_symop_operation_xyz
x,y,z
1/4-x,1/4-y,z
x,1/4-y,1/4-z
1/4-x,y,1/4-z
-x,-y,-z
3/4+x,3/4+y,-z
-x,3/4+y,3/4+z
3/4+x,-y,3/4+z
x,1/2+y,1/2+z
1/4-x,3/4-y,1/2+z
x,3/4-y,3/4-z
1/4-x,1/2+y,3/4-z
-x,1/2-y,1/2-z
3/4+x,1/4+y,1/2-z
-x,1/4+y,1/4+z
3/4+x,1/2-y,1/4+z
1/2+x,y,1/2+z
3/4-x,1/4-y,1/2+z
1/2+x,1/4-y,3/4-z
3/4-x,y,3/4-z
1/2-x,-y,1/2-z
1/4+x,3/4+y,1/2-z
1/2-x,3/4+y,1/4+z
1/4+x,-y,1/4+z
1/2+x,1/2+y,z
3/4-x,3/4-y,z
1/2+x,3/4-y,1/4-z
3/4-x,1/2+y,1/4-z
1/2-x,1/2-y,-z
1/4+x,1/4+y,-z
1/2-x,1/4+y,3/4+z
1/4+x,1/2-y,3/4+z
loop_
_atom_site_type_symbol
_atom_site_label
_atom_site_fract_x
_atom_site_fract_y
_atom_site_fract_z
Si Si1 0.386702 0.731346 0.107235
Si Si2 0.609364 0.459606 0.539725
Si Si3 0.499266 0.136331 0.377648
Si Si4 0.625000 0.625000 0.625000
O O1 0.387790 0.625000 0.125000
O O2 0.460288 0.787600 0.130978
O O3 0.314727 0.787152 0.134026
O O4 0.377259 0.733362 0.031540
O O5 0.539359 0.394107 0.558050
O O6 0.683135 0.412264 0.572628
O O7 0.586247 0.553353 0.577283
#
# Coordination Sequence:
#
# PCOD9515342 Si02
#       4
#    32  32  32   8
#     4  11  23  36  61  89 122 160 199 248 303 359
#     4  10  21  37  63  84 125 153 202 254 303 354
#     4   9  22  39  55  92 117 153 210 242 300 358
#     4   8  16  32  60  88 102 156 188 252 304 316
#
# _framework density 19.234079999999999
#
# number of rings (size 3 to 8) (size 9 to 14) (size 15 to 20)
#    0.000    2.462    0.000    2.769   12.923    1.231 
#    0.000    3.077    0.000    0.000    0.000    0.000 
#    0.000    0.000    0.000    0.000    0.000    0.000 
#
# Total GULP energy -144802.233835 kJ/mol
# GULP energy per Si atom -5569.316686 kJ/mol
# Density = 1.919030 g / cm^3
# Si number density = 19.234080 Si / 1000 Ang^3
#
#
#
# Elastic Constant Matrix: (Units=GPa)
#
#
# Indices 1 2 3 4 5 6 
#
# 1 95.7599 43.6195 -2.5147 0.0000 0.0000 0.0000
# 2 43.6195 137.6458 16.6789 0.0000 0.0000 0.0000
# 3 -2.5147 16.6789 43.6072 0.0000 0.0000 0.0000
# 4 0.0000 0.0000 0.0000 17.7467 0.0000 0.0000
# 5 0.0000 0.0000 0.0000 0.0000 16.0019 0.0000
# 6 0.0000 0.0000 0.0000 0.0000 0.0000 1.1592
#
#
#
# Elastic Compliance Matrix: (Units=1/GPa)
#
#
# Indices 1 2 3 4 5 6 
#
# 1 0.012426 -0.004220 0.002331 0.000000 0.000000 0.000000
# 2 -0.004220 0.009051 -0.003705 0.000000 0.000000 0.000000
# 3 0.002331 -0.003705 0.024484 0.000000 0.000000 0.000000
# 4 0.000000 0.000000 0.000000 0.056349 0.000000 0.000000
# 5 0.000000 0.000000 0.000000 0.000000 0.062493 0.000000
# 6 0.000000 0.000000 0.000000 0.000000 0.000000 0.862642
#
#
# Mechanical properties :
#
#
# Convention : Reuss Voigt Hill
#
# Bulk Modulus (GPa) = 28.75909 43.62003 36.18956
# Shear Modulus (GPa) = 4.76088 21.59685 13.17886
#
# Velocity S-wave (km/s) = 1.57499 3.35452 2.62044
# Velocity P-wave (km/s) = 4.27693 6.14260 5.29262
#
# Compressibility (1/GPa) = 0.03477161
#
# Stress axis : x y z
#
# Youngs Moduli (GPa) = 80.47398 110.48011 40.84368
#
# Poissons Ratio (x) = 0.46626 -0.09520
# Poissons Ratio (y) = 0.33962 0.15134
# Poissons Ratio (z) = -0.18756 0.40937
#
# Static dielectric constant tensor:
#      x y z
#    x 1.696390 0.000000 0.000000 
#    y 0.000000 1.689090 0.000000 
#    z 0.000000 0.000000 1.702610 
# 
# From -- ./inp_files/16168.got.cif
#   From: 2010.05.17/outbox.cif.g08.bks.cpg/sg70_9_cif.got.tgz:16168.got - 2010.06.03 15:57:51.
