data_PCOD9515859
_publ_section_title
;
Structure prediction by ZEFSAII (Michael W. Deem and Ramdas Pophale) SiO2 
 PCOD9515859
Probable space group: F D D D
;
_chemical_formula_sum "Si O2"
_cell_formula_units_Z 168
_cell_length_a 13.507946
_cell_length_b 21.691868
_cell_length_c 25.971907
_cell_angle_alpha 90.000000
_cell_angle_beta 90.000000
_cell_angle_gamma 90.000000
_cell_volume 7610.095519
_symmetry_space_group_name_H-M "F D D D"
_symmetry_group_IT_number 70
_space_group.IT_coordinate_system_code '2'
_symmetry_cell_setting 'orthorhombic'
loop_
_space_group_symop_operation_xyz
x,y,z
1/4-x,1/4-y,z
x,1/4-y,1/4-z
1/4-x,y,1/4-z
-x,-y,-z
3/4+x,3/4+y,-z
-x,3/4+y,3/4+z
3/4+x,-y,3/4+z
x,1/2+y,1/2+z
1/4-x,3/4-y,1/2+z
x,3/4-y,3/4-z
1/4-x,1/2+y,3/4-z
-x,1/2-y,1/2-z
3/4+x,1/4+y,1/2-z
-x,1/4+y,1/4+z
3/4+x,1/2-y,1/4+z
1/2+x,y,1/2+z
3/4-x,1/4-y,1/2+z
1/2+x,1/4-y,3/4-z
3/4-x,y,3/4-z
1/2-x,-y,1/2-z
1/4+x,3/4+y,1/2-z
1/2-x,3/4+y,1/4+z
1/4+x,-y,1/4+z
1/2+x,1/2+y,z
3/4-x,3/4-y,z
1/2+x,3/4-y,1/4-z
3/4-x,1/2+y,1/4-z
1/2-x,1/2-y,-z
1/4+x,1/4+y,-z
1/2-x,1/4+y,3/4+z
1/4+x,1/2-y,3/4+z
loop_
_atom_site_type_symbol
_atom_site_label
_atom_site_fract_x
_atom_site_fract_y
_atom_site_fract_z
Si Si1 0.019919 0.648220 0.853328
Si Si2 0.375000 0.375000 0.461310
Si Si3 0.125000 0.625000 0.625000
Si Si4 0.730710 0.975359 0.307933
Si Si5 0.532039 0.212854 0.955083
Si Si6 0.875000 0.193889 0.875000
Si Si7 0.563617 0.515383 0.051398
O O1 0.125000 0.625000 0.833465
O O2 0.024842 0.655757 0.914969
O O3 0.936018 0.600370 0.837021
O O4 0.984338 0.715245 0.838749
O O5 0.468217 0.408925 0.435016
O O6 0.426866 0.320405 0.494021
O O7 0.067291 0.579093 0.584541
O O8 0.750000 0.000000 0.250000
O O9 0.614531 0.988496 0.314891
O O10 0.792296 0.017288 0.346894
O O11 0.427041 0.246119 0.960468
O O12 0.500000 0.500000 0.000000
#
# Coordination Sequence:
#
# PCOD9515859 Si02
#       7
#    32  16   8  32  32  16  32
#     4  12  22  42  74 102 138 191 256 314 380 478
#     4  10  22  41  67 100 148 182 235 307 380 464
#     4  12  26  56  74 112 170 198 278 354 388 486
#     4  10  23  39  67 102 141 188 240 308 385 452
#     4  11  20  45  70 101 141 194 250 308 390 461
#     4  12  21  39  70  99 137 186 242 306 374 458
#     4  12  29  48  75 111 149 210 263 329 420 473
#
# _framework density 22.075938000000001
#
# number of rings (size 3 to 8) (size 9 to 14) (size 15 to 20)
#    0.000    0.762    6.667    1.143    1.333    4.952 
#    0.000    1.905    0.000    0.000    0.000    0.000 
#    0.000    0.000    0.000    0.000    0.000    0.000 
#
# Total GULP energy -234142.090988 kJ/mol
# GULP energy per Si atom -5574.811690 kJ/mol
# Density = 2.202569 g / cm^3
# Si number density = 22.075938 Si / 1000 Ang^3
#
#
#
# Elastic Constant Matrix: (Units=GPa)
#
#
# Indices 1 2 3 4 5 6 
#
# 1 216.4606 74.1579 27.3451 0.0000 0.0000 0.0000
# 2 74.1579 145.0920 24.5236 0.0000 0.0000 0.0000
# 3 27.3451 24.5236 56.8964 0.0000 0.0000 0.0000
# 4 0.0000 0.0000 0.0000 12.4599 0.0000 0.0000
# 5 0.0000 0.0000 0.0000 0.0000 24.1056 0.0000
# 6 0.0000 0.0000 0.0000 0.0000 0.0000 45.9948
#
#
#
# Elastic Compliance Matrix: (Units=1/GPa)
#
#
# Indices 1 2 3 4 5 6 
#
# 1 0.005734 -0.002659 -0.001610 0.000000 0.000000 0.000000
# 2 -0.002659 0.008666 -0.002458 0.000000 0.000000 0.000000
# 3 -0.001610 -0.002458 0.019409 0.000000 0.000000 0.000000
# 4 0.000000 0.000000 0.000000 0.080257 0.000000 0.000000
# 5 0.000000 0.000000 0.000000 0.000000 0.041484 0.000000
# 6 0.000000 0.000000 0.000000 0.000000 0.000000 0.021742
#
#
# Mechanical properties :
#
#
# Convention : Reuss Voigt Hill
#
# Bulk Modulus (GPa) = 49.12335 74.50025 61.81180
# Shear Modulus (GPa) = 25.31259 36.00690 30.65974
#
# Velocity S-wave (km/s) = 3.38984 4.04300 3.73075
# Velocity P-wave (km/s) = 6.13365 7.45755 6.82776
#
# Compressibility (1/GPa) = 0.02035692
#
# Stress axis : x y z
#
# Youngs Moduli (GPa) = 174.39936 115.38819 51.52289
#
# Poissons Ratio (x) = 0.30677 0.08295
# Poissons Ratio (y) = 0.46365 0.12663
# Poissons Ratio (z) = 0.28077 0.28358
#
# Static dielectric constant tensor:
#      x y z
#    x 1.819100 0.000000 0.000000 
#    y 0.000000 1.842840 0.000000 
#    z 0.000000 0.000000 2.082110 
# 
# From -- ./inp_files/50464.got.cif
#   From: 2010.05.17/outbox.cif.g08.bks.cpg/sg70_26_cif.got.tgz:50464.got - 2010.06.03 15:57:51.
