data_PCOD9515215
_publ_section_title
;
Structure prediction by ZEFSAII (Michael W. Deem and Ramdas Pophale) SiO2 
 PCOD9515215
Probable space group: F D D D
;
_chemical_formula_sum "Si O2"
_cell_formula_units_Z 96
_cell_length_a 5.567477
_cell_length_b 25.697084
_cell_length_c 26.402952
_cell_angle_alpha 90.000000
_cell_angle_beta 90.000000
_cell_angle_gamma 90.000000
_cell_volume 3777.415534
_symmetry_space_group_name_H-M "F D D D"
_symmetry_group_IT_number 70
_space_group.IT_coordinate_system_code '2'
_symmetry_cell_setting 'orthorhombic'
loop_
_space_group_symop_operation_xyz
x,y,z
1/4-x,1/4-y,z
x,1/4-y,1/4-z
1/4-x,y,1/4-z
-x,-y,-z
3/4+x,3/4+y,-z
-x,3/4+y,3/4+z
3/4+x,-y,3/4+z
x,1/2+y,1/2+z
1/4-x,3/4-y,1/2+z
x,3/4-y,3/4-z
1/4-x,1/2+y,3/4-z
-x,1/2-y,1/2-z
3/4+x,1/4+y,1/2-z
-x,1/4+y,1/4+z
3/4+x,1/2-y,1/4+z
1/2+x,y,1/2+z
3/4-x,1/4-y,1/2+z
1/2+x,1/4-y,3/4-z
3/4-x,y,3/4-z
1/2-x,-y,1/2-z
1/4+x,3/4+y,1/2-z
1/2-x,3/4+y,1/4+z
1/4+x,-y,1/4+z
1/2+x,1/2+y,z
3/4-x,3/4-y,z
1/2+x,3/4-y,1/4-z
3/4-x,1/2+y,1/4-z
1/2-x,1/2-y,-z
1/4+x,1/4+y,-z
1/2-x,1/4+y,3/4+z
1/4+x,1/2-y,3/4+z
loop_
_atom_site_type_symbol
_atom_site_label
_atom_site_fract_x
_atom_site_fract_y
_atom_site_fract_z
Si Si1 0.733377 0.683493 0.075210
Si Si2 0.125000 0.840397 0.125000
Si Si3 0.125000 0.125000 0.537673
Si Si4 0.680967 0.954813 0.016761
O O1 0.625000 0.625000 0.076959
O O2 0.625000 0.710265 0.125000
O O3 0.013477 0.670752 0.071534
O O4 0.652095 0.708083 0.022590
O O5 0.375000 0.875000 0.116654
O O6 0.054215 0.803591 0.076863
O O7 0.316391 0.150126 0.500828
O O8 0.500000 0.000000 0.000000
#
# Coordination Sequence:
#
# PCOD9515215 Si02
#       4
#    32  16  16  32
#     4   9  20  38  64  98 136 184 235 301 384 445
#     4  12  26  52  80 111 156 215 258 320 404 474
#     4  10  20  43  64  94 140 188 237 314 374 456
#     4  11  25  43  69 106 144 196 259 318 381 470
#
# _framework density 25.414203000000001
#
# number of rings (size 3 to 8) (size 9 to 14) (size 15 to 20)
#    0.000    1.667    1.667    3.000    0.000   14.667 
#    3.000    0.000    0.000    0.000    0.000    0.000 
#    0.000    0.000    0.000    0.000    0.000    0.000 
#
# Total GULP energy -133761.713034 kJ/mol
# GULP energy per Si atom -5573.404710 kJ/mol
# Density = 2.535636 g / cm^3
# Si number density = 25.414203 Si / 1000 Ang^3
#
#
#
# Elastic Constant Matrix: (Units=GPa)
#
#
# Indices 1 2 3 4 5 6 
#
# 1 76.2733 10.5564 64.3824 0.0000 0.0000 0.0000
# 2 10.5564 68.6816 54.6821 0.0000 0.0000 0.0000
# 3 64.3824 54.6821 272.4477 0.0000 0.0000 0.0000
# 4 0.0000 0.0000 0.0000 -268.3067 0.0000 0.0000
# 5 0.0000 0.0000 0.0000 0.0000 11.0682 0.0000
# 6 0.0000 0.0000 0.0000 0.0000 0.0000 -1.9904
#
#
#
# Elastic Compliance Matrix: (Units=1/GPa)
#
#
# Indices 1 2 3 4 5 6 
#
# 1 0.016404 0.000672 -0.004011 0.000000 0.000000 0.000000
# 2 0.000672 0.017357 -0.003642 0.000000 0.000000 0.000000
# 3 -0.004011 -0.003642 0.005349 0.000000 0.000000 0.000000
# 4 0.000000 0.000000 0.000000 -0.003727 0.000000 0.000000
# 5 0.000000 0.000000 0.000000 0.000000 0.090349 0.000000
# 6 0.000000 0.000000 0.000000 0.000000 0.000000 -0.502419
#
#
# Mechanical properties :
#
#
# Convention : Reuss Voigt Hill
#
# Bulk Modulus (GPa) = 39.76628 75.18270 57.47449
# Shear Modulus (GPa) = -14.11064 -32.66033 -23.38549
#
# Velocity S-wave (km/s) = -2.35888 -3.58875 -3.03673
# Velocity P-wave (km/s) = 2.87439 3.53200 3.22003
#
# Compressibility (1/GPa) = 0.02514693
#
# Stress axis : x y z
#
# Youngs Moduli (GPa) = 60.96203 57.61490 186.93609
#
# Poissons Ratio (x) = -0.03874 0.74986
# Poissons Ratio (y) = -0.04099 0.68091
# Poissons Ratio (z) = 0.24454 0.20986
#
# Static dielectric constant tensor:
#      x y z
#    x 2.274240 0.000000 0.000000 
#    y 0.000000 2.089140 0.000000 
#    z 0.000000 0.000000 2.105080 
# 
# From -- ./inp_files/62884.got.cif
#   From: 2010.05.17/outbox.cif.g08.bks.cpg/sg70_32_cif.got.tgz:62884.got - 2010.06.03 15:57:51.
