data_PCOD9515894
_publ_section_title
;
Structure prediction by ZEFSAII (Michael W. Deem and Ramdas Pophale) SiO2 
 PCOD9515894
Probable space group: F D D D
;
_chemical_formula_sum "Si O2"
_cell_formula_units_Z 72
_cell_length_a 11.639492
_cell_length_b 21.120233
_cell_length_c 11.365772
_cell_angle_alpha 90.000000
_cell_angle_beta 90.000000
_cell_angle_gamma 90.000000
_cell_volume 2794.033899
_symmetry_space_group_name_H-M "F D D D"
_symmetry_group_IT_number 70
_space_group.IT_coordinate_system_code '2'
_symmetry_cell_setting 'orthorhombic'
loop_
_space_group_symop_operation_xyz
x,y,z
1/4-x,1/4-y,z
x,1/4-y,1/4-z
1/4-x,y,1/4-z
-x,-y,-z
3/4+x,3/4+y,-z
-x,3/4+y,3/4+z
3/4+x,-y,3/4+z
x,1/2+y,1/2+z
1/4-x,3/4-y,1/2+z
x,3/4-y,3/4-z
1/4-x,1/2+y,3/4-z
-x,1/2-y,1/2-z
3/4+x,1/4+y,1/2-z
-x,1/4+y,1/4+z
3/4+x,1/2-y,1/4+z
1/2+x,y,1/2+z
3/4-x,1/4-y,1/2+z
1/2+x,1/4-y,3/4-z
3/4-x,y,3/4-z
1/2-x,-y,1/2-z
1/4+x,3/4+y,1/2-z
1/2-x,3/4+y,1/4+z
1/4+x,-y,1/4+z
1/2+x,1/2+y,z
3/4-x,3/4-y,z
1/2+x,3/4-y,1/4-z
3/4-x,1/2+y,1/4-z
1/2-x,1/2-y,-z
1/4+x,1/4+y,-z
1/2-x,1/4+y,3/4+z
1/4+x,1/2-y,3/4+z
loop_
_atom_site_type_symbol
_atom_site_label
_atom_site_fract_x
_atom_site_fract_y
_atom_site_fract_z
Si Si1 0.875000 0.875000 0.375000
Si Si2 0.834451 0.805179 0.738848
Si Si3 0.600786 0.809826 0.819276
O O1 0.784476 0.828867 0.444704
O O2 0.875000 0.796685 0.875000
O O3 0.875000 0.875000 0.701555
O O4 0.697192 0.800344 0.722836
O O5 0.873265 0.746640 0.660214
O O6 0.645831 0.875000 0.875000
#
# Coordination Sequence:
#
# PCOD9515894 Si02
#       3
#     8  32  32
#     4   8  20  44  58  88 136 164 212 274 316 388
#     4  11  21  40  68  96 129 172 226 270 327 393
#     4  10  22  42  64  95 133 170 224 268 327 392
#
# _framework density 25.769192
#
# number of rings (size 3 to 8) (size 9 to 14) (size 15 to 20)
#    1.333    0.444    4.444    1.333    0.000    1.778 
#    4.000    0.000    0.000    0.000    0.000    0.000 
#    0.000    0.000    0.000    0.000    0.000    0.000 
#
# Total GULP energy -100319.506936 kJ/mol
# GULP energy per Si atom -5573.305941 kJ/mol
# Density = 2.571054 g / cm^3
# Si number density = 25.769192 Si / 1000 Ang^3
#
#
#
# Elastic Constant Matrix: (Units=GPa)
#
#
# Indices 1 2 3 4 5 6 
#
# 1 231.8420 59.5828 64.9431 0.0000 0.0000 0.0000
# 2 59.5828 239.4218 78.3751 0.0000 0.0000 0.0000
# 3 64.9431 78.3751 72.7944 0.0000 0.0000 0.0000
# 4 0.0000 0.0000 0.0000 -23.7759 0.0000 0.0000
# 5 0.0000 0.0000 0.0000 0.0000 41.7925 0.0000
# 6 0.0000 0.0000 0.0000 0.0000 0.0000 158.7464
#
#
#
# Elastic Compliance Matrix: (Units=1/GPa)
#
#
# Indices 1 2 3 4 5 6 
#
# 1 0.005773 0.000385 -0.005565 0.000000 0.000000 0.000000
# 2 0.000385 0.006476 -0.007316 0.000000 0.000000 0.000000
# 3 -0.005565 -0.007316 0.026579 0.000000 0.000000 0.000000
# 4 0.000000 0.000000 0.000000 -0.042059 0.000000 0.000000
# 5 0.000000 0.000000 0.000000 0.000000 0.023928 0.000000
# 6 0.000000 0.000000 0.000000 0.000000 0.000000 0.006299
#
#
# Mechanical properties :
#
#
# Convention : Reuss Voigt Hill
#
# Bulk Modulus (GPa) = 72.27429 105.54002 88.90715
# Shear Modulus (GPa) = 88.34133 58.09641 73.21887
#
# Velocity S-wave (km/s) = 5.86141 4.75330 5.33620
# Velocity P-wave (km/s) = 8.59744 8.43623 8.51721
#
# Compressibility (1/GPa) = 0.01383618
#
# Stress axis : x y z
#
# Youngs Moduli (GPa) = 173.21396 154.42337 37.62419
#
# Poissons Ratio (x) = -0.05945 0.20938
# Poissons Ratio (y) = -0.06669 0.27525
# Poissons Ratio (z) = 0.96394 1.12971
#
# Static dielectric constant tensor:
#      x y z
#    x 2.128910 0.000000 0.000000 
#    y 0.000000 3.399530 0.000000 
#    z 0.000000 0.000000 2.038570 
# 
# From -- ./inp_files/14363.got.cif
#   From: 2010.05.17/outbox.cif.g08.bks.cpg/sg70_8_cif.got.tgz:14363.got - 2010.06.03 15:57:51.
