data_PCOD9515423
_publ_section_title
;
Structure prediction by ZEFSAII (Michael W. Deem and Ramdas Pophale) SiO2 
 PCOD9515423
Probable space group: F D D D
;
_chemical_formula_sum "Si O2"
_cell_formula_units_Z 144
_cell_length_a 18.004862
_cell_length_b 32.634064
_cell_length_c 13.628809
_cell_angle_alpha 90.000000
_cell_angle_beta 90.000000
_cell_angle_gamma 90.000000
_cell_volume 8007.904092
_symmetry_space_group_name_H-M "F D D D"
_symmetry_group_IT_number 70
_space_group.IT_coordinate_system_code '2'
_symmetry_cell_setting 'orthorhombic'
loop_
_space_group_symop_operation_xyz
x,y,z
1/4-x,1/4-y,z
x,1/4-y,1/4-z
1/4-x,y,1/4-z
-x,-y,-z
3/4+x,3/4+y,-z
-x,3/4+y,3/4+z
3/4+x,-y,3/4+z
x,1/2+y,1/2+z
1/4-x,3/4-y,1/2+z
x,3/4-y,3/4-z
1/4-x,1/2+y,3/4-z
-x,1/2-y,1/2-z
3/4+x,1/4+y,1/2-z
-x,1/4+y,1/4+z
3/4+x,1/2-y,1/4+z
1/2+x,y,1/2+z
3/4-x,1/4-y,1/2+z
1/2+x,1/4-y,3/4-z
3/4-x,y,3/4-z
1/2-x,-y,1/2-z
1/4+x,3/4+y,1/2-z
1/2-x,3/4+y,1/4+z
1/4+x,-y,1/4+z
1/2+x,1/2+y,z
3/4-x,3/4-y,z
1/2+x,3/4-y,1/4-z
3/4-x,1/2+y,1/4-z
1/2-x,1/2-y,-z
1/4+x,1/4+y,-z
1/2-x,1/4+y,3/4+z
1/4+x,1/2-y,3/4+z
loop_
_atom_site_type_symbol
_atom_site_label
_atom_site_fract_x
_atom_site_fract_y
_atom_site_fract_z
Si Si1 0.979047 0.697126 0.143415
Si Si2 0.705184 0.888657 0.078077
Si Si3 0.640444 0.875000 0.875000
Si Si4 0.697687 0.540684 0.858362
Si Si5 0.566700 0.588687 0.786949
O O1 0.912651 0.664221 0.143359
O O2 0.953542 0.743035 0.117766
O O3 0.016638 0.700976 0.250240
O O4 0.036332 0.681027 0.062149
O O5 0.625000 0.897989 0.125000
O O6 0.754064 0.929943 0.071847
O O7 0.750045 0.858416 0.150335
O O8 0.689585 0.869837 0.971941
O O9 0.613594 0.556222 0.850016
O O10 0.625000 0.625000 0.764878
#
# Coordination Sequence:
#
# PCOD9515423 Si02
#       5
#    32  32  16  32  32
#     4  11  21  35  62  90 122 151 193 255 307 351
#     4  11  21  39  61  84 120 159 197 244 294 360
#     4  12  22  38  62  88 116 164 202 234 302 362
#     4  10  23  36  59  93 122 151 195 253 305 350
#     4  10  21  39  60  88 119 156 200 247 300 359
#
# _framework density 17.982233000000001
#
# number of rings (size 3 to 8) (size 9 to 14) (size 15 to 20)
#    0.000    1.333    4.444    2.000    3.111    2.667 
#    0.000    6.111    4.889    0.000    0.000    0.000 
#    0.000    0.000    0.000    0.000    0.000    0.000 
#
# Total GULP energy -201109.059598 kJ/mol
# GULP energy per Si atom -5586.362767 kJ/mol
# Density = 1.794130 g / cm^3
# Si number density = 17.982233 Si / 1000 Ang^3
#
#
#
# Elastic Constant Matrix: (Units=GPa)
#
#
# Indices 1 2 3 4 5 6 
#
# 1 88.4716 41.4501 28.5020 0.0000 0.0000 0.0000
# 2 41.4501 114.9634 32.5145 0.0000 0.0000 0.0000
# 3 28.5020 32.5145 74.2356 0.0000 0.0000 0.0000
# 4 0.0000 0.0000 0.0000 11.9432 0.0000 0.0000
# 5 0.0000 0.0000 0.0000 0.0000 23.4578 0.0000
# 6 0.0000 0.0000 0.0000 0.0000 0.0000 8.8736
#
#
#
# Elastic Compliance Matrix: (Units=1/GPa)
#
#
# Indices 1 2 3 4 5 6 
#
# 1 0.014451 -0.004156 -0.003728 0.000000 0.000000 0.000000
# 2 -0.004156 0.011123 -0.003276 0.000000 0.000000 0.000000
# 3 -0.003728 -0.003276 0.016337 0.000000 0.000000 0.000000
# 4 0.000000 0.000000 0.000000 0.083730 0.000000 0.000000
# 5 0.000000 0.000000 0.000000 0.000000 0.042630 0.000000
# 6 0.000000 0.000000 0.000000 0.000000 0.000000 0.112694
#
#
# Mechanical properties :
#
#
# Convention : Reuss Voigt Hill
#
# Bulk Modulus (GPa) = 51.04426 53.62264 52.33345
# Shear Modulus (GPa) = 16.13859 20.53517 18.33688
#
# Velocity S-wave (km/s) = 2.99904 3.38297 3.19677
# Velocity P-wave (km/s) = 6.35923 6.71892 6.54155
#
# Compressibility (1/GPa) = 0.01959084
#
# Stress axis : x y z
#
# Youngs Moduli (GPa) = 69.19816 89.89979 61.21067
#
# Poissons Ratio (x) = 0.37362 0.22820
# Poissons Ratio (y) = 0.28759 0.20055
# Poissons Ratio (z) = 0.25798 0.29454
#
# Static dielectric constant tensor:
#      x y z
#    x 1.620150 0.000000 0.000000 
#    y 0.000000 1.629890 0.000000 
#    z 0.000000 0.000000 1.615140 
# 
# From -- ./inp_files/26565.got.cif
#   From: 2010.05.17/outbox.cif.g08.bks.cpg/sg70_14_cif.got.tgz:26565.got - 2010.06.03 15:57:51.
