data_PCOD9515056
_publ_section_title
;
Structure prediction by ZEFSAII (Michael W. Deem and Ramdas Pophale) SiO2 
 PCOD9515056
Probable space group: F D D D
;
_chemical_formula_sum "Si O2"
_cell_formula_units_Z 176
_cell_length_a 22.300866
_cell_length_b 22.867300
_cell_length_c 13.721173
_cell_angle_alpha 90.000000
_cell_angle_beta 90.000000
_cell_angle_gamma 90.000000
_cell_volume 6997.257521
_symmetry_space_group_name_H-M "F D D D"
_symmetry_group_IT_number 70
_space_group.IT_coordinate_system_code '2'
_symmetry_cell_setting 'orthorhombic'
loop_
_space_group_symop_operation_xyz
x,y,z
1/4-x,1/4-y,z
x,1/4-y,1/4-z
1/4-x,y,1/4-z
-x,-y,-z
3/4+x,3/4+y,-z
-x,3/4+y,3/4+z
3/4+x,-y,3/4+z
x,1/2+y,1/2+z
1/4-x,3/4-y,1/2+z
x,3/4-y,3/4-z
1/4-x,1/2+y,3/4-z
-x,1/2-y,1/2-z
3/4+x,1/4+y,1/2-z
-x,1/4+y,1/4+z
3/4+x,1/2-y,1/4+z
1/2+x,y,1/2+z
3/4-x,1/4-y,1/2+z
1/2+x,1/4-y,3/4-z
3/4-x,y,3/4-z
1/2-x,-y,1/2-z
1/4+x,3/4+y,1/2-z
1/2-x,3/4+y,1/4+z
1/4+x,-y,1/4+z
1/2+x,1/2+y,z
3/4-x,3/4-y,z
1/2+x,3/4-y,1/4-z
3/4-x,1/2+y,1/4-z
1/2-x,1/2-y,-z
1/4+x,1/4+y,-z
1/2-x,1/4+y,3/4+z
1/4+x,1/2-y,3/4+z
loop_
_atom_site_type_symbol
_atom_site_label
_atom_site_fract_x
_atom_site_fract_y
_atom_site_fract_z
Si Si1 0.702266 0.507737 0.162989
Si Si2 0.283503 0.528707 0.159571
Si Si3 0.371240 0.309145 0.687279
Si Si4 0.465535 0.961060 0.731852
Si Si5 0.354775 0.167082 0.265487
Si Si6 0.735652 0.375000 0.375000
O O1 0.750000 0.500000 0.250000
O O2 0.642420 0.516844 0.224437
O O3 0.723450 0.462014 0.082489
O O4 0.722339 0.569420 0.116679
O O5 0.250000 0.500000 0.250000
O O6 0.312792 0.472737 0.103732
O O7 0.337180 0.569046 0.199449
O O8 0.237712 0.560720 0.086396
O O9 0.375000 0.375000 0.725651
O O10 0.416750 0.313577 0.594026
O O11 0.434240 0.023130 0.759592
O O12 0.375000 0.154435 0.375000
O O13 0.310129 0.120457 0.216225
#
# Coordination Sequence:
#
# PCOD9515056 Si02
#       6
#    32  32  32  32  32  16
#     4   9  20  41  64  88 130 164 208 272 329 382
#     4  11  22  40  64  88 124 173 207 249 327 379
#     4  10  23  39  64  98 123 163 220 265 318 390
#     4   9  20  41  62  87 128 163 205 266 322 376
#     4  10  20  39  64  87 119 165 211 248 308 394
#     4  10  22  40  65  94 124 165 210 272 326 376
#
# _framework density 25.152712000000001
#
# number of rings (size 3 to 8) (size 9 to 14) (size 15 to 20)
#    0.000    2.182    1.818    1.091    5.091    0.727 
#    9.818    0.909    0.000    0.000    0.000    0.000 
#    0.000    0.000    0.000    0.000    0.000    0.000 
#
# Total GULP energy -245766.354958 kJ/mol
# GULP energy per Si atom -5585.598976 kJ/mol
# Density = 2.509546 g / cm^3
# Si number density = 25.152712 Si / 1000 Ang^3
#
#
#
# Elastic Constant Matrix: (Units=GPa)
#
#
# Indices 1 2 3 4 5 6 
#
# 1 105.8262 2.4651 35.2589 0.0000 0.0000 0.0000
# 2 2.4651 34.8875 -2.8093 0.0000 0.0000 0.0000
# 3 35.2589 -2.8093 147.7151 0.0000 0.0000 0.0000
# 4 0.0000 0.0000 0.0000 23.3090 0.0000 0.0000
# 5 0.0000 0.0000 0.0000 0.0000 68.8067 0.0000
# 6 0.0000 0.0000 0.0000 0.0000 0.0000 22.0582
#
#
#
# Elastic Compliance Matrix: (Units=1/GPa)
#
#
# Indices 1 2 3 4 5 6 
#
# 1 0.010296 -0.000927 -0.002475 0.000000 0.000000 0.000000
# 2 -0.000927 0.028791 0.000769 0.000000 0.000000 0.000000
# 3 -0.002475 0.000769 0.007375 0.000000 0.000000 0.000000
# 4 0.000000 0.000000 0.000000 0.042902 0.000000 0.000000
# 5 0.000000 0.000000 0.000000 0.000000 0.014533 0.000000
# 6 0.000000 0.000000 0.000000 0.000000 0.000000 0.045335
#
#
# Mechanical properties :
#
#
# Convention : Reuss Voigt Hill
#
# Bulk Modulus (GPa) = 24.27449 39.80647 32.04048
# Shear Modulus (GPa) = 29.72123 39.73574 34.72849
#
# Velocity S-wave (km/s) = 3.44122 3.97896 3.71982
# Velocity P-wave (km/s) = 5.04590 6.08027 5.58707
#
# Compressibility (1/GPa) = 0.04119551
#
# Stress axis : x y z
#
# Youngs Moduli (GPa) = 97.12776 34.73316 135.58916
#
# Poissons Ratio (x) = 0.03219 0.33561
# Poissons Ratio (y) = 0.09002 -0.10424
# Poissons Ratio (z) = 0.24041 -0.02670
#
# Static dielectric constant tensor:
#      x y z
#    x 2.072230 0.000000 0.000000 
#    y 0.000000 2.048440 0.000000 
#    z 0.000000 0.000000 1.992440 
# 
# From -- ./inp_files/28759.got.cif
#   From: 2010.05.17/outbox.cif.g08.bks.cpg/sg70_15_cif.got.tgz:28759.got - 2010.06.03 15:57:51.
