data_PCOD9515405
_publ_section_title
;
Structure prediction by ZEFSAII (Michael W. Deem and Ramdas Pophale) SiO2 
 PCOD9515405
Probable space group: F D D D
;
_chemical_formula_sum "Si O2"
_cell_formula_units_Z 176
_cell_length_a 15.987710
_cell_length_b 18.284755
_cell_length_c 27.158305
_cell_angle_alpha 90.000000
_cell_angle_beta 90.000000
_cell_angle_gamma 90.000000
_cell_volume 7939.224246
_symmetry_space_group_name_H-M "F D D D"
_symmetry_group_IT_number 70
_space_group.IT_coordinate_system_code '2'
_symmetry_cell_setting 'orthorhombic'
loop_
_space_group_symop_operation_xyz
x,y,z
1/4-x,1/4-y,z
x,1/4-y,1/4-z
1/4-x,y,1/4-z
-x,-y,-z
3/4+x,3/4+y,-z
-x,3/4+y,3/4+z
3/4+x,-y,3/4+z
x,1/2+y,1/2+z
1/4-x,3/4-y,1/2+z
x,3/4-y,3/4-z
1/4-x,1/2+y,3/4-z
-x,1/2-y,1/2-z
3/4+x,1/4+y,1/2-z
-x,1/4+y,1/4+z
3/4+x,1/2-y,1/4+z
1/2+x,y,1/2+z
3/4-x,1/4-y,1/2+z
1/2+x,1/4-y,3/4-z
3/4-x,y,3/4-z
1/2-x,-y,1/2-z
1/4+x,3/4+y,1/2-z
1/2-x,3/4+y,1/4+z
1/4+x,-y,1/4+z
1/2+x,1/2+y,z
3/4-x,3/4-y,z
1/2+x,3/4-y,1/4-z
3/4-x,1/2+y,1/4-z
1/2-x,1/2-y,-z
1/4+x,1/4+y,-z
1/2-x,1/4+y,3/4+z
1/4+x,1/2-y,3/4+z
loop_
_atom_site_type_symbol
_atom_site_label
_atom_site_fract_x
_atom_site_fract_y
_atom_site_fract_z
Si Si1 0.078817 0.968972 0.177854
Si Si2 0.578964 0.552795 0.270560
Si Si3 0.882149 0.960315 0.189043
Si Si4 0.375000 0.475575 0.375000
Si Si5 0.809527 0.700970 0.645144
Si Si6 0.620892 0.314862 0.029672
O O1 0.125000 0.967352 0.125000
O O2 0.097210 0.895902 0.209558
O O3 0.978542 0.973341 0.173692
O O4 0.103728 0.034781 0.214477
O O5 0.625000 0.625000 0.288642
O O6 0.594671 0.480939 0.303747
O O7 0.479932 0.566514 0.276368
O O8 0.875000 0.875000 0.203408
O O9 0.828359 0.983169 0.142150
O O10 0.855246 0.016281 0.232334
O O11 0.459185 0.439640 0.353117
O O12 0.401087 0.522776 0.421826
O O13 0.846530 0.625000 0.625000
#
# Coordination Sequence:
#
# PCOD9515405 Si02
#       6
#    32  32  32  16  32  32
#     4  11  24  44  67  96 131 177 225 274 329 391
#     4  10  24  42  64  95 130 175 224 271 331 388
#     4  11  25  42  66 100 137 173 220 276 333 391
#     4  10  21  38  66  96 133 174 214 268 331 392
#     4  11  23  41  66  98 134 176 220 270 330 398
#     4  10  22  41  65  98 131 174 220 269 328 397
#
# _framework density 22.168413000000001
#
# number of rings (size 3 to 8) (size 9 to 14) (size 15 to 20)
#    0.000    1.455    0.909    3.000    5.091    8.364 
#    6.545    0.000    0.000    0.000    0.000    0.000 
#    0.000    0.000    0.000    0.000    0.000    0.000 
#
# Total GULP energy -245513.882328 kJ/mol
# GULP energy per Si atom -5579.860962 kJ/mol
# Density = 2.211796 g / cm^3
# Si number density = 22.168413 Si / 1000 Ang^3
#
#
#
# Elastic Constant Matrix: (Units=GPa)
#
#
# Indices 1 2 3 4 5 6 
#
# 1 49.0097 16.8945 35.2493 0.0000 0.0000 0.0000
# 2 16.8945 97.6255 32.3859 0.0000 0.0000 0.0000
# 3 35.2493 32.3859 138.8891 0.0000 0.0000 0.0000
# 4 0.0000 0.0000 0.0000 34.4039 0.0000 0.0000
# 5 0.0000 0.0000 0.0000 0.0000 -11.4865 0.0000
# 6 0.0000 0.0000 0.0000 0.0000 0.0000 7.5631
#
#
#
# Elastic Compliance Matrix: (Units=1/GPa)
#
#
# Indices 1 2 3 4 5 6 
#
# 1 0.025492 -0.002455 -0.005897 0.000000 0.000000 0.000000
# 2 -0.002455 0.011338 -0.002021 0.000000 0.000000 0.000000
# 3 -0.005897 -0.002021 0.009168 0.000000 0.000000 0.000000
# 4 0.000000 0.000000 0.000000 0.029066 0.000000 0.000000
# 5 0.000000 0.000000 0.000000 0.000000 -0.087059 0.000000
# 6 0.000000 0.000000 0.000000 0.000000 0.000000 0.132221
#
#
# Mechanical properties :
#
#
# Convention : Reuss Voigt Hill
#
# Bulk Modulus (GPa) = 39.60091 50.50930 45.05511
# Shear Modulus (GPa) = 33.46941 19.49576 26.48258
#
# Velocity S-wave (km/s) = 3.88980 2.96875 3.46006
# Velocity P-wave (km/s) = 6.17062 5.88091 6.02751
#
# Compressibility (1/GPa) = 0.02525194
#
# Stress axis : x y z
#
# Youngs Moduli (GPa) = 39.22814 88.19537 109.07658
#
# Poissons Ratio (x) = 0.21653 0.64325
# Poissons Ratio (y) = 0.09631 0.22042
# Poissons Ratio (z) = 0.23134 0.17822
#
# Static dielectric constant tensor:
#      x y z
#    x 1.802670 0.000000 0.000000 
#    y 0.000000 1.817670 0.000000 
#    z 0.000000 0.000000 1.808820 
# 
# From -- ./inp_files/38563.got.cif
#   From: 2010.05.17/outbox.cif.g08.bks.cpg/sg70_20_cif.got.tgz:38563.got - 2010.06.03 15:57:51.
