data_PCOD9515613
_publ_section_title
;
Structure prediction by ZEFSAII (Michael W. Deem and Ramdas Pophale) SiO2 
 PCOD9515613
Probable space group: F D D D
;
_chemical_formula_sum "Si O2"
_cell_formula_units_Z 112
_cell_length_a 30.135557
_cell_length_b 11.321324
_cell_length_c 13.323233
_cell_angle_alpha 90.000000
_cell_angle_beta 90.000000
_cell_angle_gamma 90.000000
_cell_volume 4545.546088
_symmetry_space_group_name_H-M "F D D D"
_symmetry_group_IT_number 70
_space_group.IT_coordinate_system_code '2'
_symmetry_cell_setting 'orthorhombic'
loop_
_space_group_symop_operation_xyz
x,y,z
1/4-x,1/4-y,z
x,1/4-y,1/4-z
1/4-x,y,1/4-z
-x,-y,-z
3/4+x,3/4+y,-z
-x,3/4+y,3/4+z
3/4+x,-y,3/4+z
x,1/2+y,1/2+z
1/4-x,3/4-y,1/2+z
x,3/4-y,3/4-z
1/4-x,1/2+y,3/4-z
-x,1/2-y,1/2-z
3/4+x,1/4+y,1/2-z
-x,1/4+y,1/4+z
3/4+x,1/2-y,1/4+z
1/2+x,y,1/2+z
3/4-x,1/4-y,1/2+z
1/2+x,1/4-y,3/4-z
3/4-x,y,3/4-z
1/2-x,-y,1/2-z
1/4+x,3/4+y,1/2-z
1/2-x,3/4+y,1/4+z
1/4+x,-y,1/4+z
1/2+x,1/2+y,z
3/4-x,3/4-y,z
1/2+x,3/4-y,1/4-z
3/4-x,1/2+y,1/4-z
1/2-x,1/2-y,-z
1/4+x,1/4+y,-z
1/2-x,1/4+y,3/4+z
1/4+x,1/2-y,3/4+z
loop_
_atom_site_type_symbol
_atom_site_label
_atom_site_fract_x
_atom_site_fract_y
_atom_site_fract_z
Si Si1 0.921204 0.197811 0.325265
Si Si2 0.491817 0.375000 0.875000
Si Si3 0.125000 0.625000 0.951727
Si Si4 0.787729 0.474875 0.944360
Si Si5 0.624622 0.875000 0.375000
O O1 0.875000 0.234811 0.375000
O O2 0.957817 0.295866 0.311117
O O3 0.905848 0.151420 0.219104
O O4 0.945424 0.084970 0.374683
O O5 0.513845 0.463694 0.791730
O O6 0.143315 0.742465 0.893548
O O7 0.167292 0.585647 0.015656
O O8 0.764268 0.375000 0.875000
#
# Coordination Sequence:
#
# PCOD9515613 Si02
#       5
#    32  16  16  32  16
#     4  11  25  49  75 109 151 203 254 317 387 472
#     4  12  28  48  74 115 164 192 262 333 387 470
#     4  10  21  42  73 110 144 202 260 313 375 472
#     4  11  23  46  75 107 153 204 258 324 391 461
#     4  10  23  44  80 107 148 197 257 309 386 462
#
# _framework density 24.639503000000001
#
# number of rings (size 3 to 8) (size 9 to 14) (size 15 to 20)
#    0.000    1.143    0.000    8.571    4.000    1.143 
#    2.571    0.000    6.286    0.000    0.000    0.000 
#    0.000    0.000    0.000    0.000    0.000    0.000 
#
# Total GULP energy -155894.912375 kJ/mol
# GULP energy per Si atom -5567.675442 kJ/mol
# Density = 2.458342 g / cm^3
# Si number density = 24.639503 Si / 1000 Ang^3
#
#
#
# Elastic Constant Matrix: (Units=GPa)
#
#
# Indices 1 2 3 4 5 6 
#
# 1 97.6586 55.2722 41.4088 0.0000 0.0000 0.0000
# 2 55.2722 189.5408 45.6431 0.0000 0.0000 0.0000
# 3 41.4088 45.6431 87.8710 0.0000 0.0000 0.0000
# 4 0.0000 0.0000 0.0000 49.0106 0.0000 0.0000
# 5 0.0000 0.0000 0.0000 0.0000 21.9756 0.0000
# 6 0.0000 0.0000 0.0000 0.0000 0.0000 53.8689
#
#
#
# Elastic Compliance Matrix: (Units=1/GPa)
#
#
# Indices 1 2 3 4 5 6 
#
# 1 0.014031 -0.002857 -0.005128 0.000000 0.000000 0.000000
# 2 -0.002857 0.006612 -0.002088 0.000000 0.000000 0.000000
# 3 -0.005128 -0.002088 0.014882 0.000000 0.000000 0.000000
# 4 0.000000 0.000000 0.000000 0.020404 0.000000 0.000000
# 5 0.000000 0.000000 0.000000 0.000000 0.045505 0.000000
# 6 0.000000 0.000000 0.000000 0.000000 0.000000 0.018564
#
#
# Mechanical properties :
#
#
# Convention : Reuss Voigt Hill
#
# Bulk Modulus (GPa) = 65.02665 73.30207 69.16436
# Shear Modulus (GPa) = 34.41893 40.48745 37.45319
#
# Velocity S-wave (km/s) = 3.74157 4.05803 3.90301
# Velocity P-wave (km/s) = 6.71672 7.19522 6.96008
#
# Compressibility (1/GPa) = 0.01537831
#
# Stress axis : x y z
#
# Youngs Moduli (GPa) = 71.27079 151.24467 67.19691
#
# Poissons Ratio (x) = 0.43206 0.34460
# Poissons Ratio (y) = 0.20360 0.14032
# Poissons Ratio (z) = 0.36549 0.31583
#
# Static dielectric constant tensor:
#      x y z
#    x 2.026960 0.000000 0.000000 
#    y 0.000000 1.990280 0.000000 
#    z 0.000000 0.000000 2.009440 
# 
# From -- ./inp_files/15103.got.cif
#   From: 2010.05.17/outbox.cif.g08.bks.cpg/sg70_8_cif.got.tgz:15103.got - 2010.06.03 15:57:51.
