data_PCOD9515500
_publ_section_title
;
Structure prediction by ZEFSAII (Michael W. Deem and Ramdas Pophale) SiO2 
 PCOD9515500
Probable space group: F D D D
;
_chemical_formula_sum "Si O2"
_cell_formula_units_Z 176
_cell_length_a 22.176926
_cell_length_b 11.764667
_cell_length_c 27.809191
_cell_angle_alpha 90.000000
_cell_angle_beta 90.000000
_cell_angle_gamma 90.000000
_cell_volume 7255.533325
_symmetry_space_group_name_H-M "F D D D"
_symmetry_group_IT_number 70
_space_group.IT_coordinate_system_code '2'
_symmetry_cell_setting 'orthorhombic'
loop_
_space_group_symop_operation_xyz
x,y,z
1/4-x,1/4-y,z
x,1/4-y,1/4-z
1/4-x,y,1/4-z
-x,-y,-z
3/4+x,3/4+y,-z
-x,3/4+y,3/4+z
3/4+x,-y,3/4+z
x,1/2+y,1/2+z
1/4-x,3/4-y,1/2+z
x,3/4-y,3/4-z
1/4-x,1/2+y,3/4-z
-x,1/2-y,1/2-z
3/4+x,1/4+y,1/2-z
-x,1/4+y,1/4+z
3/4+x,1/2-y,1/4+z
1/2+x,y,1/2+z
3/4-x,1/4-y,1/2+z
1/2+x,1/4-y,3/4-z
3/4-x,y,3/4-z
1/2-x,-y,1/2-z
1/4+x,3/4+y,1/2-z
1/2-x,3/4+y,1/4+z
1/4+x,-y,1/4+z
1/2+x,1/2+y,z
3/4-x,3/4-y,z
1/2+x,3/4-y,1/4-z
3/4-x,1/2+y,1/4-z
1/2-x,1/2-y,-z
1/4+x,1/4+y,-z
1/2-x,1/4+y,3/4+z
1/4+x,1/2-y,3/4+z
loop_
_atom_site_type_symbol
_atom_site_label
_atom_site_fract_x
_atom_site_fract_y
_atom_site_fract_z
Si Si1 0.119580 0.441066 0.518558
Si Si2 0.524173 0.118637 0.747815
Si Si3 0.668829 0.480812 0.806221
Si Si4 0.236066 0.625000 0.125000
Si Si5 0.703448 0.886169 0.097012
Si Si6 0.707704 0.024800 0.921704
O O1 0.059047 0.510296 0.502998
O O2 0.172052 0.528330 0.508769
O O3 0.139541 0.327567 0.490465
O O4 0.107449 0.414472 0.574414
O O5 0.493156 0.094839 0.798581
O O6 0.483218 0.078269 0.702954
O O7 0.719123 0.402876 0.830572
O O8 0.697532 0.606151 0.798882
O O9 0.611294 0.495392 0.842291
O O10 0.198287 0.511010 0.118704
O O11 0.744637 0.806772 0.130607
#
# Coordination Sequence:
#
# PCOD9515500 Si02
#       6
#    32  32  32  16  32  32
#     4  11  24  41  70 100 134 181 232 283 361 430
#     4  11  24  43  67 100 138 178 228 297 354 426
#     4  10  21  40  66 101 129 180 232 287 344 413
#     4  10  22  40  68 101 136 169 236 290 340 420
#     4  11  23  43  66 101 136 181 228 286 359 422
#     4  10  24  40  66 100 139 181 229 285 358 423
#
# _framework density 24.257348
#
# number of rings (size 3 to 8) (size 9 to 14) (size 15 to 20)
#    0.000    1.455    3.636    0.545    2.545    3.636 
#    0.000    1.818    4.000    0.000    0.000    0.000 
#    0.000    0.000    0.000    0.000    0.000    0.000 
#
# Total GULP energy -245803.330785 kJ/mol
# GULP energy per Si atom -5586.439336 kJ/mol
# Density = 2.420214 g / cm^3
# Si number density = 24.257348 Si / 1000 Ang^3
#
#
#
# Elastic Constant Matrix: (Units=GPa)
#
#
# Indices 1 2 3 4 5 6 
#
# 1 53.4689 1.9362 13.9892 0.0000 0.0000 0.0000
# 2 1.9362 127.5991 43.4172 0.0000 0.0000 0.0000
# 3 13.9892 43.4172 99.6606 0.0000 0.0000 0.0000
# 4 0.0000 0.0000 0.0000 39.2664 0.0000 0.0000
# 5 0.0000 0.0000 0.0000 0.0000 31.8475 0.0000
# 6 0.0000 0.0000 0.0000 0.0000 0.0000 16.9572
#
#
#
# Elastic Compliance Matrix: (Units=1/GPa)
#
#
# Indices 1 2 3 4 5 6 
#
# 1 0.019476 0.000745 -0.003058 0.000000 0.000000 0.000000
# 2 0.000745 0.009229 -0.004125 0.000000 0.000000 0.000000
# 3 -0.003058 -0.004125 0.012261 0.000000 0.000000 0.000000
# 4 0.000000 0.000000 0.000000 0.025467 0.000000 0.000000
# 5 0.000000 0.000000 0.000000 0.000000 0.031400 0.000000
# 6 0.000000 0.000000 0.000000 0.000000 0.000000 0.058972
#
#
# Mechanical properties :
#
#
# Convention : Reuss Voigt Hill
#
# Bulk Modulus (GPa) = 35.60191 44.37931 39.99061
# Shear Modulus (GPa) = 27.92602 32.37328 30.14965
#
# Velocity S-wave (km/s) = 3.39667 3.65715 3.52931
# Velocity P-wave (km/s) = 5.48560 6.01398 5.75585
#
# Compressibility (1/GPa) = 0.02808838
#
# Stress axis : x y z
#
# Youngs Moduli (GPa) = 51.34617 108.34861 81.56206
#
# Poissons Ratio (x) = -0.08073 0.24945
# Poissons Ratio (y) = -0.03826 0.33648
# Poissons Ratio (z) = 0.15704 0.44698
#
# Static dielectric constant tensor:
#      x y z
#    x 2.072780 0.000000 0.000000 
#    y 0.000000 1.968720 0.000000 
#    z 0.000000 0.000000 1.942840 
# 
# From -- ./inp_files/61681.got.cif
#   From: 2010.05.17/outbox.cif.g08.bks.cpg/sg70_31_cif.got.tgz:61681.got - 2010.06.03 15:57:51.
