data_PCOD9515651
_publ_section_title
;
Structure prediction by ZEFSAII (Michael W. Deem and Ramdas Pophale) SiO2 
 PCOD9515651
Probable space group: F D D D
;
_chemical_formula_sum "Si O2"
_cell_formula_units_Z 160
_cell_length_a 18.724151
_cell_length_b 15.825718
_cell_length_c 20.771424
_cell_angle_alpha 90.000000
_cell_angle_beta 90.000000
_cell_angle_gamma 90.000000
_cell_volume 6155.053447
_symmetry_space_group_name_H-M "F D D D"
_symmetry_group_IT_number 70
_space_group.IT_coordinate_system_code '2'
_symmetry_cell_setting 'orthorhombic'
loop_
_space_group_symop_operation_xyz
x,y,z
1/4-x,1/4-y,z
x,1/4-y,1/4-z
1/4-x,y,1/4-z
-x,-y,-z
3/4+x,3/4+y,-z
-x,3/4+y,3/4+z
3/4+x,-y,3/4+z
x,1/2+y,1/2+z
1/4-x,3/4-y,1/2+z
x,3/4-y,3/4-z
1/4-x,1/2+y,3/4-z
-x,1/2-y,1/2-z
3/4+x,1/4+y,1/2-z
-x,1/4+y,1/4+z
3/4+x,1/2-y,1/4+z
1/2+x,y,1/2+z
3/4-x,1/4-y,1/2+z
1/2+x,1/4-y,3/4-z
3/4-x,y,3/4-z
1/2-x,-y,1/2-z
1/4+x,3/4+y,1/2-z
1/2-x,3/4+y,1/4+z
1/4+x,-y,1/4+z
1/2+x,1/2+y,z
3/4-x,3/4-y,z
1/2+x,3/4-y,1/4-z
3/4-x,1/2+y,1/4-z
1/2-x,1/2-y,-z
1/4+x,1/4+y,-z
1/2-x,1/4+y,3/4+z
1/4+x,1/2-y,3/4+z
loop_
_atom_site_type_symbol
_atom_site_label
_atom_site_fract_x
_atom_site_fract_y
_atom_site_fract_z
Si Si1 0.980895 0.417751 0.231783
Si Si2 0.141837 0.846191 0.059657
Si Si3 0.970074 0.806808 0.613769
Si Si4 0.770703 0.633373 0.697187
Si Si5 0.238548 0.125000 0.125000
Si Si6 0.125000 0.125000 0.752391
O O1 0.064583 0.390509 0.223234
O O2 0.972448 0.517251 0.216207
O O3 0.955028 0.394625 0.303922
O O4 0.948982 0.365762 0.172731
O O5 0.125000 0.794217 0.125000
O O6 0.198512 0.914611 0.091906
O O7 0.187246 0.824719 0.997109
O O8 0.969826 0.711256 0.636305
O O9 0.917602 0.816492 0.553349
O O10 0.795883 0.625000 0.625000
O O11 0.689597 0.602990 0.705389
#
# Coordination Sequence:
#
# PCOD9515651 Si02
#       6
#    32  32  32  32  16  16
#     4  11  24  43  73 105 144 190 253 307 375 457
#     4   9  21  44  67 103 143 191 244 303 371 454
#     4  10  23  44  70 100 145 189 245 306 375 451
#     4  11  24  43  73 112 151 200 252 312 395 451
#     4  12  22  46  71  98 142 185 248 306 368 442
#     4  10  21  44  66 103 148 192 244 304 377 460
#
# _framework density 25.994900999999999
#
# number of rings (size 3 to 8) (size 9 to 14) (size 15 to 20)
#    0.000    1.600    4.000    0.900    1.400    8.000 
#    0.000   11.500    0.000    0.000    0.000    0.000 
#    0.000    0.000    0.000    0.000    0.000    0.000 
#
# Total GULP energy -222895.600387 kJ/mol
# GULP energy per Si atom -5572.390010 kJ/mol
# Density = 2.593574 g / cm^3
# Si number density = 25.994901 Si / 1000 Ang^3
#
#
#
# Elastic Constant Matrix: (Units=GPa)
#
#
# Indices 1 2 3 4 5 6 
#
# 1 145.8611 16.5742 28.3265 0.0000 0.0000 0.0000
# 2 16.5742 170.9690 57.7403 0.0000 0.0000 0.0000
# 3 28.3265 57.7403 247.6195 0.0000 0.0000 0.0000
# 4 0.0000 0.0000 0.0000 42.1080 0.0000 0.0000
# 5 0.0000 0.0000 0.0000 0.0000 61.5064 0.0000
# 6 0.0000 0.0000 0.0000 0.0000 0.0000 -17.4044
#
#
#
# Elastic Compliance Matrix: (Units=1/GPa)
#
#
# Indices 1 2 3 4 5 6 
#
# 1 0.007043 -0.000446 -0.000702 0.000000 0.000000 0.000000
# 2 -0.000446 0.006377 -0.001436 0.000000 0.000000 0.000000
# 3 -0.000702 -0.001436 0.004454 0.000000 0.000000 0.000000
# 4 0.000000 0.000000 0.000000 0.023748 0.000000 0.000000
# 5 0.000000 0.000000 0.000000 0.000000 0.016258 0.000000
# 6 0.000000 0.000000 0.000000 0.000000 0.000000 -0.057457
#
#
# Mechanical properties :
#
#
# Convention : Reuss Voigt Hill
#
# Bulk Modulus (GPa) = 78.69984 85.52574 82.11279
# Shear Modulus (GPa) = 508.83814 48.02924 278.43369
#
# Velocity S-wave (km/s) = 14.00608 4.30308 10.36067
# Velocity P-wave (km/s) = 17.08512 7.59349 13.22048
#
# Compressibility (1/GPa) = 0.01270651
#
# Stress axis : x y z
#
# Youngs Moduli (GPa) = 141.98974 156.80821 224.53799
#
# Poissons Ratio (x) = 0.06990 0.15756
# Poissons Ratio (y) = 0.06329 0.32245
# Poissons Ratio (z) = 0.09964 0.22519
#
# Static dielectric constant tensor:
#      x y z
#    x 2.095010 0.000000 0.000000 
#    y 0.000000 2.117300 0.000000 
#    z 0.000000 0.000000 2.035330 
# 
# From -- ./inp_files/44750.got.cif
#   From: 2010.05.17/outbox.cif.g08.bks.cpg/sg70_23_cif.got.tgz:44750.got - 2010.06.03 15:57:51.
