data_PCOD9515468
_publ_section_title
;
Structure prediction by ZEFSAII (Michael W. Deem and Ramdas Pophale) SiO2 
 PCOD9515468
Probable space group: F D D D
;
_chemical_formula_sum "Si O2"
_cell_formula_units_Z 160
_cell_length_a 15.634244
_cell_length_b 16.556394
_cell_length_c 29.519002
_cell_angle_alpha 90.000000
_cell_angle_beta 90.000000
_cell_angle_gamma 90.000000
_cell_volume 7640.896360
_symmetry_space_group_name_H-M "F D D D"
_symmetry_group_IT_number 70
_space_group.IT_coordinate_system_code '2'
_symmetry_cell_setting 'orthorhombic'
loop_
_space_group_symop_operation_xyz
x,y,z
1/4-x,1/4-y,z
x,1/4-y,1/4-z
1/4-x,y,1/4-z
-x,-y,-z
3/4+x,3/4+y,-z
-x,3/4+y,3/4+z
3/4+x,-y,3/4+z
x,1/2+y,1/2+z
1/4-x,3/4-y,1/2+z
x,3/4-y,3/4-z
1/4-x,1/2+y,3/4-z
-x,1/2-y,1/2-z
3/4+x,1/4+y,1/2-z
-x,1/4+y,1/4+z
3/4+x,1/2-y,1/4+z
1/2+x,y,1/2+z
3/4-x,1/4-y,1/2+z
1/2+x,1/4-y,3/4-z
3/4-x,y,3/4-z
1/2-x,-y,1/2-z
1/4+x,3/4+y,1/2-z
1/2-x,3/4+y,1/4+z
1/4+x,-y,1/4+z
1/2+x,1/2+y,z
3/4-x,3/4-y,z
1/2+x,3/4-y,1/4-z
3/4-x,1/2+y,1/4-z
1/2-x,1/2-y,-z
1/4+x,1/4+y,-z
1/2-x,1/4+y,3/4+z
1/4+x,1/2-y,3/4+z
loop_
_atom_site_type_symbol
_atom_site_label
_atom_site_fract_x
_atom_site_fract_y
_atom_site_fract_z
Si Si1 0.549469 0.182750 0.696269
Si Si2 0.118516 0.737706 0.072556
Si Si3 0.416501 0.625000 0.125000
Si Si4 0.183848 0.964700 0.798097
Si Si5 0.079363 0.889213 0.022642
Si Si6 0.375000 0.375000 0.251364
O O1 0.625000 0.125000 0.681333
O O2 0.476344 0.178788 0.658009
O O3 0.587165 0.270561 0.708165
O O4 0.505089 0.145242 0.741338
O O5 0.125000 0.717789 0.125000
O O6 0.215974 0.730568 0.054818
O O7 0.078541 0.825178 0.063444
O O8 0.069576 0.676184 0.039000
O O9 0.358791 0.682892 0.094040
O O10 0.151984 0.899183 0.760403
O O11 0.150611 0.052058 0.781597
#
# Coordination Sequence:
#
# PCOD9515468 Si02
#       6
#    32  32  16  32  32  16
#     4  10  21  40  64  94 123 168 210 267 319 381
#     4  11  24  40  63  97 125 168 213 268 318 381
#     4  10  23  40  65  96 126 166 214 266 321 384
#     4  10  23  42  64  91 131 167 207 266 316 388
#     4   9  21  41  61  92 126 166 213 254 326 381
#     4  10  21  40  62  88 120 172 210 242 329 372
#
# _framework density 20.939952000000002
#
# number of rings (size 3 to 8) (size 9 to 14) (size 15 to 20)
#    0.000    2.000    0.000    3.000    2.800   12.800 
#    7.200    0.000    0.000    0.000    0.000    0.000 
#    0.000    0.000    0.000    0.000    0.000    0.000 
#
# Total GULP energy -222814.328887 kJ/mol
# GULP energy per Si atom -5570.358222 kJ/mol
# Density = 2.089229 g / cm^3
# Si number density = 20.939952 Si / 1000 Ang^3
#
#
#
# Elastic Constant Matrix: (Units=GPa)
#
#
# Indices 1 2 3 4 5 6 
#
# 1 57.0482 61.5410 24.5505 0.0000 0.0000 0.0000
# 2 61.5410 181.5868 72.0076 0.0000 0.0000 0.0000
# 3 24.5505 72.0076 115.3511 0.0000 0.0000 0.0000
# 4 0.0000 0.0000 0.0000 17.4957 0.0000 0.0000
# 5 0.0000 0.0000 0.0000 0.0000 9.2026 0.0000
# 6 0.0000 0.0000 0.0000 0.0000 0.0000 25.4683
#
#
#
# Elastic Compliance Matrix: (Units=1/GPa)
#
#
# Indices 1 2 3 4 5 6 
#
# 1 0.027631 -0.009346 -0.000047 0.000000 0.000000 0.000000
# 2 -0.009346 0.010480 -0.004553 0.000000 0.000000 0.000000
# 3 -0.000047 -0.004553 0.011521 0.000000 0.000000 0.000000
# 4 0.000000 0.000000 0.000000 0.057157 0.000000 0.000000
# 5 0.000000 0.000000 0.000000 0.000000 0.108665 0.000000
# 6 0.000000 0.000000 0.000000 0.000000 0.000000 0.039264
#
#
# Mechanical properties :
#
#
# Convention : Reuss Voigt Hill
#
# Bulk Modulus (GPa) = 45.99546 74.46491 60.23019
# Shear Modulus (GPa) = 17.24991 23.49244 20.37118
#
# Velocity S-wave (km/s) = 2.87327 3.35311 3.12242
# Velocity P-wave (km/s) = 5.74636 7.11544 6.46723
#
# Compressibility (1/GPa) = 0.02174127
#
# Stress axis : x y z
#
# Youngs Moduli (GPa) = 36.19123 95.42154 86.79614
#
# Poissons Ratio (x) = 0.89179 0.00405
# Poissons Ratio (y) = 0.33824 0.39517
# Poissons Ratio (z) = 0.00169 0.43444
#
# Static dielectric constant tensor:
#      x y z
#    x 1.828270 0.000000 0.000000 
#    y 0.000000 1.837360 0.000000 
#    z 0.000000 0.000000 1.812820 
# 
# From -- ./inp_files/66529.got.cif
#   From: 2010.05.17/outbox.cif.g08.bks.cpg/sg70_34_cif.got.tgz:66529.got - 2010.06.03 15:57:51.
